
 OpenBabel03202209553D

 52 55  0  0  1  0  0  0  0  0999 V2000
   22.7620   14.2760   30.2130 B   0  0  0  0  0  0  0  0  0  0  0  0
   23.0580   12.4120   30.0760 C   0  0  0  0  0  0  0  0  0  0  0  0
   21.9830   11.5410   30.0880 C   0  0  0  0  0  0  0  0  0  0  0  0
   22.1120   10.1960   29.9950 C   0  0  0  0  0  0  0  0  0  0  0  0
   23.4350    9.6620   29.8760 C   0  0  0  0  0  0  0  0  0  0  0  0
   24.4820   10.5540   29.8670 C   0  0  0  0  0  0  0  0  0  0  0  0
   24.3270   11.9190   29.9630 C   0  0  0  0  0  0  0  0  0  0  0  0
   23.4800    8.3000   29.7150 N   0  0  0  0  0  0  0  0  0  0  0  0
   23.5220    6.9630   29.5560 C   0  0  0  0  0  0  0  0  0  0  0  0
   24.1980    6.2780   28.6740 O   0  0  0  0  0  0  0  0  0  0  0  0
   22.7580    6.0320   30.4300 C   0  0  2  0  0  0  0  0  0  0  0  0
   21.7760    6.7210   31.3600 C   0  0  0  0  0  0  0  0  0  0  0  0
   20.8410    5.6810   31.8880 C   0  0  0  0  0  0  0  0  0  0  0  0
   19.6360    5.8560   31.8650 O   0  0  0  0  0  0  0  0  0  0  0  0
   21.4290    4.5170   32.4040 N   0  0  0  0  0  0  0  0  0  0  0  0
   22.7370    4.1380   32.0270 C   0  0  0  0  0  0  0  0  0  0  0  0
   23.3500    3.0760   32.5890 N   0  0  0  0  0  0  0  0  0  0  0  0
   24.6090    2.7020   32.3610 C   0  0  0  0  0  0  0  0  0  0  0  0
   25.2920    3.4850   31.4860 N   0  0  0  0  0  0  0  0  0  0  0  0
   24.7390    4.5670   30.8800 C   0  0  0  0  0  0  0  0  0  0  0  0
   23.4510    4.9450   31.1090 C   0  0  0  0  0  0  0  0  0  0  0  0
   25.5110    5.3170   29.9970 O   0  0  0  0  0  0  0  0  0  0  0  0
   25.2130    1.5540   32.9260 N   0  0  0  0  0  0  0  0  0  0  0  0
   25.5710    1.3630   34.3070 C   0  0  0  0  0  0  0  0  0  0  0  0
   25.2690   -0.0840   34.6840 C   0  0  0  0  0  0  0  0  0  0  0  0
   24.1330   -0.6530   33.8860 C   0  0  2  0  0  0  0  0  0  0  0  0
   24.4230   -0.6320   32.4270 C   0  0  0  0  0  0  0  0  0  0  0  0
   25.5050    0.4080   32.0570 C   0  0  0  0  0  0  0  0  0  0  0  0
   22.8400   -0.0140   34.2290 C   0  0  0  0  0  0  0  0  0  0  0  0
   22.8100    0.7340   35.2270 O   0  0  0  0  0  0  0  0  0  0  0  0
   21.6480   -0.2090   33.4960 N   0  0  0  0  0  0  0  0  0  0  0  0
   20.9610   11.9580   30.1810 H   0  0  0  0  0  0  0  0  0  0  0  0
   21.2580    9.5170   30.0090 H   0  0  0  0  0  0  0  0  0  0  0  0
   25.5020   10.1800   29.7620 H   0  0  0  0  0  0  0  0  0  0  0  0
   25.1690   12.6010   29.9520 H   0  0  0  0  0  0  0  0  0  0  0  0
   22.3630    8.3630   28.9640 H   0  0  0  0  0  0  0  0  0  0  0  0
   22.0170    5.5620   29.6520 H   0  0  0  0  0  0  0  0  0  0  0  0
   21.1560    7.4720   30.8330 H   0  0  0  0  0  0  0  0  0  0  0  0
   22.2780    7.2080   32.1990 H   0  0  0  0  0  0  0  0  0  0  0  0
   20.9360    3.8820   33.0880 H   0  0  0  0  0  0  0  0  0  0  0  0
   26.2330    5.9600   30.3160 H   0  0  0  0  0  0  0  0  0  0  0  0
   24.9830    2.0160   34.9760 H   0  0  0  0  0  0  0  0  0  0  0  0
   26.6320    1.5400   34.5500 H   0  0  0  0  0  0  0  0  0  0  0  0
   26.1900   -0.6880   34.6440 H   0  0  0  0  0  0  0  0  0  0  0  0
   24.9710   -0.0890   35.7600 H   0  0  0  0  0  0  0  0  0  0  0  0
   24.0280   -1.7330   34.1800 H   0  0  0  0  0  0  0  0  0  0  0  0
   23.4970   -0.3490   31.8510 H   0  0  0  0  0  0  0  0  0  0  0  0
   24.7390   -1.6060   32.0150 H   0  0  0  0  0  0  0  0  0  0  0  0
   26.4860   -0.0180   32.2630 H   0  0  0  0  0  0  0  0  0  0  0  0
   25.3230    0.6600   30.9950 H   0  0  0  0  0  0  0  0  0  0  0  0
   20.9250    0.5270   33.3970 H   0  0  0  0  0  0  0  0  0  0  0  0
   21.4890   -1.1300   33.0360 H   0  0  0  0  0  0  0  0  0  0  0  0
  2  3  1  0  0  0  0
  2  1  1  0  0  0  0
  3 32  1  0  0  0  0
  4 33  1  0  0  0  0
  4  3  2  0  0  0  0
  5  4  1  0  0  0  0
  6  5  2  0  0  0  0
  6  7  1  0  0  0  0
  7  2  2  0  0  0  0
  8  5  1  0  0  0  0
  9  8  1  0  0  0  0
  9 11  1  0  0  0  0
 10  9  2  0  0  0  0
 11 37  1  6  0  0  0
 11 21  1  0  0  0  0
 11 12  1  0  0  0  0
 12 13  1  0  0  0  0
 12 39  1  0  0  0  0
 13 15  1  0  0  0  0
 14 13  2  0  0  0  0
 15 40  1  0  0  0  0
 16 15  1  0  0  0  0
 16 17  1  0  0  0  0
 18 17  2  0  0  0  0
 18 23  1  0  0  0  0
 19 18  1  0  0  0  0
 20 21  1  0  0  0  0
 20 19  2  0  0  0  0
 21 16  2  0  0  0  0
 22 41  1  0  0  0  0
 22 20  1  0  0  0  0
 23 24  1  0  0  0  0
 24 43  1  0  0  0  0
 24 25  1  0  0  0  0
 24 42  1  0  0  0  0
 25 45  1  0  0  0  0
 26 46  1  1  0  0  0
 26 29  1  0  0  0  0
 26 25  1  0  0  0  0
 27 26  1  0  0  0  0
 28 49  1  0  0  0  0
 28 27  1  0  0  0  0
 28 23  1  0  0  0  0
 29 30  2  0  0  0  0
 31 29  1  0  0  0  0
 34  6  1  0  0  0  0
 35  7  1  0  0  0  0
 36  8  1  0  0  0  0
 38 12  1  0  0  0  0
 44 25  1  0  0  0  0
 47 27  1  0  0  0  0
 48 27  1  0  0  0  0
 50 28  1  0  0  0  0
 51 31  1  0  0  0  0
 52 31  1  0  0  0  0
M  END
>  <Pose>
1

>  <Score>
-6.93

$$$$
