
 OpenBabel03202209553D

 42 45  0  0  0  0  0  0  0  0999 V2000
   22.3220   14.3750   30.9190 B   0  0  0  0  0  0  0  0  0  0  0  0
   22.7800   12.5210   30.8280 C   0  0  0  0  0  0  0  0  0  0  0  0
   23.9260   12.0530   31.4340 C   0  0  0  0  0  0  0  0  0  0  0  0
   24.2410   10.7110   31.3590 C   0  0  0  0  0  0  0  0  0  0  0  0
   23.4560    9.7880   30.6950 C   0  0  0  0  0  0  0  0  0  0  0  0
   22.3080   10.2720   30.0930 C   0  0  0  0  0  0  0  0  0  0  0  0
   21.9800   11.6110   30.1600 C   0  0  0  0  0  0  0  0  0  0  0  0
   23.8040    8.4030   30.6310 N   0  0  0  0  0  0  0  0  0  0  0  0
   24.8900    7.9120   30.0870 N   0  0  0  0  0  0  0  0  0  0  0  0
   24.9500    6.5690   30.1760 C   0  0  0  0  0  0  0  0  0  0  0  0
   23.8090    6.1860   30.8270 C   0  0  0  0  0  0  0  0  0  0  0  0
   23.1120    7.3440   31.1010 C   0  0  0  0  0  0  0  0  0  0  0  0
   21.8400    7.4310   31.7820 N   0  0  0  0  0  0  0  0  0  0  0  0
   21.3180    8.4690   32.4190 C   0  0  0  0  0  0  0  0  0  0  0  0
   20.0840    8.1470   32.9350 C   0  0  0  0  0  0  0  0  0  0  0  0
   19.8700    6.8370   32.5770 C   0  0  0  0  0  0  0  0  0  0  0  0
   20.9690    6.4130   31.8640 C   0  0  0  0  0  0  0  0  0  0  0  0
   23.4450    4.8120   31.1480 C   0  0  0  0  0  0  0  0  0  0  0  0
   22.3380    4.4100   30.7150 O   0  0  0  0  0  0  0  0  0  0  0  0
   24.2630    3.9450   31.9040 N   0  0  0  0  0  0  0  0  0  0  0  0
   23.7040    3.2790   33.0560 C   0  0  0  0  0  0  0  0  0  0  0  0
   23.6500    1.8100   32.7600 C   0  0  0  0  0  0  0  0  0  0  0  0
   24.5780    1.4260   31.7020 N   0  0  0  0  0  0  0  0  0  0  0  0
   25.7300    2.1950   31.3770 C   0  0  0  0  0  0  0  0  0  0  0  0
   26.7470    1.6290   30.9060 O   0  0  0  0  0  0  0  0  0  0  0  0
   25.6510    3.6540   31.6220 C   0  0  0  0  0  0  0  0  0  0  0  0
   24.5720   12.7630   31.9700 H   0  0  0  0  0  0  0  0  0  0  0  0
   25.1460   10.3690   31.8420 H   0  0  0  0  0  0  0  0  0  0  0  0
   21.6880    9.5470   29.5690 H   0  0  0  0  0  0  0  0  0  0  0  0
   21.0890   11.9780   29.6900 H   0  0  0  0  0  0  0  0  0  0  0  0
   25.7690    5.9570   29.7860 H   0  0  0  0  0  0  0  0  0  0  0  0
   21.7890    9.4420   32.5250 H   0  0  0  0  0  0  0  0  0  0  0  0
   19.4100    8.7990   33.5120 H   0  0  0  0  0  0  0  0  0  0  0  0
   18.9940    6.2470   32.8150 H   0  0  0  0  0  0  0  0  0  0  0  0
   21.1000    5.4040   31.4380 H   0  0  0  0  0  0  0  0  0  0  0  0
   22.7520    3.7090   33.3920 H   0  0  0  0  0  0  0  0  0  0  0  0
   24.4280    3.4030   33.9140 H   0  0  0  0  0  0  0  0  0  0  0  0
   22.6180    1.5140   32.4880 H   0  0  0  0  0  0  0  0  0  0  0  0
   23.9330    1.1900   33.6500 H   0  0  0  0  0  0  0  0  0  0  0  0
   24.3650    0.5320   31.1650 H   0  0  0  0  0  0  0  0  0  0  0  0
   26.2440    3.9090   32.5230 H   0  0  0  0  0  0  0  0  0  0  0  0
   26.0590    4.2550   30.7940 H   0  0  0  0  0  0  0  0  0  0  0  0
  2  1  1  0  0  0  0
  2  3  1  0  0  0  0
  3 27  1  0  0  0  0
  4  3  2  0  0  0  0
  4 28  1  0  0  0  0
  5  4  1  0  0  0  0
  6  7  1  0  0  0  0
  6  5  2  0  0  0  0
  7  2  2  0  0  0  0
  8  5  1  0  0  0  0
  8 12  1  0  0  0  0
  9 10  2  0  0  0  0
  9  8  1  0  0  0  0
 10 11  1  0  0  0  0
 11 12  2  0  0  0  0
 11 18  1  0  0  0  0
 12 13  1  0  0  0  0
 13 17  1  0  0  0  0
 13 14  1  0  0  0  0
 14 32  1  0  0  0  0
 14 15  2  0  0  0  0
 15 33  1  0  0  0  0
 16 34  1  0  0  0  0
 16 15  1  0  0  0  0
 17 16  2  0  0  0  0
 18 20  1  0  0  0  0
 19 18  2  0  0  0  0
 20 21  1  0  0  0  0
 21 36  1  0  0  0  0
 21 37  1  0  0  0  0
 22 21  1  0  0  0  0
 22 39  1  0  0  0  0
 23 22  1  0  0  0  0
 24 26  1  0  0  0  0
 24 23  1  0  0  0  0
 25 24  2  0  0  0  0
 26 20  1  0  0  0  0
 26 41  1  0  0  0  0
 29  6  1  0  0  0  0
 30  7  1  0  0  0  0
 31 10  1  0  0  0  0
 35 17  1  0  0  0  0
 38 22  1  0  0  0  0
 40 23  1  0  0  0  0
 42 26  1  0  0  0  0
M  END
>  <Pose>
1

>  <Score>
-6.23

$$$$
