
 OpenBabel03202209553D

 47 50  0  0  1  0  0  0  0  0999 V2000
   22.0300   20.2980   26.5020 B   0  0  0  0  0  0  0  0  0  0  0  0
   22.8030   18.6160   26.9960 C   0  0  0  0  0  0  0  0  0  0  0  0
   22.5740   18.0620   28.2370 C   0  0  0  0  0  0  0  0  0  0  0  0
   23.1260   16.8460   28.6130 C   0  0  0  0  0  0  0  0  0  0  0  0
   23.9320   16.1430   27.7420 C   0  0  0  0  0  0  0  0  0  0  0  0
   24.1560   16.7050   26.5010 C   0  0  0  0  0  0  0  0  0  0  0  0
   23.6090   17.9140   26.1250 C   0  0  0  0  0  0  0  0  0  0  0  0
   24.4970   14.8900   28.1350 N   0  0  0  0  0  0  0  0  0  0  0  0
   25.7210   14.4410   27.9150 N   0  0  0  0  0  0  0  0  0  0  0  0
   25.8910   13.2340   28.4280 N   0  0  0  0  0  0  0  0  0  0  0  0
   24.7320   12.8470   29.0240 C   0  0  0  0  0  0  0  0  0  0  0  0
   23.8760   13.9150   28.8210 C   0  0  0  0  0  0  0  0  0  0  0  0
   22.6370   13.8020   29.3140 N   0  0  0  0  0  0  0  0  0  0  0  0
   22.2560   12.6960   29.9760 C   0  0  0  0  0  0  0  0  0  0  0  0
   23.0870   11.6480   30.1780 N   0  0  0  0  0  0  0  0  0  0  0  0
   24.3360   11.7190   29.7010 C   0  0  0  0  0  0  0  0  0  0  0  0
   25.1070   10.7520   29.8880 O   0  0  0  0  0  0  0  0  0  0  0  0
   22.5840   10.4970   30.9050 C   0  0  0  0  0  0  0  0  0  0  0  0
   22.4110    9.3270   29.9700 C   0  0  0  0  0  0  0  0  0  0  0  0
   21.8180    9.4700   28.8680 O   0  0  0  0  0  0  0  0  0  0  0  0
   22.9080    8.0470   30.3100 N   0  0  0  0  0  0  0  0  0  0  0  0
   24.3230    7.7600   30.2850 C   0  0  0  0  0  0  0  0  0  0  0  0
   24.4880    6.4160   29.5980 C   0  0  2  0  0  0  0  0  0  0  0  0
   23.7550    5.4110   30.1750 O   0  0  0  0  0  0  0  0  0  0  0  0
   22.8580    5.8230   31.1300 C   0  0  1  0  0  0  0  0  0  0  0  0
   21.9990    6.9910   30.6910 C   0  0  0  0  0  0  0  0  0  0  0  0
   21.9840    4.7190   31.6460 C   0  0  0  0  0  0  0  0  0  0  0  0
   25.9650    6.0390   29.7520 C   0  0  0  0  0  0  0  0  0  0  0  0
   21.9470   18.6040   28.9220 H   0  0  0  0  0  0  0  0  0  0  0  0
   22.9420   16.4200   29.5860 H   0  0  0  0  0  0  0  0  0  0  0  0
   24.7820   16.1790   25.7990 H   0  0  0  0  0  0  0  0  0  0  0  0
   23.7880   18.3560   25.1430 H   0  0  0  0  0  0  0  0  0  0  0  0
   21.2340   12.6340   30.3690 H   0  0  0  0  0  0  0  0  0  0  0  0
   23.2860   10.1790   31.7000 H   0  0  0  0  0  0  0  0  0  0  0  0
   21.5720   10.7020   31.3100 H   0  0  0  0  0  0  0  0  0  0  0  0
   24.7650    7.7450   31.3030 H   0  0  0  0  0  0  0  0  0  0  0  0
   24.8100    8.5510   29.6930 H   0  0  0  0  0  0  0  0  0  0  0  0
   24.2770    6.5660   28.5140 H   0  0  0  0  0  0  0  0  0  0  0  0
   23.4550    6.2050   32.0090 H   0  0  0  0  0  0  0  0  0  0  0  0
   21.3620    7.2710   31.5500 H   0  0  0  0  0  0  0  0  0  0  0  0
   21.3730    6.7520   29.8150 H   0  0  0  0  0  0  0  0  0  0  0  0
   21.7580    4.8910   32.7200 H   0  0  0  0  0  0  0  0  0  0  0  0
   20.9990    4.6740   31.1190 H   0  0  0  0  0  0  0  0  0  0  0  0
   22.5080    3.7320   31.5940 H   0  0  0  0  0  0  0  0  0  0  0  0
   26.5340    6.9840   29.6840 H   0  0  0  0  0  0  0  0  0  0  0  0
   26.1690    5.5790   30.7230 H   0  0  0  0  0  0  0  0  0  0  0  0
   26.2870    5.3950   28.8920 H   0  0  0  0  0  0  0  0  0  0  0  0
  1  2  1  0  0  0  0
  2  3  1  0  0  0  0
  3  4  2  0  0  0  0
  3 29  1  0  0  0  0
  4 30  1  0  0  0  0
  5  8  1  0  0  0  0
  5  4  1  0  0  0  0
  6  5  2  0  0  0  0
  7  6  1  0  0  0  0
  7  2  2  0  0  0  0
  8 12  1  0  0  0  0
  9  8  1  0  0  0  0
  9 10  2  0  0  0  0
 10 11  1  0  0  0  0
 11 16  1  0  0  0  0
 12 11  2  0  0  0  0
 12 13  1  0  0  0  0
 13 14  2  0  0  0  0
 14 15  1  0  0  0  0
 14 33  1  0  0  0  0
 15 18  1  0  0  0  0
 16 17  2  0  0  0  0
 16 15  1  0  0  0  0
 18 35  1  0  0  0  0
 18 34  1  0  0  0  0
 19 21  1  0  0  0  0
 19 18  1  0  0  0  0
 20 19  2  0  0  0  0
 21 26  1  0  0  0  0
 22 21  1  0  0  0  0
 22 36  1  0  0  0  0
 23 38  1  6  0  0  0
 23 28  1  0  0  0  0
 23 24  1  0  0  0  0
 23 22  1  0  0  0  0
 24 25  1  0  0  0  0
 25 27  1  0  0  0  0
 25 39  1  1  0  0  0
 26 25  1  0  0  0  0
 26 40  1  0  0  0  0
 27 42  1  0  0  0  0
 28 46  1  0  0  0  0
 31  6  1  0  0  0  0
 32  7  1  0  0  0  0
 37 22  1  0  0  0  0
 41 26  1  0  0  0  0
 43 27  1  0  0  0  0
 44 27  1  0  0  0  0
 45 28  1  0  0  0  0
 47 28  1  0  0  0  0
M  END
>  <Pose>
1

>  <Score>
-7.01

$$$$
