
 OpenBabel03202209553D

 56 59  0  0  1  0  0  0  0  0999 V2000
   23.9530   16.4220   27.1890 B   0  0  0  0  0  0  0  0  0  0  0  0
   23.9060   14.8150   28.2240 C   0  0  0  0  0  0  0  0  0  0  0  0
   22.7980   14.4430   28.9480 C   0  0  0  0  0  0  0  0  0  0  0  0
   22.7720   13.2640   29.7040 C   0  0  0  0  0  0  0  0  0  0  0  0
   23.8610   12.4350   29.7460 C   0  0  0  0  0  0  0  0  0  0  0  0
   24.9650   12.8170   29.0180 C   0  0  0  0  0  0  0  0  0  0  0  0
   25.0020   13.9810   28.2660 C   0  0  0  0  0  0  0  0  0  0  0  0
   23.8150   11.2360   30.5240 N   0  0  0  0  0  0  0  0  0  0  0  0
   23.0770   10.0470   30.2240 C   0  0  0  0  0  0  0  0  0  0  0  0
   22.0310    9.9460   29.5380 O   0  0  0  0  0  0  0  0  0  0  0  0
   23.7730    8.9080   30.8770 C   0  0  2  0  0  0  0  0  0  0  0  0
   24.7720    9.5060   31.8420 C   0  0  0  0  0  0  0  0  0  0  0  0
   24.4800   10.9610   31.7510 C   0  0  0  0  0  0  0  0  0  0  0  0
   24.7730   11.8480   32.6290 O   0  0  0  0  0  0  0  0  0  0  0  0
   24.3440    8.0760   29.8970 N   0  0  2  0  0  0  0  0  0  0  0  0
   24.1430    6.6850   29.9680 C   0  0  0  0  0  0  0  0  0  0  0  0
   24.9810    6.0130   28.8730 C   0  0  0  0  0  0  0  0  0  0  0  0
   26.4610    6.1570   29.1510 C   0  0  1  0  0  0  0  0  0  0  0  0
   26.7400    7.5160   29.6520 C   0  0  0  0  0  0  0  0  0  0  0  0
   25.6010    8.4660   29.3810 C   0  0  0  0  0  0  0  0  0  0  0  0
   26.8670    5.0850   29.9620 N   0  0  0  0  0  0  0  0  0  0  0  0
   26.0420    3.9540   30.0530 C   0  0  0  0  0  0  0  0  0  0  0  0
   25.7580    3.7300   31.5480 C   0  0  0  0  0  0  0  0  0  0  0  0
   27.0940    3.3780   32.1710 C   0  0  0  0  0  0  0  0  0  0  0  0
   28.2620    3.7340   31.3130 C   0  0  0  0  0  0  0  0  0  0  0  0
   28.0910    5.0860   30.6030 C   0  0  0  0  0  0  0  0  0  0  0  0
   27.1340    5.9990   27.8130 C   0  0  0  0  0  0  0  0  0  0  0  0
   28.3380    6.3680   27.6660 O   0  0  0  0  0  0  0  0  0  0  0  0
   26.4820    5.4480   26.6850 N   0  0  0  0  0  0  0  0  0  0  0  0
   21.9500   15.0980   28.9100 H   0  0  0  0  0  0  0  0  0  0  0  0
   21.8610   13.0390   30.2490 H   0  0  0  0  0  0  0  0  0  0  0  0
   25.8370   12.1880   29.0330 H   0  0  0  0  0  0  0  0  0  0  0  0
   25.8900   14.2630   27.6970 H   0  0  0  0  0  0  0  0  0  0  0  0
   22.9930    8.3950   31.5050 H   0  0  0  0  0  0  0  0  0  0  0  0
   25.8250    9.3780   31.5140 H   0  0  0  0  0  0  0  0  0  0  0  0
   24.5890    9.1970   32.8780 H   0  0  0  0  0  0  0  0  0  0  0  0
   24.5020    6.2990   30.9550 H   0  0  0  0  0  0  0  0  0  0  0  0
   23.0970    6.3420   29.7630 H   0  0  0  0  0  0  0  0  0  0  0  0
   24.7810    6.6330   27.9580 H   0  0  0  0  0  0  0  0  0  0  0  0
   24.6570    4.9880   28.7070 H   0  0  0  0  0  0  0  0  0  0  0  0
   27.6100    7.9390   29.0620 H   0  0  0  0  0  0  0  0  0  0  0  0
   27.1010    7.5680   30.6960 H   0  0  0  0  0  0  0  0  0  0  0  0
   25.8900    9.5190   29.6700 H   0  0  0  0  0  0  0  0  0  0  0  0
   25.4660    8.5590   28.2570 H   0  0  0  0  0  0  0  0  0  0  0  0
   25.0930    4.1080   29.5370 H   0  0  0  0  0  0  0  0  0  0  0  0
   26.5980    3.0630   29.6940 H   0  0  0  0  0  0  0  0  0  0  0  0
   25.4030    4.6840   32.0160 H   0  0  0  0  0  0  0  0  0  0  0  0
   25.0060    2.9340   31.6600 H   0  0  0  0  0  0  0  0  0  0  0  0
   27.1790    3.7590   33.2100 H   0  0  0  0  0  0  0  0  0  0  0  0
   27.0820    2.2570   32.2820 H   0  0  0  0  0  0  0  0  0  0  0  0
   29.1560    3.8550   31.9850 H   0  0  0  0  0  0  0  0  0  0  0  0
   28.5230    2.9490   30.5600 H   0  0  0  0  0  0  0  0  0  0  0  0
   28.9980    5.2270   30.0030 H   0  0  0  0  0  0  0  0  0  0  0  0
   28.1230    5.8600   31.4050 H   0  0  0  0  0  0  0  0  0  0  0  0
   26.7140    4.4960   26.3770 H   0  0  0  0  0  0  0  0  0  0  0  0
   25.7690    5.9910   26.1620 H   0  0  0  0  0  0  0  0  0  0  0  0
  1  2  1  0  0  0  0
  2  7  2  0  0  0  0
  2  3  1  0  0  0  0
  3  4  2  0  0  0  0
  4  5  1  0  0  0  0
  4 31  1  0  0  0  0
  5  8  1  0  0  0  0
  6 32  1  0  0  0  0
  6  5  2  0  0  0  0
  7  6  1  0  0  0  0
  8 13  1  0  0  0  0
  9  8  1  0  0  0  0
  9 11  1  0  0  0  0
 10  9  2  0  0  0  0
 11 34  1  1  0  0  0
 11 12  1  0  0  0  0
 12 36  1  0  0  0  0
 13 12  1  0  0  0  0
 13 14  2  0  0  0  0
 15 20  1  1  0  0  0
 15 16  1  0  0  0  0
 15 11  1  0  0  0  0
 16 37  1  0  0  0  0
 17 18  1  0  0  0  0
 17 16  1  0  0  0  0
 18 27  1  6  0  0  0
 18 19  1  0  0  0  0
 18 21  1  0  0  0  0
 19 42  1  0  0  0  0
 20 19  1  0  0  0  0
 20 43  1  0  0  0  0
 21 22  1  0  0  0  0
 21 26  1  0  0  0  0
 22 23  1  0  0  0  0
 23 48  1  0  0  0  0
 23 47  1  0  0  0  0
 23 24  1  0  0  0  0
 24 50  1  0  0  0  0
 24 49  1  0  0  0  0
 25 51  1  0  0  0  0
 25 24  1  0  0  0  0
 26 25  1  0  0  0  0
 26 54  1  0  0  0  0
 28 27  2  0  0  0  0
 29 27  1  0  0  0  0
 30  3  1  0  0  0  0
 33  7  1  0  0  0  0
 35 12  1  0  0  0  0
 38 16  1  0  0  0  0
 39 17  1  0  0  0  0
 40 17  1  0  0  0  0
 41 19  1  0  0  0  0
 44 20  1  0  0  0  0
 45 22  1  0  0  0  0
 46 22  1  0  0  0  0
 52 25  1  0  0  0  0
 53 26  1  0  0  0  0
 55 29  1  0  0  0  0
 56 29  1  0  0  0  0
M  END
>  <Pose>
1

>  <Score>
-5.22

$$$$
