
 OpenBabel03202209553D

 44 47  0  0  0  0  0  0  0  0999 V2000
   21.6630   13.5080   30.5110 B   0  0  0  0  0  0  0  0  0  0  0  0
   22.0520   11.6300   30.6020 C   0  0  0  0  0  0  0  0  0  0  0  0
   22.1090   10.9730   31.8130 C   0  0  0  0  0  0  0  0  0  0  0  0
   22.3880    9.6220   31.8810 C   0  0  0  0  0  0  0  0  0  0  0  0
   22.6230    8.8720   30.7410 C   0  0  0  0  0  0  0  0  0  0  0  0
   22.5610    9.5490   29.5400 C   0  0  0  0  0  0  0  0  0  0  0  0
   22.2830   10.8940   29.4620 C   0  0  0  0  0  0  0  0  0  0  0  0
   22.9090    7.4790   30.8370 N   0  0  0  0  0  0  0  0  0  0  0  0
   24.0790    6.8670   30.5880 C   0  0  0  0  0  0  0  0  0  0  0  0
   25.1290    7.4770   30.2190 O   0  0  0  0  0  0  0  0  0  0  0  0
   23.9750    5.4900   30.7890 C   0  0  0  0  0  0  0  0  0  0  0  0
   22.7170    5.2820   31.1660 C   0  0  0  0  0  0  0  0  0  0  0  0
   22.6410    3.9520   31.3540 N   0  0  0  0  0  0  0  0  0  0  0  0
   23.8080    3.3830   31.1010 N   0  0  0  0  0  0  0  0  0  0  0  0
   24.6440    4.3310   30.7500 N   0  0  0  0  0  0  0  0  0  0  0  0
   26.0290    4.1820   30.3830 C   0  0  0  0  0  0  0  0  0  0  0  0
   26.1890    3.4290   29.0940 C   0  0  0  0  0  0  0  0  0  0  0  0
   26.7230    4.0890   28.1710 O   0  0  0  0  0  0  0  0  0  0  0  0
   25.7740    2.1030   28.9410 N   0  0  0  0  0  0  0  0  0  0  0  0
   26.5500    1.0150   28.5240 C   0  0  0  0  0  0  0  0  0  0  0  0
   26.6810   -0.0590   29.4200 C   0  0  0  0  0  0  0  0  0  0  0  0
   27.4320   -1.1470   29.0530 C   0  0  0  0  0  0  0  0  0  0  0  0
   28.0710   -1.2390   27.8340 C   0  0  0  0  0  0  0  0  0  0  0  0
   27.9480   -0.2010   26.9600 C   0  0  0  0  0  0  0  0  0  0  0  0
   27.1960    0.8990   27.3180 C   0  0  0  0  0  0  0  0  0  0  0  0
   26.0300   -0.0400   30.7440 C   0  0  0  0  0  0  0  0  0  0  0  0
   22.0570    6.4930   31.1970 C   0  0  0  0  0  0  0  0  0  0  0  0
   20.8610    6.6940   31.5050 O   0  0  0  0  0  0  0  0  0  0  0  0
   21.9310   11.5230   32.7330 H   0  0  0  0  0  0  0  0  0  0  0  0
   22.4350    9.0940   32.8370 H   0  0  0  0  0  0  0  0  0  0  0  0
   22.7380    8.9920   28.6370 H   0  0  0  0  0  0  0  0  0  0  0  0
   22.2310   11.4390   28.5180 H   0  0  0  0  0  0  0  0  0  0  0  0
   21.7450    3.4940   31.6610 H   0  0  0  0  0  0  0  0  0  0  0  0
   23.9720    2.3540   31.1840 H   0  0  0  0  0  0  0  0  0  0  0  0
   26.4970    5.1850   30.1880 H   0  0  0  0  0  0  0  0  0  0  0  0
   26.5420    3.6570   31.2190 H   0  0  0  0  0  0  0  0  0  0  0  0
   24.7390    1.9330   29.1760 H   0  0  0  0  0  0  0  0  0  0  0  0
   27.5600   -2.0080   29.7240 H   0  0  0  0  0  0  0  0  0  0  0  0
   28.6670   -2.1130   27.5540 H   0  0  0  0  0  0  0  0  0  0  0  0
   28.4490   -0.2570   25.9880 H   0  0  0  0  0  0  0  0  0  0  0  0
   27.1340    1.6820   26.5940 H   0  0  0  0  0  0  0  0  0  0  0  0
   26.4330   -0.8600   31.3690 H   0  0  0  0  0  0  0  0  0  0  0  0
   26.2800    0.9050   31.2870 H   0  0  0  0  0  0  0  0  0  0  0  0
   24.9370   -0.1650   30.7040 H   0  0  0  0  0  0  0  0  0  0  0  0
  1  2  1  0  0  0  0
  2  3  1  0  0  0  0
  3  4  2  0  0  0  0
  3 29  1  0  0  0  0
  4 30  1  0  0  0  0
  5  8  1  0  0  0  0
  5  4  1  0  0  0  0
  6  5  2  0  0  0  0
  7  6  1  0  0  0  0
  7  2  2  0  0  0  0
  8 27  1  0  0  0  0
  9 11  1  0  0  0  0
  9  8  1  0  0  0  0
 10  9  2  0  0  0  0
 11 12  2  0  0  0  0
 12 27  1  0  0  0  0
 12 13  1  0  0  0  0
 13 33  1  0  0  0  0
 14 34  1  0  0  0  0
 14 13  1  0  0  0  0
 15 11  1  0  0  0  0
 15 14  1  0  0  0  0
 16 15  1  0  0  0  0
 16 36  1  0  0  0  0
 17 16  1  0  0  0  0
 18 17  2  0  0  0  0
 19 17  1  0  0  0  0
 19 37  1  0  0  0  0
 20 19  1  0  0  0  0
 20 21  1  0  0  0  0
 21 26  1  0  0  0  0
 22 21  2  0  0  0  0
 22 38  1  0  0  0  0
 23 22  1  0  0  0  0
 24 25  1  0  0  0  0
 24 23  2  0  0  0  0
 25 20  2  0  0  0  0
 26 43  1  0  0  0  0
 26 42  1  0  0  0  0
 27 28  2  0  0  0  0
 31  6  1  0  0  0  0
 32  7  1  0  0  0  0
 35 16  1  0  0  0  0
 39 23  1  0  0  0  0
 40 24  1  0  0  0  0
 41 25  1  0  0  0  0
 44 26  1  0  0  0  0
M  END
>  <Pose>
1

>  <Score>
-7.38

$$$$
