
 OpenBabel03202209553D

 49 52  0  0  0  0  0  0  0  0999 V2000
   30.3560   17.7620   25.2060 B   0  0  0  0  0  0  0  0  0  0  0  0
   28.9100   16.7550   25.9880 C   0  0  0  0  0  0  0  0  0  0  0  0
   29.0310   16.1880   27.2340 C   0  0  0  0  0  0  0  0  0  0  0  0
   27.9780   15.4530   27.8010 C   0  0  0  0  0  0  0  0  0  0  0  0
   26.7980   15.2850   27.1180 C   0  0  0  0  0  0  0  0  0  0  0  0
   26.7000   15.8640   25.8710 C   0  0  0  0  0  0  0  0  0  0  0  0
   27.7260   16.5850   25.3070 C   0  0  0  0  0  0  0  0  0  0  0  0
   25.7210   14.5350   27.6880 N   0  0  0  0  0  0  0  0  0  0  0  0
   25.7090   13.2990   28.1930 C   0  0  0  0  0  0  0  0  0  0  0  0
   26.7320   12.5370   28.2420 O   0  0  0  0  0  0  0  0  0  0  0  0
   24.4750   12.9100   28.6600 C   0  0  0  0  0  0  0  0  0  0  0  0
   23.6870   13.9760   28.4260 C   0  0  0  0  0  0  0  0  0  0  0  0
   22.4610   13.6190   28.8800 N   0  0  0  0  0  0  0  0  0  0  0  0
   22.4970   12.3920   29.3690 N   0  0  0  0  0  0  0  0  0  0  0  0
   23.7320   11.9530   29.2370 N   0  0  0  0  0  0  0  0  0  0  0  0
   24.1870   10.6570   29.6530 C   0  0  0  0  0  0  0  0  0  0  0  0
   24.6540   10.6120   31.0360 C   0  0  0  0  0  0  0  0  0  0  0  0
   24.7380   11.6460   31.7610 O   0  0  0  0  0  0  0  0  0  0  0  0
   25.0300    9.3600   31.5720 N   0  0  0  0  0  0  0  0  0  0  0  0
   24.3440    8.1960   31.1420 C   0  0  0  0  0  0  0  0  0  0  0  0
   25.0620    7.3080   30.3790 C   0  0  0  0  0  0  0  0  0  0  0  0
   24.4490    6.1480   29.8890 C   0  0  0  0  0  0  0  0  0  0  0  0
   23.1310    5.9030   30.1710 C   0  0  0  0  0  0  0  0  0  0  0  0
   22.3900    6.7950   30.9430 C   0  0  0  0  0  0  0  0  0  0  0  0
   23.0270    7.9330   31.4140 C   0  0  0  0  0  0  0  0  0  0  0  0
   21.0670    6.4850   31.1820 O   0  0  0  0  0  0  0  0  0  0  0  0
   20.4630    6.2740   32.4200 C   0  0  0  0  0  0  0  0  0  0  0  0
   25.2620    5.3300   29.1420 O   0  0  0  0  0  0  0  0  0  0  0  0
   25.8520    5.6910   27.9470 C   0  0  0  0  0  0  0  0  0  0  0  0
   24.4320   14.9700   27.8360 C   0  0  0  0  0  0  0  0  0  0  0  0
   24.0600   16.1110   27.4670 O   0  0  0  0  0  0  0  0  0  0  0  0
   29.9540   16.3170   27.7750 H   0  0  0  0  0  0  0  0  0  0  0  0
   28.1000   15.0130   28.7810 H   0  0  0  0  0  0  0  0  0  0  0  0
   25.7530   15.7150   25.3490 H   0  0  0  0  0  0  0  0  0  0  0  0
   27.6350   17.0370   24.3240 H   0  0  0  0  0  0  0  0  0  0  0  0
   21.6220   14.2440   28.8340 H   0  0  0  0  0  0  0  0  0  0  0  0
   21.6520   11.9100   29.7750 H   0  0  0  0  0  0  0  0  0  0  0  0
   23.3940    9.8740   29.5230 H   0  0  0  0  0  0  0  0  0  0  0  0
   25.0330   10.2840   29.0060 H   0  0  0  0  0  0  0  0  0  0  0  0
   25.8160    9.2910   32.2900 H   0  0  0  0  0  0  0  0  0  0  0  0
   26.1180    7.5100   30.1570 H   0  0  0  0  0  0  0  0  0  0  0  0
   22.6800    5.0000   29.7830 H   0  0  0  0  0  0  0  0  0  0  0  0
   22.4540    8.6280   32.0180 H   0  0  0  0  0  0  0  0  0  0  0  0
   19.6410    5.5280   32.3190 H   0  0  0  0  0  0  0  0  0  0  0  0
   19.9450    7.2080   32.7900 H   0  0  0  0  0  0  0  0  0  0  0  0
   21.1500    5.9200   33.2100 H   0  0  0  0  0  0  0  0  0  0  0  0
   26.8840    5.2690   27.8890 H   0  0  0  0  0  0  0  0  0  0  0  0
   25.9150    6.7650   27.7880 H   0  0  0  0  0  0  0  0  0  0  0  0
   25.2740    5.1830   27.1170 H   0  0  0  0  0  0  0  0  0  0  0  0
  1  2  1  0  0  0  0
  2  3  1  0  0  0  0
  3 32  1  0  0  0  0
  3  4  2  0  0  0  0
  4 33  1  0  0  0  0
  5  8  1  0  0  0  0
  5  4  1  0  0  0  0
  6  5  2  0  0  0  0
  7  6  1  0  0  0  0
  7  2  2  0  0  0  0
  8 30  1  0  0  0  0
  8  9  1  0  0  0  0
  9 10  2  0  0  0  0
  9 11  1  0  0  0  0
 11 15  1  0  0  0  0
 12 11  2  0  0  0  0
 12 13  1  0  0  0  0
 13 14  1  0  0  0  0
 14 37  1  0  0  0  0
 15 14  1  0  0  0  0
 15 16  1  0  0  0  0
 16 17  1  0  0  0  0
 17 19  1  0  0  0  0
 17 18  2  0  0  0  0
 19 40  1  0  0  0  0
 20 25  1  0  0  0  0
 20 19  1  0  0  0  0
 21 20  2  0  0  0  0
 22 23  2  0  0  0  0
 22 21  1  0  0  0  0
 23 24  1  0  0  0  0
 24 26  1  0  0  0  0
 24 25  2  0  0  0  0
 25 43  1  0  0  0  0
 26 27  1  0  0  0  0
 27 45  1  0  0  0  0
 27 46  1  0  0  0  0
 28 22  1  0  0  0  0
 29 28  1  0  0  0  0
 30 12  1  0  0  0  0
 31 30  2  0  0  0  0
 34  6  1  0  0  0  0
 35  7  1  0  0  0  0
 36 13  1  0  0  0  0
 38 16  1  0  0  0  0
 39 16  1  0  0  0  0
 41 21  1  0  0  0  0
 42 23  1  0  0  0  0
 44 27  1  0  0  0  0
 47 29  1  0  0  0  0
 48 29  1  0  0  0  0
 49 29  1  0  0  0  0
M  END
>  <Pose>
1

>  <Score>
-7.27

$$$$
