
 OpenBabel03202209553D

 36 39  0  0  0  0  0  0  0  0999 V2000
   25.9180    5.0140   29.2510 B   0  0  0  0  0  0  0  0  0  0  0  0
   24.6730    6.2490   30.0200 C   0  0  0  0  0  0  0  0  0  0  0  0
   23.3360    5.9360   30.1620 C   0  0  0  0  0  0  0  0  0  0  0  0
   22.4420    6.8430   30.7230 C   0  0  0  0  0  0  0  0  0  0  0  0
   22.8630    8.0830   31.1560 C   0  0  0  0  0  0  0  0  0  0  0  0
   24.2020    8.3830   31.0080 C   0  0  0  0  0  0  0  0  0  0  0  0
   25.0970    7.4880   30.4510 C   0  0  0  0  0  0  0  0  0  0  0  0
   21.9680    9.0400   31.7390 N   0  0  0  0  0  0  0  0  0  0  0  0
   21.9990   10.3770   31.5450 C   0  0  0  0  0  0  0  0  0  0  0  0
   22.8120   11.0380   30.8230 O   0  0  0  0  0  0  0  0  0  0  0  0
   20.9920   11.0000   32.2590 C   0  0  0  0  0  0  0  0  0  0  0  0
   20.3510   10.0130   32.8880 C   0  0  0  0  0  0  0  0  0  0  0  0
   19.3620   10.6200   33.5870 N   0  0  0  0  0  0  0  0  0  0  0  0
   19.4310   11.9230   33.3680 N   0  0  0  0  0  0  0  0  0  0  0  0
   20.4330   12.1890   32.5470 N   0  0  0  0  0  0  0  0  0  0  0  0
   20.8320   13.4800   32.0700 C   0  0  0  0  0  0  0  0  0  0  0  0
   22.1190   13.9420   32.2570 C   0  0  0  0  0  0  0  0  0  0  0  0
   22.5360   15.1880   31.8060 C   0  0  0  0  0  0  0  0  0  0  0  0
   21.6510   16.0120   31.1430 C   0  0  0  0  0  0  0  0  0  0  0  0
   20.3650   15.5530   30.9550 C   0  0  0  0  0  0  0  0  0  0  0  0
   19.9530   14.3090   31.4060 C   0  0  0  0  0  0  0  0  0  0  0  0
   22.0490   17.2960   30.6680 N   0  0  0  0  0  0  0  0  0  0  0  0
   22.1920   17.5390   29.4550 O   0  0  0  0  0  0  0  0  0  0  0  0
   22.2820   18.2920   31.5620 O   0  0  0  0  0  0  0  0  0  0  0  0
   20.9430    8.8080   32.5750 C   0  0  0  0  0  0  0  0  0  0  0  0
   20.6220    7.6600   32.9710 O   0  0  0  0  0  0  0  0  0  0  0  0
   23.0160    4.9550   29.8180 H   0  0  0  0  0  0  0  0  0  0  0  0
   21.4110    6.6040   30.8350 H   0  0  0  0  0  0  0  0  0  0  0  0
   24.5500    9.3600   31.3460 H   0  0  0  0  0  0  0  0  0  0  0  0
   26.1560    7.7400   30.3400 H   0  0  0  0  0  0  0  0  0  0  0  0
   18.6690   10.1140   34.1970 H   0  0  0  0  0  0  0  0  0  0  0  0
   18.8070   12.6720   33.7650 H   0  0  0  0  0  0  0  0  0  0  0  0
   22.8260   13.3130   32.7720 H   0  0  0  0  0  0  0  0  0  0  0  0
   23.5630   15.5390   31.9640 H   0  0  0  0  0  0  0  0  0  0  0  0
   19.6870   16.2120   30.4330 H   0  0  0  0  0  0  0  0  0  0  0  0
   18.9430   13.9600   31.2530 H   0  0  0  0  0  0  0  0  0  0  0  0
  1  2  1  0  0  0  0
  2  3  2  0  0  0  0
  2  7  1  0  0  0  0
  3  4  1  0  0  0  0
  4 28  1  0  0  0  0
  4  5  2  0  0  0  0
  5  8  1  0  0  0  0
  6  5  1  0  0  0  0
  6 29  1  0  0  0  0
  7  6  2  0  0  0  0
  8 25  1  0  0  0  0
  9  8  1  0  0  0  0
  9 11  1  0  0  0  0
 10  9  2  0  0  0  0
 11 15  1  0  0  0  0
 11 12  2  0  0  0  0
 12 13  1  0  0  0  0
 13 31  1  0  0  0  0
 14 13  1  0  0  0  0
 14 32  1  0  0  0  0
 15 14  1  0  0  0  0
 16 17  1  0  0  0  0
 16 15  1  0  0  0  0
 17 33  1  0  0  0  0
 18 34  1  0  0  0  0
 18 17  2  0  0  0  0
 19 18  1  0  0  0  0
 20 19  2  0  0  0  0
 20 21  1  0  0  0  0
 21 16  2  0  0  0  0
 22 19  1  0  0  0  0
 22 24  2  0  0  0  0
 23 22  2  0  0  0  0
 25 12  1  0  0  0  0
 25 26  2  0  0  0  0
 27  3  1  0  0  0  0
 30  7  1  0  0  0  0
 35 20  1  0  0  0  0
 36 21  1  0  0  0  0
M  END
>  <Pose>
1

>  <Score>
-7.68

$$$$
