
 OpenBabel03202209553D

 38 42  0  0  1  0  0  0  0  0999 V2000
   23.3200   16.8630   27.4910 B   0  0  0  0  0  0  0  0  0  0  0  0
   23.7290   15.2380   28.3800 C   0  0  0  0  0  0  0  0  0  0  0  0
   24.8280   14.5120   27.9900 C   0  0  0  0  0  0  0  0  0  0  0  0
   25.1030   13.3360   28.6540 C   0  0  0  0  0  0  0  0  0  0  0  0
   24.3140   12.8730   29.6840 C   0  0  0  0  0  0  0  0  0  0  0  0
   23.2040   13.6070   30.0790 C   0  0  0  0  0  0  0  0  0  0  0  0
   22.9290   14.7980   29.4050 C   0  0  0  0  0  0  0  0  0  0  0  0
   24.6120   11.6490   30.3680 N   0  0  0  0  0  0  0  0  0  0  0  0
   24.7980   10.4160   29.6910 C   0  0  0  0  0  0  0  0  0  0  0  0
   25.0620   10.3160   28.4690 O   0  0  0  0  0  0  0  0  0  0  0  0
   24.6280    9.3000   30.6600 C   0  0  2  0  0  0  0  0  0  0  0  0
   23.2320    8.7580   30.6610 C   0  0  1  0  0  0  0  0  0  0  0  0
   23.1150    8.3560   32.0100 O   0  0  0  0  0  0  0  0  0  0  0  0
   23.3340    9.6320   32.5870 C   0  0  1  0  0  0  0  0  0  0  0  0
   24.6750    9.9700   32.0340 C   0  0  2  0  0  0  0  0  0  0  0  0
   24.7710   11.4310   31.7690 C   0  0  0  0  0  0  0  0  0  0  0  0
   24.9580   12.2920   32.6330 O   0  0  0  0  0  0  0  0  0  0  0  0
   22.3080   10.4110   31.8470 C   0  0  0  0  0  0  0  0  0  0  0  0
   22.2990    9.8950   30.6220 C   0  0  0  0  0  0  0  0  0  0  0  0
   22.9740    7.6670   29.7130 C   0  0  0  0  0  0  0  0  0  0  0  0
   22.1860    6.6670   30.2150 O   0  0  0  0  0  0  0  0  0  0  0  0
   22.9520    5.5410   30.3800 C   0  0  0  0  0  0  0  0  0  0  0  0
   24.3290    5.8960   29.9240 C   0  0  0  0  0  0  0  0  0  0  0  0
   24.1460    7.0980   29.2490 O   0  0  0  0  0  0  0  0  0  0  0  0
   25.4870   14.8330   27.1780 H   0  0  0  0  0  0  0  0  0  0  0  0
   25.9750   12.7300   28.3660 H   0  0  0  0  0  0  0  0  0  0  0  0
   22.5970   13.2330   30.8860 H   0  0  0  0  0  0  0  0  0  0  0  0
   22.0650   15.3690   29.7120 H   0  0  0  0  0  0  0  0  0  0  0  0
   25.4030    8.5470   30.5220 H   0  0  0  0  0  0  0  0  0  0  0  0
   23.2350    9.6390   33.6590 H   0  0  0  0  0  0  0  0  0  0  0  0
   25.5210    9.6110   32.6200 H   0  0  0  0  0  0  0  0  0  0  0  0
   21.7330   11.2150   32.2870 H   0  0  0  0  0  0  0  0  0  0  0  0
   21.6880   10.3140   29.8290 H   0  0  0  0  0  0  0  0  0  0  0  0
   22.4580    8.1070   28.8180 H   0  0  0  0  0  0  0  0  0  0  0  0
   22.5800    4.6660   29.8110 H   0  0  0  0  0  0  0  0  0  0  0  0
   22.9950    5.3160   31.4770 H   0  0  0  0  0  0  0  0  0  0  0  0
   24.7360    5.1050   29.2290 H   0  0  0  0  0  0  0  0  0  0  0  0
   25.0460    6.0600   30.7680 H   0  0  0  0  0  0  0  0  0  0  0  0
  1  2  1  0  0  0  0
  2  7  1  0  0  0  0
  3  2  2  0  0  0  0
  3  4  1  0  0  0  0
  4  5  2  0  0  0  0
  5  6  1  0  0  0  0
  5  8  1  0  0  0  0
  6 27  1  0  0  0  0
  7 28  1  0  0  0  0
  7  6  2  0  0  0  0
  8 16  1  0  0  0  0
  9  8  1  0  0  0  0
  9 11  1  0  0  0  0
 10  9  2  0  0  0  0
 11 29  1  6  0  0  0
 11 12  1  0  0  0  0
 11 15  1  0  0  0  0
 12 20  1  6  0  0  0
 12 13  1  0  0  0  0
 13 14  1  0  0  0  0
 14 30  1  1  0  0  0
 15 14  1  0  0  0  0
 15 31  1  1  0  0  0
 16 15  1  0  0  0  0
 16 17  2  0  0  0  0
 18 32  1  0  0  0  0
 18 14  1  0  0  0  0
 19 12  1  0  0  0  0
 19 18  2  0  0  0  0
 20 21  1  0  0  0  0
 21 22  1  0  0  0  0
 22 36  1  0  0  0  0
 23 22  1  0  0  0  0
 23 38  1  0  0  0  0
 24 20  1  0  0  0  0
 24 23  1  0  0  0  0
 25  3  1  0  0  0  0
 26  4  1  0  0  0  0
 33 19  1  0  0  0  0
 34 20  1  0  0  0  0
 35 22  1  0  0  0  0
 37 23  1  0  0  0  0
M  END
>  <Pose>
1

>  <Score>
-4.96

$$$$
