
 OpenBabel03202209553D

 50 53  0  0  0  0  0  0  0  0999 V2000
   27.9710    4.7890   27.8120 B   0  0  0  0  0  0  0  0  0  0  0  0
   26.3680    5.1250   28.8030 C   0  0  0  0  0  0  0  0  0  0  0  0
   26.0950    4.4270   29.9670 C   0  0  0  0  0  0  0  0  0  0  0  0
   24.9360    4.6770   30.6760 C   0  0  0  0  0  0  0  0  0  0  0  0
   24.0140    5.6180   30.2620 C   0  0  0  0  0  0  0  0  0  0  0  0
   24.2710    6.3210   29.1040 C   0  0  0  0  0  0  0  0  0  0  0  0
   25.4350    6.0590   28.4090 C   0  0  0  0  0  0  0  0  0  0  0  0
   22.8530    5.8350   31.0120 N   0  0  0  0  0  0  0  0  0  0  0  0
   22.1280    4.7200   31.5330 C   0  0  0  0  0  0  0  0  0  0  0  0
   22.5830    3.5580   31.2860 O   0  0  0  0  0  0  0  0  0  0  0  0
   20.9520    4.9380   32.2910 N   0  0  0  0  0  0  0  0  0  0  0  0
   20.4240    6.2290   32.5790 C   0  0  0  0  0  0  0  0  0  0  0  0
   19.3730    6.3930   33.2590 O   0  0  0  0  0  0  0  0  0  0  0  0
   21.1470    7.4030   32.0580 C   0  0  0  0  0  0  0  0  0  0  0  0
   20.7060    8.6300   32.2910 C   0  0  0  0  0  0  0  0  0  0  0  0
   21.4250    9.7410   31.7740 N   0  0  0  0  0  0  0  0  0  0  0  0
   21.2660   11.0560   32.1790 N   0  0  0  0  0  0  0  0  0  0  0  0
   21.6640   12.1900   31.4180 C   0  0  0  0  0  0  0  0  0  0  0  0
   21.1080   13.4030   31.4960 N   0  0  0  0  0  0  0  0  0  0  0  0
   21.7270   14.2360   30.6430 C   0  0  0  0  0  0  0  0  0  0  0  0
   22.7180   13.5060   30.0020 C   0  0  0  0  0  0  0  0  0  0  0  0
   22.6350   12.2760   30.5080 N   0  0  0  0  0  0  0  0  0  0  0  0
   23.5210   14.0640   29.0790 N   0  0  0  0  0  0  0  0  0  0  0  0
   23.3570   15.3520   28.7760 C   0  0  0  0  0  0  0  0  0  0  0  0
   24.0930   15.9170   27.9100 O   0  0  0  0  0  0  0  0  0  0  0  0
   22.4060   16.1250   29.3650 N   0  0  0  0  0  0  0  0  0  0  0  0
   21.6030   15.5540   30.2930 C   0  0  0  0  0  0  0  0  0  0  0  0
   20.7280   16.2600   30.8350 O   0  0  0  0  0  0  0  0  0  0  0  0
   22.2690   17.5130   29.0040 C   0  0  0  0  0  0  0  0  0  0  0  0
   24.5220   13.2460   28.4590 C   0  0  0  0  0  0  0  0  0  0  0  0
   19.9980   13.8610   32.3400 C   0  0  0  0  0  0  0  0  0  0  0  0
   22.3550    7.1450   31.2820 C   0  0  0  0  0  0  0  0  0  0  0  0
   23.0050    8.1150   30.8160 O   0  0  0  0  0  0  0  0  0  0  0  0
   26.8320    3.6970   30.2720 H   0  0  0  0  0  0  0  0  0  0  0  0
   24.8020    4.0790   31.5830 H   0  0  0  0  0  0  0  0  0  0  0  0
   23.5760    7.0840   28.7210 H   0  0  0  0  0  0  0  0  0  0  0  0
   25.6000    6.6300   27.5060 H   0  0  0  0  0  0  0  0  0  0  0  0
   20.4510    4.0950   32.6540 H   0  0  0  0  0  0  0  0  0  0  0  0
   19.8210    8.8170   32.8580 H   0  0  0  0  0  0  0  0  0  0  0  0
   22.1310    9.5130   31.0230 H   0  0  0  0  0  0  0  0  0  0  0  0
   20.8090   11.1780   33.1300 H   0  0  0  0  0  0  0  0  0  0  0  0
   23.1370   17.8080   28.3790 H   0  0  0  0  0  0  0  0  0  0  0  0
   22.3040   18.1740   29.8990 H   0  0  0  0  0  0  0  0  0  0  0  0
   21.3180   17.6680   28.4640 H   0  0  0  0  0  0  0  0  0  0  0  0
   24.2060   12.8520   27.4730 H   0  0  0  0  0  0  0  0  0  0  0  0
   25.4530   13.8440   28.3720 H   0  0  0  0  0  0  0  0  0  0  0  0
   24.7610   12.3740   29.1030 H   0  0  0  0  0  0  0  0  0  0  0  0
   20.4490   14.3440   33.2550 H   0  0  0  0  0  0  0  0  0  0  0  0
   19.3970   14.6240   31.8440 H   0  0  0  0  0  0  0  0  0  0  0  0
   19.4210   12.9860   32.6960 H   0  0  0  0  0  0  0  0  0  0  0  0
  1  2  1  0  0  0  0
  2  3  1  0  0  0  0
  3 34  1  0  0  0  0
  3  4  2  0  0  0  0
  4 35  1  0  0  0  0
  5  4  1  0  0  0  0
  5  8  1  0  0  0  0
  6  5  2  0  0  0  0
  7  2  2  0  0  0  0
  7  6  1  0  0  0  0
  8 32  1  0  0  0  0
  8  9  1  0  0  0  0
  9 11  1  0  0  0  0
 10  9  2  0  0  0  0
 11 12  1  0  0  0  0
 11 38  1  0  0  0  0
 12 13  2  0  0  0  0
 14 15  2  0  0  0  0
 14 12  1  0  0  0  0
 15 39  1  0  0  0  0
 16 17  1  0  0  0  0
 16 15  1  0  0  0  0
 17 41  1  0  0  0  0
 18 19  1  0  0  0  0
 18 17  1  0  0  0  0
 19 31  1  0  0  0  0
 20 19  1  0  0  0  0
 21 22  1  0  0  0  0
 21 20  2  0  0  0  0
 22 18  2  0  0  0  0
 23 21  1  0  0  0  0
 24 23  1  0  0  0  0
 24 26  1  0  0  0  0
 25 24  2  0  0  0  0
 26 27  1  0  0  0  0
 27 20  1  0  0  0  0
 27 28  2  0  0  0  0
 29 26  1  0  0  0  0
 29 43  1  0  0  0  0
 30 23  1  0  0  0  0
 30 47  1  0  0  0  0
 31 50  1  0  0  0  0
 31 48  1  0  0  0  0
 32 14  1  0  0  0  0
 33 32  2  0  0  0  0
 36  6  1  0  0  0  0
 37  7  1  0  0  0  0
 40 16  1  0  0  0  0
 42 29  1  0  0  0  0
 44 29  1  0  0  0  0
 45 30  1  0  0  0  0
 46 30  1  0  0  0  0
 49 31  1  0  0  0  0
M  END
>  <Pose>
1

>  <Score>
-8.73

$$$$
