
 OpenBabel03202209553D

 44 48  0  0  1  0  0  0  0  0999 V2000
   28.4590    6.1650   25.4530 B   0  0  0  0  0  0  0  0  0  0  0  0
   27.3000    5.9520   26.9250 C   0  0  0  0  0  0  0  0  0  0  0  0
   27.1090    6.9460   27.8620 C   0  0  0  0  0  0  0  0  0  0  0  0
   26.2450    6.7640   28.9440 C   0  0  0  0  0  0  0  0  0  0  0  0
   25.5660    5.5750   29.0860 C   0  0  0  0  0  0  0  0  0  0  0  0
   25.7810    4.6070   28.1330 C   0  0  0  0  0  0  0  0  0  0  0  0
   26.6220    4.7570   27.0630 C   0  0  0  0  0  0  0  0  0  0  0  0
   24.6730    5.2960   30.1450 N   0  0  0  0  0  0  0  0  0  0  0  0
   24.6820    3.9780   30.7480 C   0  0  0  0  0  0  0  0  0  0  0  0
   23.6280    3.8120   31.8180 C   0  0  0  0  0  0  0  0  0  0  0  0
   22.3310    4.4200   31.2630 C   0  0  0  0  0  0  0  0  0  0  0  0
   22.5700    5.8400   31.2340 N   0  0  0  0  0  0  0  0  0  0  0  0
   23.7490    6.2410   30.6690 C   0  0  0  0  0  0  0  0  0  0  0  0
   23.8120    7.5820   30.7250 N   0  0  0  0  0  0  0  0  0  0  0  0
   22.6680    7.9980   31.3240 C   0  0  0  0  0  0  0  0  0  0  0  0
   21.8780    6.9050   31.6490 C   0  0  0  0  0  0  0  0  0  0  0  0
   20.6580    7.0780   32.2720 C   0  0  2  0  0  0  0  0  0  0  0  0
   19.9610    6.0460   32.5530 O   0  0  0  0  0  0  0  0  0  0  0  0
   20.2370    8.3220   32.5630 N   0  0  0  0  0  0  0  0  0  0  0  0
   21.0220    9.3630   32.2370 C   0  0  0  0  0  0  0  0  0  0  0  0
   20.5890   10.5110   32.5280 O   0  0  0  0  0  0  0  0  0  0  0  0
   22.2030    9.2200   31.6360 N   0  0  0  0  0  0  0  0  0  0  0  0
   23.0280   10.3710   31.2990 C   0  0  0  0  0  0  0  0  0  0  0  0
   18.9540    8.5140   33.2170 C   0  0  0  0  0  0  0  0  0  0  0  0
   18.2250    7.2030   33.2320 C   0  0  1  0  0  0  0  0  0  0  0  0
   18.8400    6.1340   33.4550 O   0  0  0  0  0  0  0  0  0  0  0  0
   16.8330    7.1330   32.9970 N   0  0  0  0  0  0  0  0  0  0  0  0
   27.6330    7.8910   27.7710 H   0  0  0  0  0  0  0  0  0  0  0  0
   26.1240    7.5700   29.6520 H   0  0  0  0  0  0  0  0  0  0  0  0
   25.2610    3.6390   28.2010 H   0  0  0  0  0  0  0  0  0  0  0  0
   26.7490    3.9600   26.3460 H   0  0  0  0  0  0  0  0  0  0  0  0
   24.4360    3.2150   29.9540 H   0  0  0  0  0  0  0  0  0  0  0  0
   25.6920    3.7060   31.1320 H   0  0  0  0  0  0  0  0  0  0  0  0
   23.9320    4.3770   32.7420 H   0  0  0  0  0  0  0  0  0  0  0  0
   23.4640    2.7570   32.0210 H   0  0  0  0  0  0  0  0  0  0  0  0
   21.4590    4.1330   31.8510 H   0  0  0  0  0  0  0  0  0  0  0  0
   22.2860    4.0650   30.1960 H   0  0  0  0  0  0  0  0  0  0  0  0
   24.0550   10.0750   31.0910 H   0  0  0  0  0  0  0  0  0  0  0  0
   22.5420   10.9690   30.5090 H   0  0  0  0  0  0  0  0  0  0  0  0
   23.0260   11.0160   32.2220 H   0  0  0  0  0  0  0  0  0  0  0  0
   18.3620    9.2770   32.6890 H   0  0  0  0  0  0  0  0  0  0  0  0
   19.1340    8.8180   34.2590 H   0  0  0  0  0  0  0  0  0  0  0  0
   16.1470    6.8720   33.7410 H   0  0  0  0  0  0  0  0  0  0  0  0
   16.4270    7.3450   32.0520 H   0  0  0  0  0  0  0  0  0  0  0  0
  1  2  1  0  0  0  0
  2  7  2  0  0  0  0
  2  3  1  0  0  0  0
  3  4  2  0  0  0  0
  4  5  1  0  0  0  0
  4 29  1  0  0  0  0
  5  8  1  0  0  0  0
  6 30  1  0  0  0  0
  6  5  2  0  0  0  0
  7  6  1  0  0  0  0
  8 13  1  0  0  0  0
  8  9  1  0  0  0  0
  9 33  1  0  0  0  0
  9 10  1  0  0  0  0
 10 35  1  0  0  0  0
 10 34  1  0  0  0  0
 11 10  1  0  0  0  0
 11 36  1  0  0  0  0
 12 11  1  0  0  0  0
 12 16  1  0  0  0  0
 13 14  2  0  0  0  0
 13 12  1  0  0  0  0
 14 15  1  0  0  0  0
 15 22  1  0  0  0  0
 15 16  2  0  0  0  0
 17 16  1  6  0  0  0
 17 18  1  0  0  0  0
 17 19  1  0  0  0  0
 18 26  1  0  0  0  0
 19 24  1  0  0  0  0
 20 21  2  0  0  0  0
 20 19  1  0  0  0  0
 22 20  1  0  0  0  0
 23 22  1  0  0  0  0
 23 40  1  0  0  0  0
 24 25  1  0  0  0  0
 24 42  1  0  0  0  0
 25 27  1  1  0  0  0
 25 26  1  0  0  0  0
 27 43  1  0  0  0  0
 28  3  1  0  0  0  0
 31  7  1  0  0  0  0
 32  9  1  0  0  0  0
 37 11  1  0  0  0  0
 38 23  1  0  0  0  0
 39 23  1  0  0  0  0
 41 24  1  0  0  0  0
 44 27  1  0  0  0  0
M  END
>  <Pose>
1

>  <Score>
-7.01

$$$$
