
 OpenBabel03202209553D

 47 51  0  0  1  0  0  0  0  0999 V2000
   23.3900    0.2030   33.9510 B   0  0  0  0  0  0  0  0  0  0  0  0
   24.0730    1.5270   32.7350 C   0  0  0  0  0  0  0  0  0  0  0  0
   25.2090    1.3200   32.0120 C   0  0  0  0  0  0  0  0  0  0  0  0
   25.6720    2.3030   31.1400 C   0  0  0  0  0  0  0  0  0  0  0  0
   25.0080    3.5010   30.9830 C   0  0  0  0  0  0  0  0  0  0  0  0
   23.8630    3.6760   31.7300 C   0  0  0  0  0  0  0  0  0  0  0  0
   23.3840    2.7210   32.5970 C   0  0  0  0  0  0  0  0  0  0  0  0
   25.5090    4.4840   30.0840 N   0  0  0  0  0  0  0  0  0  0  0  0
   25.9540    4.3020   28.8450 N   0  0  0  0  0  0  0  0  0  0  0  0
   26.3450    5.4730   28.3090 C   0  0  0  0  0  0  0  0  0  0  0  0
   26.8400    5.6540   27.0910 C   0  0  0  0  0  0  0  0  0  0  0  0
   26.1480    6.4700   29.2420 C   0  0  1  0  0  0  0  0  0  0  0  0
   26.3980    7.7780   29.1320 C   0  0  0  0  0  0  0  0  0  0  0  0
   26.1030    8.6090   30.2480 N   0  0  0  0  0  4  0  0  0  0  0  0
   24.8570    9.3070   30.3740 C   0  0  2  0  0  0  0  0  0  0  0  0
   24.6130    9.7120   31.7930 C   0  0  0  0  0  0  0  0  0  0  0  0
   23.3910   10.5000   31.8600 N   0  0  1  0  0  0  0  0  0  0  0  0
   23.5760   11.6770   31.0210 C   0  0  0  0  0  0  0  0  0  0  0  0
   23.7450   11.3230   29.6330 N   0  0  2  0  0  0  0  0  0  0  0  0
   22.6240   10.4920   29.2020 C   0  0  0  0  0  0  0  0  0  0  0  0
   22.4920    9.3060   30.0180 N   0  0  2  0  0  0  0  0  0  0  0  0
   22.2870    9.7010   31.3920 C   0  0  0  0  0  0  0  0  0  0  0  0
   23.6760    8.4880   29.9090 C   0  0  0  0  0  0  0  0  0  0  0  0
   24.9480   10.5470   29.4790 C   0  0  0  0  0  0  0  0  0  0  0  0
   25.6220    5.8040   30.3390 C   0  0  0  0  0  0  0  0  0  0  0  0
   25.3010    6.3680   31.4100 O   0  0  0  0  0  0  0  0  0  0  0  0
   25.7430    0.3920   32.1200 H   0  0  0  0  0  0  0  0  0  0  0  0
   26.5730    2.1340   30.5700 H   0  0  0  0  0  0  0  0  0  0  0  0
   23.3310    4.6080   31.6190 H   0  0  0  0  0  0  0  0  0  0  0  0
   22.4820    2.8520   33.1900 H   0  0  0  0  0  0  0  0  0  0  0  0
   25.9940    3.3850   28.3580 H   0  0  0  0  0  0  0  0  0  0  0  0
   26.9590    4.8100   26.4270 H   0  0  0  0  0  0  0  0  0  0  0  0
   27.1370    6.6120   26.7130 H   0  0  0  0  0  0  0  0  0  0  0  0
   26.8100    8.1490   28.2100 H   0  0  0  0  0  0  0  0  0  0  0  0
   26.8200    8.7010   30.9830 H   0  0  0  0  0  0  0  0  0  0  0  0
   25.4790   10.2580   32.1810 H   0  0  0  0  0  0  0  0  0  0  0  0
   24.4830    8.7800   32.3900 H   0  0  0  0  0  0  0  0  0  0  0  0
   24.4720   12.2070   31.3700 H   0  0  0  0  0  0  0  0  0  0  0  0
   22.6620   12.3110   31.0940 H   0  0  0  0  0  0  0  0  0  0  0  0
   22.7270   10.2750   28.1340 H   0  0  0  0  0  0  0  0  0  0  0  0
   21.7160   11.1160   29.3360 H   0  0  0  0  0  0  0  0  0  0  0  0
   22.2440    8.7970   32.0530 H   0  0  0  0  0  0  0  0  0  0  0  0
   21.3660   10.2980   31.4970 H   0  0  0  0  0  0  0  0  0  0  0  0
   23.5630    7.6030   30.5670 H   0  0  0  0  0  0  0  0  0  0  0  0
   23.7960    8.1390   28.8600 H   0  0  0  0  0  0  0  0  0  0  0  0
   25.8140   11.1260   29.8620 H   0  0  0  0  0  0  0  0  0  0  0  0
   25.0830   10.1960   28.4370 H   0  0  0  0  0  0  0  0  0  0  0  0
  2  1  1  0  0  0  0
  3 27  1  0  0  0  0
  3  2  2  0  0  0  0
  4  3  1  0  0  0  0
  5  4  2  0  0  0  0
  5  6  1  0  0  0  0
  6  7  2  0  0  0  0
  7  2  1  0  0  0  0
  7 30  1  0  0  0  0
  8 25  1  0  0  0  0
  8  5  1  0  0  0  0
  9  8  1  0  0  0  0
 10  9  1  0  0  0  0
 10 12  1  0  0  0  0
 11 10  2  0  0  0  0
 12 13  1  6  0  0  0
 12 25  1  0  0  0  0
 13 14  2  0  0  0  0
 14 35  1  0  0  0  0
 15 14  1  6  0  0  0
 15 16  1  0  0  0  0
 16 17  1  0  0  0  0
 16 36  1  0  0  0  0
 16 37  1  0  0  0  0
 17 18  1  6  0  0  0
 18 39  1  0  0  0  0
 18 38  1  0  0  0  0
 19 20  1  1  0  0  0
 19 18  1  0  0  0  0
 20 41  1  0  0  0  0
 21 20  1  6  0  0  0
 21 22  1  0  0  0  0
 22 43  1  0  0  0  0
 22 17  1  0  0  0  0
 22 42  1  0  0  0  0
 23 21  1  0  0  0  0
 23 15  1  0  0  0  0
 23 44  1  0  0  0  0
 24 19  1  0  0  0  0
 24 46  1  0  0  0  0
 24 15  1  0  0  0  0
 25 26  2  0  0  0  0
 28  4  1  0  0  0  0
 29  6  1  0  0  0  0
 31  9  1  0  0  0  0
 32 11  1  0  0  0  0
 33 11  1  0  0  0  0
 34 13  1  0  0  0  0
 40 20  1  0  0  0  0
 45 23  1  0  0  0  0
 47 24  1  0  0  0  0
M  END
>  <Pose>
1

>  <Score>
-5.61

$$$$
