
 OpenBabel03202209553D

 56 59  0  0  1  0  0  0  0  0999 V2000
   25.0790    0.7430   34.5340 B   0  0  0  0  0  0  0  0  0  0  0  0
   25.3280    2.0730   33.2000 C   0  0  0  0  0  0  0  0  0  0  0  0
   26.5630    2.2120   32.6260 C   0  0  0  0  0  0  0  0  0  0  0  0
   26.7480    3.1760   31.6590 C   0  0  0  0  0  0  0  0  0  0  0  0
   25.7300    4.0100   31.2430 C   0  0  0  0  0  0  0  0  0  0  0  0
   24.4680    3.8420   31.8560 C   0  0  0  0  0  0  0  0  0  0  0  0
   24.2900    2.8940   32.8070 C   0  0  0  0  0  0  0  0  0  0  0  0
   25.8480    4.9410   30.3270 O   0  0  0  0  0  0  0  0  0  0  0  0
   25.4540    5.9420   29.5690 C   0  0  0  0  0  0  0  0  0  0  0  0
   24.7510    7.0550   30.2790 C   0  0  1  0  0  0  0  0  0  0  0  0
   25.6700    8.1030   30.4310 O   0  0  0  0  0  0  0  0  0  0  0  0
   23.4530    7.5210   29.6890 C   0  0  0  0  0  0  0  0  0  0  0  0
   22.5040    8.0750   30.6310 N   0  0  0  0  0  0  0  0  0  0  0  0
   21.5910    7.3760   31.3430 C   0  0  0  0  0  0  0  0  0  0  0  0
   20.8360    8.2660   32.0730 C   0  0  0  0  0  0  0  0  0  0  0  0
   21.3200    9.4550   31.7800 N   0  0  0  0  0  0  0  0  0  0  0  0
   22.3590    9.3840   30.8890 C   0  0  0  0  0  0  0  0  0  0  0  0
   23.1150   10.5300   30.4530 N   0  0  0  0  0  0  0  0  0  0  0  0
   23.4210   11.4830   31.5430 C   0  0  0  0  0  0  0  0  0  0  0  0
   24.4360   12.4990   31.2060 C   0  0  0  0  0  0  0  0  0  0  0  0
   24.3880   12.9250   29.8300 N   0  0  0  0  0  0  0  0  0  0  0  0
   24.6970   11.7720   29.0460 C   0  0  0  0  0  0  0  0  0  0  0  0
   23.5870   10.7240   29.1280 C   0  0  0  0  0  0  0  0  0  0  0  0
   23.1670   13.5840   29.4990 C   0  0  0  0  0  0  0  0  0  0  0  0
   19.8200    7.8990   32.9070 N   0  0  0  0  0  0  0  0  0  0  0  0
   19.5520    6.5970   33.0120 C   0  0  0  0  0  0  0  0  0  0  0  0
   18.6150    6.2400   33.7770 O   0  0  0  0  0  0  0  0  0  0  0  0
   20.2700    5.7070   32.3140 N   0  0  0  0  0  0  0  0  0  0  0  0
   21.2830    6.0400   31.4800 C   0  0  0  0  0  0  0  0  0  0  0  0
   21.9310    5.1940   30.8480 O   0  0  0  0  0  0  0  0  0  0  0  0
   19.0690    8.9220   33.6360 C   0  0  0  0  0  0  0  0  0  0  0  0
   27.3860    1.5660   32.9280 H   0  0  0  0  0  0  0  0  0  0  0  0
   27.7390    3.2470   31.2510 H   0  0  0  0  0  0  0  0  0  0  0  0
   23.6660    4.4900   31.5400 H   0  0  0  0  0  0  0  0  0  0  0  0
   23.2980    2.7800   33.2630 H   0  0  0  0  0  0  0  0  0  0  0  0
   26.3100    6.4070   28.9360 H   0  0  0  0  0  0  0  0  0  0  0  0
   24.7030    5.6170   28.7430 H   0  0  0  0  0  0  0  0  0  0  0  0
   24.4670    6.6630   31.3090 H   0  0  0  0  0  0  0  0  0  0  0  0
   26.3950    7.8080   31.0720 H   0  0  0  0  0  0  0  0  0  0  0  0
   23.0240    6.7910   28.9810 H   0  0  0  0  0  0  0  0  0  0  0  0
   23.7630    8.3680   28.9910 H   0  0  0  0  0  0  0  0  0  0  0  0
   22.4600   11.9020   31.9230 H   0  0  0  0  0  0  0  0  0  0  0  0
   23.8180   10.8680   32.4030 H   0  0  0  0  0  0  0  0  0  0  0  0
   24.3540   13.3290   31.9170 H   0  0  0  0  0  0  0  0  0  0  0  0
   25.4610   12.0410   31.3370 H   0  0  0  0  0  0  0  0  0  0  0  0
   24.8130   12.0670   27.9720 H   0  0  0  0  0  0  0  0  0  0  0  0
   25.6490   11.3530   29.3690 H   0  0  0  0  0  0  0  0  0  0  0  0
   24.1380    9.7710   28.8480 H   0  0  0  0  0  0  0  0  0  0  0  0
   22.8660   11.0460   28.3710 H   0  0  0  0  0  0  0  0  0  0  0  0
   23.3680   14.6900   29.4240 H   0  0  0  0  0  0  0  0  0  0  0  0
   22.6920   13.2530   28.5600 H   0  0  0  0  0  0  0  0  0  0  0  0
   22.3760   13.5060   30.2900 H   0  0  0  0  0  0  0  0  0  0  0  0
   20.0310    4.6990   32.4220 H   0  0  0  0  0  0  0  0  0  0  0  0
   18.1010    8.5500   33.9810 H   0  0  0  0  0  0  0  0  0  0  0  0
   18.8500    9.7320   32.9050 H   0  0  0  0  0  0  0  0  0  0  0  0
   19.6500    9.2990   34.4930 H   0  0  0  0  0  0  0  0  0  0  0  0
  2  1  1  0  0  0  0
  3 32  1  0  0  0  0
  3  2  2  0  0  0  0
  4  3  1  0  0  0  0
  5  4  2  0  0  0  0
  5  6  1  0  0  0  0
  6  7  2  0  0  0  0
  7  2  1  0  0  0  0
  7 35  1  0  0  0  0
  8  5  1  0  0  0  0
  9 10  1  0  0  0  0
  9  8  1  0  0  0  0
 10 11  1  0  0  0  0
 10 38  1  1  0  0  0
 11 39  1  0  0  0  0
 12 10  1  0  0  0  0
 12 13  1  0  0  0  0
 13 17  1  0  0  0  0
 13 14  1  0  0  0  0
 14 29  1  0  0  0  0
 14 15  2  0  0  0  0
 15 25  1  0  0  0  0
 16 15  1  0  0  0  0
 17 16  2  0  0  0  0
 18 17  1  0  0  0  0
 18 19  1  0  0  0  0
 19 42  1  0  0  0  0
 19 43  1  0  0  0  0
 20 45  1  0  0  0  0
 20 19  1  0  0  0  0
 20 44  1  0  0  0  0
 21 20  1  0  0  0  0
 22 23  1  0  0  0  0
 22 47  1  0  0  0  0
 22 21  1  0  0  0  0
 23 18  1  0  0  0  0
 24 21  1  0  0  0  0
 24 52  1  0  0  0  0
 25 26  1  0  0  0  0
 25 31  1  0  0  0  0
 26 27  2  0  0  0  0
 28 53  1  0  0  0  0
 28 26  1  0  0  0  0
 29 28  1  0  0  0  0
 30 29  2  0  0  0  0
 31 54  1  0  0  0  0
 31 56  1  0  0  0  0
 33  4  1  0  0  0  0
 34  6  1  0  0  0  0
 36  9  1  0  0  0  0
 37  9  1  0  0  0  0
 40 12  1  0  0  0  0
 41 12  1  0  0  0  0
 46 22  1  0  0  0  0
 48 23  1  0  0  0  0
 49 23  1  0  0  0  0
 50 24  1  0  0  0  0
 51 24  1  0  0  0  0
 55 31  1  0  0  0  0
M  END
>  <Pose>
1

>  <Score>
-8.29

$$$$
