
 OpenBabel03202209553D

 49 52  0  0  0  0  0  0  0  0999 V2000
   22.5610    5.0490   31.0770 B   0  0  0  0  0  0  0  0  0  0  0  0
   21.4770    6.4360   31.8180 C   0  0  0  0  0  0  0  0  0  0  0  0
   20.2230    6.1540   32.3100 C   0  0  0  0  0  0  0  0  0  0  0  0
   19.4330    7.1390   32.8460 C   0  0  0  0  0  0  0  0  0  0  0  0
   19.9290    8.4120   32.8770 C   0  0  0  0  0  0  0  0  0  0  0  0
   21.1990    8.6940   32.3790 C   0  0  0  0  0  0  0  0  0  0  0  0
   22.0130    7.7220   31.8350 C   0  0  0  0  0  0  0  0  0  0  0  0
   23.3790    7.9910   31.3190 C   0  0  0  0  0  0  0  0  0  0  0  0
   23.4680    9.3440   30.8050 N   0  0  0  0  0  0  0  0  0  0  0  0
   24.7530    9.9510   31.2400 C   0  0  0  0  0  0  0  0  0  0  0  0
   24.6030   11.4120   30.8290 C   0  0  0  0  0  0  0  0  0  0  0  0
   23.4960   11.6600   29.9790 N   0  0  0  0  0  0  0  0  0  0  0  0
   23.4200   10.7430   28.8710 C   0  0  0  0  0  0  0  0  0  0  0  0
   23.6090    9.3330   29.3480 C   0  0  0  0  0  0  0  0  0  0  0  0
   22.2640   12.0130   30.5750 C   0  0  0  0  0  0  0  0  0  0  0  0
   22.1180   13.3980   30.9820 C   0  0  0  0  0  0  0  0  0  0  0  0
   22.8950   13.9120   31.8140 O   0  0  0  0  0  0  0  0  0  0  0  0
   21.0900   14.2090   30.4480 N   0  0  0  0  0  0  0  0  0  0  0  0
   19.9170   14.5980   31.2210 C   0  0  0  0  0  0  0  0  0  0  0  0
   18.9050   15.4980   30.6460 C   0  0  0  0  0  0  0  0  0  0  0  0
   19.8810   16.0670   31.6310 C   0  0  0  0  0  0  0  0  0  0  0  0
   19.1460    9.4210   33.4150 O   0  0  0  0  0  0  0  0  0  0  0  0
   17.7770    9.2800   33.6910 C   0  0  0  0  0  0  0  0  0  0  0  0
   17.4350    7.8700   34.0540 C   0  0  0  0  0  0  0  0  0  0  0  0
   18.1630    6.8950   33.3520 O   0  0  0  0  0  0  0  0  0  0  0  0
   19.8080    5.1440   32.2950 H   0  0  0  0  0  0  0  0  0  0  0  0
   21.5080    9.7070   32.4540 H   0  0  0  0  0  0  0  0  0  0  0  0
   23.7050    7.2600   30.5700 H   0  0  0  0  0  0  0  0  0  0  0  0
   24.0760    7.9280   32.1910 H   0  0  0  0  0  0  0  0  0  0  0  0
   24.9330    9.8140   32.3030 H   0  0  0  0  0  0  0  0  0  0  0  0
   25.5420    9.4400   30.6510 H   0  0  0  0  0  0  0  0  0  0  0  0
   25.5400   11.6570   30.2450 H   0  0  0  0  0  0  0  0  0  0  0  0
   24.6490   12.0830   31.7100 H   0  0  0  0  0  0  0  0  0  0  0  0
   24.1700   11.0320   28.0940 H   0  0  0  0  0  0  0  0  0  0  0  0
   22.4300   10.8640   28.3410 H   0  0  0  0  0  0  0  0  0  0  0  0
   23.0370    8.5670   28.8380 H   0  0  0  0  0  0  0  0  0  0  0  0
   24.6920    9.0800   29.1100 H   0  0  0  0  0  0  0  0  0  0  0  0
   21.4120   11.7310   29.9130 H   0  0  0  0  0  0  0  0  0  0  0  0
   22.1150   11.3720   31.4910 H   0  0  0  0  0  0  0  0  0  0  0  0
   21.1160   14.5800   29.4540 H   0  0  0  0  0  0  0  0  0  0  0  0
   19.6170   13.8460   31.9570 H   0  0  0  0  0  0  0  0  0  0  0  0
   18.9820   15.9070   29.6100 H   0  0  0  0  0  0  0  0  0  0  0  0
   17.8590   15.4090   31.0010 H   0  0  0  0  0  0  0  0  0  0  0  0
   20.6790   16.7210   31.2300 H   0  0  0  0  0  0  0  0  0  0  0  0
   19.5620   16.2130   32.6830 H   0  0  0  0  0  0  0  0  0  0  0  0
   17.2040    9.6680   32.8340 H   0  0  0  0  0  0  0  0  0  0  0  0
   17.5730    9.9110   34.6020 H   0  0  0  0  0  0  0  0  0  0  0  0
   17.6080    7.7240   35.1570 H   0  0  0  0  0  0  0  0  0  0  0  0
   16.3610    7.7070   33.8040 H   0  0  0  0  0  0  0  0  0  0  0  0
  1  2  1  0  0  0  0
  2  7  2  0  0  0  0
  2  3  1  0  0  0  0
  3  4  2  0  0  0  0
  4  5  1  0  0  0  0
  4 25  1  0  0  0  0
  5 22  1  0  0  0  0
  6 27  1  0  0  0  0
  6  5  2  0  0  0  0
  7  6  1  0  0  0  0
  8  7  1  0  0  0  0
  8 29  1  0  0  0  0
  9 10  1  0  0  0  0
  9  8  1  0  0  0  0
 10 30  1  0  0  0  0
 11 10  1  0  0  0  0
 11 33  1  0  0  0  0
 12 15  1  0  0  0  0
 12 11  1  0  0  0  0
 13 14  1  0  0  0  0
 13 12  1  0  0  0  0
 14  9  1  0  0  0  0
 15 16  1  0  0  0  0
 15 39  1  0  0  0  0
 16 17  2  0  0  0  0
 18 16  1  0  0  0  0
 18 19  1  0  0  0  0
 19 21  1  0  0  0  0
 19 41  1  0  0  0  0
 20 43  1  0  0  0  0
 20 19  1  0  0  0  0
 20 21  1  0  0  0  0
 21 45  1  0  0  0  0
 22 23  1  0  0  0  0
 23 24  1  0  0  0  0
 23 47  1  0  0  0  0
 24 48  1  0  0  0  0
 25 24  1  0  0  0  0
 26  3  1  0  0  0  0
 28  8  1  0  0  0  0
 31 10  1  0  0  0  0
 32 11  1  0  0  0  0
 34 13  1  0  0  0  0
 35 13  1  0  0  0  0
 36 14  1  0  0  0  0
 37 14  1  0  0  0  0
 38 15  1  0  0  0  0
 40 18  1  0  0  0  0
 42 20  1  0  0  0  0
 44 21  1  0  0  0  0
 46 23  1  0  0  0  0
 49 24  1  0  0  0  0
M  END
>  <Pose>
1

>  <Score>
-7.12

$$$$
