
 OpenBabel03202209553D

 41 44  0  0  0  0  0  0  0  0999 V2000
   21.3420   16.0450   32.0510 B   0  0  0  0  0  0  0  0  0  0  0  0
   22.1490   16.0610   30.3140 C   0  0  0  0  0  0  0  0  0  0  0  0
   22.2380   17.2130   29.5730 C   0  0  0  0  0  0  0  0  0  0  0  0
   22.8230   17.2070   28.3230 C   0  0  0  0  0  0  0  0  0  0  0  0
   23.3210   16.0230   27.8210 C   0  0  0  0  0  0  0  0  0  0  0  0
   23.2260   14.8580   28.5810 C   0  0  0  0  0  0  0  0  0  0  0  0
   22.6460   14.8440   29.8290 C   0  0  0  0  0  0  0  0  0  0  0  0
   22.5750   13.6280   30.6570 C   0  0  0  0  0  0  0  0  0  0  0  0
   23.8070   13.0040   30.8640 O   0  0  0  0  0  0  0  0  0  0  0  0
   24.0160   11.6430   30.7330 C   0  0  0  0  0  0  0  0  0  0  0  0
   24.2400   11.0760   29.4710 C   0  0  0  0  0  0  0  0  0  0  0  0
   24.4570    9.7290   29.2850 C   0  0  0  0  0  0  0  0  0  0  0  0
   24.4640    8.8670   30.3590 C   0  0  0  0  0  0  0  0  0  0  0  0
   24.2460    9.4080   31.6090 C   0  0  0  0  0  0  0  0  0  0  0  0
   24.0250   10.7720   31.8000 C   0  0  0  0  0  0  0  0  0  0  0  0
   24.6930    7.4320   30.1770 C   0  0  0  0  0  0  0  0  0  0  0  0
   25.6830    6.8160   29.5080 N   0  0  0  0  0  0  0  0  0  0  0  0
   25.5040    5.4940   29.6000 N   0  0  0  0  0  0  0  0  0  0  0  0
   24.4120    5.2690   30.3160 N   0  0  0  0  0  0  0  0  0  0  0  0
   23.9220    6.4470   30.6650 N   0  0  0  0  0  0  0  0  0  0  0  0
   26.3200    4.4390   29.0370 C   0  0  0  0  0  0  0  0  0  0  0  0
   26.3720    4.5630   27.5640 C   0  0  0  0  0  0  0  0  0  0  0  0
   25.4600    5.1550   26.9650 O   0  0  0  0  0  0  0  0  0  0  0  0
   27.4610    4.0030   26.8610 N   0  0  0  0  0  0  0  0  0  0  0  0
   23.8410   16.3010   26.5730 O   0  0  0  0  0  0  0  0  0  0  0  0
   23.9580   17.7010   26.3870 C   0  0  0  0  0  0  0  0  0  0  0  0
   23.0560   18.1880   27.3570 O   0  0  0  0  0  0  0  0  0  0  0  0
   21.8450   18.1650   29.9630 H   0  0  0  0  0  0  0  0  0  0  0  0
   23.6530   13.9670   28.1300 H   0  0  0  0  0  0  0  0  0  0  0  0
   22.0460   13.7970   31.6190 H   0  0  0  0  0  0  0  0  0  0  0  0
   21.9350   12.9050   30.0950 H   0  0  0  0  0  0  0  0  0  0  0  0
   24.2280   11.7860   28.6450 H   0  0  0  0  0  0  0  0  0  0  0  0
   24.6280    9.3230   28.2970 H   0  0  0  0  0  0  0  0  0  0  0  0
   24.2520    8.7290   32.4430 H   0  0  0  0  0  0  0  0  0  0  0  0
   23.8650   11.1490   32.8080 H   0  0  0  0  0  0  0  0  0  0  0  0
   27.3450    4.5160   29.4510 H   0  0  0  0  0  0  0  0  0  0  0  0
   25.8820    3.4700   29.3530 H   0  0  0  0  0  0  0  0  0  0  0  0
   28.3770    3.7580   27.3300 H   0  0  0  0  0  0  0  0  0  0  0  0
   27.3800    3.8140   25.8400 H   0  0  0  0  0  0  0  0  0  0  0  0
   25.0050   17.9870   26.6020 H   0  0  0  0  0  0  0  0  0  0  0  0
   23.6840   17.9710   25.3540 H   0  0  0  0  0  0  0  0  0  0  0  0
  2  1  1  0  0  0  0
  3 28  1  0  0  0  0
  3  2  2  0  0  0  0
  4  3  1  0  0  0  0
  5  4  2  0  0  0  0
  5  6  1  0  0  0  0
  6  7  2  0  0  0  0
  7  2  1  0  0  0  0
  7  8  1  0  0  0  0
  8  9  1  0  0  0  0
  8 30  1  0  0  0  0
 10  9  1  0  0  0  0
 10 15  1  0  0  0  0
 11 10  2  0  0  0  0
 12 11  1  0  0  0  0
 12 13  2  0  0  0  0
 13 14  1  0  0  0  0
 14 15  2  0  0  0  0
 14 34  1  0  0  0  0
 15 35  1  0  0  0  0
 16 13  1  0  0  0  0
 16 20  1  0  0  0  0
 17 18  1  0  0  0  0
 17 16  2  0  0  0  0
 18 19  1  0  0  0  0
 19 20  2  0  0  0  0
 21 37  1  0  0  0  0
 21 36  1  0  0  0  0
 21 18  1  0  0  0  0
 22 21  1  0  0  0  0
 23 22  2  0  0  0  0
 24 38  1  0  0  0  0
 24 22  1  0  0  0  0
 25  5  1  0  0  0  0
 26 25  1  0  0  0  0
 26 40  1  0  0  0  0
 26 27  1  0  0  0  0
 27  4  1  0  0  0  0
 29  6  1  0  0  0  0
 31  8  1  0  0  0  0
 32 11  1  0  0  0  0
 33 12  1  0  0  0  0
 39 24  1  0  0  0  0
 41 26  1  0  0  0  0
M  END
>  <Pose>
1

>  <Score>
-7.10

$$$$
