
 OpenBabel03202209553D

 44 47  0  0  1  0  0  0  0  0999 V2000
   24.1710    1.5250   33.5060 B   0  0  0  0  0  0  0  0  0  0  0  0
   25.5030    2.5880   32.6770 C   0  0  0  0  0  0  0  0  0  0  0  0
   26.8330    2.4220   33.0150 C   0  0  0  0  0  0  0  0  0  0  0  0
   27.8480    3.1830   32.4320 C   0  0  0  0  0  0  0  0  0  0  0  0
   27.4810    4.1320   31.4810 C   0  0  0  0  0  0  0  0  0  0  0  0
   26.1470    4.2800   31.1600 C   0  0  0  0  0  0  0  0  0  0  0  0
   25.1290    3.5240   31.7380 C   0  0  0  0  0  0  0  0  0  0  0  0
   23.7440    3.7270   31.3660 C   0  0  0  0  0  0  0  0  0  0  0  0
   22.9230    4.2990   32.1380 N   0  0  0  0  0  0  0  0  0  0  0  0
   21.5840    4.5590   31.9250 N   0  0  0  0  0  0  0  0  0  0  0  0
   20.9980    5.8150   32.1960 C   0  0  1  0  0  0  0  0  0  0  0  0
   21.6560    6.8930   31.7410 N   0  0  0  0  0  0  0  0  0  0  0  0
   21.1920    8.1610   31.9040 C   0  0  0  0  0  0  0  0  0  0  0  0
   20.0320    8.2770   32.5490 N   0  0  0  0  0  0  0  0  0  0  0  0
   19.3300    7.2510   33.0230 C   0  0  0  0  0  0  0  0  0  0  0  0
   19.8420    5.9980   32.8340 N   0  0  0  0  0  0  0  0  0  0  0  0
   18.1270    7.4040   33.6900 O   0  0  0  0  0  0  0  0  0  0  0  0
   17.0330    8.0170   33.0600 C   0  0  0  0  0  0  0  0  0  0  0  0
   21.9450    9.2280   31.4090 N   0  0  0  0  0  0  0  0  0  0  0  0
   22.8840    9.9370   32.2450 C   0  0  0  0  0  0  0  0  0  0  0  0
   23.8490   10.7540   31.4120 C   0  0  0  0  0  0  0  0  0  0  0  0
   24.1890   10.2220   30.2110 O   0  0  0  0  0  0  0  0  0  0  0  0
   23.2460    9.5660   29.4830 C   0  0  0  0  0  0  0  0  0  0  0  0
   21.8270    9.6540   30.0380 C   0  0  0  0  0  0  0  0  0  0  0  0
   28.6450    4.7390   31.0660 O   0  0  0  0  0  0  0  0  0  0  0  0
   29.7420    4.3300   31.8590 C   0  0  0  0  0  0  0  0  0  0  0  0
   29.2260    3.2360   32.5710 O   0  0  0  0  0  0  0  0  0  0  0  0
   27.1160    1.6710   33.7650 H   0  0  0  0  0  0  0  0  0  0  0  0
   25.9130    5.0440   30.4020 H   0  0  0  0  0  0  0  0  0  0  0  0
   23.3990    3.3810   30.4100 H   0  0  0  0  0  0  0  0  0  0  0  0
   20.9810    3.7960   31.5490 H   0  0  0  0  0  0  0  0  0  0  0  0
   16.9280    9.0440   33.5030 H   0  0  0  0  0  0  0  0  0  0  0  0
   16.0680    7.4980   33.2920 H   0  0  0  0  0  0  0  0  0  0  0  0
   17.1460    8.0290   31.9560 H   0  0  0  0  0  0  0  0  0  0  0  0
   23.4150    9.3190   32.9800 H   0  0  0  0  0  0  0  0  0  0  0  0
   22.2820   10.6900   32.8420 H   0  0  0  0  0  0  0  0  0  0  0  0
   23.4990   11.8170   31.2730 H   0  0  0  0  0  0  0  0  0  0  0  0
   24.7890   10.8500   32.0320 H   0  0  0  0  0  0  0  0  0  0  0  0
   23.2780    9.8120   28.3940 H   0  0  0  0  0  0  0  0  0  0  0  0
   23.4950    8.4640   29.5430 H   0  0  0  0  0  0  0  0  0  0  0  0
   21.5390   10.7360   30.0810 H   0  0  0  0  0  0  0  0  0  0  0  0
   21.1690    9.0590   29.4120 H   0  0  0  0  0  0  0  0  0  0  0  0
   30.1400    5.1350   32.5110 H   0  0  0  0  0  0  0  0  0  0  0  0
   30.5200    3.9650   31.1470 H   0  0  0  0  0  0  0  0  0  0  0  0
  2  3  1  0  0  0  0
  2  1  1  0  0  0  0
  3 28  1  0  0  0  0
  4 27  1  0  0  0  0
  4  3  2  0  0  0  0
  5  4  1  0  0  0  0
  6  5  2  0  0  0  0
  6  7  1  0  0  0  0
  7  2  2  0  0  0  0
  8  7  1  0  0  0  0
  8  9  2  0  0  0  0
 10  9  1  0  0  0  0
 11 10  1  6  0  0  0
 11 16  1  0  0  0  0
 12 13  2  0  0  0  0
 12 11  1  0  0  0  0
 13 14  1  0  0  0  0
 14 15  2  0  0  0  0
 15 17  1  0  0  0  0
 16 15  2  0  0  0  0
 18 33  1  0  0  0  0
 18 32  1  0  0  0  0
 18 17  1  0  0  0  0
 19 13  1  0  0  0  0
 19 20  1  0  0  0  0
 20 36  1  0  0  0  0
 20 35  1  0  0  0  0
 21 38  1  0  0  0  0
 21 20  1  0  0  0  0
 22 21  1  0  0  0  0
 23 40  1  0  0  0  0
 23 24  1  0  0  0  0
 23 22  1  0  0  0  0
 24 41  1  0  0  0  0
 24 19  1  0  0  0  0
 25  5  1  0  0  0  0
 25 26  1  0  0  0  0
 26 43  1  0  0  0  0
 26 27  1  0  0  0  0
 29  6  1  0  0  0  0
 30  8  1  0  0  0  0
 31 10  1  0  0  0  0
 34 18  1  0  0  0  0
 37 21  1  0  0  0  0
 39 23  1  0  0  0  0
 42 24  1  0  0  0  0
 44 26  1  0  0  0  0
M  END
>  <Pose>
1

>  <Score>
-7.05

$$$$
