
 OpenBabel03202209553D

 49 52  0  0  0  0  0  0  0  0999 V2000
   25.0990   18.1240   24.8640 B   0  0  0  0  0  0  0  0  0  0  0  0
   24.1340   17.6860   26.4500 C   0  0  0  0  0  0  0  0  0  0  0  0
   24.1620   16.3860   26.9120 C   0  0  0  0  0  0  0  0  0  0  0  0
   23.4810   16.0160   28.0570 C   0  0  0  0  0  0  0  0  0  0  0  0
   22.7690   16.9940   28.7240 C   0  0  0  0  0  0  0  0  0  0  0  0
   22.7480   18.2910   28.2530 C   0  0  0  0  0  0  0  0  0  0  0  0
   23.4260   18.6680   27.1110 C   0  0  0  0  0  0  0  0  0  0  0  0
   22.1510   16.3620   29.8760 C   0  0  0  0  0  0  0  0  0  0  0  0
   21.4170   16.9800   30.7130 O   0  0  0  0  0  0  0  0  0  0  0  0
   22.5130   14.9890   29.8770 N   0  0  0  0  0  0  0  0  0  0  0  0
   23.3350   14.7350   28.7660 C   0  0  0  0  0  0  0  0  0  0  0  0
   23.8600   13.6420   28.4200 O   0  0  0  0  0  0  0  0  0  0  0  0
   22.0690   14.0560   30.8900 C   0  0  0  0  0  0  0  0  0  0  0  0
   23.1600   13.2200   31.4470 C   0  0  0  0  0  0  0  0  0  0  0  0
   22.7420   11.7770   31.4560 C   0  0  0  0  0  0  0  0  0  0  0  0
   23.8680   10.8150   31.4730 C   0  0  0  0  0  0  0  0  0  0  0  0
   24.7820   10.8280   32.3380 O   0  0  0  0  0  0  0  0  0  0  0  0
   23.9680    9.7890   30.4660 N   0  0  0  0  0  0  0  0  0  0  0  0
   25.2400    9.1810   30.1500 C   0  0  0  0  0  0  0  0  0  0  0  0
   25.1730    7.6970   30.0070 C   0  0  0  0  0  0  0  0  0  0  0  0
   23.8550    7.1400   30.1980 N   0  0  0  0  0  0  0  0  0  0  0  0
   22.6260    7.8330   29.9170 C   0  0  0  0  0  0  0  0  0  0  0  0
   22.8110    9.3190   29.7270 C   0  0  0  0  0  0  0  0  0  0  0  0
   23.7640    5.8040   30.7010 C   0  0  0  0  0  0  0  0  0  0  0  0
   24.8690    5.0240   30.8560 N   0  0  0  0  0  0  0  0  0  0  0  0
   24.8270    3.7760   31.3200 C   0  0  0  0  0  0  0  0  0  0  0  0
   23.6000    3.2320   31.6670 C   0  0  0  0  0  0  0  0  0  0  0  0
   22.4800    3.9810   31.5250 N   0  0  0  0  0  0  0  0  0  0  0  0
   22.5610    5.2360   31.0540 C   0  0  0  0  0  0  0  0  0  0  0  0
   24.7120   15.5880   26.4150 H   0  0  0  0  0  0  0  0  0  0  0  0
   22.1740   19.0230   28.8110 H   0  0  0  0  0  0  0  0  0  0  0  0
   23.3860   19.6910   26.7710 H   0  0  0  0  0  0  0  0  0  0  0  0
   21.2990   13.4160   30.4340 H   0  0  0  0  0  0  0  0  0  0  0  0
   21.6220   14.6770   31.7240 H   0  0  0  0  0  0  0  0  0  0  0  0
   23.5280   13.5530   32.4330 H   0  0  0  0  0  0  0  0  0  0  0  0
   24.0760   13.2750   30.7850 H   0  0  0  0  0  0  0  0  0  0  0  0
   22.0730   11.5420   32.3180 H   0  0  0  0  0  0  0  0  0  0  0  0
   22.1380   11.5580   30.5500 H   0  0  0  0  0  0  0  0  0  0  0  0
   26.0150    9.5070   30.8700 H   0  0  0  0  0  0  0  0  0  0  0  0
   25.5540    9.6250   29.1630 H   0  0  0  0  0  0  0  0  0  0  0  0
   25.5010    7.3730   28.9780 H   0  0  0  0  0  0  0  0  0  0  0  0
   25.8870    7.2000   30.7020 H   0  0  0  0  0  0  0  0  0  0  0  0
   22.1800    7.4200   29.0090 H   0  0  0  0  0  0  0  0  0  0  0  0
   21.9780    7.7100   30.8270 H   0  0  0  0  0  0  0  0  0  0  0  0
   21.8970    9.8910   29.9800 H   0  0  0  0  0  0  0  0  0  0  0  0
   23.0620    9.4880   28.6390 H   0  0  0  0  0  0  0  0  0  0  0  0
   25.7170    3.1710   31.4370 H   0  0  0  0  0  0  0  0  0  0  0  0
   23.5310    2.2350   32.0420 H   0  0  0  0  0  0  0  0  0  0  0  0
   21.6510    5.8030   30.9540 H   0  0  0  0  0  0  0  0  0  0  0  0
  1  2  1  0  0  0  0
  2  3  2  0  0  0  0
  2  7  1  0  0  0  0
  3  4  1  0  0  0  0
  4  5  2  0  0  0  0
  4 11  1  0  0  0  0
  5  8  1  0  0  0  0
  6  5  1  0  0  0  0
  6 31  1  0  0  0  0
  7  6  2  0  0  0  0
  8 10  1  0  0  0  0
  8  9  2  0  0  0  0
 10 13  1  0  0  0  0
 11 10  1  0  0  0  0
 12 11  2  0  0  0  0
 13 14  1  0  0  0  0
 13 34  1  0  0  0  0
 14 15  1  0  0  0  0
 14 35  1  0  0  0  0
 15 16  1  0  0  0  0
 15 37  1  0  0  0  0
 16 17  2  0  0  0  0
 18 16  1  0  0  0  0
 19 18  1  0  0  0  0
 19 39  1  0  0  0  0
 20 19  1  0  0  0  0
 20 21  1  0  0  0  0
 20 42  1  0  0  0  0
 21 24  1  0  0  0  0
 22 21  1  0  0  0  0
 22 44  1  0  0  0  0
 23 22  1  0  0  0  0
 23 45  1  0  0  0  0
 23 18  1  0  0  0  0
 24 25  2  0  0  0  0
 24 29  1  0  0  0  0
 25 26  1  0  0  0  0
 26 47  1  0  0  0  0
 26 27  2  0  0  0  0
 27 48  1  0  0  0  0
 28 27  1  0  0  0  0
 29 28  2  0  0  0  0
 30  3  1  0  0  0  0
 32  7  1  0  0  0  0
 33 13  1  0  0  0  0
 36 14  1  0  0  0  0
 38 15  1  0  0  0  0
 40 19  1  0  0  0  0
 41 20  1  0  0  0  0
 43 22  1  0  0  0  0
 46 23  1  0  0  0  0
 49 29  1  0  0  0  0
M  END
>  <Pose>
1

>  <Score>
-7.59

$$$$
