
 OpenBabel03202209553D

 44 47  0  0  0  0  0  0  0  0999 V2000
   25.1950   16.8130   25.5570 B   0  0  0  0  0  0  0  0  0  0  0  0
   24.1410   16.4920   27.1060 C   0  0  0  0  0  0  0  0  0  0  0  0
   24.3000   15.3360   27.8790 C   0  0  0  0  0  0  0  0  0  0  0  0
   23.5380   15.0980   29.0030 C   0  0  0  0  0  0  0  0  0  0  0  0
   22.5740   16.0390   29.3840 C   0  0  0  0  0  0  0  0  0  0  0  0
   22.4260   17.1810   28.6100 C   0  0  0  0  0  0  0  0  0  0  0  0
   23.1950   17.4000   27.4930 C   0  0  0  0  0  0  0  0  0  0  0  0
   21.8990   15.6110   30.5620 N   0  0  0  0  0  0  0  0  0  0  0  0
   22.4610   14.3600   30.9270 C   0  0  0  0  0  0  0  0  0  0  0  0
   22.1850   13.6020   31.8970 O   0  0  0  0  0  0  0  0  0  0  0  0
   23.5140   13.9970   29.9540 C   0  0  0  0  0  0  0  0  0  0  0  0
   24.2420   12.9330   29.9600 N   0  0  0  0  0  0  0  0  0  0  0  0
   25.2130   12.6900   28.9860 N   0  0  0  0  0  0  0  0  0  0  0  0
   25.6910   11.3890   28.6940 C   0  0  0  0  0  0  0  0  0  0  0  0
   26.2240   11.1700   27.5820 O   0  0  0  0  0  0  0  0  0  0  0  0
   25.5630   10.3220   29.6770 C   0  0  0  0  0  0  0  0  0  0  0  0
   24.1950    9.8740   29.8550 N   0  0  0  0  0  0  0  0  0  0  0  0
   23.1720   10.0910   29.0470 N   0  0  0  0  0  0  0  0  0  0  0  0
   22.0760    9.5310   29.5320 N   0  0  0  0  0  0  0  0  0  0  0  0
   22.3950    8.9320   30.6920 C   0  0  0  0  0  0  0  0  0  0  0  0
   23.7040    9.1620   30.8590 N   0  0  0  0  0  0  0  0  0  0  0  0
   21.4690    8.1970   31.5490 C   0  0  0  0  0  0  0  0  0  0  0  0
   21.4350    6.8200   31.5080 C   0  0  0  0  0  0  0  0  0  0  0  0
   20.5500    6.1140   32.3270 C   0  0  0  0  0  0  0  0  0  0  0  0
   19.6950    6.7590   33.1910 C   0  0  0  0  0  0  0  0  0  0  0  0
   19.7290    8.1420   33.2340 C   0  0  0  0  0  0  0  0  0  0  0  0
   20.6100    8.8360   32.4170 C   0  0  0  0  0  0  0  0  0  0  0  0
   20.8390   16.2590   31.3070 C   0  0  0  0  0  0  0  0  0  0  0  0
   19.5470   15.6920   30.9510 C   0  0  0  0  0  0  0  0  0  0  0  0
   18.4710   15.2360   30.6640 C   0  0  0  0  0  0  0  0  0  0  0  0
   25.0560   14.6300   27.5530 H   0  0  0  0  0  0  0  0  0  0  0  0
   21.6950   17.9340   28.8660 H   0  0  0  0  0  0  0  0  0  0  0  0
   23.0790   18.3020   26.8800 H   0  0  0  0  0  0  0  0  0  0  0  0
   25.6010   13.5020   28.4650 H   0  0  0  0  0  0  0  0  0  0  0  0
   25.9790   10.6360   30.6530 H   0  0  0  0  0  0  0  0  0  0  0  0
   26.1950    9.4640   29.3400 H   0  0  0  0  0  0  0  0  0  0  0  0
   22.1010    6.2860   30.8310 H   0  0  0  0  0  0  0  0  0  0  0  0
   20.5210    5.0250   32.2950 H   0  0  0  0  0  0  0  0  0  0  0  0
   19.0100    6.1830   33.8240 H   0  0  0  0  0  0  0  0  0  0  0  0
   19.0570    8.6570   33.9140 H   0  0  0  0  0  0  0  0  0  0  0  0
   20.6490    9.9220   32.4400 H   0  0  0  0  0  0  0  0  0  0  0  0
   20.9750   16.1440   32.4100 H   0  0  0  0  0  0  0  0  0  0  0  0
   20.8980   17.3560   31.1090 H   0  0  0  0  0  0  0  0  0  0  0  0
   17.5050   14.8260   30.4210 H   0  0  0  0  0  0  0  0  0  0  0  0
  1  2  1  0  0  0  0
  2  7  2  0  0  0  0
  2  3  1  0  0  0  0
  3  4  2  0  0  0  0
  4  5  1  0  0  0  0
  4 11  1  0  0  0  0
  5  8  1  0  0  0  0
  6 32  1  0  0  0  0
  6  5  2  0  0  0  0
  7  6  1  0  0  0  0
  8  9  1  0  0  0  0
  8 28  1  0  0  0  0
  9 10  2  0  0  0  0
 11 12  2  0  0  0  0
 11  9  1  0  0  0  0
 13 12  1  0  0  0  0
 14 13  1  0  0  0  0
 14 16  1  0  0  0  0
 15 14  2  0  0  0  0
 16 17  1  0  0  0  0
 16 35  1  0  0  0  0
 17 21  1  0  0  0  0
 18 19  1  0  0  0  0
 18 17  1  0  0  0  0
 19 20  2  0  0  0  0
 20 21  1  0  0  0  0
 20 22  1  0  0  0  0
 22 27  1  0  0  0  0
 23 22  2  0  0  0  0
 23 24  1  0  0  0  0
 24 25  2  0  0  0  0
 25 26  1  0  0  0  0
 25 39  1  0  0  0  0
 26 40  1  0  0  0  0
 27 41  1  0  0  0  0
 27 26  2  0  0  0  0
 28 42  1  0  0  0  0
 29 28  1  0  0  0  0
 30 29  3  0  0  0  0
 31  3  1  0  0  0  0
 33  7  1  0  0  0  0
 34 13  1  0  0  0  0
 36 16  1  0  0  0  0
 37 23  1  0  0  0  0
 38 24  1  0  0  0  0
 43 28  1  0  0  0  0
 44 30  1  0  0  0  0
M  END
>  <Pose>
1

>  <Score>
-6.93

$$$$
