
 OpenBabel03202209553D

 58 61  0  0  0  0  0  0  0  0999 V2000
   18.4890    7.1370   33.3700 B   0  0  0  0  0  0  0  0  0  0  0  0
   19.5690    8.6380   32.8940 C   0  0  0  0  0  0  0  0  0  0  0  0
   20.6890    8.5020   32.0610 C   0  0  0  0  0  0  0  0  0  0  0  0
   21.3810    9.6440   31.7800 C   0  0  0  0  0  0  0  0  0  0  0  0
   21.0470   10.8910   32.2650 C   0  0  0  0  0  0  0  0  0  0  0  0
   19.9510   11.0210   33.0870 C   0  0  0  0  0  0  0  0  0  0  0  0
   19.2100    9.8700   33.3940 C   0  0  0  0  0  0  0  0  0  0  0  0
   21.9450   11.8960   31.8100 N   0  0  0  0  0  0  0  0  0  0  0  0
   22.9220   11.2150   30.9810 C   0  0  0  0  0  0  0  0  0  0  0  0
   23.8700   11.7680   30.3850 O   0  0  0  0  0  0  0  0  0  0  0  0
   22.5600    9.8150   30.9890 C   0  0  0  0  0  0  0  0  0  0  0  0
   23.2180    8.8210   30.5310 N   0  0  0  0  0  0  0  0  0  0  0  0
   23.3160    7.6610   30.4500 N   0  0  0  0  0  0  0  0  0  0  0  0
   23.4170    6.2560   30.3440 C   0  0  0  0  0  0  0  0  0  0  0  0
   22.6090    5.3640   30.4760 O   0  0  0  0  0  0  0  0  0  0  0  0
   24.8760    5.8750   30.0050 C   0  0  0  0  0  0  0  0  0  0  0  0
   24.8980    5.8320   28.5620 O   0  0  0  0  0  0  0  0  0  0  0  0
   26.2010    5.7420   27.9960 N   0  0  0  0  0  0  0  0  0  0  0  0
   26.3770    5.6910   26.7330 C   0  0  0  0  0  0  0  0  0  0  0  0
   27.7080    5.5840   26.1840 C   0  0  0  0  0  0  0  0  0  0  0  0
   28.7060    4.8140   26.6800 C   0  0  0  0  0  0  0  0  0  0  0  0
   29.9640    4.9120   26.0330 C   0  0  0  0  0  0  0  0  0  0  0  0
   30.2660    5.6710   24.9810 C   0  0  0  0  0  0  0  0  0  0  0  0
   29.2370    6.4180   24.5200 C   0  0  0  0  0  0  0  0  0  0  0  0
   27.9850    6.4710   25.0020 C   0  0  0  0  0  0  0  0  0  0  0  0
   31.5550    5.6640   24.4370 O   0  0  0  0  0  0  0  0  0  0  0  0
   32.0750    4.4930   23.8170 C   0  0  0  0  0  0  0  0  0  0  0  0
   21.9710   13.3380   31.9960 C   0  0  0  0  0  0  0  0  0  0  0  0
   21.3010   14.0030   30.9910 N   0  0  0  0  0  0  0  0  0  0  0  0
   19.9340   14.1780   31.2740 C   0  0  0  0  0  0  0  0  0  0  0  0
   19.5170   15.6090   30.9270 C   0  0  0  0  0  0  0  0  0  0  0  0
   20.4760   16.4010   31.6150 O   0  0  0  0  0  0  0  0  0  0  0  0
   21.6870   16.3670   30.9110 C   0  0  0  0  0  0  0  0  0  0  0  0
   21.9980   15.0260   30.3210 C   0  0  0  0  0  0  0  0  0  0  0  0
   20.8680    7.5510   31.7110 H   0  0  0  0  0  0  0  0  0  0  0  0
   19.6210   11.9700   33.5000 H   0  0  0  0  0  0  0  0  0  0  0  0
   18.3750    9.9680   34.0510 H   0  0  0  0  0  0  0  0  0  0  0  0
   22.0330    7.5200   29.9380 H   0  0  0  0  0  0  0  0  0  0  0  0
   25.3230    6.9550   30.1670 H   0  0  0  0  0  0  0  0  0  0  0  0
   25.3490    5.2010   30.5780 H   0  0  0  0  0  0  0  0  0  0  0  0
   25.5370    5.7420   26.0440 H   0  0  0  0  0  0  0  0  0  0  0  0
   28.5640    4.1660   27.5120 H   0  0  0  0  0  0  0  0  0  0  0  0
   30.7460    4.2610   26.4670 H   0  0  0  0  0  0  0  0  0  0  0  0
   29.5000    7.0610   23.6360 H   0  0  0  0  0  0  0  0  0  0  0  0
   27.1520    7.0190   24.6760 H   0  0  0  0  0  0  0  0  0  0  0  0
   31.6470    4.3750   22.7870 H   0  0  0  0  0  0  0  0  0  0  0  0
   33.1840    4.6830   23.6540 H   0  0  0  0  0  0  0  0  0  0  0  0
   31.9760    3.5780   24.4260 H   0  0  0  0  0  0  0  0  0  0  0  0
   23.0490   13.5830   32.1050 H   0  0  0  0  0  0  0  0  0  0  0  0
   21.5600   13.5160   33.0340 H   0  0  0  0  0  0  0  0  0  0  0  0
   19.2820   13.4410   30.7490 H   0  0  0  0  0  0  0  0  0  0  0  0
   19.7540   14.0130   32.3480 H   0  0  0  0  0  0  0  0  0  0  0  0
   18.5480   15.7770   31.3800 H   0  0  0  0  0  0  0  0  0  0  0  0
   19.5390   15.8090   29.8600 H   0  0  0  0  0  0  0  0  0  0  0  0
   22.5110   16.6960   31.5550 H   0  0  0  0  0  0  0  0  0  0  0  0
   21.5800   17.1010   30.0750 H   0  0  0  0  0  0  0  0  0  0  0  0
   21.7100   15.0320   29.1940 H   0  0  0  0  0  0  0  0  0  0  0  0
   23.0770   14.8490   30.3150 H   0  0  0  0  0  0  0  0  0  0  0  0
  2  1  1  0  0  0  0
  2  7  1  0  0  0  0
  3  2  2  0  0  0  0
  4  3  1  0  0  0  0
  4  5  2  0  0  0  0
  5  6  1  0  0  0  0
  6  7  2  0  0  0  0
  6 36  1  0  0  0  0
  7 37  1  0  0  0  0
  8 28  1  0  0  0  0
  8  5  1  0  0  0  0
  9 11  1  0  0  0  0
  9  8  1  0  0  0  0
 10  9  2  0  0  0  0
 11  4  1  0  0  0  0
 12 11  2  0  0  0  0
 13 12  1  0  0  0  0
 14 13  1  0  0  0  0
 14 15  2  0  0  0  0
 16 39  1  0  0  0  0
 16 14  1  0  0  0  0
 16 40  1  0  0  0  0
 17 16  1  0  0  0  0
 18 17  1  0  0  0  0
 19 18  2  0  0  0  0
 20 21  1  0  0  0  0
 20 19  1  0  0  0  0
 21 42  1  0  0  0  0
 22 43  1  0  0  0  0
 22 21  2  0  0  0  0
 23 22  1  0  0  0  0
 24 23  2  0  0  0  0
 24 25  1  0  0  0  0
 25 20  2  0  0  0  0
 26 23  1  0  0  0  0
 27 48  1  0  0  0  0
 27 26  1  0  0  0  0
 28 49  1  0  0  0  0
 28 50  1  0  0  0  0
 29 30  1  0  0  0  0
 29 28  1  0  0  0  0
 30 52  1  0  0  0  0
 31 30  1  0  0  0  0
 31 53  1  0  0  0  0
 31 32  1  0  0  0  0
 33 55  1  0  0  0  0
 33 32  1  0  0  0  0
 34 33  1  0  0  0  0
 34 29  1  0  0  0  0
 35  3  1  0  0  0  0
 38 13  1  0  0  0  0
 41 19  1  0  0  0  0
 44 24  1  0  0  0  0
 45 25  1  0  0  0  0
 46 27  1  0  0  0  0
 47 27  1  0  0  0  0
 51 30  1  0  0  0  0
 54 31  1  0  0  0  0
 56 33  1  0  0  0  0
 57 34  1  0  0  0  0
 58 34  1  0  0  0  0
M  END
>  <Pose>
1

>  <Score>
-7.75

$$$$
