
 OpenBabel03202209553D

 59 62  0  0  0  0  0  0  0  0999 V2000
   21.6980   20.1500   26.4540 B   0  0  0  0  0  0  0  0  0  0  0  0
   23.0080   18.7450   26.3680 C   0  0  0  0  0  0  0  0  0  0  0  0
   22.9960   17.6960   27.2580 C   0  0  0  0  0  0  0  0  0  0  0  0
   23.9210   16.6580   27.2370 C   0  0  0  0  0  0  0  0  0  0  0  0
   24.9160   16.6830   26.2550 C   0  0  0  0  0  0  0  0  0  0  0  0
   24.9280   17.7340   25.3620 C   0  0  0  0  0  0  0  0  0  0  0  0
   23.9920   18.7630   25.4020 C   0  0  0  0  0  0  0  0  0  0  0  0
   25.7680   15.5370   26.3920 N   0  0  0  0  0  0  0  0  0  0  0  0
   25.2720   14.7900   27.4960 C   0  0  0  0  0  0  0  0  0  0  0  0
   25.7580   13.7190   27.9220 O   0  0  0  0  0  0  0  0  0  0  0  0
   24.1140   15.4690   28.0450 C   0  0  0  0  0  0  0  0  0  0  0  0
   23.3970   15.1000   29.0460 N   0  0  0  0  0  0  0  0  0  0  0  0
   23.6450   13.9430   29.7750 N   0  0  0  0  0  0  0  0  0  0  0  0
   22.8550   13.6420   30.9030 C   0  0  0  0  0  0  0  0  0  0  0  0
   22.2050   14.5500   31.5280 O   0  0  0  0  0  0  0  0  0  0  0  0
   22.7070   12.2720   31.4550 C   0  0  0  0  0  0  0  0  0  0  0  0
   22.4830   11.3390   30.3990 O   0  0  0  0  0  0  0  0  0  0  0  0
   23.0550   10.0790   30.4580 C   0  0  0  0  0  0  0  0  0  0  0  0
   22.3120    9.0010   30.8890 C   0  0  0  0  0  0  0  0  0  0  0  0
   22.8940    7.7380   30.9460 C   0  0  0  0  0  0  0  0  0  0  0  0
   24.2120    7.5560   30.5740 C   0  0  0  0  0  0  0  0  0  0  0  0
   24.9340    8.6320   30.1500 C   0  0  0  0  0  0  0  0  0  0  0  0
   24.3540    9.8880   30.0940 C   0  0  0  0  0  0  0  0  0  0  0  0
   21.0010    9.1480   31.2650 O   0  0  0  0  0  0  0  0  0  0  0  0
   20.5570    8.6710   32.5100 C   0  0  0  0  0  0  0  0  0  0  0  0
   26.9050   15.2400   25.5380 C   0  0  0  0  0  0  0  0  0  0  0  0
   27.9400   16.2100   25.5610 N   0  0  0  0  0  0  0  0  0  0  0  0
   29.1950   15.7690   26.0670 C   0  0  0  0  0  0  0  0  0  0  0  0
   30.2210   16.9050   26.1250 C   0  0  0  0  0  0  0  0  0  0  0  0
   29.4950   18.1290   25.9410 N   0  0  0  0  0  0  0  0  0  0  0  0
   28.9270   18.2530   24.6340 C   0  0  0  0  0  0  0  0  0  0  0  0
   28.0230   17.0560   24.4060 C   0  0  0  0  0  0  0  0  0  0  0  0
   30.1940   19.2940   26.4000 C   0  0  0  0  0  0  0  0  0  0  0  0
   22.2180   17.6810   28.0210 H   0  0  0  0  0  0  0  0  0  0  0  0
   25.6880   17.7980   24.5750 H   0  0  0  0  0  0  0  0  0  0  0  0
   23.9950   19.5870   24.7080 H   0  0  0  0  0  0  0  0  0  0  0  0
   24.4060   13.3130   29.4850 H   0  0  0  0  0  0  0  0  0  0  0  0
   23.5940   11.9320   32.0130 H   0  0  0  0  0  0  0  0  0  0  0  0
   21.8520   12.2210   32.1530 H   0  0  0  0  0  0  0  0  0  0  0  0
   22.2950    6.8940   31.2890 H   0  0  0  0  0  0  0  0  0  0  0  0
   24.6920    6.5770   30.6100 H   0  0  0  0  0  0  0  0  0  0  0  0
   25.9510    8.5080   29.8600 H   0  0  0  0  0  0  0  0  0  0  0  0
   24.9720   10.7010   29.7510 H   0  0  0  0  0  0  0  0  0  0  0  0
   20.7840    7.5930   32.6600 H   0  0  0  0  0  0  0  0  0  0  0  0
   21.1380    9.2060   33.3060 H   0  0  0  0  0  0  0  0  0  0  0  0
   19.4730    8.9010   32.5890 H   0  0  0  0  0  0  0  0  0  0  0  0
   27.2990   14.2130   25.7340 H   0  0  0  0  0  0  0  0  0  0  0  0
   26.5050   15.1950   24.4910 H   0  0  0  0  0  0  0  0  0  0  0  0
   29.0590   15.4470   27.1200 H   0  0  0  0  0  0  0  0  0  0  0  0
   29.6190   14.9020   25.5190 H   0  0  0  0  0  0  0  0  0  0  0  0
   30.7480   16.9370   27.0890 H   0  0  0  0  0  0  0  0  0  0  0  0
   30.9700   16.7070   25.3340 H   0  0  0  0  0  0  0  0  0  0  0  0
   29.6670   18.3120   23.8150 H   0  0  0  0  0  0  0  0  0  0  0  0
   28.3510   19.2120   24.6200 H   0  0  0  0  0  0  0  0  0  0  0  0
   28.4160   16.4450   23.5500 H   0  0  0  0  0  0  0  0  0  0  0  0
   27.0120   17.4530   24.1870 H   0  0  0  0  0  0  0  0  0  0  0  0
   29.4910   20.0080   26.9080 H   0  0  0  0  0  0  0  0  0  0  0  0
   30.7380   19.8320   25.6020 H   0  0  0  0  0  0  0  0  0  0  0  0
   30.9000   18.9610   27.2030 H   0  0  0  0  0  0  0  0  0  0  0  0
  2  1  1  0  0  0  0
  2  3  1  0  0  0  0
  3 34  1  0  0  0  0
  4  3  2  0  0  0  0
  4 11  1  0  0  0  0
  5  8  1  0  0  0  0
  5  4  1  0  0  0  0
  6  7  1  0  0  0  0
  6  5  2  0  0  0  0
  7  2  2  0  0  0  0
  8  9  1  0  0  0  0
  9 10  2  0  0  0  0
  9 11  1  0  0  0  0
 11 12  2  0  0  0  0
 12 13  1  0  0  0  0
 13 14  1  0  0  0  0
 14 16  1  0  0  0  0
 14 15  2  0  0  0  0
 16 38  1  0  0  0  0
 16 39  1  0  0  0  0
 17 18  1  0  0  0  0
 17 16  1  0  0  0  0
 18 19  1  0  0  0  0
 19 20  2  0  0  0  0
 19 24  1  0  0  0  0
 20 40  1  0  0  0  0
 21 41  1  0  0  0  0
 21 20  1  0  0  0  0
 22 21  2  0  0  0  0
 23 22  1  0  0  0  0
 23 18  2  0  0  0  0
 24 25  1  0  0  0  0
 25 46  1  0  0  0  0
 25 44  1  0  0  0  0
 25 45  1  0  0  0  0
 26 27  1  0  0  0  0
 26 47  1  0  0  0  0
 26  8  1  0  0  0  0
 27 28  1  0  0  0  0
 28 29  1  0  0  0  0
 28 49  1  0  0  0  0
 29 51  1  0  0  0  0
 30 29  1  0  0  0  0
 30 33  1  0  0  0  0
 31 30  1  0  0  0  0
 32 31  1  0  0  0  0
 32 27  1  0  0  0  0
 33 57  1  0  0  0  0
 33 59  1  0  0  0  0
 35  6  1  0  0  0  0
 36  7  1  0  0  0  0
 37 13  1  0  0  0  0
 42 22  1  0  0  0  0
 43 23  1  0  0  0  0
 48 26  1  0  0  0  0
 50 28  1  0  0  0  0
 52 29  1  0  0  0  0
 53 31  1  0  0  0  0
 54 31  1  0  0  0  0
 55 32  1  0  0  0  0
 56 32  1  0  0  0  0
 58 33  1  0  0  0  0
M  END
>  <Pose>
1

>  <Score>
-7.18

$$$$
