
 OpenBabel03202209553D

 45 48  0  0  1  0  0  0  0  0999 V2000
   31.4590    6.0470   31.8700 B   0  0  0  0  0  0  0  0  0  0  0  0
   30.2300    6.0370   30.3880 C   0  0  0  0  0  0  0  0  0  0  0  0
   28.9840    5.4840   30.4480 C   0  0  0  0  0  0  0  0  0  0  0  0
   28.1500    5.4700   29.3590 C   0  0  0  0  0  0  0  0  0  0  0  0
   28.6160    6.0350   28.2060 C   0  0  0  0  0  0  0  0  0  0  0  0
   29.8890    6.6120   28.1190 C   0  0  0  0  0  0  0  0  0  0  0  0
   30.7200    6.6180   29.2200 C   0  0  0  0  0  0  0  0  0  0  0  0
   27.6730    5.9160   27.1580 N   0  0  0  0  0  0  0  0  0  0  0  0
   26.5650    5.2440   27.6700 C   0  0  0  0  0  0  0  0  0  0  0  0
   25.5470    4.9550   26.9880 O   0  0  0  0  0  0  0  0  0  0  0  0
   26.7950    4.9380   29.1300 C   0  0  2  0  0  0  0  0  0  0  0  0
   25.7030    5.6010   29.8250 C   0  0  0  0  0  0  0  0  0  0  0  0
   24.7580    4.8670   30.4740 C   0  0  0  0  0  0  0  0  0  0  0  0
   23.8760    5.7560   31.0110 N   0  0  0  0  0  0  0  0  0  0  0  0
   24.2500    6.9730   30.7120 N   0  0  0  0  0  0  0  0  0  0  0  0
   25.3830    6.9610   29.9720 C   0  0  0  0  0  0  0  0  0  0  0  0
   26.0930    8.1690   29.4800 C   0  0  0  0  0  0  0  0  0  0  0  0
   25.2460    9.3770   29.5900 C   0  0  0  0  0  0  0  0  0  0  0  0
   24.1280    9.5360   29.0380 O   0  0  0  0  0  0  0  0  0  0  0  0
   25.7230   10.4130   30.3630 O   0  0  0  0  0  0  0  0  0  0  0  0
   25.1660   11.6960   30.4680 C   0  0  0  0  0  0  0  0  0  0  0  0
   24.1760   11.7300   31.6080 C   0  0  0  0  0  0  0  0  0  0  0  0
   24.7800    3.4580   30.5160 O   0  0  0  0  0  0  0  0  0  0  0  0
   25.8200    2.8340   29.8550 C   0  0  0  0  0  0  0  0  0  0  0  0
   26.7500    3.4860   29.2150 C   0  0  0  0  0  0  0  0  0  0  0  0
   27.8090    2.7310   28.5390 C   0  0  0  0  0  0  0  0  0  0  0  0
   28.6420    2.1580   27.9990 N   0  0  0  0  0  0  0  0  0  0  0  0
   25.8450    1.3870   29.8950 N   0  0  0  0  0  0  0  0  0  0  0  0
   27.8350    6.4140   25.7770 C   0  0  0  0  0  0  0  0  0  0  0  0
   28.6530    5.0530   31.3610 H   0  0  0  0  0  0  0  0  0  0  0  0
   30.2680    7.0640   27.2150 H   0  0  0  0  0  0  0  0  0  0  0  0
   31.7060    7.0590   29.1690 H   0  0  0  0  0  0  0  0  0  0  0  0
   23.7670    7.8760   30.9870 H   0  0  0  0  0  0  0  0  0  0  0  0
   27.0170    8.3740   30.0460 H   0  0  0  0  0  0  0  0  0  0  0  0
   26.4250    8.0280   28.4200 H   0  0  0  0  0  0  0  0  0  0  0  0
   24.5520   11.9230   29.5370 H   0  0  0  0  0  0  0  0  0  0  0  0
   25.9490   12.4600   30.5510 H   0  0  0  0  0  0  0  0  0  0  0  0
   24.0380   10.6730   31.9840 H   0  0  0  0  0  0  0  0  0  0  0  0
   23.1900   12.0730   31.2970 H   0  0  0  0  0  0  0  0  0  0  0  0
   24.5800   12.2850   32.4880 H   0  0  0  0  0  0  0  0  0  0  0  0
   26.6980    0.8360   30.0940 H   0  0  0  0  0  0  0  0  0  0  0  0
   24.9600    0.8880   29.7160 H   0  0  0  0  0  0  0  0  0  0  0  0
   27.6650    7.5230   25.7810 H   0  0  0  0  0  0  0  0  0  0  0  0
   28.8400    6.1550   25.3890 H   0  0  0  0  0  0  0  0  0  0  0  0
   27.0430    5.9730   25.1560 H   0  0  0  0  0  0  0  0  0  0  0  0
  2  3  1  0  0  0  0
  2  1  1  0  0  0  0
  3 30  1  0  0  0  0
  4  3  2  0  0  0  0
  5  4  1  0  0  0  0
  6  5  2  0  0  0  0
  6  7  1  0  0  0  0
  7  2  2  0  0  0  0
  8  9  1  0  0  0  0
  8  5  1  0  0  0  0
 10  9  2  0  0  0  0
 11  9  1  6  0  0  0
 11 25  1  0  0  0  0
 11  4  1  0  0  0  0
 11 12  1  0  0  0  0
 12 16  2  0  0  0  0
 12 13  1  0  0  0  0
 13 23  1  0  0  0  0
 13 14  2  0  0  0  0
 15 33  1  0  0  0  0
 15 14  1  0  0  0  0
 16 15  1  0  0  0  0
 17 18  1  0  0  0  0
 17 16  1  0  0  0  0
 17 34  1  0  0  0  0
 18 20  1  0  0  0  0
 19 18  2  0  0  0  0
 20 21  1  0  0  0  0
 21 37  1  0  0  0  0
 21 22  1  0  0  0  0
 22 38  1  0  0  0  0
 22 40  1  0  0  0  0
 24 28  1  0  0  0  0
 24 23  1  0  0  0  0
 25 24  2  0  0  0  0
 26 25  1  0  0  0  0
 27 26  3  0  0  0  0
 28 41  1  0  0  0  0
 29 43  1  0  0  0  0
 29  8  1  0  0  0  0
 31  6  1  0  0  0  0
 32  7  1  0  0  0  0
 35 17  1  0  0  0  0
 36 21  1  0  0  0  0
 39 22  1  0  0  0  0
 42 28  1  0  0  0  0
 44 29  1  0  0  0  0
 45 29  1  0  0  0  0
M  END
>  <Pose>
1

>  <Score>
-5.10

$$$$
