
 OpenBabel03202209553D

 41 44  0  0  1  0  0  0  0  0999 V2000
   25.6740    5.2790   28.5560 B   0  0  0  0  0  0  0  0  0  0  0  0
   24.2610    5.8460   29.6930 C   0  0  0  0  0  0  0  0  0  0  0  0
   23.7350    7.1150   29.6600 C   0  0  0  0  0  0  0  0  0  0  0  0
   22.6970    7.4530   30.5280 C   0  0  0  0  0  0  0  0  0  0  0  0
   22.1660    6.5850   31.4220 C   0  0  0  0  0  0  0  0  0  0  0  0
   22.7000    5.2940   31.4550 C   0  0  0  0  0  0  0  0  0  0  0  0
   23.7250    4.9430   30.6050 C   0  0  0  0  0  0  0  0  0  0  0  0
   21.1270    7.1710   32.1830 N   0  0  0  0  0  0  0  0  0  0  0  0
   20.9840    8.5030   31.7490 C   0  0  0  0  0  0  0  0  0  0  0  0
   20.1560    9.3460   32.1940 O   0  0  0  0  0  0  0  0  0  0  0  0
   21.9760    8.7590   30.6680 C   0  0  1  0  0  0  0  0  0  0  0  0
   22.9340    9.8150   31.0830 C   0  0  0  0  0  0  0  0  0  0  0  0
   23.1700   10.8550   30.3680 C   0  0  0  0  0  0  0  0  0  0  0  0
   22.5220   11.0930   29.0880 N   0  0  0  0  0  0  0  0  0  0  0  0
   21.6090   10.0950   28.6810 C   0  0  0  0  0  0  0  0  0  0  0  0
   21.3530    9.0310   29.3920 C   0  0  0  0  0  0  0  0  0  0  0  0
   20.3870    8.0880   28.8430 C   0  0  0  0  0  0  0  0  0  0  0  0
   19.6180    7.3500   28.3890 N   0  0  0  0  0  0  0  0  0  0  0  0
   20.9300   10.2790   27.4080 N   0  0  0  0  0  0  0  0  0  0  0  0
   24.1750   11.7060   31.0760 C   0  0  0  0  0  0  0  0  0  0  0  0
   24.4660   11.0340   32.2450 O   0  0  0  0  0  0  0  0  0  0  0  0
   23.7590    9.8740   32.3340 C   0  0  0  0  0  0  0  0  0  0  0  0
   23.7480    8.9920   33.2440 O   0  0  0  0  0  0  0  0  0  0  0  0
   23.6110   13.0960   31.3010 C   0  0  0  0  0  0  0  0  0  0  0  0
   25.4530   11.8140   30.2640 C   0  0  0  0  0  0  0  0  0  0  0  0
   20.3230    6.5420   33.2420 C   0  0  0  0  0  0  0  0  0  0  0  0
   24.1470    7.8160   28.9540 H   0  0  0  0  0  0  0  0  0  0  0  0
   22.2730    4.6010   32.1720 H   0  0  0  0  0  0  0  0  0  0  0  0
   24.1110    3.9310   30.6650 H   0  0  0  0  0  0  0  0  0  0  0  0
   22.7490   11.9480   28.5520 H   0  0  0  0  0  0  0  0  0  0  0  0
   20.1890   11.0080   27.3720 H   0  0  0  0  0  0  0  0  0  0  0  0
   21.1710    9.7140   26.5820 H   0  0  0  0  0  0  0  0  0  0  0  0
   23.2280   13.2260   32.3440 H   0  0  0  0  0  0  0  0  0  0  0  0
   24.3910   13.8390   31.0560 H   0  0  0  0  0  0  0  0  0  0  0  0
   22.7780   13.2250   30.5930 H   0  0  0  0  0  0  0  0  0  0  0  0
   26.1070   10.9530   30.5020 H   0  0  0  0  0  0  0  0  0  0  0  0
   25.9750   12.7630   30.4810 H   0  0  0  0  0  0  0  0  0  0  0  0
   25.2440   11.8010   29.1760 H   0  0  0  0  0  0  0  0  0  0  0  0
   19.2650    6.4640   32.8700 H   0  0  0  0  0  0  0  0  0  0  0  0
   20.6700    5.4990   33.4090 H   0  0  0  0  0  0  0  0  0  0  0  0
   20.3550    7.1090   34.1720 H   0  0  0  0  0  0  0  0  0  0  0  0
  1  2  1  0  0  0  0
  2  7  1  0  0  0  0
  3  2  2  0  0  0  0
  3  4  1  0  0  0  0
  4 11  1  0  0  0  0
  4  5  2  0  0  0  0
  5  6  1  0  0  0  0
  5  8  1  0  0  0  0
  6 28  1  0  0  0  0
  7 29  1  0  0  0  0
  7  6  2  0  0  0  0
  8 26  1  0  0  0  0
  9  8  1  0  0  0  0
  9 10  2  0  0  0  0
 11 16  1  6  0  0  0
 11 12  1  0  0  0  0
 11  9  1  0  0  0  0
 12 22  1  0  0  0  0
 13 20  1  0  0  0  0
 13 12  2  0  0  0  0
 14 13  1  0  0  0  0
 15 14  1  0  0  0  0
 15 16  2  0  0  0  0
 17 16  1  0  0  0  0
 18 17  3  0  0  0  0
 19 15  1  0  0  0  0
 20 24  1  0  0  0  0
 20 21  1  0  0  0  0
 21 22  1  0  0  0  0
 22 23  2  0  0  0  0
 24 33  1  0  0  0  0
 25 37  1  0  0  0  0
 25 36  1  0  0  0  0
 25 20  1  0  0  0  0
 26 40  1  0  0  0  0
 26 41  1  0  0  0  0
 27  3  1  0  0  0  0
 30 14  1  0  0  0  0
 31 19  1  0  0  0  0
 32 19  1  0  0  0  0
 34 24  1  0  0  0  0
 35 24  1  0  0  0  0
 38 25  1  0  0  0  0
 39 26  1  0  0  0  0
M  END
>  <Pose>
1

>  <Score>
-3.89

$$$$
