
 OpenBabel03202209553D

 46 49  0  0  0  0  0  0  0  0999 V2000
   24.8100    9.2000   30.0960 B   0  0  0  0  0  0  0  0  0  0  0  0
   23.4680    7.9550   30.6580 C   0  0  0  0  0  0  0  0  0  0  0  0
   22.3940    8.3760   31.4410 C   0  0  0  0  0  0  0  0  0  0  0  0
   21.4010    7.5270   31.8780 C   0  0  0  0  0  0  0  0  0  0  0  0
   21.5040    6.2080   31.5060 C   0  0  0  0  0  0  0  0  0  0  0  0
   22.5700    5.7480   30.7190 C   0  0  0  0  0  0  0  0  0  0  0  0
   23.5350    6.6310   30.3070 C   0  0  0  0  0  0  0  0  0  0  0  0
   20.3920    5.5190   32.0610 N   0  0  0  0  0  0  0  0  0  0  0  0
   19.5740    6.4120   32.7940 C   0  0  0  0  0  0  0  0  0  0  0  0
   18.5120    6.1710   33.4180 O   0  0  0  0  0  0  0  0  0  0  0  0
   20.2040    7.7390   32.6980 C   0  0  0  0  0  0  0  0  0  0  0  0
   19.7550    8.8490   33.2440 C   0  0  0  0  0  0  0  0  0  0  0  0
   20.3670   10.1050   33.1420 N   0  0  0  0  0  0  0  0  0  0  0  0
   19.6790   11.3030   33.0700 N   0  0  0  0  0  0  0  0  0  0  0  0
   20.3050   12.5770   33.1310 C   0  0  0  0  0  0  0  0  0  0  0  0
   20.9920   12.8230   34.1350 O   0  0  0  0  0  0  0  0  0  0  0  0
   20.1760   13.5970   32.0670 C   0  0  0  0  0  0  0  0  0  0  0  0
   21.2070   13.5320   31.1410 N   0  0  0  0  0  0  0  0  0  0  0  0
   21.8100   14.4670   30.4070 C   0  0  0  0  0  0  0  0  0  0  0  0
   22.7490   13.8570   29.5870 C   0  0  0  0  0  0  0  0  0  0  0  0
   22.6940   12.5380   29.8490 N   0  0  0  0  0  0  0  0  0  0  0  0
   21.7800   12.3420   30.7720 C   0  0  0  0  0  0  0  0  0  0  0  0
   23.5180   14.6210   28.7310 C   0  0  0  0  0  0  0  0  0  0  0  0
   24.3590   14.0400   27.9980 O   0  0  0  0  0  0  0  0  0  0  0  0
   23.3180   15.9310   28.7340 N   0  0  0  0  0  0  0  0  0  0  0  0
   22.4070   16.5100   29.5350 C   0  0  0  0  0  0  0  0  0  0  0  0
   22.2510   17.7540   29.5070 O   0  0  0  0  0  0  0  0  0  0  0  0
   21.6240   15.8030   30.3970 N   0  0  0  0  0  0  0  0  0  0  0  0
   20.6860   16.4550   31.2650 C   0  0  0  0  0  0  0  0  0  0  0  0
   24.1100   16.7910   27.8380 C   0  0  0  0  0  0  0  0  0  0  0  0
   22.3330    9.4170   31.7130 H   0  0  0  0  0  0  0  0  0  0  0  0
   22.6160    4.7090   30.4470 H   0  0  0  0  0  0  0  0  0  0  0  0
   24.3620    6.2540   29.6910 H   0  0  0  0  0  0  0  0  0  0  0  0
   20.1920    4.4970   31.9510 H   0  0  0  0  0  0  0  0  0  0  0  0
   18.8410    8.7930   33.8160 H   0  0  0  0  0  0  0  0  0  0  0  0
   21.4230   10.1070   33.1220 H   0  0  0  0  0  0  0  0  0  0  0  0
   18.6410   11.2900   32.9690 H   0  0  0  0  0  0  0  0  0  0  0  0
   19.1420   13.5830   31.7440 H   0  0  0  0  0  0  0  0  0  0  0  0
   20.2590   14.5930   32.6250 H   0  0  0  0  0  0  0  0  0  0  0  0
   21.5320   11.3700   31.1710 H   0  0  0  0  0  0  0  0  0  0  0  0
   20.7230   17.5600   30.9630 H   0  0  0  0  0  0  0  0  0  0  0  0
   19.6380   16.2350   31.1320 H   0  0  0  0  0  0  0  0  0  0  0  0
   21.0560   16.5440   32.3130 H   0  0  0  0  0  0  0  0  0  0  0  0
   24.0870   16.3440   26.8240 H   0  0  0  0  0  0  0  0  0  0  0  0
   25.1770   16.8110   28.1510 H   0  0  0  0  0  0  0  0  0  0  0  0
   23.7080   17.8240   27.8170 H   0  0  0  0  0  0  0  0  0  0  0  0
  1  2  1  0  0  0  0
  2  3  1  0  0  0  0
  3 31  1  0  0  0  0
  3  4  2  0  0  0  0
  4 11  1  0  0  0  0
  5  4  1  0  0  0  0
  5  8  1  0  0  0  0
  6  5  2  0  0  0  0
  7  2  2  0  0  0  0
  7  6  1  0  0  0  0
  8  9  1  0  0  0  0
  9 10  2  0  0  0  0
 11  9  1  0  0  0  0
 11 12  2  0  0  0  0
 12 35  1  0  0  0  0
 13 12  1  0  0  0  0
 14 15  1  0  0  0  0
 14 13  1  0  0  0  0
 15 16  2  0  0  0  0
 17 39  1  0  0  0  0
 17 15  1  0  0  0  0
 18 17  1  0  0  0  0
 19 18  1  0  0  0  0
 20 21  1  0  0  0  0
 20 19  2  0  0  0  0
 21 22  2  0  0  0  0
 22 18  1  0  0  0  0
 22 40  1  0  0  0  0
 23 25  1  0  0  0  0
 23 20  1  0  0  0  0
 24 23  2  0  0  0  0
 25 26  1  0  0  0  0
 26 28  1  0  0  0  0
 27 26  2  0  0  0  0
 28 19  1  0  0  0  0
 28 29  1  0  0  0  0
 29 43  1  0  0  0  0
 30 45  1  0  0  0  0
 30 25  1  0  0  0  0
 32  6  1  0  0  0  0
 33  7  1  0  0  0  0
 34  8  1  0  0  0  0
 36 13  1  0  0  0  0
 37 14  1  0  0  0  0
 38 17  1  0  0  0  0
 41 29  1  0  0  0  0
 42 29  1  0  0  0  0
 44 30  1  0  0  0  0
 46 30  1  0  0  0  0
M  END
>  <Pose>
1

>  <Score>
-8.38

$$$$
