
 OpenBabel03202209553D

 51 56  0  0  1  0  0  0  0  0999 V2000
   30.0950   11.3570   29.2600 B   0  0  0  0  0  0  0  0  0  0  0  0
   28.2620   11.4180   28.7380 C   0  0  0  0  0  0  0  0  0  0  0  0
   27.2670   10.7660   29.4560 C   0  0  0  0  0  0  0  0  0  0  0  0
   25.9530   10.8140   29.0760 C   0  0  0  0  0  0  0  0  0  0  0  0
   25.6480   11.5450   27.9370 C   0  0  0  0  0  0  0  0  0  0  0  0
   26.6300   12.1940   27.2190 C   0  0  0  0  0  0  0  0  0  0  0  0
   27.9470   12.1380   27.6110 C   0  0  0  0  0  0  0  0  0  0  0  0
   24.2420   11.4970   27.6830 N   0  0  0  0  0  0  0  0  0  0  0  0
   23.6280   10.7150   28.6860 C   0  0  0  0  0  0  0  0  0  0  0  0
   22.4110   10.4870   28.7480 O   0  0  0  0  0  0  0  0  0  0  0  0
   24.7040   10.2580   29.5910 C   0  0  1  0  0  0  0  0  0  0  0  0
   24.6290    8.8290   29.6500 N   0  0  2  0  0  0  0  0  0  0  0  0
   23.4780    8.5700   30.5130 C   0  0  2  0  0  0  0  0  0  0  0  0
   23.4360    9.6860   31.5050 C   0  0  1  0  0  0  0  0  0  0  0  0
   24.4600   10.6560   31.0250 C   0  0  2  0  0  0  0  0  0  0  0  0
   23.8350   11.9660   31.1690 C   0  0  0  0  0  0  0  0  0  0  0  0
   24.3950   13.0750   31.0170 O   0  0  0  0  0  0  0  0  0  0  0  0
   22.4810   11.8030   31.5110 N   0  0  0  0  0  0  0  0  0  0  0  0
   22.1260   10.4120   31.4920 C   0  0  0  0  0  0  0  0  0  0  0  0
   20.9840    9.8870   31.4680 O   0  0  0  0  0  0  0  0  0  0  0  0
   21.5630   12.8490   31.8350 C   0  0  0  0  0  0  0  0  0  0  0  0
   22.1270   14.2220   31.8050 C   0  0  2  0  0  0  0  0  0  0  0  0
   22.4970   14.7060   33.0550 O   0  0  0  0  0  0  0  0  0  0  0  0
   22.7580   16.0490   32.8230 C   0  0  0  0  0  0  0  0  0  0  0  0
   21.7770   16.5470   31.8080 C   0  0  0  0  0  0  0  0  0  0  0  0
   21.2690   15.2580   31.1630 C   0  0  0  0  0  0  0  0  0  0  0  0
   23.8100    7.2850   31.2580 C   0  0  0  0  0  0  0  0  0  0  0  0
   25.1600    6.8380   30.7370 C   0  0  0  0  0  0  0  0  0  0  0  0
   25.7480    8.1890   30.3090 C   0  0  0  0  0  0  0  0  0  0  0  0
   27.6100   10.2200   30.3370 H   0  0  0  0  0  0  0  0  0  0  0  0
   26.4080   12.7770   26.3130 H   0  0  0  0  0  0  0  0  0  0  0  0
   28.7280   12.6620   27.0290 H   0  0  0  0  0  0  0  0  0  0  0  0
   23.7600   11.9780   26.8670 H   0  0  0  0  0  0  0  0  0  0  0  0
   22.5560    8.4630   29.9220 H   0  0  0  0  0  0  0  0  0  0  0  0
   23.6370    9.3230   32.5490 H   0  0  0  0  0  0  0  0  0  0  0  0
   25.4250   10.5640   31.5620 H   0  0  0  0  0  0  0  0  0  0  0  0
   20.7310   12.8060   31.0980 H   0  0  0  0  0  0  0  0  0  0  0  0
   21.0760   12.7070   32.8310 H   0  0  0  0  0  0  0  0  0  0  0  0
   23.0820   14.1720   31.2100 H   0  0  0  0  0  0  0  0  0  0  0  0
   22.5350   16.5890   33.7870 H   0  0  0  0  0  0  0  0  0  0  0  0
   23.8170   16.2430   32.5590 H   0  0  0  0  0  0  0  0  0  0  0  0
   22.2360   17.2030   31.0400 H   0  0  0  0  0  0  0  0  0  0  0  0
   20.9000   17.0240   32.2920 H   0  0  0  0  0  0  0  0  0  0  0  0
   20.1960   15.1310   31.2870 H   0  0  0  0  0  0  0  0  0  0  0  0
   21.4600   15.3020   30.0500 H   0  0  0  0  0  0  0  0  0  0  0  0
   23.0290    6.5240   31.1550 H   0  0  0  0  0  0  0  0  0  0  0  0
   23.9310    7.4660   32.3550 H   0  0  0  0  0  0  0  0  0  0  0  0
   25.1000    6.1570   29.8860 H   0  0  0  0  0  0  0  0  0  0  0  0
   25.8080    6.4140   31.5030 H   0  0  0  0  0  0  0  0  0  0  0  0
   26.6030    8.0110   29.6560 H   0  0  0  0  0  0  0  0  0  0  0  0
   26.0610    8.6670   31.2440 H   0  0  0  0  0  0  0  0  0  0  0  0
  2  1  1  0  0  0  0
  2  3  1  0  0  0  0
  3 30  1  0  0  0  0
  4  3  2  0  0  0  0
  4 11  1  0  0  0  0
  5  4  1  0  0  0  0
  6  7  1  0  0  0  0
  6  5  2  0  0  0  0
  7  2  2  0  0  0  0
  8  5  1  0  0  0  0
  8  9  1  0  0  0  0
  9 10  2  0  0  0  0
 11  9  1  6  0  0  0
 11 12  1  0  0  0  0
 11 15  1  0  0  0  0
 12 29  1  1  0  0  0
 12 13  1  0  0  0  0
 13 34  1  6  0  0  0
 13 27  1  0  0  0  0
 13 14  1  0  0  0  0
 14 35  1  1  0  0  0
 15 16  1  0  0  0  0
 15 14  1  0  0  0  0
 15 36  1  1  0  0  0
 16 18  1  0  0  0  0
 17 16  2  0  0  0  0
 18 21  1  0  0  0  0
 19 14  1  0  0  0  0
 19 18  1  0  0  0  0
 20 19  2  0  0  0  0
 21 38  1  0  0  0  0
 22 39  1  6  0  0  0
 22 21  1  0  0  0  0
 22 23  1  0  0  0  0
 24 23  1  0  0  0  0
 24 40  1  0  0  0  0
 25 43  1  0  0  0  0
 25 24  1  0  0  0  0
 26 44  1  0  0  0  0
 26 22  1  0  0  0  0
 26 25  1  0  0  0  0
 27 47  1  0  0  0  0
 28 27  1  0  0  0  0
 28 49  1  0  0  0  0
 29 28  1  0  0  0  0
 29 51  1  0  0  0  0
 31  6  1  0  0  0  0
 32  7  1  0  0  0  0
 33  8  1  0  0  0  0
 37 21  1  0  0  0  0
 41 24  1  0  0  0  0
 42 25  1  0  0  0  0
 45 26  1  0  0  0  0
 46 27  1  0  0  0  0
 48 28  1  0  0  0  0
 50 29  1  0  0  0  0
M  END
>  <Pose>
1

>  <Score>
-5.69

$$$$
