
 OpenBabel03202209553D

 49 52  0  0  1  0  0  0  0  0999 V2000
   27.6200    1.6630   33.5190 B   0  0  0  0  0  0  0  0  0  0  0  0
   25.9860    2.4070   32.8740 C   0  0  0  0  0  0  0  0  0  0  0  0
   25.9930    3.4110   31.9390 C   0  0  0  0  0  0  0  0  0  0  0  0
   24.7950    3.9680   31.4570 C   0  0  0  0  0  0  0  0  0  0  0  0
   23.5800    3.5280   31.9040 C   0  0  0  0  0  0  0  0  0  0  0  0
   23.5730    2.5020   32.8590 C   0  0  0  0  0  0  0  0  0  0  0  0
   24.7570    1.9720   33.3170 C   0  0  0  0  0  0  0  0  0  0  0  0
   22.5210    4.2360   31.2760 N   0  0  0  0  0  0  0  0  0  0  0  0
   23.1050    5.1690   30.3890 C   0  0  0  0  0  0  0  0  0  0  0  0
   22.4020    5.9580   29.6750 O   0  0  0  0  0  0  0  0  0  0  0  0
   24.5500    5.0400   30.4670 C   0  0  2  0  0  0  0  0  0  0  0  0
   25.1770    4.7540   29.1910 N   0  0  0  0  0  0  0  0  0  0  0  0
   25.4690    6.0470   28.5980 C   0  0  1  0  0  0  0  0  0  0  0  0
   25.9690    6.8260   29.7800 C   0  0  2  0  0  0  0  0  0  0  0  0
   25.1480    6.3520   30.9310 C   0  0  1  0  0  0  0  0  0  0  0  0
   24.1360    7.3960   31.1570 C   0  0  0  0  0  0  0  0  0  0  0  0
   23.0560    7.3270   31.8300 O   0  0  0  0  0  0  0  0  0  0  0  0
   24.5270    8.5890   30.4890 N   0  0  0  0  0  0  0  0  0  0  0  0
   25.6470    8.2660   29.6900 C   0  0  0  0  0  0  0  0  0  0  0  0
   26.3160    9.0730   28.9750 O   0  0  0  0  0  0  0  0  0  0  0  0
   23.9020    9.8920   30.6010 C   0  0  0  0  0  0  0  0  0  0  0  0
   24.5790   10.7660   31.6070 C   0  0  0  0  0  0  0  0  0  0  0  0
   24.0030   12.1760   31.4270 C   0  0  0  0  0  0  0  0  0  0  0  0
   24.3280   12.7050   30.0570 C   0  0  0  0  0  0  0  0  0  0  0  0
   26.4950    5.8750   27.5230 C   0  0  2  0  0  0  0  0  0  0  0  0
   25.9220    5.1040   26.5040 O   0  0  0  0  0  0  0  0  0  0  0  0
   27.6790    5.1030   28.0520 C   0  0  0  0  0  0  0  0  0  0  0  0
   26.9350    3.8090   31.5400 H   0  0  0  0  0  0  0  0  0  0  0  0
   22.6050    2.1470   33.2190 H   0  0  0  0  0  0  0  0  0  0  0  0
   24.7630    1.1760   34.0580 H   0  0  0  0  0  0  0  0  0  0  0  0
   21.5030    4.0560   31.4740 H   0  0  0  0  0  0  0  0  0  0  0  0
   24.5930    4.1520   28.5820 H   0  0  0  0  0  0  0  0  0  0  0  0
   24.5660    6.5520   28.2200 H   0  0  0  0  0  0  0  0  0  0  0  0
   27.0490    6.6620   29.9760 H   0  0  0  0  0  0  0  0  0  0  0  0
   25.7970    6.2110   31.8310 H   0  0  0  0  0  0  0  0  0  0  0  0
   23.8790   10.4330   29.6370 H   0  0  0  0  0  0  0  0  0  0  0  0
   22.8410    9.7450   30.9100 H   0  0  0  0  0  0  0  0  0  0  0  0
   25.6670   10.8670   31.3580 H   0  0  0  0  0  0  0  0  0  0  0  0
   24.5140   10.4330   32.6400 H   0  0  0  0  0  0  0  0  0  0  0  0
   22.8930   12.0450   31.5030 H   0  0  0  0  0  0  0  0  0  0  0  0
   24.3210   12.8430   32.2430 H   0  0  0  0  0  0  0  0  0  0  0  0
   25.2940   12.3530   29.6680 H   0  0  0  0  0  0  0  0  0  0  0  0
   23.5490   12.3840   29.3140 H   0  0  0  0  0  0  0  0  0  0  0  0
   24.2700   13.8110   30.0840 H   0  0  0  0  0  0  0  0  0  0  0  0
   26.8310    6.8640   27.1450 H   0  0  0  0  0  0  0  0  0  0  0  0
   25.5340    5.6830   25.7980 H   0  0  0  0  0  0  0  0  0  0  0  0
   28.3670    5.7960   28.5750 H   0  0  0  0  0  0  0  0  0  0  0  0
   27.2990    4.3080   28.7070 H   0  0  0  0  0  0  0  0  0  0  0  0
   28.2350    4.7100   27.1610 H   0  0  0  0  0  0  0  0  0  0  0  0
  2  7  1  0  0  0  0
  2  1  1  0  0  0  0
  3  2  2  0  0  0  0
  4  5  2  0  0  0  0
  4  3  1  0  0  0  0
  5  6  1  0  0  0  0
  6 29  1  0  0  0  0
  6  7  2  0  0  0  0
  7 30  1  0  0  0  0
  8 31  1  0  0  0  0
  8  5  1  0  0  0  0
  9  8  1  0  0  0  0
 10  9  2  0  0  0  0
 11  9  1  6  0  0  0
 11 15  1  0  0  0  0
 11  4  1  0  0  0  0
 12 11  1  0  0  0  0
 13 33  1  6  0  0  0
 13 12  1  0  0  0  0
 13 14  1  0  0  0  0
 14 34  1  1  0  0  0
 14 15  1  0  0  0  0
 15 16  1  0  0  0  0
 15 35  1  1  0  0  0
 16 17  2  0  0  0  0
 18 21  1  0  0  0  0
 18 16  1  0  0  0  0
 19 14  1  0  0  0  0
 19 18  1  0  0  0  0
 20 19  2  0  0  0  0
 21 37  1  0  0  0  0
 21 22  1  0  0  0  0
 22 39  1  0  0  0  0
 23 40  1  0  0  0  0
 23 22  1  0  0  0  0
 23 41  1  0  0  0  0
 24 44  1  0  0  0  0
 24 23  1  0  0  0  0
 25 45  1  6  0  0  0
 25 27  1  0  0  0  0
 25 13  1  0  0  0  0
 26 25  1  0  0  0  0
 27 47  1  0  0  0  0
 27 48  1  0  0  0  0
 28  3  1  0  0  0  0
 32 12  1  0  0  0  0
 36 21  1  0  0  0  0
 38 22  1  0  0  0  0
 42 24  1  0  0  0  0
 43 24  1  0  0  0  0
 46 26  1  0  0  0  0
 49 27  1  0  0  0  0
M  END
>  <Pose>
1

>  <Score>
-6.26

$$$$
