
 OpenBabel03202209553D

 53 57  0  0  1  0  0  0  0  0999 V2000
   29.2280    3.5970   31.8070 B   0  0  0  0  0  0  0  0  0  0  0  0
   27.3380    3.6750   31.5410 C   0  0  0  0  0  0  0  0  0  0  0  0
   26.7050    4.7920   31.0440 C   0  0  0  0  0  0  0  0  0  0  0  0
   25.3150    4.8460   30.8570 C   0  0  0  0  0  0  0  0  0  0  0  0
   24.5910    3.7280   31.1890 C   0  0  0  0  0  0  0  0  0  0  0  0
   25.2230    2.5980   31.6890 C   0  0  0  0  0  0  0  0  0  0  0  0
   26.5870    2.5570   31.8700 C   0  0  0  0  0  0  0  0  0  0  0  0
   23.2100    3.9330   30.9630 N   0  0  0  0  0  0  0  0  0  0  0  0
   23.0520    5.2420   30.4640 C   0  0  0  0  0  0  0  0  0  0  0  0
   21.9240    5.7250   30.1650 O   0  0  0  0  0  0  0  0  0  0  0  0
   24.3870    5.8710   30.3780 C   0  0  1  0  0  0  0  0  0  0  0  0
   24.4450    7.0670   31.2250 N   0  0  0  0  0  0  0  0  0  0  0  0
   25.3400    7.9780   30.5480 C   0  0  1  0  0  0  0  0  0  0  0  0
   25.3200    7.6570   29.1050 C   0  0  2  0  0  0  0  0  0  0  0  0
   24.5740    6.3410   28.9840 C   0  0  1  0  0  0  0  0  0  0  0  0
   25.3750    5.5180   28.0870 C   0  0  0  0  0  0  0  0  0  0  0  0
   25.1830    4.3070   27.8140 O   0  0  0  0  0  0  0  0  0  0  0  0
   26.4560    6.2960   27.5300 N   0  0  0  0  0  0  0  0  0  0  0  0
   26.6260    7.3680   28.4810 C   0  0  0  0  0  0  0  0  0  0  0  0
   27.7020    7.9380   28.7180 O   0  0  0  0  0  0  0  0  0  0  0  0
   27.1810    6.1010   26.3150 C   0  0  0  0  0  0  0  0  0  0  0  0
   28.1780    4.9790   26.3140 C   0  0  0  0  0  0  0  0  0  0  0  0
   29.5080    5.3290   25.7880 C   0  0  0  0  0  0  0  0  0  0  0  0
   29.6090    5.9550   24.5520 C   0  0  0  0  0  0  0  0  0  0  0  0
   30.8250    6.3050   24.0690 C   0  0  0  0  0  0  0  0  0  0  0  0
   31.9830    6.0720   24.7510 C   0  0  0  0  0  0  0  0  0  0  0  0
   31.8720    5.4480   25.9840 C   0  0  0  0  0  0  0  0  0  0  0  0
   30.6580    5.0840   26.4920 C   0  0  0  0  0  0  0  0  0  0  0  0
   24.9650    9.4080   30.8610 C   0  0  1  0  0  0  0  0  0  0  0  0
   25.7460   10.2730   30.1200 O   0  0  0  0  0  0  0  0  0  0  0  0
   23.4880    9.6670   30.6840 C   0  0  0  0  0  0  0  0  0  0  0  0
   27.3130    5.6470   30.7950 H   0  0  0  0  0  0  0  0  0  0  0  0
   24.6580    1.7050   31.9560 H   0  0  0  0  0  0  0  0  0  0  0  0
   27.1020    1.6770   32.2610 H   0  0  0  0  0  0  0  0  0  0  0  0
   22.4400    3.2290   31.1360 H   0  0  0  0  0  0  0  0  0  0  0  0
   24.7880    6.8390   32.1860 H   0  0  0  0  0  0  0  0  0  0  0  0
   26.3540    7.8200   30.9550 H   0  0  0  0  0  0  0  0  0  0  0  0
   24.8420    8.4380   28.4710 H   0  0  0  0  0  0  0  0  0  0  0  0
   23.6110    6.5580   28.4590 H   0  0  0  0  0  0  0  0  0  0  0  0
   26.4080    5.9280   25.5040 H   0  0  0  0  0  0  0  0  0  0  0  0
   27.7410    7.0350   26.0410 H   0  0  0  0  0  0  0  0  0  0  0  0
   27.7860    4.1050   25.7310 H   0  0  0  0  0  0  0  0  0  0  0  0
   28.2570    4.5710   27.3650 H   0  0  0  0  0  0  0  0  0  0  0  0
   28.7050    6.1590   23.9740 H   0  0  0  0  0  0  0  0  0  0  0  0
   30.8490    6.7980   23.0840 H   0  0  0  0  0  0  0  0  0  0  0  0
   32.9540    6.3480   24.3760 H   0  0  0  0  0  0  0  0  0  0  0  0
   32.7970    5.2640   26.5330 H   0  0  0  0  0  0  0  0  0  0  0  0
   30.5680    4.6010   27.4460 H   0  0  0  0  0  0  0  0  0  0  0  0
   25.1960    9.5700   31.9380 H   0  0  0  0  0  0  0  0  0  0  0  0
   26.4290   10.7160   30.6580 H   0  0  0  0  0  0  0  0  0  0  0  0
   22.8890    9.3430   31.5460 H   0  0  0  0  0  0  0  0  0  0  0  0
   23.0820    9.2380   29.7610 H   0  0  0  0  0  0  0  0  0  0  0  0
   23.3610   10.7750   30.6070 H   0  0  0  0  0  0  0  0  0  0  0  0
  2  1  1  0  0  0  0
  2  7  1  0  0  0  0
  3  2  2  0  0  0  0
  4  3  1  0  0  0  0
  4  5  2  0  0  0  0
  5  6  1  0  0  0  0
  6  7  2  0  0  0  0
  6 33  1  0  0  0  0
  7 34  1  0  0  0  0
  8 35  1  0  0  0  0
  8  5  1  0  0  0  0
  9  8  1  0  0  0  0
 10  9  2  0  0  0  0
 11  9  1  1  0  0  0
 11  4  1  0  0  0  0
 11 12  1  0  0  0  0
 12 36  1  0  0  0  0
 13 29  1  0  0  0  0
 13 37  1  1  0  0  0
 13 12  1  0  0  0  0
 14 38  1  6  0  0  0
 14 13  1  0  0  0  0
 15 39  1  6  0  0  0
 15 14  1  0  0  0  0
 15 11  1  0  0  0  0
 16 15  1  0  0  0  0
 17 16  2  0  0  0  0
 18 16  1  0  0  0  0
 18 19  1  0  0  0  0
 19 20  2  0  0  0  0
 19 14  1  0  0  0  0
 21 18  1  0  0  0  0
 22 21  1  0  0  0  0
 22 43  1  0  0  0  0
 23 22  1  0  0  0  0
 23 28  1  0  0  0  0
 24 23  2  0  0  0  0
 25 24  1  0  0  0  0
 25 26  2  0  0  0  0
 26 27  1  0  0  0  0
 27 28  2  0  0  0  0
 27 47  1  0  0  0  0
 28 48  1  0  0  0  0
 29 49  1  1  0  0  0
 30 50  1  0  0  0  0
 30 29  1  0  0  0  0
 31 29  1  0  0  0  0
 31 51  1  0  0  0  0
 32  3  1  0  0  0  0
 40 21  1  0  0  0  0
 41 21  1  0  0  0  0
 42 22  1  0  0  0  0
 44 24  1  0  0  0  0
 45 25  1  0  0  0  0
 46 26  1  0  0  0  0
 52 31  1  0  0  0  0
 53 31  1  0  0  0  0
M  END
>  <Pose>
1

>  <Score>
-5.61

$$$$
