
 OpenBabel03202209553D

 37 40  0  0  0  0  0  0  0  0999 V2000
   22.0070   20.3590   26.5630 B   0  0  0  0  0  0  0  0  0  0  0  0
   22.7800   18.6700   27.0470 C   0  0  0  0  0  0  0  0  0  0  0  0
   22.4270   18.0540   28.2290 C   0  0  0  0  0  0  0  0  0  0  0  0
   22.9850   16.8400   28.5720 C   0  0  0  0  0  0  0  0  0  0  0  0
   23.9060   16.1870   27.7740 C   0  0  0  0  0  0  0  0  0  0  0  0
   24.2520   16.8240   26.5850 C   0  0  0  0  0  0  0  0  0  0  0  0
   23.6970   18.0370   26.2350 C   0  0  0  0  0  0  0  0  0  0  0  0
   24.5650   14.9580   27.9740 N   0  0  0  0  0  0  0  0  0  0  0  0
   25.6130   14.5680   27.2660 N   0  0  0  0  0  0  0  0  0  0  0  0
   25.9780   13.3760   27.7100 N   0  0  0  0  0  0  0  0  0  0  0  0
   25.1700   13.0250   28.6820 N   0  0  0  0  0  0  0  0  0  0  0  0
   24.2560   14.0070   28.8790 C   0  0  0  0  0  0  0  0  0  0  0  0
   23.2260   13.8720   29.9110 C   0  0  0  0  0  0  0  0  0  0  0  0
   22.7310   15.0770   30.4820 N   0  0  0  0  0  0  0  0  0  0  0  0
   22.5010   16.3280   29.8560 C   0  0  0  0  0  0  0  0  0  0  0  0
   21.7770   17.1730   30.4470 O   0  0  0  0  0  0  0  0  0  0  0  0
   22.0020   13.1060   29.3870 C   0  0  0  0  0  0  0  0  0  0  0  0
   21.4130   12.3020   30.5190 C   0  0  0  0  0  0  0  0  0  0  0  0
   22.2460   11.1340   30.7000 N   0  0  0  0  0  0  0  0  0  0  0  0
   23.6250   11.5430   30.7470 C   0  0  0  0  0  0  0  0  0  0  0  0
   23.7990   13.0140   31.0340 C   0  0  0  0  0  0  0  0  0  0  0  0
   21.9870   10.2300   29.5800 C   0  0  0  0  0  0  0  0  0  0  0  0
   21.7120   18.4960   28.9140 H   0  0  0  0  0  0  0  0  0  0  0  0
   24.9710   16.3190   25.9570 H   0  0  0  0  0  0  0  0  0  0  0  0
   23.9830   18.5060   25.3070 H   0  0  0  0  0  0  0  0  0  0  0  0
   22.5070   15.0290   31.4970 H   0  0  0  0  0  0  0  0  0  0  0  0
   21.2030   13.8330   29.0720 H   0  0  0  0  0  0  0  0  0  0  0  0
   22.2680   12.5240   28.5090 H   0  0  0  0  0  0  0  0  0  0  0  0
   21.4490   12.9140   31.4340 H   0  0  0  0  0  0  0  0  0  0  0  0
   20.3720   12.0440   30.3210 H   0  0  0  0  0  0  0  0  0  0  0  0
   24.1180   11.2220   29.8250 H   0  0  0  0  0  0  0  0  0  0  0  0
   24.1030   10.9950   31.5830 H   0  0  0  0  0  0  0  0  0  0  0  0
   23.3890   13.2570   32.0130 H   0  0  0  0  0  0  0  0  0  0  0  0
   24.8920   13.2090   31.0640 H   0  0  0  0  0  0  0  0  0  0  0  0
   22.9450   10.1340   29.0210 H   0  0  0  0  0  0  0  0  0  0  0  0
   21.6150    9.2420   29.9230 H   0  0  0  0  0  0  0  0  0  0  0  0
   21.2000   10.6400   28.9020 H   0  0  0  0  0  0  0  0  0  0  0  0
  1  2  1  0  0  0  0
  2  3  1  0  0  0  0
  3  4  2  0  0  0  0
  3 23  1  0  0  0  0
  4 15  1  0  0  0  0
  5  8  1  0  0  0  0
  5  4  1  0  0  0  0
  6  5  2  0  0  0  0
  7  6  1  0  0  0  0
  7  2  2  0  0  0  0
  8 12  1  0  0  0  0
  9 10  2  0  0  0  0
  9  8  1  0  0  0  0
 10 11  1  0  0  0  0
 11 12  2  0  0  0  0
 12 13  1  0  0  0  0
 13 14  1  0  0  0  0
 13 21  1  0  0  0  0
 14 26  1  0  0  0  0
 15 16  2  0  0  0  0
 15 14  1  0  0  0  0
 17 13  1  0  0  0  0
 17 18  1  0  0  0  0
 18 19  1  0  0  0  0
 18 29  1  0  0  0  0
 19 20  1  0  0  0  0
 20 21  1  0  0  0  0
 20 32  1  0  0  0  0
 21 34  1  0  0  0  0
 21 33  1  0  0  0  0
 22 36  1  0  0  0  0
 22 19  1  0  0  0  0
 24  6  1  0  0  0  0
 25  7  1  0  0  0  0
 27 17  1  0  0  0  0
 28 17  1  0  0  0  0
 30 18  1  0  0  0  0
 31 20  1  0  0  0  0
 35 22  1  0  0  0  0
 37 22  1  0  0  0  0
M  END
>  <Pose>
1

>  <Score>
-5.70

$$$$
