
 OpenBabel03202209553D

 44 47  0  0  0  0  0  0  0  0999 V2000
   18.5830   15.6960   30.8990 B   0  0  0  0  0  0  0  0  0  0  0  0
   20.2430   14.8370   31.2080 C   0  0  0  0  0  0  0  0  0  0  0  0
   20.4380   13.5060   30.8900 C   0  0  0  0  0  0  0  0  0  0  0  0
   21.6350   12.8410   31.0870 C   0  0  0  0  0  0  0  0  0  0  0  0
   22.6820   13.5570   31.6290 C   0  0  0  0  0  0  0  0  0  0  0  0
   22.5470   14.8950   31.9690 C   0  0  0  0  0  0  0  0  0  0  0  0
   21.3390   15.5180   31.7580 C   0  0  0  0  0  0  0  0  0  0  0  0
   23.8480   12.9400   31.8300 O   0  0  0  0  0  0  0  0  0  0  0  0
   24.0500   11.7030   31.5430 C   0  0  0  0  0  0  0  0  0  0  0  0
   25.1570   11.1090   31.7290 O   0  0  0  0  0  0  0  0  0  0  0  0
   23.0440   10.9320   31.0000 C   0  0  0  0  0  0  0  0  0  0  0  0
   21.8190   11.5180   30.7720 C   0  0  0  0  0  0  0  0  0  0  0  0
   23.2600    9.5170   30.7050 C   0  0  0  0  0  0  0  0  0  0  0  0
   24.3300    9.1040   29.9270 C   0  0  0  0  0  0  0  0  0  0  0  0
   24.5530    7.7620   29.7050 C   0  0  0  0  0  0  0  0  0  0  0  0
   25.5560    7.4620   28.9830 O   0  0  0  0  0  0  0  0  0  0  0  0
   23.7670    6.8640   30.2160 O   0  0  0  0  0  0  0  0  0  0  0  0
   22.7630    7.1780   30.9410 C   0  0  0  0  0  0  0  0  0  0  0  0
   22.4620    8.5250   31.2190 C   0  0  0  0  0  0  0  0  0  0  0  0
   21.3760    8.8290   31.9860 C   0  0  0  0  0  0  0  0  0  0  0  0
   20.6020    7.7700   32.4740 C   0  0  0  0  0  0  0  0  0  0  0  0
   20.9260    6.4600   32.1860 C   0  0  0  0  0  0  0  0  0  0  0  0
   22.0130    6.1170   31.4130 C   0  0  0  0  0  0  0  0  0  0  0  0
   22.3440    4.7280   31.2410 C   0  0  0  0  0  0  0  0  0  0  0  0
   22.7060    3.8660   32.2910 N   0  0  0  0  0  4  0  0  0  0  0  0
   23.7980    2.9610   32.0620 C   0  0  0  0  0  0  0  0  0  0  0  0
   22.8180    4.5770   33.5910 C   0  0  0  0  0  0  0  0  0  0  0  0
   20.0820    5.4680   32.7310 O   0  0  0  0  0  0  0  0  0  0  0  0
   19.6220   12.9160   30.4440 H   0  0  0  0  0  0  0  0  0  0  0  0
   23.4040   15.3900   32.3970 H   0  0  0  0  0  0  0  0  0  0  0  0
   21.1600   16.5590   32.0000 H   0  0  0  0  0  0  0  0  0  0  0  0
   20.9580   10.9520   30.3580 H   0  0  0  0  0  0  0  0  0  0  0  0
   24.9700    9.8710   29.4960 H   0  0  0  0  0  0  0  0  0  0  0  0
   21.1010    9.8560   32.1910 H   0  0  0  0  0  0  0  0  0  0  0  0
   19.7540    8.0450   33.0860 H   0  0  0  0  0  0  0  0  0  0  0  0
   23.2430    4.7110   30.5150 H   0  0  0  0  0  0  0  0  0  0  0  0
   21.5680    4.2130   30.6060 H   0  0  0  0  0  0  0  0  0  0  0  0
   21.8830    3.2160   32.4540 H   0  0  0  0  0  0  0  0  0  0  0  0
   24.7750    3.3090   32.4880 H   0  0  0  0  0  0  0  0  0  0  0  0
   23.9160    2.6370   31.0030 H   0  0  0  0  0  0  0  0  0  0  0  0
   23.6600    1.9670   32.6110 H   0  0  0  0  0  0  0  0  0  0  0  0
   22.6510    5.6780   33.4540 H   0  0  0  0  0  0  0  0  0  0  0  0
   21.9860    4.3070   34.2920 H   0  0  0  0  0  0  0  0  0  0  0  0
   23.7450    4.3060   34.1030 H   0  0  0  0  0  0  0  0  0  0  0  0
  1  2  1  0  0  0  0
  2  7  1  0  0  0  0
  3  4  1  0  0  0  0
  3  2  2  0  0  0  0
  4  5  2  0  0  0  0
  5  8  1  0  0  0  0
  5  6  1  0  0  0  0
  6 30  1  0  0  0  0
  7  6  2  0  0  0  0
  7 31  1  0  0  0  0
  9 10  2  0  0  0  0
  9  8  1  0  0  0  0
 11  9  1  0  0  0  0
 12 11  2  0  0  0  0
 12  4  1  0  0  0  0
 13 11  1  0  0  0  0
 13 19  1  0  0  0  0
 14 13  2  0  0  0  0
 15 14  1  0  0  0  0
 15 17  1  0  0  0  0
 16 15  2  0  0  0  0
 17 18  1  0  0  0  0
 18 19  2  0  0  0  0
 18 23  1  0  0  0  0
 19 20  1  0  0  0  0
 20 34  1  0  0  0  0
 20 21  2  0  0  0  0
 21 35  1  0  0  0  0
 22 21  1  0  0  0  0
 22 28  1  0  0  0  0
 23 22  2  0  0  0  0
 24 23  1  0  0  0  0
 24 25  1  0  0  0  0
 25 38  1  0  0  0  0
 25 27  1  0  0  0  0
 26 25  1  0  0  0  0
 26 39  1  0  0  0  0
 26 41  1  0  0  0  0
 27 44  1  0  0  0  0
 27 43  1  0  0  0  0
 29  3  1  0  0  0  0
 32 12  1  0  0  0  0
 33 14  1  0  0  0  0
 36 24  1  0  0  0  0
 37 24  1  0  0  0  0
 40 26  1  0  0  0  0
 42 27  1  0  0  0  0
M  END
>  <Pose>
1

>  <Score>
-6.96

$$$$
