
 OpenBabel03202209553D

 51 54  0  0  0  0  0  0  0  0999 V2000
   20.8350   14.9050   30.9930 B   0  0  0  0  0  0  0  0  0  0  0  0
   22.3300   14.3000   29.9730 C   0  0  0  0  0  0  0  0  0  0  0  0
   22.7450   12.9730   30.0390 C   0  0  0  0  0  0  0  0  0  0  0  0
   23.8320   12.5320   29.2970 C   0  0  0  0  0  0  0  0  0  0  0  0
   24.5130   13.4120   28.4830 C   0  0  0  0  0  0  0  0  0  0  0  0
   25.5730   12.9810   27.7540 N   0  0  0  0  0  0  0  0  0  0  0  0
   25.9920   11.7040   27.7970 C   0  0  0  0  0  0  0  0  0  0  0  0
   25.3180   10.8640   28.5930 N   0  0  0  0  0  0  0  0  0  0  0  0
   24.2600   11.2220   29.3440 C   0  0  0  0  0  0  0  0  0  0  0  0
   23.5970   10.2300   30.1750 C   0  0  0  0  0  0  0  0  0  0  0  0
   23.7300   10.2700   31.5560 C   0  0  0  0  0  0  0  0  0  0  0  0
   23.1060    9.3560   32.3780 C   0  0  0  0  0  0  0  0  0  0  0  0
   22.3150    8.3540   31.8550 C   0  0  0  0  0  0  0  0  0  0  0  0
   22.1830    8.3150   30.4720 C   0  0  0  0  0  0  0  0  0  0  0  0
   22.8110    9.2330   29.6590 C   0  0  0  0  0  0  0  0  0  0  0  0
   24.7360   11.5410   32.2550 Cl  0  0  0  0  0  0  0  0  0  0  0  0
   27.1140   11.2860   27.0110 N   0  0  0  0  0  4  0  0  0  0  0  0
   28.3370   11.5450   27.7200 C   0  0  0  0  0  0  0  0  0  0  0  0
   28.7440   12.9790   27.7450 C   0  0  0  0  0  0  0  0  0  0  0  0
   28.0050   13.7820   26.7960 N   0  0  0  0  0  0  0  0  0  0  0  0
   27.6990   13.1660   25.5230 C   0  0  0  0  0  0  0  0  0  0  0  0
   27.0960   11.8040   25.6780 C   0  0  0  0  0  0  0  0  0  0  0  0
   27.6340   15.0980   27.1620 C   0  0  0  0  0  0  0  0  0  0  0  0
   28.2600   15.7200   28.0470 O   0  0  0  0  0  0  0  0  0  0  0  0
   26.4690   15.6870   26.4390 C   0  0  0  0  0  0  0  0  0  0  0  0
   26.8640   16.2000   25.0870 C   0  0  0  0  0  0  0  0  0  0  0  0
   25.7260   16.7030   24.3010 C   0  0  0  0  0  0  0  0  0  0  0  0
   25.1080   15.9680   23.5030 O   0  0  0  0  0  0  0  0  0  0  0  0
   25.3310   18.0170   24.4480 O   0  0  0  0  0  0  0  0  0  0  0  0
   24.0800   14.7310   28.4350 C   0  0  0  0  0  0  0  0  0  0  0  0
   23.0040   15.1890   29.1620 C   0  0  0  0  0  0  0  0  0  0  0  0
   22.2190   12.2890   30.6620 H   0  0  0  0  0  0  0  0  0  0  0  0
   23.2110    9.3880   33.4540 H   0  0  0  0  0  0  0  0  0  0  0  0
   21.8200    7.6300   32.4940 H   0  0  0  0  0  0  0  0  0  0  0  0
   21.5700    7.5390   30.0420 H   0  0  0  0  0  0  0  0  0  0  0  0
   22.6600    9.1460   28.5980 H   0  0  0  0  0  0  0  0  0  0  0  0
   27.0260   10.2260   26.9710 H   0  0  0  0  0  0  0  0  0  0  0  0
   28.2290   11.1490   28.7470 H   0  0  0  0  0  0  0  0  0  0  0  0
   29.1310   10.9350   27.2180 H   0  0  0  0  0  0  0  0  0  0  0  0
   29.8250   13.0640   27.4430 H   0  0  0  0  0  0  0  0  0  0  0  0
   28.6530   13.3620   28.7810 H   0  0  0  0  0  0  0  0  0  0  0  0
   27.0620   13.8150   24.8870 H   0  0  0  0  0  0  0  0  0  0  0  0
   28.7010   13.0280   25.0210 H   0  0  0  0  0  0  0  0  0  0  0  0
   27.6350   11.0610   25.0300 H   0  0  0  0  0  0  0  0  0  0  0  0
   26.0350   11.8150   25.3320 H   0  0  0  0  0  0  0  0  0  0  0  0
   25.7170   14.8840   26.2910 H   0  0  0  0  0  0  0  0  0  0  0  0
   25.9740   16.4790   27.0360 H   0  0  0  0  0  0  0  0  0  0  0  0
   27.3050   15.3430   24.5190 H   0  0  0  0  0  0  0  0  0  0  0  0
   27.6610   16.9640   25.1830 H   0  0  0  0  0  0  0  0  0  0  0  0
   24.6060   15.4150   27.8070 H   0  0  0  0  0  0  0  0  0  0  0  0
   22.6510   16.2130   29.1380 H   0  0  0  0  0  0  0  0  0  0  0  0
  2  3  1  0  0  0  0
  2  1  1  0  0  0  0
  3 32  1  0  0  0  0
  4  9  1  0  0  0  0
  4  3  2  0  0  0  0
  5  4  1  0  0  0  0
  6  7  2  0  0  0  0
  6  5  1  0  0  0  0
  7  8  1  0  0  0  0
  8  9  2  0  0  0  0
  9 10  1  0  0  0  0
 10 11  1  0  0  0  0
 11 16  1  0  0  0  0
 11 12  2  0  0  0  0
 12 33  1  0  0  0  0
 13 12  1  0  0  0  0
 13 34  1  0  0  0  0
 14 13  2  0  0  0  0
 15 10  2  0  0  0  0
 15 14  1  0  0  0  0
 17 18  1  0  0  0  0
 17  7  1  0  0  0  0
 18 19  1  0  0  0  0
 18 38  1  0  0  0  0
 19 41  1  0  0  0  0
 20 23  1  0  0  0  0
 20 19  1  0  0  0  0
 21 22  1  0  0  0  0
 21 20  1  0  0  0  0
 22 17  1  0  0  0  0
 23 24  2  0  0  0  0
 25 47  1  0  0  0  0
 25 23  1  0  0  0  0
 26 49  1  0  0  0  0
 26 25  1  0  0  0  0
 27 29  1  0  0  0  0
 27 26  1  0  0  0  0
 28 27  2  0  0  0  0
 30  5  2  0  0  0  0
 30 31  1  0  0  0  0
 31  2  2  0  0  0  0
 35 14  1  0  0  0  0
 36 15  1  0  0  0  0
 37 17  1  0  0  0  0
 39 18  1  0  0  0  0
 40 19  1  0  0  0  0
 42 21  1  0  0  0  0
 43 21  1  0  0  0  0
 44 22  1  0  0  0  0
 45 22  1  0  0  0  0
 46 25  1  0  0  0  0
 48 26  1  0  0  0  0
 50 30  1  0  0  0  0
 51 31  1  0  0  0  0
M  END
>  <Pose>
1

>  <Score>
-6.41

$$$$
