
 OpenBabel03202209553D

 54 57  0  0  0  0  0  0  0  0999 V2000
   19.6540    7.2990   33.2060 B   0  0  0  0  0  0  0  0  0  0  0  0
   21.1330    6.8490   32.0800 C   0  0  0  0  0  0  0  0  0  0  0  0
   22.0200    7.8040   31.6170 C   0  0  0  0  0  0  0  0  0  0  0  0
   23.0940    7.5120   30.8050 C   0  0  0  0  0  0  0  0  0  0  0  0
   23.3230    6.2050   30.4160 C   0  0  0  0  0  0  0  0  0  0  0  0
   24.3700    5.8970   29.6110 N   0  0  0  0  0  0  0  0  0  0  0  0
   25.2270    6.8260   29.1560 C   0  0  0  0  0  0  0  0  0  0  0  0
   25.0070    8.0980   29.5350 N   0  0  0  0  0  0  0  0  0  0  0  0
   23.9770    8.4580   30.3360 C   0  0  0  0  0  0  0  0  0  0  0  0
   23.7840    9.8500   30.7130 C   0  0  0  0  0  0  0  0  0  0  0  0
   22.8190   10.6440   30.1110 C   0  0  0  0  0  0  0  0  0  0  0  0
   22.6390   11.9740   30.4470 C   0  0  0  0  0  0  0  0  0  0  0  0
   23.4760   12.5100   31.4330 C   0  0  0  0  0  0  0  0  0  0  0  0
   24.4450   11.7480   32.0510 C   0  0  0  0  0  0  0  0  0  0  0  0
   24.5860   10.4460   31.6890 C   0  0  0  0  0  0  0  0  0  0  0  0
   21.7840    9.9460   28.8760 Cl  0  0  0  0  0  0  0  0  0  0  0  0
   26.3150    6.4650   28.3130 N   0  0  0  0  0  4  0  0  0  0  0  0
   26.1900    5.0970   27.8620 C   0  0  0  0  0  0  0  0  0  0  0  0
   27.0640    4.9110   26.6620 C   0  0  0  0  0  0  0  0  0  0  0  0
   27.9900    6.0220   26.5860 N   0  0  0  0  0  0  0  0  0  0  0  0
   28.6400    6.4300   27.8190 C   0  0  0  0  0  0  0  0  0  0  0  0
   27.6050    6.6050   28.9380 C   0  0  0  0  0  0  0  0  0  0  0  0
   28.2130    6.6420   25.3460 C   0  0  0  0  0  0  0  0  0  0  0  0
   27.3770    7.4940   24.9570 O   0  0  0  0  0  0  0  0  0  0  0  0
   29.3710    6.3270   24.5050 C   0  0  0  0  0  0  0  0  0  0  0  0
   29.5560    7.3970   23.4690 C   0  0  0  0  0  0  0  0  0  0  0  0
   30.0900    8.6870   24.0530 C   0  0  0  0  0  0  0  0  0  0  0  0
   29.2880    9.8690   23.6780 C   0  0  0  0  0  0  0  0  0  0  0  0
   29.4840   10.3620   22.5420 O   0  0  0  0  0  0  0  0  0  0  0  0
   28.3620   10.3910   24.5680 O   0  0  0  0  0  0  0  0  0  0  0  0
   22.4450    5.2470   30.8730 C   0  0  0  0  0  0  0  0  0  0  0  0
   21.3630    5.5480   31.6910 C   0  0  0  0  0  0  0  0  0  0  0  0
   21.8200    8.8210   31.9220 H   0  0  0  0  0  0  0  0  0  0  0  0
   21.8820   12.5930   29.9740 H   0  0  0  0  0  0  0  0  0  0  0  0
   23.3290   13.5630   31.6940 H   0  0  0  0  0  0  0  0  0  0  0  0
   25.0920   12.1780   32.8230 H   0  0  0  0  0  0  0  0  0  0  0  0
   25.3470    9.8460   32.1660 H   0  0  0  0  0  0  0  0  0  0  0  0
   26.2900    7.1040   27.4910 H   0  0  0  0  0  0  0  0  0  0  0  0
   25.1180    4.9300   27.6320 H   0  0  0  0  0  0  0  0  0  0  0  0
   26.4650    4.4420   28.7160 H   0  0  0  0  0  0  0  0  0  0  0  0
   26.4050    4.8650   25.7690 H   0  0  0  0  0  0  0  0  0  0  0  0
   27.6110    3.9470   26.7200 H   0  0  0  0  0  0  0  0  0  0  0  0
   29.2900    5.5860   28.1270 H   0  0  0  0  0  0  0  0  0  0  0  0
   29.2790    7.3080   27.7060 H   0  0  0  0  0  0  0  0  0  0  0  0
   27.7700    5.8990   29.7590 H   0  0  0  0  0  0  0  0  0  0  0  0
   27.7460    7.6200   29.3310 H   0  0  0  0  0  0  0  0  0  0  0  0
   30.3330    6.2940   25.0940 H   0  0  0  0  0  0  0  0  0  0  0  0
   29.2970    5.3200   24.0460 H   0  0  0  0  0  0  0  0  0  0  0  0
   30.2990    7.0860   22.6900 H   0  0  0  0  0  0  0  0  0  0  0  0
   28.6220    7.6130   22.9300 H   0  0  0  0  0  0  0  0  0  0  0  0
   31.1150    8.8260   23.6580 H   0  0  0  0  0  0  0  0  0  0  0  0
   30.1760    8.5750   25.1640 H   0  0  0  0  0  0  0  0  0  0  0  0
   22.6220    4.2220   30.5700 H   0  0  0  0  0  0  0  0  0  0  0  0
   20.6710    4.8050   32.0550 H   0  0  0  0  0  0  0  0  0  0  0  0
  2  1  1  0  0  0  0
  3 33  1  0  0  0  0
  3  2  2  0  0  0  0
  4  3  1  0  0  0  0
  5  4  2  0  0  0  0
  5 31  1  0  0  0  0
  6  5  1  0  0  0  0
  7  8  1  0  0  0  0
  7  6  2  0  0  0  0
  8  9  2  0  0  0  0
  9 10  1  0  0  0  0
  9  4  1  0  0  0  0
 10 15  1  0  0  0  0
 11 12  1  0  0  0  0
 11 10  2  0  0  0  0
 12 13  2  0  0  0  0
 13 35  1  0  0  0  0
 13 14  1  0  0  0  0
 14 36  1  0  0  0  0
 15 14  2  0  0  0  0
 15 37  1  0  0  0  0
 16 11  1  0  0  0  0
 17 22  1  0  0  0  0
 17  7  1  0  0  0  0
 18 17  1  0  0  0  0
 18 40  1  0  0  0  0
 19 42  1  0  0  0  0
 19 18  1  0  0  0  0
 20 19  1  0  0  0  0
 20 21  1  0  0  0  0
 21 43  1  0  0  0  0
 21 22  1  0  0  0  0
 22 46  1  0  0  0  0
 22 45  1  0  0  0  0
 23 20  1  0  0  0  0
 24 23  2  0  0  0  0
 25 47  1  0  0  0  0
 25 23  1  0  0  0  0
 26 27  1  0  0  0  0
 26 25  1  0  0  0  0
 27 52  1  0  0  0  0
 28 27  1  0  0  0  0
 28 30  1  0  0  0  0
 29 28  2  0  0  0  0
 31 32  2  0  0  0  0
 32 54  1  0  0  0  0
 32  2  1  0  0  0  0
 34 12  1  0  0  0  0
 38 17  1  0  0  0  0
 39 18  1  0  0  0  0
 41 19  1  0  0  0  0
 44 21  1  0  0  0  0
 48 25  1  0  0  0  0
 49 26  1  0  0  0  0
 50 26  1  0  0  0  0
 51 27  1  0  0  0  0
 53 31  1  0  0  0  0
M  END
>  <Pose>
1

>  <Score>
-6.80

$$$$
