
 OpenBabel03202209553D

 41 44  0  0  0  0  0  0  0  0999 V2000
   17.3880    7.9020   33.6190 B   0  0  0  0  0  0  0  0  0  0  0  0
   19.1010    8.5010   33.0500 C   0  0  0  0  0  0  0  0  0  0  0  0
   20.0170    7.6330   32.4930 C   0  0  0  0  0  0  0  0  0  0  0  0
   21.2640    8.0510   32.0740 C   0  0  0  0  0  0  0  0  0  0  0  0
   21.5870    9.3860   32.2280 C   0  0  0  0  0  0  0  0  0  0  0  0
   22.8370    9.5110   31.7460 N   0  0  0  0  0  0  0  0  0  0  0  0
   23.3090    8.3210   31.3000 C   0  0  0  0  0  0  0  0  0  0  0  0
   22.3220    7.3800   31.5000 C   0  0  0  0  0  0  0  0  0  0  0  0
   22.5640    6.1070   31.1300 N   0  0  0  0  0  0  0  0  0  0  0  0
   23.7330    5.7350   30.5750 C   0  0  0  0  0  0  0  0  0  0  0  0
   24.7100    6.6280   30.3680 N   0  0  0  0  0  0  0  0  0  0  0  0
   24.4890    7.9000   30.7300 C   0  0  0  0  0  0  0  0  0  0  0  0
   25.3940    8.7520   30.5430 O   0  0  0  0  0  0  0  0  0  0  0  0
   25.9920    6.2270   29.7630 C   0  0  0  0  0  0  0  0  0  0  0  0
   25.9820    6.4910   28.3060 C   0  0  0  0  0  0  0  0  0  0  0  0
   27.2170    6.3580   27.6230 N   0  0  0  0  0  0  0  0  0  0  0  0
   27.8540    7.5780   27.2690 C   0  0  0  0  0  0  0  0  0  0  0  0
   27.5780    8.0110   25.8570 C   0  0  0  0  0  0  0  0  0  0  0  0
   27.5120    6.8960   24.9370 N   0  0  0  0  0  0  0  0  0  0  0  0
   28.1160    5.7050   25.5090 C   0  0  0  0  0  0  0  0  0  0  0  0
   27.2470    5.3030   26.6750 C   0  0  0  0  0  0  0  0  0  0  0  0
   20.6600   10.2450   32.7880 C   0  0  0  0  0  0  0  0  0  0  0  0
   19.4110    9.8360   33.2100 C   0  0  0  0  0  0  0  0  0  0  0  0
   19.7740    6.5840   32.3680 H   0  0  0  0  0  0  0  0  0  0  0  0
   23.3890   10.3890   31.7100 H   0  0  0  0  0  0  0  0  0  0  0  0
   23.9120    4.7010   30.2810 H   0  0  0  0  0  0  0  0  0  0  0  0
   26.0740    5.1380   29.9780 H   0  0  0  0  0  0  0  0  0  0  0  0
   26.7640    6.7300   30.3380 H   0  0  0  0  0  0  0  0  0  0  0  0
   25.2240    5.8520   27.8120 H   0  0  0  0  0  0  0  0  0  0  0  0
   25.6270    7.5510   28.1500 H   0  0  0  0  0  0  0  0  0  0  0  0
   27.5880    8.3930   27.9690 H   0  0  0  0  0  0  0  0  0  0  0  0
   28.9530    7.4310   27.3470 H   0  0  0  0  0  0  0  0  0  0  0  0
   28.3350    8.7250   25.4750 H   0  0  0  0  0  0  0  0  0  0  0  0
   26.5980    8.5260   25.8180 H   0  0  0  0  0  0  0  0  0  0  0  0
   26.5350    6.7030   24.6180 H   0  0  0  0  0  0  0  0  0  0  0  0
   29.1160    5.9760   25.8760 H   0  0  0  0  0  0  0  0  0  0  0  0
   28.1230    4.9480   24.6990 H   0  0  0  0  0  0  0  0  0  0  0  0
   27.7260    4.4200   27.1850 H   0  0  0  0  0  0  0  0  0  0  0  0
   26.2480    4.9930   26.3060 H   0  0  0  0  0  0  0  0  0  0  0  0
   20.9160   11.2970   32.9090 H   0  0  0  0  0  0  0  0  0  0  0  0
   18.6800   10.5180   33.6510 H   0  0  0  0  0  0  0  0  0  0  0  0
  2 23  1  0  0  0  0
  2  1  1  0  0  0  0
  3  2  2  0  0  0  0
  4  5  2  0  0  0  0
  4  3  1  0  0  0  0
  5 22  1  0  0  0  0
  6  5  1  0  0  0  0
  7  8  2  0  0  0  0
  7  6  1  0  0  0  0
  8  4  1  0  0  0  0
  9  8  1  0  0  0  0
 10  9  2  0  0  0  0
 11 10  1  0  0  0  0
 11 12  1  0  0  0  0
 12  7  1  0  0  0  0
 13 12  2  0  0  0  0
 14 27  1  0  0  0  0
 14 28  1  0  0  0  0
 14 11  1  0  0  0  0
 15 14  1  0  0  0  0
 16 15  1  0  0  0  0
 17 32  1  0  0  0  0
 17 16  1  0  0  0  0
 17 31  1  0  0  0  0
 18 17  1  0  0  0  0
 19 20  1  0  0  0  0
 19 18  1  0  0  0  0
 20 36  1  0  0  0  0
 20 21  1  0  0  0  0
 21 38  1  0  0  0  0
 21 16  1  0  0  0  0
 22 40  1  0  0  0  0
 22 23  2  0  0  0  0
 23 41  1  0  0  0  0
 24  3  1  0  0  0  0
 25  6  1  0  0  0  0
 26 10  1  0  0  0  0
 29 15  1  0  0  0  0
 30 15  1  0  0  0  0
 33 18  1  0  0  0  0
 34 18  1  0  0  0  0
 35 19  1  0  0  0  0
 37 20  1  0  0  0  0
 39 21  1  0  0  0  0
M  END
>  <Pose>
1

>  <Score>
-6.23

$$$$
