
 OpenBabel03202209553D

 55 58  0  0  0  0  0  0  0  0999 V2000
   24.3640   16.2920   27.1610 B   0  0  0  0  0  0  0  0  0  0  0  0
   24.3060   14.6490   28.0820 C   0  0  0  0  0  0  0  0  0  0  0  0
   23.1790   14.2570   28.7850 C   0  0  0  0  0  0  0  0  0  0  0  0
   23.1180   13.0800   29.4740 C   0  0  0  0  0  0  0  0  0  0  0  0
   22.0860   12.5100   30.1650 N   0  0  0  0  0  0  0  0  0  0  0  0
   22.5110   11.3090   30.5950 C   0  0  0  0  0  0  0  0  0  0  0  0
   23.8610   11.1220   30.1920 C   0  0  0  0  0  0  0  0  0  0  0  0
   24.1860   12.2530   29.4880 C   0  0  0  0  0  0  0  0  0  0  0  0
   25.3350   12.6250   28.7850 C   0  0  0  0  0  0  0  0  0  0  0  0
   25.4100   13.8170   28.0780 C   0  0  0  0  0  0  0  0  0  0  0  0
   26.5480   14.2150   27.3540 O   0  0  0  0  0  0  0  0  0  0  0  0
   24.7860   10.0550   30.5950 C   0  0  0  0  0  0  0  0  0  0  0  0
   25.4230   10.2190   31.6710 O   0  0  0  0  0  0  0  0  0  0  0  0
   25.0060    8.9020   29.9180 O   0  0  0  0  0  0  0  0  0  0  0  0
   25.1580    7.5960   30.3430 C   0  0  0  0  0  0  0  0  0  0  0  0
   24.8690    6.5450   29.2780 C   0  0  0  0  0  0  0  0  0  0  0  0
   21.7770   10.2560   31.2960 C   0  0  0  0  0  0  0  0  0  0  0  0
   21.6920    8.9570   30.7030 N   0  0  0  0  0  4  0  0  0  0  0  0
   20.6900    8.3670   30.0070 C   0  0  0  0  0  0  0  0  0  0  0  0
   20.7260    6.8520   30.3250 C   0  0  0  0  0  0  0  0  0  0  0  0
   22.2000    6.6920   30.6900 C   0  0  0  0  0  0  0  0  0  0  0  0
   22.3610    7.9460   31.5390 C   0  0  0  0  0  0  0  0  0  0  0  0
   20.9130   13.3050   30.5780 C   0  0  0  0  0  0  0  0  0  0  0  0
   21.4960   14.5190   31.3370 C   0  0  0  0  0  0  0  0  0  0  0  0
   20.9070   15.7190   31.0590 C   0  0  0  0  0  0  0  0  0  0  0  0
   21.3750   16.8670   31.7200 C   0  0  0  0  0  0  0  0  0  0  0  0
   22.3880   16.8320   32.6310 C   0  0  0  0  0  0  0  0  0  0  0  0
   22.9550   15.5820   32.8840 C   0  0  0  0  0  0  0  0  0  0  0  0
   22.5010   14.4310   32.2290 C   0  0  0  0  0  0  0  0  0  0  0  0
   22.2970   14.8940   28.7870 H   0  0  0  0  0  0  0  0  0  0  0  0
   26.2000   11.9560   28.7700 H   0  0  0  0  0  0  0  0  0  0  0  0
   27.4270   14.3890   27.8610 H   0  0  0  0  0  0  0  0  0  0  0  0
   26.2470    7.4570   30.6160 H   0  0  0  0  0  0  0  0  0  0  0  0
   24.5570    7.3610   31.2270 H   0  0  0  0  0  0  0  0  0  0  0  0
   25.3160    5.5710   29.5750 H   0  0  0  0  0  0  0  0  0  0  0  0
   23.7850    6.3670   29.1420 H   0  0  0  0  0  0  0  0  0  0  0  0
   25.2880    6.8370   28.2800 H   0  0  0  0  0  0  0  0  0  0  0  0
   22.1910   10.1190   32.3030 H   0  0  0  0  0  0  0  0  0  0  0  0
   20.6780   10.6000   31.3940 H   0  0  0  0  0  0  0  0  0  0  0  0
   22.5720    9.0710   29.9240 H   0  0  0  0  0  0  0  0  0  0  0  0
   20.8830    8.3440   28.8500 H   0  0  0  0  0  0  0  0  0  0  0  0
   19.6530    8.6730   30.0950 H   0  0  0  0  0  0  0  0  0  0  0  0
   20.4120    6.2670   29.4670 H   0  0  0  0  0  0  0  0  0  0  0  0
   20.1640    6.7100   31.2320 H   0  0  0  0  0  0  0  0  0  0  0  0
   22.7590    6.7580   29.7440 H   0  0  0  0  0  0  0  0  0  0  0  0
   22.3850    5.7690   31.2160 H   0  0  0  0  0  0  0  0  0  0  0  0
   21.7810    7.8150   32.4600 H   0  0  0  0  0  0  0  0  0  0  0  0
   23.4140    8.1940   31.7390 H   0  0  0  0  0  0  0  0  0  0  0  0
   20.2040   12.8550   31.2150 H   0  0  0  0  0  0  0  0  0  0  0  0
   20.4770   13.7520   29.6760 H   0  0  0  0  0  0  0  0  0  0  0  0
   20.0940   15.8170   30.3550 H   0  0  0  0  0  0  0  0  0  0  0  0
   20.9310   17.8380   31.5160 H   0  0  0  0  0  0  0  0  0  0  0  0
   22.7400   17.7270   33.1380 H   0  0  0  0  0  0  0  0  0  0  0  0
   23.7400   15.5270   33.6070 H   0  0  0  0  0  0  0  0  0  0  0  0
   22.9670   13.5050   32.4510 H   0  0  0  0  0  0  0  0  0  0  0  0
  1  2  1  0  0  0  0
  2  3  1  0  0  0  0
  3 30  1  0  0  0  0
  3  4  2  0  0  0  0
  4  8  1  0  0  0  0
  4  5  1  0  0  0  0
  5 23  1  0  0  0  0
  5  6  1  0  0  0  0
  6 17  1  0  0  0  0
  7 12  1  0  0  0  0
  7  6  2  0  0  0  0
  8  7  1  0  0  0  0
  9  8  2  0  0  0  0
 10  2  2  0  0  0  0
 10  9  1  0  0  0  0
 11 32  1  0  0  0  0
 11 10  1  0  0  0  0
 12 13  2  0  0  0  0
 14 15  1  0  0  0  0
 14 12  1  0  0  0  0
 15 33  1  0  0  0  0
 15 34  1  0  0  0  0
 16 35  1  0  0  0  0
 16 15  1  0  0  0  0
 17 39  1  0  0  0  0
 17 38  1  0  0  0  0
 18 17  1  0  0  0  0
 18 22  1  0  0  0  0
 19 42  1  0  0  0  0
 19 20  1  0  0  0  0
 19 18  1  0  0  0  0
 20 21  1  0  0  0  0
 20 44  1  0  0  0  0
 21 46  1  0  0  0  0
 21 22  1  0  0  0  0
 22 48  1  0  0  0  0
 22 47  1  0  0  0  0
 23 49  1  0  0  0  0
 23 24  1  0  0  0  0
 24 29  1  0  0  0  0
 25 24  2  0  0  0  0
 25 26  1  0  0  0  0
 26 27  2  0  0  0  0
 27 28  1  0  0  0  0
 27 53  1  0  0  0  0
 28 54  1  0  0  0  0
 29 55  1  0  0  0  0
 29 28  2  0  0  0  0
 31  9  1  0  0  0  0
 36 16  1  0  0  0  0
 37 16  1  0  0  0  0
 40 18  1  0  0  0  0
 41 19  1  0  0  0  0
 43 20  1  0  0  0  0
 45 21  1  0  0  0  0
 50 23  1  0  0  0  0
 51 25  1  0  0  0  0
 52 26  1  0  0  0  0
M  END
>  <Pose>
1

>  <Score>
-5.24

$$$$
