
 OpenBabel03202209553D

 51 54  0  0  0  0  0  0  0  0999 V2000
   27.5550    4.5360   30.4540 B   0  0  0  0  0  0  0  0  0  0  0  0
   25.9660    3.8180   31.2520 C   0  0  0  0  0  0  0  0  0  0  0  0
   25.9400    2.4870   31.6010 C   0  0  0  0  0  0  0  0  0  0  0  0
   24.8170    1.9360   32.1660 C   0  0  0  0  0  0  0  0  0  0  0  0
   24.4570    0.7180   32.6130 N   0  0  0  0  0  0  0  0  0  0  0  0
   23.1970    0.7440   33.0850 C   0  0  0  0  0  0  0  0  0  0  0  0
   22.7840    2.0130   32.9180 N   0  0  0  0  0  0  0  0  0  0  0  0
   23.7510    2.7690   32.3580 C   0  0  0  0  0  0  0  0  0  0  0  0
   23.7720    4.1260   32.0060 C   0  0  0  0  0  0  0  0  0  0  0  0
   24.8970    4.6810   31.4390 C   0  0  0  0  0  0  0  0  0  0  0  0
   25.0330    6.0340   31.0570 N   0  0  0  0  0  0  0  0  0  0  0  0
   24.1960    6.7700   30.2100 C   0  0  0  0  0  0  0  0  0  0  0  0
   23.0040    6.4120   30.0310 O   0  0  0  0  0  0  0  0  0  0  0  0
   24.6170    7.9750   29.4870 C   0  0  0  0  0  0  0  0  0  0  0  0
   24.3550    9.2290   30.0730 N   0  0  0  0  0  0  0  0  0  0  0  0
   23.8070    9.2590   31.3810 C   0  0  0  0  0  0  0  0  0  0  0  0
   23.1510   10.6020   31.7020 C   0  0  0  0  0  0  0  0  0  0  0  0
   24.0940   11.6110   31.4670 N   0  0  0  0  0  0  0  0  0  0  0  0
   25.3280   11.2640   30.8780 C   0  0  0  0  0  0  0  0  0  0  0  0
   25.2820   10.2640   29.7630 C   0  0  0  0  0  0  0  0  0  0  0  0
   23.6100   12.9130   31.3750 C   0  0  0  0  0  0  0  0  0  0  0  0
   22.9820   13.3440   30.1250 C   0  0  0  0  0  0  0  0  0  0  0  0
   23.6230   13.0210   29.0510 O   0  0  0  0  0  0  0  0  0  0  0  0
   21.7950   14.0470   29.9580 N   0  0  0  0  0  0  0  0  0  0  0  0
   20.9270   14.4300   31.0680 C   0  0  0  0  0  0  0  0  0  0  0  0
   20.6210   15.8440   31.3360 C   0  0  0  0  0  0  0  0  0  0  0  0
   19.5490   14.9570   30.7310 C   0  0  0  0  0  0  0  0  0  0  0  0
   22.4790   -0.3370   33.6340 O   0  0  0  0  0  0  0  0  0  0  0  0
   26.7910    1.8390   31.4430 H   0  0  0  0  0  0  0  0  0  0  0  0
   21.8300    2.3820   33.1860 H   0  0  0  0  0  0  0  0  0  0  0  0
   22.9030    4.7140   32.1840 H   0  0  0  0  0  0  0  0  0  0  0  0
   25.8540    6.5820   31.4600 H   0  0  0  0  0  0  0  0  0  0  0  0
   25.7420    7.8790   29.3770 H   0  0  0  0  0  0  0  0  0  0  0  0
   24.2340    8.0000   28.4370 H   0  0  0  0  0  0  0  0  0  0  0  0
   24.6990    9.2320   32.0900 H   0  0  0  0  0  0  0  0  0  0  0  0
   23.2060    8.3970   31.6350 H   0  0  0  0  0  0  0  0  0  0  0  0
   22.9350   10.5620   32.8030 H   0  0  0  0  0  0  0  0  0  0  0  0
   22.2570   10.7090   31.1060 H   0  0  0  0  0  0  0  0  0  0  0  0
   25.9230   12.1680   30.6060 H   0  0  0  0  0  0  0  0  0  0  0  0
   25.9500   10.7760   31.6910 H   0  0  0  0  0  0  0  0  0  0  0  0
   25.1030   10.7380   28.7710 H   0  0  0  0  0  0  0  0  0  0  0  0
   26.2990    9.8000   29.6950 H   0  0  0  0  0  0  0  0  0  0  0  0
   22.8650   13.0530   32.2380 H   0  0  0  0  0  0  0  0  0  0  0  0
   24.4180   13.6660   31.6960 H   0  0  0  0  0  0  0  0  0  0  0  0
   21.4840   14.3390   29.0090 H   0  0  0  0  0  0  0  0  0  0  0  0
   20.9270   13.7460   31.9390 H   0  0  0  0  0  0  0  0  0  0  0  0
   20.4010   16.1790   32.3800 H   0  0  0  0  0  0  0  0  0  0  0  0
   20.9510   16.6660   30.7010 H   0  0  0  0  0  0  0  0  0  0  0  0
   19.2670   15.1330   29.6700 H   0  0  0  0  0  0  0  0  0  0  0  0
   18.6820   14.6530   31.3660 H   0  0  0  0  0  0  0  0  0  0  0  0
   21.7510   -0.7310   33.0250 H   0  0  0  0  0  0  0  0  0  0  0  0
  1  2  1  0  0  0  0
  2 10  2  0  0  0  0
  2  3  1  0  0  0  0
  3  4  2  0  0  0  0
  4  8  1  0  0  0  0
  4  5  1  0  0  0  0
  5  6  2  0  0  0  0
  6 28  1  0  0  0  0
  7  6  1  0  0  0  0
  7 30  1  0  0  0  0
  8  7  1  0  0  0  0
  9 31  1  0  0  0  0
  9  8  2  0  0  0  0
 10  9  1  0  0  0  0
 11 10  1  0  0  0  0
 11 32  1  0  0  0  0
 12 11  1  0  0  0  0
 13 12  2  0  0  0  0
 14 15  1  0  0  0  0
 14 12  1  0  0  0  0
 15 16  1  0  0  0  0
 16 36  1  0  0  0  0
 16 17  1  0  0  0  0
 16 35  1  0  0  0  0
 17 37  1  0  0  0  0
 18 17  1  0  0  0  0
 19 18  1  0  0  0  0
 19 40  1  0  0  0  0
 20 15  1  0  0  0  0
 20 19  1  0  0  0  0
 21 18  1  0  0  0  0
 21 44  1  0  0  0  0
 21 43  1  0  0  0  0
 22 21  1  0  0  0  0
 23 22  2  0  0  0  0
 24 22  1  0  0  0  0
 24 25  1  0  0  0  0
 25 26  1  0  0  0  0
 25 46  1  0  0  0  0
 26 47  1  0  0  0  0
 27 25  1  0  0  0  0
 27 26  1  0  0  0  0
 27 50  1  0  0  0  0
 29  3  1  0  0  0  0
 33 14  1  0  0  0  0
 34 14  1  0  0  0  0
 38 17  1  0  0  0  0
 39 19  1  0  0  0  0
 41 20  1  0  0  0  0
 42 20  1  0  0  0  0
 45 24  1  0  0  0  0
 48 26  1  0  0  0  0
 49 27  1  0  0  0  0
 51 28  1  0  0  0  0
M  END
>  <Pose>
1

>  <Score>
-7.39

$$$$
