
 OpenBabel03202209553D

 43 46  0  0  1  0  0  0  0  0999 V2000
   25.7720   17.3530   24.7210 B   0  0  0  0  0  0  0  0  0  0  0  0
   24.7140   16.8770   26.2450 C   0  0  0  0  0  0  0  0  0  0  0  0
   23.6990   17.7150   26.7020 C   0  0  0  0  0  0  0  0  0  0  0  0
   22.9840   17.3040   27.8030 C   0  0  0  0  0  0  0  0  0  0  0  0
   21.9670   17.8540   28.4890 N   0  0  0  0  0  0  0  0  0  0  0  0
   21.6190   17.0530   29.4920 N   0  0  0  0  0  0  0  0  0  0  0  0
   22.3800   15.9500   29.5150 C   0  0  0  0  0  0  0  0  0  0  0  0
   23.2570   16.1160   28.4250 C   0  0  0  0  0  0  0  0  0  0  0  0
   24.2500   15.2860   27.9840 C   0  0  0  0  0  0  0  0  0  0  0  0
   24.9780   15.6760   26.8880 C   0  0  0  0  0  0  0  0  0  0  0  0
   22.3680   14.8490   30.3910 N   0  0  0  0  0  0  0  0  0  0  0  0
   22.8350   13.5120   29.9620 C   0  0  0  0  0  0  0  0  0  0  0  0
   21.8470   12.5740   30.6380 C   0  0  2  0  0  0  0  0  0  0  0  0
   21.5210   13.3020   31.9250 C   0  0  0  0  0  0  0  0  0  0  0  0
   21.9380   14.7160   31.7440 C   0  0  0  0  0  0  0  0  0  0  0  0
   21.9240   15.6200   32.5910 O   0  0  0  0  0  0  0  0  0  0  0  0
   22.5700   11.3060   30.8190 C   0  0  0  0  0  0  0  0  0  0  0  0
   23.1850   11.0550   31.8820 O   0  0  0  0  0  0  0  0  0  0  0  0
   22.5520   10.3670   29.7530 N   0  0  0  0  0  0  0  0  0  0  0  0
   21.9740    9.0500   29.9090 C   0  0  0  0  0  0  0  0  0  0  0  0
   22.7710    8.1710   30.8500 C   0  0  0  0  0  0  0  0  0  0  0  0
   21.9950    6.9750   31.2330 C   0  0  0  0  0  0  0  0  0  0  0  0
   20.8510    7.0190   31.9340 N   0  0  0  0  0  0  0  0  0  0  0  0
   20.3820    5.7850   32.1220 C   0  0  0  0  0  0  0  0  0  0  0  0
   21.2470    4.9200   31.5270 N   0  0  0  0  0  0  0  0  0  0  0  0
   22.2240    5.6560   30.9880 C   0  0  0  0  0  0  0  0  0  0  0  0
   23.5420   18.6320   26.1640 H   0  0  0  0  0  0  0  0  0  0  0  0
   20.8520   17.2860   30.1530 H   0  0  0  0  0  0  0  0  0  0  0  0
   24.4310   14.3490   28.5090 H   0  0  0  0  0  0  0  0  0  0  0  0
   25.7670   15.0430   26.5140 H   0  0  0  0  0  0  0  0  0  0  0  0
   22.7860   13.4400   28.8810 H   0  0  0  0  0  0  0  0  0  0  0  0
   23.8650   13.3970   30.3160 H   0  0  0  0  0  0  0  0  0  0  0  0
   20.9600   12.4000   30.0190 H   0  0  0  0  0  0  0  0  0  0  0  0
   20.3900   13.3460   31.9750 H   0  0  0  0  0  0  0  0  0  0  0  0
   21.8720   12.8260   32.8330 H   0  0  0  0  0  0  0  0  0  0  0  0
   22.9730   10.6480   28.8450 H   0  0  0  0  0  0  0  0  0  0  0  0
   20.9620    9.1510   30.3230 H   0  0  0  0  0  0  0  0  0  0  0  0
   21.8850    8.5370   28.9270 H   0  0  0  0  0  0  0  0  0  0  0  0
   23.6650    7.8330   30.2910 H   0  0  0  0  0  0  0  0  0  0  0  0
   23.1740    8.7360   31.7210 H   0  0  0  0  0  0  0  0  0  0  0  0
   19.4800    5.5240   32.6490 H   0  0  0  0  0  0  0  0  0  0  0  0
   21.0990    3.8850   31.5360 H   0  0  0  0  0  0  0  0  0  0  0  0
   23.0540    5.2370   30.4460 H   0  0  0  0  0  0  0  0  0  0  0  0
  1  2  1  0  0  0  0
  2  3  2  0  0  0  0
  2 10  1  0  0  0  0
  3  4  1  0  0  0  0
  4  8  1  0  0  0  0
  4  5  2  0  0  0  0
  5  6  1  0  0  0  0
  6  7  1  0  0  0  0
  6 28  1  0  0  0  0
  7 11  1  0  0  0  0
  8  7  2  0  0  0  0
  9  8  1  0  0  0  0
  9 29  1  0  0  0  0
 10  9  2  0  0  0  0
 11 15  1  0  0  0  0
 12 32  1  0  0  0  0
 12 11  1  0  0  0  0
 12 13  1  0  0  0  0
 13 33  1  6  0  0  0
 13 17  1  0  0  0  0
 13 14  1  0  0  0  0
 14 34  1  0  0  0  0
 14 35  1  0  0  0  0
 15 14  1  0  0  0  0
 15 16  2  0  0  0  0
 17 18  2  0  0  0  0
 19 20  1  0  0  0  0
 19 17  1  0  0  0  0
 20 37  1  0  0  0  0
 20 21  1  0  0  0  0
 21 22  1  0  0  0  0
 21 40  1  0  0  0  0
 22 23  1  0  0  0  0
 23 24  2  0  0  0  0
 24 41  1  0  0  0  0
 25 42  1  0  0  0  0
 25 24  1  0  0  0  0
 26 22  2  0  0  0  0
 26 25  1  0  0  0  0
 27  3  1  0  0  0  0
 30 10  1  0  0  0  0
 31 12  1  0  0  0  0
 36 19  1  0  0  0  0
 38 20  1  0  0  0  0
 39 21  1  0  0  0  0
 43 26  1  0  0  0  0
M  END
>  <Pose>
1

>  <Score>
-7.96

$$$$
