
 OpenBabel03202209553D

 58 61  0  0  0  0  0  0  0  0999 V2000
   21.2910    5.6870   31.8540 B   0  0  0  0  0  0  0  0  0  0  0  0
   20.0790    7.0460   32.4750 C   0  0  0  0  0  0  0  0  0  0  0  0
   18.8040    6.8650   32.9370 C   0  0  0  0  0  0  0  0  0  0  0  0
   18.3270    8.0710   33.2610 N   0  0  0  0  0  0  0  0  0  0  0  0
   19.2440    8.9700   33.0190 N   0  0  0  0  0  0  0  0  0  0  0  0
   20.3840    8.4100   32.5200 C   0  0  0  0  0  0  0  0  0  0  0  0
   21.6150    9.0490   32.1290 C   0  0  0  0  0  0  0  0  0  0  0  0
   22.6540    8.7110   32.8030 O   0  0  0  0  0  0  0  0  0  0  0  0
   21.7800    9.9670   31.1250 N   0  0  0  0  0  0  0  0  0  0  0  0
   21.9920   11.3700   31.3000 C   0  0  0  0  0  0  0  0  0  0  0  0
   23.4090   11.6890   30.9490 C   0  0  0  0  0  0  0  0  0  0  0  0
   23.9480   10.7390   29.9860 N   0  0  0  0  0  0  0  0  0  0  0  0
   23.1340    9.9480   29.1250 C   0  0  0  0  0  0  0  0  0  0  0  0
   21.7730    9.5690   29.7030 C   0  0  0  0  0  0  0  0  0  0  0  0
   25.3790   10.6300   30.0280 C   0  0  0  0  0  0  0  0  0  0  0  0
   26.0250   11.6220   30.5680 O   0  0  0  0  0  0  0  0  0  0  0  0
   26.1270    9.5280   29.5310 C   0  0  0  0  0  0  0  0  0  0  0  0
   27.4050    9.6550   29.0040 N   0  0  0  0  0  0  0  0  0  0  0  0
   27.8180    8.5080   28.5750 N   0  0  0  0  0  0  0  0  0  0  0  0
   26.9030    7.5620   28.7640 C   0  0  0  0  0  0  0  0  0  0  0  0
   25.8190    8.2210   29.3780 C   0  0  0  0  0  0  0  0  0  0  0  0
   26.9580    6.1450   28.4540 C   0  0  0  0  0  0  0  0  0  0  0  0
   27.2120    5.8380   27.2350 O   0  0  0  0  0  0  0  0  0  0  0  0
   26.7590    5.1130   29.3590 N   0  0  0  0  0  0  0  0  0  0  0  0
   25.4120    4.5450   29.4700 C   0  0  0  0  0  0  0  0  0  0  0  0
   25.0600    4.6050   30.9420 C   0  0  0  0  0  0  0  0  0  0  0  0
   25.9440    3.7100   31.5730 O   0  0  0  0  0  0  0  0  0  0  0  0
   27.2060    4.2360   31.5890 C   0  0  0  0  0  0  0  0  0  0  0  0
   27.7680    4.5700   30.2130 C   0  0  0  0  0  0  0  0  0  0  0  0
   28.1700   10.8780   28.9440 C   0  0  0  0  0  0  0  0  0  0  0  0
   16.9800    8.2500   33.7870 C   0  0  0  0  0  0  0  0  0  0  0  0
   16.9630    8.8720   35.1580 C   0  0  0  0  0  0  0  0  0  0  0  0
   18.2930    5.9060   33.0150 H   0  0  0  0  0  0  0  0  0  0  0  0
   21.3570   11.9170   30.5360 H   0  0  0  0  0  0  0  0  0  0  0  0
   21.7950   11.7670   32.3090 H   0  0  0  0  0  0  0  0  0  0  0  0
   24.0800   11.6330   31.8530 H   0  0  0  0  0  0  0  0  0  0  0  0
   23.4210   12.7240   30.5300 H   0  0  0  0  0  0  0  0  0  0  0  0
   23.6540    8.9320   29.0910 H   0  0  0  0  0  0  0  0  0  0  0  0
   23.0130   10.2900   28.1010 H   0  0  0  0  0  0  0  0  0  0  0  0
   21.5140    8.5230   29.6010 H   0  0  0  0  0  0  0  0  0  0  0  0
   21.0240   10.2040   29.2110 H   0  0  0  0  0  0  0  0  0  0  0  0
   24.9140    7.7080   29.6240 H   0  0  0  0  0  0  0  0  0  0  0  0
   25.5030    3.4940   29.1210 H   0  0  0  0  0  0  0  0  0  0  0  0
   24.6720    5.0910   28.8810 H   0  0  0  0  0  0  0  0  0  0  0  0
   25.2600    5.6190   31.3170 H   0  0  0  0  0  0  0  0  0  0  0  0
   24.0120    4.2680   31.1030 H   0  0  0  0  0  0  0  0  0  0  0  0
   27.2040    5.1740   32.1850 H   0  0  0  0  0  0  0  0  0  0  0  0
   27.8860    3.5430   32.1150 H   0  0  0  0  0  0  0  0  0  0  0  0
   28.5530    5.3300   30.3860 H   0  0  0  0  0  0  0  0  0  0  0  0
   28.1890    3.6570   29.7740 H   0  0  0  0  0  0  0  0  0  0  0  0
   27.8290   11.5460   28.1510 H   0  0  0  0  0  0  0  0  0  0  0  0
   28.1700   11.3870   29.9360 H   0  0  0  0  0  0  0  0  0  0  0  0
   29.2300   10.6320   28.7410 H   0  0  0  0  0  0  0  0  0  0  0  0
   16.3620    8.8720   33.0990 H   0  0  0  0  0  0  0  0  0  0  0  0
   16.4620    7.2640   33.8540 H   0  0  0  0  0  0  0  0  0  0  0  0
   17.7540    9.6490   35.2430 H   0  0  0  0  0  0  0  0  0  0  0  0
   15.9890    9.3920   35.2810 H   0  0  0  0  0  0  0  0  0  0  0  0
   17.0300    8.0830   35.9290 H   0  0  0  0  0  0  0  0  0  0  0  0
  1  2  1  0  0  0  0
  2  6  1  0  0  0  0
  2  3  2  0  0  0  0
  3 33  1  0  0  0  0
  3  4  1  0  0  0  0
  4 31  1  0  0  0  0
  5  4  1  0  0  0  0
  6  5  2  0  0  0  0
  7  6  1  0  0  0  0
  7  8  2  0  0  0  0
  9 10  1  0  0  0  0
  9  7  1  0  0  0  0
 10 35  1  0  0  0  0
 11 10  1  0  0  0  0
 11 36  1  0  0  0  0
 12 15  1  0  0  0  0
 12 11  1  0  0  0  0
 13 14  1  0  0  0  0
 13 12  1  0  0  0  0
 14  9  1  0  0  0  0
 15 16  2  0  0  0  0
 17 15  1  0  0  0  0
 18 17  1  0  0  0  0
 19 20  2  0  0  0  0
 19 18  1  0  0  0  0
 20 21  1  0  0  0  0
 21 17  2  0  0  0  0
 21 42  1  0  0  0  0
 22 20  1  0  0  0  0
 22 24  1  0  0  0  0
 23 22  2  0  0  0  0
 24 25  1  0  0  0  0
 24 29  1  0  0  0  0
 25 26  1  0  0  0  0
 26 46  1  0  0  0  0
 26 45  1  0  0  0  0
 26 27  1  0  0  0  0
 27 28  1  0  0  0  0
 28 48  1  0  0  0  0
 28 47  1  0  0  0  0
 29 49  1  0  0  0  0
 29 28  1  0  0  0  0
 30 18  1  0  0  0  0
 30 52  1  0  0  0  0
 31 55  1  0  0  0  0
 31 32  1  0  0  0  0
 32 56  1  0  0  0  0
 32 57  1  0  0  0  0
 32 58  1  0  0  0  0
 34 10  1  0  0  0  0
 37 11  1  0  0  0  0
 38 13  1  0  0  0  0
 39 13  1  0  0  0  0
 40 14  1  0  0  0  0
 41 14  1  0  0  0  0
 43 25  1  0  0  0  0
 44 25  1  0  0  0  0
 50 29  1  0  0  0  0
 51 30  1  0  0  0  0
 53 30  1  0  0  0  0
 54 31  1  0  0  0  0
M  END
>  <Pose>
1

>  <Score>
-6.37

$$$$
