
 OpenBabel03202209553D

 47 50  0  0  0  0  0  0  0  0999 V2000
   23.5790    2.3390   33.0930 B   0  0  0  0  0  0  0  0  0  0  0  0
   24.5900    2.7340   31.5230 C   0  0  0  0  0  0  0  0  0  0  0  0
   25.1330    3.9430   31.1530 C   0  0  0  0  0  0  0  0  0  0  0  0
   25.7600    3.7770   29.9930 N   0  0  0  0  0  0  0  0  0  0  0  0
   25.6180    2.5010   29.6410 N   0  0  0  0  0  0  0  0  0  0  0  0
   24.9070    1.8160   30.5480 C   0  0  0  0  0  0  0  0  0  0  0  0
   26.4860    4.7980   29.2130 C   0  0  0  0  0  0  0  0  0  0  0  0
   25.4610    5.5710   28.4620 C   0  0  0  0  0  0  0  0  0  0  0  0
   25.4710    5.4740   27.1930 O   0  0  0  0  0  0  0  0  0  0  0  0
   24.5400    6.3570   29.1200 N   0  0  0  0  0  0  0  0  0  0  0  0
   24.7570    7.4070   30.0980 C   0  0  0  0  0  0  0  0  0  0  0  0
   23.5050    7.9450   30.6710 C   0  0  0  0  0  0  0  0  0  0  0  0
   22.5230    7.1370   31.1850 C   0  0  0  0  0  0  0  0  0  0  0  0
   21.3790    7.6700   31.7520 C   0  0  0  0  0  0  0  0  0  0  0  0
   21.1900    9.0320   31.8180 C   0  0  0  0  0  0  0  0  0  0  0  0
   22.1910    9.8730   31.2950 C   0  0  0  0  0  0  0  0  0  0  0  0
   23.3230    9.3450   30.7330 C   0  0  0  0  0  0  0  0  0  0  0  0
   24.3530   10.2300   30.1830 C   0  0  0  0  0  0  0  0  0  0  0  0
   24.3800   11.6270   30.6610 C   0  0  0  0  0  0  0  0  0  0  0  0
   23.0630   12.1770   30.9570 N   0  0  0  0  0  0  0  0  0  0  0  0
   22.0300   11.3180   31.4200 C   0  0  0  0  0  0  0  0  0  0  0  0
   20.9880   11.8280   31.9340 O   0  0  0  0  0  0  0  0  0  0  0  0
   22.8940   13.6000   30.7740 C   0  0  0  0  0  0  0  0  0  0  0  0
   20.0590    9.6010   32.3760 O   0  0  0  0  0  0  0  0  0  0  0  0
   19.5630    9.1690   33.6250 C   0  0  0  0  0  0  0  0  0  0  0  0
   20.6090    6.5990   32.1610 O   0  0  0  0  0  0  0  0  0  0  0  0
   21.1580    5.3910   31.7010 C   0  0  0  0  0  0  0  0  0  0  0  0
   22.4660    5.7260   31.2440 O   0  0  0  0  0  0  0  0  0  0  0  0
   25.0350    4.8560   31.7440 H   0  0  0  0  0  0  0  0  0  0  0  0
   24.6160    0.7790   30.5660 H   0  0  0  0  0  0  0  0  0  0  0  0
   27.1630    4.2530   28.5100 H   0  0  0  0  0  0  0  0  0  0  0  0
   27.0880    5.4480   29.8460 H   0  0  0  0  0  0  0  0  0  0  0  0
   23.5050    6.1950   28.9090 H   0  0  0  0  0  0  0  0  0  0  0  0
   25.1870    8.2380   29.4430 H   0  0  0  0  0  0  0  0  0  0  0  0
   25.5210    7.1730   30.8430 H   0  0  0  0  0  0  0  0  0  0  0  0
   24.4180   10.1970   29.0740 H   0  0  0  0  0  0  0  0  0  0  0  0
   25.3470    9.7820   30.5090 H   0  0  0  0  0  0  0  0  0  0  0  0
   24.9710   11.7020   31.6210 H   0  0  0  0  0  0  0  0  0  0  0  0
   24.9240   12.2580   29.9050 H   0  0  0  0  0  0  0  0  0  0  0  0
   23.8480   14.1120   31.0450 H   0  0  0  0  0  0  0  0  0  0  0  0
   22.7050   13.7780   29.7000 H   0  0  0  0  0  0  0  0  0  0  0  0
   22.0350   14.0120   31.3370 H   0  0  0  0  0  0  0  0  0  0  0  0
   19.7990    8.0710   33.7040 H   0  0  0  0  0  0  0  0  0  0  0  0
   18.4630    9.2830   33.7050 H   0  0  0  0  0  0  0  0  0  0  0  0
   20.0410    9.7190   34.4800 H   0  0  0  0  0  0  0  0  0  0  0  0
   20.6090    4.9630   30.8320 H   0  0  0  0  0  0  0  0  0  0  0  0
   21.3010    4.6660   32.5320 H   0  0  0  0  0  0  0  0  0  0  0  0
  2  1  1  0  0  0  0
  3  2  2  0  0  0  0
  3 29  1  0  0  0  0
  4  3  1  0  0  0  0
  5  4  1  0  0  0  0
  5  6  2  0  0  0  0
  6 30  1  0  0  0  0
  6  2  1  0  0  0  0
  7 32  1  0  0  0  0
  7  4  1  0  0  0  0
  8 10  1  0  0  0  0
  8  7  1  0  0  0  0
  9  8  2  0  0  0  0
 10 11  1  0  0  0  0
 11 12  1  0  0  0  0
 11 35  1  0  0  0  0
 12 17  2  0  0  0  0
 12 13  1  0  0  0  0
 13 28  1  0  0  0  0
 13 14  2  0  0  0  0
 14 15  1  0  0  0  0
 14 26  1  0  0  0  0
 15 24  1  0  0  0  0
 16 21  1  0  0  0  0
 16 15  2  0  0  0  0
 17 16  1  0  0  0  0
 18 37  1  0  0  0  0
 18 19  1  0  0  0  0
 18 17  1  0  0  0  0
 19 20  1  0  0  0  0
 19 38  1  0  0  0  0
 20 21  1  0  0  0  0
 21 22  2  0  0  0  0
 23 20  1  0  0  0  0
 23 40  1  0  0  0  0
 23 42  1  0  0  0  0
 24 25  1  0  0  0  0
 25 43  1  0  0  0  0
 25 44  1  0  0  0  0
 25 45  1  0  0  0  0
 27 26  1  0  0  0  0
 27 47  1  0  0  0  0
 28 27  1  0  0  0  0
 31  7  1  0  0  0  0
 33 10  1  0  0  0  0
 34 11  1  0  0  0  0
 36 18  1  0  0  0  0
 39 19  1  0  0  0  0
 41 23  1  0  0  0  0
 46 27  1  0  0  0  0
M  END
>  <Pose>
1

>  <Score>
-6.68

$$$$
