
 OpenBabel03202209553D

 33 37  0  0  0  0  0  0  0  0999 V2000
   23.6710    2.9270   32.6340 B   0  0  0  0  0  0  0  0  0  0  0  0
   23.1170    4.3530   31.5200 C   0  0  0  0  0  0  0  0  0  0  0  0
   23.9340    5.2300   30.8370 C   0  0  0  0  0  0  0  0  0  0  0  0
   23.1550    6.0920   30.1620 N   0  0  0  0  0  0  0  0  0  0  0  0
   21.8920    5.7850   30.4000 N   0  0  0  0  0  0  0  0  0  0  0  0
   21.8220    4.7200   31.2300 C   0  0  0  0  0  0  0  0  0  0  0  0
   23.6100    7.1760   29.3170 C   0  0  0  0  0  0  0  0  0  0  0  0
   23.9370    8.3680   30.1030 N   0  0  0  0  0  0  0  0  0  0  0  0
   23.2070    9.4680   30.1630 N   0  0  0  0  0  0  0  0  0  0  0  0
   23.7740   10.3810   30.9700 C   0  0  0  0  0  0  0  0  0  0  0  0
   24.9320    9.7930   31.4330 C   0  0  0  0  0  0  0  0  0  0  0  0
   25.0250    8.5210   30.8770 C   0  0  0  0  0  0  0  0  0  0  0  0
   23.2880   11.7190   31.3020 C   0  0  0  0  0  0  0  0  0  0  0  0
   23.9370   12.6430   32.0280 N   0  0  0  0  0  0  0  0  0  0  0  0
   23.1980   13.7480   32.1340 N   0  0  0  0  0  0  0  0  0  0  0  0
   22.0350   13.5260   31.4550 C   0  0  0  0  0  0  0  0  0  0  0  0
   22.1170   12.2780   30.9560 N   0  0  0  0  0  0  0  0  0  0  0  0
   21.0960   14.5350   31.4190 C   0  0  0  0  0  0  0  0  0  0  0  0
   21.2870   15.7550   32.0420 C   0  0  0  0  0  0  0  0  0  0  0  0
   20.2080   16.5290   31.8350 N   0  0  0  0  0  0  0  0  0  0  0  0
   19.3580   15.8260   31.1050 N   0  0  0  0  0  0  0  0  0  0  0  0
   19.8620   14.6050   30.8300 C   0  0  0  0  0  0  0  0  0  0  0  0
   22.4460   15.9270   32.6980 N   0  0  0  0  0  0  0  0  0  0  0  0
   23.3580   14.9420   32.7310 C   0  0  0  0  0  0  0  0  0  0  0  0
   25.0030    5.1970   30.8650 H   0  0  0  0  0  0  0  0  0  0  0  0
   20.9440    4.2370   31.6070 H   0  0  0  0  0  0  0  0  0  0  0  0
   22.8470    7.4640   28.5580 H   0  0  0  0  0  0  0  0  0  0  0  0
   24.5140    6.8630   28.7180 H   0  0  0  0  0  0  0  0  0  0  0  0
   25.6290   10.2620   32.1080 H   0  0  0  0  0  0  0  0  0  0  0  0
   25.8020    7.7840   31.0230 H   0  0  0  0  0  0  0  0  0  0  0  0
   20.0440   17.5020   32.1730 H   0  0  0  0  0  0  0  0  0  0  0  0
   19.4050   13.7970   30.2520 H   0  0  0  0  0  0  0  0  0  0  0  0
   24.2780   15.1190   33.2690 H   0  0  0  0  0  0  0  0  0  0  0  0
  2  1  1  0  0  0  0
  3 25  1  0  0  0  0
  3  2  2  0  0  0  0
  4  5  1  0  0  0  0
  4  3  1  0  0  0  0
  5  6  2  0  0  0  0
  6  2  1  0  0  0  0
  6 26  1  0  0  0  0
  7  8  1  0  0  0  0
  7  4  1  0  0  0  0
  8  9  1  0  0  0  0
  8 12  1  0  0  0  0
  9 10  2  0  0  0  0
 10 13  1  0  0  0  0
 10 11  1  0  0  0  0
 11 29  1  0  0  0  0
 12 30  1  0  0  0  0
 12 11  2  0  0  0  0
 13 14  2  0  0  0  0
 14 15  1  0  0  0  0
 15 24  1  0  0  0  0
 16 15  1  0  0  0  0
 17 13  1  0  0  0  0
 17 16  2  0  0  0  0
 18 16  1  0  0  0  0
 18 19  2  0  0  0  0
 19 23  1  0  0  0  0
 20 19  1  0  0  0  0
 20 31  1  0  0  0  0
 21 20  1  0  0  0  0
 22 21  2  0  0  0  0
 22 18  1  0  0  0  0
 23 24  2  0  0  0  0
 24 33  1  0  0  0  0
 27  7  1  0  0  0  0
 28  7  1  0  0  0  0
 32 22  1  0  0  0  0
M  END
>  <Pose>
1

>  <Score>
-7.64

$$$$
