
 OpenBabel03202209553D

 42 45  0  0  0  0  0  0  0  0999 V2000
   24.3100   18.9850   25.5140 B   0  0  0  0  0  0  0  0  0  0  0  0
   23.3700   18.2110   27.0060 C   0  0  0  0  0  0  0  0  0  0  0  0
   23.4450   16.9130   27.4590 C   0  0  0  0  0  0  0  0  0  0  0  0
   22.6360   16.7640   28.5240 N   0  0  0  0  0  0  0  0  0  0  0  0
   22.0710   17.9340   28.7320 N   0  0  0  0  0  0  0  0  0  0  0  0
   22.4780   18.8410   27.8460 C   0  0  0  0  0  0  0  0  0  0  0  0
   22.4030   15.6000   29.3030 C   0  0  0  0  0  0  0  0  0  0  0  0
   22.8370   14.3700   28.8750 C   0  0  0  0  0  0  0  0  0  0  0  0
   22.6250   13.2320   29.6060 C   0  0  0  0  0  0  0  0  0  0  0  0
   21.9520   13.2360   30.8460 C   0  0  0  0  0  0  0  0  0  0  0  0
   21.5220   14.4740   31.2630 C   0  0  0  0  0  0  0  0  0  0  0  0
   21.7460   15.6330   30.5040 C   0  0  0  0  0  0  0  0  0  0  0  0
   21.7330   11.9850   31.5350 C   0  0  0  0  0  0  0  0  0  0  0  0
   20.8940   12.0590   32.5190 O   0  0  0  0  0  0  0  0  0  0  0  0
   22.2790   10.7340   31.3050 N   0  0  0  0  0  0  0  0  0  0  0  0
   22.3220    9.9160   30.1230 C   0  0  0  0  0  0  0  0  0  0  0  0
   23.7000   10.0850   29.5140 C   0  0  0  0  0  0  0  0  0  0  0  0
   24.7500   10.1830   30.6020 C   0  0  0  0  0  0  0  0  0  0  0  0
   25.9130    9.4570   30.1410 N   0  0  0  0  0  0  0  0  0  0  0  0
   26.6870   10.3360   29.3390 C   0  0  0  0  0  0  0  0  0  0  0  0
   27.5700   10.0350   28.4720 O   0  0  0  0  0  0  0  0  0  0  0  0
   26.2860   11.6700   29.6880 N   0  0  0  0  0  0  0  0  0  0  0  0
   25.2670   11.5610   30.7050 C   0  0  0  0  0  0  0  0  0  0  0  0
   24.9420   12.4870   31.4790 O   0  0  0  0  0  0  0  0  0  0  0  0
   24.3130    9.6000   31.9070 C   0  0  0  0  0  0  0  0  0  0  0  0
   23.0110   10.0910   32.4420 C   0  0  0  0  0  0  0  0  0  0  0  0
   24.0590   16.1350   27.0230 H   0  0  0  0  0  0  0  0  0  0  0  0
   22.1980   19.8990   27.7480 H   0  0  0  0  0  0  0  0  0  0  0  0
   23.3600   14.3590   27.9130 H   0  0  0  0  0  0  0  0  0  0  0  0
   22.9820   12.2880   29.2370 H   0  0  0  0  0  0  0  0  0  0  0  0
   20.9760   14.5610   32.1860 H   0  0  0  0  0  0  0  0  0  0  0  0
   21.3910   16.5890   30.8690 H   0  0  0  0  0  0  0  0  0  0  0  0
   22.3600    8.8140   30.4940 H   0  0  0  0  0  0  0  0  0  0  0  0
   21.4880    9.9400   29.4530 H   0  0  0  0  0  0  0  0  0  0  0  0
   23.9240    9.2660   28.8300 H   0  0  0  0  0  0  0  0  0  0  0  0
   23.7060   11.0330   28.9530 H   0  0  0  0  0  0  0  0  0  0  0  0
   26.1740    8.4710   30.3360 H   0  0  0  0  0  0  0  0  0  0  0  0
   26.6310   12.5800   29.3120 H   0  0  0  0  0  0  0  0  0  0  0  0
   25.1030    9.8970   32.6580 H   0  0  0  0  0  0  0  0  0  0  0  0
   24.3600    8.4850   31.8910 H   0  0  0  0  0  0  0  0  0  0  0  0
   22.3730    9.2260   32.7160 H   0  0  0  0  0  0  0  0  0  0  0  0
   23.0710   10.7670   33.2970 H   0  0  0  0  0  0  0  0  0  0  0  0
  1  2  1  0  0  0  0
  2  3  2  0  0  0  0
  2  6  1  0  0  0  0
  3  4  1  0  0  0  0
  4  5  1  0  0  0  0
  4  7  1  0  0  0  0
  6  5  2  0  0  0  0
  7 12  1  0  0  0  0
  8  7  2  0  0  0  0
  8  9  1  0  0  0  0
  9 10  2  0  0  0  0
 10 11  1  0  0  0  0
 10 13  1  0  0  0  0
 11 31  1  0  0  0  0
 12 32  1  0  0  0  0
 12 11  2  0  0  0  0
 13 14  2  0  0  0  0
 15 13  1  0  0  0  0
 15 26  1  0  0  0  0
 16 33  1  0  0  0  0
 16 15  1  0  0  0  0
 17 16  1  0  0  0  0
 17 18  1  0  0  0  0
 18 23  1  0  0  0  0
 18 25  1  0  0  0  0
 19 37  1  0  0  0  0
 19 18  1  0  0  0  0
 20 22  1  0  0  0  0
 20 19  1  0  0  0  0
 21 20  2  0  0  0  0
 22 23  1  0  0  0  0
 23 24  2  0  0  0  0
 25 26  1  0  0  0  0
 25 39  1  0  0  0  0
 26 41  1  0  0  0  0
 26 42  1  0  0  0  0
 27  3  1  0  0  0  0
 28  6  1  0  0  0  0
 29  8  1  0  0  0  0
 30  9  1  0  0  0  0
 34 16  1  0  0  0  0
 35 17  1  0  0  0  0
 36 17  1  0  0  0  0
 38 22  1  0  0  0  0
 40 25  1  0  0  0  0
M  END
>  <Pose>
1

>  <Score>
-6.36

$$$$
