
 OpenBabel03202209553D

 43 46  0  0  0  0  0  0  0  0999 V2000
   21.9500   16.3320   31.8930 B   0  0  0  0  0  0  0  0  0  0  0  0
   22.5200   14.7310   31.0220 C   0  0  0  0  0  0  0  0  0  0  0  0
   22.4760   14.6280   29.6670 C   0  0  0  0  0  0  0  0  0  0  0  0
   22.8700   13.5170   29.0460 N   0  0  0  0  0  0  0  0  0  0  0  0
   23.3200   12.4780   29.7640 C   0  0  0  0  0  0  0  0  0  0  0  0
   23.3870   12.5280   31.1520 C   0  0  0  0  0  0  0  0  0  0  0  0
   22.9820   13.6720   31.8020 C   0  0  0  0  0  0  0  0  0  0  0  0
   23.8900   11.3660   31.8450 C   0  0  0  0  0  0  0  0  0  0  0  0
   25.1020   11.2430   32.0870 O   0  0  0  0  0  0  0  0  0  0  0  0
   22.9730   10.2930   32.2830 N   0  0  0  0  0  0  0  0  0  0  0  0
   22.4620    9.4840   31.2660 C   0  0  0  0  0  0  0  0  0  0  0  0
   22.5630    8.0420   31.2010 C   0  0  0  0  0  0  0  0  0  0  0  0
   21.3920    7.4090   31.7510 C   0  0  0  0  0  0  0  0  0  0  0  0
   21.3100    6.0650   31.7870 C   0  0  0  0  0  0  0  0  0  0  0  0
   22.3530    5.2590   31.2960 C   0  0  0  0  0  0  0  0  0  0  0  0
   23.4760    5.8460   30.7660 C   0  0  0  0  0  0  0  0  0  0  0  0
   23.5720    7.2460   30.7200 C   0  0  0  0  0  0  0  0  0  0  0  0
   24.7360    7.8970   30.0650 C   0  0  0  0  0  0  0  0  0  0  0  0
   25.5160    6.9680   29.1410 C   0  0  0  0  0  0  0  0  0  0  0  0
   25.7670    5.6870   29.7590 N   0  0  0  0  0  0  0  0  0  0  0  0
   24.5940    5.0440   30.2770 C   0  0  0  0  0  0  0  0  0  0  0  0
   24.5980    3.7960   30.2800 O   0  0  0  0  0  0  0  0  0  0  0  0
   27.0890    5.1040   29.8480 C   0  0  0  0  0  0  0  0  0  0  0  0
   22.1950    3.9250   31.3690 O   0  0  0  0  0  0  0  0  0  0  0  0
   20.0730    5.7420   32.3670 O   0  0  0  0  0  0  0  0  0  0  0  0
   19.4890    6.8990   32.9270 C   0  0  0  0  0  0  0  0  0  0  0  0
   20.2210    7.9360   32.3030 O   0  0  0  0  0  0  0  0  0  0  0  0
   22.1170   15.4450   29.0190 H   0  0  0  0  0  0  0  0  0  0  0  0
   23.6510   11.5560   29.2930 H   0  0  0  0  0  0  0  0  0  0  0  0
   23.0240   13.7430   32.8750 H   0  0  0  0  0  0  0  0  0  0  0  0
   22.8180   10.3270   33.3010 H   0  0  0  0  0  0  0  0  0  0  0  0
   21.3300    9.7700   31.1660 H   0  0  0  0  0  0  0  0  0  0  0  0
   22.8040    9.9390   30.2430 H   0  0  0  0  0  0  0  0  0  0  0  0
   25.4690    8.3050   30.7680 H   0  0  0  0  0  0  0  0  0  0  0  0
   24.3960    8.6980   29.3650 H   0  0  0  0  0  0  0  0  0  0  0  0
   26.4680    7.5100   28.9170 H   0  0  0  0  0  0  0  0  0  0  0  0
   24.8990    6.8490   28.2230 H   0  0  0  0  0  0  0  0  0  0  0  0
   27.6180    5.6480   30.6690 H   0  0  0  0  0  0  0  0  0  0  0  0
   27.6480    5.2840   28.9120 H   0  0  0  0  0  0  0  0  0  0  0  0
   27.0110    4.0490   30.1380 H   0  0  0  0  0  0  0  0  0  0  0  0
   21.4490    3.3840   31.6420 H   0  0  0  0  0  0  0  0  0  0  0  0
   18.4030    6.9650   32.7060 H   0  0  0  0  0  0  0  0  0  0  0  0
   19.6510    6.8550   34.0150 H   0  0  0  0  0  0  0  0  0  0  0  0
  2  7  1  0  0  0  0
  2  1  1  0  0  0  0
  3  2  2  0  0  0  0
  4  3  1  0  0  0  0
  4  5  2  0  0  0  0
  5  6  1  0  0  0  0
  6  7  2  0  0  0  0
  6  8  1  0  0  0  0
  7 30  1  0  0  0  0
  8  9  2  0  0  0  0
  8 10  1  0  0  0  0
 10 31  1  0  0  0  0
 11 10  1  0  0  0  0
 12 11  1  0  0  0  0
 12 13  1  0  0  0  0
 13 14  2  0  0  0  0
 13 27  1  0  0  0  0
 14 25  1  0  0  0  0
 15 24  1  0  0  0  0
 15 14  1  0  0  0  0
 16 15  2  0  0  0  0
 17 16  1  0  0  0  0
 17 12  2  0  0  0  0
 18 17  1  0  0  0  0
 18 34  1  0  0  0  0
 19 20  1  0  0  0  0
 19 18  1  0  0  0  0
 20 23  1  0  0  0  0
 20 21  1  0  0  0  0
 21 22  2  0  0  0  0
 21 16  1  0  0  0  0
 23 40  1  0  0  0  0
 23 38  1  0  0  0  0
 24 41  1  0  0  0  0
 25 26  1  0  0  0  0
 26 43  1  0  0  0  0
 27 26  1  0  0  0  0
 28  3  1  0  0  0  0
 29  5  1  0  0  0  0
 32 11  1  0  0  0  0
 33 11  1  0  0  0  0
 35 18  1  0  0  0  0
 36 19  1  0  0  0  0
 37 19  1  0  0  0  0
 39 23  1  0  0  0  0
 42 26  1  0  0  0  0
M  END
>  <Pose>
1

>  <Score>
-7.43

$$$$
