
 OpenBabel03202209553D

 40 43  0  0  1  0  0  0  0  0999 V2000
   17.5740    7.3460   33.4570 B   0  0  0  0  0  0  0  0  0  0  0  0
   19.3490    7.6290   32.8300 C   0  0  0  0  0  0  0  0  0  0  0  0
   19.9060    8.8810   32.9350 C   0  0  0  0  0  0  0  0  0  0  0  0
   21.1710    9.1000   32.4940 N   0  0  0  0  0  0  0  0  0  0  0  0
   21.8930    8.1150   31.9510 C   0  0  0  0  0  0  0  0  0  0  0  0
   21.4060    6.8090   31.8030 C   0  0  0  0  0  0  0  0  0  0  0  0
   20.1220    6.6270   32.2640 C   0  0  0  0  0  0  0  0  0  0  0  0
   22.2360    5.7800   31.2240 C   0  0  0  0  0  0  0  0  0  0  0  0
   21.8850    4.5740   31.4980 O   0  0  0  0  0  0  0  0  0  0  0  0
   23.3680    5.9530   30.4060 N   0  0  0  0  0  0  0  0  0  0  0  0
   23.8250    6.7890   29.3400 C   0  0  0  0  0  0  0  0  0  0  0  0
   25.2570    6.5140   29.8310 C   0  0  0  0  0  0  0  0  0  0  0  0
   24.6580    5.2420   30.2970 C   0  0  0  0  0  0  0  0  0  0  0  0
   26.1920    6.4490   28.7420 N   0  0  0  0  0  0  0  0  0  0  0  0
   26.2520    5.4880   27.6710 C   0  0  0  0  0  0  0  0  0  0  0  0
   25.2840    4.8270   27.2560 O   0  0  0  0  0  0  0  0  0  0  0  0
   27.6830    5.4870   27.2110 C   0  0  1  0  0  0  0  0  0  0  0  0
   27.9930    6.9620   27.3070 C   0  0  2  0  0  0  0  0  0  0  0  0
   29.4750    7.2040   27.3910 C   0  0  0  0  0  0  0  0  0  0  0  0
   30.0280    6.5070   28.5820 C   0  0  0  0  0  0  0  0  0  0  0  0
   29.5210    5.3310   28.8950 C   0  0  0  0  0  0  0  0  0  0  0  0
   28.4480    4.6380   28.1680 C   0  0  0  0  0  0  0  0  0  0  0  0
   27.2630    7.3610   28.5260 C   0  0  0  0  0  0  0  0  0  0  0  0
   27.5810    8.3550   29.2240 O   0  0  0  0  0  0  0  0  0  0  0  0
   19.3150    9.6740   33.3760 H   0  0  0  0  0  0  0  0  0  0  0  0
   22.8920    8.3360   31.6140 H   0  0  0  0  0  0  0  0  0  0  0  0
   19.6710    5.6690   32.2020 H   0  0  0  0  0  0  0  0  0  0  0  0
   23.6790    7.8870   29.4310 H   0  0  0  0  0  0  0  0  0  0  0  0
   23.6320    6.3930   28.3110 H   0  0  0  0  0  0  0  0  0  0  0  0
   25.5190    7.1770   30.6620 H   0  0  0  0  0  0  0  0  0  0  0  0
   24.5330    4.4450   29.5370 H   0  0  0  0  0  0  0  0  0  0  0  0
   25.0000    4.8390   31.2670 H   0  0  0  0  0  0  0  0  0  0  0  0
   27.7590    5.1230   26.1670 H   0  0  0  0  0  0  0  0  0  0  0  0
   27.6110    7.4570   26.3920 H   0  0  0  0  0  0  0  0  0  0  0  0
   29.6560    8.2870   27.4020 H   0  0  0  0  0  0  0  0  0  0  0  0
   29.9280    6.7440   26.4840 H   0  0  0  0  0  0  0  0  0  0  0  0
   30.8270    6.9960   29.1450 H   0  0  0  0  0  0  0  0  0  0  0  0
   29.9350    4.8240   29.7750 H   0  0  0  0  0  0  0  0  0  0  0  0
   27.7850    4.1570   28.9430 H   0  0  0  0  0  0  0  0  0  0  0  0
   28.9130    3.7810   27.6360 H   0  0  0  0  0  0  0  0  0  0  0  0
  2  3  1  0  0  0  0
  2  1  1  0  0  0  0
  3 25  1  0  0  0  0
  4  3  2  0  0  0  0
  5  4  1  0  0  0  0
  6  5  2  0  0  0  0
  6  7  1  0  0  0  0
  7  2  2  0  0  0  0
  8  9  2  0  0  0  0
  8  6  1  0  0  0  0
 10  8  1  0  0  0  0
 11 28  1  0  0  0  0
 11 12  1  0  0  0  0
 11 10  1  0  0  0  0
 12 13  1  0  0  0  0
 12 30  1  0  0  0  0
 13 10  1  0  0  0  0
 13 32  1  0  0  0  0
 14 12  1  0  0  0  0
 15 14  1  0  0  0  0
 16 15  2  0  0  0  0
 17 33  1  6  0  0  0
 17 18  1  0  0  0  0
 17 15  1  0  0  0  0
 17 22  1  0  0  0  0
 18 34  1  6  0  0  0
 18 19  1  0  0  0  0
 18 23  1  0  0  0  0
 19 35  1  0  0  0  0
 19 20  1  0  0  0  0
 20 21  2  0  0  0  0
 20 37  1  0  0  0  0
 21 38  1  0  0  0  0
 22 21  1  0  0  0  0
 22 39  1  0  0  0  0
 23 14  1  0  0  0  0
 23 24  2  0  0  0  0
 26  5  1  0  0  0  0
 27  7  1  0  0  0  0
 29 11  1  0  0  0  0
 31 13  1  0  0  0  0
 36 19  1  0  0  0  0
 40 22  1  0  0  0  0
M  END
>  <Pose>
1

>  <Score>
-5.83

$$$$
