
 OpenBabel03202209553D

 37 40  0  0  1  0  0  0  0  0999 V2000
   27.6270    1.5590   27.5550 B   0  0  0  0  0  0  0  0  0  0  0  0
   27.3070    3.0260   28.7550 C   0  0  0  0  0  0  0  0  0  0  0  0
   28.2390    3.2900   29.7320 C   0  0  0  0  0  0  0  0  0  0  0  0
   27.9940    4.3160   30.5550 N   0  0  0  0  0  0  0  0  0  0  0  0
   26.8710    5.0850   30.4500 C   0  0  0  0  0  0  0  0  0  0  0  0
   25.9070    4.8720   29.4980 C   0  0  0  0  0  0  0  0  0  0  0  0
   26.1740    3.7910   28.6370 C   0  0  0  0  0  0  0  0  0  0  0  0
   24.6910    5.6260   29.3220 C   0  0  0  0  0  0  0  0  0  0  0  0
   24.6200    6.4200   28.3330 O   0  0  0  0  0  0  0  0  0  0  0  0
   23.5920    5.5290   30.1840 N   0  0  0  0  0  0  0  0  0  0  0  0
   23.0980    4.7340   31.2760 C   0  0  0  0  0  0  0  0  0  0  0  0
   21.7380    5.4130   31.2410 C   0  0  0  0  0  0  0  0  0  0  0  0
   22.3800    6.3670   30.2810 C   0  0  0  0  0  0  0  0  0  0  0  0
   21.2730    5.9590   32.4350 O   0  0  0  0  0  0  0  0  0  0  0  0
   20.7180    7.2110   32.5960 C   0  0  2  0  0  0  0  0  0  0  0  0
   21.4750    8.2940   32.4390 C   0  0  0  0  0  0  0  0  0  0  0  0
   20.9470    9.6440   32.5950 C   0  0  0  0  0  0  0  0  0  0  0  0
   21.7270   10.6980   32.4310 C   0  0  0  0  0  0  0  0  0  0  0  0
   19.5720    9.7770   32.9280 N   0  0  0  0  0  0  0  0  0  0  0  0
   18.7800    8.5900   33.0910 C   0  0  0  0  0  0  0  0  0  0  0  0
   19.3260    7.3760   32.9340 N   0  0  0  0  0  0  0  0  0  0  0  0
   18.3840    6.4510   33.1440 N   0  0  0  0  0  0  0  0  0  0  0  0
   17.2520    7.1020   33.4330 C   0  0  0  0  0  0  0  0  0  0  0  0
   17.4920    8.4160   33.4010 N   0  0  0  0  0  0  0  0  0  0  0  0
   29.1510    2.6830   29.8360 H   0  0  0  0  0  0  0  0  0  0  0  0
   26.7210    5.9130   31.1380 H   0  0  0  0  0  0  0  0  0  0  0  0
   25.4520    3.5700   27.8640 H   0  0  0  0  0  0  0  0  0  0  0  0
   22.9670    3.6460   31.0340 H   0  0  0  0  0  0  0  0  0  0  0  0
   23.6790    4.9230   32.1870 H   0  0  0  0  0  0  0  0  0  0  0  0
   20.9540    4.7560   30.7820 H   0  0  0  0  0  0  0  0  0  0  0  0
   22.6720    7.3280   30.7000 H   0  0  0  0  0  0  0  0  0  0  0  0
   21.8440    6.4660   29.3290 H   0  0  0  0  0  0  0  0  0  0  0  0
   22.5360    8.1420   32.1900 H   0  0  0  0  0  0  0  0  0  0  0  0
   21.3060   11.6730   32.5530 H   0  0  0  0  0  0  0  0  0  0  0  0
   22.7540   10.5930   32.1820 H   0  0  0  0  0  0  0  0  0  0  0  0
   19.1870   10.7300   33.0400 H   0  0  0  0  0  0  0  0  0  0  0  0
   16.2700    6.6680   33.6630 H   0  0  0  0  0  0  0  0  0  0  0  0
  1  2  1  0  0  0  0
  2  3  1  0  0  0  0
  3 25  1  0  0  0  0
  3  4  2  0  0  0  0
  5  4  1  0  0  0  0
  5 26  1  0  0  0  0
  6  5  2  0  0  0  0
  7  2  2  0  0  0  0
  7  6  1  0  0  0  0
  8  6  1  0  0  0  0
  8 10  1  0  0  0  0
  9  8  2  0  0  0  0
 10 13  1  0  0  0  0
 10 11  1  0  0  0  0
 11 29  1  0  0  0  0
 12 11  1  0  0  0  0
 12 14  1  0  0  0  0
 13 31  1  0  0  0  0
 13 12  1  0  0  0  0
 15 14  1  1  0  0  0
 15 21  1  0  0  0  0
 16 17  2  0  0  0  0
 16 15  1  0  0  0  0
 17 19  1  0  0  0  0
 18 34  1  0  0  0  0
 18 17  1  0  0  0  0
 19 36  1  0  0  0  0
 19 20  1  0  0  0  0
 20 24  2  0  0  0  0
 21 20  1  0  0  0  0
 21 22  1  0  0  0  0
 22 23  2  0  0  0  0
 23 37  1  0  0  0  0
 24 23  1  0  0  0  0
 27  7  1  0  0  0  0
 28 11  1  0  0  0  0
 30 12  1  0  0  0  0
 32 13  1  0  0  0  0
 33 16  1  0  0  0  0
 35 18  1  0  0  0  0
M  END
>  <Pose>
1

>  <Score>
-7.10

$$$$
