
 OpenBabel03202209553D

 48 42  0  0  1  0  0  0  0  0999 V2000
   22.5150    9.5730   30.3580 B   0  0  0  0  0  0  0  0  0  0  0  0
   23.7710    8.1680   30.2320 C   0  0  0  0  0  0  0  0  0  0  0  0
   25.0790    8.4450   29.8680 C   0  0  0  0  0  0  0  0  0  0  0  0
   25.9330    7.4140   29.7920 N   0  0  0  0  0  0  0  0  0  0  0  0
   25.5960    6.1400   30.0480 C   0  0  0  0  0  0  0  0  0  0  0  0
   24.2990    5.8740   30.4070 C   0  0  0  0  0  0  0  0  0  0  0  0
   23.3550    6.8830   30.5080 C   0  0  0  0  0  0  0  0  0  0  0  0
   23.8950    4.5070   30.6920 C   0  0  0  0  0  0  0  0  0  0  0  0
   24.6880    3.5460   30.4810 O   0  0  0  0  0  0  0  0  0  0  0  0
   22.6410    4.2160   31.1980 O   0  0  0  0  0  0  0  0  0  0  0  0
   24.9260    8.4630   31.2780 N   0  0  0  0  0  0  0  0  0  0  0  0
   25.5110    8.1170   29.9930 C   0  0  0  0  0  0  0  0  0  0  0  0
   24.5740    7.2820   29.1480 C   0  0  0  0  0  0  0  0  0  0  0  0
   24.7900    5.8070   29.4350 C   0  0  0  0  0  0  0  0  0  0  0  0
   24.1890    5.4250   30.7700 C   0  0  0  0  0  0  0  0  0  0  0  0
   23.3040    6.5050   31.2350 C   0  0  0  0  0  0  0  0  0  0  0  0
   23.6450    7.8190   31.4500 C   0  0  1  0  0  0  0  0  0  0  0  0
   22.7150    8.6770   31.8750 N   0  0  0  0  0  0  0  0  0  0  0  0
   21.4530    8.3030   32.1040 C   0  0  0  0  0  0  0  0  0  0  0  0
   21.0900    6.9970   31.8970 C   0  0  0  0  0  0  0  0  0  0  0  0
   22.0310    6.0880   31.4570 C   0  0  0  0  0  0  0  0  0  0  0  0
   21.6290    4.7250   31.2470 N   0  0  0  0  0  0  0  0  0  0  0  0
   19.7890    6.5540   32.1200 C   0  0  0  0  0  0  0  0  0  0  0  0
   18.8650    7.4690   32.5580 C   0  0  0  0  0  0  0  0  0  0  0  0
   19.2290    8.7770   32.7650 C   0  0  0  0  0  0  0  0  0  0  0  0
   20.5350    9.2100   32.5380 C   0  0  0  0  0  0  0  0  0  0  0  0
   24.6940    9.9030   31.2840 C   0  0  0  0  0  0  0  0  0  0  0  0
   25.3600    9.4640   29.6620 H   0  0  0  0  0  0  0  0  0  0  0  0
   26.3370    5.3680   29.9660 H   0  0  0  0  0  0  0  0  0  0  0  0
   22.3400    6.7080   30.7860 H   0  0  0  0  0  0  0  0  0  0  0  0
   25.5730    8.1990   32.0560 H   0  0  0  0  0  0  0  0  0  0  0  0
   26.4650    7.5760   30.0880 H   0  0  0  0  0  0  0  0  0  0  0  0
   25.7380    9.0350   29.3920 H   0  0  0  0  0  0  0  0  0  0  0  0
   24.8400    7.4320   28.0800 H   0  0  0  0  0  0  0  0  0  0  0  0
   23.5450    7.5990   29.3860 H   0  0  0  0  0  0  0  0  0  0  0  0
   24.3550    5.2270   28.6190 H   0  0  0  0  0  0  0  0  0  0  0  0
   25.8760    5.6310   29.4810 H   0  0  0  0  0  0  0  0  0  0  0  0
   23.6480    4.4630   30.6600 H   0  0  0  0  0  0  0  0  0  0  0  0
   24.9980    5.2160   31.5280 H   0  0  0  0  0  0  0  0  0  0  0  0
   20.9590    4.2820   31.8960 H   0  0  0  0  0  0  0  0  0  0  0  0
   22.0060    4.1690   30.4460 H   0  0  0  0  0  0  0  0  0  0  0  0
   19.5350    5.5210   31.9480 H   0  0  0  0  0  0  0  0  0  0  0  0
   17.8390    7.1690   32.7440 H   0  0  0  0  0  0  0  0  0  0  0  0
   18.5110    9.4970   33.1070 H   0  0  0  0  0  0  0  0  0  0  0  0
   20.8440   10.2330   32.6950 H   0  0  0  0  0  0  0  0  0  0  0  0
   25.5760   10.3800   30.8270 H   0  0  0  0  0  0  0  0  0  0  0  0
   24.4590   10.2610   32.2980 H   0  0  0  0  0  0  0  0  0  0  0  0
   23.8260   10.1050   30.6070 H   0  0  0  0  0  0  0  0  0  0  0  0
  1 18  1  0  0  0  0
  3 12  1  0  0  0  0
  4 12  1  0  0  0  0
  4 32  1  0  0  0  0
  6 15  1  0  0  0  0
  7 16  1  0  0  0  0
  7 17  1  0  0  0  0
  8 15  1  0  0  0  0
  9  8  2  0  0  0  0
 10 22  1  0  0  0  0
 11 27  1  0  0  0  0
 11 17  1  0  0  0  0
 11 31  1  0  0  0  0
 13  4  1  0  0  0  0
 14  5  1  0  0  0  0
 14  6  1  0  0  0  0
 17  2  1  6  0  0  0
 17 18  1  0  0  0  0
 18 19  1  0  0  0  0
 19 26  1  0  0  0  0
 20 19  2  0  0  0  0
 20 23  1  0  0  0  0
 21 20  1  0  0  0  0
 22 21  1  0  0  0  0
 22 40  1  0  0  0  0
 23 24  2  0  0  0  0
 24 43  1  0  0  0  0
 24 25  1  0  0  0  0
 25 44  1  0  0  0  0
 26 45  1  0  0  0  0
 26 25  2  0  0  0  0
 27 47  1  0  0  0  0
 30 21  1  0  0  0  0
 33  3  1  0  0  0  0
 34 13  1  0  0  0  0
 35  2  1  0  0  0  0
 36 14  1  0  0  0  0
 37  5  1  0  0  0  0
 41 10  1  0  0  0  0
 42 23  1  0  0  0  0
 46 27  1  0  0  0  0
 48 27  1  0  0  0  0
M  END
>  <Pose>
1

>  <Score>
-6.87

$$$$
