
 OpenBabel03202209553D

 45 40  0  0  1  0  0  0  0  0999 V2000
   19.2180    6.7030   33.0580 B   0  0  0  0  0  0  0  0  0  0  0  0
   20.8120    7.0210   32.0640 C   0  0  0  0  0  0  0  0  0  0  0  0
   21.6240    5.9940   31.6340 C   0  0  0  0  0  0  0  0  0  0  0  0
   22.7510    6.2110   30.9330 N   0  0  0  0  0  0  0  0  0  0  0  0
   23.0950    7.4740   30.6410 C   0  0  0  0  0  0  0  0  0  0  0  0
   22.3380    8.5550   31.0330 C   0  0  0  0  0  0  0  0  0  0  0  0
   21.1950    8.3050   31.7470 C   0  0  0  0  0  0  0  0  0  0  0  0
   22.7250    9.9220   30.7070 C   0  0  0  0  0  0  0  0  0  0  0  0
   21.9570   10.8700   31.0020 O   0  0  0  0  0  0  0  0  0  0  0  0
   23.9430   10.1280   30.0780 O   0  0  0  0  0  0  0  0  0  0  0  0
   24.8960    7.5840   30.7710 N   0  0  0  0  0  0  0  0  0  0  0  0
   24.9380    6.7450   29.5590 C   0  0  0  0  0  0  0  0  0  0  0  0
   24.9490    5.3100   29.9730 C   0  0  0  0  0  0  0  0  0  0  0  0
   23.6890    5.0040   30.7360 C   0  0  0  0  0  0  0  0  0  0  0  0
   22.9530    6.1900   31.2050 C   0  0  0  0  0  0  0  0  0  0  0  0
   23.5350    7.4380   31.2250 C   0  0  2  0  0  0  0  0  0  0  0  0
   22.8150    8.4680   31.6630 N   0  0  0  0  0  0  0  0  0  0  0  0
   21.5390    8.3610   32.0910 C   0  0  0  0  0  0  0  0  0  0  0  0
   20.9240    7.1260   32.0850 C   0  0  0  0  0  0  0  0  0  0  0  0
   21.6310    6.0310   31.6400 C   0  0  0  0  0  0  0  0  0  0  0  0
   20.9930    4.7590   31.6350 N   0  0  0  0  0  0  0  0  0  0  0  0
   19.6050    7.0110   32.5270 C   0  0  2  0  0  0  0  0  0  0  0  0
   18.8810    8.0930   32.9750 C   0  0  0  0  0  0  0  0  0  0  0  0
   19.5010    9.3260   32.9790 C   0  0  0  0  0  0  0  0  0  0  0  0
   20.8120    9.4420   32.5400 C   0  0  0  0  0  0  0  0  0  0  0  0
   25.1620    8.9370   30.3280 C   0  0  0  0  0  0  0  0  0  0  0  0
   21.3080    4.9770   31.8940 H   0  0  0  0  0  0  0  0  0  0  0  0
   24.0010    7.6390   30.0770 H   0  0  0  0  0  0  0  0  0  0  0  0
   20.5430    9.0990   32.0940 H   0  0  0  0  0  0  0  0  0  0  0  0
   25.5790    7.2490   31.4710 H   0  0  0  0  0  0  0  0  0  0  0  0
   25.8440    6.9540   28.9630 H   0  0  0  0  0  0  0  0  0  0  0  0
   24.0030    6.9810   29.0030 H   0  0  0  0  0  0  0  0  0  0  0  0
   25.0640    4.6650   29.0750 H   0  0  0  0  0  0  0  0  0  0  0  0
   25.8640    5.1630   30.6200 H   0  0  0  0  0  0  0  0  0  0  0  0
   23.0650    4.3570   30.0710 H   0  0  0  0  0  0  0  0  0  0  0  0
   23.9870    4.3340   31.5830 H   0  0  0  0  0  0  0  0  0  0  0  0
   20.8660    4.2980   30.7070 H   0  0  0  0  0  0  0  0  0  0  0  0
   20.6530    4.2660   32.4730 H   0  0  0  0  0  0  0  0  0  0  0  0
   19.1240    6.0520   32.5240 H   0  0  0  0  0  0  0  0  0  0  0  0
   17.8560    7.9600   33.3110 H   0  0  0  0  0  0  0  0  0  0  0  0
   18.9190   10.1660   33.3350 H   0  0  0  0  0  0  0  0  0  0  0  0
   21.2690   10.4250   32.5570 H   0  0  0  0  0  0  0  0  0  0  0  0
   24.2910    9.2800   29.7340 H   0  0  0  0  0  0  0  0  0  0  0  0
   25.3410    9.5920   31.2210 H   0  0  0  0  0  0  0  0  0  0  0  0
   26.0580    8.8870   29.6770 H   0  0  0  0  0  0  0  0  0  0  0  0
  4 20  1  0  0  0  0
  5  4  1  0  0  0  0
  5 16  1  0  0  0  0
  6 17  1  0  0  0  0
  6 18  1  0  0  0  0
  7 19  1  0  0  0  0
  7 18  1  0  0  0  0
  8  9  2  0  0  0  0
  8 17  1  0  0  0  0
 10  8  1  0  0  0  0
 11 30  1  0  0  0  0
 12 13  1  0  0  0  0
 13 34  1  0  0  0  0
 13 14  1  0  0  0  0
 14 15  1  0  0  0  0
 14 36  1  0  0  0  0
 16 15  1  1  0  0  0
 16 17  1  0  0  0  0
 20  2  2  0  0  0  0
 21 27  1  0  0  0  0
 21 38  1  0  0  0  0
 22  2  1  1  0  0  0
 22 23  1  0  0  0  0
 22  1  1  0  0  0  0
 23 24  2  0  0  0  0
 23 40  1  0  0  0  0
 24 41  1  0  0  0  0
 25 42  1  0  0  0  0
 26 11  1  0  0  0  0
 26 44  1  0  0  0  0
 28  5  1  0  0  0  0
 29 25  1  0  0  0  0
 31 12  1  0  0  0  0
 32 12  1  0  0  0  0
 33 13  1  0  0  0  0
 35 14  1  0  0  0  0
 37 21  1  0  0  0  0
 39  1  1  0  0  0  0
 43 10  1  0  0  0  0
 45 26  1  0  0  0  0
M  END
>  <Pose>
1

>  <Score>
-7.80

$$$$
