
 OpenBabel03202209553D

 57 60  0  0  0  0  0  0  0  0999 V2000
   23.5470   15.7500   33.4100 B   0  0  0  0  0  0  0  0  0  0  0  0
   22.3360   14.9950   32.1560 C   0  0  0  0  0  0  0  0  0  0  0  0
   22.7570   13.9600   31.3430 C   0  0  0  0  0  0  0  0  0  0  0  0
   21.9150   13.3600   30.3950 C   0  0  0  0  0  0  0  0  0  0  0  0
   20.6250   13.8120   30.2670 C   0  0  0  0  0  0  0  0  0  0  0  0
   20.1980   14.8460   31.0780 C   0  0  0  0  0  0  0  0  0  0  0  0
   21.0250   15.4360   32.0080 C   0  0  0  0  0  0  0  0  0  0  0  0
   18.4160   15.4970   30.9270 B   0  0  0  0  0  0  0  0  0  0  0  0
   22.4100   12.2800   29.5500 C   0  0  0  0  0  0  0  0  0  0  0  0
   21.7890   12.1010   28.4660 O   0  0  0  0  0  0  0  0  0  0  0  0
   23.5510   11.4520   29.9240 C   0  0  0  0  0  0  0  0  0  0  0  0
   24.1840   12.0370   31.2140 C   0  0  0  0  0  0  0  0  0  0  0  0
   24.0230   13.4000   31.3570 O   0  0  0  0  0  0  0  0  0  0  0  0
   23.2990   10.0540   30.2570 C   0  0  0  0  0  0  0  0  0  0  0  0
   22.2160    9.5490   30.9640 N   0  0  0  0  0  4  0  0  0  0  0  0
   21.8940   10.0440   32.2660 C   0  0  0  0  0  0  0  0  0  0  0  0
   20.3840    9.7620   32.4710 C   0  0  0  0  0  0  0  0  0  0  0  0
   20.2870    8.2670   32.6920 C   0  0  0  0  0  0  0  0  0  0  0  0
   21.5330    7.5490   32.2220 C   0  0  0  0  0  0  0  0  0  0  0  0
   22.0420    8.1040   30.9090 C   0  0  0  0  0  0  0  0  0  0  0  0
   24.5760   11.5380   28.8030 C   0  0  0  0  0  0  0  0  0  0  0  0
   25.7720   12.2460   29.1880 N   0  0  0  0  0  4  0  0  0  0  0  0
   26.2980   12.9090   28.0030 C   0  0  0  0  0  0  0  0  0  0  0  0
   26.4700   11.9010   26.9160 C   0  0  0  0  0  0  0  0  0  0  0  0
   27.2750   10.7080   27.2810 C   0  0  0  0  0  0  0  0  0  0  0  0
   27.1250   10.2370   28.6860 C   0  0  0  0  0  0  0  0  0  0  0  0
   26.8560   11.3880   29.6300 C   0  0  0  0  0  0  0  0  0  0  0  0
   19.9470   13.3560   29.5320 H   0  0  0  0  0  0  0  0  0  0  0  0
   20.6940   16.2460   32.6450 H   0  0  0  0  0  0  0  0  0  0  0  0
   25.2420   11.6920   31.2860 H   0  0  0  0  0  0  0  0  0  0  0  0
   23.6770   11.5150   32.0510 H   0  0  0  0  0  0  0  0  0  0  0  0
   24.2230    9.6280   30.7750 H   0  0  0  0  0  0  0  0  0  0  0  0
   23.3560    9.4900   29.2630 H   0  0  0  0  0  0  0  0  0  0  0  0
   21.3610    9.8900   30.3880 H   0  0  0  0  0  0  0  0  0  0  0  0
   22.0230   11.1290   32.3470 H   0  0  0  0  0  0  0  0  0  0  0  0
   22.3220    9.4610   33.1130 H   0  0  0  0  0  0  0  0  0  0  0  0
   19.8180   10.0780   31.5750 H   0  0  0  0  0  0  0  0  0  0  0  0
   20.0630   10.3330   33.3650 H   0  0  0  0  0  0  0  0  0  0  0  0
   20.2540    8.1220   33.8080 H   0  0  0  0  0  0  0  0  0  0  0  0
   19.3590    7.8320   32.2980 H   0  0  0  0  0  0  0  0  0  0  0  0
   21.1930    6.4960   31.9870 H   0  0  0  0  0  0  0  0  0  0  0  0
   22.3040    7.4330   32.9870 H   0  0  0  0  0  0  0  0  0  0  0  0
   21.2660    7.7910   30.1460 H   0  0  0  0  0  0  0  0  0  0  0  0
   22.9340    7.5510   30.6150 H   0  0  0  0  0  0  0  0  0  0  0  0
   24.7730   10.5550   28.3680 H   0  0  0  0  0  0  0  0  0  0  0  0
   24.0870   12.1630   28.0310 H   0  0  0  0  0  0  0  0  0  0  0  0
   25.5910   12.9120   29.9600 H   0  0  0  0  0  0  0  0  0  0  0  0
   25.6570   13.7240   27.6570 H   0  0  0  0  0  0  0  0  0  0  0  0
   27.3230   13.2770   28.2710 H   0  0  0  0  0  0  0  0  0  0  0  0
   26.9990   12.4320   26.0700 H   0  0  0  0  0  0  0  0  0  0  0  0
   25.5190   11.5540   26.4640 H   0  0  0  0  0  0  0  0  0  0  0  0
   26.9840    9.8450   26.6130 H   0  0  0  0  0  0  0  0  0  0  0  0
   28.3520   10.8980   27.0100 H   0  0  0  0  0  0  0  0  0  0  0  0
   28.1360    9.8340   28.9970 H   0  0  0  0  0  0  0  0  0  0  0  0
   26.4360    9.3860   28.8230 H   0  0  0  0  0  0  0  0  0  0  0  0
   26.8080   11.0700   30.6660 H   0  0  0  0  0  0  0  0  0  0  0  0
   27.7820   12.0360   29.5650 H   0  0  0  0  0  0  0  0  0  0  0  0
  2  1  1  0  0  0  0
  3 13  1  0  0  0  0
  3  2  2  0  0  0  0
  4  3  1  0  0  0  0
  5  4  2  0  0  0  0
  5  6  1  0  0  0  0
  6  7  2  0  0  0  0
  7  2  1  0  0  0  0
  7 29  1  0  0  0  0
  8  6  1  0  0  0  0
  9 11  1  0  0  0  0
  9  4  1  0  0  0  0
 10  9  2  0  0  0  0
 11 14  1  0  0  0  0
 11 12  1  0  0  0  0
 12 30  1  0  0  0  0
 12 13  1  0  0  0  0
 12 31  1  0  0  0  0
 14 32  1  0  0  0  0
 14 15  1  0  0  0  0
 15 16  1  0  0  0  0
 16 35  1  0  0  0  0
 16 17  1  0  0  0  0
 16 36  1  0  0  0  0
 17 18  1  0  0  0  0
 17 38  1  0  0  0  0
 18 39  1  0  0  0  0
 19 18  1  0  0  0  0
 19 42  1  0  0  0  0
 20 15  1  0  0  0  0
 20 19  1  0  0  0  0
 21 22  1  0  0  0  0
 21 11  1  0  0  0  0
 22 27  1  0  0  0  0
 22 47  1  0  0  0  0
 23 49  1  0  0  0  0
 23 22  1  0  0  0  0
 24 25  1  0  0  0  0
 24 23  1  0  0  0  0
 25 26  1  0  0  0  0
 26 55  1  0  0  0  0
 26 54  1  0  0  0  0
 26 27  1  0  0  0  0
 27 56  1  0  0  0  0
 28  5  1  0  0  0  0
 33 14  1  0  0  0  0
 34 15  1  0  0  0  0
 37 17  1  0  0  0  0
 40 18  1  0  0  0  0
 41 19  1  0  0  0  0
 43 20  1  0  0  0  0
 44 20  1  0  0  0  0
 45 21  1  0  0  0  0
 46 21  1  0  0  0  0
 48 23  1  0  0  0  0
 50 24  1  0  0  0  0
 51 24  1  0  0  0  0
 52 25  1  0  0  0  0
 53 25  1  0  0  0  0
 57 27  1  0  0  0  0
M  END
>  <Pose>
1

>  <Score>
-5.92

$$$$
