
 OpenBabel03202209553D

 44 47  0  0  1  0  0  0  0  0999 V2000
   26.8370   13.9640   27.2270 B   0  0  0  0  0  0  0  0  0  0  0  0
   25.7230   12.8430   28.3060 C   0  0  0  0  0  0  0  0  0  0  0  0
   26.0510   11.5280   28.5640 C   0  0  0  0  0  0  0  0  0  0  0  0
   25.2540   10.7080   29.3460 C   0  0  0  0  0  0  0  0  0  0  0  0
   24.1060   11.2730   29.8570 C   0  0  0  0  0  0  0  0  0  0  0  0
   23.7450   12.5810   29.6210 C   0  0  0  0  0  0  0  0  0  0  0  0
   24.5540   13.3880   28.8380 C   0  0  0  0  0  0  0  0  0  0  0  0
   22.1390   13.3040   30.3630 B   0  0  0  0  0  0  0  0  0  0  0  0
   25.8280    9.3760   29.4610 C   0  0  0  0  0  0  0  0  0  0  0  0
   25.4030    8.3440   30.0880 N   0  0  0  0  0  0  0  0  0  0  0  0
   26.0890    7.1260   30.0950 N   0  0  0  0  0  0  0  0  0  0  0  0
   25.4210    5.9850   29.5950 C   0  0  0  0  0  0  0  0  0  0  0  0
   24.9420    5.9870   28.4430 O   0  0  0  0  0  0  0  0  0  0  0  0
   25.2550    4.7360   30.4040 C   0  0  0  0  0  0  0  0  0  0  0  0
   24.3560    4.9280   31.5100 N   0  0  0  0  0  0  0  0  0  0  0  0
   23.1410    4.2040   31.6500 C   0  0  0  0  0  0  0  0  0  0  0  0
   23.1900    3.0500   32.1280 O   0  0  0  0  0  0  0  0  0  0  0  0
   21.8070    4.7480   31.2560 C   0  0  2  0  0  0  0  0  0  0  0  0
   21.8870    6.0820   30.8490 O   0  0  0  0  0  0  0  0  0  0  0  0
   21.3790    7.1650   31.5640 C   0  0  0  0  0  0  0  0  0  0  0  0
   20.4380    6.8910   32.5210 C   0  0  0  0  0  0  0  0  0  0  0  0
   19.9110    7.9560   33.2520 C   0  0  0  0  0  0  0  0  0  0  0  0
   20.3020    9.2590   33.0440 C   0  0  0  0  0  0  0  0  0  0  0  0
   21.2530    9.4970   32.0710 C   0  0  0  0  0  0  0  0  0  0  0  0
   21.7760    8.4500   31.3470 C   0  0  0  0  0  0  0  0  0  0  0  0
   20.0430    5.5990   32.7350 O   0  0  0  0  0  0  0  0  0  0  0  0
   20.7570    4.4840   32.2770 C   0  0  0  0  0  0  0  0  0  0  0  0
   27.0710    9.4120   28.6820 C   0  0  0  0  0  0  0  0  0  0  0  0
   27.8460    8.4270   28.5500 O   0  0  0  0  0  0  0  0  0  0  0  0
   27.1560   10.7250   28.1650 N   0  0  0  0  0  0  0  0  0  0  0  0
   23.4540   10.6750   30.4710 H   0  0  0  0  0  0  0  0  0  0  0  0
   24.2950   14.4030   28.6440 H   0  0  0  0  0  0  0  0  0  0  0  0
   27.0600    7.1250   30.4730 H   0  0  0  0  0  0  0  0  0  0  0  0
   24.8080    3.9910   29.7110 H   0  0  0  0  0  0  0  0  0  0  0  0
   26.2400    4.3300   30.7230 H   0  0  0  0  0  0  0  0  0  0  0  0
   24.5670    5.6180   32.2680 H   0  0  0  0  0  0  0  0  0  0  0  0
   21.5390    4.1650   30.3260 H   0  0  0  0  0  0  0  0  0  0  0  0
   19.1690    7.7150   34.0020 H   0  0  0  0  0  0  0  0  0  0  0  0
   19.8690   10.0540   33.6320 H   0  0  0  0  0  0  0  0  0  0  0  0
   21.5620   10.5440   31.9090 H   0  0  0  0  0  0  0  0  0  0  0  0
   22.5180    8.6650   30.5900 H   0  0  0  0  0  0  0  0  0  0  0  0
   20.0110    3.7250   31.8860 H   0  0  0  0  0  0  0  0  0  0  0  0
   21.2230    4.0060   33.1710 H   0  0  0  0  0  0  0  0  0  0  0  0
   27.9290   11.0650   27.5680 H   0  0  0  0  0  0  0  0  0  0  0  0
  1  2  1  0  0  0  0
  2  3  2  0  0  0  0
  2  7  1  0  0  0  0
  3  4  1  0  0  0  0
  4  9  1  0  0  0  0
  4  5  2  0  0  0  0
  5 31  1  0  0  0  0
  6  5  1  0  0  0  0
  6  8  1  0  0  0  0
  7  6  2  0  0  0  0
  9 10  2  0  0  0  0
 10 11  1  0  0  0  0
 11 33  1  0  0  0  0
 12 11  1  0  0  0  0
 12 14  1  0  0  0  0
 13 12  2  0  0  0  0
 14 35  1  0  0  0  0
 14 15  1  0  0  0  0
 15 16  1  0  0  0  0
 15 36  1  0  0  0  0
 16 17  2  0  0  0  0
 18 37  1  6  0  0  0
 18 16  1  0  0  0  0
 18 27  1  0  0  0  0
 19 18  1  0  0  0  0
 19 20  1  0  0  0  0
 20 21  1  0  0  0  0
 21 26  1  0  0  0  0
 21 22  2  0  0  0  0
 22 38  1  0  0  0  0
 23 22  1  0  0  0  0
 23 39  1  0  0  0  0
 24 23  2  0  0  0  0
 25 20  2  0  0  0  0
 25 24  1  0  0  0  0
 27 26  1  0  0  0  0
 27 43  1  0  0  0  0
 28  9  1  0  0  0  0
 29 28  2  0  0  0  0
 30  3  1  0  0  0  0
 30 28  1  0  0  0  0
 32  7  1  0  0  0  0
 34 14  1  0  0  0  0
 40 24  1  0  0  0  0
 41 25  1  0  0  0  0
 42 27  1  0  0  0  0
 44 30  1  0  0  0  0
M  END
>  <Pose>
1

>  <Score>
-7.46

$$$$
