
 OpenBabel03202209553D

 31 34  0  0  0  0  0  0  0  0999 V2000
   22.1780   19.6360   26.8350 B   0  0  0  0  0  0  0  0  0  0  0  0
   23.0530   17.9580   27.1650 C   0  0  0  0  0  0  0  0  0  0  0  0
   24.0900   17.6070   26.3260 C   0  0  0  0  0  0  0  0  0  0  0  0
   24.7170   16.4080   26.5620 C   0  0  0  0  0  0  0  0  0  0  0  0
   24.3050   15.5890   27.6150 C   0  0  0  0  0  0  0  0  0  0  0  0
   23.2720   15.9300   28.4570 C   0  0  0  0  0  0  0  0  0  0  0  0
   22.6410   17.1530   28.2070 C   0  0  0  0  0  0  0  0  0  0  0  0
   22.8150   15.0810   29.5860 C   0  0  0  0  0  0  0  0  0  0  0  0
   22.4060   13.7930   29.0810 N   0  0  0  0  0  0  0  0  0  0  0  0
   22.7590   12.6190   29.8360 C   0  0  0  0  0  0  0  0  0  0  0  0
   21.8600   11.9970   30.6100 N   0  0  0  0  0  0  0  0  0  0  0  0
   22.1980   10.9010   31.3120 C   0  0  0  0  0  0  0  0  0  0  0  0
   23.4870   10.3780   31.2590 C   0  0  0  0  0  0  0  0  0  0  0  0
   24.3760   11.0020   30.4860 N   0  0  0  0  0  0  0  0  0  0  0  0
   24.0370   12.1090   29.7760 C   0  0  0  0  0  0  0  0  0  0  0  0
   25.1270   12.5100   29.1010 N   0  0  0  0  0  0  0  0  0  0  0  0
   26.1380   11.6970   29.3590 N   0  0  0  0  0  0  0  0  0  0  0  0
   25.6730   10.7770   30.2080 C   0  0  0  0  0  0  0  0  0  0  0  0
   25.7140   16.2890   25.5920 O   0  0  0  0  0  0  0  0  0  0  0  0
   25.3390   17.1360   24.4940 C   0  0  0  0  0  0  0  0  0  0  0  0
   24.7110   18.2010   25.2210 O   0  0  0  0  0  0  0  0  0  0  0  0
   24.8200   14.6610   27.7590 H   0  0  0  0  0  0  0  0  0  0  0  0
   21.8250   17.4780   28.8300 H   0  0  0  0  0  0  0  0  0  0  0  0
   21.9020   15.5580   30.0360 H   0  0  0  0  0  0  0  0  0  0  0  0
   23.5860   14.9950   30.3790 H   0  0  0  0  0  0  0  0  0  0  0  0
   21.8710   13.6930   28.2020 H   0  0  0  0  0  0  0  0  0  0  0  0
   21.4960   10.3830   31.9410 H   0  0  0  0  0  0  0  0  0  0  0  0
   23.7530    9.5050   31.8200 H   0  0  0  0  0  0  0  0  0  0  0  0
   26.2900    9.9690   30.5990 H   0  0  0  0  0  0  0  0  0  0  0  0
   26.1950   17.4710   23.9130 H   0  0  0  0  0  0  0  0  0  0  0  0
   24.5460   16.6300   23.9090 H   0  0  0  0  0  0  0  0  0  0  0  0
  1  2  1  0  0  0  0
  2  7  1  0  0  0  0
  3  4  1  0  0  0  0
  3  2  2  0  0  0  0
  4  5  2  0  0  0  0
  5 22  1  0  0  0  0
  5  6  1  0  0  0  0
  6  8  1  0  0  0  0
  7  6  2  0  0  0  0
  7 23  1  0  0  0  0
  8 24  1  0  0  0  0
  8 25  1  0  0  0  0
  9  8  1  0  0  0  0
  9 10  1  0  0  0  0
 10 11  2  0  0  0  0
 11 12  1  0  0  0  0
 12 27  1  0  0  0  0
 13 12  2  0  0  0  0
 13 28  1  0  0  0  0
 14 13  1  0  0  0  0
 15 10  1  0  0  0  0
 15 14  1  0  0  0  0
 16 17  1  0  0  0  0
 16 15  2  0  0  0  0
 17 18  2  0  0  0  0
 18 14  1  0  0  0  0
 18 29  1  0  0  0  0
 19  4  1  0  0  0  0
 20 21  1  0  0  0  0
 20 19  1  0  0  0  0
 21  3  1  0  0  0  0
 26  9  1  0  0  0  0
 30 20  1  0  0  0  0
 31 20  1  0  0  0  0
M  END
>  <Pose>
1

>  <Score>
-6.17

$$$$
