
 OpenBabel03202209553D

 56 59  0  0  1  0  0  0  0  0999 V2000
   23.4870   16.3050   27.8280 B   0  0  0  0  0  0  0  0  0  0  0  0
   22.9510   15.2980   29.3450 C   0  0  0  0  0  0  0  0  0  0  0  0
   23.5650   14.0640   29.5990 C   0  0  0  0  0  0  0  0  0  0  0  0
   23.2290   13.3020   30.6750 C   0  0  0  0  0  0  0  0  0  0  0  0
   22.2490   13.7670   31.5350 C   0  0  0  0  0  0  0  0  0  0  0  0
   21.6340   14.9900   31.2910 C   0  0  0  0  0  0  0  0  0  0  0  0
   21.9770   15.7580   30.2030 C   0  0  0  0  0  0  0  0  0  0  0  0
   20.5740   15.5260   32.1920 C   0  0  0  0  0  0  0  0  0  0  0  0
   23.9250   12.0150   30.9480 C   0  0  1  0  0  0  0  0  0  0  0  0
   24.4220   11.2620   29.7670 C   0  0  0  0  0  0  0  0  0  0  0  0
   24.3890   12.1400   28.4920 C   0  0  0  0  0  0  0  0  0  0  0  0
   24.5520   13.5160   28.7910 O   0  0  0  0  0  0  0  0  0  0  0  0
   23.5270   10.0970   29.3890 C   0  0  0  0  0  0  0  0  0  0  0  0
   23.3650    9.1000   30.4250 N   0  0  0  0  0  4  0  0  0  0  0  0
   23.6260    7.7710   29.8700 C   0  0  0  0  0  0  0  0  0  0  0  0
   22.9180    6.7810   30.7180 C   0  0  0  0  0  0  0  0  0  0  0  0
   22.0710    7.6130   31.6200 C   0  0  0  0  0  0  0  0  0  0  0  0
   21.9800    8.9240   30.8300 C   0  0  0  0  0  0  0  0  0  0  0  0
   25.8490   10.8830   29.8910 C   0  0  0  0  0  0  0  0  0  0  0  0
   26.9720   11.5190   29.4300 N   0  0  0  0  0  4  0  0  0  0  0  0
   28.1590   11.0770   30.1950 C   0  0  0  0  0  0  0  0  0  0  0  0
   29.2960   11.0760   29.2490 C   0  0  0  0  0  0  0  0  0  0  0  0
   28.7190   10.9320   27.8930 C   0  0  0  0  0  0  0  0  0  0  0  0
   27.2930   11.4520   28.0650 C   0  0  0  0  0  0  0  0  0  0  0  0
   24.9580   12.4130   31.8430 O   0  0  0  0  0  0  0  0  0  0  0  0
   21.9320   13.2230   32.3980 H   0  0  0  0  0  0  0  0  0  0  0  0
   21.5230   16.7100   29.9810 H   0  0  0  0  0  0  0  0  0  0  0  0
   20.0670   14.7190   32.7510 H   0  0  0  0  0  0  0  0  0  0  0  0
   21.0590   16.2700   32.8790 H   0  0  0  0  0  0  0  0  0  0  0  0
   19.8370   16.1340   31.5970 H   0  0  0  0  0  0  0  0  0  0  0  0
   23.2460   11.3960   31.6040 H   0  0  0  0  0  0  0  0  0  0  0  0
   23.5360   11.9130   27.8550 H   0  0  0  0  0  0  0  0  0  0  0  0
   25.2900   11.8600   27.8810 H   0  0  0  0  0  0  0  0  0  0  0  0
   22.4780   10.5110   29.2340 H   0  0  0  0  0  0  0  0  0  0  0  0
   23.7390    9.5920   28.4640 H   0  0  0  0  0  0  0  0  0  0  0  0
   23.9060    9.2630   31.2860 H   0  0  0  0  0  0  0  0  0  0  0  0
   24.6810    7.5330   29.7890 H   0  0  0  0  0  0  0  0  0  0  0  0
   23.2020    7.7930   28.8340 H   0  0  0  0  0  0  0  0  0  0  0  0
   23.6160    6.1050   31.2340 H   0  0  0  0  0  0  0  0  0  0  0  0
   22.2680    6.1160   30.0790 H   0  0  0  0  0  0  0  0  0  0  0  0
   22.6470    7.8210   32.5620 H   0  0  0  0  0  0  0  0  0  0  0  0
   21.0720    7.2070   31.8230 H   0  0  0  0  0  0  0  0  0  0  0  0
   21.3280    8.7400   29.9470 H   0  0  0  0  0  0  0  0  0  0  0  0
   21.5790    9.7090   31.4620 H   0  0  0  0  0  0  0  0  0  0  0  0
   26.0670   10.6660   31.0270 H   0  0  0  0  0  0  0  0  0  0  0  0
   25.9660    9.7730   29.5440 H   0  0  0  0  0  0  0  0  0  0  0  0
   26.9800   12.5900   29.7330 H   0  0  0  0  0  0  0  0  0  0  0  0
   28.4180   11.8030   31.0110 H   0  0  0  0  0  0  0  0  0  0  0  0
   28.0130   10.1250   30.7020 H   0  0  0  0  0  0  0  0  0  0  0  0
   29.8860   12.0200   29.2920 H   0  0  0  0  0  0  0  0  0  0  0  0
   29.9930   10.2150   29.4270 H   0  0  0  0  0  0  0  0  0  0  0  0
   29.2170   11.5630   27.1380 H   0  0  0  0  0  0  0  0  0  0  0  0
   28.7250    9.8850   27.5080 H   0  0  0  0  0  0  0  0  0  0  0  0
   26.6930   10.8220   27.4180 H   0  0  0  0  0  0  0  0  0  0  0  0
   27.2410   12.4870   27.5750 H   0  0  0  0  0  0  0  0  0  0  0  0
   25.6380   12.9360   31.3860 H   0  0  0  0  0  0  0  0  0  0  0  0
  1  2  1  0  0  0  0
  2  3  2  0  0  0  0
  2  7  1  0  0  0  0
  3  4  1  0  0  0  0
  4  9  1  0  0  0  0
  4  5  2  0  0  0  0
  5 26  1  0  0  0  0
  6  5  1  0  0  0  0
  6  8  1  0  0  0  0
  7  6  2  0  0  0  0
  8 28  1  0  0  0  0
  8 29  1  0  0  0  0
  9 31  1  1  0  0  0
  9 25  1  0  0  0  0
 10 19  1  0  0  0  0
 10  9  1  0  0  0  0
 11 12  1  0  0  0  0
 11 10  1  0  0  0  0
 12  3  1  0  0  0  0
 13 10  1  0  0  0  0
 13 14  1  0  0  0  0
 14 18  1  0  0  0  0
 14 36  1  0  0  0  0
 15 14  1  0  0  0  0
 15 16  1  0  0  0  0
 16 39  1  0  0  0  0
 16 17  1  0  0  0  0
 17 42  1  0  0  0  0
 17 41  1  0  0  0  0
 18 44  1  0  0  0  0
 18 17  1  0  0  0  0
 19 45  1  0  0  0  0
 20 47  1  0  0  0  0
 20 19  1  0  0  0  0
 20 21  1  0  0  0  0
 21 49  1  0  0  0  0
 21 48  1  0  0  0  0
 22 50  1  0  0  0  0
 22 51  1  0  0  0  0
 22 21  1  0  0  0  0
 23 24  1  0  0  0  0
 23 22  1  0  0  0  0
 24 20  1  0  0  0  0
 27  7  1  0  0  0  0
 30  8  1  0  0  0  0
 32 11  1  0  0  0  0
 33 11  1  0  0  0  0
 34 13  1  0  0  0  0
 35 13  1  0  0  0  0
 37 15  1  0  0  0  0
 38 15  1  0  0  0  0
 40 16  1  0  0  0  0
 43 18  1  0  0  0  0
 46 19  1  0  0  0  0
 52 23  1  0  0  0  0
 53 23  1  0  0  0  0
 54 24  1  0  0  0  0
 55 24  1  0  0  0  0
 56 25  1  0  0  0  0
M  END
>  <Pose>
1

>  <Score>
-5.53

$$$$
