
 OpenBabel03202209553D

 56 59  0  0  1  0  0  0  0  0999 V2000
   23.2640    6.2720   30.2960 B   0  0  0  0  0  0  0  0  0  0  0  0
   24.9000    6.9870   29.6380 C   0  0  0  0  0  0  0  0  0  0  0  0
   25.7070    6.2030   28.8380 C   0  0  0  0  0  0  0  0  0  0  0  0
   26.8980    6.6950   28.3460 C   0  0  0  0  0  0  0  0  0  0  0  0
   27.2330    7.9890   28.6900 C   0  0  0  0  0  0  0  0  0  0  0  0
   26.4200    8.7660   29.4900 C   0  0  0  0  0  0  0  0  0  0  0  0
   25.2270    8.2830   29.9870 C   0  0  0  0  0  0  0  0  0  0  0  0
   24.3970    9.0580   30.7960 O   0  0  0  0  0  0  0  0  0  0  0  0
   23.0000    8.8900   30.6550 C   0  0  0  0  0  0  0  0  0  0  0  0
   22.3710   10.0100   29.8650 C   0  0  2  0  0  0  0  0  0  0  0  0
   22.5980    9.9130   28.5170 O   0  0  0  0  0  0  0  0  0  0  0  0
   22.7710   11.3360   30.4140 C   0  0  0  0  0  0  0  0  0  0  0  0
   22.4240   12.4520   29.5620 N   0  0  0  0  0  4  0  0  0  0  0  0
   23.6370   12.8470   28.8700 C   0  0  0  0  0  0  0  0  0  0  0  0
   23.4670   14.1790   28.1260 C   0  0  0  0  0  0  0  0  0  0  0  0
   23.0760   15.1760   29.0570 N   0  0  0  0  0  0  0  0  0  0  0  0
   22.8760   14.6890   30.4380 C   0  0  0  0  0  0  0  0  0  0  0  0
   21.9290   13.5360   30.3980 C   0  0  0  0  0  0  0  0  0  0  0  0
   22.8800   16.5290   28.7590 C   0  0  0  0  0  0  0  0  0  0  0  0
   22.2140   17.1790   29.7000 O   0  0  0  0  0  0  0  0  0  0  0  0
   23.2580   17.3310   27.6410 C   0  0  0  0  0  0  0  0  0  0  0  0
   24.0810   16.9680   26.6140 C   0  0  0  0  0  0  0  0  0  0  0  0
   24.4100   17.8010   25.5530 C   0  0  0  0  0  0  0  0  0  0  0  0
   23.9050   19.0600   25.4930 C   0  0  0  0  0  0  0  0  0  0  0  0
   23.0690   19.4580   26.5170 C   0  0  0  0  0  0  0  0  0  0  0  0
   22.7450   18.6350   27.5660 C   0  0  0  0  0  0  0  0  0  0  0  0
   27.7070    5.9080   27.5440 C   0  0  0  0  0  0  0  0  0  0  0  0
   27.3720    4.6140   27.1990 C   0  0  0  0  0  0  0  0  0  0  0  0
   26.1810    4.1210   27.6920 C   0  0  0  0  0  0  0  0  0  0  0  0
   25.3730    4.9050   28.4920 C   0  0  0  0  0  0  0  0  0  0  0  0
   28.1670    8.3830   28.3080 H   0  0  0  0  0  0  0  0  0  0  0  0
   26.6890    9.7870   29.7590 H   0  0  0  0  0  0  0  0  0  0  0  0
   22.8380    7.9340   30.1160 H   0  0  0  0  0  0  0  0  0  0  0  0
   22.5690    8.8180   31.6770 H   0  0  0  0  0  0  0  0  0  0  0  0
   21.2590    9.9180   30.0370 H   0  0  0  0  0  0  0  0  0  0  0  0
   22.1030   10.5470   27.9680 H   0  0  0  0  0  0  0  0  0  0  0  0
   23.8910   11.3480   30.5060 H   0  0  0  0  0  0  0  0  0  0  0  0
   22.3020   11.5180   31.3960 H   0  0  0  0  0  0  0  0  0  0  0  0
   21.7090   12.2230   28.8400 H   0  0  0  0  0  0  0  0  0  0  0  0
   24.4980   12.8530   29.5570 H   0  0  0  0  0  0  0  0  0  0  0  0
   23.8200   12.0850   28.0830 H   0  0  0  0  0  0  0  0  0  0  0  0
   24.4740   14.4130   27.7350 H   0  0  0  0  0  0  0  0  0  0  0  0
   22.7750   14.0020   27.2820 H   0  0  0  0  0  0  0  0  0  0  0  0
   23.8650   14.3360   30.7790 H   0  0  0  0  0  0  0  0  0  0  0  0
   22.4830   15.4780   31.0750 H   0  0  0  0  0  0  0  0  0  0  0  0
   20.9370   13.8920   30.0560 H   0  0  0  0  0  0  0  0  0  0  0  0
   21.7880   13.1860   31.4520 H   0  0  0  0  0  0  0  0  0  0  0  0
   24.5210   16.0030   26.5760 H   0  0  0  0  0  0  0  0  0  0  0  0
   25.0720   17.4500   24.7650 H   0  0  0  0  0  0  0  0  0  0  0  0
   24.1390   19.7350   24.6830 H   0  0  0  0  0  0  0  0  0  0  0  0
   22.6690   20.4620   26.4670 H   0  0  0  0  0  0  0  0  0  0  0  0
   22.0830   19.0500   28.3100 H   0  0  0  0  0  0  0  0  0  0  0  0
   28.6410    6.2930   27.1570 H   0  0  0  0  0  0  0  0  0  0  0  0
   28.0280    4.0240   26.5690 H   0  0  0  0  0  0  0  0  0  0  0  0
   25.9240    3.1000   27.4160 H   0  0  0  0  0  0  0  0  0  0  0  0
   24.4380    4.5160   28.8770 H   0  0  0  0  0  0  0  0  0  0  0  0
  2  7  1  0  0  0  0
  2  1  1  0  0  0  0
  3  2  2  0  0  0  0
  4  5  2  0  0  0  0
  4  3  1  0  0  0  0
  5  6  1  0  0  0  0
  6 32  1  0  0  0  0
  6  7  2  0  0  0  0
  7  8  1  0  0  0  0
  9  8  1  0  0  0  0
  9 34  1  0  0  0  0
 10 35  1  1  0  0  0
 10 12  1  0  0  0  0
 10  9  1  0  0  0  0
 11 10  1  0  0  0  0
 12 37  1  0  0  0  0
 12 38  1  0  0  0  0
 13 18  1  0  0  0  0
 13 12  1  0  0  0  0
 14 40  1  0  0  0  0
 14 13  1  0  0  0  0
 15 14  1  0  0  0  0
 15 16  1  0  0  0  0
 16 17  1  0  0  0  0
 17 44  1  0  0  0  0
 17 45  1  0  0  0  0
 18 17  1  0  0  0  0
 18 47  1  0  0  0  0
 19 16  1  0  0  0  0
 19 20  2  0  0  0  0
 21 19  1  0  0  0  0
 22 21  2  0  0  0  0
 23 22  1  0  0  0  0
 24 23  2  0  0  0  0
 24 25  1  0  0  0  0
 25 26  2  0  0  0  0
 26 21  1  0  0  0  0
 26 52  1  0  0  0  0
 27  4  1  0  0  0  0
 28 27  2  0  0  0  0
 28 29  1  0  0  0  0
 29 30  2  0  0  0  0
 30  3  1  0  0  0  0
 30 56  1  0  0  0  0
 31  5  1  0  0  0  0
 33  9  1  0  0  0  0
 36 11  1  0  0  0  0
 39 13  1  0  0  0  0
 41 14  1  0  0  0  0
 42 15  1  0  0  0  0
 43 15  1  0  0  0  0
 46 18  1  0  0  0  0
 48 22  1  0  0  0  0
 49 23  1  0  0  0  0
 50 24  1  0  0  0  0
 51 25  1  0  0  0  0
 53 27  1  0  0  0  0
 54 28  1  0  0  0  0
 55 29  1  0  0  0  0
M  END
>  <Pose>
1

>  <Score>
-7.42

$$$$
