
 OpenBabel03162216063D

 43 47  0  0  0  0  0  0  0  0999 V2000
   24.4520   12.0800   28.9670 B   0  0  0  0  0  0  0  0  0  0  0  0
   23.8810   13.8830   28.7490 C   0  0  0  0  0  0  0  0  0  0  0  0
   23.0520   14.5110   29.6370 N   0  0  0  0  0  0  0  0  0  0  0  0
   22.8890   15.7510   29.1350 C   0  0  0  0  0  0  0  0  0  0  0  0
   23.5980   15.9030   27.9540 C   0  0  0  0  0  0  0  0  0  0  0  0
   24.2040   14.7140   27.7480 N   0  0  0  0  0  0  0  0  0  0  0  0
   23.6290   17.0360   27.2320 N   0  0  0  0  0  0  0  0  0  0  0  0
   22.9180   18.0740   27.7090 C   0  0  0  0  0  0  0  0  0  0  0  0
   22.9140   19.1720   27.0580 O   0  0  0  0  0  0  0  0  0  0  0  0
   22.2160   17.9700   28.8530 N   0  0  0  0  0  0  0  0  0  0  0  0
   22.1830   16.8230   29.5880 C   0  0  0  0  0  0  0  0  0  0  0  0
   21.5290   16.7440   30.6480 O   0  0  0  0  0  0  0  0  0  0  0  0
   24.3710   17.1860   25.9980 C   0  0  0  0  0  0  0  0  0  0  0  0
   22.5240   13.9090   30.8440 C   0  0  0  0  0  0  0  0  0  0  0  0
   22.3920   12.4160   30.7710 C   0  0  0  0  0  0  0  0  0  0  0  0
   21.4430   11.8210   31.7720 C   0  0  0  0  0  0  0  0  0  0  0  0
   21.4750   10.3680   31.6860 N   0  0  0  0  0  0  0  0  0  0  0  0
   20.6450    9.4740   32.2720 C   0  0  0  0  0  0  0  0  0  0  0  0
   21.0150    8.1910   31.9380 C   0  0  0  0  0  0  0  0  0  0  0  0
   22.0880    8.3210   31.1370 N   0  0  0  0  0  0  0  0  0  0  0  0
   22.3590    9.6360   30.9900 C   0  0  0  0  0  0  0  0  0  0  0  0
   23.7720   10.4040   29.9600 B   0  0  0  0  0  0  0  0  0  0  0  0
   20.3720    7.0920   32.3750 N   0  0  0  0  0  0  0  0  0  0  0  0
   19.3060    7.2980   33.1870 C   0  0  0  0  0  0  0  0  0  0  0  0
   18.6960    6.2640   33.5990 O   0  0  0  0  0  0  0  0  0  0  0  0
   18.9100    8.5390   33.5380 N   0  0  0  0  0  0  0  0  0  0  0  0
   19.5620    9.6330   33.0940 C   0  0  0  0  0  0  0  0  0  0  0  0
   19.2190   10.8010   33.4020 O   0  0  0  0  0  0  0  0  0  0  0  0
   20.8010    5.7490   31.9940 C   0  0  0  0  0  0  0  0  0  0  0  0
   21.6610   18.7640   29.2360 H   0  0  0  0  0  0  0  0  0  0  0  0
   24.6680   16.2010   25.5790 H   0  0  0  0  0  0  0  0  0  0  0  0
   23.6740   17.6260   25.2290 H   0  0  0  0  0  0  0  0  0  0  0  0
   25.2880   17.7960   26.1200 H   0  0  0  0  0  0  0  0  0  0  0  0
   21.5720   14.4070   31.1330 H   0  0  0  0  0  0  0  0  0  0  0  0
   23.2840   14.1090   31.6540 H   0  0  0  0  0  0  0  0  0  0  0  0
   23.3820   11.9100   30.7980 H   0  0  0  0  0  0  0  0  0  0  0  0
   21.9690   12.1600   29.7520 H   0  0  0  0  0  0  0  0  0  0  0  0
   21.8260   12.0560   32.8090 H   0  0  0  0  0  0  0  0  0  0  0  0
   20.4260   12.1900   31.6510 H   0  0  0  0  0  0  0  0  0  0  0  0
   18.0850    8.6350   34.1630 H   0  0  0  0  0  0  0  0  0  0  0  0
   20.6690    5.5800   30.9050 H   0  0  0  0  0  0  0  0  0  0  0  0
   21.8700    5.5820   32.2310 H   0  0  0  0  0  0  0  0  0  0  0  0
   20.1420    5.0410   32.5200 H   0  0  0  0  0  0  0  0  0  0  0  0
  1 22  2  0  0  0  0
  2  1  1  0  0  0  0
  2  3  1  0  0  0  0
  3 14  1  0  0  0  0
  4 11  1  0  0  0  0
  4  3  1  0  0  0  0
  5  4  2  0  0  0  0
  6  5  1  0  0  0  0
  6  2  2  0  0  0  0
  7  8  1  0  0  0  0
  7  5  1  0  0  0  0
  8 10  1  0  0  0  0
  9  8  2  0  0  0  0
 10 30  1  0  0  0  0
 10 11  1  0  0  0  0
 11 12  2  0  0  0  0
 13 33  1  0  0  0  0
 13  7  1  0  0  0  0
 14 34  1  0  0  0  0
 14 35  1  0  0  0  0
 15 36  1  0  0  0  0
 15 14  1  0  0  0  0
 15 16  1  0  0  0  0
 16 38  1  0  0  0  0
 17 16  1  0  0  0  0
 17 18  1  0  0  0  0
 18 27  1  0  0  0  0
 19 18  2  0  0  0  0
 19 23  1  0  0  0  0
 20 19  1  0  0  0  0
 21 20  2  0  0  0  0
 21 17  1  0  0  0  0
 22 21  1  0  0  0  0
 23 24  1  0  0  0  0
 24 26  1  0  0  0  0
 24 25  2  0  0  0  0
 26 40  1  0  0  0  0
 27 28  2  0  0  0  0
 27 26  1  0  0  0  0
 29 42  1  0  0  0  0
 29 23  1  0  0  0  0
 29 43  1  0  0  0  0
 31 13  1  0  0  0  0
 32 13  1  0  0  0  0
 37 15  1  0  0  0  0
 39 16  1  0  0  0  0
 41 29  1  0  0  0  0
M  END
>  <Pose>
1

>  <Score>
-7.58

$$$$
