
 OpenBabel03202209553D

 43 46  0  0  0  0  0  0  0  0999 V2000
   27.1310   11.2380   27.9130 B   0  0  0  0  0  0  0  0  0  0  0  0
   25.8980   12.6760   28.1090 C   0  0  0  0  0  0  0  0  0  0  0  0
   24.6670   12.5240   28.6870 N   0  0  0  0  0  0  0  0  0  0  0  0
   24.1120   13.7520   28.6360 C   0  0  0  0  0  0  0  0  0  0  0  0
   24.9720   14.6590   28.0380 C   0  0  0  0  0  0  0  0  0  0  0  0
   26.0760   13.9480   27.7230 N   0  0  0  0  0  0  0  0  0  0  0  0
   24.6910   15.9600   27.8560 N   0  0  0  0  0  0  0  0  0  0  0  0
   23.4910   16.3830   28.2930 C   0  0  0  0  0  0  0  0  0  0  0  0
   23.1750   17.6110   28.1420 O   0  0  0  0  0  0  0  0  0  0  0  0
   22.6250   15.5360   28.8800 N   0  0  0  0  0  0  0  0  0  0  0  0
   22.9080   14.2160   29.0660 C   0  0  0  0  0  0  0  0  0  0  0  0
   22.0940   13.4440   29.6150 O   0  0  0  0  0  0  0  0  0  0  0  0
   25.5950   16.9010   27.2290 C   0  0  0  0  0  0  0  0  0  0  0  0
   24.1550   11.2830   29.2290 C   0  0  0  0  0  0  0  0  0  0  0  0
   23.5270   11.4250   30.5840 C   0  0  0  0  0  0  0  0  0  0  0  0
   24.0690   10.4900   31.6270 C   0  0  0  0  0  0  0  0  0  0  0  0
   23.5380    9.1500   31.4210 N   0  0  0  0  0  0  0  0  0  0  0  0
   22.3420    8.6510   31.8100 C   0  0  0  0  0  0  0  0  0  0  0  0
   22.2230    7.3380   31.4190 C   0  0  0  0  0  0  0  0  0  0  0  0
   23.3730    7.0450   30.7820 N   0  0  0  0  0  0  0  0  0  0  0  0
   24.1600    8.1420   30.7880 C   0  0  0  0  0  0  0  0  0  0  0  0
   25.9040    8.3030   30.0270 B   0  0  0  0  0  0  0  0  0  0  0  0
   21.1390    6.5800   31.6680 N   0  0  0  0  0  0  0  0  0  0  0  0
   20.1270    7.1770   32.3450 C   0  0  0  0  0  0  0  0  0  0  0  0
   19.1030    6.4660   32.5810 O   0  0  0  0  0  0  0  0  0  0  0  0
   20.2030    8.4630   32.7470 N   0  0  0  0  0  0  0  0  0  0  0  0
   21.2940    9.2130   32.4910 C   0  0  0  0  0  0  0  0  0  0  0  0
   21.3960   10.4110   32.8510 O   0  0  0  0  0  0  0  0  0  0  0  0
   21.0570    5.1880   31.2330 C   0  0  0  0  0  0  0  0  0  0  0  0
   21.6920   15.8470   29.2240 H   0  0  0  0  0  0  0  0  0  0  0  0
   26.4020   16.3810   26.6730 H   0  0  0  0  0  0  0  0  0  0  0  0
   25.0160   17.4580   26.4380 H   0  0  0  0  0  0  0  0  0  0  0  0
   26.0690   17.5900   27.9550 H   0  0  0  0  0  0  0  0  0  0  0  0
   24.9480   10.5030   29.2070 H   0  0  0  0  0  0  0  0  0  0  0  0
   23.3240   10.9570   28.5390 H   0  0  0  0  0  0  0  0  0  0  0  0
   22.4160   11.3780   30.5330 H   0  0  0  0  0  0  0  0  0  0  0  0
   23.7500   12.4700   30.9560 H   0  0  0  0  0  0  0  0  0  0  0  0
   25.1830   10.3850   31.4670 H   0  0  0  0  0  0  0  0  0  0  0  0
   23.8620   10.8320   32.6400 H   0  0  0  0  0  0  0  0  0  0  0  0
   19.3950    8.8670   33.2610 H   0  0  0  0  0  0  0  0  0  0  0  0
   21.0430    5.1160   30.1250 H   0  0  0  0  0  0  0  0  0  0  0  0
   21.9220    4.5990   31.5950 H   0  0  0  0  0  0  0  0  0  0  0  0
   20.0990    4.7930   31.6030 H   0  0  0  0  0  0  0  0  0  0  0  0
  1  2  1  0  0  0  0
  2  3  1  0  0  0  0
  3 14  1  0  0  0  0
  4  3  1  0  0  0  0
  4 11  1  0  0  0  0
  5  4  2  0  0  0  0
  6  5  1  0  0  0  0
  6  2  2  0  0  0  0
  7  5  1  0  0  0  0
  7  8  1  0  0  0  0
  8 10  1  0  0  0  0
  9  8  2  0  0  0  0
 10 11  1  0  0  0  0
 10 30  1  0  0  0  0
 11 12  2  0  0  0  0
 13  7  1  0  0  0  0
 13 33  1  0  0  0  0
 14 15  1  0  0  0  0
 15 37  1  0  0  0  0
 15 16  1  0  0  0  0
 16 39  1  0  0  0  0
 17 16  1  0  0  0  0
 17 18  1  0  0  0  0
 18 27  1  0  0  0  0
 19 23  1  0  0  0  0
 19 18  2  0  0  0  0
 20 21  2  0  0  0  0
 20 19  1  0  0  0  0
 21 17  1  0  0  0  0
 22 21  1  0  0  0  0
 23 24  1  0  0  0  0
 24 25  2  0  0  0  0
 24 26  1  0  0  0  0
 26 40  1  0  0  0  0
 27 26  1  0  0  0  0
 27 28  2  0  0  0  0
 29 42  1  0  0  0  0
 29 43  1  0  0  0  0
 29 23  1  0  0  0  0
 31 13  1  0  0  0  0
 32 13  1  0  0  0  0
 34 14  1  0  0  0  0
 35 14  1  0  0  0  0
 36 15  1  0  0  0  0
 38 16  1  0  0  0  0
 41 29  1  0  0  0  0
M  END
>  <Pose>
1

>  <Score>
-7.30

$$$$
