
 OpenBabel03202209553D

 40 43  0  0  0  0  0  0  0  0999 V2000
   22.7160    4.7990   31.4540 B   0  0  0  0  0  0  0  0  0  0  0  0
   21.3380    5.9800   32.0460 C   0  0  0  0  0  0  0  0  0  0  0  0
   21.5020    7.3220   32.1300 N   0  0  0  0  0  0  0  0  0  0  0  0
   20.3260    7.8160   32.5810 C   0  0  0  0  0  0  0  0  0  0  0  0
   19.4180    6.7800   32.7820 C   0  0  0  0  0  0  0  0  0  0  0  0
   20.0940    5.6610   32.4360 N   0  0  0  0  0  0  0  0  0  0  0  0
   18.1720    7.0240   33.2240 N   0  0  0  0  0  0  0  0  0  0  0  0
   17.7720    8.2820   33.4830 C   0  0  0  0  0  0  0  0  0  0  0  0
   16.5950    8.5220   33.9020 O   0  0  0  0  0  0  0  0  0  0  0  0
   18.6060    9.3220   33.3060 N   0  0  0  0  0  0  0  0  0  0  0  0
   19.8660    9.0810   32.8590 C   0  0  0  0  0  0  0  0  0  0  0  0
   20.6790   10.0340   32.6770 O   0  0  0  0  0  0  0  0  0  0  0  0
   17.2240    5.9540   33.4360 C   0  0  0  0  0  0  0  0  0  0  0  0
   22.6900    8.0260   31.7850 C   0  0  0  0  0  0  0  0  0  0  0  0
   23.0730    8.0430   30.3480 C   0  0  0  0  0  0  0  0  0  0  0  0
   24.4330    8.2850   30.0160 N   0  0  0  0  0  0  0  0  0  0  0  0
   25.2810    7.4650   29.3740 C   0  0  0  0  0  0  0  0  0  0  0  0
   26.5090    8.0840   29.2640 C   0  0  0  0  0  0  0  0  0  0  0  0
   26.3430    9.2840   29.8570 N   0  0  0  0  0  0  0  0  0  0  0  0
   25.1070    9.4340   30.3170 C   0  0  0  0  0  0  0  0  0  0  0  0
   24.3740   10.9600   31.2370 B   0  0  0  0  0  0  0  0  0  0  0  0
   27.5200    7.4660   28.6550 N   0  0  0  0  0  0  0  0  0  0  0  0
   27.3590    6.2420   28.1460 C   0  0  0  0  0  0  0  0  0  0  0  0
   28.3090    5.6250   27.5590 O   0  0  0  0  0  0  0  0  0  0  0  0
   26.1950    5.5720   28.2120 N   0  0  0  0  0  0  0  0  0  0  0  0
   25.1800    6.1970   28.8240 C   0  0  0  0  0  0  0  0  0  0  0  0
   24.0920    5.5830   28.8880 O   0  0  0  0  0  0  0  0  0  0  0  0
   28.8110    8.1020   28.5340 C   0  0  0  0  0  0  0  0  0  0  0  0
   18.3170   10.3050   33.5000 H   0  0  0  0  0  0  0  0  0  0  0  0
   16.3600    6.1030   32.7390 H   0  0  0  0  0  0  0  0  0  0  0  0
   16.9210    5.9820   34.4930 H   0  0  0  0  0  0  0  0  0  0  0  0
   17.7250    4.9730   33.2440 H   0  0  0  0  0  0  0  0  0  0  0  0
   23.5420    7.7330   32.4450 H   0  0  0  0  0  0  0  0  0  0  0  0
   22.5320    9.1170   32.0660 H   0  0  0  0  0  0  0  0  0  0  0  0
   22.3640    8.7300   29.8120 H   0  0  0  0  0  0  0  0  0  0  0  0
   22.8180    7.0120   29.9480 H   0  0  0  0  0  0  0  0  0  0  0  0
   26.1020    4.6090   27.8000 H   0  0  0  0  0  0  0  0  0  0  0  0
   28.6350    9.1950   28.5390 H   0  0  0  0  0  0  0  0  0  0  0  0
   29.5190    7.8270   29.3180 H   0  0  0  0  0  0  0  0  0  0  0  0
   29.2860    7.8790   27.5450 H   0  0  0  0  0  0  0  0  0  0  0  0
  1  2  1  0  0  0  0
  2  3  1  0  0  0  0
  2  6  2  0  0  0  0
  3  4  1  0  0  0  0
  4  5  2  0  0  0  0
  4 11  1  0  0  0  0
  5  7  1  0  0  0  0
  6  5  1  0  0  0  0
  7 13  1  0  0  0  0
  7  8  1  0  0  0  0
  8  9  2  0  0  0  0
 10  8  1  0  0  0  0
 10 29  1  0  0  0  0
 11 10  1  0  0  0  0
 12 11  2  0  0  0  0
 13 31  1  0  0  0  0
 14 34  1  0  0  0  0
 14  3  1  0  0  0  0
 14 33  1  0  0  0  0
 15 14  1  0  0  0  0
 16 20  1  0  0  0  0
 16 15  1  0  0  0  0
 17 16  1  0  0  0  0
 18 17  2  0  0  0  0
 18 19  1  0  0  0  0
 19 20  2  0  0  0  0
 20 21  1  0  0  0  0
 22 18  1  0  0  0  0
 23 25  1  0  0  0  0
 23 22  1  0  0  0  0
 24 23  2  0  0  0  0
 25 26  1  0  0  0  0
 26 27  2  0  0  0  0
 26 17  1  0  0  0  0
 28 38  1  0  0  0  0
 28 22  1  0  0  0  0
 28 39  1  0  0  0  0
 30 13  1  0  0  0  0
 32 13  1  0  0  0  0
 35 15  1  0  0  0  0
 36 15  1  0  0  0  0
 37 25  1  0  0  0  0
 40 28  1  0  0  0  0
M  END
>  <Pose>
1

>  <Score>
-7.63

$$$$
