
 OpenBabel03202209553D

 37 40  0  0  1  0  0  0  0  0999 V2000
   21.5900    5.1140   31.1430 B   0  0  0  0  0  0  0  0  0  0  0  0
   20.4590    6.4450   31.9010 C   0  0  0  0  0  0  0  0  0  0  0  0
   19.1910    6.2880   32.3420 N   0  0  0  0  0  0  0  0  0  0  0  0
   18.7120    7.4060   32.8350 N   0  0  0  0  0  0  0  0  0  0  0  0
   19.6920    8.3200   32.7130 C   0  0  0  0  0  0  0  0  0  0  0  0
   19.7550    9.6090   33.0640 N   0  0  0  0  0  0  0  0  0  0  0  0
   20.8650   10.3390   32.8580 C   0  0  0  0  0  0  0  0  0  0  0  0
   21.9530    9.7900   32.2880 N   0  0  0  0  0  0  0  0  0  0  0  0
   21.9630    8.4770   31.9020 C   0  0  0  0  0  0  0  0  0  0  0  0
   20.8260    7.7510   32.1210 C   0  0  0  0  0  0  0  0  0  0  0  0
   23.1310    7.9610   31.2460 N   0  0  0  0  0  0  0  0  0  0  0  0
   24.2590    8.7870   30.9460 C   0  0  1  0  0  0  0  0  0  0  0  0
   24.9900    8.3650   29.7300 C   0  0  0  0  0  0  0  0  0  0  0  0
   24.6450    7.1630   29.1750 O   0  0  0  0  0  0  0  0  0  0  0  0
   24.3240    6.1980   30.1230 C   0  0  0  0  0  0  0  0  0  0  0  0
   23.1170    6.5670   30.9240 C   0  0  0  0  0  0  0  0  0  0  0  0
   23.9030   10.2230   30.9560 C   0  0  0  0  0  0  0  0  0  0  0  0
   22.8310   10.7700   30.3800 N   0  0  0  0  0  0  0  0  0  0  0  0
   22.8980   12.1080   30.6340 C   0  0  0  0  0  0  0  0  0  0  0  0
   24.0160   12.3040   31.3560 N   0  0  0  0  0  0  0  0  0  0  0  0
   24.6020   11.1560   31.5350 O   0  0  0  0  0  0  0  0  0  0  0  0
   21.9380   13.1510   30.2080 C   0  0  0  0  0  0  0  0  0  0  0  0
   17.3860    7.5970   33.3930 C   0  0  0  0  0  0  0  0  0  0  0  0
   20.8380   11.3880   33.1740 H   0  0  0  0  0  0  0  0  0  0  0  0
   24.9970    8.5900   31.8150 H   0  0  0  0  0  0  0  0  0  0  0  0
   26.1150    8.4410   29.8560 H   0  0  0  0  0  0  0  0  0  0  0  0
   24.7900    9.1490   28.9380 H   0  0  0  0  0  0  0  0  0  0  0  0
   24.0900    5.2670   29.5620 H   0  0  0  0  0  0  0  0  0  0  0  0
   25.2020    5.9430   30.7670 H   0  0  0  0  0  0  0  0  0  0  0  0
   22.1650    6.2460   30.4380 H   0  0  0  0  0  0  0  0  0  0  0  0
   23.1110    6.0240   31.9190 H   0  0  0  0  0  0  0  0  0  0  0  0
   21.4920   12.8380   29.2200 H   0  0  0  0  0  0  0  0  0  0  0  0
   22.4250   14.1280   30.0430 H   0  0  0  0  0  0  0  0  0  0  0  0
   21.0930   13.2670   30.9300 H   0  0  0  0  0  0  0  0  0  0  0  0
   16.7290    6.7680   33.0660 H   0  0  0  0  0  0  0  0  0  0  0  0
   16.9650    8.5600   33.0110 H   0  0  0  0  0  0  0  0  0  0  0  0
   17.3980    7.5660   34.5130 H   0  0  0  0  0  0  0  0  0  0  0  0
  1  2  1  0  0  0  0
  2 10  1  0  0  0  0
  2  3  2  0  0  0  0
  3  4  1  0  0  0  0
  4 23  1  0  0  0  0
  5  4  1  0  0  0  0
  5  6  1  0  0  0  0
  7  6  2  0  0  0  0
  7 24  1  0  0  0  0
  8  7  1  0  0  0  0
  9 10  1  0  0  0  0
  9  8  2  0  0  0  0
 10  5  2  0  0  0  0
 11  9  1  0  0  0  0
 12 17  1  0  0  0  0
 12 11  1  0  0  0  0
 12 25  1  1  0  0  0
 13 26  1  0  0  0  0
 13 12  1  0  0  0  0
 14 13  1  0  0  0  0
 14 15  1  0  0  0  0
 15 29  1  0  0  0  0
 15 16  1  0  0  0  0
 16 11  1  0  0  0  0
 16 31  1  0  0  0  0
 17 21  1  0  0  0  0
 18 19  1  0  0  0  0
 18 17  2  0  0  0  0
 19 20  2  0  0  0  0
 20 21  1  0  0  0  0
 22 19  1  0  0  0  0
 22 34  1  0  0  0  0
 23 37  1  0  0  0  0
 27 13  1  0  0  0  0
 28 15  1  0  0  0  0
 30 16  1  0  0  0  0
 32 22  1  0  0  0  0
 33 22  1  0  0  0  0
 35 23  1  0  0  0  0
 36 23  1  0  0  0  0
M  END
>  <Pose>
1

>  <Score>
-5.37

$$$$
