
 OpenBabel03202209553D

 53 56  0  0  1  0  0  0  0  0999 V2000
   21.1080    5.6650   31.8440 B   0  0  0  0  0  0  0  0  0  0  0  0
   19.7070    6.7040   32.5880 C   0  0  0  0  0  0  0  0  0  0  0  0
   18.4750    6.3070   32.9540 N   0  0  0  0  0  0  0  0  0  0  0  0
   17.7620    7.3000   33.4150 N   0  0  0  0  0  0  0  0  0  0  0  0
   18.5300    8.4050   33.3630 C   0  0  0  0  0  0  0  0  0  0  0  0
   18.3150    9.6900   33.6940 N   0  0  0  0  0  0  0  0  0  0  0  0
   19.2460   10.6360   33.5400 C   0  0  0  0  0  0  0  0  0  0  0  0
   20.4320   10.3020   33.0450 N   0  0  0  0  0  0  0  0  0  0  0  0
   20.7440    9.0350   32.6830 C   0  0  0  0  0  0  0  0  0  0  0  0
   19.7720    8.0540   32.8430 C   0  0  0  0  0  0  0  0  0  0  0  0
   22.0150    8.7100   32.1960 N   0  0  0  0  0  0  0  0  0  0  0  0
   23.2090    9.0400   32.9230 C   0  0  0  0  0  0  0  0  0  0  0  0
   23.8540   10.1800   32.1310 C   0  0  0  0  0  0  0  0  0  0  0  0
   23.3540   10.2070   30.7520 N   0  0  0  0  0  0  0  0  0  0  0  0
   23.3000    8.8420   30.2250 C   0  0  0  0  0  0  0  0  0  0  0  0
   22.2060    8.0570   30.9240 C   0  0  0  0  0  0  0  0  0  0  0  0
   24.3300   10.9570   29.9760 C   0  0  2  0  0  0  0  0  0  0  0  0
   25.5000   11.2970   30.9390 C   0  0  0  0  0  0  0  0  0  0  0  0
   23.7570   12.2190   29.4750 C   0  0  0  0  0  0  0  0  0  0  0  0
   23.7890   12.3210   28.1780 O   0  0  0  0  0  0  0  0  0  0  0  0
   23.2070   13.2860   30.2030 N   0  0  0  0  0  0  0  0  0  0  0  0
   23.6850   13.8810   31.4150 C   0  0  0  0  0  0  0  0  0  0  0  0
   22.6110   14.1330   32.4520 C   0  0  0  0  0  0  0  0  0  0  0  0
   21.2870   14.5200   31.8900 C   0  0  0  0  0  0  0  0  0  0  0  0
   20.9010   13.6780   30.6920 C   0  0  0  0  0  0  0  0  0  0  0  0
   21.9750   13.9010   29.6590 C   0  0  0  0  0  0  0  0  0  0  0  0
   16.3940    7.3110   33.9120 C   0  0  0  0  0  0  0  0  0  0  0  0
   19.0320   11.6900   33.8240 H   0  0  0  0  0  0  0  0  0  0  0  0
   23.9430    8.1900   32.7530 H   0  0  0  0  0  0  0  0  0  0  0  0
   23.0820    9.2930   33.9720 H   0  0  0  0  0  0  0  0  0  0  0  0
   23.5090   11.1210   32.6000 H   0  0  0  0  0  0  0  0  0  0  0  0
   24.9570   10.1660   32.1860 H   0  0  0  0  0  0  0  0  0  0  0  0
   23.0300    8.9190   29.1620 H   0  0  0  0  0  0  0  0  0  0  0  0
   24.2460    8.3110   30.3680 H   0  0  0  0  0  0  0  0  0  0  0  0
   21.3170    7.9700   30.3080 H   0  0  0  0  0  0  0  0  0  0  0  0
   22.5910    7.0190   31.1610 H   0  0  0  0  0  0  0  0  0  0  0  0
   24.7150   10.3640   29.1450 H   0  0  0  0  0  0  0  0  0  0  0  0
   25.1190   11.3650   31.9760 H   0  0  0  0  0  0  0  0  0  0  0  0
   25.9220   12.2820   30.6830 H   0  0  0  0  0  0  0  0  0  0  0  0
   26.2890   10.5380   30.8560 H   0  0  0  0  0  0  0  0  0  0  0  0
   24.0870   14.8990   31.0990 H   0  0  0  0  0  0  0  0  0  0  0  0
   24.5020   13.3700   31.9100 H   0  0  0  0  0  0  0  0  0  0  0  0
   22.9730   15.0020   33.0660 H   0  0  0  0  0  0  0  0  0  0  0  0
   22.5460   13.2910   33.1530 H   0  0  0  0  0  0  0  0  0  0  0  0
   21.2890   15.5880   31.6130 H   0  0  0  0  0  0  0  0  0  0  0  0
   20.5190   14.3760   32.6630 H   0  0  0  0  0  0  0  0  0  0  0  0
   20.8460   12.6070   31.0090 H   0  0  0  0  0  0  0  0  0  0  0  0
   19.9160   14.0230   30.3410 H   0  0  0  0  0  0  0  0  0  0  0  0
   21.7130   13.4900   28.6800 H   0  0  0  0  0  0  0  0  0  0  0  0
   22.1420   14.9890   29.5660 H   0  0  0  0  0  0  0  0  0  0  0  0
   15.7230    7.9000   33.2360 H   0  0  0  0  0  0  0  0  0  0  0  0
   16.4040    7.8330   34.8830 H   0  0  0  0  0  0  0  0  0  0  0  0
   15.9750    6.2930   33.9460 H   0  0  0  0  0  0  0  0  0  0  0  0
  1  2  1  0  0  0  0
  2 10  1  0  0  0  0
  2  3  2  0  0  0  0
  3  4  1  0  0  0  0
  4 27  1  0  0  0  0
  5  4  1  0  0  0  0
  5  6  1  0  0  0  0
  7  6  2  0  0  0  0
  7 28  1  0  0  0  0
  8  7  1  0  0  0  0
  9 10  1  0  0  0  0
  9  8  2  0  0  0  0
 10  5  2  0  0  0  0
 11  9  1  0  0  0  0
 11 12  1  0  0  0  0
 12 30  1  0  0  0  0
 13 32  1  0  0  0  0
 13 31  1  0  0  0  0
 13 12  1  0  0  0  0
 14 13  1  0  0  0  0
 15 34  1  0  0  0  0
 15 14  1  0  0  0  0
 15 16  1  0  0  0  0
 16 36  1  0  0  0  0
 16 11  1  0  0  0  0
 17 37  1  6  0  0  0
 17 14  1  0  0  0  0
 17 18  1  0  0  0  0
 18 38  1  0  0  0  0
 19 17  1  0  0  0  0
 19 21  1  0  0  0  0
 20 19  2  0  0  0  0
 21 22  1  0  0  0  0
 22 42  1  0  0  0  0
 22 23  1  0  0  0  0
 23 43  1  0  0  0  0
 23 44  1  0  0  0  0
 24 23  1  0  0  0  0
 24 46  1  0  0  0  0
 25 47  1  0  0  0  0
 25 24  1  0  0  0  0
 26 21  1  0  0  0  0
 26 25  1  0  0  0  0
 27 53  1  0  0  0  0
 27 52  1  0  0  0  0
 29 12  1  0  0  0  0
 33 15  1  0  0  0  0
 35 16  1  0  0  0  0
 39 18  1  0  0  0  0
 40 18  1  0  0  0  0
 41 22  1  0  0  0  0
 45 24  1  0  0  0  0
 48 25  1  0  0  0  0
 49 26  1  0  0  0  0
 50 26  1  0  0  0  0
 51 27  1  0  0  0  0
M  END
>  <Pose>
1

>  <Score>
-5.75

$$$$
