
 OpenBabel03202209553D

 49 52  0  0  0  0  0  0  0  0999 V2000
   23.4630    2.8410   32.8450 B   0  0  0  0  0  0  0  0  0  0  0  0
   23.3140    4.2690   31.5480 C   0  0  0  0  0  0  0  0  0  0  0  0
   24.2430    4.7890   30.8310 O   0  0  0  0  0  0  0  0  0  0  0  0
   23.7930    5.7330   30.0610 C   0  0  0  0  0  0  0  0  0  0  0  0
   22.4420    5.8400   30.2970 C   0  0  0  0  0  0  0  0  0  0  0  0
   22.1330    4.9030   31.2500 C   0  0  0  0  0  0  0  0  0  0  0  0
   24.5410    6.5620   29.0980 C   0  0  0  0  0  0  0  0  0  0  0  0
   24.7780    6.1000   27.9730 O   0  0  0  0  0  0  0  0  0  0  0  0
   24.9890    7.8640   29.4340 N   0  0  0  0  0  0  0  0  0  0  0  0
   25.7510    8.0720   30.6480 C   0  0  0  0  0  0  0  0  0  0  0  0
   25.0640    9.0240   31.5970 C   0  0  0  0  0  0  0  0  0  0  0  0
   24.2730    9.9430   30.7630 N   0  0  0  0  0  0  0  0  0  0  0  0
   24.8460   10.3040   29.5110 C   0  0  0  0  0  0  0  0  0  0  0  0
   24.7350    9.0450   28.6320 C   0  0  0  0  0  0  0  0  0  0  0  0
   23.0300   10.3730   31.2880 C   0  0  0  0  0  0  0  0  0  0  0  0
   22.1720    9.5030   31.8900 N   0  0  0  0  0  0  0  0  0  0  0  0
   20.9900    9.8960   32.3900 C   0  0  0  0  0  0  0  0  0  0  0  0
   20.6160   11.1910   32.3060 N   0  0  0  0  0  0  0  0  0  0  0  0
   21.3980   12.1210   31.7290 C   0  0  0  0  0  0  0  0  0  0  0  0
   22.6250   11.6740   31.2170 C   0  0  0  0  0  0  0  0  0  0  0  0
   21.0060   13.5520   31.6260 C   0  0  0  0  0  0  0  0  0  0  0  0
   20.1330    8.9510   33.0080 N   0  0  0  0  0  0  0  0  0  0  0  0
   18.8760    9.3060   33.6210 C   0  0  0  0  0  0  0  0  0  0  0  0
   17.7750    8.4480   33.0710 C   0  0  0  0  0  0  0  0  0  0  0  0
   18.2450    7.3850   32.3020 O   0  0  0  0  0  0  0  0  0  0  0  0
   19.2700    6.7140   32.9630 C   0  0  0  0  0  0  0  0  0  0  0  0
   20.5200    7.5570   33.0350 C   0  0  0  0  0  0  0  0  0  0  0  0
   21.7400    6.5410   29.8170 H   0  0  0  0  0  0  0  0  0  0  0  0
   21.1420    4.7160   31.6710 H   0  0  0  0  0  0  0  0  0  0  0  0
   26.7820    8.4220   30.4410 H   0  0  0  0  0  0  0  0  0  0  0  0
   25.8560    7.1000   31.2130 H   0  0  0  0  0  0  0  0  0  0  0  0
   24.4110    8.5190   32.3080 H   0  0  0  0  0  0  0  0  0  0  0  0
   25.8130    9.6930   32.1110 H   0  0  0  0  0  0  0  0  0  0  0  0
   24.2990   11.1260   29.0460 H   0  0  0  0  0  0  0  0  0  0  0  0
   25.9330   10.5390   29.6340 H   0  0  0  0  0  0  0  0  0  0  0  0
   23.7430    9.0950   28.1950 H   0  0  0  0  0  0  0  0  0  0  0  0
   25.4810    9.0580   27.8140 H   0  0  0  0  0  0  0  0  0  0  0  0
   23.2300   12.4360   30.7610 H   0  0  0  0  0  0  0  0  0  0  0  0
   20.9410   13.8580   30.5630 H   0  0  0  0  0  0  0  0  0  0  0  0
   20.0910   13.7030   32.1980 H   0  0  0  0  0  0  0  0  0  0  0  0
   21.8230   14.1410   32.1040 H   0  0  0  0  0  0  0  0  0  0  0  0
   18.6170   10.3780   33.4060 H   0  0  0  0  0  0  0  0  0  0  0  0
   18.9360    9.1790   34.7320 H   0  0  0  0  0  0  0  0  0  0  0  0
   17.1840    7.9970   33.9150 H   0  0  0  0  0  0  0  0  0  0  0  0
   17.0670    9.0420   32.4600 H   0  0  0  0  0  0  0  0  0  0  0  0
   19.4960    5.7790   32.4230 H   0  0  0  0  0  0  0  0  0  0  0  0
   18.9260    6.4170   33.9900 H   0  0  0  0  0  0  0  0  0  0  0  0
   21.1970    7.2960   32.1880 H   0  0  0  0  0  0  0  0  0  0  0  0
   21.0290    7.3360   34.0060 H   0  0  0  0  0  0  0  0  0  0  0  0
  2  1  1  0  0  0  0
  3  2  1  0  0  0  0
  4  5  2  0  0  0  0
  4  3  1  0  0  0  0
  5  6  1  0  0  0  0
  6  2  2  0  0  0  0
  6 29  1  0  0  0  0
  7  9  1  0  0  0  0
  7  4  1  0  0  0  0
  8  7  2  0  0  0  0
  9 10  1  0  0  0  0
 10 31  1  0  0  0  0
 10 11  1  0  0  0  0
 11 33  1  0  0  0  0
 11 32  1  0  0  0  0
 12 15  1  0  0  0  0
 12 11  1  0  0  0  0
 13 35  1  0  0  0  0
 13 12  1  0  0  0  0
 14  9  1  0  0  0  0
 14 13  1  0  0  0  0
 15 16  1  0  0  0  0
 16 17  2  0  0  0  0
 17 22  1  0  0  0  0
 18 17  1  0  0  0  0
 19 18  2  0  0  0  0
 20 15  2  0  0  0  0
 20 19  1  0  0  0  0
 21 19  1  0  0  0  0
 21 41  1  0  0  0  0
 21 40  1  0  0  0  0
 22 27  1  0  0  0  0
 22 23  1  0  0  0  0
 23 43  1  0  0  0  0
 24 23  1  0  0  0  0
 24 44  1  0  0  0  0
 25 26  1  0  0  0  0
 25 24  1  0  0  0  0
 26 27  1  0  0  0  0
 26 47  1  0  0  0  0
 27 49  1  0  0  0  0
 28  5  1  0  0  0  0
 30 10  1  0  0  0  0
 34 13  1  0  0  0  0
 36 14  1  0  0  0  0
 37 14  1  0  0  0  0
 38 20  1  0  0  0  0
 39 21  1  0  0  0  0
 42 23  1  0  0  0  0
 45 24  1  0  0  0  0
 46 26  1  0  0  0  0
 48 27  1  0  0  0  0
M  END
>  <Pose>
1

>  <Score>
-6.31

$$$$
