
 OpenBabel03202209553D

 43 46  0  0  0  0  0  0  0  0999 V2000
   25.7410   13.8070   20.8650 B   0  0  0  0  0  0  0  0  0  0  0  0
   26.8800   13.5670   22.3630 C   0  0  0  0  0  0  0  0  0  0  0  0
   26.7790   12.7140   23.3370 O   0  0  0  0  0  0  0  0  0  0  0  0
   27.7510   12.8320   24.2050 C   0  0  0  0  0  0  0  0  0  0  0  0
   28.5600   13.8580   23.7530 C   0  0  0  0  0  0  0  0  0  0  0  0
   28.0210   14.3450   22.5720 C   0  0  0  0  0  0  0  0  0  0  0  0
   27.9650   12.0510   25.4180 C   0  0  0  0  0  0  0  0  0  0  0  0
   29.0270   11.2720   25.7240 N   0  0  0  0  0  0  0  0  0  0  0  0
   28.8520   10.7380   26.8990 O   0  0  0  0  0  0  0  0  0  0  0  0
   27.7100   11.1250   27.4070 C   0  0  0  0  0  0  0  0  0  0  0  0
   27.1640   11.9350   26.4920 N   0  0  0  0  0  0  0  0  0  0  0  0
   27.2220   10.7010   28.7140 C   0  0  0  0  0  0  0  0  0  0  0  0
   27.2980    9.4720   29.0530 O   0  0  0  0  0  0  0  0  0  0  0  0
   26.6550   11.6190   29.6410 N   0  0  0  0  0  0  0  0  0  0  0  0
   25.2660   11.6100   29.9540 C   0  0  0  0  0  0  0  0  0  0  0  0
   24.9550   12.2770   31.2770 C   0  0  0  0  0  0  0  0  0  0  0  0
   23.9990   11.4970   32.0510 N   0  0  0  0  0  0  0  0  0  0  0  0
   23.0110   10.7620   31.3730 C   0  0  0  0  0  0  0  0  0  0  0  0
   23.2310   10.5710   30.1240 O   0  0  0  0  0  0  0  0  0  0  0  0
   21.7960   10.2040   31.9100 C   0  0  0  0  0  0  0  0  0  0  0  0
   21.6290    8.8200   31.8820 C   0  0  0  0  0  0  0  0  0  0  0  0
   20.4860    8.2610   32.3960 C   0  0  0  0  0  0  0  0  0  0  0  0
   19.5160    9.0510   32.9300 C   0  0  0  0  0  0  0  0  0  0  0  0
   18.3540    8.4780   33.4520 C   0  0  0  0  0  0  0  0  0  0  0  0
   18.1530    7.1190   33.4440 C   0  0  0  0  0  0  0  0  0  0  0  0
   19.1340    6.3280   32.9030 C   0  0  0  0  0  0  0  0  0  0  0  0
   20.2850    6.8780   32.3850 C   0  0  0  0  0  0  0  0  0  0  0  0
   19.7020   10.3400   32.9420 O   0  0  0  0  0  0  0  0  0  0  0  0
   20.7820   10.9450   32.4630 C   0  0  0  0  0  0  0  0  0  0  0  0
   20.8350   12.1950   32.5360 O   0  0  0  0  0  0  0  0  0  0  0  0
   29.4360   14.1820   24.2590 H   0  0  0  0  0  0  0  0  0  0  0  0
   28.4100   15.1510   21.9560 H   0  0  0  0  0  0  0  0  0  0  0  0
   27.2770   12.3120   30.0970 H   0  0  0  0  0  0  0  0  0  0  0  0
   24.9550   10.5350   30.0650 H   0  0  0  0  0  0  0  0  0  0  0  0
   24.6480   12.0190   29.1310 H   0  0  0  0  0  0  0  0  0  0  0  0
   25.8970   12.2900   31.8630 H   0  0  0  0  0  0  0  0  0  0  0  0
   24.6300   13.3240   31.1360 H   0  0  0  0  0  0  0  0  0  0  0  0
   24.0320   11.4680   33.0860 H   0  0  0  0  0  0  0  0  0  0  0  0
   22.3970    8.1690   31.4570 H   0  0  0  0  0  0  0  0  0  0  0  0
   17.6060    9.1320   33.8690 H   0  0  0  0  0  0  0  0  0  0  0  0
   17.2420    6.7170   33.8570 H   0  0  0  0  0  0  0  0  0  0  0  0
   18.9860    5.2610   32.8910 H   0  0  0  0  0  0  0  0  0  0  0  0
   21.0620    6.2640   31.9580 H   0  0  0  0  0  0  0  0  0  0  0  0
  1  2  1  0  0  0  0
  2  6  2  0  0  0  0
  2  3  1  0  0  0  0
  3  4  1  0  0  0  0
  4  7  1  0  0  0  0
  5  4  2  0  0  0  0
  5 31  1  0  0  0  0
  6  5  1  0  0  0  0
  7  8  2  0  0  0  0
  7 11  1  0  0  0  0
  8  9  1  0  0  0  0
  9 10  1  0  0  0  0
 10 12  1  0  0  0  0
 11 10  2  0  0  0  0
 12 13  2  0  0  0  0
 12 14  1  0  0  0  0
 14 15  1  0  0  0  0
 14 33  1  0  0  0  0
 15 34  1  0  0  0  0
 15 16  1  0  0  0  0
 16 36  1  0  0  0  0
 16 17  1  0  0  0  0
 17 38  1  0  0  0  0
 18 20  1  0  0  0  0
 18 17  1  0  0  0  0
 19 18  2  0  0  0  0
 20 29  1  0  0  0  0
 21 20  2  0  0  0  0
 21 22  1  0  0  0  0
 22 23  1  0  0  0  0
 23 28  1  0  0  0  0
 23 24  2  0  0  0  0
 24 40  1  0  0  0  0
 25 24  1  0  0  0  0
 25 41  1  0  0  0  0
 26 25  2  0  0  0  0
 27 22  2  0  0  0  0
 27 26  1  0  0  0  0
 29 30  2  0  0  0  0
 29 28  1  0  0  0  0
 32  6  1  0  0  0  0
 35 15  1  0  0  0  0
 37 16  1  0  0  0  0
 39 21  1  0  0  0  0
 42 26  1  0  0  0  0
 43 27  1  0  0  0  0
M  END
>  <Pose>
1

>  <Score>
-6.30

$$$$
