
 OpenBabel03202209553D

 63 66  0  0  1  0  0  0  0  0999 V2000
   19.1150    8.9740   33.4500 B   0  0  0  0  0  0  0  0  0  0  0  0
   20.2710    7.7910   32.5090 C   0  0  0  0  0  0  0  0  0  0  0  0
   21.3570    8.3200   31.8590 C   0  0  0  0  0  0  0  0  0  0  0  0
   22.2320    7.5690   31.1670 N   0  0  0  0  0  0  0  0  0  0  0  0
   21.9600    6.2290   31.1580 C   0  0  0  0  0  0  0  0  0  0  0  0
   22.7380    5.4550   30.5280 O   0  0  0  0  0  0  0  0  0  0  0  0
   20.9220    5.6870   31.7740 N   0  0  0  0  0  0  0  0  0  0  0  0
   20.0470    6.4370   32.4650 C   0  0  0  0  0  0  0  0  0  0  0  0
   19.0510    5.9610   33.0640 O   0  0  0  0  0  0  0  0  0  0  0  0
   23.3710    8.0880   30.4810 C   0  0  2  0  0  0  0  0  0  0  0  0
   24.4220    8.6640   31.4380 C   0  0  2  0  0  0  0  0  0  0  0  0
   24.0720   10.0770   31.7550 C   0  0  0  0  0  0  0  0  0  0  0  0
   24.1270   10.8860   30.4790 C   0  0  0  0  0  0  0  0  0  0  0  0
   24.0500   10.0990   29.3450 O   0  0  0  0  0  0  0  0  0  0  0  0
   23.0870    9.1020   29.4240 C   0  0  0  0  0  0  0  0  0  0  0  0
   23.0780   11.9340   30.5620 C   0  0  0  0  0  0  0  0  0  0  0  0
   23.1470   12.7900   29.2870 C   0  0  0  0  0  0  0  0  0  0  0  0
   24.3800   13.5050   29.3120 N   0  0  0  0  0  0  0  0  0  0  0  0
   25.3240   13.0810   30.4000 C   0  0  0  0  0  0  0  0  0  0  0  0
   25.4640   11.5960   30.4460 C   0  0  0  0  0  0  0  0  0  0  0  0
   24.7620   14.5130   28.4480 C   0  0  0  0  0  0  0  0  0  0  0  0
   23.8810   15.4780   28.2850 O   0  0  0  0  0  0  0  0  0  0  0  0
   25.9540   14.6940   27.6980 C   0  0  0  0  0  0  0  0  0  0  0  0
   25.9410   14.5290   26.3010 C   0  0  0  0  0  0  0  0  0  0  0  0
   27.0060   14.6910   25.4730 C   0  0  0  0  0  0  0  0  0  0  0  0
   28.2250   15.0560   26.0820 C   0  0  0  0  0  0  0  0  0  0  0  0
   28.2620   15.2210   27.4250 C   0  0  0  0  0  0  0  0  0  0  0  0
   27.1410   15.0450   28.2530 C   0  0  0  0  0  0  0  0  0  0  0  0
   26.9540   14.5180   24.1220 O   0  0  0  0  0  0  0  0  0  0  0  0
   26.3730   15.2470   23.1280 C   0  0  0  0  0  0  0  0  0  0  0  0
   25.9750   14.4190   21.9550 C   0  0  0  0  0  0  0  0  0  0  0  0
   24.5150   14.3870   21.8510 N   0  0  0  0  0  0  0  0  0  0  0  0
   25.6300    8.6700   30.7360 O   0  0  0  0  0  0  0  0  0  0  0  0
   24.5960    7.7930   32.6400 C   0  0  0  0  0  0  0  0  0  0  0  0
   21.5230    9.3650   31.8970 H   0  0  0  0  0  0  0  0  0  0  0  0
   20.7400    4.6620   31.7500 H   0  0  0  0  0  0  0  0  0  0  0  0
   23.9010    7.2030   30.0130 H   0  0  0  0  0  0  0  0  0  0  0  0
   23.1130   10.2030   32.2930 H   0  0  0  0  0  0  0  0  0  0  0  0
   24.8530   10.4470   32.4830 H   0  0  0  0  0  0  0  0  0  0  0  0
   22.1120    9.5840   29.4720 H   0  0  0  0  0  0  0  0  0  0  0  0
   23.1170    8.5850   28.4180 H   0  0  0  0  0  0  0  0  0  0  0  0
   23.2770   12.5990   31.4100 H   0  0  0  0  0  0  0  0  0  0  0  0
   22.0510   11.5380   30.6950 H   0  0  0  0  0  0  0  0  0  0  0  0
   22.2530   13.4760   29.3780 H   0  0  0  0  0  0  0  0  0  0  0  0
   23.0130   12.0840   28.4530 H   0  0  0  0  0  0  0  0  0  0  0  0
   25.0360   13.5180   31.3550 H   0  0  0  0  0  0  0  0  0  0  0  0
   26.3010   13.5470   30.1320 H   0  0  0  0  0  0  0  0  0  0  0  0
   26.0580   11.3070   29.5310 H   0  0  0  0  0  0  0  0  0  0  0  0
   26.0890   11.3250   31.3290 H   0  0  0  0  0  0  0  0  0  0  0  0
   24.9980   14.2760   25.8650 H   0  0  0  0  0  0  0  0  0  0  0  0
   29.0600   15.1810   25.4140 H   0  0  0  0  0  0  0  0  0  0  0  0
   29.2150   15.5040   27.8790 H   0  0  0  0  0  0  0  0  0  0  0  0
   27.3280   15.2210   29.2830 H   0  0  0  0  0  0  0  0  0  0  0  0
   27.1260   16.0060   22.7330 H   0  0  0  0  0  0  0  0  0  0  0  0
   25.4790   15.8230   23.5130 H   0  0  0  0  0  0  0  0  0  0  0  0
   26.3460   14.7030   20.9810 H   0  0  0  0  0  0  0  0  0  0  0  0
   26.2440   13.3430   22.1730 H   0  0  0  0  0  0  0  0  0  0  0  0
   24.0570   14.7440   22.7030 H   0  0  0  0  0  0  0  0  0  0  0  0
   24.1590   13.4910   21.5060 H   0  0  0  0  0  0  0  0  0  0  0  0
   26.3830    8.3010   31.2630 H   0  0  0  0  0  0  0  0  0  0  0  0
   23.6570    7.4660   33.1070 H   0  0  0  0  0  0  0  0  0  0  0  0
   25.2350    6.9300   32.3430 H   0  0  0  0  0  0  0  0  0  0  0  0
   25.1910    8.3660   33.3860 H   0  0  0  0  0  0  0  0  0  0  0  0
  2  1  1  0  0  0  0
  3 35  1  0  0  0  0
  3  2  2  0  0  0  0
  4  3  1  0  0  0  0
  5  4  1  0  0  0  0
  5  7  1  0  0  0  0
  6  5  2  0  0  0  0
  7  8  1  0  0  0  0
  8  2  1  0  0  0  0
  8  9  2  0  0  0  0
 10 37  1  6  0  0  0
 10  4  1  0  0  0  0
 10 11  1  0  0  0  0
 11 33  1  6  0  0  0
 11 12  1  0  0  0  0
 11 34  1  0  0  0  0
 12 38  1  0  0  0  0
 12 39  1  0  0  0  0
 13 16  1  0  0  0  0
 13 12  1  0  0  0  0
 14 15  1  0  0  0  0
 14 13  1  0  0  0  0
 15 40  1  0  0  0  0
 15 10  1  0  0  0  0
 16 43  1  0  0  0  0
 16 42  1  0  0  0  0
 17 18  1  0  0  0  0
 17 44  1  0  0  0  0
 17 16  1  0  0  0  0
 18 19  1  0  0  0  0
 19 20  1  0  0  0  0
 19 46  1  0  0  0  0
 20 13  1  0  0  0  0
 20 49  1  0  0  0  0
 21 18  1  0  0  0  0
 22 21  2  0  0  0  0
 23 28  1  0  0  0  0
 23 21  1  0  0  0  0
 24 23  2  0  0  0  0
 25 26  2  0  0  0  0
 25 24  1  0  0  0  0
 26 27  1  0  0  0  0
 27 52  1  0  0  0  0
 27 28  2  0  0  0  0
 28 53  1  0  0  0  0
 29 25  1  0  0  0  0
 30 55  1  0  0  0  0
 30 29  1  0  0  0  0
 31 57  1  0  0  0  0
 31 30  1  0  0  0  0
 32 31  1  0  0  0  0
 32 58  1  0  0  0  0
 33 60  1  0  0  0  0
 34 61  1  0  0  0  0
 34 63  1  0  0  0  0
 36  7  1  0  0  0  0
 41 15  1  0  0  0  0
 45 17  1  0  0  0  0
 47 19  1  0  0  0  0
 48 20  1  0  0  0  0
 50 24  1  0  0  0  0
 51 26  1  0  0  0  0
 54 30  1  0  0  0  0
 56 31  1  0  0  0  0
 59 32  1  0  0  0  0
 62 34  1  0  0  0  0
M  END
>  <Pose>
1

>  <Score>
-7.23

$$$$
