
 OpenBabel03202209553D

 63 66  0  0  1  0  0  0  0  0999 V2000
   23.4340   16.5260   27.1150 B   0  0  0  0  0  0  0  0  0  0  0  0
   22.8390   16.4030   28.9370 C   0  0  0  0  0  0  0  0  0  0  0  0
   22.9400   15.2140   29.6220 C   0  0  0  0  0  0  0  0  0  0  0  0
   22.5330   15.1130   30.8820 N   0  0  0  0  0  0  0  0  0  0  0  0
   22.0160   16.1640   31.5130 C   0  0  0  0  0  0  0  0  0  0  0  0
   21.6140   16.1080   32.7220 O   0  0  0  0  0  0  0  0  0  0  0  0
   21.9080   17.3330   30.8620 N   0  0  0  0  0  0  0  0  0  0  0  0
   22.3030   17.4960   29.5860 C   0  0  0  0  0  0  0  0  0  0  0  0
   22.1880   18.6120   28.9990 O   0  0  0  0  0  0  0  0  0  0  0  0
   22.6600   13.8480   31.5780 C   0  0  1  0  0  0  0  0  0  0  0  0
   21.5580   12.8970   31.3330 C   0  0  1  0  0  0  0  0  0  0  0  0
   21.9640   11.4240   31.4580 C   0  0  0  0  0  0  0  0  0  0  0  0
   23.1450   11.1210   30.5690 C   0  0  2  0  0  0  0  0  0  0  0  0
   23.8590   12.2630   30.2590 O   0  0  0  0  0  0  0  0  0  0  0  0
   23.9690   13.1790   31.2590 C   0  0  0  0  0  0  0  0  0  0  0  0
   22.6130   10.4360   29.3230 C   0  0  0  0  0  0  0  0  0  0  0  0
   22.7100    8.9410   29.4620 C   0  0  0  0  0  0  0  0  0  0  0  0
   22.3590    8.5780   30.8110 N   0  0  0  0  0  0  0  0  0  0  0  0
   23.3030    8.9840   31.8420 C   0  0  0  0  0  0  0  0  0  0  0  0
   24.0610   10.1810   31.3140 C   0  0  0  0  0  0  0  0  0  0  0  0
   21.1910    7.8620   31.0870 C   0  0  0  0  0  0  0  0  0  0  0  0
   20.1770    8.1630   30.3580 O   0  0  0  0  0  0  0  0  0  0  0  0
   20.9540    6.8250   32.0850 C   0  0  1  0  0  0  0  0  0  0  0  0
   19.6930    7.0290   32.7980 N   0  0  0  0  0  0  0  0  0  0  0  0
   20.9020    5.4120   31.5480 C   0  0  0  0  0  0  0  0  0  0  0  0
   22.3380    4.9630   31.4230 C   0  0  0  0  0  0  0  0  0  0  0  0
   23.1650    5.5450   30.4980 C   0  0  0  0  0  0  0  0  0  0  0  0
   24.4820    5.1010   30.4160 C   0  0  0  0  0  0  0  0  0  0  0  0
   24.9630    4.1050   31.2330 C   0  0  0  0  0  0  0  0  0  0  0  0
   24.1000    3.5430   32.1520 C   0  0  0  0  0  0  0  0  0  0  0  0
   22.7890    3.9610   32.2570 C   0  0  0  0  0  0  0  0  0  0  0  0
   26.2800    3.7050   31.1070 O   0  0  0  0  0  0  0  0  0  0  0  0
   20.6180   13.0730   32.3810 O   0  0  0  0  0  0  0  0  0  0  0  0
   20.7940   13.1040   30.0670 C   0  0  0  0  0  0  0  0  0  0  0  0
   23.3700   14.3790   29.0630 H   0  0  0  0  0  0  0  0  0  0  0  0
   21.4940   18.1740   31.3670 H   0  0  0  0  0  0  0  0  0  0  0  0
   22.7070   14.1310   32.6780 H   0  0  0  0  0  0  0  0  0  0  0  0
   22.2240   11.1740   32.4930 H   0  0  0  0  0  0  0  0  0  0  0  0
   21.1160   10.8040   31.1500 H   0  0  0  0  0  0  0  0  0  0  0  0
   24.7630   13.9200   31.0020 H   0  0  0  0  0  0  0  0  0  0  0  0
   24.3080   12.6390   32.1930 H   0  0  0  0  0  0  0  0  0  0  0  0
   21.5670   10.7080   29.1190 H   0  0  0  0  0  0  0  0  0  0  0  0
   23.2180   10.6990   28.4270 H   0  0  0  0  0  0  0  0  0  0  0  0
   22.1140    8.4270   28.6800 H   0  0  0  0  0  0  0  0  0  0  0  0
   23.7690    8.6590   29.2250 H   0  0  0  0  0  0  0  0  0  0  0  0
   22.8430    9.2550   32.7890 H   0  0  0  0  0  0  0  0  0  0  0  0
   24.0310    8.1740   32.0230 H   0  0  0  0  0  0  0  0  0  0  0  0
   24.9220    9.8810   30.6790 H   0  0  0  0  0  0  0  0  0  0  0  0
   24.5030   10.6710   32.1990 H   0  0  0  0  0  0  0  0  0  0  0  0
   21.7640    6.8610   32.8420 H   0  0  0  0  0  0  0  0  0  0  0  0
   19.6520    6.4480   33.6630 H   0  0  0  0  0  0  0  0  0  0  0  0
   18.9080    6.6960   32.1850 H   0  0  0  0  0  0  0  0  0  0  0  0
   20.4080    4.7070   32.2140 H   0  0  0  0  0  0  0  0  0  0  0  0
   20.4450    5.3410   30.5620 H   0  0  0  0  0  0  0  0  0  0  0  0
   22.7750    6.3230   29.8680 H   0  0  0  0  0  0  0  0  0  0  0  0
   25.1340    5.5580   29.6890 H   0  0  0  0  0  0  0  0  0  0  0  0
   24.4610    2.7670   32.7920 H   0  0  0  0  0  0  0  0  0  0  0  0
   22.1040    3.5280   32.9750 H   0  0  0  0  0  0  0  0  0  0  0  0
   27.0100    3.9210   31.7860 H   0  0  0  0  0  0  0  0  0  0  0  0
   19.7700   12.6090   32.1910 H   0  0  0  0  0  0  0  0  0  0  0  0
   21.3810   13.0780   29.1460 H   0  0  0  0  0  0  0  0  0  0  0  0
   20.0190   12.3150   29.9950 H   0  0  0  0  0  0  0  0  0  0  0  0
   20.2030   14.0640   30.1620 H   0  0  0  0  0  0  0  0  0  0  0  0
  1  2  1  0  0  0  0
  2  8  1  0  0  0  0
  2  3  2  0  0  0  0
  3  4  1  0  0  0  0
  4  5  1  0  0  0  0
  4 10  1  0  0  0  0
  5  6  2  0  0  0  0
  7 36  1  0  0  0  0
  7  5  1  0  0  0  0
  8  7  1  0  0  0  0
  9  8  2  0  0  0  0
 10 37  1  1  0  0  0
 11 12  1  0  0  0  0
 11 10  1  0  0  0  0
 11 33  1  1  0  0  0
 12 38  1  0  0  0  0
 13 14  1  6  0  0  0
 13 20  1  0  0  0  0
 13 12  1  0  0  0  0
 14 15  1  0  0  0  0
 15 10  1  0  0  0  0
 15 41  1  0  0  0  0
 16 17  1  0  0  0  0
 16 13  1  0  0  0  0
 17 18  1  0  0  0  0
 18 21  1  0  0  0  0
 18 19  1  0  0  0  0
 19 47  1  0  0  0  0
 19 46  1  0  0  0  0
 20 19  1  0  0  0  0
 20 49  1  0  0  0  0
 21 23  1  0  0  0  0
 22 21  2  0  0  0  0
 23 24  1  0  0  0  0
 23 50  1  1  0  0  0
 24 51  1  0  0  0  0
 25 23  1  0  0  0  0
 25 53  1  0  0  0  0
 26 25  1  0  0  0  0
 26 31  1  0  0  0  0
 27 26  2  0  0  0  0
 28 27  1  0  0  0  0
 28 29  2  0  0  0  0
 29 30  1  0  0  0  0
 30 31  2  0  0  0  0
 30 57  1  0  0  0  0
 31 58  1  0  0  0  0
 32 29  1  0  0  0  0
 32 59  1  0  0  0  0
 34 63  1  0  0  0  0
 34 11  1  0  0  0  0
 35  3  1  0  0  0  0
 39 12  1  0  0  0  0
 40 15  1  0  0  0  0
 42 16  1  0  0  0  0
 43 16  1  0  0  0  0
 44 17  1  0  0  0  0
 45 17  1  0  0  0  0
 48 20  1  0  0  0  0
 52 24  1  0  0  0  0
 54 25  1  0  0  0  0
 55 27  1  0  0  0  0
 56 28  1  0  0  0  0
 60 33  1  0  0  0  0
 61 34  1  0  0  0  0
 62 34  1  0  0  0  0
M  END
>  <Pose>
1

>  <Score>
-7.17

$$$$
