
 OpenBabel03202209553D

 64 67  0  0  1  0  0  0  0  0999 V2000
   18.9980   14.9690   30.5050 B   0  0  0  0  0  0  0  0  0  0  0  0
   20.7430   14.7070   31.1950 C   0  0  0  0  0  0  0  0  0  0  0  0
   21.3340   13.4510   31.0600 C   0  0  0  0  0  0  0  0  0  0  0  0
   22.5600   13.1900   31.5200 N   0  0  0  0  0  0  0  0  0  0  0  0
   23.2100   14.2250   32.1320 C   0  0  0  0  0  0  0  0  0  0  0  0
   24.3710   14.0300   32.5830 O   0  0  0  0  0  0  0  0  0  0  0  0
   22.6660   15.4460   32.2760 N   0  0  0  0  0  0  0  0  0  0  0  0
   21.4320   15.7230   31.8190 C   0  0  0  0  0  0  0  0  0  0  0  0
   20.9160   16.8800   31.9540 O   0  0  0  0  0  0  0  0  0  0  0  0
   23.2260   11.9550   31.4250 C   0  0  1  0  0  0  0  0  0  0  0  0
   22.9700   11.2390   30.0890 C   0  0  1  0  0  0  0  0  0  0  0  0
   23.2970    9.7690   30.3890 C   0  0  0  0  0  0  0  0  0  0  0  0
   24.6610    9.6450   31.0100 C   0  0  2  0  0  0  0  0  0  0  0  0
   25.2940   10.8640   30.9560 O   0  0  0  0  0  0  0  0  0  0  0  0
   24.6750   11.8790   31.6810 C   0  0  0  0  0  0  0  0  0  0  0  0
   25.4500    8.7010   30.1140 C   0  0  0  0  0  0  0  0  0  0  0  0
   25.1630    7.2720   30.5020 C   0  0  0  0  0  0  0  0  0  0  0  0
   23.8780    7.1840   31.2150 N   0  0  0  0  0  0  0  0  0  0  0  0
   23.8520    7.7990   32.5090 C   0  0  0  0  0  0  0  0  0  0  0  0
   24.6730    9.0800   32.3850 C   0  0  0  0  0  0  0  0  0  0  0  0
   22.7520    6.5800   30.6570 C   0  0  0  0  0  0  0  0  0  0  0  0
   22.6310    6.4560   29.3760 O   0  0  0  0  0  0  0  0  0  0  0  0
   21.6520    6.0530   31.4500 C   0  0  1  0  0  0  0  0  0  0  0  0
   21.8090    4.6370   31.6780 N   0  0  0  0  0  0  0  0  0  0  0  0
   22.9780    3.9120   31.8750 C   0  0  0  0  0  0  0  0  0  0  0  0
   23.9400    3.8560   31.0810 O   0  0  0  0  0  0  0  0  0  0  0  0
   23.1780    3.0940   33.1370 C   0  0  0  0  0  0  0  0  0  0  0  0
   21.5440    6.7730   32.8310 C   0  0  0  0  0  0  0  0  0  0  0  0
   20.1320    7.0620   33.1370 C   0  0  0  0  0  0  0  0  0  0  0  0
   19.1410    6.2350   33.4340 N   0  0  0  0  0  0  0  0  0  0  0  0
   17.9780    6.9080   33.6510 C   0  0  0  0  0  0  0  0  0  0  0  0
   18.2630    8.2130   33.4800 N   0  0  0  0  0  0  0  0  0  0  0  0
   19.5700    8.3280   33.1650 C   0  0  0  0  0  0  0  0  0  0  0  0
   21.6520   11.3250   29.6970 O   0  0  0  0  0  0  0  0  0  0  0  0
   23.8320   11.7940   29.0000 C   0  0  0  0  0  0  0  0  0  0  0  0
   20.8100   12.6360   30.5750 H   0  0  0  0  0  0  0  0  0  0  0  0
   23.2350   16.1900   32.7610 H   0  0  0  0  0  0  0  0  0  0  0  0
   22.7390   11.2620   32.1820 H   0  0  0  0  0  0  0  0  0  0  0  0
   23.1850    9.2090   29.4400 H   0  0  0  0  0  0  0  0  0  0  0  0
   22.4980    9.4350   31.0760 H   0  0  0  0  0  0  0  0  0  0  0  0
   24.8800   11.6460   32.7690 H   0  0  0  0  0  0  0  0  0  0  0  0
   25.2750   12.7850   31.4900 H   0  0  0  0  0  0  0  0  0  0  0  0
   25.2150    8.8170   29.0530 H   0  0  0  0  0  0  0  0  0  0  0  0
   26.5230    8.9580   30.2440 H   0  0  0  0  0  0  0  0  0  0  0  0
   25.9130    6.8550   31.2090 H   0  0  0  0  0  0  0  0  0  0  0  0
   25.0940    6.6140   29.6260 H   0  0  0  0  0  0  0  0  0  0  0  0
   22.8310    8.0440   32.8850 H   0  0  0  0  0  0  0  0  0  0  0  0
   24.3110    7.1130   33.2440 H   0  0  0  0  0  0  0  0  0  0  0  0
   24.3130    9.7420   33.1780 H   0  0  0  0  0  0  0  0  0  0  0  0
   25.7170    8.7990   32.6330 H   0  0  0  0  0  0  0  0  0  0  0  0
   20.6210    6.2180   31.0560 H   0  0  0  0  0  0  0  0  0  0  0  0
   20.8930    4.0910   31.6920 H   0  0  0  0  0  0  0  0  0  0  0  0
   23.7710    2.2000   32.9380 H   0  0  0  0  0  0  0  0  0  0  0  0
   23.7020    3.7190   33.8910 H   0  0  0  0  0  0  0  0  0  0  0  0
   22.1950    2.8240   33.5540 H   0  0  0  0  0  0  0  0  0  0  0  0
   21.9760    6.1670   33.6180 H   0  0  0  0  0  0  0  0  0  0  0  0
   22.1260    7.7290   32.7550 H   0  0  0  0  0  0  0  0  0  0  0  0
   17.0210    6.4590   33.9100 H   0  0  0  0  0  0  0  0  0  0  0  0
   17.5490    8.9750   33.5840 H   0  0  0  0  0  0  0  0  0  0  0  0
   20.0540    9.2750   32.9760 H   0  0  0  0  0  0  0  0  0  0  0  0
   21.6030   11.7910   28.8230 H   0  0  0  0  0  0  0  0  0  0  0  0
   23.2290   12.2800   28.1820 H   0  0  0  0  0  0  0  0  0  0  0  0
   24.5330   12.5890   29.3550 H   0  0  0  0  0  0  0  0  0  0  0  0
   24.4410   11.0240   28.5230 H   0  0  0  0  0  0  0  0  0  0  0  0
  1  2  1  0  0  0  0
  2  8  1  0  0  0  0
  3  2  2  0  0  0  0
  3  4  1  0  0  0  0
  4  5  1  0  0  0  0
  5  7  1  0  0  0  0
  5  6  2  0  0  0  0
  7 37  1  0  0  0  0
  8  9  2  0  0  0  0
  8  7  1  0  0  0  0
 10  4  1  0  0  0  0
 10 15  1  0  0  0  0
 10 38  1  1  0  0  0
 11 34  1  6  0  0  0
 11 12  1  0  0  0  0
 11 10  1  0  0  0  0
 12 13  1  0  0  0  0
 12 40  1  0  0  0  0
 13 14  1  1  0  0  0
 13 20  1  0  0  0  0
 14 15  1  0  0  0  0
 15 41  1  0  0  0  0
 16 44  1  0  0  0  0
 16 17  1  0  0  0  0
 16 13  1  0  0  0  0
 17 45  1  0  0  0  0
 17 18  1  0  0  0  0
 18 19  1  0  0  0  0
 19 47  1  0  0  0  0
 19 48  1  0  0  0  0
 20 19  1  0  0  0  0
 20 50  1  0  0  0  0
 20 49  1  0  0  0  0
 21 18  1  0  0  0  0
 21 23  1  0  0  0  0
 22 21  2  0  0  0  0
 23 51  1  6  0  0  0
 23 24  1  0  0  0  0
 23 28  1  0  0  0  0
 24 52  1  0  0  0  0
 24 25  1  0  0  0  0
 25 27  1  0  0  0  0
 26 25  2  0  0  0  0
 27 55  1  0  0  0  0
 27 54  1  0  0  0  0
 28 29  1  0  0  0  0
 28 56  1  0  0  0  0
 29 33  2  0  0  0  0
 29 30  1  0  0  0  0
 30 31  2  0  0  0  0
 31 58  1  0  0  0  0
 32 59  1  0  0  0  0
 32 31  1  0  0  0  0
 33 32  1  0  0  0  0
 35 63  1  0  0  0  0
 35 11  1  0  0  0  0
 36  3  1  0  0  0  0
 39 12  1  0  0  0  0
 42 15  1  0  0  0  0
 43 16  1  0  0  0  0
 46 17  1  0  0  0  0
 53 27  1  0  0  0  0
 57 28  1  0  0  0  0
 60 33  1  0  0  0  0
 61 34  1  0  0  0  0
 62 35  1  0  0  0  0
 64 35  1  0  0  0  0
M  END
>  <Pose>
1

>  <Score>
-7.43

$$$$
