
 OpenBabel03202209553D

 41 44  0  0  1  0  0  0  0  0999 V2000
   22.9730   19.8990   26.5330 B   0  0  0  0  0  0  0  0  0  0  0  0
   23.2410   18.1000   27.1310 C   0  0  0  0  0  0  0  0  0  0  0  0
   22.5900   17.5900   28.2330 C   0  0  0  0  0  0  0  0  0  0  0  0
   22.7790   16.3090   28.6600 N   0  0  0  0  0  0  0  0  0  0  0  0
   23.6300   15.5200   27.9800 C   0  0  0  0  0  0  0  0  0  0  0  0
   23.6580   14.3140   28.5720 N   0  0  0  0  0  0  0  0  0  0  0  0
   22.8310   14.3160   29.6340 C   0  0  0  0  0  0  0  0  0  0  0  0
   22.2820   15.5810   29.6770 C   0  0  0  0  0  0  0  0  0  0  0  0
   22.5560   13.1990   30.5720 C   0  0  0  0  0  0  0  0  0  0  0  0
   22.4150   11.9450   29.8660 N   0  0  0  0  0  0  0  0  0  0  0  0
   22.3640   10.7430   30.5890 C   0  0  0  0  0  0  0  0  0  0  0  0
   21.4070    9.9570   30.4270 O   0  0  0  0  0  0  0  0  0  0  0  0
   23.4350   10.3950   31.5410 C   0  0  1  0  0  0  0  0  0  0  0  0
   23.0780    9.1460   32.3060 C   0  0  0  0  0  0  0  0  0  0  0  0
   22.9210    8.0840   31.3300 N   0  0  0  0  0  0  0  0  0  0  0  0
   23.7170    8.0390   30.2500 C   0  0  0  0  0  0  0  0  0  0  0  0
   23.3440    6.9590   29.5340 N   0  0  0  0  0  0  0  0  0  0  0  0
   22.3610    6.3570   30.1360 N   0  0  0  0  0  0  0  0  0  0  0  0
   22.0890    7.0450   31.2520 C   0  0  0  0  0  0  0  0  0  0  0  0
   21.0070    6.6420   32.2030 C   0  0  0  0  0  0  0  0  0  0  0  0
   24.7820    9.0100   29.9530 C   0  0  0  0  0  0  0  0  0  0  0  0
   24.7360   10.2320   30.7990 C   0  0  0  0  0  0  0  0  0  0  0  0
   24.3030   16.0060   26.8620 C   0  0  0  0  0  0  0  0  0  0  0  0
   24.1150   17.2950   26.4310 C   0  0  0  0  0  0  0  0  0  0  0  0
   21.9170   18.2220   28.7680 H   0  0  0  0  0  0  0  0  0  0  0  0
   21.5690   15.9960   30.3760 H   0  0  0  0  0  0  0  0  0  0  0  0
   23.3670   13.1610   31.3390 H   0  0  0  0  0  0  0  0  0  0  0  0
   21.6090   13.4140   31.1390 H   0  0  0  0  0  0  0  0  0  0  0  0
   22.3500   11.9190   28.8300 H   0  0  0  0  0  0  0  0  0  0  0  0
   23.5720   11.2610   32.2310 H   0  0  0  0  0  0  0  0  0  0  0  0
   23.9200    8.8970   32.9940 H   0  0  0  0  0  0  0  0  0  0  0  0
   22.1510    9.3360   32.8820 H   0  0  0  0  0  0  0  0  0  0  0  0
   20.7260    7.4920   32.8320 H   0  0  0  0  0  0  0  0  0  0  0  0
   20.0920    6.3210   31.6350 H   0  0  0  0  0  0  0  0  0  0  0  0
   21.3590    5.7680   32.7860 H   0  0  0  0  0  0  0  0  0  0  0  0
   25.7870    8.5280   30.1080 H   0  0  0  0  0  0  0  0  0  0  0  0
   24.7370    9.2470   28.8690 H   0  0  0  0  0  0  0  0  0  0  0  0
   24.8610   11.1370   30.1460 H   0  0  0  0  0  0  0  0  0  0  0  0
   25.5640   10.2650   31.5400 H   0  0  0  0  0  0  0  0  0  0  0  0
   24.9730   15.3210   26.3590 H   0  0  0  0  0  0  0  0  0  0  0  0
   24.6610   17.6290   25.5540 H   0  0  0  0  0  0  0  0  0  0  0  0
  1  2  1  0  0  0  0
  2  3  2  0  0  0  0
  3  4  1  0  0  0  0
  3 25  1  0  0  0  0
  4  8  1  0  0  0  0
  5  6  2  0  0  0  0
  5  4  1  0  0  0  0
  6  7  1  0  0  0  0
  7  8  2  0  0  0  0
  7  9  1  0  0  0  0
  8 26  1  0  0  0  0
  9 28  1  0  0  0  0
  9 27  1  0  0  0  0
 10  9  1  0  0  0  0
 10 11  1  0  0  0  0
 11 13  1  0  0  0  0
 12 11  2  0  0  0  0
 13 30  1  1  0  0  0
 13 14  1  0  0  0  0
 14 32  1  0  0  0  0
 14 31  1  0  0  0  0
 15 14  1  0  0  0  0
 16 15  1  0  0  0  0
 17 18  1  0  0  0  0
 17 16  2  0  0  0  0
 18 19  2  0  0  0  0
 19 15  1  0  0  0  0
 19 20  1  0  0  0  0
 20 35  1  0  0  0  0
 20 33  1  0  0  0  0
 21 36  1  0  0  0  0
 21 16  1  0  0  0  0
 21 22  1  0  0  0  0
 22 39  1  0  0  0  0
 22 13  1  0  0  0  0
 23  5  1  0  0  0  0
 24 23  2  0  0  0  0
 24  2  1  0  0  0  0
 29 10  1  0  0  0  0
 34 20  1  0  0  0  0
 37 21  1  0  0  0  0
 38 22  1  0  0  0  0
 40 23  1  0  0  0  0
 41 24  1  0  0  0  0
M  END
>  <Pose>
1

>  <Score>
-6.32

$$$$
