
 OpenBabel03202209553D

 39 42  0  0  0  0  0  0  0  0999 V2000
   17.4010    7.7770   33.3700 B   0  0  0  0  0  0  0  0  0  0  0  0
   19.1880    8.0930   32.7940 C   0  0  0  0  0  0  0  0  0  0  0  0
   19.9530    7.0790   32.3090 C   0  0  0  0  0  0  0  0  0  0  0  0
   21.2000    7.2930   31.9060 N   0  0  0  0  0  0  0  0  0  0  0  0
   22.1230    6.4720   31.4040 N   0  0  0  0  0  0  0  0  0  0  0  0
   23.2300    7.1910   31.1550 C   0  0  0  0  0  0  0  0  0  0  0  0
   23.0090    8.5020   31.5070 C   0  0  0  0  0  0  0  0  0  0  0  0
   21.7030    8.5370   31.9830 C   0  0  0  0  0  0  0  0  0  0  0  0
   20.9610    9.5480   32.4590 N   0  0  0  0  0  0  0  0  0  0  0  0
   19.7050    9.3570   32.8710 C   0  0  0  0  0  0  0  0  0  0  0  0
   23.9020    9.6310   31.4210 C   0  0  0  0  0  0  0  0  0  0  0  0
   24.7810    9.7620   32.3200 O   0  0  0  0  0  0  0  0  0  0  0  0
   23.8000   10.5680   30.3600 N   0  0  0  0  0  0  0  0  0  0  0  0
   22.4490   10.9170   29.8940 C   0  0  0  0  0  0  0  0  0  0  0  0
   22.6140   12.3170   29.3030 C   0  0  0  0  0  0  0  0  0  0  0  0
   23.5330   13.0000   30.1650 N   0  0  0  0  0  0  0  0  0  0  0  0
   24.9550   12.6960   29.8290 C   0  0  0  0  0  0  0  0  0  0  0  0
   24.9750   11.1680   29.7470 C   0  0  0  0  0  0  0  0  0  0  0  0
   23.2580   13.8270   31.2410 C   0  0  0  0  0  0  0  0  0  0  0  0
   24.0740   13.7710   32.2520 O   0  0  0  0  0  0  0  0  0  0  0  0
   22.1720   14.7740   31.4330 C   0  0  0  0  0  0  0  0  0  0  0  0
   22.3380   16.0700   31.7290 O   0  0  0  0  0  0  0  0  0  0  0  0
   21.2130   16.6870   31.8480 C   0  0  0  0  0  0  0  0  0  0  0  0
   20.1840   15.8060   31.6300 C   0  0  0  0  0  0  0  0  0  0  0  0
   20.8110   14.5990   31.3690 C   0  0  0  0  0  0  0  0  0  0  0  0
   19.5410    6.0670   32.2470 H   0  0  0  0  0  0  0  0  0  0  0  0
   24.1410    6.7720   30.7410 H   0  0  0  0  0  0  0  0  0  0  0  0
   19.0820   10.1500   33.2580 H   0  0  0  0  0  0  0  0  0  0  0  0
   21.7840   11.0120   30.7560 H   0  0  0  0  0  0  0  0  0  0  0  0
   22.1350   10.2150   29.1200 H   0  0  0  0  0  0  0  0  0  0  0  0
   21.7040   12.8150   29.0290 H   0  0  0  0  0  0  0  0  0  0  0  0
   23.1310   12.1420   28.2860 H   0  0  0  0  0  0  0  0  0  0  0  0
   25.6300   13.0880   30.5950 H   0  0  0  0  0  0  0  0  0  0  0  0
   25.1040   13.1570   28.8310 H   0  0  0  0  0  0  0  0  0  0  0  0
   25.0650   10.8250   28.7030 H   0  0  0  0  0  0  0  0  0  0  0  0
   25.8530   10.8310   30.3270 H   0  0  0  0  0  0  0  0  0  0  0  0
   21.0610   17.7520   32.0860 H   0  0  0  0  0  0  0  0  0  0  0  0
   19.1070   15.9940   31.6530 H   0  0  0  0  0  0  0  0  0  0  0  0
   20.2550   13.6940   31.1670 H   0  0  0  0  0  0  0  0  0  0  0  0
  2 10  1  0  0  0  0
  2  1  1  0  0  0  0
  3  2  2  0  0  0  0
  4  8  1  0  0  0  0
  4  3  1  0  0  0  0
  5  4  1  0  0  0  0
  6  5  2  0  0  0  0
  6  7  1  0  0  0  0
  7  8  2  0  0  0  0
  8  9  1  0  0  0  0
  9 10  2  0  0  0  0
 10 28  1  0  0  0  0
 11  7  1  0  0  0  0
 11 12  2  0  0  0  0
 13 11  1  0  0  0  0
 14 13  1  0  0  0  0
 14 29  1  0  0  0  0
 15 14  1  0  0  0  0
 15 16  1  0  0  0  0
 16 19  1  0  0  0  0
 17 16  1  0  0  0  0
 17 33  1  0  0  0  0
 18 17  1  0  0  0  0
 18 36  1  0  0  0  0
 18 13  1  0  0  0  0
 19 21  1  0  0  0  0
 19 20  2  0  0  0  0
 21 22  1  0  0  0  0
 22 23  1  0  0  0  0
 23 37  1  0  0  0  0
 24 38  1  0  0  0  0
 24 23  2  0  0  0  0
 25 21  2  0  0  0  0
 25 24  1  0  0  0  0
 26  3  1  0  0  0  0
 27  6  1  0  0  0  0
 30 14  1  0  0  0  0
 31 15  1  0  0  0  0
 32 15  1  0  0  0  0
 34 17  1  0  0  0  0
 35 18  1  0  0  0  0
 39 25  1  0  0  0  0
M  END
>  <Pose>
1

>  <Score>
-6.65

$$$$
