
 OpenBabel03202209553D

 45 48  0  0  0  0  0  0  0  0999 V2000
   17.4180    7.5040   33.4510 B   0  0  0  0  0  0  0  0  0  0  0  0
   19.1390    8.0990   32.8740 C   0  0  0  0  0  0  0  0  0  0  0  0
   19.9900    7.1980   32.2710 C   0  0  0  0  0  0  0  0  0  0  0  0
   21.2010    7.6130   31.8640 N   0  0  0  0  0  0  0  0  0  0  0  0
   21.6070    8.8890   32.0290 C   0  0  0  0  0  0  0  0  0  0  0  0
   22.8330    9.2870   31.6110 N   0  0  0  0  0  0  0  0  0  0  0  0
   23.6950    8.4430   31.0190 C   0  0  0  0  0  0  0  0  0  0  0  0
   23.2990    7.1380   30.8420 C   0  0  0  0  0  0  0  0  0  0  0  0
   22.0340    6.7270   31.2730 C   0  0  0  0  0  0  0  0  0  0  0  0
   21.6660    5.5510   31.1180 O   0  0  0  0  0  0  0  0  0  0  0  0
   25.0360    8.8910   30.5650 C   0  0  0  0  0  0  0  0  0  0  0  0
   24.8740    9.9960   29.6970 O   0  0  0  0  0  0  0  0  0  0  0  0
   25.8720   10.9090   29.4540 C   0  0  0  0  0  0  0  0  0  0  0  0
   27.0350   10.6390   29.8520 O   0  0  0  0  0  0  0  0  0  0  0  0
   25.6770   12.2040   28.7510 C   0  0  0  0  0  0  0  0  0  0  0  0
   24.3330   12.6910   28.8580 N   0  0  0  0  0  0  0  0  0  0  0  0
   23.4030   12.8590   27.7890 C   0  0  0  0  0  0  0  0  0  0  0  0
   23.6390   12.5960   26.5750 O   0  0  0  0  0  0  0  0  0  0  0  0
   22.1910   13.3650   28.3350 N   0  0  0  0  0  0  0  0  0  0  0  0
   22.3990   13.6710   29.7280 C   0  0  0  0  0  0  0  0  0  0  0  0
   22.4270   15.1510   30.0050 C   0  0  0  0  0  0  0  0  0  0  0  0
   22.1590   15.2300   31.4750 C   0  0  0  0  0  0  0  0  0  0  0  0
   21.6150   13.9030   31.9180 C   0  0  0  0  0  0  0  0  0  0  0  0
   21.3110   13.1820   30.6230 C   0  0  0  0  0  0  0  0  0  0  0  0
   23.6970   13.0940   30.0730 C   0  0  0  0  0  0  0  0  0  0  0  0
   24.2110   12.9510   31.2070 O   0  0  0  0  0  0  0  0  0  0  0  0
   20.7580    9.7970   32.6330 C   0  0  0  0  0  0  0  0  0  0  0  0
   19.5070    9.4210   33.0680 C   0  0  0  0  0  0  0  0  0  0  0  0
   19.7090    6.1630   32.1170 H   0  0  0  0  0  0  0  0  0  0  0  0
   23.9740    6.4370   30.3670 H   0  0  0  0  0  0  0  0  0  0  0  0
   25.6300    9.2120   31.4410 H   0  0  0  0  0  0  0  0  0  0  0  0
   25.5540    8.0530   30.0450 H   0  0  0  0  0  0  0  0  0  0  0  0
   26.4240   12.9470   29.1100 H   0  0  0  0  0  0  0  0  0  0  0  0
   25.9370   12.0090   27.6770 H   0  0  0  0  0  0  0  0  0  0  0  0
   21.3180   13.4810   27.7910 H   0  0  0  0  0  0  0  0  0  0  0  0
   23.4790   15.5010   29.7990 H   0  0  0  0  0  0  0  0  0  0  0  0
   21.7280   15.7310   29.4000 H   0  0  0  0  0  0  0  0  0  0  0  0
   21.3560   16.0000   31.6470 H   0  0  0  0  0  0  0  0  0  0  0  0
   23.0800   15.5250   32.0280 H   0  0  0  0  0  0  0  0  0  0  0  0
   20.6930   14.0170   32.5320 H   0  0  0  0  0  0  0  0  0  0  0  0
   22.3350   13.3200   32.5450 H   0  0  0  0  0  0  0  0  0  0  0  0
   21.2930   12.0840   30.7620 H   0  0  0  0  0  0  0  0  0  0  0  0
   20.3170   13.5370   30.2620 H   0  0  0  0  0  0  0  0  0  0  0  0
   21.1100   10.8090   32.7520 H   0  0  0  0  0  0  0  0  0  0  0  0
   18.8300   10.1160   33.5420 H   0  0  0  0  0  0  0  0  0  0  0  0
  2 28  2  0  0  0  0
  2  1  1  0  0  0  0
  3  2  1  0  0  0  0
  4  5  1  0  0  0  0
  4  3  1  0  0  0  0
  5 27  2  0  0  0  0
  6  5  1  0  0  0  0
  7  6  2  0  0  0  0
  8  7  1  0  0  0  0
  8  9  1  0  0  0  0
  9  4  1  0  0  0  0
 10  9  2  0  0  0  0
 11  7  1  0  0  0  0
 11 31  1  0  0  0  0
 12 11  1  0  0  0  0
 13 12  1  0  0  0  0
 13 14  2  0  0  0  0
 15 16  1  0  0  0  0
 15 33  1  0  0  0  0
 15 13  1  0  0  0  0
 16 25  1  0  0  0  0
 17 19  1  0  0  0  0
 17 16  1  0  0  0  0
 18 17  2  0  0  0  0
 19 20  1  0  0  0  0
 20 21  1  0  0  0  0
 20 25  1  0  0  0  0
 20 24  1  0  0  0  0
 21 22  1  0  0  0  0
 22 38  1  0  0  0  0
 22 23  1  0  0  0  0
 22 39  1  0  0  0  0
 23 40  1  0  0  0  0
 23 41  1  0  0  0  0
 24 42  1  0  0  0  0
 24 23  1  0  0  0  0
 25 26  2  0  0  0  0
 27 44  1  0  0  0  0
 27 28  1  0  0  0  0
 28 45  1  0  0  0  0
 29  3  1  0  0  0  0
 30  8  1  0  0  0  0
 32 11  1  0  0  0  0
 34 15  1  0  0  0  0
 35 19  1  0  0  0  0
 36 21  1  0  0  0  0
 37 21  1  0  0  0  0
 43 24  1  0  0  0  0
M  END
>  <Pose>
1

>  <Score>
-6.02

$$$$
