
 OpenBabel03202209553D

 47 50  0  0  0  0  0  0  0  0999 V2000
   25.3320    6.2000   29.7410 B   0  0  0  0  0  0  0  0  0  0  0  0
   23.7210    6.0820   30.7400 C   0  0  0  0  0  0  0  0  0  0  0  0
   22.9420    7.1490   31.0240 C   0  0  0  0  0  0  0  0  0  0  0  0
   21.7650    7.0620   31.6500 N   0  0  0  0  0  0  0  0  0  0  0  0
   21.3310    5.8560   32.0170 C   0  0  0  0  0  0  0  0  0  0  0  0
   20.1370    5.7430   32.6650 N   0  0  0  0  0  0  0  0  0  0  0  0
   19.3700    6.7840   32.9560 C   0  0  0  0  0  0  0  0  0  0  0  0
   19.7950    8.0400   32.5870 C   0  0  0  0  0  0  0  0  0  0  0  0
   19.0440    9.1640   32.8680 C   0  0  0  0  0  0  0  0  0  0  0  0
   17.8210    9.0930   33.5360 C   0  0  0  0  0  0  0  0  0  0  0  0
   17.4050    7.8300   33.9010 C   0  0  0  0  0  0  0  0  0  0  0  0
   18.1550    6.7010   33.6210 C   0  0  0  0  0  0  0  0  0  0  0  0
   21.0140    8.1340   31.9270 C   0  0  0  0  0  0  0  0  0  0  0  0
   21.4130    9.2700   31.5860 O   0  0  0  0  0  0  0  0  0  0  0  0
   22.0930    4.7720   31.7460 N   0  0  0  0  0  0  0  0  0  0  0  0
   23.2690    4.7780   31.1320 C   0  0  0  0  0  0  0  0  0  0  0  0
   24.1330    3.7500   30.9210 N   0  0  0  0  0  0  0  0  0  0  0  0
   24.9830    2.7380   30.7130 C   0  0  0  0  0  0  0  0  0  0  0  0
   25.2360    1.8260   31.7460 C   0  0  0  0  0  0  0  0  0  0  0  0
   26.2570    0.9380   31.6540 C   0  0  0  0  0  0  0  0  0  0  0  0
   27.0610    0.9140   30.5400 C   0  0  0  0  0  0  0  0  0  0  0  0
   26.8610    1.7790   29.4870 C   0  0  0  0  0  0  0  0  0  0  0  0
   25.8210    2.6710   29.6060 C   0  0  0  0  0  0  0  0  0  0  0  0
   24.3310    1.6870   32.8940 C   0  0  0  0  0  0  0  0  0  0  0  0
   24.4550    2.5080   33.8370 O   0  0  0  0  0  0  0  0  0  0  0  0
   23.3630    0.7340   33.0300 O   0  0  0  0  0  0  0  0  0  0  0  0
   23.6500   -0.6090   33.3700 C   0  0  0  0  0  0  0  0  0  0  0  0
   22.9150   -0.9980   34.6560 C   0  0  0  0  0  0  0  0  0  0  0  0
   21.5120   -1.4300   34.2980 C   0  0  0  0  0  0  0  0  0  0  0  0
   23.2760    8.1450   30.7340 H   0  0  0  0  0  0  0  0  0  0  0  0
   19.4290   10.1100   32.5530 H   0  0  0  0  0  0  0  0  0  0  0  0
   17.2460    9.9890   33.7480 H   0  0  0  0  0  0  0  0  0  0  0  0
   16.4560    7.7370   34.4250 H   0  0  0  0  0  0  0  0  0  0  0  0
   17.8420    5.7080   33.9030 H   0  0  0  0  0  0  0  0  0  0  0  0
   21.6340    3.8670   32.0910 H   0  0  0  0  0  0  0  0  0  0  0  0
   23.2320    2.8350   31.3880 H   0  0  0  0  0  0  0  0  0  0  0  0
   26.4880    0.2080   32.4470 H   0  0  0  0  0  0  0  0  0  0  0  0
   27.8700    0.1990   30.5020 H   0  0  0  0  0  0  0  0  0  0  0  0
   27.5250    1.7090   28.6410 H   0  0  0  0  0  0  0  0  0  0  0  0
   25.6860    3.3430   28.7680 H   0  0  0  0  0  0  0  0  0  0  0  0
   23.3340   -1.3440   32.6100 H   0  0  0  0  0  0  0  0  0  0  0  0
   24.7340   -0.7620   33.5610 H   0  0  0  0  0  0  0  0  0  0  0  0
   23.4220   -1.8420   35.1630 H   0  0  0  0  0  0  0  0  0  0  0  0
   22.8340   -0.1180   35.3360 H   0  0  0  0  0  0  0  0  0  0  0  0
   20.8070   -0.5950   34.4550 H   0  0  0  0  0  0  0  0  0  0  0  0
   21.4520   -1.7410   33.2210 H   0  0  0  0  0  0  0  0  0  0  0  0
   21.1810   -2.2650   34.9490 H   0  0  0  0  0  0  0  0  0  0  0  0
  1  2  1  0  0  0  0
  2  3  1  0  0  0  0
  2 16  2  0  0  0  0
  3  4  1  0  0  0  0
  4 13  1  0  0  0  0
  4  5  1  0  0  0  0
  5  6  2  0  0  0  0
  6  7  1  0  0  0  0
  7 12  1  0  0  0  0
  8  9  1  0  0  0  0
  8  7  2  0  0  0  0
  9 10  2  0  0  0  0
 10 32  1  0  0  0  0
 10 11  1  0  0  0  0
 11 33  1  0  0  0  0
 12 11  2  0  0  0  0
 12 34  1  0  0  0  0
 13  8  1  0  0  0  0
 14 13  2  0  0  0  0
 15  5  1  0  0  0  0
 15 35  1  0  0  0  0
 16 15  1  0  0  0  0
 17 16  1  0  0  0  0
 17 36  1  0  0  0  0
 18 17  1  0  0  0  0
 18 19  1  0  0  0  0
 19 24  1  0  0  0  0
 20 19  2  0  0  0  0
 20 37  1  0  0  0  0
 21 20  1  0  0  0  0
 22 23  1  0  0  0  0
 22 21  2  0  0  0  0
 23 18  2  0  0  0  0
 24 26  1  0  0  0  0
 24 25  2  0  0  0  0
 26 27  1  0  0  0  0
 27 42  1  0  0  0  0
 27 28  1  0  0  0  0
 28 43  1  0  0  0  0
 28 44  1  0  0  0  0
 29 45  1  0  0  0  0
 29 28  1  0  0  0  0
 29 47  1  0  0  0  0
 30  3  1  0  0  0  0
 31  9  1  0  0  0  0
 38 21  1  0  0  0  0
 39 22  1  0  0  0  0
 40 23  1  0  0  0  0
 41 27  1  0  0  0  0
 46 29  1  0  0  0  0
M  END
>  <Pose>
1

>  <Score>
-7.51

$$$$
