
 OpenBabel03202209553D

 53 56  0  0  1  0  0  0  0  0999 V2000
   28.4320    8.1010   27.8320 B   0  0  0  0  0  0  0  0  0  0  0  0
   27.4930    6.5270   28.3070 C   0  0  0  0  0  0  0  0  0  0  0  0
   26.8410    5.8030   27.3270 C   0  0  0  0  0  0  0  0  0  0  0  0
   26.1580    4.6500   27.6520 C   0  0  0  0  0  0  0  0  0  0  0  0
   26.1150    4.2020   28.9520 C   0  0  0  0  0  0  0  0  0  0  0  0
   26.7590    4.9180   29.9150 C   0  0  0  0  0  0  0  0  0  0  0  0
   27.4580    6.0930   29.6080 C   0  0  0  0  0  0  0  0  0  0  0  0
   25.3840    2.9660   29.3530 C   0  0  2  0  0  0  0  0  0  0  0  0
   24.8030    3.1190   30.6850 N   0  0  0  0  0  4  0  0  0  0  0  0
   25.6110    2.5120   31.6150 C   0  0  0  0  0  0  0  0  0  0  0  0
   25.3430    2.1310   32.8390 C   0  0  0  0  0  0  0  0  0  0  0  0
   26.1330    1.4800   33.9240 C   0  0  0  0  0  0  0  0  0  0  0  0
   27.4880    1.0110   33.4990 C   0  0  0  0  0  0  0  0  0  0  0  0
   28.3190    2.1410   32.9370 C   0  0  0  0  0  0  0  0  0  0  0  0
   28.2190    2.1530   31.4250 C   0  0  0  0  0  0  0  0  0  0  0  0
   26.8700    2.2230   30.9630 N   0  0  0  0  0  0  0  0  0  0  0  0
   26.5470    1.9430   29.5580 C   0  0  0  0  0  0  0  0  0  0  0  0
   24.0780    4.2610   30.9010 C   0  0  0  0  0  0  0  0  0  0  0  0
   22.8190    4.3180   31.4180 C   0  0  0  0  0  0  0  0  0  0  0  0
   22.0600    5.5000   31.4550 C   0  0  0  0  0  0  0  0  0  0  0  0
   22.5670    6.6740   30.9610 C   0  0  0  0  0  0  0  0  0  0  0  0
   23.8490    6.6240   30.4360 C   0  0  0  0  0  0  0  0  0  0  0  0
   24.5900    5.4630   30.4000 C   0  0  0  0  0  0  0  0  0  0  0  0
   21.8300    7.8460   30.9790 O   0  0  0  0  0  0  0  0  0  0  0  0
   21.6750    8.6910   32.0910 C   0  0  0  0  0  0  0  0  0  0  0  0
   20.3640    8.2470   32.7680 C   0  0  0  0  0  0  0  0  0  0  0  0
   24.5400    2.4380   28.4540 O   0  0  0  0  0  0  0  0  0  0  0  0
   26.8420    6.1000   26.2910 H   0  0  0  0  0  0  0  0  0  0  0  0
   25.6650    4.1140   26.8350 H   0  0  0  0  0  0  0  0  0  0  0  0
   26.7300    4.5810   30.9320 H   0  0  0  0  0  0  0  0  0  0  0  0
   27.9780    6.6670   30.3640 H   0  0  0  0  0  0  0  0  0  0  0  0
   23.9720    2.3440   30.5860 H   0  0  0  0  0  0  0  0  0  0  0  0
   24.3140    2.2650   33.1620 H   0  0  0  0  0  0  0  0  0  0  0  0
   25.5690    0.6120   34.3080 H   0  0  0  0  0  0  0  0  0  0  0  0
   26.3000    2.2530   34.7210 H   0  0  0  0  0  0  0  0  0  0  0  0
   27.4730    0.1240   32.8770 H   0  0  0  0  0  0  0  0  0  0  0  0
   28.0120    0.7060   34.4540 H   0  0  0  0  0  0  0  0  0  0  0  0
   28.0410    3.0850   33.3910 H   0  0  0  0  0  0  0  0  0  0  0  0
   29.4090    1.9430   33.1710 H   0  0  0  0  0  0  0  0  0  0  0  0
   28.9260    2.8700   30.9820 H   0  0  0  0  0  0  0  0  0  0  0  0
   28.6020    1.1320   31.1140 H   0  0  0  0  0  0  0  0  0  0  0  0
   26.2050    0.9170   29.4490 H   0  0  0  0  0  0  0  0  0  0  0  0
   27.4000    2.2080   28.9440 H   0  0  0  0  0  0  0  0  0  0  0  0
   22.3430    3.4650   31.8590 H   0  0  0  0  0  0  0  0  0  0  0  0
   21.0700    5.4640   31.8700 H   0  0  0  0  0  0  0  0  0  0  0  0
   24.3300    7.5250   30.0270 H   0  0  0  0  0  0  0  0  0  0  0  0
   25.5900    5.5100   29.9440 H   0  0  0  0  0  0  0  0  0  0  0  0
   21.5440    9.7720   31.7540 H   0  0  0  0  0  0  0  0  0  0  0  0
   22.5370    8.6720   32.7630 H   0  0  0  0  0  0  0  0  0  0  0  0
   20.7030    7.7450   33.6920 H   0  0  0  0  0  0  0  0  0  0  0  0
   19.8330    7.5030   32.1490 H   0  0  0  0  0  0  0  0  0  0  0  0
   19.6740    9.0870   32.9360 H   0  0  0  0  0  0  0  0  0  0  0  0
   24.4790    1.4800   28.3330 H   0  0  0  0  0  0  0  0  0  0  0  0
  1  2  1  0  0  0  0
  2  7  1  0  0  0  0
  3  4  1  0  0  0  0
  3  2  2  0  0  0  0
  4  5  2  0  0  0  0
  5  8  1  0  0  0  0
  5  6  1  0  0  0  0
  6 30  1  0  0  0  0
  7  6  2  0  0  0  0
  7 31  1  0  0  0  0
  8 27  1  6  0  0  0
  8 17  1  0  0  0  0
  8  9  1  0  0  0  0
  9 18  1  0  0  0  0
  9 10  1  0  0  0  0
 10 11  2  0  0  0  0
 11 33  1  0  0  0  0
 11 12  1  0  0  0  0
 12 34  1  0  0  0  0
 12 35  1  0  0  0  0
 13 12  1  0  0  0  0
 13 37  1  0  0  0  0
 14 39  1  0  0  0  0
 14 38  1  0  0  0  0
 14 13  1  0  0  0  0
 15 14  1  0  0  0  0
 16 15  1  0  0  0  0
 16 10  1  0  0  0  0
 17 16  1  0  0  0  0
 18 19  1  0  0  0  0
 19 20  2  0  0  0  0
 19 44  1  0  0  0  0
 20 45  1  0  0  0  0
 21 24  1  0  0  0  0
 21 20  1  0  0  0  0
 22 21  2  0  0  0  0
 23 22  1  0  0  0  0
 23 18  2  0  0  0  0
 24 25  1  0  0  0  0
 25 49  1  0  0  0  0
 25 26  1  0  0  0  0
 26 52  1  0  0  0  0
 26 50  1  0  0  0  0
 28  3  1  0  0  0  0
 29  4  1  0  0  0  0
 32  9  1  0  0  0  0
 36 13  1  0  0  0  0
 40 15  1  0  0  0  0
 41 15  1  0  0  0  0
 42 17  1  0  0  0  0
 43 17  1  0  0  0  0
 46 22  1  0  0  0  0
 47 23  1  0  0  0  0
 48 25  1  0  0  0  0
 51 26  1  0  0  0  0
 53 27  1  0  0  0  0
M  END
>  <Pose>
1

>  <Score>
-4.33

$$$$
