
 OpenBabel03202209553D

 50 53  0  0  1  0  0  0  0  0999 V2000
   18.0030    7.2220   33.1380 B   0  0  0  0  0  0  0  0  0  0  0  0
   19.5430    8.3100   32.8060 C   0  0  0  0  0  0  0  0  0  0  0  0
   20.7360    7.7080   32.4790 C   0  0  0  0  0  0  0  0  0  0  0  0
   21.8770    8.4740   32.2330 C   0  0  0  0  0  0  0  0  0  0  0  0
   21.7440    9.8610   32.3370 C   0  0  0  0  0  0  0  0  0  0  0  0
   20.5710   10.4660   32.6610 C   0  0  0  0  0  0  0  0  0  0  0  0
   19.4500    9.6890   32.9020 C   0  0  0  0  0  0  0  0  0  0  0  0
   22.9230   10.7000   32.0430 C   0  0  1  0  0  0  0  0  0  0  0  0
   22.8680   11.2010   30.6770 N   0  0  0  0  0  0  0  0  0  0  0  0
   22.2480   10.4520   29.5900 C   0  0  0  0  0  0  0  0  0  0  0  0
   22.5690   10.9950   28.2460 C   0  0  0  0  0  0  0  0  0  0  0  0
   24.0420   11.1960   27.9990 C   0  0  0  0  0  0  0  0  0  0  0  0
   24.3190   12.6580   28.2960 C   0  0  0  0  0  0  0  0  0  0  0  0
   24.1210   13.0670   29.6560 C   0  0  0  0  0  0  0  0  0  0  0  0
   23.4980   12.4430   30.6820 C   0  0  0  0  0  0  0  0  0  0  0  0
   23.4100   13.0530   31.9490 N   0  0  0  0  0  4  0  0  0  0  0  0
   22.9460   11.9880   32.7900 C   0  0  0  0  0  0  0  0  0  0  0  0
   22.4500   14.1020   31.8180 C   0  0  0  0  0  0  0  0  0  0  0  0
   22.5720   15.2690   32.5530 C   0  0  0  0  0  0  0  0  0  0  0  0
   21.5460   16.1950   32.4120 C   0  0  0  0  0  0  0  0  0  0  0  0
   20.4420   16.0130   31.6000 C   0  0  0  0  0  0  0  0  0  0  0  0
   20.3620   14.8070   30.8710 C   0  0  0  0  0  0  0  0  0  0  0  0
   21.3650   13.9190   31.0150 C   0  0  0  0  0  0  0  0  0  0  0  0
   23.6560   15.4620   33.3540 O   0  0  0  0  0  0  0  0  0  0  0  0
   23.5360   16.0310   34.6310 C   0  0  0  0  0  0  0  0  0  0  0  0
   24.0710    9.9600   32.1620 O   0  0  0  0  0  0  0  0  0  0  0  0
   20.8350    6.6240   32.3940 H   0  0  0  0  0  0  0  0  0  0  0  0
   22.7760    7.9560   31.9610 H   0  0  0  0  0  0  0  0  0  0  0  0
   20.4810   11.5630   32.7400 H   0  0  0  0  0  0  0  0  0  0  0  0
   18.5060   10.1840   33.1670 H   0  0  0  0  0  0  0  0  0  0  0  0
   22.6460    9.4140   29.6470 H   0  0  0  0  0  0  0  0  0  0  0  0
   21.1260   10.4930   29.6710 H   0  0  0  0  0  0  0  0  0  0  0  0
   22.2310   10.2450   27.4780 H   0  0  0  0  0  0  0  0  0  0  0  0
   21.9710   11.9180   28.0960 H   0  0  0  0  0  0  0  0  0  0  0  0
   24.2790   11.0640   26.8910 H   0  0  0  0  0  0  0  0  0  0  0  0
   24.6770   10.5440   28.6310 H   0  0  0  0  0  0  0  0  0  0  0  0
   23.6480   13.2500   27.5960 H   0  0  0  0  0  0  0  0  0  0  0  0
   25.3740   12.8680   27.9680 H   0  0  0  0  0  0  0  0  0  0  0  0
   24.5390   14.0260   29.9190 H   0  0  0  0  0  0  0  0  0  0  0  0
   24.3210   13.4040   32.3240 H   0  0  0  0  0  0  0  0  0  0  0  0
   21.9730   12.2210   33.2780 H   0  0  0  0  0  0  0  0  0  0  0  0
   23.6490   11.8850   33.6340 H   0  0  0  0  0  0  0  0  0  0  0  0
   21.6630   17.1000   33.0040 H   0  0  0  0  0  0  0  0  0  0  0  0
   19.6550   16.7380   31.4980 H   0  0  0  0  0  0  0  0  0  0  0  0
   19.5100   14.6520   30.2480 H   0  0  0  0  0  0  0  0  0  0  0  0
   21.2350   12.9840   30.4290 H   0  0  0  0  0  0  0  0  0  0  0  0
   22.9300   16.9620   34.5620 H   0  0  0  0  0  0  0  0  0  0  0  0
   23.0340   15.3050   35.2850 H   0  0  0  0  0  0  0  0  0  0  0  0
   24.5760   16.2790   35.0050 H   0  0  0  0  0  0  0  0  0  0  0  0
   24.2650    9.6610   33.0750 H   0  0  0  0  0  0  0  0  0  0  0  0
  2  7  1  0  0  0  0
  2  1  1  0  0  0  0
  3  2  2  0  0  0  0
  4  5  2  0  0  0  0
  4  3  1  0  0  0  0
  5  6  1  0  0  0  0
  6 29  1  0  0  0  0
  6  7  2  0  0  0  0
  7 30  1  0  0  0  0
  8 26  1  1  0  0  0
  8  5  1  0  0  0  0
  8 17  1  0  0  0  0
  9 15  1  0  0  0  0
  9  8  1  0  0  0  0
 10 31  1  0  0  0  0
 10 32  1  0  0  0  0
 10  9  1  0  0  0  0
 11 10  1  0  0  0  0
 12 11  1  0  0  0  0
 12 13  1  0  0  0  0
 12 36  1  0  0  0  0
 13 14  1  0  0  0  0
 14 39  1  0  0  0  0
 14 15  2  0  0  0  0
 15 16  1  0  0  0  0
 16 40  1  0  0  0  0
 16 17  1  0  0  0  0
 17 41  1  0  0  0  0
 17 42  1  0  0  0  0
 18 16  1  0  0  0  0
 18 19  1  0  0  0  0
 19 24  1  0  0  0  0
 20 19  2  0  0  0  0
 20 43  1  0  0  0  0
 21 20  1  0  0  0  0
 22 23  1  0  0  0  0
 22 21  2  0  0  0  0
 23 18  2  0  0  0  0
 24 25  1  0  0  0  0
 25 49  1  0  0  0  0
 25 48  1  0  0  0  0
 26 50  1  0  0  0  0
 27  3  1  0  0  0  0
 28  4  1  0  0  0  0
 33 11  1  0  0  0  0
 34 11  1  0  0  0  0
 35 12  1  0  0  0  0
 37 13  1  0  0  0  0
 38 13  1  0  0  0  0
 44 21  1  0  0  0  0
 45 22  1  0  0  0  0
 46 23  1  0  0  0  0
 47 25  1  0  0  0  0
M  END
>  <Pose>
1

>  <Score>
-4.71

$$$$
