
 OpenBabel03202209553D

 50 53  0  0  1  0  0  0  0  0999 V2000
   19.6150    6.6040   32.6660 B   0  0  0  0  0  0  0  0  0  0  0  0
   21.2590    6.1880   31.7810 C   0  0  0  0  0  0  0  0  0  0  0  0
   21.7560    4.9020   31.7700 C   0  0  0  0  0  0  0  0  0  0  0  0
   22.9540    4.6200   31.1240 C   0  0  0  0  0  0  0  0  0  0  0  0
   23.6740    5.5760   30.4890 C   0  0  0  0  0  0  0  0  0  0  0  0
   23.1710    6.8940   30.4980 C   0  0  0  0  0  0  0  0  0  0  0  0
   21.9880    7.1600   31.1380 C   0  0  0  0  0  0  0  0  0  0  0  0
   24.9410    5.4270   29.7770 C   0  0  2  0  0  0  0  0  0  0  0  0
   25.7500    4.2900   30.0810 N   0  0  0  0  0  0  0  0  0  0  0  0
   25.4110    2.9070   29.9470 C   0  0  0  0  0  0  0  0  0  0  0  0
   25.7400    2.0110   31.0770 C   0  0  0  0  0  0  0  0  0  0  0  0
   26.4410    2.6130   32.2410 C   0  0  0  0  0  0  0  0  0  0  0  0
   27.9020    2.9390   31.9310 C   0  0  0  0  0  0  0  0  0  0  0  0
   27.9120    4.3010   31.3120 C   0  0  0  0  0  0  0  0  0  0  0  0
   27.0050    4.8670   30.5340 C   0  0  0  0  0  0  0  0  0  0  0  0
   27.1130    6.1860   30.0130 N   0  0  0  0  0  4  0  0  0  0  0  0
   25.7690    6.6470   30.1950 C   0  0  0  0  0  0  0  0  0  0  0  0
   27.5080    6.1180   28.6670 C   0  0  0  0  0  0  0  0  0  0  0  0
   27.7500    7.2900   27.9270 C   0  0  0  0  0  0  0  0  0  0  0  0
   28.1320    7.2570   26.6140 C   0  0  0  0  0  0  0  0  0  0  0  0
   28.3000    6.0580   25.9550 C   0  0  0  0  0  0  0  0  0  0  0  0
   28.0710    4.9020   26.6550 C   0  0  0  0  0  0  0  0  0  0  0  0
   27.6850    4.9350   27.9790 C   0  0  0  0  0  0  0  0  0  0  0  0
   28.6940    6.0350   24.6030 O   0  0  0  0  0  0  0  0  0  0  0  0
   30.0430    5.8450   24.2690 C   0  0  0  0  0  0  0  0  0  0  0  0
   24.6250    5.5070   28.4070 O   0  0  0  0  0  0  0  0  0  0  0  0
   21.2420    4.0960   32.2530 H   0  0  0  0  0  0  0  0  0  0  0  0
   23.3440    3.6160   31.1220 H   0  0  0  0  0  0  0  0  0  0  0  0
   23.7020    7.7080   30.0050 H   0  0  0  0  0  0  0  0  0  0  0  0
   21.5860    8.1640   31.1550 H   0  0  0  0  0  0  0  0  0  0  0  0
   24.3200    2.8580   29.6580 H   0  0  0  0  0  0  0  0  0  0  0  0
   25.9040    2.4400   29.0320 H   0  0  0  0  0  0  0  0  0  0  0  0
   26.3010    1.0880   30.7900 H   0  0  0  0  0  0  0  0  0  0  0  0
   24.7640    1.6030   31.4840 H   0  0  0  0  0  0  0  0  0  0  0  0
   25.9200    3.5050   32.6550 H   0  0  0  0  0  0  0  0  0  0  0  0
   26.4680    1.8600   33.0590 H   0  0  0  0  0  0  0  0  0  0  0  0
   28.4010    3.0330   32.9390 H   0  0  0  0  0  0  0  0  0  0  0  0
   28.3350    2.1720   31.2970 H   0  0  0  0  0  0  0  0  0  0  0  0
   28.7870    4.9000   31.5360 H   0  0  0  0  0  0  0  0  0  0  0  0
   27.8030    6.7100   30.6080 H   0  0  0  0  0  0  0  0  0  0  0  0
   25.4970    7.5610   29.6870 H   0  0  0  0  0  0  0  0  0  0  0  0
   25.6120    6.7950   31.2930 H   0  0  0  0  0  0  0  0  0  0  0  0
   27.6090    8.1990   28.4700 H   0  0  0  0  0  0  0  0  0  0  0  0
   28.3150    8.1670   26.0570 H   0  0  0  0  0  0  0  0  0  0  0  0
   28.2070    3.9420   26.1320 H   0  0  0  0  0  0  0  0  0  0  0  0
   27.5180    3.9820   28.4940 H   0  0  0  0  0  0  0  0  0  0  0  0
   30.5150    5.0040   24.8170 H   0  0  0  0  0  0  0  0  0  0  0  0
   30.5910    6.7950   24.4590 H   0  0  0  0  0  0  0  0  0  0  0  0
   30.1410    5.6160   23.1940 H   0  0  0  0  0  0  0  0  0  0  0  0
   23.8590    6.1350   28.3590 H   0  0  0  0  0  0  0  0  0  0  0  0
  2  1  1  0  0  0  0
  3  2  1  0  0  0  0
  3 27  1  0  0  0  0
  4  3  2  0  0  0  0
  5  6  2  0  0  0  0
  5  4  1  0  0  0  0
  6  7  1  0  0  0  0
  7 30  1  0  0  0  0
  7  2  2  0  0  0  0
  8 26  1  6  0  0  0
  8  9  1  0  0  0  0
  8 17  1  0  0  0  0
  8  5  1  0  0  0  0
  9 15  1  0  0  0  0
 10  9  1  0  0  0  0
 10 11  1  0  0  0  0
 11 34  1  0  0  0  0
 11 12  1  0  0  0  0
 12 35  1  0  0  0  0
 12 36  1  0  0  0  0
 13 12  1  0  0  0  0
 13 37  1  0  0  0  0
 14 39  1  0  0  0  0
 14 13  1  0  0  0  0
 15 14  2  0  0  0  0
 16 17  1  0  0  0  0
 16 15  1  0  0  0  0
 16 40  1  0  0  0  0
 17 42  1  0  0  0  0
 18 16  1  0  0  0  0
 19 43  1  0  0  0  0
 19 18  2  0  0  0  0
 20 19  1  0  0  0  0
 21 20  2  0  0  0  0
 21 22  1  0  0  0  0
 22 23  2  0  0  0  0
 23 46  1  0  0  0  0
 23 18  1  0  0  0  0
 24 21  1  0  0  0  0
 25 48  1  0  0  0  0
 25 24  1  0  0  0  0
 25 47  1  0  0  0  0
 28  4  1  0  0  0  0
 29  6  1  0  0  0  0
 31 10  1  0  0  0  0
 32 10  1  0  0  0  0
 33 11  1  0  0  0  0
 38 13  1  0  0  0  0
 41 17  1  0  0  0  0
 44 20  1  0  0  0  0
 45 22  1  0  0  0  0
 49 25  1  0  0  0  0
 50 26  1  0  0  0  0
M  END
>  <Pose>
1

>  <Score>
-5.56

$$$$
