
 OpenBabel03202209553D

 47 50  0  0  1  0  0  0  0  0999 V2000
   20.7300   13.3980   31.9040 B   0  0  0  0  0  0  0  0  0  0  0  0
   21.6760   11.8130   31.3750 C   0  0  0  0  0  0  0  0  0  0  0  0
   21.7690   10.7600   32.2570 C   0  0  0  0  0  0  0  0  0  0  0  0
   22.4530    9.6110   31.8610 C   0  0  0  0  0  0  0  0  0  0  0  0
   23.0410    9.4860   30.6210 C   0  0  0  0  0  0  0  0  0  0  0  0
   22.9330   10.5570   29.7540 C   0  0  0  0  0  0  0  0  0  0  0  0
   22.2580   11.7020   30.1310 C   0  0  0  0  0  0  0  0  0  0  0  0
   23.7620    8.2400   30.2660 C   0  0  2  0  0  0  0  0  0  0  0  0
   23.1720    7.0550   30.8490 N   0  0  0  0  0  0  0  0  0  0  0  0
   21.8630    6.6090   31.2780 C   0  0  0  0  0  0  0  0  0  0  0  0
   21.6520    5.1300   31.0300 C   0  0  0  0  0  0  0  0  0  0  0  0
   22.7180    4.3770   31.7530 C   0  0  0  0  0  0  0  0  0  0  0  0
   24.0640    4.9010   31.4390 C   0  0  0  0  0  0  0  0  0  0  0  0
   24.2640    6.1530   31.0180 C   0  0  0  0  0  0  0  0  0  0  0  0
   25.4910    6.7760   30.7120 N   0  0  0  0  0  4  0  0  0  0  0  0
   25.1550    8.2100   30.8280 C   0  0  0  0  0  0  0  0  0  0  0  0
   26.0580    6.4920   29.4740 C   0  0  0  0  0  0  0  0  0  0  0  0
   27.2260    7.0560   29.0240 C   0  0  0  0  0  0  0  0  0  0  0  0
   27.7280    6.7390   27.7600 C   0  0  0  0  0  0  0  0  0  0  0  0
   27.0690    5.8580   26.9420 C   0  0  0  0  0  0  0  0  0  0  0  0
   25.8970    5.2840   27.3860 C   0  0  0  0  0  0  0  0  0  0  0  0
   25.4090    5.6000   28.6290 C   0  0  0  0  0  0  0  0  0  0  0  0
   27.9540    7.9500   29.7810 O   0  0  0  0  0  0  0  0  0  0  0  0
   28.5470    9.0670   29.2070 C   0  0  0  0  0  0  0  0  0  0  0  0
   23.8560    8.1690   28.8800 O   0  0  0  0  0  0  0  0  0  0  0  0
   21.3220   10.7790   33.2630 H   0  0  0  0  0  0  0  0  0  0  0  0
   22.5450    8.7530   32.5430 H   0  0  0  0  0  0  0  0  0  0  0  0
   23.4040   10.4570   28.7660 H   0  0  0  0  0  0  0  0  0  0  0  0
   22.1780   12.5360   29.4440 H   0  0  0  0  0  0  0  0  0  0  0  0
   21.8180    6.7340   32.3980 H   0  0  0  0  0  0  0  0  0  0  0  0
   21.0580    7.2160   30.8120 H   0  0  0  0  0  0  0  0  0  0  0  0
   21.5390    4.8910   29.9610 H   0  0  0  0  0  0  0  0  0  0  0  0
   20.6740    4.8720   31.5160 H   0  0  0  0  0  0  0  0  0  0  0  0
   22.6440    3.2790   31.6120 H   0  0  0  0  0  0  0  0  0  0  0  0
   22.5630    4.5920   32.8500 H   0  0  0  0  0  0  0  0  0  0  0  0
   24.8980    4.2070   31.5680 H   0  0  0  0  0  0  0  0  0  0  0  0
   26.1960    6.6480   31.5110 H   0  0  0  0  0  0  0  0  0  0  0  0
   25.1320    8.5040   31.8760 H   0  0  0  0  0  0  0  0  0  0  0  0
   25.8730    8.7880   30.2210 H   0  0  0  0  0  0  0  0  0  0  0  0
   28.6400    7.1600   27.3630 H   0  0  0  0  0  0  0  0  0  0  0  0
   27.4290    5.5740   25.9390 H   0  0  0  0  0  0  0  0  0  0  0  0
   25.3920    4.5880   26.7320 H   0  0  0  0  0  0  0  0  0  0  0  0
   24.5010    5.1550   28.9670 H   0  0  0  0  0  0  0  0  0  0  0  0
   29.1030    8.8810   28.2560 H   0  0  0  0  0  0  0  0  0  0  0  0
   29.3280    9.5430   29.8870 H   0  0  0  0  0  0  0  0  0  0  0  0
   27.7840    9.8630   29.0130 H   0  0  0  0  0  0  0  0  0  0  0  0
   23.7270    7.2200   28.6360 H   0  0  0  0  0  0  0  0  0  0  0  0
  2  1  1  0  0  0  0
  2  3  1  0  0  0  0
  3 26  1  0  0  0  0
  4  3  2  0  0  0  0
  4 27  1  0  0  0  0
  5  4  1  0  0  0  0
  6  7  1  0  0  0  0
  6  5  2  0  0  0  0
  7  2  2  0  0  0  0
  8 25  1  6  0  0  0
  8  5  1  0  0  0  0
  8 16  1  0  0  0  0
  8  9  1  0  0  0  0
  9 14  1  0  0  0  0
  9 10  1  0  0  0  0
 10 30  1  0  0  0  0
 11 10  1  0  0  0  0
 11 33  1  0  0  0  0
 11 12  1  0  0  0  0
 12 35  1  0  0  0  0
 13 36  1  0  0  0  0
 13 12  1  0  0  0  0
 14 13  2  0  0  0  0
 15 16  1  0  0  0  0
 15 14  1  0  0  0  0
 15 37  1  0  0  0  0
 16 38  1  0  0  0  0
 17 15  1  0  0  0  0
 18 17  1  0  0  0  0
 18 23  1  0  0  0  0
 19 18  2  0  0  0  0
 20 21  2  0  0  0  0
 20 19  1  0  0  0  0
 21 22  1  0  0  0  0
 22 43  1  0  0  0  0
 22 17  2  0  0  0  0
 24 23  1  0  0  0  0
 24 45  1  0  0  0  0
 28  6  1  0  0  0  0
 29  7  1  0  0  0  0
 31 10  1  0  0  0  0
 32 11  1  0  0  0  0
 34 12  1  0  0  0  0
 39 16  1  0  0  0  0
 40 19  1  0  0  0  0
 41 20  1  0  0  0  0
 42 21  1  0  0  0  0
 44 24  1  0  0  0  0
 46 24  1  0  0  0  0
 47 25  1  0  0  0  0
M  END
>  <Pose>
1

>  <Score>
-5.25

$$$$
