
 OpenBabel03202209553D

 47 50  0  0  1  0  0  0  0  0999 V2000
   21.8770   16.1960   31.8100 B   0  0  0  0  0  0  0  0  0  0  0  0
   22.2800   14.3370   31.6600 C   0  0  0  0  0  0  0  0  0  0  0  0
   23.5720   13.8880   31.4610 C   0  0  0  0  0  0  0  0  0  0  0  0
   23.8460   12.5400   31.3580 C   0  0  0  0  0  0  0  0  0  0  0  0
   22.8700   11.5700   31.4450 C   0  0  0  0  0  0  0  0  0  0  0  0
   21.5750   12.0310   31.6440 C   0  0  0  0  0  0  0  0  0  0  0  0
   21.2920   13.3810   31.7490 C   0  0  0  0  0  0  0  0  0  0  0  0
   23.2220   10.1560   31.3280 C   0  0  2  0  0  0  0  0  0  0  0  0
   22.4750    9.4260   30.3340 N   0  0  0  0  0  0  0  0  0  0  0  0
   21.8460    9.7440   29.0590 C   0  0  0  0  0  0  0  0  0  0  0  0
   21.7980    8.6260   28.0920 C   0  0  0  0  0  0  0  0  0  0  0  0
   22.5070    7.3630   28.5120 C   0  0  0  0  0  0  0  0  0  0  0  0
   22.4100    7.0970   29.9450 C   0  0  0  0  0  0  0  0  0  0  0  0
   22.3950    8.0920   30.8130 C   0  0  0  0  0  0  0  0  0  0  0  0
   22.3080    8.1400   32.2330 N   0  0  0  0  0  4  0  0  0  0  0  0
   22.9460    9.3700   32.5890 C   0  0  0  0  0  0  0  0  0  0  0  0
   20.9770    8.0220   32.6110 C   0  0  0  0  0  0  0  0  0  0  0  0
   20.3170    6.8220   32.4940 C   0  0  0  0  0  0  0  0  0  0  0  0
   18.9700    6.7060   32.8760 C   0  0  0  0  0  0  0  0  0  0  0  0
   18.2720    7.7690   33.3750 C   0  0  0  0  0  0  0  0  0  0  0  0
   18.9510    8.9960   33.4940 C   0  0  0  0  0  0  0  0  0  0  0  0
   20.2730    9.0780   33.1100 C   0  0  0  0  0  0  0  0  0  0  0  0
   16.9370    7.7250   33.7730 O   0  0  0  0  0  0  0  0  0  0  0  0
   16.2660    6.6230   34.2930 C   0  0  0  0  0  0  0  0  0  0  0  0
   24.5820   10.0680   30.9680 O   0  0  0  0  0  0  0  0  0  0  0  0
   24.3440   14.6460   31.3920 H   0  0  0  0  0  0  0  0  0  0  0  0
   24.8760   12.2090   31.2000 H   0  0  0  0  0  0  0  0  0  0  0  0
   20.7890   11.3020   31.7150 H   0  0  0  0  0  0  0  0  0  0  0  0
   20.2790   13.7470   31.9080 H   0  0  0  0  0  0  0  0  0  0  0  0
   22.3720   10.6140   28.5770 H   0  0  0  0  0  0  0  0  0  0  0  0
   20.8020   10.1370   29.2250 H   0  0  0  0  0  0  0  0  0  0  0  0
   22.1410    8.9550   27.0740 H   0  0  0  0  0  0  0  0  0  0  0  0
   20.7240    8.3170   27.9220 H   0  0  0  0  0  0  0  0  0  0  0  0
   22.1410    6.4810   27.9490 H   0  0  0  0  0  0  0  0  0  0  0  0
   23.5840    7.4900   28.2140 H   0  0  0  0  0  0  0  0  0  0  0  0
   22.3490    6.0850   30.2920 H   0  0  0  0  0  0  0  0  0  0  0  0
   22.8610    7.3180   32.5970 H   0  0  0  0  0  0  0  0  0  0  0  0
   23.9370    9.1480   33.0450 H   0  0  0  0  0  0  0  0  0  0  0  0
   22.3950    9.9600   33.3430 H   0  0  0  0  0  0  0  0  0  0  0  0
   20.7860    5.9300   32.1130 H   0  0  0  0  0  0  0  0  0  0  0  0
   18.4610    5.7520   32.7800 H   0  0  0  0  0  0  0  0  0  0  0  0
   18.3970    9.8390   33.8920 H   0  0  0  0  0  0  0  0  0  0  0  0
   20.7660   10.0200   33.2100 H   0  0  0  0  0  0  0  0  0  0  0  0
   16.8670    5.7300   34.4110 H   0  0  0  0  0  0  0  0  0  0  0  0
   15.3170    6.4510   33.7310 H   0  0  0  0  0  0  0  0  0  0  0  0
   15.9210    6.8930   35.3350 H   0  0  0  0  0  0  0  0  0  0  0  0
   25.0400    9.6630   31.7450 H   0  0  0  0  0  0  0  0  0  0  0  0
  2  7  1  0  0  0  0
  2  1  1  0  0  0  0
  3  2  2  0  0  0  0
  4  5  2  0  0  0  0
  4  3  1  0  0  0  0
  5  6  1  0  0  0  0
  6 28  1  0  0  0  0
  6  7  2  0  0  0  0
  7 29  1  0  0  0  0
  8 25  1  6  0  0  0
  8  5  1  0  0  0  0
  8 16  1  0  0  0  0
  9 14  1  0  0  0  0
  9  8  1  0  0  0  0
 10 31  1  0  0  0  0
 10  9  1  0  0  0  0
 11 12  1  0  0  0  0
 11 10  1  0  0  0  0
 12 13  1  0  0  0  0
 13 36  1  0  0  0  0
 13 14  2  0  0  0  0
 14 15  1  0  0  0  0
 15 16  1  0  0  0  0
 15 37  1  0  0  0  0
 15 17  1  0  0  0  0
 16 38  1  0  0  0  0
 16 39  1  0  0  0  0
 17 22  1  0  0  0  0
 18 17  2  0  0  0  0
 18 19  1  0  0  0  0
 19 20  2  0  0  0  0
 20 21  1  0  0  0  0
 20 23  1  0  0  0  0
 21 42  1  0  0  0  0
 22 43  1  0  0  0  0
 22 21  2  0  0  0  0
 23 24  1  0  0  0  0
 24 44  1  0  0  0  0
 24 46  1  0  0  0  0
 25 47  1  0  0  0  0
 26  3  1  0  0  0  0
 27  4  1  0  0  0  0
 30 10  1  0  0  0  0
 32 11  1  0  0  0  0
 33 11  1  0  0  0  0
 34 12  1  0  0  0  0
 35 12  1  0  0  0  0
 40 18  1  0  0  0  0
 41 19  1  0  0  0  0
 45 24  1  0  0  0  0
M  END
>  <Pose>
1

>  <Score>
-4.40

$$$$
