
 OpenBabel03202209553D

 56 59  0  0  1  0  0  0  0  0999 V2000
   28.3610    6.2090   24.8280 B   0  0  0  0  0  0  0  0  0  0  0  0
   27.4960    6.2400   26.5200 C   0  0  0  0  0  0  0  0  0  0  0  0
   26.6300    5.2130   26.8830 C   0  0  0  0  0  0  0  0  0  0  0  0
   26.0070    5.2370   28.1020 C   0  0  0  0  0  0  0  0  0  0  0  0
   26.2320    6.2780   28.9760 C   0  0  0  0  0  0  0  0  0  0  0  0
   27.0920    7.2870   28.6000 C   0  0  0  0  0  0  0  0  0  0  0  0
   27.7350    7.2940   27.3840 C   0  0  0  0  0  0  0  0  0  0  0  0
   25.5780    6.3090   30.2510 N   0  0  0  0  0  0  0  0  0  0  0  0
   24.1600    6.0560   30.4100 C   0  0  0  0  0  0  0  0  0  0  0  0
   23.4260    7.2300   30.9820 C   0  0  0  0  0  0  0  0  0  0  0  0
   22.1710    7.3120   31.4540 N   0  0  0  0  0  0  0  0  0  0  0  0
   21.9630    8.5770   31.8640 C   0  0  1  0  0  0  0  0  0  0  0  0
   23.1140    9.2950   31.6410 N   0  0  0  0  0  0  0  0  0  0  0  0
   23.9740    8.4440   31.1070 N   0  0  0  0  0  0  0  0  0  0  0  0
   23.3610   10.6630   31.8640 C   0  0  0  0  0  0  0  0  0  0  0  0
   22.6990   11.6270   31.0240 C   0  0  2  0  0  0  0  0  0  0  0  0
   22.5080   11.1770   29.7830 O   0  0  0  0  0  0  0  0  0  0  0  0
   22.2000   12.9590   31.2200 C   0  0  0  0  0  0  0  0  0  0  0  0
   20.9250   13.3240   30.7360 C   0  0  0  0  0  0  0  0  0  0  0  0
   20.4020   14.5810   30.8900 C   0  0  0  0  0  0  0  0  0  0  0  0
   21.1100   15.5630   31.5350 C   0  0  0  0  0  0  0  0  0  0  0  0
   22.3510   15.2510   32.0200 C   0  0  0  0  0  0  0  0  0  0  0  0
   22.8750   13.9560   31.8540 C   0  0  0  0  0  0  0  0  0  0  0  0
   20.5770   16.8410   31.6910 O   0  0  0  0  0  0  0  0  0  0  0  0
   21.3760   17.9640   31.9680 C   0  0  0  0  0  0  0  0  0  0  0  0
   20.8020    9.2520   32.4530 C   0  0  0  0  0  0  0  0  0  0  0  0
   19.9490    8.3890   33.3430 C   0  0  0  0  0  0  0  0  0  0  0  0
   19.3410    7.2190   32.6420 C   0  0  0  0  0  0  0  0  0  0  0  0
   20.3680    6.1100   32.6540 C   0  0  0  0  0  0  0  0  0  0  0  0
   21.2940    6.1880   31.4650 C   0  0  0  0  0  0  0  0  0  0  0  0
   26.4810    4.4090   26.1580 H   0  0  0  0  0  0  0  0  0  0  0  0
   25.3450    4.4440   28.3750 H   0  0  0  0  0  0  0  0  0  0  0  0
   27.2700    8.0980   29.2780 H   0  0  0  0  0  0  0  0  0  0  0  0
   28.4150    8.0730   27.0650 H   0  0  0  0  0  0  0  0  0  0  0  0
   26.1810    6.5270   31.0740 H   0  0  0  0  0  0  0  0  0  0  0  0
   23.6910    5.7410   29.4380 H   0  0  0  0  0  0  0  0  0  0  0  0
   24.0380    5.1770   31.0800 H   0  0  0  0  0  0  0  0  0  0  0  0
   24.4910   10.8700   31.9190 H   0  0  0  0  0  0  0  0  0  0  0  0
   23.0770   10.9590   32.9470 H   0  0  0  0  0  0  0  0  0  0  0  0
   20.3620   12.5540   30.2260 H   0  0  0  0  0  0  0  0  0  0  0  0
   19.4120   14.7950   30.4940 H   0  0  0  0  0  0  0  0  0  0  0  0
   22.9230   16.0180   32.5330 H   0  0  0  0  0  0  0  0  0  0  0  0
   23.8350   13.8230   32.2580 H   0  0  0  0  0  0  0  0  0  0  0  0
   22.0420   17.7370   32.8330 H   0  0  0  0  0  0  0  0  0  0  0  0
   20.7080   18.7930   32.2810 H   0  0  0  0  0  0  0  0  0  0  0  0
   21.9680   18.2870   31.0890 H   0  0  0  0  0  0  0  0  0  0  0  0
   20.1410    9.6750   31.6690 H   0  0  0  0  0  0  0  0  0  0  0  0
   21.1650   10.0850   33.0900 H   0  0  0  0  0  0  0  0  0  0  0  0
   19.1150    9.0350   33.7010 H   0  0  0  0  0  0  0  0  0  0  0  0
   20.4870    8.0530   34.2510 H   0  0  0  0  0  0  0  0  0  0  0  0
   18.4560    6.8620   33.2280 H   0  0  0  0  0  0  0  0  0  0  0  0
   19.0720    7.4300   31.6040 H   0  0  0  0  0  0  0  0  0  0  0  0
   19.8150    5.1530   32.5660 H   0  0  0  0  0  0  0  0  0  0  0  0
   20.9280    6.0600   33.6180 H   0  0  0  0  0  0  0  0  0  0  0  0
   20.6470    6.2250   30.5640 H   0  0  0  0  0  0  0  0  0  0  0  0
   21.9090    5.2650   31.5040 H   0  0  0  0  0  0  0  0  0  0  0  0
  1  2  1  0  0  0  0
  2  3  2  0  0  0  0
  2  7  1  0  0  0  0
  3  4  1  0  0  0  0
  4 32  1  0  0  0  0
  4  5  2  0  0  0  0
  5  8  1  0  0  0  0
  6  5  1  0  0  0  0
  6 33  1  0  0  0  0
  7  6  2  0  0  0  0
  8  9  1  0  0  0  0
  8 35  1  0  0  0  0
  9 10  1  0  0  0  0
  9 37  1  0  0  0  0
 10 14  2  0  0  0  0
 10 11  1  0  0  0  0
 11 30  1  0  0  0  0
 12 11  1  6  0  0  0
 12 26  1  0  0  0  0
 13 15  1  0  0  0  0
 13 12  1  0  0  0  0
 14 13  1  0  0  0  0
 15 38  1  0  0  0  0
 15 39  1  0  0  0  0
 16 17  1  6  0  0  0
 16 18  1  0  0  0  0
 16 15  1  0  0  0  0
 18 23  1  0  0  0  0
 19 20  1  0  0  0  0
 19 18  2  0  0  0  0
 20 21  2  0  0  0  0
 21 24  1  0  0  0  0
 21 22  1  0  0  0  0
 22 42  1  0  0  0  0
 23 22  2  0  0  0  0
 23 43  1  0  0  0  0
 24 25  1  0  0  0  0
 25 45  1  0  0  0  0
 25 44  1  0  0  0  0
 26 48  1  0  0  0  0
 26 27  1  0  0  0  0
 27 49  1  0  0  0  0
 27 50  1  0  0  0  0
 28 29  1  0  0  0  0
 28 51  1  0  0  0  0
 28 27  1  0  0  0  0
 29 54  1  0  0  0  0
 30 56  1  0  0  0  0
 30 29  1  0  0  0  0
 31  3  1  0  0  0  0
 34  7  1  0  0  0  0
 36  9  1  0  0  0  0
 40 19  1  0  0  0  0
 41 20  1  0  0  0  0
 46 25  1  0  0  0  0
 47 26  1  0  0  0  0
 52 28  1  0  0  0  0
 53 29  1  0  0  0  0
 55 30  1  0  0  0  0
M  END
>  <Pose>
1

>  <Score>
-6.60

$$$$
