
 OpenBabel03202209553D

 53 56  0  0  1  0  0  0  0  0999 V2000
   22.9560   18.9410   27.2580 B   0  0  0  0  0  0  0  0  0  0  0  0
   23.0190   17.1220   27.8590 C   0  0  0  0  0  0  0  0  0  0  0  0
   23.5360   16.1220   27.0670 C   0  0  0  0  0  0  0  0  0  0  0  0
   23.5620   14.8080   27.5090 C   0  0  0  0  0  0  0  0  0  0  0  0
   23.0730   14.4350   28.7600 C   0  0  0  0  0  0  0  0  0  0  0  0
   22.5730   15.4610   29.5050 C   0  0  0  0  0  0  0  0  0  0  0  0
   22.5340   16.7890   29.0860 C   0  0  0  0  0  0  0  0  0  0  0  0
   23.1030   13.1060   29.1290 N   0  0  0  0  0  4  0  0  0  0  0  0
   22.3810   12.7180   30.3030 C   0  0  1  0  0  0  0  0  0  0  0  0
   23.3530   13.2020   31.3790 C   0  0  0  0  0  0  0  0  0  0  0  0
   24.6670   12.8650   30.8100 N   0  0  0  0  0  0  0  0  0  0  0  0
   25.8190   12.7750   31.6360 C   0  0  0  0  0  0  0  0  0  0  0  0
   27.0750   12.3660   30.9280 C   0  0  0  0  0  0  0  0  0  0  0  0
   26.8040   11.1390   30.1010 C   0  0  0  0  0  0  0  0  0  0  0  0
   26.6150   11.6570   28.6680 C   0  0  0  0  0  0  0  0  0  0  0  0
   25.2290   12.1460   28.5250 C   0  0  0  0  0  0  0  0  0  0  0  0
   24.4220   12.6740   29.4170 C   0  0  0  0  0  0  0  0  0  0  0  0
   21.1020   13.1570   30.4310 O   0  0  0  0  0  0  0  0  0  0  0  0
   22.3350   11.2360   30.4630 C   0  0  0  0  0  0  0  0  0  0  0  0
   22.5150   10.3330   29.4590 C   0  0  0  0  0  0  0  0  0  0  0  0
   22.4660    8.9400   29.6790 C   0  0  0  0  0  0  0  0  0  0  0  0
   22.2300    8.4340   30.9350 C   0  0  0  0  0  0  0  0  0  0  0  0
   22.0450    9.3350   31.9550 C   0  0  0  0  0  0  0  0  0  0  0  0
   22.0940   10.6930   31.7360 C   0  0  0  0  0  0  0  0  0  0  0  0
   22.1830    7.0490   31.1660 O   0  0  0  0  0  0  0  0  0  0  0  0
   23.1520    6.1800   30.6320 C   0  0  0  0  0  0  0  0  0  0  0  0
   22.9590    4.7630   31.0730 C   0  0  0  0  0  0  0  0  0  0  0  0
   23.9130   16.4290   26.1010 H   0  0  0  0  0  0  0  0  0  0  0  0
   23.9830   14.0900   26.8240 H   0  0  0  0  0  0  0  0  0  0  0  0
   22.1690   15.2850   30.4680 H   0  0  0  0  0  0  0  0  0  0  0  0
   22.1080   17.5510   29.7630 H   0  0  0  0  0  0  0  0  0  0  0  0
   22.6660   12.5780   28.3100 H   0  0  0  0  0  0  0  0  0  0  0  0
   23.2700   14.2370   31.6520 H   0  0  0  0  0  0  0  0  0  0  0  0
   23.3040   12.6160   32.3090 H   0  0  0  0  0  0  0  0  0  0  0  0
   26.0050   13.7640   32.1070 H   0  0  0  0  0  0  0  0  0  0  0  0
   25.6240   11.9850   32.4310 H   0  0  0  0  0  0  0  0  0  0  0  0
   27.4180   13.2280   30.3230 H   0  0  0  0  0  0  0  0  0  0  0  0
   27.8080   12.0780   31.7050 H   0  0  0  0  0  0  0  0  0  0  0  0
   27.6050   10.3840   30.1290 H   0  0  0  0  0  0  0  0  0  0  0  0
   25.8510   10.6290   30.3530 H   0  0  0  0  0  0  0  0  0  0  0  0
   27.3110   12.4890   28.4430 H   0  0  0  0  0  0  0  0  0  0  0  0
   26.8600   10.8240   27.9740 H   0  0  0  0  0  0  0  0  0  0  0  0
   24.8370   12.0090   27.5360 H   0  0  0  0  0  0  0  0  0  0  0  0
   20.8890   13.9140   29.8560 H   0  0  0  0  0  0  0  0  0  0  0  0
   22.6870   10.6820   28.4600 H   0  0  0  0  0  0  0  0  0  0  0  0
   22.6160    8.2790   28.8360 H   0  0  0  0  0  0  0  0  0  0  0  0
   21.8640    8.9020   32.9510 H   0  0  0  0  0  0  0  0  0  0  0  0
   21.9360   11.3920   32.5550 H   0  0  0  0  0  0  0  0  0  0  0  0
   24.1460    6.5270   31.0500 H   0  0  0  0  0  0  0  0  0  0  0  0
   23.2860    6.2840   29.5290 H   0  0  0  0  0  0  0  0  0  0  0  0
   22.2250    4.6850   31.9120 H   0  0  0  0  0  0  0  0  0  0  0  0
   23.8900    4.2500   31.3870 H   0  0  0  0  0  0  0  0  0  0  0  0
   22.6130    4.1770   30.1730 H   0  0  0  0  0  0  0  0  0  0  0  0
  1  2  1  0  0  0  0
  2  7  1  0  0  0  0
  3  4  1  0  0  0  0
  3  2  2  0  0  0  0
  4  5  2  0  0  0  0
  5  8  1  0  0  0  0
  5  6  1  0  0  0  0
  6 30  1  0  0  0  0
  7  6  2  0  0  0  0
  7 31  1  0  0  0  0
  8 17  1  0  0  0  0
  8  9  1  0  0  0  0
  9 18  1  1  0  0  0
  9 19  1  0  0  0  0
  9 10  1  0  0  0  0
 10 33  1  0  0  0  0
 10 34  1  0  0  0  0
 11 10  1  0  0  0  0
 11 12  1  0  0  0  0
 12 35  1  0  0  0  0
 12 36  1  0  0  0  0
 13 12  1  0  0  0  0
 13 38  1  0  0  0  0
 14 39  1  0  0  0  0
 14 40  1  0  0  0  0
 14 13  1  0  0  0  0
 15 14  1  0  0  0  0
 16 15  1  0  0  0  0
 16 17  2  0  0  0  0
 17 11  1  0  0  0  0
 19 24  1  0  0  0  0
 20 21  1  0  0  0  0
 20 19  2  0  0  0  0
 21 22  2  0  0  0  0
 22 25  1  0  0  0  0
 22 23  1  0  0  0  0
 23 47  1  0  0  0  0
 24 23  2  0  0  0  0
 24 48  1  0  0  0  0
 26 49  1  0  0  0  0
 26 27  1  0  0  0  0
 26 25  1  0  0  0  0
 27 52  1  0  0  0  0
 27 51  1  0  0  0  0
 28  3  1  0  0  0  0
 29  4  1  0  0  0  0
 32  8  1  0  0  0  0
 37 13  1  0  0  0  0
 41 15  1  0  0  0  0
 42 15  1  0  0  0  0
 43 16  1  0  0  0  0
 44 18  1  0  0  0  0
 45 20  1  0  0  0  0
 46 21  1  0  0  0  0
 50 26  1  0  0  0  0
 53 27  1  0  0  0  0
M  END
>  <Pose>
1

>  <Score>
-5.17

$$$$
