
 OpenBabel03202209553D

 55 58  0  0  1  0  0  0  0  0999 V2000
   23.3780   14.6900   28.3590 B   0  0  0  0  0  0  0  0  0  0  0  0
   23.5300   13.2300   29.5900 C   0  0  0  0  0  0  0  0  0  0  0  0
   22.6590   12.1580   29.5520 C   0  0  0  0  0  0  0  0  0  0  0  0
   22.7720   11.1110   30.4380 C   0  0  0  0  0  0  0  0  0  0  0  0
   23.7920   11.1860   31.3630 C   0  0  0  0  0  0  0  0  0  0  0  0
   24.6660   12.2540   31.4060 C   0  0  0  0  0  0  0  0  0  0  0  0
   24.5490   13.3000   30.5170 C   0  0  0  0  0  0  0  0  0  0  0  0
   25.4980   14.4490   30.5720 C   0  0  0  0  0  0  0  0  0  0  0  0
   23.8860   10.1140   32.2500 O   0  0  0  0  0  0  0  0  0  0  0  0
   22.8780    9.1830   32.4550 C   0  0  0  0  0  0  0  0  0  0  0  0
   22.0320    8.8760   31.2660 C   0  0  2  0  0  0  0  0  0  0  0  0
   21.8070   10.0120   30.3310 C   0  0  2  0  0  0  0  0  0  0  0  0
   21.8400    9.5720   28.9850 O   0  0  0  0  0  0  0  0  0  0  0  0
   20.7180    8.5100   31.8050 N   0  0  0  0  0  4  0  0  0  0  0  0
   20.2950    9.3460   32.8750 C   0  0  0  0  0  0  0  0  0  0  0  0
   18.7930    9.0800   33.0590 C   0  0  0  0  0  0  0  0  0  0  0  0
   18.6790    7.7590   33.4570 O   0  0  0  0  0  0  0  0  0  0  0  0
   19.1730    6.8580   32.5210 C   0  0  0  0  0  0  0  0  0  0  0  0
   20.6510    7.1410   32.2160 C   0  0  0  0  0  0  0  0  0  0  0  0
   22.5250    7.6710   30.4910 C   0  0  0  0  0  0  0  0  0  0  0  0
   23.4810    6.8780   31.2010 N   0  0  0  0  0  4  0  0  0  0  0  0
   23.1320    5.4690   31.2280 C   0  0  0  0  0  0  0  0  0  0  0  0
   24.3340    4.5840   30.9350 C   0  0  0  0  0  0  0  0  0  0  0  0
   24.8370    4.7840   29.6600 O   0  0  0  0  0  0  0  0  0  0  0  0
   24.7160    6.1140   29.2710 C   0  0  0  0  0  0  0  0  0  0  0  0
   24.7910    6.9490   30.5330 C   0  0  0  0  0  0  0  0  0  0  0  0
   21.8650   12.1460   28.7980 H   0  0  0  0  0  0  0  0  0  0  0  0
   25.4580   12.2890   32.1410 H   0  0  0  0  0  0  0  0  0  0  0  0
   25.1800   15.1840   31.3450 H   0  0  0  0  0  0  0  0  0  0  0  0
   26.5210   14.1260   30.8230 H   0  0  0  0  0  0  0  0  0  0  0  0
   25.4580   14.9770   29.5960 H   0  0  0  0  0  0  0  0  0  0  0  0
   23.3430    8.2530   32.8540 H   0  0  0  0  0  0  0  0  0  0  0  0
   22.2450    9.5680   33.3100 H   0  0  0  0  0  0  0  0  0  0  0  0
   20.7760   10.4620   30.4370 H   0  0  0  0  0  0  0  0  0  0  0  0
   21.9050   10.3180   28.3540 H   0  0  0  0  0  0  0  0  0  0  0  0
   20.0510    8.6330   31.0100 H   0  0  0  0  0  0  0  0  0  0  0  0
   20.3990   10.4180   32.7180 H   0  0  0  0  0  0  0  0  0  0  0  0
   20.7550    9.0060   33.8470 H   0  0  0  0  0  0  0  0  0  0  0  0
   18.4390    9.7250   33.8610 H   0  0  0  0  0  0  0  0  0  0  0  0
   18.3340    9.2770   32.0750 H   0  0  0  0  0  0  0  0  0  0  0  0
   19.0270    5.8460   32.9230 H   0  0  0  0  0  0  0  0  0  0  0  0
   18.6290    7.0510   31.5730 H   0  0  0  0  0  0  0  0  0  0  0  0
   21.1830    6.9290   33.1660 H   0  0  0  0  0  0  0  0  0  0  0  0
   20.9510    6.4180   31.4350 H   0  0  0  0  0  0  0  0  0  0  0  0
   21.7110    7.0180   30.1410 H   0  0  0  0  0  0  0  0  0  0  0  0
   23.0220    8.0700   29.5600 H   0  0  0  0  0  0  0  0  0  0  0  0
   23.6560    7.1630   32.1770 H   0  0  0  0  0  0  0  0  0  0  0  0
   22.4030    5.2740   30.4100 H   0  0  0  0  0  0  0  0  0  0  0  0
   22.7470    5.1420   32.2160 H   0  0  0  0  0  0  0  0  0  0  0  0
   25.0940    4.6210   31.7290 H   0  0  0  0  0  0  0  0  0  0  0  0
   23.9320    3.5340   30.9490 H   0  0  0  0  0  0  0  0  0  0  0  0
   23.7280    6.2150   28.7730 H   0  0  0  0  0  0  0  0  0  0  0  0
   25.5490    6.3380   28.5840 H   0  0  0  0  0  0  0  0  0  0  0  0
   25.5590    6.5410   31.2220 H   0  0  0  0  0  0  0  0  0  0  0  0
   25.0760    8.0020   30.3270 H   0  0  0  0  0  0  0  0  0  0  0  0
  1  2  1  0  0  0  0
  2  7  1  0  0  0  0
  3  2  2  0  0  0  0
  3  4  1  0  0  0  0
  4  5  2  0  0  0  0
  5  6  1  0  0  0  0
  5  9  1  0  0  0  0
  6 28  1  0  0  0  0
  7  8  1  0  0  0  0
  7  6  2  0  0  0  0
  8 30  1  0  0  0  0
  8 29  1  0  0  0  0
  9 10  1  0  0  0  0
 10 32  1  0  0  0  0
 10 33  1  0  0  0  0
 11 20  1  6  0  0  0
 11 14  1  0  0  0  0
 11 10  1  0  0  0  0
 12 34  1  1  0  0  0
 12  4  1  0  0  0  0
 12 11  1  0  0  0  0
 13 12  1  0  0  0  0
 14 19  1  0  0  0  0
 14 15  1  0  0  0  0
 15 16  1  0  0  0  0
 15 38  1  0  0  0  0
 16 17  1  0  0  0  0
 16 39  1  0  0  0  0
 18 41  1  0  0  0  0
 18 17  1  0  0  0  0
 19 18  1  0  0  0  0
 19 43  1  0  0  0  0
 20 21  1  0  0  0  0
 21 22  1  0  0  0  0
 21 47  1  0  0  0  0
 22 49  1  0  0  0  0
 23 51  1  0  0  0  0
 23 22  1  0  0  0  0
 23 50  1  0  0  0  0
 24 23  1  0  0  0  0
 25 24  1  0  0  0  0
 25 26  1  0  0  0  0
 26 21  1  0  0  0  0
 26 54  1  0  0  0  0
 27  3  1  0  0  0  0
 31  8  1  0  0  0  0
 35 13  1  0  0  0  0
 36 14  1  0  0  0  0
 37 15  1  0  0  0  0
 40 16  1  0  0  0  0
 42 18  1  0  0  0  0
 44 19  1  0  0  0  0
 45 20  1  0  0  0  0
 46 20  1  0  0  0  0
 48 22  1  0  0  0  0
 52 25  1  0  0  0  0
 53 25  1  0  0  0  0
 55 26  1  0  0  0  0
M  END
>  <Pose>
1

>  <Score>
-5.30

$$$$
