
 OpenBabel03202209553D

 60 61  0  0  1  0  0  0  0  0999 V2000
   23.1310   13.7500   27.2340 B   0  0  0  0  0  0  0  0  0  0  0  0
   22.8040   13.6410   29.0900 C   0  0  0  0  0  0  0  0  0  0  0  0
   22.7490   12.3930   29.6600 C   0  0  0  0  0  0  0  0  0  0  0  0
   22.5140   12.1850   31.0300 C   0  0  0  0  0  0  0  0  0  0  0  0
   22.3250   13.3030   31.8520 C   0  0  0  0  0  0  0  0  0  0  0  0
   22.3820   14.5480   31.2660 C   0  0  0  0  0  0  0  0  0  0  0  0
   22.6150   14.7290   29.9150 C   0  0  0  0  0  0  0  0  0  0  0  0
   22.6700   16.1020   29.3050 C   0  0  0  0  0  0  0  0  0  0  0  0
   22.1250   16.0680   32.3870 B   0  0  0  0  0  0  0  0  0  0  0  0
   22.4600   10.8430   31.5760 C   0  0  0  0  0  0  0  0  0  0  0  0
   21.6900   10.6690   32.5540 O   0  0  0  0  0  0  0  0  0  0  0  0
   23.3060    9.8180   30.9360 C   0  0  2  0  0  0  0  0  0  0  0  0
   22.7780    9.9360   29.4350 C   0  0  0  0  0  0  0  0  0  0  0  0
   22.9200   11.2210   28.9460 O   0  0  0  0  0  0  0  0  0  0  0  0
   23.0790    8.4380   31.3180 C   0  0  0  0  0  0  0  0  0  0  0  0
   21.9080    7.7000   31.2550 N   0  0  0  0  0  4  0  0  0  0  0  0
   21.1270    7.3970   32.3900 C   0  0  0  0  0  0  0  0  0  0  0  0
   20.3330    6.1040   32.2620 C   0  0  0  0  0  0  0  0  0  0  0  0
   21.2260    4.9070   32.1900 C   0  0  0  0  0  0  0  0  0  0  0  0
   22.4740    5.2950   31.4580 C   0  0  0  0  0  0  0  0  0  0  0  0
   22.1760    6.4330   30.5380 C   0  0  0  0  0  0  0  0  0  0  0  0
   24.7200   10.2580   30.9350 C   0  0  0  0  0  0  0  0  0  0  0  0
   25.7420    9.4020   30.4980 N   0  0  0  0  0  0  0  0  0  0  0  0
   25.1300    8.1400   30.0610 C   0  0  0  0  0  0  0  0  0  0  0  0
   26.1600    7.0500   29.8500 C   0  0  0  0  0  0  0  0  0  0  0  0
   27.0250    7.5230   28.6710 C   0  0  0  0  0  0  0  0  0  0  0  0
   27.6460    8.8120   29.1590 C   0  0  0  0  0  0  0  0  0  0  0  0
   26.5100    9.8330   29.3420 C   0  0  0  0  0  0  0  0  0  0  0  0
   22.1430   13.1390   32.8960 H   0  0  0  0  0  0  0  0  0  0  0  0
   23.6270   16.5530   29.6750 H   0  0  0  0  0  0  0  0  0  0  0  0
   22.6290   16.0260   28.2190 H   0  0  0  0  0  0  0  0  0  0  0  0
   21.8420   16.6840   29.7550 H   0  0  0  0  0  0  0  0  0  0  0  0
   21.6980    9.7080   29.5440 H   0  0  0  0  0  0  0  0  0  0  0  0
   23.2450    9.1570   28.8470 H   0  0  0  0  0  0  0  0  0  0  0  0
   23.4940    8.2770   32.3790 H   0  0  0  0  0  0  0  0  0  0  0  0
   23.8730    7.8210   30.7380 H   0  0  0  0  0  0  0  0  0  0  0  0
   21.1970    8.1470   30.5380 H   0  0  0  0  0  0  0  0  0  0  0  0
   20.3920    8.2220   32.5710 H   0  0  0  0  0  0  0  0  0  0  0  0
   21.6700    7.2780   33.3320 H   0  0  0  0  0  0  0  0  0  0  0  0
   19.7450    6.1690   31.3330 H   0  0  0  0  0  0  0  0  0  0  0  0
   19.6410    5.9730   33.0980 H   0  0  0  0  0  0  0  0  0  0  0  0
   20.7660    4.0240   31.7290 H   0  0  0  0  0  0  0  0  0  0  0  0
   21.4890    4.6600   33.2620 H   0  0  0  0  0  0  0  0  0  0  0  0
   22.7650    4.4380   30.8130 H   0  0  0  0  0  0  0  0  0  0  0  0
   23.3450    5.4710   32.1160 H   0  0  0  0  0  0  0  0  0  0  0  0
   22.9650    6.6030   29.7560 H   0  0  0  0  0  0  0  0  0  0  0  0
   21.2530    6.1730   29.9930 H   0  0  0  0  0  0  0  0  0  0  0  0
   25.0030   10.7000   31.9260 H   0  0  0  0  0  0  0  0  0  0  0  0
   24.8220   11.2140   30.2730 H   0  0  0  0  0  0  0  0  0  0  0  0
   26.4610    9.0970   31.1860 H   0  0  0  0  0  0  0  0  0  0  0  0
   24.7040    8.3460   29.0360 H   0  0  0  0  0  0  0  0  0  0  0  0
   24.3120    7.7990   30.6740 H   0  0  0  0  0  0  0  0  0  0  0  0
   26.7710    6.9250   30.7600 H   0  0  0  0  0  0  0  0  0  0  0  0
   25.6300    6.1530   29.5420 H   0  0  0  0  0  0  0  0  0  0  0  0
   27.7600    6.7690   28.3920 H   0  0  0  0  0  0  0  0  0  0  0  0
   26.3210    7.7990   27.8580 H   0  0  0  0  0  0  0  0  0  0  0  0
   28.0430    8.6450   30.2000 H   0  0  0  0  0  0  0  0  0  0  0  0
   28.4440    9.2050   28.5290 H   0  0  0  0  0  0  0  0  0  0  0  0
   27.0520   10.7800   29.4690 H   0  0  0  0  0  0  0  0  0  0  0  0
   25.9110    9.7890   28.4180 H   0  0  0  0  0  0  0  0  0  0  0  0
  1  2  1  0  0  0  0
  2  3  2  0  0  0  0
  2  7  1  0  0  0  0
  3  4  1  0  0  0  0
  4 10  1  0  0  0  0
  4  5  2  0  0  0  0
  5 29  1  0  0  0  0
  6  5  1  0  0  0  0
  6  9  1  0  0  0  0
  7  6  2  0  0  0  0
  8 30  1  0  0  0  0
  8 32  1  0  0  0  0
  8  7  1  0  0  0  0
 10 11  2  0  0  0  0
 12 22  1  1  0  0  0
 12 15  1  0  0  0  0
 12 10  1  0  0  0  0
 13 33  1  0  0  0  0
 13 12  1  0  0  0  0
 14 13  1  0  0  0  0
 14  3  1  0  0  0  0
 15 35  1  0  0  0  0
 16 15  1  0  0  0  0
 16 17  1  0  0  0  0
 17 38  1  0  0  0  0
 17 39  1  0  0  0  0
 18 17  1  0  0  0  0
 18 41  1  0  0  0  0
 19 18  1  0  0  0  0
 19 43  1  0  0  0  0
 20 45  1  0  0  0  0
 20 19  1  0  0  0  0
 21 16  1  0  0  0  0
 21 20  1  0  0  0  0
 22 48  1  0  0  0  0
 23 22  1  0  0  0  0
 23 50  1  0  0  0  0
 24 52  1  0  0  0  0
 25 53  1  0  0  0  0
 26 27  1  0  0  0  0
 26 25  1  0  0  0  0
 27 28  1  0  0  0  0
 27 57  1  0  0  0  0
 28 59  1  0  0  0  0
 28 23  1  0  0  0  0
 31  8  1  0  0  0  0
 34 13  1  0  0  0  0
 36 15  1  0  0  0  0
 37 16  1  0  0  0  0
 40 18  1  0  0  0  0
 42 19  1  0  0  0  0
 44 20  1  0  0  0  0
 46 21  1  0  0  0  0
 47 21  1  0  0  0  0
 49 22  1  0  0  0  0
 51 24  1  0  0  0  0
 54 25  1  0  0  0  0
 55 26  1  0  0  0  0
 56 26  1  0  0  0  0
 58 27  1  0  0  0  0
 60 28  1  0  0  0  0
M  END
>  <Pose>
1

>  <Score>
-5.37

$$$$
