
 OpenBabel03202209553D

 53 56  0  0  1  0  0  0  0  0999 V2000
   26.7410    8.6960   29.3380 F   0  0  0  0  0  0  0  0  0  0  0  0
   25.5710    8.4350   29.9010 C   0  0  0  0  0  0  0  0  0  0  0  0
   24.8390    9.4090   30.5490 C   0  0  0  0  0  0  0  0  0  0  0  0
   23.6470    8.9860   31.0820 C   0  0  0  0  0  0  0  0  0  0  0  0
   23.1690    7.6870   31.0030 C   0  0  0  0  0  0  0  0  0  0  0  0
   23.9220    6.7510   30.3540 C   0  0  0  0  0  0  0  0  0  0  0  0
   25.1080    7.1200   29.8080 C   0  0  0  0  0  0  0  0  0  0  0  0
   25.2760   10.8120   30.6420 C   0  0  2  0  0  0  0  0  0  0  0  0
   24.1980   11.7740   30.8150 N   0  0  0  0  0  0  0  0  0  0  0  0
   23.5030   11.6540   29.5560 C   0  0  0  0  0  0  0  0  0  0  0  0
   22.2750   11.8060   29.3190 O   0  0  0  0  0  0  0  0  0  0  0  0
   24.4910   11.3040   28.4980 C   0  0  0  0  0  0  0  0  0  0  0  0
   24.3760   11.1020   27.2900 O   0  0  0  0  0  0  0  0  0  0  0  0
   25.7640   11.2430   29.2750 C   0  0  0  0  0  0  0  0  0  0  0  0
   26.9710   11.4990   28.8340 C   0  0  0  0  0  0  0  0  0  0  0  0
   28.0650   11.3780   29.7150 O   0  0  0  0  0  0  0  0  0  0  0  0
   27.2170   11.9090   27.4600 C   0  0  0  0  0  0  0  0  0  0  0  0
   27.2540   13.2530   27.1600 C   0  0  0  0  0  0  0  0  0  0  0  0
   27.4560   13.7130   25.8690 C   0  0  0  0  0  0  0  0  0  0  0  0
   27.6290   12.8120   24.8400 C   0  0  0  0  0  0  0  0  0  0  0  0
   27.5960   11.4790   25.1140 C   0  0  0  0  0  0  0  0  0  0  0  0
   27.3890   11.0240   26.4280 C   0  0  0  0  0  0  0  0  0  0  0  0
   27.9120   13.4220   23.0330 B   0  0  0  0  0  0  0  0  0  0  0  0
   23.8100   12.6410   31.8420 C   0  0  0  0  0  0  0  0  0  0  0  0
   23.5430   14.0760   31.5590 C   0  0  0  0  0  0  0  0  0  0  0  0
   22.2380   14.5230   31.9560 N   0  0  0  0  0  4  0  0  0  0  0  0
   21.2660   13.5130   31.5910 C   0  0  0  0  0  0  0  0  0  0  0  0
   19.8850   13.8880   32.0980 C   0  0  0  0  0  0  0  0  0  0  0  0
   19.5180   15.1020   31.5500 O   0  0  0  0  0  0  0  0  0  0  0  0
   20.4610   16.0800   31.8540 C   0  0  0  0  0  0  0  0  0  0  0  0
   21.8100   15.7260   31.2140 C   0  0  0  0  0  0  0  0  0  0  0  0
   23.0260    9.6800   31.5830 H   0  0  0  0  0  0  0  0  0  0  0  0
   22.2260    7.3810   31.4320 H   0  0  0  0  0  0  0  0  0  0  0  0
   23.5670    5.7290   30.2820 H   0  0  0  0  0  0  0  0  0  0  0  0
   25.6940    6.3630   29.2980 H   0  0  0  0  0  0  0  0  0  0  0  0
   26.0990   10.9000   31.3350 H   0  0  0  0  0  0  0  0  0  0  0  0
   27.1260   14.0220   27.9200 H   0  0  0  0  0  0  0  0  0  0  0  0
   27.4890   14.7590   25.6040 H   0  0  0  0  0  0  0  0  0  0  0  0
   27.7310   10.7670   24.3090 H   0  0  0  0  0  0  0  0  0  0  0  0
   27.3510    9.9780   26.6240 H   0  0  0  0  0  0  0  0  0  0  0  0
   24.5840   12.6340   32.6620 H   0  0  0  0  0  0  0  0  0  0  0  0
   22.8830   12.2990   32.4100 H   0  0  0  0  0  0  0  0  0  0  0  0
   24.2670   14.6530   32.2030 H   0  0  0  0  0  0  0  0  0  0  0  0
   23.8270   14.3870   30.5250 H   0  0  0  0  0  0  0  0  0  0  0  0
   22.1730   14.8240   32.9500 H   0  0  0  0  0  0  0  0  0  0  0  0
   21.1960   13.5530   30.4640 H   0  0  0  0  0  0  0  0  0  0  0  0
   21.5660   12.4940   31.8310 H   0  0  0  0  0  0  0  0  0  0  0  0
   19.9260   13.8910   33.2080 H   0  0  0  0  0  0  0  0  0  0  0  0
   19.1870   13.1120   31.7350 H   0  0  0  0  0  0  0  0  0  0  0  0
   20.6120   16.0340   32.9670 H   0  0  0  0  0  0  0  0  0  0  0  0
   20.1470   17.0890   31.5680 H   0  0  0  0  0  0  0  0  0  0  0  0
   21.6970   15.4780   30.1570 H   0  0  0  0  0  0  0  0  0  0  0  0
   22.5220   16.5310   31.4480 H   0  0  0  0  0  0  0  0  0  0  0  0
  1  2  1  0  0  0  0
  2  3  1  0  0  0  0
  3  8  1  0  0  0  0
  3  4  2  0  0  0  0
  4 32  1  0  0  0  0
  5  4  1  0  0  0  0
  5 33  1  0  0  0  0
  6  5  2  0  0  0  0
  7  2  2  0  0  0  0
  7  6  1  0  0  0  0
  8  9  1  0  0  0  0
  8 36  1  1  0  0  0
  9 24  1  0  0  0  0
 10  9  1  0  0  0  0
 11 10  2  0  0  0  0
 12 14  1  0  0  0  0
 12 10  1  0  0  0  0
 13 12  2  0  0  0  0
 14  8  1  0  0  0  0
 15 14  2  0  0  0  0
 15 16  1  0  0  0  0
 17 15  1  0  0  0  0
 18 17  1  0  0  0  0
 18 37  1  0  0  0  0
 19 18  2  0  0  0  0
 20 21  2  0  0  0  0
 20 19  1  0  0  0  0
 21 22  1  0  0  0  0
 22 40  1  0  0  0  0
 22 17  2  0  0  0  0
 23 20  1  0  0  0  0
 24 42  1  0  0  0  0
 24 41  1  0  0  0  0
 25 24  1  0  0  0  0
 25 26  1  0  0  0  0
 25 43  1  0  0  0  0
 26 45  1  0  0  0  0
 27 47  1  0  0  0  0
 27 26  1  0  0  0  0
 27 28  1  0  0  0  0
 28 48  1  0  0  0  0
 29 30  1  0  0  0  0
 29 28  1  0  0  0  0
 30 50  1  0  0  0  0
 31 53  1  0  0  0  0
 31 30  1  0  0  0  0
 31 26  1  0  0  0  0
 34  6  1  0  0  0  0
 35  7  1  0  0  0  0
 38 19  1  0  0  0  0
 39 21  1  0  0  0  0
 44 25  1  0  0  0  0
 46 27  1  0  0  0  0
 49 28  1  0  0  0  0
 51 30  1  0  0  0  0
 52 31  1  0  0  0  0
M  END
>  <Pose>
1

>  <Score>
-6.01

$$$$
