
 OpenBabel03202209553D

 41 44  0  0  0  0  0  0  0  0999 V2000
   25.1520   -0.6780   27.5910 F   0  0  0  0  0  0  0  0  0  0  0  0
   26.4120   -0.1720   27.4550 C   0  0  0  0  0  0  0  0  0  0  0  0
   26.7470    0.9790   28.1860 C   0  0  0  0  0  0  0  0  0  0  0  0
   28.0240    1.4500   28.0150 C   0  0  0  0  0  0  0  0  0  0  0  0
   28.9110    0.8100   27.1650 C   0  0  0  0  0  0  0  0  0  0  0  0
   28.5800   -0.3080   26.4560 C   0  0  0  0  0  0  0  0  0  0  0  0
   27.3030   -0.7920   26.6170 C   0  0  0  0  0  0  0  0  0  0  0  0
   25.7740    1.5730   29.0390 N   0  0  0  0  0  0  0  0  0  0  0  0
   25.9850    2.2610   30.2300 C   0  0  0  0  0  0  0  0  0  0  0  0
   26.2890    1.6860   31.2880 O   0  0  0  0  0  0  0  0  0  0  0  0
   25.8560    3.7440   30.3020 C   0  0  0  0  0  0  0  0  0  0  0  0
   24.5120    4.0960   30.7200 N   0  0  0  0  0  0  0  0  0  0  0  0
   23.5380    3.3050   31.1130 N   0  0  0  0  0  0  0  0  0  0  0  0
   22.4600    4.0150   31.4120 N   0  0  0  0  0  0  0  0  0  0  0  0
   22.7470    5.3190   31.2050 C   0  0  0  0  0  0  0  0  0  0  0  0
   23.9960    5.3520   30.7850 C   0  0  0  0  0  0  0  0  0  0  0  0
   24.2930    6.6890   30.5730 C   0  0  0  0  0  0  0  0  0  0  0  0
   25.3990    7.1080   30.1680 O   0  0  0  0  0  0  0  0  0  0  0  0
   23.2350    7.4690   30.8590 N   0  0  0  0  0  0  0  0  0  0  0  0
   22.2710    6.6160   31.2530 C   0  0  0  0  0  0  0  0  0  0  0  0
   21.1160    6.9340   31.6120 O   0  0  0  0  0  0  0  0  0  0  0  0
   23.1700    8.8910   30.7590 C   0  0  0  0  0  0  0  0  0  0  0  0
   22.4030    9.5060   29.7890 C   0  0  0  0  0  0  0  0  0  0  0  0
   22.3280   10.8800   29.6790 C   0  0  0  0  0  0  0  0  0  0  0  0
   23.0260   11.7020   30.5410 C   0  0  0  0  0  0  0  0  0  0  0  0
   23.7990   11.1090   31.5170 C   0  0  0  0  0  0  0  0  0  0  0  0
   23.8600    9.7330   31.6100 C   0  0  0  0  0  0  0  0  0  0  0  0
   22.9420   13.6080   30.4110 B   0  0  0  0  0  0  0  0  0  0  0  0
   28.3590    2.3200   28.5370 H   0  0  0  0  0  0  0  0  0  0  0  0
   29.9270    1.1970   27.0390 H   0  0  0  0  0  0  0  0  0  0  0  0
   29.3090   -0.7690   25.8050 H   0  0  0  0  0  0  0  0  0  0  0  0
   27.0450   -1.6850   26.0470 H   0  0  0  0  0  0  0  0  0  0  0  0
   24.7500    1.4840   28.7320 H   0  0  0  0  0  0  0  0  0  0  0  0
   26.0210    4.1430   29.2650 H   0  0  0  0  0  0  0  0  0  0  0  0
   26.6230    4.1810   30.9700 H   0  0  0  0  0  0  0  0  0  0  0  0
   23.6320    2.2580   31.1700 H   0  0  0  0  0  0  0  0  0  0  0  0
   21.5430    3.6350   31.7500 H   0  0  0  0  0  0  0  0  0  0  0  0
   21.8530    8.8450   29.1110 H   0  0  0  0  0  0  0  0  0  0  0  0
   21.7250   11.3450   28.9190 H   0  0  0  0  0  0  0  0  0  0  0  0
   24.3520   11.7670   32.1990 H   0  0  0  0  0  0  0  0  0  0  0  0
   24.4630    9.2630   32.3710 H   0  0  0  0  0  0  0  0  0  0  0  0
  2  1  1  0  0  0  0
  2  3  1  0  0  0  0
  3  8  1  0  0  0  0
  4  3  2  0  0  0  0
  4 29  1  0  0  0  0
  5  4  1  0  0  0  0
  6  7  1  0  0  0  0
  6  5  2  0  0  0  0
  7  2  2  0  0  0  0
  8  9  1  0  0  0  0
  9 11  1  0  0  0  0
  9 10  2  0  0  0  0
 11 12  1  0  0  0  0
 11 35  1  0  0  0  0
 12 16  1  0  0  0  0
 12 13  1  0  0  0  0
 13 36  1  0  0  0  0
 13 14  1  0  0  0  0
 14 37  1  0  0  0  0
 15 20  1  0  0  0  0
 15 14  1  0  0  0  0
 16 15  2  0  0  0  0
 17 16  1  0  0  0  0
 17 19  1  0  0  0  0
 18 17  2  0  0  0  0
 19 20  1  0  0  0  0
 20 21  2  0  0  0  0
 22 19  1  0  0  0  0
 22 27  1  0  0  0  0
 23 22  2  0  0  0  0
 24 23  1  0  0  0  0
 24 25  2  0  0  0  0
 25 26  1  0  0  0  0
 26 27  2  0  0  0  0
 26 40  1  0  0  0  0
 27 41  1  0  0  0  0
 28 25  1  0  0  0  0
 30  5  1  0  0  0  0
 31  6  1  0  0  0  0
 32  7  1  0  0  0  0
 33  8  1  0  0  0  0
 34 11  1  0  0  0  0
 38 23  1  0  0  0  0
 39 24  1  0  0  0  0
M  END
>  <Pose>
1

>  <Score>
-7.23

$$$$
