
 OpenBabel03202209553D

 38 41  0  0  1  0  0  0  0  0999 V2000
   23.5150   12.7950   29.7290 I   0  0  0  0  0  0  0  0  0  0  0  0
   21.8170   13.2810   30.8880 C   0  0  0  0  0  0  0  0  0  0  0  0
   21.2790   12.3170   31.7700 C   0  0  0  0  0  0  0  0  0  0  0  0
   20.1800   12.6110   32.5250 C   0  0  0  0  0  0  0  0  0  0  0  0
   19.6220   13.8850   32.3910 C   0  0  0  0  0  0  0  0  0  0  0  0
   20.1200   14.8360   31.5460 C   0  0  0  0  0  0  0  0  0  0  0  0
   21.2410   14.5220   30.7810 C   0  0  0  0  0  0  0  0  0  0  0  0
   21.9030   11.0560   31.8580 N   0  0  0  0  0  0  0  0  0  0  0  0
   21.3030    9.8030   32.1010 C   0  0  1  0  0  0  0  0  0  0  0  0
   20.1940    9.5850   32.7980 N   0  0  0  0  0  0  0  0  0  0  0  0
   19.6310    8.3860   33.0220 C   0  0  0  0  0  0  0  0  0  0  0  0
   18.5630    7.8870   33.6560 N   0  0  0  0  0  0  0  0  0  0  0  0
   18.5220    6.5920   33.5280 O   0  0  0  0  0  0  0  0  0  0  0  0
   19.5390    6.1930   32.8190 N   0  0  0  0  0  0  0  0  0  0  0  0
   20.2670    7.2660   32.4750 C   0  0  0  0  0  0  0  0  0  0  0  0
   21.3740    7.4240   31.7720 N   0  0  0  0  0  0  0  0  0  0  0  0
   21.8950    8.6380   31.5760 C   0  0  0  0  0  0  0  0  0  0  0  0
   22.9860    8.4650   30.8470 N   0  0  0  0  0  0  0  0  0  0  0  0
   23.1470    7.1560   30.5880 N   0  0  0  0  0  0  0  0  0  0  0  0
   22.1420    6.4780   31.1610 C   0  0  0  0  0  0  0  0  0  0  0  0
   21.8740    5.0150   31.1690 C   0  0  0  0  0  0  0  0  0  0  0  0
   22.9560    4.2270   31.8070 C   0  0  0  0  0  0  0  0  0  0  0  0
   22.7950    3.5760   32.8600 O   0  0  0  0  0  0  0  0  0  0  0  0
   24.1900    4.2120   31.2190 O   0  0  0  0  0  0  0  0  0  0  0  0
   25.0910    3.1650   31.2770 C   0  0  0  0  0  0  0  0  0  0  0  0
   26.5260    3.5310   31.2610 C   0  0  0  0  0  0  0  0  0  0  0  0
   19.7110   11.9380   33.2180 H   0  0  0  0  0  0  0  0  0  0  0  0
   18.7410   14.1350   32.9890 H   0  0  0  0  0  0  0  0  0  0  0  0
   19.6680   15.8100   31.4620 H   0  0  0  0  0  0  0  0  0  0  0  0
   21.6260   15.2810   30.1150 H   0  0  0  0  0  0  0  0  0  0  0  0
   22.9740   11.0740   31.7200 H   0  0  0  0  0  0  0  0  0  0  0  0
   21.6070    4.6300   30.1680 H   0  0  0  0  0  0  0  0  0  0  0  0
   20.9590    4.8220   31.8110 H   0  0  0  0  0  0  0  0  0  0  0  0
   24.8350    2.5720   32.2000 H   0  0  0  0  0  0  0  0  0  0  0  0
   24.8980    2.4370   30.4380 H   0  0  0  0  0  0  0  0  0  0  0  0
   26.9840    3.1830   32.2350 H   0  0  0  0  0  0  0  0  0  0  0  0
   26.6890    4.6330   31.2580 H   0  0  0  0  0  0  0  0  0  0  0  0
   27.0390    3.0280   30.4320 H   0  0  0  0  0  0  0  0  0  0  0  0
  1  2  1  0  0  0  0
  2  3  1  0  0  0  0
  3  8  1  0  0  0  0
  3  4  2  0  0  0  0
  4 27  1  0  0  0  0
  5  4  1  0  0  0  0
  5 28  1  0  0  0  0
  6  5  2  0  0  0  0
  7  2  2  0  0  0  0
  7  6  1  0  0  0  0
  9  8  1  6  0  0  0
  9 10  1  0  0  0  0
 10 11  2  0  0  0  0
 11 12  1  0  0  0  0
 13 12  1  0  0  0  0
 14 13  1  0  0  0  0
 15 14  2  0  0  0  0
 15 11  1  0  0  0  0
 16 15  1  0  0  0  0
 17 16  1  0  0  0  0
 17  9  1  0  0  0  0
 18 17  2  0  0  0  0
 19 18  1  0  0  0  0
 19 20  2  0  0  0  0
 20 21  1  0  0  0  0
 20 16  1  0  0  0  0
 21 22  1  0  0  0  0
 21 33  1  0  0  0  0
 22 23  2  0  0  0  0
 24 25  1  0  0  0  0
 24 22  1  0  0  0  0
 25 34  1  0  0  0  0
 26 25  1  0  0  0  0
 26 36  1  0  0  0  0
 29  6  1  0  0  0  0
 30  7  1  0  0  0  0
 31  8  1  0  0  0  0
 32 21  1  0  0  0  0
 35 25  1  0  0  0  0
 37 26  1  0  0  0  0
 38 26  1  0  0  0  0
M  END
>  <Pose>
1

>  <Score>
-7.07

$$$$
