
 OpenBabel03202209553D

 34 37  0  0  0  0  0  0  0  0999 V2000
   23.4900    6.9930   29.9200 I   0  0  0  0  0  0  0  0  0  0  0  0
   21.9450    7.0300   31.3660 C   0  0  0  0  0  0  0  0  0  0  0  0
   21.7440    8.2130   32.0480 C   0  0  0  0  0  0  0  0  0  0  0  0
   20.7340    8.2160   32.9880 C   0  0  0  0  0  0  0  0  0  0  0  0
   19.9660    7.0890   33.2260 C   0  0  0  0  0  0  0  0  0  0  0  0
   20.1760    5.9130   32.5380 C   0  0  0  0  0  0  0  0  0  0  0  0
   21.1850    5.9010   31.5970 C   0  0  0  0  0  0  0  0  0  0  0  0
   22.5440    9.3680   31.7920 N   0  0  0  0  0  0  0  0  0  0  0  0
   22.1920   10.6650   31.8510 C   0  0  0  0  0  0  0  0  0  0  0  0
   21.0400   11.0970   32.1570 O   0  0  0  0  0  0  0  0  0  0  0  0
   23.2520   11.4900   31.5320 C   0  0  0  0  0  0  0  0  0  0  0  0
   24.2660   10.6800   31.2760 C   0  0  0  0  0  0  0  0  0  0  0  0
   25.2970   11.5010   30.9670 N   0  0  0  0  0  0  0  0  0  0  0  0
   24.9190   12.7650   31.0330 N   0  0  0  0  0  0  0  0  0  0  0  0
   23.6580   12.7810   31.3810 N   0  0  0  0  0  0  0  0  0  0  0  0
   22.8130   13.9060   31.5820 C   0  0  0  0  0  0  0  0  0  0  0  0
   21.6260   14.0610   30.9000 C   0  0  0  0  0  0  0  0  0  0  0  0
   20.8250   15.1700   31.1180 C   0  0  0  0  0  0  0  0  0  0  0  0
   21.1740   16.1560   32.0170 C   0  0  0  0  0  0  0  0  0  0  0  0
   22.3620   16.0020   32.7010 C   0  0  0  0  0  0  0  0  0  0  0  0
   23.1630   14.9070   32.4900 C   0  0  0  0  0  0  0  0  0  0  0  0
   23.8400    9.3700   31.4340 C   0  0  0  0  0  0  0  0  0  0  0  0
   24.5790    8.3470   31.2600 O   0  0  0  0  0  0  0  0  0  0  0  0
   20.5710    9.1400   33.5260 H   0  0  0  0  0  0  0  0  0  0  0  0
   19.1800    7.1140   33.9660 H   0  0  0  0  0  0  0  0  0  0  0  0
   19.5580    5.0490   32.7470 H   0  0  0  0  0  0  0  0  0  0  0  0
   21.3470    4.9670   31.0560 H   0  0  0  0  0  0  0  0  0  0  0  0
   26.2610   11.2020   30.7090 H   0  0  0  0  0  0  0  0  0  0  0  0
   25.5130   13.5970   30.8430 H   0  0  0  0  0  0  0  0  0  0  0  0
   21.3280   13.3010   30.1890 H   0  0  0  0  0  0  0  0  0  0  0  0
   19.9010   15.2570   30.5660 H   0  0  0  0  0  0  0  0  0  0  0  0
   20.5210   17.0130   32.1640 H   0  0  0  0  0  0  0  0  0  0  0  0
   22.6340   16.7820   33.4080 H   0  0  0  0  0  0  0  0  0  0  0  0
   24.0910   14.7660   33.0090 H   0  0  0  0  0  0  0  0  0  0  0  0
  1  2  1  0  0  0  0
  2  7  2  0  0  0  0
  2  3  1  0  0  0  0
  3  4  2  0  0  0  0
  4  5  1  0  0  0  0
  4 24  1  0  0  0  0
  5 25  1  0  0  0  0
  6 26  1  0  0  0  0
  6  5  2  0  0  0  0
  7  6  1  0  0  0  0
  8  9  1  0  0  0  0
  8  3  1  0  0  0  0
  9 10  2  0  0  0  0
 11  9  1  0  0  0  0
 12 22  1  0  0  0  0
 12 11  2  0  0  0  0
 13 14  1  0  0  0  0
 13 12  1  0  0  0  0
 14 15  1  0  0  0  0
 15 11  1  0  0  0  0
 15 16  1  0  0  0  0
 16 21  1  0  0  0  0
 17 18  1  0  0  0  0
 17 16  2  0  0  0  0
 18 19  2  0  0  0  0
 19 32  1  0  0  0  0
 19 20  1  0  0  0  0
 20 33  1  0  0  0  0
 21 20  2  0  0  0  0
 21 34  1  0  0  0  0
 22  8  1  0  0  0  0
 23 22  2  0  0  0  0
 27  7  1  0  0  0  0
 28 13  1  0  0  0  0
 29 14  1  0  0  0  0
 30 17  1  0  0  0  0
 31 18  1  0  0  0  0
M  END
>  <Pose>
1

>  <Score>
-5.99

$$$$
