
 OpenBabel03202209553D

 40 43  0  0  0  0  0  0  0  0999 V2000
   22.4170    9.6460   32.0490 I   0  0  0  0  0  0  0  0  0  0  0  0
   20.4220    9.4160   32.7520 C   0  0  0  0  0  0  0  0  0  0  0  0
   19.7250    8.2330   32.8670 C   0  0  0  0  0  0  0  0  0  0  0  0
   18.5120    8.5300   33.3390 N   0  0  0  0  0  0  0  0  0  0  0  0
   18.4450    9.8440   33.5180 N   0  0  0  0  0  0  0  0  0  0  0  0
   19.5920   10.4260   33.1710 C   0  0  0  0  0  0  0  0  0  0  0  0
   17.3760    7.6250   33.5910 C   0  0  0  0  0  0  0  0  0  0  0  0
   20.2420    6.8950   32.4690 C   0  0  0  0  0  0  0  0  0  0  0  0
   19.4620    5.9640   32.9290 O   0  0  0  0  0  0  0  0  0  0  0  0
   21.3370    6.6600   31.7460 N   0  0  0  0  0  0  0  0  0  0  0  0
   22.4700    6.4180   30.9980 C   0  0  0  0  0  0  0  0  0  0  0  0
   23.1150    5.1890   31.2740 C   0  0  0  0  0  0  0  0  0  0  0  0
   22.8650    4.2510   32.1800 N   0  0  0  0  0  0  0  0  0  0  0  0
   23.7440    3.3060   32.0410 O   0  0  0  0  0  0  0  0  0  0  0  0
   24.5560    3.5850   31.0860 N   0  0  0  0  0  0  0  0  0  0  0  0
   24.1960    4.7690   30.5720 C   0  0  0  0  0  0  0  0  0  0  0  0
   24.6970    5.5490   29.5540 C   0  0  0  0  0  0  0  0  0  0  0  0
   24.0970    6.7460   29.2620 C   0  0  0  0  0  0  0  0  0  0  0  0
   22.9950    7.1870   29.9690 C   0  0  0  0  0  0  0  0  0  0  0  0
   25.8220    5.0820   28.8570 N   0  0  0  0  0  0  0  0  0  0  0  0
   27.1700    5.1010   29.4260 C   0  0  0  0  0  0  0  0  0  0  0  0
   27.9540    6.0260   28.5170 C   0  0  0  0  0  0  0  0  0  0  0  0
   27.2150    6.5190   27.4540 O   0  0  0  0  0  0  0  0  0  0  0  0
   26.5840    5.5660   26.6830 C   0  0  0  0  0  0  0  0  0  0  0  0
   25.8540    4.5320   27.5210 C   0  0  0  0  0  0  0  0  0  0  0  0
   19.8500   11.4850   33.2040 H   0  0  0  0  0  0  0  0  0  0  0  0
   17.0840    7.6760   34.6490 H   0  0  0  0  0  0  0  0  0  0  0  0
   17.6010    6.5960   33.2960 H   0  0  0  0  0  0  0  0  0  0  0  0
   16.5120    8.0000   32.9640 H   0  0  0  0  0  0  0  0  0  0  0  0
   20.7270    5.6080   31.1340 H   0  0  0  0  0  0  0  0  0  0  0  0
   24.4810    7.3660   28.4800 H   0  0  0  0  0  0  0  0  0  0  0  0
   22.5710    8.1320   29.6730 H   0  0  0  0  0  0  0  0  0  0  0  0
   27.2480    5.3290   30.4650 H   0  0  0  0  0  0  0  0  0  0  0  0
   27.6210    4.0730   29.2890 H   0  0  0  0  0  0  0  0  0  0  0  0
   28.9280    5.5830   28.2270 H   0  0  0  0  0  0  0  0  0  0  0  0
   28.2100    6.9340   29.1390 H   0  0  0  0  0  0  0  0  0  0  0  0
   25.7900    6.1130   26.1070 H   0  0  0  0  0  0  0  0  0  0  0  0
   27.2450    5.0840   25.9460 H   0  0  0  0  0  0  0  0  0  0  0  0
   26.5260    3.6100   27.5500 H   0  0  0  0  0  0  0  0  0  0  0  0
   24.9270    4.1750   27.1080 H   0  0  0  0  0  0  0  0  0  0  0  0
  1  2  1  0  0  0  0
  2  3  2  0  0  0  0
  2  6  1  0  0  0  0
  3  4  1  0  0  0  0
  4  5  1  0  0  0  0
  4  7  1  0  0  0  0
  6 26  1  0  0  0  0
  6  5  2  0  0  0  0
  7 27  1  0  0  0  0
  8  3  1  0  0  0  0
  8  9  2  0  0  0  0
 10  8  1  0  0  0  0
 11 12  1  0  0  0  0
 11 10  1  0  0  0  0
 12 13  2  0  0  0  0
 14 13  1  0  0  0  0
 15 14  1  0  0  0  0
 16 15  2  0  0  0  0
 16 12  1  0  0  0  0
 17 16  1  0  0  0  0
 18 17  2  0  0  0  0
 18 19  1  0  0  0  0
 19 11  2  0  0  0  0
 20 21  1  0  0  0  0
 20 17  1  0  0  0  0
 21 33  1  0  0  0  0
 22 36  1  0  0  0  0
 22 21  1  0  0  0  0
 23 22  1  0  0  0  0
 24 23  1  0  0  0  0
 24 25  1  0  0  0  0
 25 39  1  0  0  0  0
 25 20  1  0  0  0  0
 28  7  1  0  0  0  0
 29  7  1  0  0  0  0
 30 10  1  0  0  0  0
 31 18  1  0  0  0  0
 32 19  1  0  0  0  0
 34 21  1  0  0  0  0
 35 22  1  0  0  0  0
 37 24  1  0  0  0  0
 38 24  1  0  0  0  0
 40 25  1  0  0  0  0
M  END
>  <Pose>
1

>  <Score>
-6.63

$$$$
