
 OpenBabel03202209553D

 50 53  0  0  0  0  0  0  0  0999 V2000
   17.6210    7.9360   33.6220 I   0  0  0  0  0  0  0  0  0  0  0  0
   19.5160    7.8100   32.7430 C   0  0  0  0  0  0  0  0  0  0  0  0
   20.0330    6.6430   32.2720 C   0  0  0  0  0  0  0  0  0  0  0  0
   21.3110    6.6270   31.6930 C   0  0  0  0  0  0  0  0  0  0  0  0
   22.0880    7.7410   31.5710 C   0  0  0  0  0  0  0  0  0  0  0  0
   21.5300    8.9300   32.0640 C   0  0  0  0  0  0  0  0  0  0  0  0
   20.2790    8.9510   32.6320 C   0  0  0  0  0  0  0  0  0  0  0  0
   23.4030    7.8330   30.9990 C   0  0  0  0  0  0  0  0  0  0  0  0
   23.7930    8.5700   30.0550 N   0  0  0  0  0  0  0  0  0  0  0  0
   22.9990    9.4440   29.3890 N   0  0  0  0  0  0  0  0  0  0  0  0
   23.3370   10.8520   29.3920 C   0  0  0  0  0  0  0  0  0  0  0  0
   24.4100   11.2910   28.7120 N   0  0  0  0  0  4  0  0  0  0  0  0
   24.7410   12.5880   28.7010 C   0  0  0  0  0  0  0  0  0  0  0  0
   23.9500   13.4210   29.3980 N   0  0  0  0  0  0  0  0  0  0  0  0
   22.8650   13.0180   30.0910 C   0  0  0  0  0  0  0  0  0  0  0  0
   22.5670   11.7060   30.0770 N   0  0  0  0  0  0  0  0  0  0  0  0
   22.0800   13.9660   30.8010 N   0  0  0  0  0  0  0  0  0  0  0  0
   21.1970   13.5180   31.8530 C   0  0  0  0  0  0  0  0  0  0  0  0
   19.9730   14.4410   31.7760 C   0  0  0  0  0  0  0  0  0  0  0  0
   20.3890   15.7030   32.1120 O   0  0  0  0  0  0  0  0  0  0  0  0
   21.3260   16.2720   31.2950 C   0  0  0  0  0  0  0  0  0  0  0  0
   22.1590   15.3490   30.4820 C   0  0  0  0  0  0  0  0  0  0  0  0
   25.8760   13.0780   27.9860 N   0  0  0  0  0  0  0  0  0  0  0  0
   27.1110   12.3620   27.8870 C   0  0  0  0  0  0  0  0  0  0  0  0
   28.1270   13.2820   27.2080 C   0  0  0  0  0  0  0  0  0  0  0  0
   28.1490   14.5370   27.7950 O   0  0  0  0  0  0  0  0  0  0  0  0
   26.9770   15.2340   27.6420 C   0  0  0  0  0  0  0  0  0  0  0  0
   25.7850   14.3680   27.3210 C   0  0  0  0  0  0  0  0  0  0  0  0
   19.4430    5.7440   32.3550 H   0  0  0  0  0  0  0  0  0  0  0  0
   21.6220    5.6760   31.3590 H   0  0  0  0  0  0  0  0  0  0  0  0
   22.0820    9.8530   32.0040 H   0  0  0  0  0  0  0  0  0  0  0  0
   19.9200    9.9130   32.9900 H   0  0  0  0  0  0  0  0  0  0  0  0
   24.2160    7.1810   31.4170 H   0  0  0  0  0  0  0  0  0  0  0  0
   22.1400    9.1170   28.8960 H   0  0  0  0  0  0  0  0  0  0  0  0
   21.6920   13.6300   32.8270 H   0  0  0  0  0  0  0  0  0  0  0  0
   20.8300   12.4850   31.6760 H   0  0  0  0  0  0  0  0  0  0  0  0
   19.5450   14.3460   30.7770 H   0  0  0  0  0  0  0  0  0  0  0  0
   19.2740   14.0880   32.5480 H   0  0  0  0  0  0  0  0  0  0  0  0
   20.8760   17.1040   30.6750 H   0  0  0  0  0  0  0  0  0  0  0  0
   22.0380   16.8310   31.9750 H   0  0  0  0  0  0  0  0  0  0  0  0
   23.2530   15.6300   30.4900 H   0  0  0  0  0  0  0  0  0  0  0  0
   21.8660   15.5150   29.4020 H   0  0  0  0  0  0  0  0  0  0  0  0
   27.4970   11.9730   28.8350 H   0  0  0  0  0  0  0  0  0  0  0  0
   26.9440   11.5080   27.1830 H   0  0  0  0  0  0  0  0  0  0  0  0
   27.8650   13.3190   26.1180 H   0  0  0  0  0  0  0  0  0  0  0  0
   29.1450   12.8540   27.2910 H   0  0  0  0  0  0  0  0  0  0  0  0
   27.0350   16.0030   26.8240 H   0  0  0  0  0  0  0  0  0  0  0  0
   26.7610   15.7490   28.6170 H   0  0  0  0  0  0  0  0  0  0  0  0
   25.7380   14.2240   26.2210 H   0  0  0  0  0  0  0  0  0  0  0  0
   24.8830   14.9340   27.6700 H   0  0  0  0  0  0  0  0  0  0  0  0
  2  1  1  0  0  0  0
  3 29  1  0  0  0  0
  3  2  2  0  0  0  0
  4  3  1  0  0  0  0
  5  4  2  0  0  0  0
  5  6  1  0  0  0  0
  6  7  2  0  0  0  0
  7  2  1  0  0  0  0
  7 32  1  0  0  0  0
  8 33  1  0  0  0  0
  8  5  1  0  0  0  0
  9  8  2  0  0  0  0
 10 11  1  0  0  0  0
 10  9  1  0  0  0  0
 11 16  1  0  0  0  0
 12 11  2  0  0  0  0
 13 12  2  0  0  0  0
 13 14  1  0  0  0  0
 14 15  2  0  0  0  0
 15 17  1  0  0  0  0
 16 15  1  0  0  0  0
 17 18  1  0  0  0  0
 18 35  1  0  0  0  0
 19 18  1  0  0  0  0
 19 20  1  0  0  0  0
 19 38  1  0  0  0  0
 21 40  1  0  0  0  0
 21 20  1  0  0  0  0
 22 41  1  0  0  0  0
 22 17  1  0  0  0  0
 22 21  1  0  0  0  0
 23 13  1  0  0  0  0
 24 23  1  0  0  0  0
 24 43  1  0  0  0  0
 25 46  1  0  0  0  0
 25 26  1  0  0  0  0
 25 24  1  0  0  0  0
 27 26  1  0  0  0  0
 27 48  1  0  0  0  0
 28 27  1  0  0  0  0
 28 50  1  0  0  0  0
 28 23  1  0  0  0  0
 30  4  1  0  0  0  0
 31  6  1  0  0  0  0
 34 10  1  0  0  0  0
 36 18  1  0  0  0  0
 37 19  1  0  0  0  0
 39 21  1  0  0  0  0
 42 22  1  0  0  0  0
 44 24  1  0  0  0  0
 45 25  1  0  0  0  0
 47 27  1  0  0  0  0
 49 28  1  0  0  0  0
M  END
>  <Pose>
1

>  <Score>
-7.24

$$$$
