
 OpenBabel03202209553D

 44 47  0  0  1  0  0  0  0  0999 V2000
   17.5770    7.7930   33.6090 I   0  0  0  0  0  0  0  0  0  0  0  0
   19.5080    8.0050   32.7800 C   0  0  0  0  0  0  0  0  0  0  0  0
   20.0620    9.2410   32.5170 C   0  0  0  0  0  0  0  0  0  0  0  0
   21.3260    9.3500   31.9740 C   0  0  0  0  0  0  0  0  0  0  0  0
   22.0830    8.2370   31.6730 C   0  0  0  0  0  0  0  0  0  0  0  0
   21.5140    7.0160   31.9430 C   0  0  0  0  0  0  0  0  0  0  0  0
   20.2510    6.8820   32.4850 C   0  0  0  0  0  0  0  0  0  0  0  0
   23.3980    8.4040   31.1100 N   0  0  0  0  0  0  0  0  0  0  0  0
   24.3850    9.3620   31.4530 C   0  0  0  0  0  0  0  0  0  0  0  0
   24.4180    9.9660   32.5560 O   0  0  0  0  0  0  0  0  0  0  0  0
   25.3420    9.5210   30.3230 C   0  0  1  0  0  0  0  0  0  0  0  0
   25.2860    8.1440   29.6830 C   0  0  0  0  0  0  0  0  0  0  0  0
   23.9660    7.6090   30.0710 C   0  0  0  0  0  0  0  0  0  0  0  0
   23.3910    6.5960   29.5750 O   0  0  0  0  0  0  0  0  0  0  0  0
   24.8770   10.5520   29.4900 N   0  0  0  0  0  0  0  0  0  0  0  0
   23.6080   10.5030   28.9150 C   0  0  0  0  0  0  0  0  0  0  0  0
   23.1750   11.9680   28.6470 C   0  0  0  0  0  0  0  0  0  0  0  0
   23.3980   12.7310   29.8660 N   0  0  0  0  0  0  0  0  0  0  0  0
   24.7560   12.7870   30.3480 C   0  0  0  0  0  0  0  0  0  0  0  0
   25.5650   11.7780   29.5380 C   0  0  0  0  0  0  0  0  0  0  0  0
   22.3340   13.3710   30.5340 C   0  0  0  0  0  0  0  0  0  0  0  0
   21.1580   13.6120   29.8950 N   0  0  0  0  0  0  0  0  0  0  0  0
   20.1150   14.2030   30.4750 C   0  0  0  0  0  0  0  0  0  0  0  0
   20.1910   14.6090   31.8000 C   0  0  0  0  0  0  0  0  0  0  0  0
   21.3900   14.3610   32.4450 C   0  0  0  0  0  0  0  0  0  0  0  0
   22.4150   13.7630   31.8230 N   0  0  0  0  0  0  0  0  0  0  0  0
   19.4870   10.1170   32.7460 H   0  0  0  0  0  0  0  0  0  0  0  0
   21.7680   10.3290   31.7630 H   0  0  0  0  0  0  0  0  0  0  0  0
   22.0890    6.1290   31.7140 H   0  0  0  0  0  0  0  0  0  0  0  0
   19.8140    5.9030   32.6930 H   0  0  0  0  0  0  0  0  0  0  0  0
   26.3730    9.6530   30.6950 H   0  0  0  0  0  0  0  0  0  0  0  0
   25.3430    8.1770   28.5810 H   0  0  0  0  0  0  0  0  0  0  0  0
   26.0620    7.4810   30.1200 H   0  0  0  0  0  0  0  0  0  0  0  0
   23.4700    9.9430   27.9890 H   0  0  0  0  0  0  0  0  0  0  0  0
   22.8670   10.1830   29.7080 H   0  0  0  0  0  0  0  0  0  0  0  0
   22.0990   12.0260   28.3970 H   0  0  0  0  0  0  0  0  0  0  0  0
   23.7320   12.3840   27.7800 H   0  0  0  0  0  0  0  0  0  0  0  0
   25.2320   13.7730   30.1350 H   0  0  0  0  0  0  0  0  0  0  0  0
   24.8560   12.5520   31.4210 H   0  0  0  0  0  0  0  0  0  0  0  0
   26.5890   11.6670   29.9670 H   0  0  0  0  0  0  0  0  0  0  0  0
   25.7430   12.2340   28.5250 H   0  0  0  0  0  0  0  0  0  0  0  0
   19.1920   14.3830   29.9440 H   0  0  0  0  0  0  0  0  0  0  0  0
   19.3480   15.0890   32.2750 H   0  0  0  0  0  0  0  0  0  0  0  0
   21.4510   14.6800   33.4840 H   0  0  0  0  0  0  0  0  0  0  0  0
  2  1  1  0  0  0  0
  3 27  1  0  0  0  0
  3  2  1  0  0  0  0
  4  3  2  0  0  0  0
  5  6  2  0  0  0  0
  5  4  1  0  0  0  0
  6  7  1  0  0  0  0
  7 30  1  0  0  0  0
  7  2  2  0  0  0  0
  8  9  1  0  0  0  0
  8  5  1  0  0  0  0
  9 10  2  0  0  0  0
 11 31  1  1  0  0  0
 11  9  1  0  0  0  0
 12 13  1  0  0  0  0
 12 33  1  0  0  0  0
 12 11  1  0  0  0  0
 13  8  1  0  0  0  0
 14 13  2  0  0  0  0
 15 20  1  0  0  0  0
 15 11  1  0  0  0  0
 16 15  1  0  0  0  0
 16 35  1  0  0  0  0
 17 16  1  0  0  0  0
 17 18  1  0  0  0  0
 18 19  1  0  0  0  0
 18 21  1  0  0  0  0
 19 39  1  0  0  0  0
 20 40  1  0  0  0  0
 20 19  1  0  0  0  0
 21 26  1  0  0  0  0
 22 23  1  0  0  0  0
 22 21  2  0  0  0  0
 23 24  2  0  0  0  0
 24 43  1  0  0  0  0
 24 25  1  0  0  0  0
 25 44  1  0  0  0  0
 26 25  2  0  0  0  0
 28  4  1  0  0  0  0
 29  6  1  0  0  0  0
 32 12  1  0  0  0  0
 34 16  1  0  0  0  0
 36 17  1  0  0  0  0
 37 17  1  0  0  0  0
 38 19  1  0  0  0  0
 41 20  1  0  0  0  0
 42 23  1  0  0  0  0
M  END
>  <Pose>
1

>  <Score>
-6.25

$$$$
