
 OpenBabel03202209553D

 44 47  0  0  1  0  0  0  0  0999 V2000
   26.7680    4.4520   30.6840 I   0  0  0  0  0  0  0  0  0  0  0  0
   25.1090    5.7430   30.5270 C   0  0  0  0  0  0  0  0  0  0  0  0
   23.8100    5.4270   30.7970 C   0  0  0  0  0  0  0  0  0  0  0  0
   23.1040    6.6040   30.5440 C   0  0  0  0  0  0  0  0  0  0  0  0
   23.9110    7.5880   30.1430 N   0  0  0  0  0  0  0  0  0  0  0  0
   25.1390    7.0690   30.1300 C   0  0  0  0  0  0  0  0  0  0  0  0
   23.5770    8.9350   29.7890 C   0  0  2  0  0  0  0  0  0  0  0  0
   24.6320    9.8280   29.9350 O   0  0  0  0  0  0  0  0  0  0  0  0
   24.0250   11.0530   29.6690 C   0  0  1  0  0  0  0  0  0  0  0  0
   22.6610   11.0190   30.3190 C   0  0  2  0  0  0  0  0  0  0  0  0
   22.5490    9.5490   30.7420 C   0  0  0  0  0  0  0  0  0  0  0  0
   21.6410   11.2350   29.3910 O   0  0  0  0  0  0  0  0  0  0  0  0
   24.8030   12.1810   30.3610 C   0  0  0  0  0  0  0  0  0  0  0  0
   24.7680   13.3190   29.5430 O   0  0  0  0  0  0  0  0  0  0  0  0
   21.7740    6.5850   30.7310 N   0  0  0  0  0  0  0  0  0  0  0  0
   21.1480    5.4720   31.1460 C   0  0  0  0  0  0  0  0  0  0  0  0
   21.8270    4.3460   31.3870 N   0  0  0  0  0  0  0  0  0  0  0  0
   23.1850    4.2780   31.2230 C   0  0  0  0  0  0  0  0  0  0  0  0
   23.8560    3.0520   31.4950 N   0  0  0  0  0  0  0  0  0  0  0  0
   24.4050    2.8490   32.7940 C   0  0  0  0  0  0  0  0  0  0  0  0
   25.1710    3.7410   33.2410 O   0  0  0  0  0  0  0  0  0  0  0  0
   24.1400    1.7010   33.6170 C   0  0  0  0  0  0  0  0  0  0  0  0
   23.2000    0.7740   33.2600 C   0  0  0  0  0  0  0  0  0  0  0  0
   22.9340   -0.3490   34.0470 C   0  0  0  0  0  0  0  0  0  0  0  0
   23.6270   -0.5340   35.2070 C   0  0  0  0  0  0  0  0  0  0  0  0
   24.5750    0.3790   35.5890 C   0  0  0  0  0  0  0  0  0  0  0  0
   24.8260    1.4970   34.7860 C   0  0  0  0  0  0  0  0  0  0  0  0
   26.0750    7.5660   29.8560 H   0  0  0  0  0  0  0  0  0  0  0  0
   23.1340    8.9940   28.7880 H   0  0  0  0  0  0  0  0  0  0  0  0
   23.9730   11.2440   28.5770 H   0  0  0  0  0  0  0  0  0  0  0  0
   22.5620   11.6990   31.1740 H   0  0  0  0  0  0  0  0  0  0  0  0
   22.9360    9.4710   31.7740 H   0  0  0  0  0  0  0  0  0  0  0  0
   21.5460    9.1460   30.5920 H   0  0  0  0  0  0  0  0  0  0  0  0
   22.0810   11.7100   28.6200 H   0  0  0  0  0  0  0  0  0  0  0  0
   24.3420   12.4480   31.3200 H   0  0  0  0  0  0  0  0  0  0  0  0
   25.8480   11.8740   30.4780 H   0  0  0  0  0  0  0  0  0  0  0  0
   25.6010   13.8740   29.6690 H   0  0  0  0  0  0  0  0  0  0  0  0
   20.0570    5.4920   31.2880 H   0  0  0  0  0  0  0  0  0  0  0  0
   23.9870    2.2830   30.8330 H   0  0  0  0  0  0  0  0  0  0  0  0
   22.5960    0.8380   32.3520 H   0  0  0  0  0  0  0  0  0  0  0  0
   22.1940   -1.0680   33.7550 H   0  0  0  0  0  0  0  0  0  0  0  0
   23.4540   -1.4040   35.8630 H   0  0  0  0  0  0  0  0  0  0  0  0
   25.1100    0.2180   36.5020 H   0  0  0  0  0  0  0  0  0  0  0  0
   25.5730    2.1700   35.1360 H   0  0  0  0  0  0  0  0  0  0  0  0
  2  1  1  0  0  0  0
  2  3  1  0  0  0  0
  3 18  1  0  0  0  0
  4 15  1  0  0  0  0
  4  3  2  0  0  0  0
  5  4  1  0  0  0  0
  6  5  1  0  0  0  0
  6  2  2  0  0  0  0
  7 29  1  6  0  0  0
  7  8  1  0  0  0  0
  7  5  1  0  0  0  0
  7 11  1  0  0  0  0
  9 30  1  6  0  0  0
  9  8  1  0  0  0  0
  9 10  1  0  0  0  0
  9 13  1  0  0  0  0
 10 11  1  0  0  0  0
 10 31  1  1  0  0  0
 11 32  1  0  0  0  0
 12 10  1  0  0  0  0
 13 36  1  0  0  0  0
 13 35  1  0  0  0  0
 14 37  1  0  0  0  0
 14 13  1  0  0  0  0
 15 16  2  0  0  0  0
 16 38  1  0  0  0  0
 16 17  1  0  0  0  0
 18 17  2  0  0  0  0
 18 19  1  0  0  0  0
 19 20  1  0  0  0  0
 20 21  2  0  0  0  0
 20 22  1  0  0  0  0
 22 27  1  0  0  0  0
 23 22  2  0  0  0  0
 23 24  1  0  0  0  0
 24 25  2  0  0  0  0
 25 26  1  0  0  0  0
 25 42  1  0  0  0  0
 26 43  1  0  0  0  0
 27 44  1  0  0  0  0
 27 26  2  0  0  0  0
 28  6  1  0  0  0  0
 33 11  1  0  0  0  0
 34 12  1  0  0  0  0
 39 19  1  0  0  0  0
 40 23  1  0  0  0  0
 41 24  1  0  0  0  0
M  END
>  <Pose>
1

>  <Score>
-6.49

$$$$
