
 OpenBabel03202209553D

 35 39  0  0  0  0  0  0  0  0999 V2000
   25.5250    5.7670   29.0040 B   0  0  0  0  0  0  0  0  0  0  0  0
   25.4890    7.6180   29.4640 C   0  0  0  0  0  0  0  0  0  0  0  0
   24.4320    8.1670   30.2130 C   0  0  0  0  0  0  0  0  0  0  0  0
   24.3690    9.4840   30.5620 C   0  0  0  0  0  0  0  0  0  0  0  0
   25.4150   10.3120   30.1480 C   0  0  0  0  0  0  0  0  0  0  0  0
   26.4390    9.7790   29.4220 C   0  0  0  0  0  0  0  0  0  0  0  0
   26.5090    8.4480   29.0660 C   0  0  0  0  0  0  0  0  0  0  0  0
   27.5960    7.9690   28.3170 O   0  0  0  0  0  0  0  0  0  0  0  0
   27.8710   10.9030   28.8530 B   0  0  0  0  0  0  0  0  0  0  0  0
   23.2610   10.0240   31.3390 C   0  0  0  0  0  0  0  0  0  0  0  0
   23.8150   10.4920   32.5670 O   0  0  0  0  0  0  0  0  0  0  0  0
   23.6210   11.8350   32.7410 C   0  0  0  0  0  0  0  0  0  0  0  0
   24.0020   12.5050   33.7280 O   0  0  0  0  0  0  0  0  0  0  0  0
   22.8990   12.2880   31.5680 C   0  0  0  0  0  0  0  0  0  0  0  0
   22.6670   11.2370   30.7090 C   0  0  0  0  0  0  0  0  0  0  0  0
   21.9980   11.4890   29.5560 C   0  0  0  0  0  0  0  0  0  0  0  0
   21.5730   12.7690   29.2710 C   0  0  0  0  0  0  0  0  0  0  0  0
   21.8050   13.8240   30.1280 C   0  0  0  0  0  0  0  0  0  0  0  0
   22.4780   13.5860   31.2970 C   0  0  0  0  0  0  0  0  0  0  0  0
   22.2520    9.0320   31.6930 C   0  0  0  0  0  0  0  0  0  0  0  0
   22.3710    7.7240   31.3130 C   0  0  0  0  0  0  0  0  0  0  0  0
   21.3850    6.7780   31.6640 C   0  0  0  0  0  0  0  0  0  0  0  0
   20.2990    7.1950   32.3980 C   0  0  0  0  0  0  0  0  0  0  0  0
   20.1720    8.5210   32.7880 C   0  0  0  0  0  0  0  0  0  0  0  0
   21.1310    9.4310   32.4430 C   0  0  0  0  0  0  0  0  0  0  0  0
   18.6730    9.1130   33.8050 B   0  0  0  0  0  0  0  0  0  0  0  0
   19.3380    6.2560   32.7370 O   0  0  0  0  0  0  0  0  0  0  0  0
   21.5870    4.9570   31.1140 B   0  0  0  0  0  0  0  0  0  0  0  0
   23.4440    7.2480   30.5730 O   0  0  0  0  0  0  0  0  0  0  0  0
   25.3420   11.3540   30.4390 H   0  0  0  0  0  0  0  0  0  0  0  0
   21.7990   10.6920   28.8610 H   0  0  0  0  0  0  0  0  0  0  0  0
   21.0330   13.0080   28.3520 H   0  0  0  0  0  0  0  0  0  0  0  0
   21.4710   14.8420   29.9110 H   0  0  0  0  0  0  0  0  0  0  0  0
   22.6710   14.3940   31.9830 H   0  0  0  0  0  0  0  0  0  0  0  0
   21.0900   10.4770   32.7150 H   0  0  0  0  0  0  0  0  0  0  0  0
  1  2  1  0  0  0  0
  2  3  1  0  0  0  0
  3  4  2  0  0  0  0
  3 29  1  0  0  0  0
  4 10  1  0  0  0  0
  5 30  1  0  0  0  0
  5  4  1  0  0  0  0
  6  5  2  0  0  0  0
  7  6  1  0  0  0  0
  7  2  2  0  0  0  0
  8  7  1  0  0  0  0
  9  6  1  0  0  0  0
 10 20  1  0  0  0  0
 10 11  1  0  0  0  0
 11 12  1  0  0  0  0
 12 13  2  0  0  0  0
 14 12  1  0  0  0  0
 15 10  1  0  0  0  0
 15 14  2  0  0  0  0
 16 15  1  0  0  0  0
 17 16  2  0  0  0  0
 17 18  1  0  0  0  0
 18 19  2  0  0  0  0
 19 14  1  0  0  0  0
 19 34  1  0  0  0  0
 20 25  1  0  0  0  0
 21 22  1  0  0  0  0
 21 20  2  0  0  0  0
 22 23  2  0  0  0  0
 23 27  1  0  0  0  0
 23 24  1  0  0  0  0
 24 26  1  0  0  0  0
 25 35  1  0  0  0  0
 25 24  2  0  0  0  0
 28 22  1  0  0  0  0
 29 21  1  0  0  0  0
 31 16  1  0  0  0  0
 32 17  1  0  0  0  0
 33 18  1  0  0  0  0
M  END
>  <Pose>
1

>  <Score>
-6.64

$$$$
