
 OpenBabel03202209553D

 35 39  0  0  0  0  0  0  0  0999 V2000
   22.2460    4.5250   31.3790 I   0  0  0  0  0  0  0  0  0  0  0  0
   21.7460    6.5660   31.6510 C   0  0  0  0  0  0  0  0  0  0  0  0
   22.6740    7.5020   31.1650 C   0  0  0  0  0  0  0  0  0  0  0  0
   22.3770    8.8180   31.3270 C   0  0  0  0  0  0  0  0  0  0  0  0
   21.1750    9.1780   31.9620 C   0  0  0  0  0  0  0  0  0  0  0  0
   20.2710    8.2630   32.4350 C   0  0  0  0  0  0  0  0  0  0  0  0
   20.5730    6.9300   32.2700 C   0  0  0  0  0  0  0  0  0  0  0  0
   19.6800    5.9760   32.7370 O   0  0  0  0  0  0  0  0  0  0  0  0
   18.4770    8.8760   33.3830 I   0  0  0  0  0  0  0  0  0  0  0  0
   23.2820    9.8730   30.8540 C   0  0  0  0  0  0  0  0  0  0  0  0
   23.5940   10.7960   31.8790 O   0  0  0  0  0  0  0  0  0  0  0  0
   23.1940   12.0710   31.5750 C   0  0  0  0  0  0  0  0  0  0  0  0
   23.3160   13.1220   32.2580 O   0  0  0  0  0  0  0  0  0  0  0  0
   22.5690   12.0210   30.2610 C   0  0  0  0  0  0  0  0  0  0  0  0
   22.6150   10.7340   29.8290 C   0  0  0  0  0  0  0  0  0  0  0  0
   22.0680   10.4350   28.5760 C   0  0  0  0  0  0  0  0  0  0  0  0
   21.5020   11.4290   27.8120 C   0  0  0  0  0  0  0  0  0  0  0  0
   21.4530   12.7360   28.2480 C   0  0  0  0  0  0  0  0  0  0  0  0
   21.9870   13.0420   29.4760 C   0  0  0  0  0  0  0  0  0  0  0  0
   24.4990    9.3490   30.2100 C   0  0  0  0  0  0  0  0  0  0  0  0
   24.7380    8.0250   30.0780 C   0  0  0  0  0  0  0  0  0  0  0  0
   25.9100    7.6020   29.4600 C   0  0  0  0  0  0  0  0  0  0  0  0
   26.8160    8.5090   28.9860 C   0  0  0  0  0  0  0  0  0  0  0  0
   26.6050    9.8640   29.1020 C   0  0  0  0  0  0  0  0  0  0  0  0
   25.4460   10.2540   29.7140 C   0  0  0  0  0  0  0  0  0  0  0  0
   28.0090   11.2630   28.3670 I   0  0  0  0  0  0  0  0  0  0  0  0
   27.9780    8.0600   28.3710 O   0  0  0  0  0  0  0  0  0  0  0  0
   26.2770    5.5180   29.2570 I   0  0  0  0  0  0  0  0  0  0  0  0
   23.8430    7.0500   30.5470 O   0  0  0  0  0  0  0  0  0  0  0  0
   20.9540   10.2490   32.0830 H   0  0  0  0  0  0  0  0  0  0  0  0
   22.1260    9.4050   28.2730 H   0  0  0  0  0  0  0  0  0  0  0  0
   21.0940   11.1570   26.8570 H   0  0  0  0  0  0  0  0  0  0  0  0
   21.0050   13.5410   27.6520 H   0  0  0  0  0  0  0  0  0  0  0  0
   21.9760   14.0550   29.8700 H   0  0  0  0  0  0  0  0  0  0  0  0
   25.2550   11.3130   29.8190 H   0  0  0  0  0  0  0  0  0  0  0  0
  1  2  1  0  0  0  0
  2  7  1  0  0  0  0
  3  4  1  0  0  0  0
  3  2  2  0  0  0  0
  4  5  2  0  0  0  0
  5 30  1  0  0  0  0
  5  6  1  0  0  0  0
  6  9  1  0  0  0  0
  7  6  2  0  0  0  0
  7  8  1  0  0  0  0
 10  4  1  0  0  0  0
 10 11  1  0  0  0  0
 12 11  1  0  0  0  0
 12 13  2  0  0  0  0
 14 12  1  0  0  0  0
 15 14  1  0  0  0  0
 15 10  1  0  0  0  0
 16 15  2  0  0  0  0
 17 18  2  0  0  0  0
 17 16  1  0  0  0  0
 18 19  1  0  0  0  0
 19 34  1  0  0  0  0
 19 14  2  0  0  0  0
 20 10  1  0  0  0  0
 21 20  1  0  0  0  0
 21 29  1  0  0  0  0
 22 21  2  0  0  0  0
 23 24  2  0  0  0  0
 23 22  1  0  0  0  0
 24 25  1  0  0  0  0
 25 35  1  0  0  0  0
 25 20  2  0  0  0  0
 26 24  1  0  0  0  0
 27 23  1  0  0  0  0
 28 22  1  0  0  0  0
 29  3  1  0  0  0  0
 31 16  1  0  0  0  0
 32 17  1  0  0  0  0
 33 18  1  0  0  0  0
M  END
>  <Pose>
1

>  <Score>
-6.58

$$$$
