
 OpenBabel03202209553D

 35 38  0  0  1  0  0  0  0  0999 V2000
   23.7170   11.8370   31.1970 I   0  0  0  0  0  0  0  0  0  0  0  0
   24.7520   10.1640   30.4410 C   0  0  0  0  0  0  0  0  0  0  0  0
   24.2680    8.8760   30.5580 C   0  0  0  0  0  0  0  0  0  0  0  0
   24.9420    7.7790   30.0650 C   0  0  0  0  0  0  0  0  0  0  0  0
   26.1510    8.0040   29.4320 C   0  0  0  0  0  0  0  0  0  0  0  0
   26.6440    9.2940   29.3100 C   0  0  0  0  0  0  0  0  0  0  0  0
   25.9590   10.3940   29.8110 C   0  0  0  0  0  0  0  0  0  0  0  0
   26.5000   11.6680   29.6600 O   0  0  0  0  0  0  0  0  0  0  0  0
   24.4750    6.4850   30.1710 C   0  0  0  0  0  0  0  0  0  0  0  0
   23.2530    6.3350   30.8200 C   0  0  0  0  0  0  0  0  0  0  0  0
   22.5700    7.5220   31.3280 C   0  0  0  0  0  0  0  0  0  0  0  0
   21.3630    7.3080   31.9610 C   0  0  1  0  0  0  0  0  0  0  0  0
   20.8100    6.0560   32.1190 C   0  0  0  0  0  0  0  0  0  0  0  0
   19.7000    5.8810   32.7040 O   0  0  0  0  0  0  0  0  0  0  0  0
   21.4550    4.9330   31.6390 C   0  0  0  0  0  0  0  0  0  0  0  0
   22.6660    5.1130   30.9990 C   0  0  0  0  0  0  0  0  0  0  0  0
   20.3050    8.9560   32.7260 I   0  0  0  0  0  0  0  0  0  0  0  0
   23.1210    8.6990   31.1620 O   0  0  0  0  0  0  0  0  0  0  0  0
   25.1850    5.3220   29.6500 C   0  0  0  0  0  0  0  0  0  0  0  0
   25.6880    4.3940   30.5570 C   0  0  0  0  0  0  0  0  0  0  0  0
   26.3620    3.2860   30.1160 C   0  0  0  0  0  0  0  0  0  0  0  0
   26.5420    3.0920   28.7640 C   0  0  0  0  0  0  0  0  0  0  0  0
   26.0530    3.9950   27.8460 C   0  0  0  0  0  0  0  0  0  0  0  0
   25.3790    5.1020   28.3120 C   0  0  0  0  0  0  0  0  0  0  0  0
   25.5040    4.5890   31.9920 C   0  0  0  0  0  0  0  0  0  0  0  0
   25.5120    5.7180   32.5310 O   0  0  0  0  0  0  0  0  0  0  0  0
   25.3090    3.5020   32.8320 O   0  0  0  0  0  0  0  0  0  0  0  0
   26.6760    7.1430   29.0460 H   0  0  0  0  0  0  0  0  0  0  0  0
   27.5970    9.4030   28.8040 H   0  0  0  0  0  0  0  0  0  0  0  0
   20.9970    3.9630   31.7760 H   0  0  0  0  0  0  0  0  0  0  0  0
   23.1830    4.2450   30.6180 H   0  0  0  0  0  0  0  0  0  0  0  0
   26.7720    2.5330   30.8060 H   0  0  0  0  0  0  0  0  0  0  0  0
   27.0770    2.2090   28.4340 H   0  0  0  0  0  0  0  0  0  0  0  0
   26.2160    3.8070   26.7790 H   0  0  0  0  0  0  0  0  0  0  0  0
   24.9810    5.8340   27.6180 H   0  0  0  0  0  0  0  0  0  0  0  0
  2  3  2  0  0  0  0
  2  1  1  0  0  0  0
  3 18  1  0  0  0  0
  4  9  2  0  0  0  0
  4  3  1  0  0  0  0
  5  4  1  0  0  0  0
  6  5  1  0  0  0  0
  6  7  2  0  0  0  0
  7  2  1  0  0  0  0
  8  7  1  0  0  0  0
  9 10  1  0  0  0  0
 10 16  1  0  0  0  0
 10 11  2  0  0  0  0
 11 12  1  0  0  0  0
 12 13  1  0  0  0  0
 12 17  1  1  0  0  0
 13 14  2  0  0  0  0
 15 30  1  0  0  0  0
 15 13  1  0  0  0  0
 16 15  2  0  0  0  0
 18 11  1  0  0  0  0
 19  9  1  0  0  0  0
 19 20  1  0  0  0  0
 20 25  1  0  0  0  0
 21 20  2  0  0  0  0
 21 32  1  0  0  0  0
 22 21  1  0  0  0  0
 23 24  1  0  0  0  0
 23 22  2  0  0  0  0
 24 19  2  0  0  0  0
 25 26  2  0  0  0  0
 25 27  1  0  0  0  0
 28  5  1  0  0  0  0
 29  6  1  0  0  0  0
 31 16  1  0  0  0  0
 33 22  1  0  0  0  0
 34 23  1  0  0  0  0
 35 24  1  0  0  0  0
M  END
>  <Pose>
1

>  <Score>
-5.85

$$$$
