
 OpenBabel03202209553D

 33 36  0  0  1  0  0  0  0  0999 V2000
   24.2810   12.1500   29.9450 P   0  0  2  0  0  0  0  0  0  0  0  0
   23.0110   13.3110   30.2360 S   0  0  0  0  0  0  0  0  0  0  0  0
   23.6030   10.6830   29.3950 O   0  0  0  0  0  0  0  0  0  0  0  0
   22.9880   10.1000   30.4750 C   0  0  2  0  0  0  0  0  0  0  0  0
   24.0510    9.7920   31.5370 C   0  0  2  0  0  0  0  0  0  0  0  0
   23.3330    8.9210   32.3560 O   0  0  0  0  0  0  0  0  0  0  0  0
   22.7490    8.0090   31.5090 C   0  0  2  0  0  0  0  0  0  0  0  0
   22.4920    8.6950   30.1910 C   0  0  2  0  0  0  0  0  0  0  0  0
   23.3810    8.1400   29.2610 O   0  0  0  0  0  0  0  0  0  0  0  0
   21.4750    7.5180   32.0000 N   0  0  0  0  0  0  0  0  0  0  0  0
   20.5080    8.3100   32.5270 C   0  0  0  0  0  0  0  0  0  0  0  0
   20.4420    9.6500   32.7360 N   0  0  0  0  0  0  0  0  0  0  0  0
   19.3500   10.2160   33.2870 C   0  0  0  0  0  0  0  0  0  0  0  0
   18.2970    9.4400   33.6430 N   0  0  0  0  0  0  0  0  0  0  0  0
   18.3240    8.1090   33.4530 C   0  0  0  0  0  0  0  0  0  0  0  0
   19.4380    7.5160   32.8870 C   0  0  0  0  0  0  0  0  0  0  0  0
   19.7580    6.2460   32.5770 N   0  0  0  0  0  0  0  0  0  0  0  0
   20.9980    6.2630   32.0400 C   0  0  0  0  0  0  0  0  0  0  0  0
   22.0030    4.7580   31.4000 B   0  0  0  0  0  0  0  0  0  0  0  0
   17.2040    7.3040   33.8330 N   0  0  0  0  0  0  0  0  0  0  0  0
   24.4900   11.0350   32.2450 C   0  0  0  0  0  0  0  0  0  0  0  0
   25.1500   11.8450   31.3380 O   0  0  0  0  0  0  0  0  0  0  0  0
   25.2660   12.7510   28.7380 O   0  0  0  0  0  0  0  0  0  0  0  0
   22.2360   10.7300   30.9500 H   0  0  0  0  0  0  0  0  0  0  0  0
   24.8670    9.2580   31.0310 H   0  0  0  0  0  0  0  0  0  0  0  0
   23.4220    7.1260   31.4130 H   0  0  0  0  0  0  0  0  0  0  0  0
   21.4510    8.6590   29.8710 H   0  0  0  0  0  0  0  0  0  0  0  0
   23.0800    7.2830   28.9060 H   0  0  0  0  0  0  0  0  0  0  0  0
   19.3420   11.3000   33.4360 H   0  0  0  0  0  0  0  0  0  0  0  0
   17.2900    6.6990   34.6960 H   0  0  0  0  0  0  0  0  0  0  0  0
   16.3150    7.2930   33.2950 H   0  0  0  0  0  0  0  0  0  0  0  0
   25.1890   10.7610   33.0350 H   0  0  0  0  0  0  0  0  0  0  0  0
   23.5960   11.5120   32.6920 H   0  0  0  0  0  0  0  0  0  0  0  0
  1 23  2  6  0  0  0
  1  2  1  0  0  0  0
  1 22  1  0  0  0  0
  3  1  1  0  0  0  0
  3  4  1  0  0  0  0
  4 24  1  1  0  0  0
  4  5  1  0  0  0  0
  5 25  1  6  0  0  0
  5 21  1  0  0  0  0
  5  6  1  0  0  0  0
  7 26  1  6  0  0  0
  7 10  1  0  0  0  0
  7  6  1  0  0  0  0
  8 27  1  6  0  0  0
  8  4  1  0  0  0  0
  8  7  1  0  0  0  0
  9  8  1  0  0  0  0
 10 18  1  0  0  0  0
 10 11  1  0  0  0  0
 11 12  1  0  0  0  0
 11 16  2  0  0  0  0
 12 13  2  0  0  0  0
 13 29  1  0  0  0  0
 13 14  1  0  0  0  0
 15 14  2  0  0  0  0
 15 20  1  0  0  0  0
 16 15  1  0  0  0  0
 17 16  1  0  0  0  0
 18 17  2  0  0  0  0
 19 18  1  0  0  0  0
 20 30  1  0  0  0  0
 21 33  1  0  0  0  0
 21 32  1  0  0  0  0
 22 21  1  0  0  0  0
 28  9  1  0  0  0  0
 31 20  1  0  0  0  0
M  END
>  <Pose>
1

>  <Score>
-8.18

$$$$
