
 OpenBabel03202209553D

 33 36  0  0  1  0  0  0  0  0999 V2000
   24.5850   11.2520   29.4400 P   0  0  2  0  0  0  0  0  0  0  0  0
   24.7980   11.7940   28.0250 O   0  0  0  0  0  0  0  0  0  0  0  0
   24.2100    9.6220   29.3050 O   0  0  0  0  0  0  0  0  0  0  0  0
   23.1290    9.2800   30.0760 C   0  0  2  0  0  0  0  0  0  0  0  0
   23.1890   10.1610   31.3310 C   0  0  2  0  0  0  0  0  0  0  0  0
   22.5770    9.4550   32.3230 O   0  0  0  0  0  0  0  0  0  0  0  0
   22.6460    8.1160   32.0550 C   0  0  2  0  0  0  0  0  0  0  0  0
   23.2200    7.9110   30.6960 C   0  0  2  0  0  0  0  0  0  0  0  0
   24.5300    7.4730   30.7030 O   0  0  0  0  0  0  0  0  0  0  0  0
   21.3030    7.5660   32.1880 N   0  0  0  0  0  0  0  0  0  0  0  0
   20.2230    8.2220   32.6740 C   0  0  0  0  0  0  0  0  0  0  0  0
   20.0890    9.4760   33.1380 N   0  0  0  0  0  0  0  0  0  0  0  0
   18.8890    9.8940   33.5710 C   0  0  0  0  0  0  0  0  0  0  0  0
   17.8360    9.0570   33.5360 N   0  0  0  0  0  0  0  0  0  0  0  0
   17.8950    7.7950   33.0860 C   0  0  0  0  0  0  0  0  0  0  0  0
   19.1420    7.3660   32.6380 C   0  0  0  0  0  0  0  0  0  0  0  0
   19.5570    6.2060   32.1380 N   0  0  0  0  0  0  0  0  0  0  0  0
   20.8680    6.3370   31.8690 C   0  0  0  0  0  0  0  0  0  0  0  0
   22.0330    4.9920   31.1240 B   0  0  0  0  0  0  0  0  0  0  0  0
   16.7910    6.9020   33.0430 N   0  0  0  0  0  0  0  0  0  0  0  0
   22.5310   11.4520   30.9630 C   0  0  0  0  0  0  0  0  0  0  0  0
   23.3770   12.1620   30.1460 O   0  0  0  0  0  0  0  0  0  0  0  0
   26.0850   11.4460   30.2400 O   0  0  0  0  0  0  0  0  0  0  0  0
   22.1590    9.3890   29.5810 H   0  0  0  0  0  0  0  0  0  0  0  0
   24.2450   10.3510   31.6240 H   0  0  0  0  0  0  0  0  0  0  0  0
   23.3440    7.6150   32.7860 H   0  0  0  0  0  0  0  0  0  0  0  0
   22.6190    7.1710   30.1290 H   0  0  0  0  0  0  0  0  0  0  0  0
   24.9750    7.5740   31.5600 H   0  0  0  0  0  0  0  0  0  0  0  0
   18.7560   10.9200   33.9580 H   0  0  0  0  0  0  0  0  0  0  0  0
   16.8650    5.9950   33.5920 H   0  0  0  0  0  0  0  0  0  0  0  0
   15.9260    7.0720   32.5210 H   0  0  0  0  0  0  0  0  0  0  0  0
   21.6220   11.1980   30.3420 H   0  0  0  0  0  0  0  0  0  0  0  0
   22.1440   12.0200   31.8220 H   0  0  0  0  0  0  0  0  0  0  0  0
  1  2  2  6  0  0  0
  1 22  1  0  0  0  0
  1 23  1  0  0  0  0
  3  1  1  0  0  0  0
  3  4  1  0  0  0  0
  4 24  1  6  0  0  0
  4  8  1  0  0  0  0
  4  5  1  0  0  0  0
  5 25  1  1  0  0  0
  5  6  1  0  0  0  0
  7 10  1  0  0  0  0
  7  6  1  0  0  0  0
  7 26  1  1  0  0  0
  8 27  1  6  0  0  0
  8  9  1  0  0  0  0
  8  7  1  0  0  0  0
  9 28  1  0  0  0  0
 10 11  1  0  0  0  0
 11 12  1  0  0  0  0
 12 13  2  0  0  0  0
 13 29  1  0  0  0  0
 14 13  1  0  0  0  0
 15 14  2  0  0  0  0
 16 11  2  0  0  0  0
 16 15  1  0  0  0  0
 17 16  1  0  0  0  0
 18 17  2  0  0  0  0
 18 10  1  0  0  0  0
 19 18  1  0  0  0  0
 20 15  1  0  0  0  0
 20 30  1  0  0  0  0
 21  5  1  0  0  0  0
 21 33  1  0  0  0  0
 22 21  1  0  0  0  0
 31 20  1  0  0  0  0
 32 21  1  0  0  0  0
M  END
>  <Pose>
1

>  <Score>
-7.09

$$$$
