
 OpenBabel03202209553D

 47 50  0  0  1  0  0  0  0  0999 V2000
   21.6470   16.4780   31.1250 S   0  0  0  0  0  0  0  0  0  0  0  0
   20.1600   16.2300   30.9710 O   0  0  0  0  0  0  0  0  0  0  0  0
   21.9840   17.7800   30.4420 O   0  0  0  0  0  0  0  0  0  0  0  0
   21.9750   16.5520   32.8070 N   0  0  0  0  0  0  0  0  0  0  0  0
   22.5130   15.1580   30.3970 C   0  0  0  0  0  0  0  0  0  0  0  0
   22.7030   13.9940   31.1070 C   0  0  0  0  0  0  0  0  0  0  0  0
   23.3880   12.9090   30.5710 C   0  0  0  0  0  0  0  0  0  0  0  0
   23.8790   13.0330   29.2900 C   0  0  0  0  0  0  0  0  0  0  0  0
   23.6910   14.2080   28.5640 C   0  0  0  0  0  0  0  0  0  0  0  0
   23.0090   15.2720   29.1110 C   0  0  0  0  0  0  0  0  0  0  0  0
   24.8230   11.5980   28.4900 B   0  0  0  0  0  0  0  0  0  0  0  0
   23.5820   11.6910   31.3320 C   0  0  0  0  0  0  0  0  0  0  0  0
   24.4730   11.6550   32.2150 O   0  0  0  0  0  0  0  0  0  0  0  0
   22.7730   10.5410   31.0890 N   0  0  0  0  0  0  0  0  0  0  0  0
   23.0610    9.6590   29.9790 C   0  0  0  0  0  0  0  0  0  0  0  0
   22.8900    8.2100   30.3180 C   0  0  2  0  0  0  0  0  0  0  0  0
   22.8490    8.1150   31.8460 C   0  0  0  0  0  0  0  0  0  0  0  0
   21.5480    8.7690   32.2580 C   0  0  0  0  0  0  0  0  0  0  0  0
   21.6520   10.2380   31.9410 C   0  0  0  0  0  0  0  0  0  0  0  0
   23.9760    7.3420   29.7600 C   0  0  0  0  0  0  0  0  0  0  0  0
   25.2530    7.7190   29.4890 N   0  0  0  0  0  0  0  0  0  0  0  0
   25.9460    6.6870   29.0020 C   0  0  0  0  0  0  0  0  0  0  0  0
   25.0590    5.6470   28.9770 N   0  0  0  0  0  0  0  0  0  0  0  0
   23.8860    6.0440   29.4300 N   0  0  0  0  0  0  0  0  0  0  0  0
   27.3590    7.0510   28.6860 C   0  0  0  0  0  0  0  0  0  0  0  0
   27.4990    8.3710   29.3800 C   0  0  0  0  0  0  0  0  0  0  0  0
   26.0930    8.9010   29.5660 C   0  0  0  0  0  0  0  0  0  0  0  0
   21.2810   17.1530   33.3130 H   0  0  0  0  0  0  0  0  0  0  0  0
   22.9490   16.9100   32.9710 H   0  0  0  0  0  0  0  0  0  0  0  0
   22.2890   13.9500   32.1260 H   0  0  0  0  0  0  0  0  0  0  0  0
   24.0970   14.2510   27.5630 H   0  0  0  0  0  0  0  0  0  0  0  0
   22.8540   16.1870   28.5670 H   0  0  0  0  0  0  0  0  0  0  0  0
   24.0330    9.8790   29.4990 H   0  0  0  0  0  0  0  0  0  0  0  0
   22.2880    9.8960   29.1930 H   0  0  0  0  0  0  0  0  0  0  0  0
   21.9210    7.7870   29.9870 H   0  0  0  0  0  0  0  0  0  0  0  0
   22.9070    7.0600   32.1630 H   0  0  0  0  0  0  0  0  0  0  0  0
   23.6890    8.6840   32.2780 H   0  0  0  0  0  0  0  0  0  0  0  0
   20.7210    8.2790   31.6800 H   0  0  0  0  0  0  0  0  0  0  0  0
   21.3870    8.5720   33.3360 H   0  0  0  0  0  0  0  0  0  0  0  0
   21.8260   10.7570   32.9250 H   0  0  0  0  0  0  0  0  0  0  0  0
   20.6860   10.6120   31.5250 H   0  0  0  0  0  0  0  0  0  0  0  0
   28.0780    6.3290   29.1470 H   0  0  0  0  0  0  0  0  0  0  0  0
   27.4760    7.1150   27.5860 H   0  0  0  0  0  0  0  0  0  0  0  0
   28.0150    8.2890   30.3750 H   0  0  0  0  0  0  0  0  0  0  0  0
   28.1060    9.0500   28.7360 H   0  0  0  0  0  0  0  0  0  0  0  0
   25.9030    9.6040   28.7300 H   0  0  0  0  0  0  0  0  0  0  0  0
   25.9910    9.4500   30.5010 H   0  0  0  0  0  0  0  0  0  0  0  0
  1  4  1  0  0  0  0
  2  1  2  0  0  0  0
  3  1  2  0  0  0  0
  4 29  1  0  0  0  0
  4 28  1  0  0  0  0
  5  6  1  0  0  0  0
  5  1  1  0  0  0  0
  6 30  1  0  0  0  0
  7  6  2  0  0  0  0
  7 12  1  0  0  0  0
  8  7  1  0  0  0  0
  9 10  1  0  0  0  0
  9  8  2  0  0  0  0
 10  5  2  0  0  0  0
 11  8  1  0  0  0  0
 12 13  2  0  0  0  0
 14 12  1  0  0  0  0
 14 19  1  0  0  0  0
 15 16  1  0  0  0  0
 15 14  1  0  0  0  0
 16 35  1  6  0  0  0
 16 17  1  0  0  0  0
 17 36  1  0  0  0  0
 17 18  1  0  0  0  0
 17 37  1  0  0  0  0
 18 39  1  0  0  0  0
 19 18  1  0  0  0  0
 19 40  1  0  0  0  0
 20 16  1  0  0  0  0
 21 27  1  0  0  0  0
 21 20  1  0  0  0  0
 22 21  1  0  0  0  0
 23 22  2  0  0  0  0
 23 24  1  0  0  0  0
 24 20  2  0  0  0  0
 25 22  1  0  0  0  0
 25 42  1  0  0  0  0
 25 26  1  0  0  0  0
 26 27  1  0  0  0  0
 26 44  1  0  0  0  0
 27 47  1  0  0  0  0
 31  9  1  0  0  0  0
 32 10  1  0  0  0  0
 33 15  1  0  0  0  0
 34 15  1  0  0  0  0
 38 18  1  0  0  0  0
 41 19  1  0  0  0  0
 43 25  1  0  0  0  0
 45 26  1  0  0  0  0
 46 27  1  0  0  0  0
M  END
>  <Pose>
1

>  <Score>
-7.64

$$$$
