
 OpenBabel03202209553D

 54 57  0  0  0  0  0  0  0  0999 V2000
   24.5660   12.3170   29.0630 S   0  0  0  0  0  0  0  0  0  0  0  0
   24.2420   11.3530   27.9210 O   0  0  0  0  0  0  0  0  0  0  0  0
   25.2040   13.5030   28.3760 O   0  0  0  0  0  0  0  0  0  0  0  0
   25.6710   11.5570   30.0690 N   0  0  0  0  0  0  0  0  0  0  0  0
   26.6880   10.7550   29.5590 C   0  0  0  0  0  0  0  0  0  0  0  0
   26.3280    9.3400   29.3210 C   0  0  0  0  0  0  0  0  0  0  0  0
   26.9200    8.6600   28.4480 O   0  0  0  0  0  0  0  0  0  0  0  0
   25.2850    8.8090   30.1310 N   0  0  0  0  0  0  0  0  0  0  0  0
   24.8990    9.5820   31.2560 C   0  0  0  0  0  0  0  0  0  0  0  0
   24.3920    8.9820   32.2450 O   0  0  0  0  0  0  0  0  0  0  0  0
   25.0750   11.0490   31.2960 C   0  0  0  0  0  0  0  0  0  0  0  0
   24.6730    7.5390   29.8010 C   0  0  0  0  0  0  0  0  0  0  0  0
   25.3180    6.3550   30.4340 C   0  0  0  0  0  0  0  0  0  0  0  0
   25.7210    5.2840   29.5240 C   0  0  0  0  0  0  0  0  0  0  0  0
   26.3700    5.5320   28.3470 C   0  0  0  0  0  0  0  0  0  0  0  0
   26.7150    4.4850   27.5390 C   0  0  0  0  0  0  0  0  0  0  0  0
   26.4270    3.1680   27.8780 C   0  0  0  0  0  0  0  0  0  0  0  0
   25.7780    2.9450   29.0610 C   0  0  0  0  0  0  0  0  0  0  0  0
   25.4160    3.9740   29.8970 C   0  0  0  0  0  0  0  0  0  0  0  0
   23.0380   12.7710   29.7660 C   0  0  0  0  0  0  0  0  0  0  0  0
   22.7990   14.1290   30.0130 C   0  0  0  0  0  0  0  0  0  0  0  0
   21.6620   14.6090   30.6230 C   0  0  0  0  0  0  0  0  0  0  0  0
   20.6780   13.7330   31.0280 C   0  0  0  0  0  0  0  0  0  0  0  0
   20.8950   12.3980   30.7930 C   0  0  0  0  0  0  0  0  0  0  0  0
   22.0570   11.9140   30.1690 C   0  0  0  0  0  0  0  0  0  0  0  0
   22.1990   10.0370   29.8020 B   0  0  0  0  0  0  0  0  0  0  0  0
   19.5500   14.4670   31.6520 C   0  0  0  0  0  0  0  0  0  0  0  0
   19.7940   15.8910   31.1490 C   0  0  0  0  0  0  0  0  0  0  0  0
   21.2400   15.9320   30.9600 N   0  0  0  0  0  0  0  0  0  0  0  0
   22.0330   17.0840   31.1060 C   0  0  0  0  0  0  0  0  0  0  0  0
   22.5860   17.3050   32.2390 O   0  0  0  0  0  0  0  0  0  0  0  0
   22.3030   18.0910   30.0520 C   0  0  0  0  0  0  0  0  0  0  0  0
   27.5340   10.7500   30.3490 H   0  0  0  0  0  0  0  0  0  0  0  0
   27.1870   11.2010   28.6970 H   0  0  0  0  0  0  0  0  0  0  0  0
   24.1010   11.5060   31.5370 H   0  0  0  0  0  0  0  0  0  0  0  0
   25.7730   11.2910   32.1180 H   0  0  0  0  0  0  0  0  0  0  0  0
   24.6390    7.4180   28.6870 H   0  0  0  0  0  0  0  0  0  0  0  0
   23.6020    7.5380   30.1280 H   0  0  0  0  0  0  0  0  0  0  0  0
   24.5780    5.9280   31.1500 H   0  0  0  0  0  0  0  0  0  0  0  0
   26.1620    6.7120   31.0670 H   0  0  0  0  0  0  0  0  0  0  0  0
   26.6030    6.5290   28.0610 H   0  0  0  0  0  0  0  0  0  0  0  0
   27.2340    4.6330   26.5890 H   0  0  0  0  0  0  0  0  0  0  0  0
   26.7060    2.3410   27.2280 H   0  0  0  0  0  0  0  0  0  0  0  0
   25.5310    1.9280   29.3670 H   0  0  0  0  0  0  0  0  0  0  0  0
   24.9040    3.7340   30.8180 H   0  0  0  0  0  0  0  0  0  0  0  0
   23.5850   14.8110   29.6810 H   0  0  0  0  0  0  0  0  0  0  0  0
   20.1560   11.6560   31.0890 H   0  0  0  0  0  0  0  0  0  0  0  0
   19.5740   14.4620   32.7470 H   0  0  0  0  0  0  0  0  0  0  0  0
   18.5610   14.1040   31.2930 H   0  0  0  0  0  0  0  0  0  0  0  0
   19.4900   16.6200   31.9130 H   0  0  0  0  0  0  0  0  0  0  0  0
   19.3100   16.0240   30.1740 H   0  0  0  0  0  0  0  0  0  0  0  0
   23.1630   18.7540   30.3570 H   0  0  0  0  0  0  0  0  0  0  0  0
   21.4610   18.7980   29.9060 H   0  0  0  0  0  0  0  0  0  0  0  0
   22.5360   17.6020   29.0770 H   0  0  0  0  0  0  0  0  0  0  0  0
  1 20  1  0  0  0  0
  1  4  1  0  0  0  0
  2  1  2  0  0  0  0
  3  1  2  0  0  0  0
  4 11  1  0  0  0  0
  5  4  1  0  0  0  0
  5 33  1  0  0  0  0
  6  5  1  0  0  0  0
  6  8  1  0  0  0  0
  7  6  2  0  0  0  0
  8  9  1  0  0  0  0
  9 11  1  0  0  0  0
  9 10  2  0  0  0  0
 11 35  1  0  0  0  0
 11 36  1  0  0  0  0
 12 38  1  0  0  0  0
 12  8  1  0  0  0  0
 12 13  1  0  0  0  0
 13 40  1  0  0  0  0
 13 39  1  0  0  0  0
 14 19  1  0  0  0  0
 14 13  1  0  0  0  0
 15 14  2  0  0  0  0
 16 17  2  0  0  0  0
 16 15  1  0  0  0  0
 17 18  1  0  0  0  0
 18 44  1  0  0  0  0
 18 19  2  0  0  0  0
 19 45  1  0  0  0  0
 20 21  2  0  0  0  0
 20 25  1  0  0  0  0
 21 22  1  0  0  0  0
 22 29  1  0  0  0  0
 22 23  2  0  0  0  0
 23 27  1  0  0  0  0
 24 23  1  0  0  0  0
 24 47  1  0  0  0  0
 25 24  2  0  0  0  0
 26 25  1  0  0  0  0
 27 48  1  0  0  0  0
 28 27  1  0  0  0  0
 28 50  1  0  0  0  0
 29 30  1  0  0  0  0
 29 28  1  0  0  0  0
 30 31  2  0  0  0  0
 32 52  1  0  0  0  0
 32 30  1  0  0  0  0
 34  5  1  0  0  0  0
 37 12  1  0  0  0  0
 41 15  1  0  0  0  0
 42 16  1  0  0  0  0
 43 17  1  0  0  0  0
 46 21  1  0  0  0  0
 49 27  1  0  0  0  0
 51 28  1  0  0  0  0
 53 32  1  0  0  0  0
 54 32  1  0  0  0  0
M  END
>  <Pose>
1

>  <Score>
-6.70

$$$$
