
 OpenBabel03202209553D

 50 53  0  0  0  0  0  0  0  0999 V2000
   21.6640   15.1600   31.4640 S   0  0  0  0  0  0  0  0  0  0  0  0
   21.4050   16.3840   32.2990 O   0  0  0  0  0  0  0  0  0  0  0  0
   20.3120   14.5020   31.2480 O   0  0  0  0  0  0  0  0  0  0  0  0
   22.7010   14.1180   32.3060 N   0  0  0  0  0  0  0  0  0  0  0  0
   22.1090   13.3420   33.3410 C   0  0  0  0  0  0  0  0  0  0  0  0
   21.8820   11.9210   33.1090 C   0  0  0  0  0  0  0  0  0  0  0  0
   22.5440   11.2930   31.9820 N   0  0  0  0  0  0  0  0  0  0  0  0
   23.1740   12.0840   30.9700 C   0  0  0  0  0  0  0  0  0  0  0  0
   23.6490   13.4270   31.5100 C   0  0  0  0  0  0  0  0  0  0  0  0
   22.5670    9.8980   31.9320 C   0  0  0  0  0  0  0  0  0  0  0  0
   23.7580    9.4280   32.3630 O   0  0  0  0  0  0  0  0  0  0  0  0
   21.6230    8.8950   31.5340 C   0  0  0  0  0  0  0  0  0  0  0  0
   20.4110    8.6360   32.3080 C   0  0  0  0  0  0  0  0  0  0  0  0
   19.9230    7.3630   32.4700 C   0  0  0  0  0  0  0  0  0  0  0  0
   18.7680    7.1290   33.2160 C   0  0  0  0  0  0  0  0  0  0  0  0
   18.1170    8.1790   33.7930 C   0  0  0  0  0  0  0  0  0  0  0  0
   18.6100    9.4760   33.6340 C   0  0  0  0  0  0  0  0  0  0  0  0
   19.7350    9.7000   32.9060 C   0  0  0  0  0  0  0  0  0  0  0  0
   20.8160    5.8710   31.6620 B   0  0  0  0  0  0  0  0  0  0  0  0
   22.3040   15.7390   29.9400 C   0  0  0  0  0  0  0  0  0  0  0  0
   21.9750   17.0150   29.4850 C   0  0  0  0  0  0  0  0  0  0  0  0
   22.4350   17.5210   28.2890 C   0  0  0  0  0  0  0  0  0  0  0  0
   23.2560   16.7720   27.4760 C   0  0  0  0  0  0  0  0  0  0  0  0
   23.5850   15.5100   27.9190 C   0  0  0  0  0  0  0  0  0  0  0  0
   23.1240   14.9920   29.1240 C   0  0  0  0  0  0  0  0  0  0  0  0
   23.7300   17.2800   26.2500 O   0  0  0  0  0  0  0  0  0  0  0  0
   23.8420   18.7030   26.0700 C   0  0  0  0  0  0  0  0  0  0  0  0
   22.5730   19.2790   26.5840 C   0  0  0  0  0  0  0  0  0  0  0  0
   21.9240   20.1440   25.9540 O   0  0  0  0  0  0  0  0  0  0  0  0
   22.0730   18.8360   27.8340 N   0  0  0  0  0  0  0  0  0  0  0  0
   21.1140   13.8250   33.5740 H   0  0  0  0  0  0  0  0  0  0  0  0
   22.7210   13.5290   34.2740 H   0  0  0  0  0  0  0  0  0  0  0  0
   22.1800   11.3290   34.0240 H   0  0  0  0  0  0  0  0  0  0  0  0
   20.7790   11.6720   32.9850 H   0  0  0  0  0  0  0  0  0  0  0  0
   22.4630   12.2200   30.1440 H   0  0  0  0  0  0  0  0  0  0  0  0
   24.0790   11.6320   30.5200 H   0  0  0  0  0  0  0  0  0  0  0  0
   23.9480   14.0380   30.6490 H   0  0  0  0  0  0  0  0  0  0  0  0
   24.5220   13.1870   32.1790 H   0  0  0  0  0  0  0  0  0  0  0  0
   21.3000    9.1080   30.4440 H   0  0  0  0  0  0  0  0  0  0  0  0
   22.1750    7.9100   31.4250 H   0  0  0  0  0  0  0  0  0  0  0  0
   18.4370    6.1050   33.3010 H   0  0  0  0  0  0  0  0  0  0  0  0
   17.2330    7.9940   34.3650 H   0  0  0  0  0  0  0  0  0  0  0  0
   18.0510   10.2870   34.1210 H   0  0  0  0  0  0  0  0  0  0  0  0
   20.1480   10.6960   32.7600 H   0  0  0  0  0  0  0  0  0  0  0  0
   21.3280   17.6150   30.1170 H   0  0  0  0  0  0  0  0  0  0  0  0
   24.2410   14.9070   27.2730 H   0  0  0  0  0  0  0  0  0  0  0  0
   23.4060   13.9900   29.4450 H   0  0  0  0  0  0  0  0  0  0  0  0
   24.6470   19.1010   26.7620 H   0  0  0  0  0  0  0  0  0  0  0  0
   24.0370   18.8700   25.0210 H   0  0  0  0  0  0  0  0  0  0  0  0
   21.4600   19.3890   28.4490 H   0  0  0  0  0  0  0  0  0  0  0  0
  1  2  2  0  0  0  0
  1  4  1  0  0  0  0
  3  1  2  0  0  0  0
  4  5  1  0  0  0  0
  5 31  1  0  0  0  0
  5 32  1  0  0  0  0
  6  5  1  0  0  0  0
  6 33  1  0  0  0  0
  7  6  1  0  0  0  0
  8  9  1  0  0  0  0
  8  7  1  0  0  0  0
  9 38  1  0  0  0  0
  9  4  1  0  0  0  0
 10  7  1  0  0  0  0
 10 11  2  0  0  0  0
 12 10  1  0  0  0  0
 12 13  1  0  0  0  0
 13 14  2  0  0  0  0
 13 18  1  0  0  0  0
 14 15  1  0  0  0  0
 15 41  1  0  0  0  0
 15 16  2  0  0  0  0
 16 42  1  0  0  0  0
 17 16  1  0  0  0  0
 17 43  1  0  0  0  0
 18 17  2  0  0  0  0
 19 14  1  0  0  0  0
 20  1  1  0  0  0  0
 21 20  1  0  0  0  0
 21 45  1  0  0  0  0
 22 21  2  0  0  0  0
 23 24  2  0  0  0  0
 23 22  1  0  0  0  0
 24 25  1  0  0  0  0
 25 47  1  0  0  0  0
 25 20  2  0  0  0  0
 26 23  1  0  0  0  0
 27 26  1  0  0  0  0
 27 28  1  0  0  0  0
 27 48  1  0  0  0  0
 28 30  1  0  0  0  0
 29 28  2  0  0  0  0
 30 22  1  0  0  0  0
 30 50  1  0  0  0  0
 34  6  1  0  0  0  0
 35  8  1  0  0  0  0
 36  8  1  0  0  0  0
 37  9  1  0  0  0  0
 39 12  1  0  0  0  0
 40 12  1  0  0  0  0
 44 18  1  0  0  0  0
 46 24  1  0  0  0  0
 49 27  1  0  0  0  0
M  END
>  <Pose>
1

>  <Score>
-7.52

$$$$
