
 OpenBabel03202209553D

 60 64  0  0  0  0  0  0  0  0999 V2000
   23.6630   10.3100   31.3500 S   0  0  0  0  0  0  0  0  0  0  0  0
   23.5360   11.7360   31.7270 O   0  0  0  0  0  0  0  0  0  0  0  0
   24.8810    9.8050   32.1330 O   0  0  0  0  0  0  0  0  0  0  0  0
   24.0810   10.0640   29.7000 N   0  0  0  0  0  0  0  0  0  0  0  0
   25.3800    9.5200   29.5010 C   0  0  0  0  0  0  0  0  0  0  0  0
   26.4870   10.5630   29.4120 C   0  0  0  0  0  0  0  0  0  0  0  0
   26.1200   11.5420   28.4460 N   0  0  0  0  0  0  0  0  0  0  0  0
   24.8420   12.2360   28.8080 C   0  0  0  0  0  0  0  0  0  0  0  0
   23.7910   11.1800   28.8650 C   0  0  0  0  0  0  0  0  0  0  0  0
   26.7220   11.9460   27.2710 C   0  0  0  0  0  0  0  0  0  0  0  0
   27.5730   12.9450   27.4000 O   0  0  0  0  0  0  0  0  0  0  0  0
   26.5890   11.4710   25.9250 C   0  0  0  0  0  0  0  0  0  0  0  0
   27.4380   10.4390   25.4520 N   0  0  0  0  0  0  0  0  0  0  0  0
   27.5890    9.2130   25.9520 N   0  0  0  0  0  0  0  0  0  0  0  0
   28.4500    8.5000   25.2160 C   0  0  0  0  0  0  0  0  0  0  0  0
   28.8570    9.3300   24.2000 C   0  0  0  0  0  0  0  0  0  0  0  0
   28.2280   10.5290   24.3500 C   0  0  0  0  0  0  0  0  0  0  0  0
   30.1010    8.8810   22.8040 B   0  0  0  0  0  0  0  0  0  0  0  0
   22.3440    9.2990   31.8510 C   0  0  0  0  0  0  0  0  0  0  0  0
   21.1990    9.8200   32.4710 C   0  0  0  0  0  0  0  0  0  0  0  0
   20.1550    9.0090   32.8680 C   0  0  0  0  0  0  0  0  0  0  0  0
   20.1960    7.6440   32.6680 C   0  0  0  0  0  0  0  0  0  0  0  0
   21.3100    7.1290   32.0650 C   0  0  0  0  0  0  0  0  0  0  0  0
   22.3550    7.9580   31.6690 C   0  0  0  0  0  0  0  0  0  0  0  0
   23.4900    7.2580   31.0440 C   0  0  0  0  0  0  0  0  0  0  0  0
   23.0110    6.3030   29.9720 C   0  0  0  0  0  0  0  0  0  0  0  0
   21.8760    5.5800   30.4030 N   0  0  0  0  0  0  0  0  0  0  0  0
   21.5030    5.6890   31.7780 C   0  0  0  0  0  0  0  0  0  0  0  0
   20.8020    5.4580   29.4820 C   0  0  0  0  0  0  0  0  0  0  0  0
   19.1340    6.8100   33.0720 O   0  0  0  0  0  0  0  0  0  0  0  0
   17.8000    7.1560   32.6710 C   0  0  0  0  0  0  0  0  0  0  0  0
   19.1960    9.8180   33.4380 O   0  0  0  0  0  0  0  0  0  0  0  0
   19.6950   11.1230   33.5220 C   0  0  0  0  0  0  0  0  0  0  0  0
   20.9080   11.1440   32.7850 O   0  0  0  0  0  0  0  0  0  0  0  0
   25.6340    8.8460   30.3430 H   0  0  0  0  0  0  0  0  0  0  0  0
   25.4070    8.9470   28.5530 H   0  0  0  0  0  0  0  0  0  0  0  0
   27.4090   10.0200   29.2710 H   0  0  0  0  0  0  0  0  0  0  0  0
   26.5900   11.1040   30.3880 H   0  0  0  0  0  0  0  0  0  0  0  0
   24.5720   12.9590   28.0180 H   0  0  0  0  0  0  0  0  0  0  0  0
   24.9410   12.7550   29.7600 H   0  0  0  0  0  0  0  0  0  0  0  0
   22.8220   11.6410   29.1350 H   0  0  0  0  0  0  0  0  0  0  0  0
   23.6520   10.7920   27.8200 H   0  0  0  0  0  0  0  0  0  0  0  0
   26.6980   12.3360   25.1680 H   0  0  0  0  0  0  0  0  0  0  0  0
   25.4880   11.1850   25.7420 H   0  0  0  0  0  0  0  0  0  0  0  0
   28.7590    7.4640   25.3970 H   0  0  0  0  0  0  0  0  0  0  0  0
   28.3440   11.3800   23.7100 H   0  0  0  0  0  0  0  0  0  0  0  0
   24.3430    7.8610   30.7630 H   0  0  0  0  0  0  0  0  0  0  0  0
   23.8830    6.5710   31.8610 H   0  0  0  0  0  0  0  0  0  0  0  0
   22.6920    6.9580   29.1120 H   0  0  0  0  0  0  0  0  0  0  0  0
   23.8420    5.6730   29.5900 H   0  0  0  0  0  0  0  0  0  0  0  0
   20.5760    5.1130   31.9420 H   0  0  0  0  0  0  0  0  0  0  0  0
   22.2740    5.2990   32.4760 H   0  0  0  0  0  0  0  0  0  0  0  0
   20.4290    4.4230   29.3450 H   0  0  0  0  0  0  0  0  0  0  0  0
   21.1210    5.9100   28.5100 H   0  0  0  0  0  0  0  0  0  0  0  0
   19.9460    6.0850   29.8240 H   0  0  0  0  0  0  0  0  0  0  0  0
   17.7940    8.1230   32.1280 H   0  0  0  0  0  0  0  0  0  0  0  0
   17.1530    7.2750   33.5610 H   0  0  0  0  0  0  0  0  0  0  0  0
   17.3440    6.3270   32.0750 H   0  0  0  0  0  0  0  0  0  0  0  0
   19.8450   11.4850   34.5490 H   0  0  0  0  0  0  0  0  0  0  0  0
   18.9820   11.7760   32.9480 H   0  0  0  0  0  0  0  0  0  0  0  0
  1  2  2  0  0  0  0
  1 19  1  0  0  0  0
  1  3  2  0  0  0  0
  4  1  1  0  0  0  0
  5  4  1  0  0  0  0
  5 35  1  0  0  0  0
  6  5  1  0  0  0  0
  6 38  1  0  0  0  0
  7  8  1  0  0  0  0
  7  6  1  0  0  0  0
  8  9  1  0  0  0  0
  8 40  1  0  0  0  0
  9 41  1  0  0  0  0
  9  4  1  0  0  0  0
 10 11  2  0  0  0  0
 10  7  1  0  0  0  0
 12 10  1  0  0  0  0
 13 12  1  0  0  0  0
 13 14  1  0  0  0  0
 15 45  1  0  0  0  0
 15 14  2  0  0  0  0
 16 17  2  0  0  0  0
 16 15  1  0  0  0  0
 17 13  1  0  0  0  0
 18 16  1  0  0  0  0
 19 20  1  0  0  0  0
 20 34  1  0  0  0  0
 20 21  2  0  0  0  0
 21 32  1  0  0  0  0
 22 21  1  0  0  0  0
 22 30  1  0  0  0  0
 23 22  2  0  0  0  0
 24 19  2  0  0  0  0
 24 23  1  0  0  0  0
 25 24  1  0  0  0  0
 25 48  1  0  0  0  0
 26 27  1  0  0  0  0
 26 25  1  0  0  0  0
 27 28  1  0  0  0  0
 28 51  1  0  0  0  0
 28 23  1  0  0  0  0
 28 52  1  0  0  0  0
 29 55  1  0  0  0  0
 29 27  1  0  0  0  0
 31 30  1  0  0  0  0
 31 57  1  0  0  0  0
 32 33  1  0  0  0  0
 33 59  1  0  0  0  0
 34 33  1  0  0  0  0
 36  5  1  0  0  0  0
 37  6  1  0  0  0  0
 39  8  1  0  0  0  0
 42  9  1  0  0  0  0
 43 12  1  0  0  0  0
 44 12  1  0  0  0  0
 46 17  1  0  0  0  0
 47 25  1  0  0  0  0
 49 26  1  0  0  0  0
 50 26  1  0  0  0  0
 53 29  1  0  0  0  0
 54 29  1  0  0  0  0
 56 31  1  0  0  0  0
 58 31  1  0  0  0  0
 60 33  1  0  0  0  0
M  END
>  <Pose>
1

>  <Score>
-6.77

$$$$
