
 OpenBabel03202209553D

 53 56  0  0  0  0  0  0  0  0999 V2000
   26.4710    5.7500   27.9850 S   0  0  0  0  0  0  0  0  0  0  0  0
   26.7500    4.4070   28.6730 O   0  0  0  0  0  0  0  0  0  0  0  0
   25.1800    5.4740   27.2090 O   0  0  0  0  0  0  0  0  0  0  0  0
   26.2570    6.8990   29.1590 N   0  0  0  0  0  0  0  0  0  0  0  0
   27.1690    7.9030   29.4360 C   0  0  0  0  0  0  0  0  0  0  0  0
   26.7610    8.5690   30.7790 C   0  0  0  0  0  0  0  0  0  0  0  0
   25.3770    8.9500   30.7270 N   0  0  0  0  0  0  0  0  0  0  0  0
   24.4200    7.8950   30.4820 C   0  0  0  0  0  0  0  0  0  0  0  0
   25.2120    6.6590   30.1170 C   0  0  0  0  0  0  0  0  0  0  0  0
   24.9230   10.2710   30.9000 C   0  0  0  0  0  0  0  0  0  0  0  0
   25.6510   11.2200   30.5310 O   0  0  0  0  0  0  0  0  0  0  0  0
   23.6180   10.5500   31.5020 C   0  0  0  0  0  0  0  0  0  0  0  0
   22.9280   11.6070   30.7670 N   0  0  0  0  0  0  0  0  0  0  0  0
   22.0170   11.5120   29.6910 C   0  0  0  0  0  0  0  0  0  0  0  0
   21.6270   10.4230   29.1560 O   0  0  0  0  0  0  0  0  0  0  0  0
   21.6360   12.8360   29.3370 N   0  0  0  0  0  0  0  0  0  0  0  0
   21.9250   13.6750   30.4700 C   0  0  0  0  0  0  0  0  0  0  0  0
   20.7840   13.8130   31.4240 C   0  0  0  0  0  0  0  0  0  0  0  0
   21.2230   15.0240   32.2580 C   0  0  0  0  0  0  0  0  0  0  0  0
   21.8950   15.9250   31.2580 C   0  0  0  0  0  0  0  0  0  0  0  0
   22.2350   15.0970   30.0630 C   0  0  0  0  0  0  0  0  0  0  0  0
   23.1040   13.0060   31.0700 C   0  0  0  0  0  0  0  0  0  0  0  0
   24.0400   13.5480   31.6990 O   0  0  0  0  0  0  0  0  0  0  0  0
   27.7700    5.9640   26.8530 C   0  0  0  0  0  0  0  0  0  0  0  0
   29.1040    6.0460   27.1520 C   0  0  0  0  0  0  0  0  0  0  0  0
   30.0700    6.2720   26.1660 C   0  0  0  0  0  0  0  0  0  0  0  0
   29.7350    6.4220   24.8570 C   0  0  0  0  0  0  0  0  0  0  0  0
   28.4100    6.3420   24.5240 C   0  0  0  0  0  0  0  0  0  0  0  0
   27.4570    6.1210   25.4900 C   0  0  0  0  0  0  0  0  0  0  0  0
   29.6690    5.7790   28.9440 B   0  0  0  0  0  0  0  0  0  0  0  0
   27.2940    8.6970   28.6730 H   0  0  0  0  0  0  0  0  0  0  0  0
   28.1720    7.4920   29.6650 H   0  0  0  0  0  0  0  0  0  0  0  0
   26.9440    7.8250   31.5620 H   0  0  0  0  0  0  0  0  0  0  0  0
   27.4610    9.3970   30.9110 H   0  0  0  0  0  0  0  0  0  0  0  0
   23.9110    7.6490   31.4540 H   0  0  0  0  0  0  0  0  0  0  0  0
   23.6530    8.1340   29.7500 H   0  0  0  0  0  0  0  0  0  0  0  0
   24.5700    5.8380   29.7520 H   0  0  0  0  0  0  0  0  0  0  0  0
   25.6910    6.2980   31.0510 H   0  0  0  0  0  0  0  0  0  0  0  0
   23.6920   10.7810   32.5930 H   0  0  0  0  0  0  0  0  0  0  0  0
   22.9250    9.6610   31.4570 H   0  0  0  0  0  0  0  0  0  0  0  0
   21.2270   13.0690   28.3980 H   0  0  0  0  0  0  0  0  0  0  0  0
   19.8860   14.1100   30.8600 H   0  0  0  0  0  0  0  0  0  0  0  0
   20.6390   12.9270   32.0730 H   0  0  0  0  0  0  0  0  0  0  0  0
   21.9800   14.6920   33.0000 H   0  0  0  0  0  0  0  0  0  0  0  0
   20.3540   15.4910   32.7460 H   0  0  0  0  0  0  0  0  0  0  0  0
   22.8250   16.3630   31.6580 H   0  0  0  0  0  0  0  0  0  0  0  0
   21.1580   16.6860   30.9460 H   0  0  0  0  0  0  0  0  0  0  0  0
   21.6580   15.3540   29.1630 H   0  0  0  0  0  0  0  0  0  0  0  0
   23.3220   15.1810   29.7880 H   0  0  0  0  0  0  0  0  0  0  0  0
   31.0890    6.3240   26.4840 H   0  0  0  0  0  0  0  0  0  0  0  0
   30.5260    6.5930   24.1490 H   0  0  0  0  0  0  0  0  0  0  0  0
   28.1450    6.4600   23.4830 H   0  0  0  0  0  0  0  0  0  0  0  0
   26.4110    6.0590   25.2240 H   0  0  0  0  0  0  0  0  0  0  0  0
  1  2  2  0  0  0  0
  1  4  1  0  0  0  0
  3  1  2  0  0  0  0
  4  5  1  0  0  0  0
  4  9  1  0  0  0  0
  5 32  1  0  0  0  0
  5  6  1  0  0  0  0
  6 34  1  0  0  0  0
  6 33  1  0  0  0  0
  7  6  1  0  0  0  0
  7 10  1  0  0  0  0
  8  7  1  0  0  0  0
  8 35  1  0  0  0  0
  9  8  1  0  0  0  0
  9 38  1  0  0  0  0
 10 12  1  0  0  0  0
 11 10  2  0  0  0  0
 12 39  1  0  0  0  0
 13 22  1  0  0  0  0
 13 12  1  0  0  0  0
 14 13  1  0  0  0  0
 15 14  2  0  0  0  0
 16 14  1  0  0  0  0
 16 17  1  0  0  0  0
 17 22  1  0  0  0  0
 17 18  1  0  0  0  0
 18 43  1  0  0  0  0
 18 19  1  0  0  0  0
 19 45  1  0  0  0  0
 19 44  1  0  0  0  0
 20 46  1  0  0  0  0
 20 19  1  0  0  0  0
 21 17  1  0  0  0  0
 21 20  1  0  0  0  0
 22 23  2  0  0  0  0
 24 25  1  0  0  0  0
 24  1  1  0  0  0  0
 25 30  1  0  0  0  0
 26 50  1  0  0  0  0
 26 25  2  0  0  0  0
 27 26  1  0  0  0  0
 28 27  2  0  0  0  0
 28 29  1  0  0  0  0
 29 24  2  0  0  0  0
 31  5  1  0  0  0  0
 36  8  1  0  0  0  0
 37  9  1  0  0  0  0
 40 12  1  0  0  0  0
 41 16  1  0  0  0  0
 42 18  1  0  0  0  0
 47 20  1  0  0  0  0
 48 21  1  0  0  0  0
 49 21  1  0  0  0  0
 51 27  1  0  0  0  0
 52 28  1  0  0  0  0
 53 29  1  0  0  0  0
M  END
>  <Pose>
1

>  <Score>
-6.91

$$$$
