
 OpenBabel03202209553D

 53 56  0  0  0  0  0  0  0  0999 V2000
   24.7230   11.5030   29.2440 S   0  0  0  0  0  0  0  0  0  0  0  0
   24.8380   11.6150   27.7350 O   0  0  0  0  0  0  0  0  0  0  0  0
   26.1400   11.4520   29.7590 O   0  0  0  0  0  0  0  0  0  0  0  0
   23.9490   10.0190   29.5770 N   0  0  0  0  0  0  0  0  0  0  0  0
   24.3180    9.4590   30.8610 C   0  0  0  0  0  0  0  0  0  0  0  0
   23.1170    8.8890   31.5730 C   0  0  0  0  0  0  0  0  0  0  0  0
   22.4500    7.9740   30.6220 N   0  0  0  0  0  0  0  0  0  0  0  0
   22.0740    8.5580   29.3720 C   0  0  0  0  0  0  0  0  0  0  0  0
   22.5400   10.0330   29.3990 C   0  0  0  0  0  0  0  0  0  0  0  0
   22.2250    6.6320   30.9610 C   0  0  0  0  0  0  0  0  0  0  0  0
   21.3410    6.4520   31.9210 O   0  0  0  0  0  0  0  0  0  0  0  0
   22.7720    5.3940   30.4680 C   0  0  0  0  0  0  0  0  0  0  0  0
   24.1070    5.0070   30.8010 N   0  0  0  0  0  0  0  0  0  0  0  0
   25.3400    5.6640   30.4100 C   0  0  0  0  0  0  0  0  0  0  0  0
   25.3600    6.7140   29.7100 O   0  0  0  0  0  0  0  0  0  0  0  0
   26.4180    4.9170   30.9510 N   0  0  0  0  0  0  0  0  0  0  0  0
   25.9190    3.6240   31.2760 C   0  0  0  0  0  0  0  0  0  0  0  0
   26.1250    2.6080   30.1790 C   0  0  0  0  0  0  0  0  0  0  0  0
   25.8200    1.3130   30.9070 C   0  0  0  0  0  0  0  0  0  0  0  0
   26.1720    1.5550   32.3550 C   0  0  0  0  0  0  0  0  0  0  0  0
   26.6610    2.9820   32.4350 C   0  0  0  0  0  0  0  0  0  0  0  0
   24.5090    3.8620   31.5820 C   0  0  0  0  0  0  0  0  0  0  0  0
   23.7600    3.2210   32.3620 O   0  0  0  0  0  0  0  0  0  0  0  0
   23.8850   12.8820   29.9140 C   0  0  0  0  0  0  0  0  0  0  0  0
   23.4110   13.9100   29.1230 C   0  0  0  0  0  0  0  0  0  0  0  0
   22.7450   15.0030   29.6660 C   0  0  0  0  0  0  0  0  0  0  0  0
   22.5360   15.0950   31.0170 C   0  0  0  0  0  0  0  0  0  0  0  0
   23.0030   14.0750   31.8190 C   0  0  0  0  0  0  0  0  0  0  0  0
   23.6670   12.9870   31.2710 C   0  0  0  0  0  0  0  0  0  0  0  0
   21.6130   16.6060   31.7770 B   0  0  0  0  0  0  0  0  0  0  0  0
   24.9830    8.5780   30.6270 H   0  0  0  0  0  0  0  0  0  0  0  0
   24.8490   10.1970   31.4900 H   0  0  0  0  0  0  0  0  0  0  0  0
   22.4750    9.6990   31.9080 H   0  0  0  0  0  0  0  0  0  0  0  0
   23.4810    8.3170   32.4530 H   0  0  0  0  0  0  0  0  0  0  0  0
   21.0050    8.5300   29.1380 H   0  0  0  0  0  0  0  0  0  0  0  0
   22.6740    8.0570   28.5560 H   0  0  0  0  0  0  0  0  0  0  0  0
   21.9400   10.5240   30.1620 H   0  0  0  0  0  0  0  0  0  0  0  0
   22.2890   10.5060   28.4210 H   0  0  0  0  0  0  0  0  0  0  0  0
   22.7130    5.3810   29.3170 H   0  0  0  0  0  0  0  0  0  0  0  0
   22.1050    4.5050   30.7370 H   0  0  0  0  0  0  0  0  0  0  0  0
   27.3890    5.3210   31.0590 H   0  0  0  0  0  0  0  0  0  0  0  0
   27.2030    2.6000   29.9290 H   0  0  0  0  0  0  0  0  0  0  0  0
   25.4800    2.7720   29.3130 H   0  0  0  0  0  0  0  0  0  0  0  0
   26.4130    0.4620   30.5220 H   0  0  0  0  0  0  0  0  0  0  0  0
   24.7310    1.1330   30.7700 H   0  0  0  0  0  0  0  0  0  0  0  0
   26.9250    0.8320   32.7260 H   0  0  0  0  0  0  0  0  0  0  0  0
   25.2270    1.5000   32.9420 H   0  0  0  0  0  0  0  0  0  0  0  0
   27.7500    3.0580   32.1690 H   0  0  0  0  0  0  0  0  0  0  0  0
   26.4380    3.4630   33.3930 H   0  0  0  0  0  0  0  0  0  0  0  0
   23.5730   13.8410   28.0610 H   0  0  0  0  0  0  0  0  0  0  0  0
   22.3700   15.8150   29.0560 H   0  0  0  0  0  0  0  0  0  0  0  0
   22.8230   14.1710   32.8880 H   0  0  0  0  0  0  0  0  0  0  0  0
   24.0230   12.1970   31.9490 H   0  0  0  0  0  0  0  0  0  0  0  0
  1  4  1  0  0  0  0
  1  3  2  0  0  0  0
  1 24  1  0  0  0  0
  2  1  2  0  0  0  0
  4  5  1  0  0  0  0
  5 32  1  0  0  0  0
  5  6  1  0  0  0  0
  6 33  1  0  0  0  0
  6 34  1  0  0  0  0
  7 10  1  0  0  0  0
  7  6  1  0  0  0  0
  8  9  1  0  0  0  0
  8  7  1  0  0  0  0
  9  4  1  0  0  0  0
  9 37  1  0  0  0  0
 10 11  2  0  0  0  0
 12 40  1  0  0  0  0
 12 13  1  0  0  0  0
 12 10  1  0  0  0  0
 13 22  1  0  0  0  0
 14 13  1  0  0  0  0
 14 16  1  0  0  0  0
 15 14  2  0  0  0  0
 16 41  1  0  0  0  0
 16 17  1  0  0  0  0
 17 22  1  0  0  0  0
 17 21  1  0  0  0  0
 18 19  1  0  0  0  0
 18 17  1  0  0  0  0
 19 20  1  0  0  0  0
 20 21  1  0  0  0  0
 20 46  1  0  0  0  0
 20 47  1  0  0  0  0
 21 49  1  0  0  0  0
 22 23  2  0  0  0  0
 24 29  1  0  0  0  0
 25 26  1  0  0  0  0
 25 24  2  0  0  0  0
 26 27  2  0  0  0  0
 27 30  1  0  0  0  0
 27 28  1  0  0  0  0
 28 52  1  0  0  0  0
 29 28  2  0  0  0  0
 29 53  1  0  0  0  0
 31  5  1  0  0  0  0
 35  8  1  0  0  0  0
 36  8  1  0  0  0  0
 38  9  1  0  0  0  0
 39 12  1  0  0  0  0
 42 18  1  0  0  0  0
 43 18  1  0  0  0  0
 44 19  1  0  0  0  0
 45 19  1  0  0  0  0
 48 21  1  0  0  0  0
 50 25  1  0  0  0  0
 51 26  1  0  0  0  0
M  END
>  <Pose>
1

>  <Score>
-6.51

$$$$
