
 OpenBabel03202209553D

 43 46  0  0  0  0  0  0  0  0999 V2000
   23.6930    8.3080   30.7360 S   0  0  0  0  0  0  0  0  0  0  0  0
   22.6160    7.3310   31.0830 O   0  0  0  0  0  0  0  0  0  0  0  0
   24.2660    8.8680   32.0310 O   0  0  0  0  0  0  0  0  0  0  0  0
   23.0280    9.6460   29.8790 N   0  0  0  0  0  0  0  0  0  0  0  0
   23.9980   10.5030   29.3060 C   0  0  0  0  0  0  0  0  0  0  0  0
   24.0720   11.8880   29.8510 C   0  0  0  0  0  0  0  0  0  0  0  0
   22.8020   12.4270   30.2570 N   0  0  0  0  0  0  0  0  0  0  0  0
   21.6490   11.5770   30.0620 C   0  0  0  0  0  0  0  0  0  0  0  0
   22.0310   10.2540   30.6930 C   0  0  0  0  0  0  0  0  0  0  0  0
   22.6220   13.7050   30.8190 C   0  0  0  0  0  0  0  0  0  0  0  0
   22.3740   13.8200   32.0400 O   0  0  0  0  0  0  0  0  0  0  0  0
   22.7220   14.9010   29.9890 C   0  0  0  0  0  0  0  0  0  0  0  0
   23.3780   14.9960   28.8360 N   0  0  0  0  0  0  0  0  0  0  0  0
   23.2670   16.2290   28.3390 N   0  0  0  0  0  0  0  0  0  0  0  0
   22.5190   16.9850   29.1760 C   0  0  0  0  0  0  0  0  0  0  0  0
   22.1720   16.1330   30.2310 C   0  0  0  0  0  0  0  0  0  0  0  0
   22.2460   18.2880   28.9160 N   0  0  0  0  0  0  0  0  0  0  0  0
   22.7350   18.8600   27.7780 C   0  0  0  0  0  0  0  0  0  0  0  0
   23.4990   18.1160   26.9050 C   0  0  0  0  0  0  0  0  0  0  0  0
   23.7500   16.7980   27.2140 C   0  0  0  0  0  0  0  0  0  0  0  0
   24.1880   18.9240   25.3010 B   0  0  0  0  0  0  0  0  0  0  0  0
   24.9300    7.4900   29.8140 C   0  0  0  0  0  0  0  0  0  0  0  0
   24.7560    6.4820   28.8940 C   0  0  0  0  0  0  0  0  0  0  0  0
   25.9390    6.1150   28.4000 N   0  0  0  0  0  0  0  0  0  0  0  0
   26.8750    6.8510   28.9680 N   0  0  0  0  0  0  0  0  0  0  0  0
   26.3060    7.7140   29.8470 C   0  0  0  0  0  0  0  0  0  0  0  0
   26.1970    5.0970   27.4160 C   0  0  0  0  0  0  0  0  0  0  0  0
   25.0000   10.0330   29.3910 H   0  0  0  0  0  0  0  0  0  0  0  0
   23.7890   10.5790   28.2140 H   0  0  0  0  0  0  0  0  0  0  0  0
   24.7680   11.9510   30.7390 H   0  0  0  0  0  0  0  0  0  0  0  0
   24.4980   12.5950   29.1060 H   0  0  0  0  0  0  0  0  0  0  0  0
   20.7380   11.9790   30.5430 H   0  0  0  0  0  0  0  0  0  0  0  0
   21.5300   11.4510   28.9630 H   0  0  0  0  0  0  0  0  0  0  0  0
   21.1380    9.5930   30.7020 H   0  0  0  0  0  0  0  0  0  0  0  0
   22.3490   10.4350   31.7310 H   0  0  0  0  0  0  0  0  0  0  0  0
   21.5790   16.3960   31.0810 H   0  0  0  0  0  0  0  0  0  0  0  0
   22.5420   19.8940   27.5290 H   0  0  0  0  0  0  0  0  0  0  0  0
   24.3510   16.1980   26.5380 H   0  0  0  0  0  0  0  0  0  0  0  0
   23.8190    6.0160   28.5790 H   0  0  0  0  0  0  0  0  0  0  0  0
   26.8090    8.4460   30.4660 H   0  0  0  0  0  0  0  0  0  0  0  0
   26.6630    4.2300   27.9280 H   0  0  0  0  0  0  0  0  0  0  0  0
   26.9450    5.4590   26.6830 H   0  0  0  0  0  0  0  0  0  0  0  0
   25.2650    4.7680   26.9150 H   0  0  0  0  0  0  0  0  0  0  0  0
  1  2  2  0  0  0  0
  1  3  2  0  0  0  0
  4  9  1  0  0  0  0
  4  1  1  0  0  0  0
  5 28  1  0  0  0  0
  5  6  1  0  0  0  0
  5  4  1  0  0  0  0
  6  7  1  0  0  0  0
  6 30  1  0  0  0  0
  7 10  1  0  0  0  0
  8  7  1  0  0  0  0
  8 32  1  0  0  0  0
  8  9  1  0  0  0  0
  9 34  1  0  0  0  0
  9 35  1  0  0  0  0
 10 11  2  0  0  0  0
 12 16  1  0  0  0  0
 12 10  1  0  0  0  0
 13 12  2  0  0  0  0
 14 13  1  0  0  0  0
 14 15  1  0  0  0  0
 15 16  2  0  0  0  0
 16 36  1  0  0  0  0
 17 15  1  0  0  0  0
 18 17  2  0  0  0  0
 19 20  2  0  0  0  0
 19 18  1  0  0  0  0
 20 14  1  0  0  0  0
 21 19  1  0  0  0  0
 22 26  1  0  0  0  0
 22  1  1  0  0  0  0
 23 22  2  0  0  0  0
 24 23  1  0  0  0  0
 24 25  1  0  0  0  0
 25 26  2  0  0  0  0
 26 40  1  0  0  0  0
 27 41  1  0  0  0  0
 27 24  1  0  0  0  0
 29  5  1  0  0  0  0
 31  6  1  0  0  0  0
 33  8  1  0  0  0  0
 37 18  1  0  0  0  0
 38 20  1  0  0  0  0
 39 23  1  0  0  0  0
 42 27  1  0  0  0  0
 43 27  1  0  0  0  0
M  END
>  <Pose>
1

>  <Score>
-7.35

$$$$
