
 OpenBabel03202209553D

 52 55  0  0  0  0  0  0  0  0999 V2000
   26.8590   10.9780   28.9420 S   0  0  0  0  0  0  0  0  0  0  0  0
   28.0080   11.6990   29.5960 O   0  0  0  0  0  0  0  0  0  0  0  0
   26.7320   11.5540   27.5510 O   0  0  0  0  0  0  0  0  0  0  0  0
   25.3760   11.2680   29.7470 N   0  0  0  0  0  0  0  0  0  0  0  0
   24.9630   12.6360   29.7320 C   0  0  0  0  0  0  0  0  0  0  0  0
   23.8290   12.7430   30.7660 C   0  0  0  0  0  0  0  0  0  0  0  0
   23.1000   11.5540   30.8590 N   0  0  0  0  0  0  0  0  0  0  0  0
   22.9980   10.7740   29.6560 C   0  0  0  0  0  0  0  0  0  0  0  0
   24.3380   10.5420   28.9940 C   0  0  0  0  0  0  0  0  0  0  0  0
   23.0410   10.8280   32.0580 C   0  0  0  0  0  0  0  0  0  0  0  0
   21.8220   10.1680   32.3970 N   0  0  0  0  0  0  0  0  0  0  0  0
   21.7060    8.7570   32.3120 N   0  0  0  0  0  0  0  0  0  0  0  0
   20.3790    8.4540   32.7320 C   0  0  0  0  0  0  0  0  0  0  0  0
   19.9020    7.2160   32.7840 C   0  0  0  0  0  0  0  0  0  0  0  0
   18.6010    6.6250   33.1710 C   0  0  0  0  0  0  0  0  0  0  0  0
   17.4760    7.6080   32.9550 C   0  0  0  0  0  0  0  0  0  0  0  0
   17.6210    8.6590   34.0410 C   0  0  0  0  0  0  0  0  0  0  0  0
   18.3370    9.8770   33.5440 C   0  0  0  0  0  0  0  0  0  0  0  0
   19.6670    9.6330   33.0760 N   0  0  0  0  0  0  0  0  0  0  0  0
   20.5880   10.6970   32.8580 C   0  0  0  0  0  0  0  0  0  0  0  0
   20.3080   11.9060   33.0570 O   0  0  0  0  0  0  0  0  0  0  0  0
   27.2560    9.3100   28.7910 C   0  0  0  0  0  0  0  0  0  0  0  0
   26.4560    8.2590   29.1310 C   0  0  0  0  0  0  0  0  0  0  0  0
   26.8750    6.9460   28.9680 C   0  0  0  0  0  0  0  0  0  0  0  0
   28.1050    6.6500   28.4600 C   0  0  0  0  0  0  0  0  0  0  0  0
   28.9400    7.6980   28.1050 C   0  0  0  0  0  0  0  0  0  0  0  0
   28.5150    8.9920   28.2720 C   0  0  0  0  0  0  0  0  0  0  0  0
   25.7310    5.4810   29.4550 B   0  0  0  0  0  0  0  0  0  0  0  0
   25.7650   13.3620   29.9360 H   0  0  0  0  0  0  0  0  0  0  0  0
   24.5020   12.9160   28.7460 H   0  0  0  0  0  0  0  0  0  0  0  0
   24.3360   12.9790   31.7150 H   0  0  0  0  0  0  0  0  0  0  0  0
   23.1960   13.6340   30.5310 H   0  0  0  0  0  0  0  0  0  0  0  0
   22.5970    9.7780   29.9330 H   0  0  0  0  0  0  0  0  0  0  0  0
   22.2580   11.2480   28.9890 H   0  0  0  0  0  0  0  0  0  0  0  0
   24.2970   11.0340   28.0000 H   0  0  0  0  0  0  0  0  0  0  0  0
   24.5870    9.4940   28.8460 H   0  0  0  0  0  0  0  0  0  0  0  0
   23.3800   11.4890   32.8930 H   0  0  0  0  0  0  0  0  0  0  0  0
   23.8470   10.0350   32.0120 H   0  0  0  0  0  0  0  0  0  0  0  0
   22.4420    8.0790   32.0030 H   0  0  0  0  0  0  0  0  0  0  0  0
   20.6600    6.4830   32.4640 H   0  0  0  0  0  0  0  0  0  0  0  0
   18.6240    6.2340   34.2090 H   0  0  0  0  0  0  0  0  0  0  0  0
   18.4240    5.7620   32.4670 H   0  0  0  0  0  0  0  0  0  0  0  0
   16.5030    7.0930   33.0010 H   0  0  0  0  0  0  0  0  0  0  0  0
   17.6610    8.1190   31.9870 H   0  0  0  0  0  0  0  0  0  0  0  0
   16.5990    8.9170   34.3780 H   0  0  0  0  0  0  0  0  0  0  0  0
   18.1650    8.2490   34.9100 H   0  0  0  0  0  0  0  0  0  0  0  0
   17.7290   10.2940   32.7060 H   0  0  0  0  0  0  0  0  0  0  0  0
   18.3340   10.6320   34.3640 H   0  0  0  0  0  0  0  0  0  0  0  0
   25.4790    8.4810   29.5350 H   0  0  0  0  0  0  0  0  0  0  0  0
   28.4280    5.6170   28.3350 H   0  0  0  0  0  0  0  0  0  0  0  0
   29.9170    7.4750   27.7020 H   0  0  0  0  0  0  0  0  0  0  0  0
   29.1950    9.7870   27.9830 H   0  0  0  0  0  0  0  0  0  0  0  0
  1  2  2  0  0  0  0
  1  4  1  0  0  0  0
  3  1  2  0  0  0  0
  5  4  1  0  0  0  0
  5 29  1  0  0  0  0
  5  6  1  0  0  0  0
  6  7  1  0  0  0  0
  6 31  1  0  0  0  0
  7 10  1  0  0  0  0
  8 33  1  0  0  0  0
  8  7  1  0  0  0  0
  9  8  1  0  0  0  0
  9  4  1  0  0  0  0
 10 11  1  0  0  0  0
 10 37  1  0  0  0  0
 11 20  1  0  0  0  0
 12 11  1  0  0  0  0
 12 13  1  0  0  0  0
 13 14  2  0  0  0  0
 13 19  1  0  0  0  0
 14 15  1  0  0  0  0
 15 41  1  0  0  0  0
 16 43  1  0  0  0  0
 16 15  1  0  0  0  0
 16 17  1  0  0  0  0
 17 45  1  0  0  0  0
 17 46  1  0  0  0  0
 18 17  1  0  0  0  0
 18 48  1  0  0  0  0
 19 18  1  0  0  0  0
 20 21  2  0  0  0  0
 20 19  1  0  0  0  0
 22  1  1  0  0  0  0
 22 23  1  0  0  0  0
 23 49  1  0  0  0  0
 24 23  2  0  0  0  0
 24 28  1  0  0  0  0
 25 24  1  0  0  0  0
 26 27  1  0  0  0  0
 26 25  2  0  0  0  0
 27 22  2  0  0  0  0
 30  5  1  0  0  0  0
 32  6  1  0  0  0  0
 34  8  1  0  0  0  0
 35  9  1  0  0  0  0
 36  9  1  0  0  0  0
 38 10  1  0  0  0  0
 39 12  1  0  0  0  0
 40 14  1  0  0  0  0
 42 15  1  0  0  0  0
 44 16  1  0  0  0  0
 47 18  1  0  0  0  0
 50 25  1  0  0  0  0
 51 26  1  0  0  0  0
 52 27  1  0  0  0  0
M  END
>  <Pose>
1

>  <Score>
-6.63

$$$$
