
 OpenBabel03202209553D

 44 47  0  0  0  0  0  0  0  0999 V2000
   24.8910   10.2700   30.7460 S   0  0  0  0  0  0  0  0  0  0  0  0
   25.3090   10.4120   32.1550 O   0  0  0  0  0  0  0  0  0  0  0  0
   25.5900   11.3850   29.9760 O   0  0  0  0  0  0  0  0  0  0  0  0
   23.2190   10.4250   30.4730 N   0  0  0  0  0  0  0  0  0  0  0  0
   22.3850   10.4760   31.6130 C   0  0  0  0  0  0  0  0  0  0  0  0
   21.5010    9.3000   31.8590 C   0  0  0  0  0  0  0  0  0  0  0  0
   21.6230    8.2440   30.8850 N   0  0  0  0  0  0  0  0  0  0  0  0
   21.8800    8.5760   29.5210 C   0  0  0  0  0  0  0  0  0  0  0  0
   22.7330    9.7790   29.3140 C   0  0  0  0  0  0  0  0  0  0  0  0
   21.4650    6.8960   31.3500 C   0  0  0  0  0  0  0  0  0  0  0  0
   20.5130    6.4610   32.1920 N   0  0  0  0  0  0  0  0  0  0  0  0
   20.7580    5.1560   32.3580 N   0  0  0  0  0  0  0  0  0  0  0  0
   21.8110    4.8070   31.6520 N   0  0  0  0  0  0  0  0  0  0  0  0
   22.2780    5.8590   31.0120 N   0  0  0  0  0  0  0  0  0  0  0  0
   19.4650    7.2280   32.7680 C   0  0  0  0  0  0  0  0  0  0  0  0
   18.1860    6.7310   32.8700 C   0  0  0  0  0  0  0  0  0  0  0  0
   17.1800    7.5090   33.4410 C   0  0  0  0  0  0  0  0  0  0  0  0
   17.4360    8.7780   33.9110 C   0  0  0  0  0  0  0  0  0  0  0  0
   18.7380    9.2850   33.8070 C   0  0  0  0  0  0  0  0  0  0  0  0
   19.7320    8.4920   33.2320 C   0  0  0  0  0  0  0  0  0  0  0  0
   25.4610    8.7630   30.0850 C   0  0  0  0  0  0  0  0  0  0  0  0
   24.7630    7.5870   30.1940 C   0  0  0  0  0  0  0  0  0  0  0  0
   25.2300    6.3880   29.6580 C   0  0  0  0  0  0  0  0  0  0  0  0
   26.4570    6.4000   28.9860 C   0  0  0  0  0  0  0  0  0  0  0  0
   27.1670    7.5750   28.8710 C   0  0  0  0  0  0  0  0  0  0  0  0
   26.6740    8.7290   29.4100 C   0  0  0  0  0  0  0  0  0  0  0  0
   27.1580    4.7910   28.2230 B   0  0  0  0  0  0  0  0  0  0  0  0
   23.0370   10.7190   32.4920 H   0  0  0  0  0  0  0  0  0  0  0  0
   21.7310   11.3920   31.4880 H   0  0  0  0  0  0  0  0  0  0  0  0
   21.7380    8.9330   32.8960 H   0  0  0  0  0  0  0  0  0  0  0  0
   20.4410    9.6450   31.9430 H   0  0  0  0  0  0  0  0  0  0  0  0
   22.3770    7.7110   28.9920 H   0  0  0  0  0  0  0  0  0  0  0  0
   20.8700    8.6950   29.0300 H   0  0  0  0  0  0  0  0  0  0  0  0
   22.1270   10.5300   28.7270 H   0  0  0  0  0  0  0  0  0  0  0  0
   23.5980    9.5560   28.6240 H   0  0  0  0  0  0  0  0  0  0  0  0
   17.9110    5.7300   32.5170 H   0  0  0  0  0  0  0  0  0  0  0  0
   16.1520    7.1430   33.5390 H   0  0  0  0  0  0  0  0  0  0  0  0
   16.6830    9.4040   34.3580 H   0  0  0  0  0  0  0  0  0  0  0  0
   18.9320   10.2760   34.1760 H   0  0  0  0  0  0  0  0  0  0  0  0
   20.7200    8.9510   33.1840 H   0  0  0  0  0  0  0  0  0  0  0  0
   23.7980    7.5650   30.7200 H   0  0  0  0  0  0  0  0  0  0  0  0
   24.7030    5.4580   29.7320 H   0  0  0  0  0  0  0  0  0  0  0  0
   28.1220    7.5260   28.3350 H   0  0  0  0  0  0  0  0  0  0  0  0
   27.2720    9.6500   29.2980 H   0  0  0  0  0  0  0  0  0  0  0  0
  1  2  2  0  0  0  0
  3  1  2  0  0  0  0
  4  1  1  0  0  0  0
  4  5  1  0  0  0  0
  5  6  1  0  0  0  0
  5 28  1  0  0  0  0
  6 31  1  0  0  0  0
  6 30  1  0  0  0  0
  7 10  1  0  0  0  0
  7  6  1  0  0  0  0
  8  7  1  0  0  0  0
  9  8  1  0  0  0  0
  9  4  1  0  0  0  0
 10 11  1  0  0  0  0
 11 12  1  0  0  0  0
 11 15  1  0  0  0  0
 13 12  2  0  0  0  0
 14 10  2  0  0  0  0
 14 13  1  0  0  0  0
 15 16  2  0  0  0  0
 15 20  1  0  0  0  0
 16 17  1  0  0  0  0
 17 37  1  0  0  0  0
 17 18  2  0  0  0  0
 18 38  1  0  0  0  0
 19 18  1  0  0  0  0
 19 39  1  0  0  0  0
 20 19  2  0  0  0  0
 21 22  1  0  0  0  0
 21  1  1  0  0  0  0
 22 41  1  0  0  0  0
 23 42  1  0  0  0  0
 23 22  2  0  0  0  0
 24 23  1  0  0  0  0
 25 24  2  0  0  0  0
 25 26  1  0  0  0  0
 26 21  2  0  0  0  0
 27 24  1  0  0  0  0
 29  5  1  0  0  0  0
 32  8  1  0  0  0  0
 33  8  1  0  0  0  0
 34  9  1  0  0  0  0
 35  9  1  0  0  0  0
 36 16  1  0  0  0  0
 40 20  1  0  0  0  0
 43 25  1  0  0  0  0
 44 26  1  0  0  0  0
M  END
>  <Pose>
1

>  <Score>
-6.57

$$$$
