
 OpenBabel03202209553D

 53 56  0  0  0  0  0  0  0  0999 V2000
   22.0790   13.9640   31.2150 S   0  0  0  0  0  0  0  0  0  0  0  0
   20.5820   13.7060   31.1540 O   0  0  0  0  0  0  0  0  0  0  0  0
   22.3880   14.5800   32.5490 O   0  0  0  0  0  0  0  0  0  0  0  0
   22.8830   12.4370   31.0970 N   0  0  0  0  0  0  0  0  0  0  0  0
   22.0070   11.4350   31.6040 C   0  0  0  0  0  0  0  0  0  0  0  0
   22.7310   10.2740   32.2510 C   0  0  0  0  0  0  0  0  0  0  0  0
   24.0300   10.1850   31.6500 N   0  0  0  0  0  0  0  0  0  0  0  0
   24.9360   11.2850   31.8080 C   0  0  0  0  0  0  0  0  0  0  0  0
   24.1280   12.5580   31.8170 C   0  0  0  0  0  0  0  0  0  0  0  0
   24.3960    9.0390   30.9250 C   0  0  0  0  0  0  0  0  0  0  0  0
   25.5120    8.9770   30.1790 N   0  0  0  0  0  0  0  0  0  0  0  0
   25.9090    7.9320   29.4760 C   0  0  0  0  0  0  0  0  0  0  0  0
   25.1130    6.7990   29.5070 C   0  0  0  0  0  0  0  0  0  0  0  0
   23.9590    6.8120   30.2580 C   0  0  0  0  0  0  0  0  0  0  0  0
   23.6300    7.9210   30.9450 N   0  0  0  0  0  0  0  0  0  0  0  0
   23.0770    5.6160   30.3180 C   0  0  0  0  0  0  0  0  0  0  0  0
   27.1090    7.9950   28.7280 N   0  0  0  0  0  0  0  0  0  0  0  0
   27.5700    6.9290   27.8610 C   0  0  0  0  0  0  0  0  0  0  0  0
   28.5050    7.5810   26.8440 C   0  0  0  0  0  0  0  0  0  0  0  0
   27.9070    8.7810   26.4520 O   0  0  0  0  0  0  0  0  0  0  0  0
   27.9900    9.7680   27.4070 C   0  0  0  0  0  0  0  0  0  0  0  0
   27.9300    9.1800   28.8210 C   0  0  0  0  0  0  0  0  0  0  0  0
   22.5140   15.0190   29.9010 C   0  0  0  0  0  0  0  0  0  0  0  0
   22.0920   16.3410   29.9410 C   0  0  0  0  0  0  0  0  0  0  0  0
   22.3980   17.2320   28.9370 C   0  0  0  0  0  0  0  0  0  0  0  0
   23.1400   16.8150   27.8590 C   0  0  0  0  0  0  0  0  0  0  0  0
   23.5790   15.5060   27.7820 C   0  0  0  0  0  0  0  0  0  0  0  0
   23.2530   14.6300   28.8140 C   0  0  0  0  0  0  0  0  0  0  0  0
   23.5560   18.0610   26.4790 B   0  0  0  0  0  0  0  0  0  0  0  0
   21.2260   11.8000   32.2900 H   0  0  0  0  0  0  0  0  0  0  0  0
   21.4500   10.9940   30.7290 H   0  0  0  0  0  0  0  0  0  0  0  0
   22.1590    9.3370   32.2030 H   0  0  0  0  0  0  0  0  0  0  0  0
   22.8160   10.5310   33.3450 H   0  0  0  0  0  0  0  0  0  0  0  0
   25.7100   11.2930   31.0090 H   0  0  0  0  0  0  0  0  0  0  0  0
   25.4970   11.2540   32.7750 H   0  0  0  0  0  0  0  0  0  0  0  0
   24.7310   13.3360   31.3030 H   0  0  0  0  0  0  0  0  0  0  0  0
   23.9350   12.9380   32.8450 H   0  0  0  0  0  0  0  0  0  0  0  0
   25.4270    5.9430   28.9390 H   0  0  0  0  0  0  0  0  0  0  0  0
   23.1450    5.1230   31.3220 H   0  0  0  0  0  0  0  0  0  0  0  0
   22.0300    5.9520   30.2060 H   0  0  0  0  0  0  0  0  0  0  0  0
   23.2840    4.9180   29.4860 H   0  0  0  0  0  0  0  0  0  0  0  0
   28.1350    6.1470   28.4020 H   0  0  0  0  0  0  0  0  0  0  0  0
   26.7170    6.4870   27.2840 H   0  0  0  0  0  0  0  0  0  0  0  0
   28.6460    6.9400   25.9730 H   0  0  0  0  0  0  0  0  0  0  0  0
   29.4820    7.7840   27.3150 H   0  0  0  0  0  0  0  0  0  0  0  0
   27.1050   10.4650   27.3280 H   0  0  0  0  0  0  0  0  0  0  0  0
   28.8950   10.3780   27.2900 H   0  0  0  0  0  0  0  0  0  0  0  0
   28.9640    8.9250   29.1590 H   0  0  0  0  0  0  0  0  0  0  0  0
   27.5070    9.9110   29.5320 H   0  0  0  0  0  0  0  0  0  0  0  0
   21.5060   16.6660   30.7950 H   0  0  0  0  0  0  0  0  0  0  0  0
   22.0670   18.2620   28.9740 H   0  0  0  0  0  0  0  0  0  0  0  0
   24.1660   15.1690   26.9340 H   0  0  0  0  0  0  0  0  0  0  0  0
   23.5910   13.5960   28.7670 H   0  0  0  0  0  0  0  0  0  0  0  0
  1  3  2  0  0  0  0
  2  1  2  0  0  0  0
  4  1  1  0  0  0  0
  4  5  1  0  0  0  0
  4  9  1  0  0  0  0
  5  6  1  0  0  0  0
  5 30  1  0  0  0  0
  6 33  1  0  0  0  0
  7  8  1  0  0  0  0
  7  6  1  0  0  0  0
  8  9  1  0  0  0  0
  8 35  1  0  0  0  0
  9 37  1  0  0  0  0
 10 15  1  0  0  0  0
 10  7  1  0  0  0  0
 11 10  2  0  0  0  0
 12 13  2  0  0  0  0
 12 11  1  0  0  0  0
 13 14  1  0  0  0  0
 14 16  1  0  0  0  0
 14 15  2  0  0  0  0
 16 39  1  0  0  0  0
 17 22  1  0  0  0  0
 17 12  1  0  0  0  0
 18 42  1  0  0  0  0
 18 17  1  0  0  0  0
 19 45  1  0  0  0  0
 19 18  1  0  0  0  0
 20 19  1  0  0  0  0
 20 21  1  0  0  0  0
 21 22  1  0  0  0  0
 22 48  1  0  0  0  0
 22 49  1  0  0  0  0
 23 24  1  0  0  0  0
 23  1  1  0  0  0  0
 24 50  1  0  0  0  0
 25 51  1  0  0  0  0
 25 24  2  0  0  0  0
 26 25  1  0  0  0  0
 27 26  2  0  0  0  0
 27 28  1  0  0  0  0
 28 23  2  0  0  0  0
 29 26  1  0  0  0  0
 31  5  1  0  0  0  0
 32  6  1  0  0  0  0
 34  8  1  0  0  0  0
 36  9  1  0  0  0  0
 38 13  1  0  0  0  0
 40 16  1  0  0  0  0
 41 16  1  0  0  0  0
 43 18  1  0  0  0  0
 44 19  1  0  0  0  0
 46 21  1  0  0  0  0
 47 21  1  0  0  0  0
 52 27  1  0  0  0  0
 53 28  1  0  0  0  0
M  END
>  <Pose>
1

>  <Score>
-6.44

$$$$
