
 OpenBabel03202209553D

 43 46  0  0  0  0  0  0  0  0999 V2000
   24.1710   10.7130   29.0720 S   0  0  0  0  0  0  0  0  0  0  0  0
   23.0970    9.9990   28.2610 O   0  0  0  0  0  0  0  0  0  0  0  0
   25.4070   10.7030   28.2230 O   0  0  0  0  0  0  0  0  0  0  0  0
   24.4100    9.8160   30.4980 N   0  0  0  0  0  0  0  0  0  0  0  0
   24.0540   10.4710   31.7000 C   0  0  0  0  0  0  0  0  0  0  0  0
   22.6920   10.1850   32.2260 C   0  0  0  0  0  0  0  0  0  0  0  0
   22.3560    8.7570   32.1030 N   0  0  0  0  0  0  0  0  0  0  0  0
   23.4630    7.9100   31.7130 C   0  0  0  0  0  0  0  0  0  0  0  0
   23.9750    8.4510   30.3920 C   0  0  0  0  0  0  0  0  0  0  0  0
   21.0440    8.2960   32.3550 C   0  0  0  0  0  0  0  0  0  0  0  0
   20.1310    9.1650   32.9400 C   0  0  0  0  0  0  0  0  0  0  0  0
   18.8410    8.6990   33.1840 C   0  0  0  0  0  0  0  0  0  0  0  0
   18.4770    7.4630   32.8720 N   0  0  0  0  0  0  0  0  0  0  0  0
   17.1890    7.3190   33.2250 C   0  0  0  0  0  0  0  0  0  0  0  0
   16.7840    8.4890   33.7570 N   0  0  0  0  0  0  0  0  0  0  0  0
   17.7950    9.3400   33.7340 N   0  0  0  0  0  0  0  0  0  0  0  0
   16.3510    6.0880   33.0630 C   0  0  0  0  0  0  0  0  0  0  0  0
   19.3220    6.6370   32.3220 N   0  0  0  0  0  0  0  0  0  0  0  0
   20.5930    7.0400   32.0630 C   0  0  0  0  0  0  0  0  0  0  0  0
   23.5800   12.3270   29.3580 C   0  0  0  0  0  0  0  0  0  0  0  0
   24.1790   13.4380   28.7810 C   0  0  0  0  0  0  0  0  0  0  0  0
   23.7110   14.7130   29.0080 C   0  0  0  0  0  0  0  0  0  0  0  0
   22.6130   14.8810   29.8370 C   0  0  0  0  0  0  0  0  0  0  0  0
   21.9820   13.8080   30.4340 C   0  0  0  0  0  0  0  0  0  0  0  0
   22.4810   12.5510   30.1810 C   0  0  0  0  0  0  0  0  0  0  0  0
   21.9750   16.6620   30.1430 B   0  0  0  0  0  0  0  0  0  0  0  0
   24.8120   10.1930   32.4900 H   0  0  0  0  0  0  0  0  0  0  0  0
   24.1750   11.5620   31.5640 H   0  0  0  0  0  0  0  0  0  0  0  0
   22.6750   10.4050   33.3170 H   0  0  0  0  0  0  0  0  0  0  0  0
   21.9210   10.8190   31.7570 H   0  0  0  0  0  0  0  0  0  0  0  0
   23.2140    6.8620   31.5650 H   0  0  0  0  0  0  0  0  0  0  0  0
   24.3080    8.0470   32.4500 H   0  0  0  0  0  0  0  0  0  0  0  0
   24.7810    7.8180   29.9690 H   0  0  0  0  0  0  0  0  0  0  0  0
   23.1280    8.4140   29.6770 H   0  0  0  0  0  0  0  0  0  0  0  0
   20.3760   10.1800   33.2150 H   0  0  0  0  0  0  0  0  0  0  0  0
   17.0090    5.1930   32.9510 H   0  0  0  0  0  0  0  0  0  0  0  0
   15.7450    5.9360   33.9580 H   0  0  0  0  0  0  0  0  0  0  0  0
   15.6990    6.1630   32.1710 H   0  0  0  0  0  0  0  0  0  0  0  0
   21.2370    6.3280   31.6150 H   0  0  0  0  0  0  0  0  0  0  0  0
   25.0400   13.2600   28.1370 H   0  0  0  0  0  0  0  0  0  0  0  0
   24.2230   15.5280   28.5290 H   0  0  0  0  0  0  0  0  0  0  0  0
   21.1300   14.0060   31.0700 H   0  0  0  0  0  0  0  0  0  0  0  0
   22.0000   11.7170   30.6400 H   0  0  0  0  0  0  0  0  0  0  0  0
  1 20  1  0  0  0  0
  1  4  1  0  0  0  0
  2  1  2  0  0  0  0
  3  1  2  0  0  0  0
  4  5  1  0  0  0  0
  5  6  1  0  0  0  0
  5 27  1  0  0  0  0
  6 29  1  0  0  0  0
  7  6  1  0  0  0  0
  7 10  1  0  0  0  0
  8  7  1  0  0  0  0
  8 32  1  0  0  0  0
  9  4  1  0  0  0  0
  9  8  1  0  0  0  0
 10 11  2  0  0  0  0
 11 12  1  0  0  0  0
 11 35  1  0  0  0  0
 12 16  2  0  0  0  0
 13 12  1  0  0  0  0
 13 14  1  0  0  0  0
 14 15  2  0  0  0  0
 16 15  1  0  0  0  0
 17 14  1  0  0  0  0
 17 37  1  0  0  0  0
 18 13  1  0  0  0  0
 19 18  2  0  0  0  0
 19 10  1  0  0  0  0
 20 25  1  0  0  0  0
 21 22  1  0  0  0  0
 21 20  2  0  0  0  0
 22 23  2  0  0  0  0
 23 26  1  0  0  0  0
 23 24  1  0  0  0  0
 24 42  1  0  0  0  0
 25 24  2  0  0  0  0
 25 43  1  0  0  0  0
 28  5  1  0  0  0  0
 30  6  1  0  0  0  0
 31  8  1  0  0  0  0
 33  9  1  0  0  0  0
 34  9  1  0  0  0  0
 36 17  1  0  0  0  0
 38 17  1  0  0  0  0
 39 19  1  0  0  0  0
 40 21  1  0  0  0  0
 41 22  1  0  0  0  0
M  END
>  <Pose>
1

>  <Score>
-6.76

$$$$
