
 OpenBabel03202209553D

 51 54  0  0  0  0  0  0  0  0999 V2000
   24.1400    1.7960   33.4860 S   0  0  0  0  0  0  0  0  0  0  0  0
   23.7840    2.4530   34.7760 O   0  0  0  0  0  0  0  0  0  0  0  0
   22.9440    0.9690   33.0590 O   0  0  0  0  0  0  0  0  0  0  0  0
   25.4620    0.7290   33.6650 N   0  0  0  0  0  0  0  0  0  0  0  0
   25.2050   -0.3440   34.5890 C   0  0  0  0  0  0  0  0  0  0  0  0
   26.5710   -0.8980   35.0040 C   0  0  0  0  0  0  0  0  0  0  0  0
   27.1990   -0.0330   35.8750 O   0  0  0  0  0  0  0  0  0  0  0  0
   26.7080    1.2670   35.6590 C   0  0  0  0  0  0  0  0  0  0  0  0
   26.6200    1.4550   34.1520 C   0  0  0  0  0  0  0  0  0  0  0  0
   24.4020    2.9770   32.2120 C   0  0  0  0  0  0  0  0  0  0  0  0
   23.5210    3.9860   31.9480 C   0  0  0  0  0  0  0  0  0  0  0  0
   23.7540    4.9080   30.9310 C   0  0  0  0  0  0  0  0  0  0  0  0
   24.8730    4.8410   30.1560 C   0  0  0  0  0  0  0  0  0  0  0  0
   25.7710    3.8210   30.4180 C   0  0  0  0  0  0  0  0  0  0  0  0
   25.5380    2.9060   31.4270 C   0  0  0  0  0  0  0  0  0  0  0  0
   25.1980    5.7840   29.0580 C   0  0  0  0  0  0  0  0  0  0  0  0
   25.8160    6.9600   29.5310 O   0  0  0  0  0  0  0  0  0  0  0  0
   25.2270    8.2000   29.5660 C   0  0  0  0  0  0  0  0  0  0  0  0
   23.9830    8.2850   29.5700 O   0  0  0  0  0  0  0  0  0  0  0  0
   26.0360    9.4160   29.5980 C   0  0  0  0  0  0  0  0  0  0  0  0
   25.2660   10.6200   29.7070 N   0  0  0  0  0  0  0  0  0  0  0  0
   24.7840   11.1290   30.9570 C   0  0  0  0  0  0  0  0  0  0  0  0
   24.9690   10.6020   32.0910 O   0  0  0  0  0  0  0  0  0  0  0  0
   24.0410   12.3600   30.7160 C   0  0  0  0  0  0  0  0  0  0  0  0
   24.0500   12.6210   29.3700 C   0  0  0  0  0  0  0  0  0  0  0  0
   23.4120   13.7390   28.8680 C   0  0  0  0  0  0  0  0  0  0  0  0
   22.7520   14.6170   29.7060 C   0  0  0  0  0  0  0  0  0  0  0  0
   22.7340   14.3670   31.0620 C   0  0  0  0  0  0  0  0  0  0  0  0
   23.3790   13.2430   31.5370 C   0  0  0  0  0  0  0  0  0  0  0  0
   21.8360   15.5490   32.2580 B   0  0  0  0  0  0  0  0  0  0  0  0
   24.8140   11.5380   28.7260 C   0  0  0  0  0  0  0  0  0  0  0  0
   25.0470   11.4190   27.5030 O   0  0  0  0  0  0  0  0  0  0  0  0
   24.6880   -1.1470   34.0240 H   0  0  0  0  0  0  0  0  0  0  0  0
   24.5910   -0.0700   35.4460 H   0  0  0  0  0  0  0  0  0  0  0  0
   27.1520   -1.0540   34.0630 H   0  0  0  0  0  0  0  0  0  0  0  0
   26.4840   -1.8900   35.4800 H   0  0  0  0  0  0  0  0  0  0  0  0
   25.7590    1.4390   36.1680 H   0  0  0  0  0  0  0  0  0  0  0  0
   27.4540    1.9490   36.1110 H   0  0  0  0  0  0  0  0  0  0  0  0
   26.4910    2.5080   33.8640 H   0  0  0  0  0  0  0  0  0  0  0  0
   27.5730    1.0550   33.7400 H   0  0  0  0  0  0  0  0  0  0  0  0
   22.6230    4.0520   32.5580 H   0  0  0  0  0  0  0  0  0  0  0  0
   23.0320    5.6880   30.7530 H   0  0  0  0  0  0  0  0  0  0  0  0
   26.6650    3.7500   29.8140 H   0  0  0  0  0  0  0  0  0  0  0  0
   26.2630    2.1130   31.6110 H   0  0  0  0  0  0  0  0  0  0  0  0
   25.8870    5.3130   28.3270 H   0  0  0  0  0  0  0  0  0  0  0  0
   24.2400    6.0330   28.5300 H   0  0  0  0  0  0  0  0  0  0  0  0
   26.7810    9.3940   30.4480 H   0  0  0  0  0  0  0  0  0  0  0  0
   26.6800    9.5280   28.6760 H   0  0  0  0  0  0  0  0  0  0  0  0
   23.4370   13.9180   27.7970 H   0  0  0  0  0  0  0  0  0  0  0  0
   22.2460   15.5050   29.2940 H   0  0  0  0  0  0  0  0  0  0  0  0
   23.3830   13.0170   32.6030 H   0  0  0  0  0  0  0  0  0  0  0  0
  1  4  1  0  0  0  0
  1  2  2  0  0  0  0
  3  1  2  0  0  0  0
  4  9  1  0  0  0  0
  4  5  1  0  0  0  0
  5  6  1  0  0  0  0
  5 34  1  0  0  0  0
  6 36  1  0  0  0  0
  6  7  1  0  0  0  0
  8  7  1  0  0  0  0
  8 38  1  0  0  0  0
  8 37  1  0  0  0  0
  9  8  1  0  0  0  0
 10  1  1  0  0  0  0
 11 10  1  0  0  0  0
 11 41  1  0  0  0  0
 12 11  2  0  0  0  0
 13 14  2  0  0  0  0
 13 12  1  0  0  0  0
 14 15  1  0  0  0  0
 15 44  1  0  0  0  0
 15 10  2  0  0  0  0
 16 17  1  0  0  0  0
 16 13  1  0  0  0  0
 17 18  1  0  0  0  0
 18 19  2  0  0  0  0
 18 20  1  0  0  0  0
 20 21  1  0  0  0  0
 20 47  1  0  0  0  0
 21 22  1  0  0  0  0
 22 23  2  0  0  0  0
 24 22  1  0  0  0  0
 24 29  1  0  0  0  0
 25 24  2  0  0  0  0
 26 25  1  0  0  0  0
 26 27  2  0  0  0  0
 27 28  1  0  0  0  0
 28 29  2  0  0  0  0
 28 30  1  0  0  0  0
 29 51  1  0  0  0  0
 31 25  1  0  0  0  0
 31 21  1  0  0  0  0
 32 31  2  0  0  0  0
 33  5  1  0  0  0  0
 35  6  1  0  0  0  0
 39  9  1  0  0  0  0
 40  9  1  0  0  0  0
 42 12  1  0  0  0  0
 43 14  1  0  0  0  0
 45 16  1  0  0  0  0
 46 16  1  0  0  0  0
 48 20  1  0  0  0  0
 49 26  1  0  0  0  0
 50 27  1  0  0  0  0
M  END
>  <Pose>
1

>  <Score>
-6.20

$$$$
