
 OpenBabel03202209553D

 46 49  0  0  0  0  0  0  0  0999 V2000
   21.9610    5.2870   31.1550 S   0  0  0  0  0  0  0  0  0  0  0  0
   21.8800    4.3390   32.3450 O   0  0  0  0  0  0  0  0  0  0  0  0
   20.9000    4.7970   30.1890 O   0  0  0  0  0  0  0  0  0  0  0  0
   23.4930    5.1680   30.4890 N   0  0  0  0  0  0  0  0  0  0  0  0
   23.9470    6.2050   29.6600 C   0  0  0  0  0  0  0  0  0  0  0  0
   25.3580    6.5870   29.9960 C   0  0  0  0  0  0  0  0  0  0  0  0
   26.1390    5.4500   29.8800 O   0  0  0  0  0  0  0  0  0  0  0  0
   25.8370    4.4950   30.8430 C   0  0  0  0  0  0  0  0  0  0  0  0
   24.3910    4.2260   31.0030 C   0  0  0  0  0  0  0  0  0  0  0  0
   21.5370    6.8860   31.7190 C   0  0  0  0  0  0  0  0  0  0  0  0
   20.4390    7.2600   32.3970 N   0  0  0  0  0  0  0  0  0  0  0  0
   20.5050    8.5940   32.6390 C   0  0  0  0  0  0  0  0  0  0  0  0
   21.6450    9.0820   32.1190 N   0  0  0  0  0  0  0  0  0  0  0  0
   22.2780    8.0620   31.5600 C   0  0  0  0  0  0  0  0  0  0  0  0
   22.0550   10.4700   32.1830 C   0  0  0  0  0  0  0  0  0  0  0  0
   23.3470   10.6900   31.4910 C   0  0  0  0  0  0  0  0  0  0  0  0
   24.5730   10.4750   32.0360 N   0  0  0  0  0  0  0  0  0  0  0  0
   25.4690   10.7710   31.1450 O   0  0  0  0  0  0  0  0  0  0  0  0
   24.9170   11.1750   30.0290 C   0  0  0  0  0  0  0  0  0  0  0  0
   23.5790   11.1230   30.2500 N   0  0  0  0  0  0  0  0  0  0  0  0
   25.5880   11.6080   28.7650 C   0  0  0  0  0  0  0  0  0  0  0  0
   25.1240   12.9960   28.4860 C   0  0  0  0  0  0  0  0  0  0  0  0
   23.9040   13.3990   29.0040 C   0  0  0  0  0  0  0  0  0  0  0  0
   23.3990   14.6560   28.7980 C   0  0  0  0  0  0  0  0  0  0  0  0
   24.1370   15.5360   28.0530 C   0  0  0  0  0  0  0  0  0  0  0  0
   25.3410   15.1880   27.5230 C   0  0  0  0  0  0  0  0  0  0  0  0
   25.8290   13.9040   27.7480 C   0  0  0  0  0  0  0  0  0  0  0  0
   23.4680   17.2950   27.7450 B   0  0  0  0  0  0  0  0  0  0  0  0
   23.2430    7.0630   29.7160 H   0  0  0  0  0  0  0  0  0  0  0  0
   23.9660    5.8310   28.5950 H   0  0  0  0  0  0  0  0  0  0  0  0
   25.7720    7.3330   29.2830 H   0  0  0  0  0  0  0  0  0  0  0  0
   25.3880    6.9310   31.0440 H   0  0  0  0  0  0  0  0  0  0  0  0
   26.3990    3.5710   30.5530 H   0  0  0  0  0  0  0  0  0  0  0  0
   26.2740    4.8020   31.8210 H   0  0  0  0  0  0  0  0  0  0  0  0
   24.1520    4.0480   32.0940 H   0  0  0  0  0  0  0  0  0  0  0  0
   24.1720    3.2250   30.5260 H   0  0  0  0  0  0  0  0  0  0  0  0
   19.7450    9.1610   33.1720 H   0  0  0  0  0  0  0  0  0  0  0  0
   23.2290    8.0840   31.0460 H   0  0  0  0  0  0  0  0  0  0  0  0
   22.1580   10.8060   33.2350 H   0  0  0  0  0  0  0  0  0  0  0  0
   21.2680   11.1080   31.7320 H   0  0  0  0  0  0  0  0  0  0  0  0
   25.2500   10.9230   27.9670 H   0  0  0  0  0  0  0  0  0  0  0  0
   26.6920   11.5700   28.8790 H   0  0  0  0  0  0  0  0  0  0  0  0
   23.3360   12.6800   29.5940 H   0  0  0  0  0  0  0  0  0  0  0  0
   22.4360   14.9760   29.2060 H   0  0  0  0  0  0  0  0  0  0  0  0
   25.9350   15.8820   26.9300 H   0  0  0  0  0  0  0  0  0  0  0  0
   26.7860   13.6150   27.3320 H   0  0  0  0  0  0  0  0  0  0  0  0
  1 10  1  0  0  0  0
  1  2  2  0  0  0  0
  3  1  2  0  0  0  0
  4  9  1  0  0  0  0
  4  1  1  0  0  0  0
  5 29  1  0  0  0  0
  5  6  1  0  0  0  0
  5  4  1  0  0  0  0
  6 32  1  0  0  0  0
  7  6  1  0  0  0  0
  7  8  1  0  0  0  0
  8  9  1  0  0  0  0
  8 34  1  0  0  0  0
  9 35  1  0  0  0  0
 10 11  1  0  0  0  0
 11 12  2  0  0  0  0
 12 37  1  0  0  0  0
 13 15  1  0  0  0  0
 13 12  1  0  0  0  0
 14 10  2  0  0  0  0
 14 13  1  0  0  0  0
 15 39  1  0  0  0  0
 16 17  2  0  0  0  0
 16 15  1  0  0  0  0
 18 17  1  0  0  0  0
 19 20  2  0  0  0  0
 19 18  1  0  0  0  0
 20 16  1  0  0  0  0
 21 42  1  0  0  0  0
 21 19  1  0  0  0  0
 22 21  1  0  0  0  0
 22 23  1  0  0  0  0
 23 43  1  0  0  0  0
 24 23  2  0  0  0  0
 24 44  1  0  0  0  0
 25 24  1  0  0  0  0
 26 27  1  0  0  0  0
 26 25  2  0  0  0  0
 27 22  2  0  0  0  0
 28 25  1  0  0  0  0
 30  5  1  0  0  0  0
 31  6  1  0  0  0  0
 33  8  1  0  0  0  0
 36  9  1  0  0  0  0
 38 14  1  0  0  0  0
 40 15  1  0  0  0  0
 41 21  1  0  0  0  0
 45 26  1  0  0  0  0
 46 27  1  0  0  0  0
M  END
>  <Pose>
1

>  <Score>
-6.74

$$$$
