
 OpenBabel03202209553D

 37 40  0  0  0  0  0  0  0  0999 V2000
   22.9960   12.4040   29.6820 S   0  0  0  0  0  0  0  0  0  0  0  0
   23.2140   13.3460   31.2150 C   0  0  0  0  0  0  0  0  0  0  0  0
   22.3530   14.5620   31.1480 C   0  0  0  0  0  0  0  0  0  0  0  0
   22.0060   15.1760   32.2070 O   0  0  0  0  0  0  0  0  0  0  0  0
   21.8920   15.0750   29.9180 N   0  0  0  0  0  0  0  0  0  0  0  0
   22.4870   16.2130   29.3210 C   0  0  0  0  0  0  0  0  0  0  0  0
   22.2030   17.5070   29.5410 N   0  0  0  0  0  0  0  0  0  0  0  0
   22.9620   18.2710   28.8040 O   0  0  0  0  0  0  0  0  0  0  0  0
   23.7310   17.5030   28.1100 N   0  0  0  0  0  0  0  0  0  0  0  0
   23.5010   16.2100   28.3700 C   0  0  0  0  0  0  0  0  0  0  0  0
   24.1610   15.1060   27.7880 N   0  0  0  0  0  0  0  0  0  0  0  0
   23.3050   10.6640   30.0450 C   0  0  0  0  0  0  0  0  0  0  0  0
   22.4330    9.9370   30.7650 N   0  0  0  0  0  0  0  0  0  0  0  0
   22.6080    8.6590   31.0620 N   0  0  0  0  0  0  0  0  0  0  0  0
   23.7060    7.9950   30.6430 C   0  0  0  0  0  0  0  0  0  0  0  0
   24.6160    8.7200   29.9010 C   0  0  0  0  0  0  0  0  0  0  0  0
   25.6100    7.8600   29.6030 N   0  0  0  0  0  0  0  0  0  0  0  0
   25.3690    6.6430   30.1170 C   0  0  0  0  0  0  0  0  0  0  0  0
   24.1640    6.6950   30.7840 C   0  0  0  0  0  0  0  0  0  0  0  0
   23.6200    5.5990   31.4350 C   0  0  0  0  0  0  0  0  0  0  0  0
   24.3440    4.4210   31.3890 C   0  0  0  0  0  0  0  0  0  0  0  0
   25.5520    4.3410   30.7270 C   0  0  0  0  0  0  0  0  0  0  0  0
   26.0740    5.4410   30.0890 C   0  0  0  0  0  0  0  0  0  0  0  0
   23.5930    2.9080   32.2860 B   0  0  0  0  0  0  0  0  0  0  0  0
   26.7740    8.2370   28.8240 C   0  0  0  0  0  0  0  0  0  0  0  0
   24.4110   10.0390   29.6080 N   0  0  0  0  0  0  0  0  0  0  0  0
   23.0190   12.7390   32.1100 H   0  0  0  0  0  0  0  0  0  0  0  0
   24.2730   13.7350   31.1900 H   0  0  0  0  0  0  0  0  0  0  0  0
   21.0960   14.5940   29.4470 H   0  0  0  0  0  0  0  0  0  0  0  0
   24.8820   14.5990   28.3350 H   0  0  0  0  0  0  0  0  0  0  0  0
   23.9560   14.7720   26.8250 H   0  0  0  0  0  0  0  0  0  0  0  0
   22.6660    5.6730   31.9550 H   0  0  0  0  0  0  0  0  0  0  0  0
   26.1090    3.4030   30.7010 H   0  0  0  0  0  0  0  0  0  0  0  0
   27.0210    5.4140   29.5600 H   0  0  0  0  0  0  0  0  0  0  0  0
   26.4960    8.9360   28.0280 H   0  0  0  0  0  0  0  0  0  0  0  0
   27.5930    8.6080   29.4740 H   0  0  0  0  0  0  0  0  0  0  0  0
   27.1570    7.3130   28.3360 H   0  0  0  0  0  0  0  0  0  0  0  0
  1 12  1  0  0  0  0
  1  2  1  0  0  0  0
  2 27  1  0  0  0  0
  3  2  1  0  0  0  0
  3  4  2  0  0  0  0
  5  3  1  0  0  0  0
  6  7  2  0  0  0  0
  6  5  1  0  0  0  0
  8  7  1  0  0  0  0
  9 10  2  0  0  0  0
  9  8  1  0  0  0  0
 10  6  1  0  0  0  0
 11 30  1  0  0  0  0
 11 10  1  0  0  0  0
 12 13  2  0  0  0  0
 13 14  1  0  0  0  0
 15 19  1  0  0  0  0
 15 14  1  0  0  0  0
 16 15  2  0  0  0  0
 17 16  1  0  0  0  0
 17 18  1  0  0  0  0
 18 19  1  0  0  0  0
 19 20  2  0  0  0  0
 20 32  1  0  0  0  0
 21 20  1  0  0  0  0
 21 24  1  0  0  0  0
 22 21  2  0  0  0  0
 23 18  2  0  0  0  0
 23 22  1  0  0  0  0
 25 36  1  0  0  0  0
 25 17  1  0  0  0  0
 26 16  1  0  0  0  0
 26 12  1  0  0  0  0
 28  2  1  0  0  0  0
 29  5  1  0  0  0  0
 31 11  1  0  0  0  0
 33 22  1  0  0  0  0
 34 23  1  0  0  0  0
 35 25  1  0  0  0  0
 37 25  1  0  0  0  0
M  END
>  <Pose>
1

>  <Score>
-8.13

$$$$
