
 OpenBabel03202209553D

 47 50  0  0  1  0  0  0  0  0999 V2000
   24.7540    8.0280   30.2950 S   0  0  0  0  0  0  0  0  0  0  0  0
   24.7790    6.7950   28.9210 C   0  0  0  0  0  0  0  0  0  0  0  0
   25.3030    5.5050   29.4230 C   0  0  0  0  0  0  0  0  0  0  0  0
   26.1410    4.6800   28.7130 C   0  0  0  0  0  0  0  0  0  0  0  0
   26.4870    3.4500   29.1520 C   0  0  0  0  0  0  0  0  0  0  0  0
   26.0160    2.9500   30.3610 C   0  0  0  0  0  0  0  0  0  0  0  0
   25.1550    3.7640   31.1100 C   0  0  0  0  0  0  0  0  0  0  0  0
   24.8070    5.0190   30.6480 C   0  0  0  0  0  0  0  0  0  0  0  0
   26.9000    5.4330   27.1270 B   0  0  0  0  0  0  0  0  0  0  0  0
   23.1870    7.9540   31.1740 C   0  0  0  0  0  0  0  0  0  0  0  0
   22.4890    8.9980   31.6220 N   0  0  0  0  0  0  0  0  0  0  0  0
   21.3340    8.5030   32.1400 C   0  0  0  0  0  0  0  0  0  0  0  0
   20.2000    8.9870   32.6690 N   0  0  0  0  0  0  0  0  0  0  0  0
   19.1440    8.2640   33.0560 C   0  0  0  0  0  0  0  0  0  0  0  0
   19.2190    6.8850   32.9120 N   0  0  0  0  0  0  0  0  0  0  0  0
   20.2870    6.3220   32.4040 C   0  0  0  0  0  0  0  0  0  0  0  0
   21.3630    7.0880   32.0030 C   0  0  0  0  0  0  0  0  0  0  0  0
   22.5150    6.8170   31.4030 N   0  0  0  0  0  0  0  0  0  0  0  0
   20.4160    4.9650   32.2480 O   0  0  0  0  0  0  0  0  0  0  0  0
   17.9190    8.8040   33.5750 N   0  0  0  0  0  0  0  0  0  0  0  0
   22.8080   10.3890   31.6500 C   0  0  2  0  0  0  0  0  0  0  0  0
   22.0470   11.1710   30.7530 O   0  0  0  0  0  0  0  0  0  0  0  0
   22.7240   12.4030   30.9040 C   0  0  1  0  0  0  0  0  0  0  0  0
   24.1320   11.9190   30.4690 C   0  0  2  0  0  0  0  0  0  0  0  0
   24.2450   10.7520   31.4590 C   0  0  1  0  0  0  0  0  0  0  0  0
   24.8050   11.2850   32.6490 O   0  0  0  0  0  0  0  0  0  0  0  0
   25.0960   12.8730   30.6530 O   0  0  0  0  0  0  0  0  0  0  0  0
   22.1900   13.4550   30.0080 C   0  0  0  0  0  0  0  0  0  0  0  0
   21.0320   13.0110   29.3580 O   0  0  0  0  0  0  0  0  0  0  0  0
   25.3340    7.1850   28.1110 H   0  0  0  0  0  0  0  0  0  0  0  0
   23.6550    6.6690   28.6710 H   0  0  0  0  0  0  0  0  0  0  0  0
   27.1460    2.8420   28.5590 H   0  0  0  0  0  0  0  0  0  0  0  0
   26.3220    1.9800   30.7150 H   0  0  0  0  0  0  0  0  0  0  0  0
   24.7470    3.4170   32.0620 H   0  0  0  0  0  0  0  0  0  0  0  0
   24.1280    5.6080   31.2020 H   0  0  0  0  0  0  0  0  0  0  0  0
   20.2150    4.2920   32.9790 H   0  0  0  0  0  0  0  0  0  0  0  0
   17.0430    8.9300   33.0720 H   0  0  0  0  0  0  0  0  0  0  0  0
   17.9390    9.1500   34.5970 H   0  0  0  0  0  0  0  0  0  0  0  0
   22.5040   10.8030   32.6530 H   0  0  0  0  0  0  0  0  0  0  0  0
   22.7880   12.6850   31.9560 H   0  0  0  0  0  0  0  0  0  0  0  0
   24.1050   11.5530   29.4270 H   0  0  0  0  0  0  0  0  0  0  0  0
   24.9180    9.9930   31.1360 H   0  0  0  0  0  0  0  0  0  0  0  0
   25.7740   11.1820   32.5240 H   0  0  0  0  0  0  0  0  0  0  0  0
   25.9830   12.5140   30.4100 H   0  0  0  0  0  0  0  0  0  0  0  0
   22.9370   13.5530   29.1580 H   0  0  0  0  0  0  0  0  0  0  0  0
   22.1120   14.4310   30.4650 H   0  0  0  0  0  0  0  0  0  0  0  0
   21.1520   13.2070   28.3780 H   0  0  0  0  0  0  0  0  0  0  0  0
  1 10  1  0  0  0  0
  2  3  1  0  0  0  0
  2  1  1  0  0  0  0
  3  8  1  0  0  0  0
  4  5  1  0  0  0  0
  4  3  2  0  0  0  0
  5  6  2  0  0  0  0
  6 33  1  0  0  0  0
  6  7  1  0  0  0  0
  7 34  1  0  0  0  0
  8  7  2  0  0  0  0
  8 35  1  0  0  0  0
  9  4  1  0  0  0  0
 10 18  2  0  0  0  0
 10 11  1  0  0  0  0
 11 21  1  0  0  0  0
 11 12  1  0  0  0  0
 12 13  1  0  0  0  0
 13 14  2  0  0  0  0
 14 20  1  0  0  0  0
 15 14  1  0  0  0  0
 16 15  2  0  0  0  0
 17 12  2  0  0  0  0
 17 16  1  0  0  0  0
 18 17  1  0  0  0  0
 19 16  1  0  0  0  0
 19 36  1  0  0  0  0
 20 38  1  0  0  0  0
 21 39  1  1  0  0  0
 22 23  1  0  0  0  0
 22 21  1  0  0  0  0
 23 40  1  1  0  0  0
 24 41  1  6  0  0  0
 24 27  1  0  0  0  0
 24 23  1  0  0  0  0
 24 25  1  0  0  0  0
 25 42  1  6  0  0  0
 25 21  1  0  0  0  0
 25 26  1  0  0  0  0
 28 46  1  0  0  0  0
 28 23  1  0  0  0  0
 29 28  1  0  0  0  0
 30  2  1  0  0  0  0
 31  2  1  0  0  0  0
 32  5  1  0  0  0  0
 37 20  1  0  0  0  0
 43 26  1  0  0  0  0
 44 27  1  0  0  0  0
 45 28  1  0  0  0  0
 47 29  1  0  0  0  0
M  END
>  <Pose>
1

>  <Score>
-8.67

$$$$
