
 OpenBabel03202209553D

 52 56  0  0  1  0  0  0  0  0999 V2000
   24.7280    3.7010   31.7790 S   0  0  0  0  0  0  0  0  0  0  0  0
   25.3750    3.7170   30.1140 C   0  0  0  0  0  0  0  0  0  0  0  0
   25.9620    2.7020   29.5930 N   0  0  0  0  0  0  0  0  0  0  0  0
   26.4990    2.6420   28.2810 C   0  0  0  0  0  0  0  0  0  0  0  0
   26.5420    1.6180   27.5940 O   0  0  0  0  0  0  0  0  0  0  0  0
   27.0380    3.9940   27.7650 C   0  0  1  0  0  0  0  0  0  0  0  0
   25.8210    4.8430   27.9460 C   0  0  0  0  0  0  0  0  0  0  0  0
   25.2550    5.5000   27.0700 O   0  0  0  0  0  0  0  0  0  0  0  0
   25.2820    4.8800   29.2590 N   0  0  0  0  0  0  0  0  0  0  0  0
   24.6600    6.0460   29.7120 C   0  0  0  0  0  0  0  0  0  0  0  0
   23.3490    5.9360   30.1930 C   0  0  0  0  0  0  0  0  0  0  0  0
   22.6700    7.0410   30.6580 C   0  0  0  0  0  0  0  0  0  0  0  0
   23.3000    8.2820   30.6460 C   0  0  0  0  0  0  0  0  0  0  0  0
   24.6120    8.3830   30.1630 C   0  0  0  0  0  0  0  0  0  0  0  0
   25.2730    7.2690   29.7040 C   0  0  0  0  0  0  0  0  0  0  0  0
   22.4060    9.8210   31.2730 B   0  0  0  0  0  0  0  0  0  0  0  0
   28.1540    4.3100   28.6460 C   0  0  1  0  0  0  0  0  0  0  0  0
   29.0570    3.1850   28.8530 N   0  0  0  0  0  4  0  0  0  0  0  0
   29.7700    3.3420   30.1090 C   0  0  0  0  0  0  0  0  0  0  0  0
   29.6630    4.7190   30.7100 C   0  0  0  0  0  0  0  0  0  0  0  0
   29.8120    5.7260   29.5990 C   0  0  0  0  0  0  0  0  0  0  0  0
   28.9990    5.4780   28.4670 C   0  0  0  0  0  0  0  0  0  0  0  0
   29.0750    6.3180   27.3910 C   0  0  0  0  0  0  0  0  0  0  0  0
   29.9590    7.3920   27.4670 C   0  0  0  0  0  0  0  0  0  0  0  0
   30.7370    7.6130   28.5780 C   0  0  0  0  0  0  0  0  0  0  0  0
   30.6730    6.7720   29.6730 C   0  0  0  0  0  0  0  0  0  0  0  0
   31.5010    8.7410   28.3570 O   0  0  0  0  0  0  0  0  0  0  0  0
   31.4240    9.0780   26.9940 C   0  0  0  0  0  0  0  0  0  0  0  0
   30.2500    8.3850   26.5710 O   0  0  0  0  0  0  0  0  0  0  0  0
   28.3060    6.1180   26.2530 O   0  0  0  0  0  0  0  0  0  0  0  0
   28.9630    5.9870   24.9970 C   0  0  0  0  0  0  0  0  0  0  0  0
   30.0090    2.9840   27.8150 C   0  0  0  0  0  0  0  0  0  0  0  0
   27.1990    3.8130   26.7140 H   0  0  0  0  0  0  0  0  0  0  0  0
   22.8350    4.9780   30.2130 H   0  0  0  0  0  0  0  0  0  0  0  0
   21.6630    6.9330   31.0230 H   0  0  0  0  0  0  0  0  0  0  0  0
   25.1380    9.3230   30.1350 H   0  0  0  0  0  0  0  0  0  0  0  0
   26.2710    7.3440   29.3360 H   0  0  0  0  0  0  0  0  0  0  0  0
   27.6930    4.4240   29.6910 H   0  0  0  0  0  0  0  0  0  0  0  0
   28.4600    2.3360   28.9370 H   0  0  0  0  0  0  0  0  0  0  0  0
   30.8470    3.1120   29.9810 H   0  0  0  0  0  0  0  0  0  0  0  0
   29.3980    2.6230   30.8870 H   0  0  0  0  0  0  0  0  0  0  0  0
   28.7700    4.8910   31.3190 H   0  0  0  0  0  0  0  0  0  0  0  0
   30.5650    4.8560   31.3650 H   0  0  0  0  0  0  0  0  0  0  0  0
   31.2840    6.9330   30.5620 H   0  0  0  0  0  0  0  0  0  0  0  0
   31.3090   10.1720   26.8480 H   0  0  0  0  0  0  0  0  0  0  0  0
   32.3200    8.6720   26.4820 H   0  0  0  0  0  0  0  0  0  0  0  0
   28.9410    6.9940   24.5030 H   0  0  0  0  0  0  0  0  0  0  0  0
   28.5160    5.2330   24.3480 H   0  0  0  0  0  0  0  0  0  0  0  0
   30.0220    5.7450   25.1580 H   0  0  0  0  0  0  0  0  0  0  0  0
   30.7590    2.2540   28.1850 H   0  0  0  0  0  0  0  0  0  0  0  0
   29.5960    2.5580   26.8840 H   0  0  0  0  0  0  0  0  0  0  0  0
   30.6010    3.9210   27.6100 H   0  0  0  0  0  0  0  0  0  0  0  0
  2  1  2  0  0  0  0
  3  2  1  0  0  0  0
  4  3  1  0  0  0  0
  5  4  2  0  0  0  0
  6 33  1  6  0  0  0
  6  7  1  0  0  0  0
  6  4  1  0  0  0  0
  6 17  1  0  0  0  0
  7  9  1  0  0  0  0
  8  7  2  0  0  0  0
  9 10  1  0  0  0  0
  9  2  1  0  0  0  0
 10 11  1  0  0  0  0
 11 34  1  0  0  0  0
 11 12  2  0  0  0  0
 12 35  1  0  0  0  0
 13 12  1  0  0  0  0
 13 16  1  0  0  0  0
 14 13  2  0  0  0  0
 15 10  2  0  0  0  0
 15 14  1  0  0  0  0
 17 18  1  0  0  0  0
 17 38  1  1  0  0  0
 18 39  1  0  0  0  0
 18 19  1  0  0  0  0
 19 20  1  0  0  0  0
 19 41  1  0  0  0  0
 20 42  1  0  0  0  0
 20 43  1  0  0  0  0
 21 26  1  0  0  0  0
 21 20  1  0  0  0  0
 22 17  1  0  0  0  0
 22 21  2  0  0  0  0
 23 24  2  0  0  0  0
 23 22  1  0  0  0  0
 24 25  1  0  0  0  0
 25 26  2  0  0  0  0
 26 44  1  0  0  0  0
 27 25  1  0  0  0  0
 28 27  1  0  0  0  0
 29 28  1  0  0  0  0
 29 24  1  0  0  0  0
 30 23  1  0  0  0  0
 31 49  1  0  0  0  0
 31 30  1  0  0  0  0
 32 50  1  0  0  0  0
 32 18  1  0  0  0  0
 36 14  1  0  0  0  0
 37 15  1  0  0  0  0
 40 19  1  0  0  0  0
 45 28  1  0  0  0  0
 46 28  1  0  0  0  0
 47 31  1  0  0  0  0
 48 31  1  0  0  0  0
 51 32  1  0  0  0  0
 52 32  1  0  0  0  0
M  END
>  <Pose>
1

>  <Score>
-5.34

$$$$
