
 OpenBabel03202209553D

 36 39  0  0  1  0  0  0  0  0999 V2000
   24.5230   10.2400   31.9830 S   0  0  0  0  0  0  0  0  0  0  0  0
   24.0410    9.4930   30.5280 C   0  0  0  0  0  0  0  0  0  0  0  0
   23.8640   10.5590   29.6840 C   0  0  0  0  0  0  0  0  0  0  0  0
   24.0930   11.7800   30.1720 C   0  0  0  0  0  0  0  0  0  0  0  0
   24.4860   11.8690   31.4830 C   0  0  0  0  0  0  0  0  0  0  0  0
   23.8980   13.4090   29.1370 B   0  0  0  0  0  0  0  0  0  0  0  0
   23.8520    8.0570   30.2230 C   0  0  0  0  0  0  0  0  0  0  0  0
   24.5500    7.6020   29.2830 O   0  0  0  0  0  0  0  0  0  0  0  0
   22.9390    7.2670   30.9570 N   0  0  0  0  0  0  0  0  0  0  0  0
   22.3190    6.0780   30.3900 C   0  0  2  0  0  0  0  0  0  0  0  0
   20.8160    6.1900   30.3620 C   0  0  0  0  0  0  0  0  0  0  0  0
   20.4850    6.0580   31.7730 N   0  0  0  0  0  0  0  0  0  0  0  0
   21.2600    4.9340   32.2410 C   0  0  0  0  0  0  0  0  0  0  0  0
   22.5130    4.9550   31.3860 C   0  0  0  0  0  0  0  0  0  0  0  0
   19.5710    6.9000   32.4930 C   0  0  0  0  0  0  0  0  0  0  0  0
   18.4150    6.4130   32.9820 N   0  0  0  0  0  0  0  0  0  0  0  0
   17.5790    7.2260   33.6510 C   0  0  0  0  0  0  0  0  0  0  0  0
   17.8610    8.5520   33.8580 C   0  0  0  0  0  0  0  0  0  0  0  0
   19.0110    9.0540   33.3770 N   0  0  0  0  0  0  0  0  0  0  0  0
   19.8420    8.2300   32.7070 C   0  0  0  0  0  0  0  0  0  0  0  0
   20.8860    9.0040   32.3550 N   0  0  0  0  0  0  0  0  0  0  0  0
   20.7220   10.2460   32.7800 N   0  0  0  0  0  0  0  0  0  0  0  0
   19.5460   10.2970   33.4260 C   0  0  0  0  0  0  0  0  0  0  0  0
   23.5410   10.3600   28.6390 H   0  0  0  0  0  0  0  0  0  0  0  0
   24.7280   12.7500   32.0930 H   0  0  0  0  0  0  0  0  0  0  0  0
   22.7150    7.5600   31.9340 H   0  0  0  0  0  0  0  0  0  0  0  0
   22.6890    5.8500   29.3920 H   0  0  0  0  0  0  0  0  0  0  0  0
   20.4430    7.1120   29.9170 H   0  0  0  0  0  0  0  0  0  0  0  0
   20.4350    5.2900   29.8410 H   0  0  0  0  0  0  0  0  0  0  0  0
   21.4870    4.9400   33.3100 H   0  0  0  0  0  0  0  0  0  0  0  0
   20.6920    4.0190   31.9720 H   0  0  0  0  0  0  0  0  0  0  0  0
   23.3750    5.1440   32.0650 H   0  0  0  0  0  0  0  0  0  0  0  0
   22.6360    4.0010   30.8300 H   0  0  0  0  0  0  0  0  0  0  0  0
   16.6440    6.8170   34.0440 H   0  0  0  0  0  0  0  0  0  0  0  0
   17.1900    9.2110   34.3980 H   0  0  0  0  0  0  0  0  0  0  0  0
   19.0960   11.1460   33.8970 H   0  0  0  0  0  0  0  0  0  0  0  0
  2  1  1  0  0  0  0
  3  4  1  0  0  0  0
  3  2  2  0  0  0  0
  4  5  2  0  0  0  0
  5  1  1  0  0  0  0
  5 25  1  0  0  0  0
  6  4  1  0  0  0  0
  7  2  1  0  0  0  0
  7  9  1  0  0  0  0
  8  7  2  0  0  0  0
  9 26  1  0  0  0  0
 10 27  1  6  0  0  0
 10  9  1  0  0  0  0
 10 14  1  0  0  0  0
 11 10  1  0  0  0  0
 11 12  1  0  0  0  0
 12 13  1  0  0  0  0
 12 15  1  0  0  0  0
 13 30  1  0  0  0  0
 14 32  1  0  0  0  0
 14 13  1  0  0  0  0
 15 20  1  0  0  0  0
 15 16  2  0  0  0  0
 16 17  1  0  0  0  0
 17 18  2  0  0  0  0
 17 34  1  0  0  0  0
 18 35  1  0  0  0  0
 19 23  1  0  0  0  0
 19 18  1  0  0  0  0
 20 19  1  0  0  0  0
 21 20  2  0  0  0  0
 21 22  1  0  0  0  0
 22 23  2  0  0  0  0
 23 36  1  0  0  0  0
 24  3  1  0  0  0  0
 28 11  1  0  0  0  0
 29 11  1  0  0  0  0
 31 13  1  0  0  0  0
 33 14  1  0  0  0  0
M  END
>  <Pose>
1

>  <Score>
-7.33

$$$$
