
 OpenBabel03202209553D

 39 42  0  0  1  0  0  0  0  0999 V2000
   21.4740   13.3470   29.1220 S   0  0  0  0  0  0  0  0  0  0  0  0
   22.7040   12.2330   29.5660 C   0  0  0  0  0  0  0  0  0  0  0  0
   23.2430   12.8160   30.6810 C   0  0  0  0  0  0  0  0  0  0  0  0
   22.7180   13.9830   31.0860 C   0  0  0  0  0  0  0  0  0  0  0  0
   21.6840   14.4990   30.3520 C   0  0  0  0  0  0  0  0  0  0  0  0
   21.1100   15.8040   30.8220 C   0  0  0  0  0  0  0  0  0  0  0  0
   20.7300   15.6470   32.2240 N   0  0  0  0  0  4  0  0  0  0  0  0
   21.7950   15.1690   33.0500 C   0  0  0  0  0  0  0  0  0  0  0  0
   23.0690   14.8830   32.2620 C   0  0  0  0  0  0  0  0  0  0  0  0
   19.6750   14.6330   32.2360 C   0  0  0  0  0  0  0  0  0  0  0  0
   24.3640   12.0490   31.2930 C   0  0  0  0  0  0  0  0  0  0  0  0
   24.9510   12.4780   32.3300 O   0  0  0  0  0  0  0  0  0  0  0  0
   24.7620   10.8270   30.6920 N   0  0  0  0  0  0  0  0  0  0  0  0
   23.9340   10.0350   29.8300 C   0  0  2  0  0  0  0  0  0  0  0  0
   23.1760   10.9770   29.0220 N   0  0  0  0  0  0  0  0  0  0  0  0
   22.9980    9.1610   30.5790 C   0  0  0  0  0  0  0  0  0  0  0  0
   23.0880    7.7850   30.5290 C   0  0  0  0  0  0  0  0  0  0  0  0
   22.2290    6.9580   31.2180 C   0  0  0  0  0  0  0  0  0  0  0  0
   21.2290    7.5040   31.9960 C   0  0  0  0  0  0  0  0  0  0  0  0
   21.1200    8.8730   32.0610 C   0  0  0  0  0  0  0  0  0  0  0  0
   21.9860    9.6960   31.3670 C   0  0  0  0  0  0  0  0  0  0  0  0
   19.7140    9.5890   33.1560 B   0  0  0  0  0  0  0  0  0  0  0  0
   20.3600    6.6770   32.6920 O   0  0  0  0  0  0  0  0  0  0  0  0
   22.3630    5.0690   31.1410 B   0  0  0  0  0  0  0  0  0  0  0  0
   21.7990   16.6420   30.6650 H   0  0  0  0  0  0  0  0  0  0  0  0
   20.1590   15.9980   30.2790 H   0  0  0  0  0  0  0  0  0  0  0  0
   20.2850   16.5200   32.5730 H   0  0  0  0  0  0  0  0  0  0  0  0
   21.5430   14.1890   33.5510 H   0  0  0  0  0  0  0  0  0  0  0  0
   22.0610   15.8530   33.8720 H   0  0  0  0  0  0  0  0  0  0  0  0
   23.8230   14.4380   32.9040 H   0  0  0  0  0  0  0  0  0  0  0  0
   23.3760   15.8450   31.8020 H   0  0  0  0  0  0  0  0  0  0  0  0
   19.1420   14.5860   31.2600 H   0  0  0  0  0  0  0  0  0  0  0  0
   20.1560   13.6180   32.3460 H   0  0  0  0  0  0  0  0  0  0  0  0
   19.0020   14.7430   33.0910 H   0  0  0  0  0  0  0  0  0  0  0  0
   25.7450   10.4920   30.9050 H   0  0  0  0  0  0  0  0  0  0  0  0
   24.5630    9.4100   29.1800 H   0  0  0  0  0  0  0  0  0  0  0  0
   22.9400   10.7900   28.0260 H   0  0  0  0  0  0  0  0  0  0  0  0
   23.8660    7.3460   29.9240 H   0  0  0  0  0  0  0  0  0  0  0  0
   21.8900   10.7630   31.4270 H   0  0  0  0  0  0  0  0  0  0  0  0
  1  2  1  0  0  0  0
  1  5  1  0  0  0  0
  2  3  2  0  0  0  0
  3  4  1  0  0  0  0
  3 11  1  0  0  0  0
  4  9  1  0  0  0  0
  5  6  1  0  0  0  0
  5  4  2  0  0  0  0
  6  7  1  0  0  0  0
  7 10  1  0  0  0  0
  7 27  1  0  0  0  0
  7  8  1  0  0  0  0
  8 28  1  0  0  0  0
  8 29  1  0  0  0  0
  9 30  1  0  0  0  0
  9  8  1  0  0  0  0
 10 33  1  0  0  0  0
 10 34  1  0  0  0  0
 11 12  2  0  0  0  0
 13 35  1  0  0  0  0
 13 11  1  0  0  0  0
 14 36  1  6  0  0  0
 14 16  1  0  0  0  0
 14 13  1  0  0  0  0
 15  2  1  0  0  0  0
 15 14  1  0  0  0  0
 16 21  1  0  0  0  0
 17 16  2  0  0  0  0
 17 18  1  0  0  0  0
 18 19  2  0  0  0  0
 19 20  1  0  0  0  0
 19 23  1  0  0  0  0
 20 22  1  0  0  0  0
 21 39  1  0  0  0  0
 21 20  2  0  0  0  0
 24 18  1  0  0  0  0
 25  6  1  0  0  0  0
 26  6  1  0  0  0  0
 31  9  1  0  0  0  0
 32 10  1  0  0  0  0
 37 15  1  0  0  0  0
 38 17  1  0  0  0  0
M  END
>  <Pose>
1

>  <Score>
-6.43

$$$$
