
 OpenBabel03202209553D

 42 45  0  0  1  0  0  0  0  0999 V2000
   19.3100    9.2770   33.1270 S   0  0  0  0  0  0  0  0  0  0  0  0
   17.6190    8.6220   33.1970 C   0  0  0  0  0  0  0  0  0  0  0  0
   17.6970    7.1420   32.8700 C   0  0  0  0  0  0  0  0  0  0  0  0
   18.8470    6.5020   33.6190 C   0  0  0  0  0  0  0  0  0  0  0  0
   20.0370    6.7090   32.8110 N   0  0  0  0  0  0  0  0  0  0  0  0
   20.3580    7.9700   32.5130 C   0  0  2  0  0  0  0  0  0  0  0  0
   21.5050    7.9650   31.7470 N   0  0  0  0  0  0  0  0  0  0  0  0
   21.8950    6.7140   31.5700 C   0  0  0  0  0  0  0  0  0  0  0  0
   20.9580    5.9360   32.2470 C   0  0  0  0  0  0  0  0  0  0  0  0
   23.0300    6.1610   30.8480 C   0  0  0  0  0  0  0  0  0  0  0  0
   23.5090    4.8900   31.1950 C   0  0  0  0  0  0  0  0  0  0  0  0
   24.5730    4.3190   30.5530 C   0  0  0  0  0  0  0  0  0  0  0  0
   25.2480    4.9410   29.5270 C   0  0  0  0  0  0  0  0  0  0  0  0
   24.7870    6.1840   29.1810 C   0  0  0  0  0  0  0  0  0  0  0  0
   23.6980    6.7890   29.8260 C   0  0  0  0  0  0  0  0  0  0  0  0
   26.3230    4.3280   28.8990 O   0  0  0  0  0  0  0  0  0  0  0  0
   26.3340    4.1710   27.4920 C   0  0  0  0  0  0  0  0  0  0  0  0
   22.0980    9.1720   31.2720 C   0  0  0  0  0  0  0  0  0  0  0  0
   23.0010    9.8730   32.0520 C   0  0  0  0  0  0  0  0  0  0  0  0
   23.6150   11.0280   31.6090 C   0  0  0  0  0  0  0  0  0  0  0  0
   23.3040   11.4840   30.3430 C   0  0  0  0  0  0  0  0  0  0  0  0
   22.4030   10.7790   29.5740 C   0  0  0  0  0  0  0  0  0  0  0  0
   21.7790    9.6250   29.9950 C   0  0  0  0  0  0  0  0  0  0  0  0
   24.1070   13.0820   29.6410 B   0  0  0  0  0  0  0  0  0  0  0  0
   17.2070    8.7350   34.2160 H   0  0  0  0  0  0  0  0  0  0  0  0
   17.0320    9.1740   32.4400 H   0  0  0  0  0  0  0  0  0  0  0  0
   16.7330    6.6370   33.0890 H   0  0  0  0  0  0  0  0  0  0  0  0
   17.8620    7.0570   31.7720 H   0  0  0  0  0  0  0  0  0  0  0  0
   19.0030    7.1190   34.5510 H   0  0  0  0  0  0  0  0  0  0  0  0
   18.6700    5.4480   33.8490 H   0  0  0  0  0  0  0  0  0  0  0  0
   20.9270    4.8540   32.3390 H   0  0  0  0  0  0  0  0  0  0  0  0
   23.0140    4.3620   31.9940 H   0  0  0  0  0  0  0  0  0  0  0  0
   24.9440    3.3180   30.8320 H   0  0  0  0  0  0  0  0  0  0  0  0
   25.2680    6.7280   28.3860 H   0  0  0  0  0  0  0  0  0  0  0  0
   23.3840    7.7610   29.5110 H   0  0  0  0  0  0  0  0  0  0  0  0
   27.2540    3.7230   27.1220 H   0  0  0  0  0  0  0  0  0  0  0  0
   26.1440    5.1800   27.0190 H   0  0  0  0  0  0  0  0  0  0  0  0
   25.4800    3.5430   27.1970 H   0  0  0  0  0  0  0  0  0  0  0  0
   23.2720    9.5470   33.0530 H   0  0  0  0  0  0  0  0  0  0  0  0
   24.3220   11.5890   32.2010 H   0  0  0  0  0  0  0  0  0  0  0  0
   22.1370   11.1170   28.5630 H   0  0  0  0  0  0  0  0  0  0  0  0
   21.0730    9.0830   29.3780 H   0  0  0  0  0  0  0  0  0  0  0  0
  1  2  1  0  0  0  0
  2 25  1  0  0  0  0
  3 27  1  0  0  0  0
  3  2  1  0  0  0  0
  3  4  1  0  0  0  0
  4 30  1  0  0  0  0
  4 29  1  0  0  0  0
  5  4  1  0  0  0  0
  6  5  1  0  0  0  0
  6  1  1  1  0  0  0
  7  6  1  0  0  0  0
  8  7  1  0  0  0  0
  8  9  2  0  0  0  0
  9 31  1  0  0  0  0
  9  5  1  0  0  0  0
 10 11  1  0  0  0  0
 10  8  1  0  0  0  0
 11 32  1  0  0  0  0
 12 33  1  0  0  0  0
 12 11  2  0  0  0  0
 13 12  1  0  0  0  0
 14 13  2  0  0  0  0
 14 15  1  0  0  0  0
 15 10  2  0  0  0  0
 16 13  1  0  0  0  0
 17 16  1  0  0  0  0
 18  7  1  0  0  0  0
 18 19  1  0  0  0  0
 19 39  1  0  0  0  0
 20 19  2  0  0  0  0
 20 40  1  0  0  0  0
 21 20  1  0  0  0  0
 22 23  1  0  0  0  0
 22 21  2  0  0  0  0
 23 18  2  0  0  0  0
 24 21  1  0  0  0  0
 26  2  1  0  0  0  0
 28  3  1  0  0  0  0
 34 14  1  0  0  0  0
 35 15  1  0  0  0  0
 36 17  1  0  0  0  0
 37 17  1  0  0  0  0
 38 17  1  0  0  0  0
 41 22  1  0  0  0  0
 42 23  1  0  0  0  0
M  END
>  <Pose>
1

>  <Score>
-6.40

$$$$
