
 OpenBabel03202209553D

 45 48  0  0  1  0  0  0  0  0999 V2000
   27.5750    6.6400   25.5240 S   0  0  0  0  0  0  0  0  0  0  0  0
   28.8720    6.1450   24.3240 C   0  0  0  0  0  0  0  0  0  0  0  0
   30.0360    5.6730   25.1990 C   0  0  0  0  0  0  0  0  0  0  0  0
   30.5760    6.8880   25.9460 C   0  0  0  0  0  0  0  0  0  0  0  0
   29.7570    7.0670   27.1190 N   0  0  1  0  0  0  0  0  0  0  0  0
   28.4540    6.9790   27.0440 C   0  0  2  0  0  0  0  0  0  0  0  0
   27.9310    7.1870   28.3830 N   0  0  0  0  0  0  0  0  0  0  0  0
   28.8460    8.1840   28.8950 C   0  0  2  0  0  0  0  0  0  0  0  0
   30.1160    7.3360   28.5150 C   0  0  0  0  0  0  0  0  0  0  0  0
   28.7830    8.4220   30.2310 O   0  0  0  0  0  0  0  0  0  0  0  0
   28.8170    9.3700   28.0310 C   0  0  0  0  0  0  0  0  0  0  0  0
   27.6540    9.8660   27.4680 C   0  0  0  0  0  0  0  0  0  0  0  0
   27.7110   10.9860   26.6240 C   0  0  0  0  0  0  0  0  0  0  0  0
   28.8650   11.6090   26.3310 C   0  0  0  0  0  0  0  0  0  0  0  0
   30.0690   11.1320   26.8900 C   0  0  0  0  0  0  0  0  0  0  0  0
   29.9690   10.0260   27.7160 C   0  0  0  0  0  0  0  0  0  0  0  0
   28.9660   12.7420   25.4820 O   0  0  0  0  0  0  0  0  0  0  0  0
   27.9150   13.0640   24.5950 C   0  0  0  0  0  0  0  0  0  0  0  0
   26.8610    6.5010   28.9930 C   0  0  0  0  0  0  0  0  0  0  0  0
   25.7960    7.2760   29.5150 C   0  0  0  0  0  0  0  0  0  0  0  0
   24.7280    6.6960   30.1780 C   0  0  0  0  0  0  0  0  0  0  0  0
   24.6600    5.3420   30.3570 C   0  0  0  0  0  0  0  0  0  0  0  0
   25.6820    4.5600   29.8610 C   0  0  0  0  0  0  0  0  0  0  0  0
   26.7640    5.1570   29.1850 C   0  0  0  0  0  0  0  0  0  0  0  0
   23.2180    4.4980   31.2820 B   0  0  0  0  0  0  0  0  0  0  0  0
   28.4590    5.2870   23.7640 H   0  0  0  0  0  0  0  0  0  0  0  0
   29.1690    6.9940   23.6950 H   0  0  0  0  0  0  0  0  0  0  0  0
   30.7930    5.1460   24.6170 H   0  0  0  0  0  0  0  0  0  0  0  0
   29.5770    4.9530   25.9370 H   0  0  0  0  0  0  0  0  0  0  0  0
   31.6290    6.6840   26.2430 H   0  0  0  0  0  0  0  0  0  0  0  0
   30.6090    7.7950   25.3300 H   0  0  0  0  0  0  0  0  0  0  0  0
   31.0270    7.8690   28.6630 H   0  0  0  0  0  0  0  0  0  0  0  0
   29.9780    6.3990   29.0940 H   0  0  0  0  0  0  0  0  0  0  0  0
   27.9290    8.0240   30.5850 H   0  0  0  0  0  0  0  0  0  0  0  0
   26.7180    9.3950   27.6750 H   0  0  0  0  0  0  0  0  0  0  0  0
   26.7740   11.3370   26.2080 H   0  0  0  0  0  0  0  0  0  0  0  0
   30.9930   11.6120   26.6630 H   0  0  0  0  0  0  0  0  0  0  0  0
   30.9130    9.6930   28.1310 H   0  0  0  0  0  0  0  0  0  0  0  0
   28.0370   14.1180   24.2930 H   0  0  0  0  0  0  0  0  0  0  0  0
   26.9070   12.9800   25.0450 H   0  0  0  0  0  0  0  0  0  0  0  0
   27.9300   12.4050   23.6790 H   0  0  0  0  0  0  0  0  0  0  0  0
   25.8170    8.3370   29.3950 H   0  0  0  0  0  0  0  0  0  0  0  0
   23.9180    7.3060   30.5750 H   0  0  0  0  0  0  0  0  0  0  0  0
   25.6500    3.4950   29.9980 H   0  0  0  0  0  0  0  0  0  0  0  0
   27.5610    4.5160   28.8100 H   0  0  0  0  0  0  0  0  0  0  0  0
  2  3  1  0  0  0  0
  2  1  1  0  0  0  0
  3 29  1  0  0  0  0
  3  4  1  0  0  0  0
  4 30  1  0  0  0  0
  5  4  1  1  0  0  0
  5  9  1  0  0  0  0
  6  1  1  1  0  0  0
  6  5  1  0  0  0  0
  6  7  1  0  0  0  0
  7  8  1  0  0  0  0
  7 19  1  0  0  0  0
  8 10  1  1  0  0  0
  9 32  1  0  0  0  0
  9  8  1  0  0  0  0
  9 33  1  0  0  0  0
 10 34  1  0  0  0  0
 11  8  1  0  0  0  0
 12 35  1  0  0  0  0
 12 11  2  0  0  0  0
 13 12  1  0  0  0  0
 14 13  2  0  0  0  0
 14 15  1  0  0  0  0
 15 16  2  0  0  0  0
 16 11  1  0  0  0  0
 16 38  1  0  0  0  0
 17 14  1  0  0  0  0
 18 40  1  0  0  0  0
 18 17  1  0  0  0  0
 19 24  2  0  0  0  0
 19 20  1  0  0  0  0
 20 21  2  0  0  0  0
 21 22  1  0  0  0  0
 21 43  1  0  0  0  0
 22 25  1  0  0  0  0
 23 44  1  0  0  0  0
 23 22  2  0  0  0  0
 24 23  1  0  0  0  0
 26  2  1  0  0  0  0
 27  2  1  0  0  0  0
 28  3  1  0  0  0  0
 31  4  1  0  0  0  0
 36 13  1  0  0  0  0
 37 15  1  0  0  0  0
 39 18  1  0  0  0  0
 41 18  1  0  0  0  0
 42 20  1  0  0  0  0
 45 24  1  0  0  0  0
M  END
>  <Pose>
1

>  <Score>
-4.07

$$$$
