
 OpenBabel03202209553D

 49 52  0  0  1  0  0  0  0  0999 V2000
   24.7540    4.4190   31.1110 S   0  0  0  0  0  0  0  0  0  0  0  0
   25.3810    2.7760   30.8660 C   0  0  0  0  0  0  0  0  0  0  0  0
   26.5110    2.8080   29.8570 C   0  0  0  0  0  0  0  0  0  0  0  0
   25.9870    3.3400   28.5350 C   0  0  0  0  0  0  0  0  0  0  0  0
   25.7940    4.7700   28.6210 N   0  0  2  0  0  0  0  0  0  0  0  0
   26.3010    5.8490   27.8370 C   0  0  2  0  0  0  0  0  0  0  0  0
   25.1150    6.7980   27.9140 C   0  0  0  0  0  0  0  0  0  0  0  0
   24.6210    6.5930   29.2570 N   0  0  0  0  0  0  0  0  0  0  0  0
   24.9790    5.4110   29.6180 C   0  0  2  0  0  0  0  0  0  0  0  0
   23.9090    7.5180   30.0650 C   0  0  0  0  0  0  0  0  0  0  0  0
   22.6440    7.1390   30.4950 C   0  0  0  0  0  0  0  0  0  0  0  0
   21.8710    8.0060   31.2730 C   0  0  0  0  0  0  0  0  0  0  0  0
   22.3710    9.2510   31.6140 C   0  0  0  0  0  0  0  0  0  0  0  0
   23.6190    9.6580   31.2070 C   0  0  0  0  0  0  0  0  0  0  0  0
   24.3460    8.7390   30.4260 C   0  0  0  0  0  0  0  0  0  0  0  0
   24.1750   10.8880   31.5140 O   0  0  0  0  0  0  0  0  0  0  0  0
   24.8000   11.7560   30.6130 C   0  0  0  0  0  0  0  0  0  0  0  0
   22.1490    5.9000   30.1510 O   0  0  0  0  0  0  0  0  0  0  0  0
   21.1900    5.1760   30.8860 C   0  0  0  0  0  0  0  0  0  0  0  0
   26.5230    5.4330   26.5280 O   0  0  0  0  0  0  0  0  0  0  0  0
   27.4700    6.5540   28.3970 C   0  0  0  0  0  0  0  0  0  0  0  0
   28.5970    5.9780   28.8920 C   0  0  0  0  0  0  0  0  0  0  0  0
   29.6310    6.7430   29.4350 C   0  0  0  0  0  0  0  0  0  0  0  0
   29.5480    8.1190   29.4910 C   0  0  0  0  0  0  0  0  0  0  0  0
   28.4240    8.7060   28.9980 C   0  0  0  0  0  0  0  0  0  0  0  0
   27.4120    7.9570   28.4670 C   0  0  0  0  0  0  0  0  0  0  0  0
   30.9740    9.1570   30.2450 B   0  0  0  0  0  0  0  0  0  0  0  0
   25.7710    2.3290   31.8190 H   0  0  0  0  0  0  0  0  0  0  0  0
   24.5780    2.1130   30.4340 H   0  0  0  0  0  0  0  0  0  0  0  0
   27.3220    3.4740   30.2320 H   0  0  0  0  0  0  0  0  0  0  0  0
   26.8930    1.7930   29.6700 H   0  0  0  0  0  0  0  0  0  0  0  0
   26.7840    3.1210   27.7750 H   0  0  0  0  0  0  0  0  0  0  0  0
   25.0350    2.8240   28.3120 H   0  0  0  0  0  0  0  0  0  0  0  0
   25.5430    7.7780   27.7050 H   0  0  0  0  0  0  0  0  0  0  0  0
   24.3660    6.4990   27.1580 H   0  0  0  0  0  0  0  0  0  0  0  0
   20.8790    7.6910   31.6040 H   0  0  0  0  0  0  0  0  0  0  0  0
   21.7920    9.9470   32.2150 H   0  0  0  0  0  0  0  0  0  0  0  0
   25.3030    9.0910   30.1280 H   0  0  0  0  0  0  0  0  0  0  0  0
   24.8180   12.8110   31.0310 H   0  0  0  0  0  0  0  0  0  0  0  0
   25.8640   11.3850   30.5480 H   0  0  0  0  0  0  0  0  0  0  0  0
   24.3100   11.8020   29.6200 H   0  0  0  0  0  0  0  0  0  0  0  0
   21.4020    5.2460   31.9580 H   0  0  0  0  0  0  0  0  0  0  0  0
   20.1690    5.6200   30.7590 H   0  0  0  0  0  0  0  0  0  0  0  0
   21.2000    4.0930   30.6060 H   0  0  0  0  0  0  0  0  0  0  0  0
   25.9420    5.9310   25.9090 H   0  0  0  0  0  0  0  0  0  0  0  0
   28.6970    4.9180   28.8650 H   0  0  0  0  0  0  0  0  0  0  0  0
   30.5410    6.2500   29.8300 H   0  0  0  0  0  0  0  0  0  0  0  0
   28.3880    9.7880   29.0550 H   0  0  0  0  0  0  0  0  0  0  0  0
   26.5380    8.4610   28.0900 H   0  0  0  0  0  0  0  0  0  0  0  0
  2  1  1  0  0  0  0
  2 28  1  0  0  0  0
  3 30  1  0  0  0  0
  3  2  1  0  0  0  0
  4  3  1  0  0  0  0
  5  4  1  1  0  0  0
  5  9  1  0  0  0  0
  6 20  1  6  0  0  0
  6  7  1  0  0  0  0
  6 21  1  0  0  0  0
  6  5  1  0  0  0  0
  7  8  1  0  0  0  0
  8  9  1  0  0  0  0
  8 10  1  0  0  0  0
  9  1  1  1  0  0  0
 10 15  2  0  0  0  0
 10 11  1  0  0  0  0
 11 12  2  0  0  0  0
 12 36  1  0  0  0  0
 12 13  1  0  0  0  0
 13 37  1  0  0  0  0
 14 16  1  0  0  0  0
 14 13  2  0  0  0  0
 15 14  1  0  0  0  0
 17 39  1  0  0  0  0
 17 16  1  0  0  0  0
 18 11  1  0  0  0  0
 18 19  1  0  0  0  0
 19 42  1  0  0  0  0
 21 26  2  0  0  0  0
 21 22  1  0  0  0  0
 22 23  2  0  0  0  0
 23 24  1  0  0  0  0
 23 47  1  0  0  0  0
 24 27  1  0  0  0  0
 25 48  1  0  0  0  0
 25 24  2  0  0  0  0
 26 25  1  0  0  0  0
 29  2  1  0  0  0  0
 31  3  1  0  0  0  0
 32  4  1  0  0  0  0
 33  4  1  0  0  0  0
 34  7  1  0  0  0  0
 35  7  1  0  0  0  0
 38 15  1  0  0  0  0
 40 17  1  0  0  0  0
 41 17  1  0  0  0  0
 43 19  1  0  0  0  0
 44 19  1  0  0  0  0
 45 20  1  0  0  0  0
 46 22  1  0  0  0  0
 49 26  1  0  0  0  0
M  END
>  <Pose>
1

>  <Score>
-4.65

$$$$
