
 OpenBabel03202209553D

 43 46  0  0  1  0  0  0  0  0999 V2000
   22.8370    9.0100   29.8730 S   0  0  0  0  0  0  0  0  0  0  0  0
   24.4490    8.1440   29.6740 C   0  0  0  0  0  0  0  0  0  0  0  0
   25.4970    8.8520   30.5150 C   0  0  0  0  0  0  0  0  0  0  0  0
   25.4160   10.3460   30.3390 C   0  0  0  0  0  0  0  0  0  0  0  0
   24.3740   10.8760   31.1590 N   0  0  2  0  0  0  0  0  0  0  0  0
   24.1920   12.0250   32.0280 C   0  0  1  0  0  0  0  0  0  0  0  0
   23.1720   11.5310   33.0380 C   0  0  0  0  0  0  0  0  0  0  0  0
   22.4430   10.5210   32.2460 N   0  0  0  0  0  0  0  0  0  0  0  0
   23.1230   10.1740   31.2270 C   0  0  1  0  0  0  0  0  0  0  0  0
   21.1630   10.0030   32.5970 C   0  0  0  0  0  0  0  0  0  0  0  0
   20.1030   10.7210   33.0670 C   0  0  0  0  0  0  0  0  0  0  0  0
   18.8740   10.1520   33.3720 C   0  0  0  0  0  0  0  0  0  0  0  0
   18.6890    8.7950   33.2010 C   0  0  0  0  0  0  0  0  0  0  0  0
   19.7480    8.0310   32.7240 C   0  0  0  0  0  0  0  0  0  0  0  0
   20.9690    8.6230   32.4250 C   0  0  0  0  0  0  0  0  0  0  0  0
   17.0360    7.9180   33.5990 B   0  0  0  0  0  0  0  0  0  0  0  0
   25.3700   12.4260   32.6260 O   0  0  0  0  0  0  0  0  0  0  0  0
   23.5940   13.1710   31.3030 C   0  0  0  0  0  0  0  0  0  0  0  0
   22.9980   14.1950   32.0120 C   0  0  0  0  0  0  0  0  0  0  0  0
   22.4480   15.2540   31.2890 C   0  0  0  0  0  0  0  0  0  0  0  0
   22.4950   15.2790   29.9280 C   0  0  0  0  0  0  0  0  0  0  0  0
   23.0900   14.2610   29.2050 C   0  0  0  0  0  0  0  0  0  0  0  0
   23.6390   13.2020   29.9370 C   0  0  0  0  0  0  0  0  0  0  0  0
   21.8350   16.3110   32.0080 N   0  0  0  0  0  0  0  0  0  0  0  0
   20.7720   16.1470   32.6380 O   0  0  0  0  0  0  0  0  0  0  0  0
   22.3870   17.5590   32.0410 O   0  0  0  0  0  0  0  0  0  0  0  0
   24.7250    8.0860   28.6210 H   0  0  0  0  0  0  0  0  0  0  0  0
   24.3470    7.1240   30.0810 H   0  0  0  0  0  0  0  0  0  0  0  0
   26.5030    8.5220   30.1660 H   0  0  0  0  0  0  0  0  0  0  0  0
   25.4100    8.6120   31.5780 H   0  0  0  0  0  0  0  0  0  0  0  0
   26.4050   10.8010   30.5130 H   0  0  0  0  0  0  0  0  0  0  0  0
   25.1290   10.5530   29.2640 H   0  0  0  0  0  0  0  0  0  0  0  0
   23.6380   11.0760   33.9180 H   0  0  0  0  0  0  0  0  0  0  0  0
   22.4500   12.3200   33.3430 H   0  0  0  0  0  0  0  0  0  0  0  0
   20.2030   11.7810   33.2230 H   0  0  0  0  0  0  0  0  0  0  0  0
   18.0400   10.7350   33.7430 H   0  0  0  0  0  0  0  0  0  0  0  0
   19.5810    6.9670   32.5930 H   0  0  0  0  0  0  0  0  0  0  0  0
   21.7810    8.0030   32.0540 H   0  0  0  0  0  0  0  0  0  0  0  0
   25.5920   11.9930   33.4620 H   0  0  0  0  0  0  0  0  0  0  0  0
   22.9610   14.1730   33.0860 H   0  0  0  0  0  0  0  0  0  0  0  0
   22.0690   16.0990   29.3670 H   0  0  0  0  0  0  0  0  0  0  0  0
   23.1200   14.3030   28.1430 H   0  0  0  0  0  0  0  0  0  0  0  0
   24.0970   12.4180   29.3550 H   0  0  0  0  0  0  0  0  0  0  0  0
  2  1  1  0  0  0  0
  2 28  1  0  0  0  0
  2  3  1  0  0  0  0
  3 30  1  0  0  0  0
  4 31  1  0  0  0  0
  4  3  1  0  0  0  0
  5  4  1  1  0  0  0
  5  9  1  0  0  0  0
  5  6  1  0  0  0  0
  6 17  1  1  0  0  0
  6  7  1  0  0  0  0
  7 34  1  0  0  0  0
  7 33  1  0  0  0  0
  8 10  1  0  0  0  0
  8  7  1  0  0  0  0
  9  1  1  6  0  0  0
  9  8  1  0  0  0  0
 10 11  1  0  0  0  0
 11 35  1  0  0  0  0
 11 12  2  0  0  0  0
 12 36  1  0  0  0  0
 13 12  1  0  0  0  0
 13 16  1  0  0  0  0
 14 13  2  0  0  0  0
 15 10  2  0  0  0  0
 15 14  1  0  0  0  0
 17 39  1  0  0  0  0
 18 19  1  0  0  0  0
 18  6  1  0  0  0  0
 19 40  1  0  0  0  0
 20 24  1  0  0  0  0
 20 19  2  0  0  0  0
 21 20  1  0  0  0  0
 22 21  2  0  0  0  0
 22 23  1  0  0  0  0
 23 18  2  0  0  0  0
 24 26  2  0  0  0  0
 24 25  2  0  0  0  0
 27  2  1  0  0  0  0
 29  3  1  0  0  0  0
 32  4  1  0  0  0  0
 37 14  1  0  0  0  0
 38 15  1  0  0  0  0
 41 21  1  0  0  0  0
 42 22  1  0  0  0  0
 43 23  1  0  0  0  0
M  END
>  <Pose>
1

>  <Score>
-6.36

$$$$
