
 OpenBabel03202209553D

 41 44  0  0  1  0  0  0  0  0999 V2000
   22.5120    5.9640   30.3020 S   0  0  0  0  0  0  0  0  0  0  0  0
   21.9050    4.8050   31.6080 C   0  0  0  0  0  0  0  0  0  0  0  0
   23.0590    4.0440   32.2070 C   0  0  0  0  0  0  0  0  0  0  0  0
   24.2220    3.8500   31.2590 C   0  0  0  0  0  0  0  0  0  0  0  0
   24.9600    5.0230   30.9980 N   0  0  1  0  0  0  0  0  0  0  0  0
   26.3460    5.4750   30.7830 C   0  0  1  0  0  0  0  0  0  0  0  0
   26.2400    6.8040   31.4910 C   0  0  0  0  0  0  0  0  0  0  0  0
   24.9430    7.2740   31.0280 N   0  0  0  0  0  0  0  0  0  0  0  0
   24.2260    6.2690   30.8420 C   0  0  1  0  0  0  0  0  0  0  0  0
   24.5950    8.6520   30.7720 C   0  0  0  0  0  0  0  0  0  0  0  0
   25.2670    9.4890   29.9380 C   0  0  0  0  0  0  0  0  0  0  0  0
   24.9250   10.8230   29.7560 C   0  0  0  0  0  0  0  0  0  0  0  0
   23.8610   11.3480   30.4400 C   0  0  0  0  0  0  0  0  0  0  0  0
   23.1750   10.5000   31.2890 C   0  0  0  0  0  0  0  0  0  0  0  0
   23.5130    9.1880   31.4670 C   0  0  0  0  0  0  0  0  0  0  0  0
   23.3190   13.1800   30.2560 B   0  0  0  0  0  0  0  0  0  0  0  0
   27.2700    4.6790   31.3880 O   0  0  0  0  0  0  0  0  0  0  0  0
   26.6050    5.7050   29.3230 C   0  0  0  0  0  0  0  0  0  0  0  0
   25.9580    5.0000   28.3260 C   0  0  0  0  0  0  0  0  0  0  0  0
   26.2520    5.2800   26.9980 C   0  0  0  0  0  0  0  0  0  0  0  0
   27.1760    6.2470   26.6200 C   0  0  0  0  0  0  0  0  0  0  0  0
   27.8200    6.9490   27.6020 C   0  0  0  0  0  0  0  0  0  0  0  0
   27.5290    6.6680   28.9370 C   0  0  0  0  0  0  0  0  0  0  0  0
   21.5550    5.4850   32.4370 H   0  0  0  0  0  0  0  0  0  0  0  0
   21.0870    4.1920   31.2130 H   0  0  0  0  0  0  0  0  0  0  0  0
   22.6680    3.0150   32.4680 H   0  0  0  0  0  0  0  0  0  0  0  0
   23.4640    4.5390   33.1150 H   0  0  0  0  0  0  0  0  0  0  0  0
   24.8260    2.9640   31.5460 H   0  0  0  0  0  0  0  0  0  0  0  0
   23.7150    3.5550   30.2780 H   0  0  0  0  0  0  0  0  0  0  0  0
   27.0610    7.4750   31.3640 H   0  0  0  0  0  0  0  0  0  0  0  0
   26.1040    6.5480   32.5900 H   0  0  0  0  0  0  0  0  0  0  0  0
   26.1300    9.1210   29.3630 H   0  0  0  0  0  0  0  0  0  0  0  0
   25.4950   11.4490   29.0780 H   0  0  0  0  0  0  0  0  0  0  0  0
   22.3280   10.9270   31.8350 H   0  0  0  0  0  0  0  0  0  0  0  0
   22.9470    8.5340   32.1440 H   0  0  0  0  0  0  0  0  0  0  0  0
   27.8390    5.1140   32.0700 H   0  0  0  0  0  0  0  0  0  0  0  0
   25.2390    4.2380   28.6040 H   0  0  0  0  0  0  0  0  0  0  0  0
   25.7320    4.7120   26.2480 H   0  0  0  0  0  0  0  0  0  0  0  0
   27.3830    6.4430   25.5750 H   0  0  0  0  0  0  0  0  0  0  0  0
   28.5370    7.7160   27.3610 H   0  0  0  0  0  0  0  0  0  0  0  0
   28.0390    7.2160   29.7160 H   0  0  0  0  0  0  0  0  0  0  0  0
  1  2  1  0  0  0  0
  2  3  1  0  0  0  0
  2 24  1  0  0  0  0
  3 26  1  0  0  0  0
  3 27  1  0  0  0  0
  4 28  1  0  0  0  0
  4  3  1  0  0  0  0
  5  4  1  6  0  0  0
  6  5  1  0  0  0  0
  6 17  1  1  0  0  0
  6  7  1  0  0  0  0
  7 31  1  0  0  0  0
  8  7  1  0  0  0  0
  9  1  1  6  0  0  0
  9  5  1  0  0  0  0
  9  8  1  0  0  0  0
 10  8  1  0  0  0  0
 10 15  1  0  0  0  0
 11 10  2  0  0  0  0
 12 11  1  0  0  0  0
 12 13  2  0  0  0  0
 13 14  1  0  0  0  0
 14 15  2  0  0  0  0
 14 34  1  0  0  0  0
 15 35  1  0  0  0  0
 16 13  1  0  0  0  0
 17 36  1  0  0  0  0
 18  6  1  0  0  0  0
 19 37  1  0  0  0  0
 19 18  2  0  0  0  0
 20 19  1  0  0  0  0
 21 20  2  0  0  0  0
 21 22  1  0  0  0  0
 22 23  2  0  0  0  0
 23 18  1  0  0  0  0
 23 41  1  0  0  0  0
 25  2  1  0  0  0  0
 29  4  1  0  0  0  0
 30  7  1  0  0  0  0
 32 11  1  0  0  0  0
 33 12  1  0  0  0  0
 38 20  1  0  0  0  0
 39 21  1  0  0  0  0
 40 22  1  0  0  0  0
M  END
>  <Pose>
1

>  <Score>
-4.98

$$$$
