
 OpenBabel03202209553D

 45 48  0  0  1  0  0  0  0  0999 V2000
   24.1770   12.3830   28.6770 S   0  0  0  0  0  0  0  0  0  0  0  0
   23.3800   13.8980   29.3510 C   0  0  0  0  0  0  0  0  0  0  0  0
   22.6560   13.4420   30.6090 C   0  0  0  0  0  0  0  0  0  0  0  0
   23.6090   13.0690   31.7000 C   0  0  0  0  0  0  0  0  0  0  0  0
   24.4420   11.9430   31.4110 N   0  0  2  0  0  0  0  0  0  0  0  0
   24.9300   10.7800   32.1590 C   0  0  1  0  0  0  0  0  0  0  0  0
   26.3710   10.8030   31.6150 C   0  0  0  0  0  0  0  0  0  0  0  0
   26.1420   11.0700   30.2070 N   0  0  0  0  0  0  0  0  0  0  0  0
   25.0560   11.7230   30.1120 C   0  0  1  0  0  0  0  0  0  0  0  0
   27.0500   10.6280   29.1720 C   0  0  0  0  0  0  0  0  0  0  0  0
   27.6970   11.5660   28.3720 C   0  0  0  0  0  0  0  0  0  0  0  0
   28.5650   11.1770   27.3760 C   0  0  0  0  0  0  0  0  0  0  0  0
   28.8440    9.8530   27.1130 C   0  0  0  0  0  0  0  0  0  0  0  0
   28.2090    8.9200   27.8970 C   0  0  0  0  0  0  0  0  0  0  0  0
   27.3250    9.3210   28.9110 C   0  0  0  0  0  0  0  0  0  0  0  0
   29.7280    9.4980   26.1000 O   0  0  0  0  0  0  0  0  0  0  0  0
   29.3670    9.0450   24.8260 C   0  0  0  0  0  0  0  0  0  0  0  0
   24.9020   11.0450   33.5070 O   0  0  0  0  0  0  0  0  0  0  0  0
   24.2660    9.5250   31.7620 C   0  0  0  0  0  0  0  0  0  0  0  0
   24.8800    8.4450   31.1670 C   0  0  0  0  0  0  0  0  0  0  0  0
   24.1650    7.3050   30.8410 C   0  0  0  0  0  0  0  0  0  0  0  0
   22.8280    7.2320   31.1060 C   0  0  0  0  0  0  0  0  0  0  0  0
   22.1980    8.3040   31.6990 C   0  0  0  0  0  0  0  0  0  0  0  0
   22.9180    9.4270   32.0180 C   0  0  0  0  0  0  0  0  0  0  0  0
   21.7790    5.6800   30.6770 B   0  0  0  0  0  0  0  0  0  0  0  0
   22.6850   14.2740   28.6060 H   0  0  0  0  0  0  0  0  0  0  0  0
   24.2000   14.6110   29.6020 H   0  0  0  0  0  0  0  0  0  0  0  0
   22.0120   12.5780   30.3310 H   0  0  0  0  0  0  0  0  0  0  0  0
   21.9760   14.2240   30.9890 H   0  0  0  0  0  0  0  0  0  0  0  0
   24.2360   13.9620   31.9110 H   0  0  0  0  0  0  0  0  0  0  0  0
   22.9910   12.8220   32.5990 H   0  0  0  0  0  0  0  0  0  0  0  0
   26.8140   11.7290   32.0500 H   0  0  0  0  0  0  0  0  0  0  0  0
   26.9020    9.8990   31.8590 H   0  0  0  0  0  0  0  0  0  0  0  0
   27.5180   12.6140   28.5300 H   0  0  0  0  0  0  0  0  0  0  0  0
   29.0800   11.9040   26.7400 H   0  0  0  0  0  0  0  0  0  0  0  0
   28.3760    7.8700   27.7470 H   0  0  0  0  0  0  0  0  0  0  0  0
   26.8390    8.5520   29.5020 H   0  0  0  0  0  0  0  0  0  0  0  0
   30.0600    8.2210   24.4900 H   0  0  0  0  0  0  0  0  0  0  0  0
   28.3540    8.6400   24.7360 H   0  0  0  0  0  0  0  0  0  0  0  0
   29.5570    9.8760   24.0920 H   0  0  0  0  0  0  0  0  0  0  0  0
   25.8000   11.1710   33.8950 H   0  0  0  0  0  0  0  0  0  0  0  0
   25.9260    8.5230   30.9690 H   0  0  0  0  0  0  0  0  0  0  0  0
   24.6640    6.4630   30.3780 H   0  0  0  0  0  0  0  0  0  0  0  0
   21.1340    8.2550   31.9140 H   0  0  0  0  0  0  0  0  0  0  0  0
   22.3790   10.2530   32.4890 H   0  0  0  0  0  0  0  0  0  0  0  0
  1  2  1  0  0  0  0
  2 27  1  0  0  0  0
  2  3  1  0  0  0  0
  3 29  1  0  0  0  0
  3  4  1  0  0  0  0
  4 30  1  0  0  0  0
  4 31  1  0  0  0  0
  5  4  1  1  0  0  0
  5  6  1  0  0  0  0
  6 18  1  1  0  0  0
  7 33  1  0  0  0  0
  7 32  1  0  0  0  0
  7  6  1  0  0  0  0
  8  7  1  0  0  0  0
  9  1  1  6  0  0  0
  9  8  1  0  0  0  0
  9  5  1  0  0  0  0
 10  8  1  0  0  0  0
 11 34  1  0  0  0  0
 11 10  2  0  0  0  0
 12 11  1  0  0  0  0
 13 12  2  0  0  0  0
 13 14  1  0  0  0  0
 14 15  2  0  0  0  0
 15 10  1  0  0  0  0
 15 37  1  0  0  0  0
 16 13  1  0  0  0  0
 17 16  1  0  0  0  0
 18 41  1  0  0  0  0
 19 24  1  0  0  0  0
 19  6  1  0  0  0  0
 20 19  2  0  0  0  0
 21 22  2  0  0  0  0
 21 20  1  0  0  0  0
 22 23  1  0  0  0  0
 23 44  1  0  0  0  0
 23 24  2  0  0  0  0
 24 45  1  0  0  0  0
 25 22  1  0  0  0  0
 26  2  1  0  0  0  0
 28  3  1  0  0  0  0
 35 12  1  0  0  0  0
 36 14  1  0  0  0  0
 38 17  1  0  0  0  0
 39 17  1  0  0  0  0
 40 17  1  0  0  0  0
 42 20  1  0  0  0  0
 43 21  1  0  0  0  0
M  END
>  <Pose>
1

>  <Score>
-4.40

$$$$
