
 OpenBabel03202209553D

 41 44  0  0  1  0  0  0  0  0999 V2000
   20.8970    8.8760   32.9440 S   0  0  0  0  0  0  0  0  0  0  0  0
   19.3560    8.1530   33.5720 C   0  0  0  0  0  0  0  0  0  0  0  0
   18.9520    7.0710   32.5650 C   0  0  0  0  0  0  0  0  0  0  0  0
   20.0190    5.9660   32.6080 C   0  0  0  0  0  0  0  0  0  0  0  0
   21.1230    6.3780   31.7330 N   0  0  1  0  0  0  0  0  0  0  0  0
   21.9130    5.6960   30.7900 C   0  0  2  0  0  0  0  0  0  0  0  0
   22.6150    6.7980   30.0030 C   0  0  0  0  0  0  0  0  0  0  0  0
   22.3420    7.9900   30.7450 N   0  0  0  0  0  0  0  0  0  0  0  0
   21.5510    7.7320   31.7050 C   0  0  1  0  0  0  0  0  0  0  0  0
   22.8820    9.2670   30.3670 C   0  0  0  0  0  0  0  0  0  0  0  0
   22.0330   10.2590   29.9970 C   0  0  0  0  0  0  0  0  0  0  0  0
   22.5800   11.4950   29.6650 C   0  0  0  0  0  0  0  0  0  0  0  0
   23.9330   11.7470   29.6980 C   0  0  0  0  0  0  0  0  0  0  0  0
   24.7560   10.7060   30.0790 C   0  0  0  0  0  0  0  0  0  0  0  0
   24.2500    9.4740   30.4130 C   0  0  0  0  0  0  0  0  0  0  0  0
   21.0720    5.0470   29.8590 O   0  0  0  0  0  0  0  0  0  0  0  0
   22.9130    4.7390   31.2570 C   0  0  0  0  0  0  0  0  0  0  0  0
   24.1710    4.8210   30.6620 C   0  0  0  0  0  0  0  0  0  0  0  0
   25.2390    4.0140   31.0110 C   0  0  0  0  0  0  0  0  0  0  0  0
   25.0860    3.0690   31.9880 C   0  0  0  0  0  0  0  0  0  0  0  0
   23.8440    2.9710   32.5900 C   0  0  0  0  0  0  0  0  0  0  0  0
   22.7790    3.7920   32.2310 C   0  0  0  0  0  0  0  0  0  0  0  0
   26.5370    1.9190   32.5300 B   0  0  0  0  0  0  0  0  0  0  0  0
   19.5620    7.6970   34.5540 H   0  0  0  0  0  0  0  0  0  0  0  0
   18.5510    8.9180   33.6050 H   0  0  0  0  0  0  0  0  0  0  0  0
   17.9850    6.6570   32.8380 H   0  0  0  0  0  0  0  0  0  0  0  0
   18.9250    7.5380   31.5640 H   0  0  0  0  0  0  0  0  0  0  0  0
   20.3290    5.7680   33.6280 H   0  0  0  0  0  0  0  0  0  0  0  0
   19.5180    5.0670   32.2130 H   0  0  0  0  0  0  0  0  0  0  0  0
   22.1890    6.8690   28.9850 H   0  0  0  0  0  0  0  0  0  0  0  0
   23.7210    6.6360   30.0030 H   0  0  0  0  0  0  0  0  0  0  0  0
   20.9350   10.1440   29.9400 H   0  0  0  0  0  0  0  0  0  0  0  0
   21.8990   12.2710   29.3690 H   0  0  0  0  0  0  0  0  0  0  0  0
   24.3470   12.7320   29.4390 H   0  0  0  0  0  0  0  0  0  0  0  0
   25.8320   10.8720   30.1160 H   0  0  0  0  0  0  0  0  0  0  0  0
   24.8880    8.6320   30.7200 H   0  0  0  0  0  0  0  0  0  0  0  0
   21.0940    5.6010   29.0350 H   0  0  0  0  0  0  0  0  0  0  0  0
   24.2800    5.5740   29.8830 H   0  0  0  0  0  0  0  0  0  0  0  0
   26.2090    4.1190   30.5100 H   0  0  0  0  0  0  0  0  0  0  0  0
   23.7340    2.2240   33.3660 H   0  0  0  0  0  0  0  0  0  0  0  0
   21.8120    3.6850   32.7160 H   0  0  0  0  0  0  0  0  0  0  0  0
  1  2  1  0  0  0  0
  2 25  1  0  0  0  0
  2 24  1  0  0  0  0
  3  4  1  0  0  0  0
  3 26  1  0  0  0  0
  3  2  1  0  0  0  0
  4 28  1  0  0  0  0
  5  4  1  6  0  0  0
  6 16  1  6  0  0  0
  6 17  1  0  0  0  0
  6  5  1  0  0  0  0
  7  8  1  0  0  0  0
  7  6  1  0  0  0  0
  8  9  1  0  0  0  0
  9  5  1  0  0  0  0
  9  1  1  6  0  0  0
 10 15  1  0  0  0  0
 10  8  1  0  0  0  0
 11 10  2  0  0  0  0
 12 13  2  0  0  0  0
 12 11  1  0  0  0  0
 13 14  1  0  0  0  0
 14 35  1  0  0  0  0
 14 15  2  0  0  0  0
 15 36  1  0  0  0  0
 17 22  1  0  0  0  0
 18 19  1  0  0  0  0
 18 17  2  0  0  0  0
 19 20  2  0  0  0  0
 20 23  1  0  0  0  0
 20 21  1  0  0  0  0
 21 40  1  0  0  0  0
 22 21  2  0  0  0  0
 22 41  1  0  0  0  0
 27  3  1  0  0  0  0
 29  4  1  0  0  0  0
 30  7  1  0  0  0  0
 31  7  1  0  0  0  0
 32 11  1  0  0  0  0
 33 12  1  0  0  0  0
 34 13  1  0  0  0  0
 37 16  1  0  0  0  0
 38 18  1  0  0  0  0
 39 19  1  0  0  0  0
M  END
>  <Pose>
1

>  <Score>
-5.75

$$$$
