
 OpenBabel03202209553D

 49 52  0  0  0  0  0  0  0  0999 V2000
   27.1480    4.5130   29.3380 S   0  0  0  0  0  0  0  0  0  0  0  0
   27.8050    4.3530   27.6500 C   0  0  0  0  0  0  0  0  0  0  0  0
   26.5760    4.6860   26.8670 C   0  0  0  0  0  0  0  0  0  0  0  0
   25.5710    5.2420   27.6210 N   0  0  0  0  0  0  0  0  0  0  0  0
   25.6040    5.2870   28.8570 C   0  0  0  0  0  0  0  0  0  0  0  0
   24.4470    5.9430   30.0530 S   0  0  0  0  0  0  0  0  0  0  0  0
   23.9190    7.5980   29.6650 C   0  0  0  0  0  0  0  0  0  0  0  0
   23.5600    8.4720   30.7930 C   0  0  0  0  0  0  0  0  0  0  0  0
   22.5600    8.2940   31.6660 N   0  0  0  0  0  0  0  0  0  0  0  0
   22.6090    9.3570   32.4890 N   0  0  0  0  0  0  0  0  0  0  0  0
   23.5650   10.1520   32.1680 N   0  0  0  0  0  0  0  0  0  0  0  0
   24.2440    9.6600   31.0700 C   0  0  0  0  0  0  0  0  0  0  0  0
   25.3620   10.3250   30.4520 C   0  0  0  0  0  0  0  0  0  0  0  0
   26.4080    9.6010   30.2170 O   0  0  0  0  0  0  0  0  0  0  0  0
   25.4730   11.6580   30.0670 N   0  0  0  0  0  0  0  0  0  0  0  0
   24.3290   12.5250   30.1540 N   0  0  0  0  0  0  0  0  0  0  0  0
   23.6910   12.6910   31.2440 C   0  0  0  0  0  0  0  0  0  0  0  0
   22.5290   13.5590   31.3750 C   0  0  0  0  0  0  0  0  0  0  0  0
   21.3690   13.1300   31.9800 C   0  0  0  0  0  0  0  0  0  0  0  0
   20.2630   13.9420   32.1170 C   0  0  0  0  0  0  0  0  0  0  0  0
   20.2740   15.2300   31.6470 C   0  0  0  0  0  0  0  0  0  0  0  0
   21.4400   15.7010   31.0250 C   0  0  0  0  0  0  0  0  0  0  0  0
   22.5290   14.8650   30.9030 C   0  0  0  0  0  0  0  0  0  0  0  0
   21.3830   17.0010   30.5770 O   0  0  0  0  0  0  0  0  0  0  0  0
   22.0020   17.4980   29.4170 C   0  0  0  0  0  0  0  0  0  0  0  0
   19.1500   16.0290   31.7950 O   0  0  0  0  0  0  0  0  0  0  0  0
   18.6740   13.3000   32.9650 B   0  0  0  0  0  0  0  0  0  0  0  0
   21.5670    7.2800   31.7920 C   0  0  0  0  0  0  0  0  0  0  0  0
   21.6290    5.9920   31.3970 N   0  0  0  0  0  0  0  0  0  0  0  0
   20.5640    5.3450   31.6880 O   0  0  0  0  0  0  0  0  0  0  0  0
   19.7510    6.1590   32.2850 N   0  0  0  0  0  0  0  0  0  0  0  0
   20.3260    7.3950   32.3820 C   0  0  0  0  0  0  0  0  0  0  0  0
   19.7590    8.5410   32.9860 N   0  0  0  0  0  4  0  0  0  0  0  0
   28.6530    5.0260   27.4660 H   0  0  0  0  0  0  0  0  0  0  0  0
   28.0340    3.2810   27.4900 H   0  0  0  0  0  0  0  0  0  0  0  0
   26.2690    3.8380   26.2050 H   0  0  0  0  0  0  0  0  0  0  0  0
   26.9060    5.4740   26.1120 H   0  0  0  0  0  0  0  0  0  0  0  0
   23.0740    7.5200   28.9600 H   0  0  0  0  0  0  0  0  0  0  0  0
   24.7330    8.1660   29.1090 H   0  0  0  0  0  0  0  0  0  0  0  0
   26.3000   12.1580   29.6990 H   0  0  0  0  0  0  0  0  0  0  0  0
   24.0310   12.1640   32.1150 H   0  0  0  0  0  0  0  0  0  0  0  0
   21.3450   12.1080   32.3580 H   0  0  0  0  0  0  0  0  0  0  0  0
   23.4200   15.2420   30.4200 H   0  0  0  0  0  0  0  0  0  0  0  0
   22.3580   18.5570   29.5670 H   0  0  0  0  0  0  0  0  0  0  0  0
   22.8180   16.8430   29.0890 H   0  0  0  0  0  0  0  0  0  0  0  0
   21.2110   17.5910   28.6230 H   0  0  0  0  0  0  0  0  0  0  0  0
   19.8700    9.3480   32.3170 H   0  0  0  0  0  0  0  0  0  0  0  0
   20.1570    8.7830   33.9100 H   0  0  0  0  0  0  0  0  0  0  0  0
   18.7190    8.3910   33.0890 H   0  0  0  0  0  0  0  0  0  0  0  0
  2  1  1  0  0  0  0
  3  4  1  0  0  0  0
  3  2  1  0  0  0  0
  4  5  2  0  0  0  0
  5  1  1  0  0  0  0
  5  6  1  0  0  0  0
  7  6  1  0  0  0  0
  7  8  1  0  0  0  0
  8 12  2  0  0  0  0
  8  9  1  0  0  0  0
  9 28  1  0  0  0  0
  9 10  1  0  0  0  0
 11 10  2  0  0  0  0
 12 11  1  0  0  0  0
 13 12  1  0  0  0  0
 14 13  2  0  0  0  0
 15 16  1  0  0  0  0
 15 13  1  0  0  0  0
 16 17  2  0  0  0  0
 17 18  1  0  0  0  0
 17 41  1  0  0  0  0
 18 19  1  0  0  0  0
 19 20  2  0  0  0  0
 19 42  1  0  0  0  0
 20 27  1  0  0  0  0
 21 26  1  0  0  0  0
 21 20  1  0  0  0  0
 22 21  2  0  0  0  0
 23 22  1  0  0  0  0
 23 18  2  0  0  0  0
 24 22  1  0  0  0  0
 25 44  1  0  0  0  0
 25 24  1  0  0  0  0
 28 32  1  0  0  0  0
 29 30  1  0  0  0  0
 29 28  2  0  0  0  0
 30 31  1  0  0  0  0
 31 32  2  0  0  0  0
 32 33  1  0  0  0  0
 33 49  1  0  0  0  0
 33 48  1  0  0  0  0
 34  2  1  0  0  0  0
 35  2  1  0  0  0  0
 36  3  1  0  0  0  0
 37  3  1  0  0  0  0
 38  7  1  0  0  0  0
 39  7  1  0  0  0  0
 40 15  1  0  0  0  0
 43 23  1  0  0  0  0
 45 25  1  0  0  0  0
 46 25  1  0  0  0  0
 47 33  1  0  0  0  0
M  END
>  <Pose>
1

>  <Score>
-9.18

$$$$
