
 OpenBabel03202209553D

 45 49  0  0  1  0  0  0  0  0999 V2000
   27.2450    5.9580   26.9190 S   0  0  0  0  0  0  0  0  0  0  0  0
   28.7680    6.1010   27.9710 C   0  0  0  0  0  0  0  0  0  0  0  0
   28.2590    7.1810   28.8910 C   0  0  0  0  0  0  0  0  0  0  0  0
   26.8940    6.9250   29.2540 N   0  0  0  0  0  0  0  0  0  0  0  0
   26.1260    6.2710   28.2690 C   0  0  0  0  0  0  0  0  0  0  0  0
   24.9040    6.0080   28.4580 N   0  0  0  0  0  0  0  0  0  0  0  0
   24.2060    6.3750   29.6640 C   0  0  0  0  0  0  0  0  0  0  0  0
   23.1590    5.8000   30.0510 O   0  0  0  0  0  0  0  0  0  0  0  0
   24.7770    7.4900   30.4670 C   0  0  1  0  0  0  0  0  0  0  0  0
   26.2440    7.2880   30.5000 C   0  0  0  0  0  0  0  0  0  0  0  0
   26.9630    7.4060   31.5220 O   0  0  0  0  0  0  0  0  0  0  0  0
   24.3780    8.7640   29.8080 C   0  0  2  0  0  0  0  0  0  0  0  0
   25.2800    9.9290   30.1330 C   0  0  2  0  0  0  0  0  0  0  0  0
   24.6760   10.9340   31.0220 C   0  0  0  0  0  0  0  0  0  0  0  0
   24.5750   10.6970   32.2770 O   0  0  0  0  0  0  0  0  0  0  0  0
   24.1940   12.1910   30.4840 N   0  0  0  0  0  0  0  0  0  0  0  0
   23.3800   13.1580   31.1660 C   0  0  0  0  0  0  0  0  0  0  0  0
   22.4930   13.8920   30.1920 C   0  0  0  0  0  0  0  0  0  0  0  0
   23.7610   14.1160   28.8580 S   0  0  0  0  0  0  0  0  0  0  0  0
   24.5620   12.5430   29.1670 C   0  0  0  0  0  0  0  0  0  0  0  0
   25.3020   11.8060   28.4330 N   0  0  0  0  0  0  0  0  0  0  0  0
   25.8190   10.5490   28.8970 C   0  0  0  0  0  0  0  0  0  0  0  0
   26.7300   10.0050   28.2240 O   0  0  0  0  0  0  0  0  0  0  0  0
   22.9610    9.0480   30.1260 C   0  0  0  0  0  0  0  0  0  0  0  0
   22.3410    8.4480   31.2150 C   0  0  0  0  0  0  0  0  0  0  0  0
   21.0220    8.7080   31.5220 C   0  0  0  0  0  0  0  0  0  0  0  0
   20.2850    9.5770   30.7490 C   0  0  0  0  0  0  0  0  0  0  0  0
   20.8950   10.1640   29.6820 C   0  0  0  0  0  0  0  0  0  0  0  0
   22.2130    9.9130   29.3620 C   0  0  0  0  0  0  0  0  0  0  0  0
   20.1620    7.8890   33.0160 B   0  0  0  0  0  0  0  0  0  0  0  0
   28.9320    5.1730   28.5200 H   0  0  0  0  0  0  0  0  0  0  0  0
   29.6000    6.4680   27.3780 H   0  0  0  0  0  0  0  0  0  0  0  0
   28.9020    7.1770   29.7930 H   0  0  0  0  0  0  0  0  0  0  0  0
   28.3400    8.1440   28.3310 H   0  0  0  0  0  0  0  0  0  0  0  0
   24.3670    7.4710   31.5090 H   0  0  0  0  0  0  0  0  0  0  0  0
   24.4640    8.6200   28.6940 H   0  0  0  0  0  0  0  0  0  0  0  0
   26.2020    9.5390   30.6660 H   0  0  0  0  0  0  0  0  0  0  0  0
   23.9880   13.9450   31.6700 H   0  0  0  0  0  0  0  0  0  0  0  0
   22.6920   12.6560   31.8770 H   0  0  0  0  0  0  0  0  0  0  0  0
   21.6580   13.2830   29.8150 H   0  0  0  0  0  0  0  0  0  0  0  0
   22.2090   14.8570   30.6040 H   0  0  0  0  0  0  0  0  0  0  0  0
   22.9020    7.7650   31.8310 H   0  0  0  0  0  0  0  0  0  0  0  0
   19.2330    9.7940   30.9820 H   0  0  0  0  0  0  0  0  0  0  0  0
   20.3330   10.8610   29.0470 H   0  0  0  0  0  0  0  0  0  0  0  0
   22.6450   10.4250   28.4850 H   0  0  0  0  0  0  0  0  0  0  0  0
  1  2  1  0  0  0  0
  1  5  1  0  0  0  0
  2 31  1  0  0  0  0
  2  3  1  0  0  0  0
  3  4  1  0  0  0  0
  3 33  1  0  0  0  0
  4 10  1  0  0  0  0
  5  6  2  0  0  0  0
  5  4  1  0  0  0  0
  6  7  1  0  0  0  0
  7  8  2  0  0  0  0
  7  9  1  0  0  0  0
  9 10  1  0  0  0  0
  9 35  1  1  0  0  0
 10 11  2  0  0  0  0
 12 36  1  6  0  0  0
 12 24  1  0  0  0  0
 12 13  1  0  0  0  0
 12  9  1  0  0  0  0
 13 37  1  1  0  0  0
 13 14  1  0  0  0  0
 14 15  2  0  0  0  0
 16 14  1  0  0  0  0
 16 17  1  0  0  0  0
 17 38  1  0  0  0  0
 17 39  1  0  0  0  0
 18 41  1  0  0  0  0
 18 17  1  0  0  0  0
 19 20  1  0  0  0  0
 19 18  1  0  0  0  0
 20 16  1  0  0  0  0
 21 22  1  0  0  0  0
 21 20  2  0  0  0  0
 22 13  1  0  0  0  0
 23 22  2  0  0  0  0
 24 25  1  0  0  0  0
 25 26  2  0  0  0  0
 25 42  1  0  0  0  0
 26 30  1  0  0  0  0
 27 43  1  0  0  0  0
 27 26  1  0  0  0  0
 28 27  2  0  0  0  0
 29 28  1  0  0  0  0
 29 24  2  0  0  0  0
 32  2  1  0  0  0  0
 34  3  1  0  0  0  0
 40 18  1  0  0  0  0
 44 28  1  0  0  0  0
 45 29  1  0  0  0  0
M  END
>  <Pose>
1

>  <Score>
-4.77

$$$$
