
 OpenBabel03202209553D

 45 49  0  0  1  0  0  0  0  0999 V2000
   24.2930   11.7020   30.8200 S   0  0  0  0  0  0  0  0  0  0  0  0
   24.2500   10.0820   31.5680 C   0  0  0  0  0  0  0  0  0  0  0  0
   23.5850    9.6330   32.5820 N   0  0  0  0  0  0  0  0  0  0  0  0
   23.7380    8.2520   32.9830 C   0  0  0  0  0  0  0  0  0  0  0  0
   23.6140    7.8200   34.1280 O   0  0  0  0  0  0  0  0  0  0  0  0
   24.0820    7.2620   31.8710 C   0  0  2  0  0  0  0  0  0  0  0  0
   25.2860    7.9070   31.2580 C   0  0  0  0  0  0  0  0  0  0  0  0
   26.3920    7.3120   31.1140 O   0  0  0  0  0  0  0  0  0  0  0  0
   25.1460    9.2890   30.8180 N   0  0  0  0  0  0  0  0  0  0  0  0
   25.7810    9.9140   29.7790 N   0  0  0  0  0  0  0  0  0  0  0  0
   25.4830   11.2760   29.5570 C   0  0  0  0  0  0  0  0  0  0  0  0
   25.9620   12.0930   28.6240 C   0  0  0  0  0  0  0  0  0  0  0  0
   22.9190    7.1990   30.9230 C   0  0  1  0  0  0  0  0  0  0  0  0
   22.8000    6.0000   30.0690 C   0  0  2  0  0  0  0  0  0  0  0  0
   22.3870    4.7530   30.6950 C   0  0  0  0  0  0  0  0  0  0  0  0
   21.1840    4.3420   30.5680 O   0  0  0  0  0  0  0  0  0  0  0  0
   23.3130    3.9470   31.4680 N   0  0  0  0  0  0  0  0  0  0  0  0
   23.0260    3.0470   32.4440 N   0  0  0  0  0  0  0  0  0  0  0  0
   24.1160    2.3740   33.0500 C   0  0  0  0  0  0  0  0  0  0  0  0
   24.1170    1.4650   34.0010 C   0  0  0  0  0  0  0  0  0  0  0  0
   25.5670    3.0320   32.2330 S   0  0  0  0  0  0  0  0  0  0  0  0
   24.6730    4.1290   31.1470 C   0  0  0  0  0  0  0  0  0  0  0  0
   25.0960    4.9400   30.2440 N   0  0  0  0  0  0  0  0  0  0  0  0
   24.1760    5.7380   29.4810 C   0  0  0  0  0  0  0  0  0  0  0  0
   24.4280    6.2300   28.3720 O   0  0  0  0  0  0  0  0  0  0  0  0
   21.6290    7.4560   31.6260 C   0  0  0  0  0  0  0  0  0  0  0  0
   21.1900    8.7370   31.8640 C   0  0  0  0  0  0  0  0  0  0  0  0
   20.0010    8.9800   32.5130 C   0  0  0  0  0  0  0  0  0  0  0  0
   19.2300    7.9210   32.9350 C   0  0  0  0  0  0  0  0  0  0  0  0
   19.6390    6.6050   32.7140 C   0  0  0  0  0  0  0  0  0  0  0  0
   20.8370    6.4030   32.0600 C   0  0  0  0  0  0  0  0  0  0  0  0
   17.5720    8.2260   33.8390 B   0  0  0  0  0  0  0  0  0  0  0  0
   24.3340    6.3190   32.3430 H   0  0  0  0  0  0  0  0  0  0  0  0
   26.4980    9.4270   29.1330 H   0  0  0  0  0  0  0  0  0  0  0  0
   25.6130   13.1130   28.6100 H   0  0  0  0  0  0  0  0  0  0  0  0
   26.6700   11.7800   27.8980 H   0  0  0  0  0  0  0  0  0  0  0  0
   23.0550    8.0770   30.2100 H   0  0  0  0  0  0  0  0  0  0  0  0
   22.1220    6.1520   29.1850 H   0  0  0  0  0  0  0  0  0  0  0  0
   22.0340    2.8040   32.7910 H   0  0  0  0  0  0  0  0  0  0  0  0
   25.0480    1.0640   34.3380 H   0  0  0  0  0  0  0  0  0  0  0  0
   23.2060    1.1180   34.4450 H   0  0  0  0  0  0  0  0  0  0  0  0
   21.7540    9.6080   31.5540 H   0  0  0  0  0  0  0  0  0  0  0  0
   19.6510    9.9800   32.7020 H   0  0  0  0  0  0  0  0  0  0  0  0
   19.0340    5.7650   33.0450 H   0  0  0  0  0  0  0  0  0  0  0  0
   21.2220    5.4030   31.8520 H   0  0  0  0  0  0  0  0  0  0  0  0
  1  2  1  0  0  0  0
  2  3  2  0  0  0  0
  3  4  1  0  0  0  0
  4  5  2  0  0  0  0
  6 33  1  1  0  0  0
  6  4  1  0  0  0  0
  7  6  1  0  0  0  0
  8  7  2  0  0  0  0
  9  7  1  0  0  0  0
  9  2  1  0  0  0  0
 10  9  1  0  0  0  0
 11 10  1  0  0  0  0
 11  1  1  0  0  0  0
 12 11  2  0  0  0  0
 13 37  1  6  0  0  0
 13 26  1  0  0  0  0
 13  6  1  0  0  0  0
 14 38  1  6  0  0  0
 14 15  1  0  0  0  0
 14 13  1  0  0  0  0
 15 17  1  0  0  0  0
 16 15  2  0  0  0  0
 17 18  1  0  0  0  0
 18 39  1  0  0  0  0
 18 19  1  0  0  0  0
 19 20  2  0  0  0  0
 20 40  1  0  0  0  0
 20 41  1  0  0  0  0
 21 19  1  0  0  0  0
 22 17  1  0  0  0  0
 22 21  1  0  0  0  0
 23 22  2  0  0  0  0
 24 14  1  0  0  0  0
 24 23  1  0  0  0  0
 25 24  2  0  0  0  0
 26 27  2  0  0  0  0
 26 31  1  0  0  0  0
 27 28  1  0  0  0  0
 28 43  1  0  0  0  0
 28 29  2  0  0  0  0
 29 32  1  0  0  0  0
 30 29  1  0  0  0  0
 30 44  1  0  0  0  0
 31 30  2  0  0  0  0
 34 10  1  0  0  0  0
 35 12  1  0  0  0  0
 36 12  1  0  0  0  0
 42 27  1  0  0  0  0
 45 31  1  0  0  0  0
M  END
>  <Pose>
1

>  <Score>
-5.37

$$$$
