
 OpenBabel03202209553D

 40 43  0  0  1  0  0  0  0  0999 V2000
   23.8990    8.8460   31.3750 S   0  0  0  0  0  0  0  0  0  0  0  0
   23.5970    7.1050   31.1010 C   0  0  1  0  0  0  0  0  0  0  0  0
   24.1590    6.0250   30.6640 N   0  0  0  0  0  0  0  0  0  0  0  0
   23.2830    4.9160   30.7320 C   0  0  0  0  0  0  0  0  0  0  0  0
   22.0190    5.4680   31.3070 C   0  0  0  0  0  0  0  0  0  0  0  0
   22.2750    6.9090   31.5380 N   0  0  0  0  0  0  0  0  0  0  0  0
   21.6100    8.0380   32.0310 C   0  0  0  0  0  0  0  0  0  0  0  0
   22.2730    9.1730   32.0400 C   0  0  0  0  0  0  0  0  0  0  0  0
   20.2060    8.0330   32.5580 C   0  0  0  0  0  0  0  0  0  0  0  0
   19.5900    9.1920   32.9750 C   0  0  0  0  0  0  0  0  0  0  0  0
   18.3050    9.2420   33.4710 C   0  0  0  0  0  0  0  0  0  0  0  0
   17.5600    8.0900   33.5720 C   0  0  0  0  0  0  0  0  0  0  0  0
   18.1500    6.9260   33.1650 C   0  0  0  0  0  0  0  0  0  0  0  0
   19.4630    6.8850   32.6610 C   0  0  0  0  0  0  0  0  0  0  0  0
   25.5510    6.0240   30.1810 C   0  0  0  0  0  0  0  0  0  0  0  0
   25.5200    5.5600   28.7800 C   0  0  0  0  0  0  0  0  0  0  0  0
   24.7800    6.1000   27.9330 O   0  0  0  0  0  0  0  0  0  0  0  0
   26.3640    4.4500   28.3600 C   0  0  0  0  0  0  0  0  0  0  0  0
   27.5370    4.6720   27.6370 C   0  0  0  0  0  0  0  0  0  0  0  0
   28.3520    3.6370   27.2190 C   0  0  0  0  0  0  0  0  0  0  0  0
   27.9710    2.3610   27.5390 C   0  0  0  0  0  0  0  0  0  0  0  0
   26.8190    2.0880   28.2540 C   0  0  0  0  0  0  0  0  0  0  0  0
   26.0130    3.1520   28.6650 C   0  0  0  0  0  0  0  0  0  0  0  0
   29.1090    0.9310   26.9550 B   0  0  0  0  0  0  0  0  0  0  0  0
   23.7000    4.0670   31.3420 H   0  0  0  0  0  0  0  0  0  0  0  0
   23.1530    4.4670   29.7120 H   0  0  0  0  0  0  0  0  0  0  0  0
   21.8560    4.9500   32.2760 H   0  0  0  0  0  0  0  0  0  0  0  0
   21.2320    5.3070   30.5540 H   0  0  0  0  0  0  0  0  0  0  0  0
   21.9380   10.1700   32.3810 H   0  0  0  0  0  0  0  0  0  0  0  0
   20.1180   10.1420   32.9240 H   0  0  0  0  0  0  0  0  0  0  0  0
   17.8710   10.1800   33.7820 H   0  0  0  0  0  0  0  0  0  0  0  0
   16.5570    8.1320   33.9600 H   0  0  0  0  0  0  0  0  0  0  0  0
   17.6120    5.9800   33.2210 H   0  0  0  0  0  0  0  0  0  0  0  0
   19.8740    5.9450   32.3550 H   0  0  0  0  0  0  0  0  0  0  0  0
   25.8340    7.1160   30.1920 H   0  0  0  0  0  0  0  0  0  0  0  0
   26.2020    5.4510   30.8380 H   0  0  0  0  0  0  0  0  0  0  0  0
   27.8100    5.6810   27.4020 H   0  0  0  0  0  0  0  0  0  0  0  0
   29.2460    3.8080   26.6660 H   0  0  0  0  0  0  0  0  0  0  0  0
   26.5180    1.0900   28.5060 H   0  0  0  0  0  0  0  0  0  0  0  0
   25.1200    2.9070   29.2220 H   0  0  0  0  0  0  0  0  0  0  0  0
  1  8  1  0  0  0  0
  2  1  1  1  0  0  0
  2  6  1  0  0  0  0
  3  4  1  0  0  0  0
  3  2  1  0  0  0  0
  4  5  1  0  0  0  0
  4 25  1  0  0  0  0
  5  6  1  0  0  0  0
  5 27  1  0  0  0  0
  6  7  1  0  0  0  0
  7  8  2  0  0  0  0
  7  9  1  0  0  0  0
  8 29  1  0  0  0  0
  9 14  2  0  0  0  0
  9 10  1  0  0  0  0
 10 11  2  0  0  0  0
 11 12  1  0  0  0  0
 11 31  1  0  0  0  0
 12 32  1  0  0  0  0
 13 33  1  0  0  0  0
 13 12  2  0  0  0  0
 14 13  1  0  0  0  0
 15 35  1  0  0  0  0
 15  3  1  0  0  0  0
 15 36  1  0  0  0  0
 16 15  1  0  0  0  0
 17 16  2  0  0  0  0
 18 23  1  0  0  0  0
 18 16  1  0  0  0  0
 19 18  2  0  0  0  0
 20 21  2  0  0  0  0
 20 19  1  0  0  0  0
 21 22  1  0  0  0  0
 22 39  1  0  0  0  0
 22 23  2  0  0  0  0
 23 40  1  0  0  0  0
 24 21  1  0  0  0  0
 26  4  1  0  0  0  0
 28  5  1  0  0  0  0
 30 10  1  0  0  0  0
 34 14  1  0  0  0  0
 37 19  1  0  0  0  0
 38 20  1  0  0  0  0
M  END
>  <Pose>
1

>  <Score>
-6.27

$$$$
