
 OpenBabel03202209553D

 43 46  0  0  1  0  0  0  0  0999 V2000
   22.5640    4.9280   30.8010 Cl  0  0  0  0  0  0  0  0  0  0  0  0
   21.5660    6.2030   31.5310 C   0  0  0  0  0  0  0  0  0  0  0  0
   21.8370    7.5260   31.1480 C   0  0  0  0  0  0  0  0  0  0  0  0
   21.0670    8.5030   31.7080 C   0  0  0  0  0  0  0  0  0  0  0  0
   20.0690    8.1780   32.6090 C   0  0  0  0  0  0  0  0  0  0  0  0
   19.7990    6.8740   32.9880 C   0  0  0  0  0  0  0  0  0  0  0  0
   20.5750    5.8650   32.4270 C   0  0  0  0  0  0  0  0  0  0  0  0
   23.0310    7.7650   30.2620 C   0  0  2  0  0  0  0  0  0  0  0  0
   24.1730    7.6930   31.1660 N   0  0  0  0  0  0  0  0  0  0  0  0
   24.9360    8.8290   31.3900 C   0  0  0  0  0  0  0  0  0  0  0  0
   24.3060   10.1940   31.2110 C   0  0  0  0  0  0  0  0  0  0  0  0
   23.2500   10.2100   30.2950 N   0  0  0  0  0  0  0  0  0  0  0  0
   22.9910    9.0270   29.5320 C   0  0  0  0  0  0  0  0  0  0  0  0
   22.3810   11.3010   30.0340 C   0  0  0  0  0  0  0  0  0  0  0  0
   21.4400   10.9820   29.1760 O   0  0  0  0  0  0  0  0  0  0  0  0
   22.3230   12.6360   30.5090 C   0  0  0  0  0  0  0  0  0  0  0  0
   22.7780   12.8730   31.8290 C   0  0  0  0  0  0  0  0  0  0  0  0
   22.8840   14.1120   32.3100 N   0  0  0  0  0  0  0  0  0  0  0  0
   22.5700   15.1810   31.5770 C   0  0  0  0  0  0  0  0  0  0  0  0
   22.1250   15.0150   30.2930 C   0  0  0  0  0  0  0  0  0  0  0  0
   21.9990   13.7370   29.7530 C   0  0  0  0  0  0  0  0  0  0  0  0
   21.8180   16.1550   29.4860 N   0  0  0  0  0  0  0  0  0  0  0  0
   21.9880   17.4560   30.0510 C   0  0  0  0  0  0  0  0  0  0  0  0
   22.1790   18.4940   29.3850 O   0  0  0  0  0  0  0  0  0  0  0  0
   21.9310   17.5620   31.5420 C   0  0  0  0  0  0  0  0  0  0  0  0
   22.6850   16.4740   32.1000 O   0  0  0  0  0  0  0  0  0  0  0  0
   21.2490    9.5670   31.4700 H   0  0  0  0  0  0  0  0  0  0  0  0
   19.4650    8.9940   33.0510 H   0  0  0  0  0  0  0  0  0  0  0  0
   18.9910    6.6680   33.7030 H   0  0  0  0  0  0  0  0  0  0  0  0
   20.4060    4.8330   32.6800 H   0  0  0  0  0  0  0  0  0  0  0  0
   23.1160    6.8680   29.5950 H   0  0  0  0  0  0  0  0  0  0  0  0
   23.9150    7.1870   32.0370 H   0  0  0  0  0  0  0  0  0  0  0  0
   25.2930    8.7960   32.4770 H   0  0  0  0  0  0  0  0  0  0  0  0
   25.8990    8.7940   30.7890 H   0  0  0  0  0  0  0  0  0  0  0  0
   25.1520   10.8190   30.6140 H   0  0  0  0  0  0  0  0  0  0  0  0
   24.2530   10.7420   32.1480 H   0  0  0  0  0  0  0  0  0  0  0  0
   22.0290    9.1630   28.9530 H   0  0  0  0  0  0  0  0  0  0  0  0
   23.7610    8.9680   28.6700 H   0  0  0  0  0  0  0  0  0  0  0  0
   23.0380   12.0130   32.4430 H   0  0  0  0  0  0  0  0  0  0  0  0
   21.6880   13.6950   28.7580 H   0  0  0  0  0  0  0  0  0  0  0  0
   21.4870   16.0600   28.5140 H   0  0  0  0  0  0  0  0  0  0  0  0
   20.9150   17.4900   31.9360 H   0  0  0  0  0  0  0  0  0  0  0  0
   22.4000   18.4900   31.9140 H   0  0  0  0  0  0  0  0  0  0  0  0
  1  2  1  0  0  0  0
  2  7  1  0  0  0  0
  3  2  2  0  0  0  0
  3  4  1  0  0  0  0
  4  5  2  0  0  0  0
  5  6  1  0  0  0  0
  5 28  1  0  0  0  0
  6 29  1  0  0  0  0
  7 30  1  0  0  0  0
  7  6  2  0  0  0  0
  8 31  1  6  0  0  0
  8  3  1  0  0  0  0
  8  9  1  0  0  0  0
  9 10  1  0  0  0  0
  9 32  1  0  0  0  0
 10 33  1  0  0  0  0
 11 10  1  0  0  0  0
 11 36  1  0  0  0  0
 12 11  1  0  0  0  0
 13  8  1  0  0  0  0
 13 12  1  0  0  0  0
 14 12  1  0  0  0  0
 14 16  1  0  0  0  0
 15 14  2  0  0  0  0
 16 17  2  0  0  0  0
 17 18  1  0  0  0  0
 17 39  1  0  0  0  0
 19 26  1  0  0  0  0
 19 18  2  0  0  0  0
 20 19  1  0  0  0  0
 21 20  2  0  0  0  0
 21 16  1  0  0  0  0
 22 23  1  0  0  0  0
 22 20  1  0  0  0  0
 23 25  1  0  0  0  0
 24 23  2  0  0  0  0
 25 43  1  0  0  0  0
 25 42  1  0  0  0  0
 25 26  1  0  0  0  0
 27  4  1  0  0  0  0
 34 10  1  0  0  0  0
 35 11  1  0  0  0  0
 37 13  1  0  0  0  0
 38 13  1  0  0  0  0
 40 21  1  0  0  0  0
 41 22  1  0  0  0  0
M  END
>  <Pose>
1

>  <Score>
-6.23

$$$$
