
 OpenBabel03202209553D

 63 66  0  0  1  0  0  0  0  0999 V2000
   26.4690    3.7260   27.8580 B   0  0  0  0  0  0  0  0  0  0  0  0
   26.2460    5.4670   28.6400 C   0  0  0  0  0  0  0  0  0  0  0  0
   24.9780    5.9060   29.0370 C   0  0  0  0  0  0  0  0  0  0  0  0
   24.7900    7.1580   29.6040 C   0  0  0  0  0  0  0  0  0  0  0  0
   25.9020    7.9400   29.7540 C   0  0  0  0  0  0  0  0  0  0  0  0
   27.1680    7.5220   29.3650 C   0  0  0  0  0  0  0  0  0  0  0  0
   27.3390    6.2780   28.8060 C   0  0  0  0  0  0  0  0  0  0  0  0
   23.4410    7.6000   29.9890 C   0  0  1  0  0  0  0  0  0  0  0  0
   23.0590    7.0120   31.2570 N   0  0  0  0  0  0  0  0  0  0  0  0
   23.6830    7.7780   32.2720 C   0  0  0  0  0  0  0  0  0  0  0  0
   23.9800    7.3680   33.3990 O   0  0  0  0  0  0  0  0  0  0  0  0
   23.8930    9.1240   31.7100 C   0  0  0  0  0  0  0  0  0  0  0  0
   24.4090   10.1190   32.2740 O   0  0  0  0  0  0  0  0  0  0  0  0
   23.3650    9.0540   30.3530 C   0  0  0  0  0  0  0  0  0  0  0  0
   22.8980   10.0800   29.6560 C   0  0  0  0  0  0  0  0  0  0  0  0
   22.3920    9.7630   28.3730 O   0  0  0  0  0  0  0  0  0  0  0  0
   22.8860   11.4570   30.1360 C   0  0  0  0  0  0  0  0  0  0  0  0
   23.7980   12.4060   29.7830 C   0  0  0  0  0  0  0  0  0  0  0  0
   23.7420   13.6990   30.3340 C   0  0  0  0  0  0  0  0  0  0  0  0
   22.7850   14.0730   31.2380 C   0  0  0  0  0  0  0  0  0  0  0  0
   21.8600   13.1160   31.5960 C   0  0  0  0  0  0  0  0  0  0  0  0
   21.9050   11.8530   31.0660 C   0  0  0  0  0  0  0  0  0  0  0  0
   22.7240   15.3550   31.7860 O   0  0  0  0  0  0  0  0  0  0  0  0
   22.8030   15.5430   33.1760 C   0  0  0  0  0  0  0  0  0  0  0  0
   24.8400   12.1070   28.7730 C   0  0  0  0  0  0  0  0  0  0  0  0
   22.2030    5.8520   31.3940 C   0  0  0  0  0  0  0  0  0  0  0  0
   20.9600    6.1140   32.1850 C   0  0  0  0  0  0  0  0  0  0  0  0
   20.5760    7.5360   32.3380 C   0  0  0  0  0  0  0  0  0  0  0  0
   19.2830    7.7690   32.8780 N   0  0  0  0  0  4  0  0  0  0  0  0
   18.9340    9.1960   32.9770 C   0  0  0  0  0  0  0  0  0  0  0  0
   17.8460    9.2690   34.0510 C   0  0  0  0  0  0  0  0  0  0  0  0
   17.3480    8.0200   34.3720 O   0  0  0  0  0  0  0  0  0  0  0  0
   16.9790    7.3190   33.2230 C   0  0  0  0  0  0  0  0  0  0  0  0
   18.1770    7.1190   32.2760 C   0  0  0  0  0  0  0  0  0  0  0  0
   24.1750    5.2240   28.8770 H   0  0  0  0  0  0  0  0  0  0  0  0
   25.8030    8.9140   30.1690 H   0  0  0  0  0  0  0  0  0  0  0  0
   28.0360    8.1460   29.4900 H   0  0  0  0  0  0  0  0  0  0  0  0
   28.3100    5.8950   28.4820 H   0  0  0  0  0  0  0  0  0  0  0  0
   22.7560    7.3360   29.1560 H   0  0  0  0  0  0  0  0  0  0  0  0
   24.4880   14.4460   30.0370 H   0  0  0  0  0  0  0  0  0  0  0  0
   21.0960   13.4200   32.3190 H   0  0  0  0  0  0  0  0  0  0  0  0
   21.1720   11.1210   31.3580 H   0  0  0  0  0  0  0  0  0  0  0  0
   21.9610   15.0290   33.7140 H   0  0  0  0  0  0  0  0  0  0  0  0
   22.7240   16.5980   33.4560 H   0  0  0  0  0  0  0  0  0  0  0  0
   23.7270   15.1300   33.6360 H   0  0  0  0  0  0  0  0  0  0  0  0
   25.2260   11.0810   28.7970 H   0  0  0  0  0  0  0  0  0  0  0  0
   25.7460   12.7620   28.9580 H   0  0  0  0  0  0  0  0  0  0  0  0
   24.5010   12.4210   27.7440 H   0  0  0  0  0  0  0  0  0  0  0  0
   21.8820    5.5630   30.3640 H   0  0  0  0  0  0  0  0  0  0  0  0
   22.7280    4.9670   31.7960 H   0  0  0  0  0  0  0  0  0  0  0  0
   20.1580    5.4870   31.7020 H   0  0  0  0  0  0  0  0  0  0  0  0
   21.0860    5.6380   33.2060 H   0  0  0  0  0  0  0  0  0  0  0  0
   20.5950    7.9950   31.3170 H   0  0  0  0  0  0  0  0  0  0  0  0
   21.3630    8.0550   32.9260 H   0  0  0  0  0  0  0  0  0  0  0  0
   19.3120    7.4410   33.8910 H   0  0  0  0  0  0  0  0  0  0  0  0
   19.7910    9.8250   33.2300 H   0  0  0  0  0  0  0  0  0  0  0  0
   18.5340    9.4930   31.9780 H   0  0  0  0  0  0  0  0  0  0  0  0
   18.3030    9.6720   35.0020 H   0  0  0  0  0  0  0  0  0  0  0  0
   17.0890   10.0070   33.7680 H   0  0  0  0  0  0  0  0  0  0  0  0
   16.1650    7.9030   32.7430 H   0  0  0  0  0  0  0  0  0  0  0  0
   16.5220    6.3470   33.5120 H   0  0  0  0  0  0  0  0  0  0  0  0
   17.8640    7.5490   31.3060 H   0  0  0  0  0  0  0  0  0  0  0  0
   18.3350    6.0270   32.2230 H   0  0  0  0  0  0  0  0  0  0  0  0
  1  2  1  0  0  0  0
  2  7  2  0  0  0  0
  2  3  1  0  0  0  0
  3  4  2  0  0  0  0
  4  5  1  0  0  0  0
  4  8  1  0  0  0  0
  5 36  1  0  0  0  0
  6 37  1  0  0  0  0
  6  5  2  0  0  0  0
  7  6  1  0  0  0  0
  8 39  1  6  0  0  0
  8 14  1  0  0  0  0
  8  9  1  0  0  0  0
  9 26  1  0  0  0  0
  9 10  1  0  0  0  0
 10 11  2  0  0  0  0
 12 10  1  0  0  0  0
 12 13  2  0  0  0  0
 14 12  1  0  0  0  0
 15 17  1  0  0  0  0
 15 14  2  0  0  0  0
 16 15  1  0  0  0  0
 17 22  1  0  0  0  0
 18 17  2  0  0  0  0
 18 19  1  0  0  0  0
 19 20  2  0  0  0  0
 20 21  1  0  0  0  0
 20 23  1  0  0  0  0
 21 41  1  0  0  0  0
 22 42  1  0  0  0  0
 22 21  2  0  0  0  0
 23 24  1  0  0  0  0
 24 44  1  0  0  0  0
 24 45  1  0  0  0  0
 24 43  1  0  0  0  0
 25 46  1  0  0  0  0
 25 47  1  0  0  0  0
 25 18  1  0  0  0  0
 26 50  1  0  0  0  0
 26 27  1  0  0  0  0
 27 28  1  0  0  0  0
 27 52  1  0  0  0  0
 28 29  1  0  0  0  0
 28 54  1  0  0  0  0
 29 30  1  0  0  0  0
 29 55  1  0  0  0  0
 30 56  1  0  0  0  0
 30 31  1  0  0  0  0
 31 32  1  0  0  0  0
 31 58  1  0  0  0  0
 33 61  1  0  0  0  0
 33 32  1  0  0  0  0
 34 29  1  0  0  0  0
 34 33  1  0  0  0  0
 35  3  1  0  0  0  0
 38  7  1  0  0  0  0
 40 19  1  0  0  0  0
 48 25  1  0  0  0  0
 49 26  1  0  0  0  0
 51 27  1  0  0  0  0
 53 28  1  0  0  0  0
 57 30  1  0  0  0  0
 59 31  1  0  0  0  0
 60 33  1  0  0  0  0
 62 34  1  0  0  0  0
 63 34  1  0  0  0  0
M  END
>  <Pose>
1

>  <Score>
-5.92

$$$$
