
 OpenBabel03202209553D

 60 63  0  0  1  0  0  0  0  0999 V2000
   19.5940    6.6390   32.6960 B   0  0  0  0  0  0  0  0  0  0  0  0
   20.1240    8.4720   32.5960 C   0  0  0  0  0  0  0  0  0  0  0  0
   21.0500    8.8620   31.6800 C   0  0  0  0  0  0  0  0  0  0  0  0
   21.4490   10.2000   31.5940 C   0  0  0  0  0  0  0  0  0  0  0  0
   20.8750   11.1000   32.4650 C   0  0  0  0  0  0  0  0  0  0  0  0
   19.9300   10.7020   33.4020 C   0  0  0  0  0  0  0  0  0  0  0  0
   19.5580    9.3790   33.4600 C   0  0  0  0  0  0  0  0  0  0  0  0
   22.4550   10.5510   30.5830 C   0  0  1  0  0  0  0  0  0  0  0  0
   23.1800   11.7770   30.8510 N   0  0  0  0  0  0  0  0  0  0  0  0
   24.2290   11.4750   31.7960 C   0  0  0  0  0  0  0  0  0  0  0  0
   24.7920   12.2500   32.5780 O   0  0  0  0  0  0  0  0  0  0  0  0
   24.4800   10.0470   31.6250 C   0  0  0  0  0  0  0  0  0  0  0  0
   25.3120    9.3140   32.2370 O   0  0  0  0  0  0  0  0  0  0  0  0
   23.5840    9.5520   30.5930 C   0  0  0  0  0  0  0  0  0  0  0  0
   23.6960    8.4570   29.8590 C   0  0  0  0  0  0  0  0  0  0  0  0
   22.6400    8.1610   28.9510 O   0  0  0  0  0  0  0  0  0  0  0  0
   24.8440    7.5900   29.9570 C   0  0  0  0  0  0  0  0  0  0  0  0
   24.8870    6.2940   30.3310 N   0  0  0  0  0  0  0  0  0  0  0  0
   26.1700    5.8650   30.2450 C   0  0  0  0  0  0  0  0  0  0  0  0
   26.9590    6.8870   29.8130 N   0  0  0  0  0  0  0  0  0  0  0  0
   26.1310    7.9450   29.6400 C   0  0  0  0  0  0  0  0  0  0  0  0
   26.5790    9.2860   29.1730 C   0  0  0  0  0  0  0  0  0  0  0  0
   26.5900    4.5980   30.5610 C   0  0  0  0  0  0  0  0  0  0  0  0
   25.6400    3.7020   30.9990 C   0  0  0  0  0  0  0  0  0  0  0  0
   24.3330    4.1350   31.0900 C   0  0  0  0  0  0  0  0  0  0  0  0
   23.9680    5.4120   30.7600 C   0  0  0  0  0  0  0  0  0  0  0  0
   28.0160    4.1790   30.4440 C   0  0  0  0  0  0  0  0  0  0  0  0
   22.9100   13.0880   30.2850 C   0  0  0  0  0  0  0  0  0  0  0  0
   22.1320   13.9930   31.1780 C   0  0  0  0  0  0  0  0  0  0  0  0
   22.3720   15.4650   30.9520 C   0  0  0  0  0  0  0  0  0  0  0  0
   22.0740   16.1990   32.1590 N   0  0  0  0  0  4  0  0  0  0  0  0
   23.1610   16.0720   33.1130 C   0  0  0  0  0  0  0  0  0  0  0  0
   21.9780   17.6060   31.8270 C   0  0  0  0  0  0  0  0  0  0  0  0
   21.4650    8.1010   31.0200 H   0  0  0  0  0  0  0  0  0  0  0  0
   21.1640   12.1560   32.4310 H   0  0  0  0  0  0  0  0  0  0  0  0
   19.4820   11.4250   34.0870 H   0  0  0  0  0  0  0  0  0  0  0  0
   18.8190    9.0540   34.1890 H   0  0  0  0  0  0  0  0  0  0  0  0
   21.9720   10.5720   29.5830 H   0  0  0  0  0  0  0  0  0  0  0  0
   26.4430   10.0410   29.9630 H   0  0  0  0  0  0  0  0  0  0  0  0
   26.0220    9.5970   28.2670 H   0  0  0  0  0  0  0  0  0  0  0  0
   27.6460    9.2770   28.9090 H   0  0  0  0  0  0  0  0  0  0  0  0
   25.9280    2.6780   31.2630 H   0  0  0  0  0  0  0  0  0  0  0  0
   23.5740    3.4080   31.4440 H   0  0  0  0  0  0  0  0  0  0  0  0
   22.9370    5.7440   30.8390 H   0  0  0  0  0  0  0  0  0  0  0  0
   28.6360    5.0410   30.1630 H   0  0  0  0  0  0  0  0  0  0  0  0
   28.1170    3.3320   29.7230 H   0  0  0  0  0  0  0  0  0  0  0  0
   28.3210    3.8660   31.4780 H   0  0  0  0  0  0  0  0  0  0  0  0
   22.3190   12.9260   29.3620 H   0  0  0  0  0  0  0  0  0  0  0  0
   23.8480   13.5860   29.9670 H   0  0  0  0  0  0  0  0  0  0  0  0
   22.2950   13.7640   32.2590 H   0  0  0  0  0  0  0  0  0  0  0  0
   21.0440   13.8280   31.0140 H   0  0  0  0  0  0  0  0  0  0  0  0
   23.4310   15.6840   30.7020 H   0  0  0  0  0  0  0  0  0  0  0  0
   21.7440   15.8460   30.1440 H   0  0  0  0  0  0  0  0  0  0  0  0
   21.1550   15.9320   32.5740 H   0  0  0  0  0  0  0  0  0  0  0  0
   23.1910   16.9670   33.7970 H   0  0  0  0  0  0  0  0  0  0  0  0
   24.1080   16.1740   32.5050 H   0  0  0  0  0  0  0  0  0  0  0  0
   23.1650   15.1260   33.6580 H   0  0  0  0  0  0  0  0  0  0  0  0
   21.7130   18.2120   32.7330 H   0  0  0  0  0  0  0  0  0  0  0  0
   21.2640   17.7900   30.9970 H   0  0  0  0  0  0  0  0  0  0  0  0
   22.9830   17.9320   31.4910 H   0  0  0  0  0  0  0  0  0  0  0  0
  2  1  1  0  0  0  0
  2  7  1  0  0  0  0
  3  2  2  0  0  0  0
  4  3  1  0  0  0  0
  4  5  2  0  0  0  0
  5  6  1  0  0  0  0
  6  7  2  0  0  0  0
  6 36  1  0  0  0  0
  7 37  1  0  0  0  0
  8 38  1  6  0  0  0
  8 14  1  0  0  0  0
  8  9  1  0  0  0  0
  8  4  1  0  0  0  0
  9 10  1  0  0  0  0
 10 11  2  0  0  0  0
 12 10  1  0  0  0  0
 12 13  2  0  0  0  0
 14 12  1  0  0  0  0
 15 17  1  0  0  0  0
 15 14  2  0  0  0  0
 16 15  1  0  0  0  0
 17 18  1  0  0  0  0
 18 26  1  0  0  0  0
 19 18  1  0  0  0  0
 19 23  1  0  0  0  0
 20 19  2  0  0  0  0
 21 20  1  0  0  0  0
 21 17  2  0  0  0  0
 22 21  1  0  0  0  0
 22 39  1  0  0  0  0
 23 24  2  0  0  0  0
 24 25  1  0  0  0  0
 24 42  1  0  0  0  0
 25 43  1  0  0  0  0
 26 44  1  0  0  0  0
 26 25  2  0  0  0  0
 27 23  1  0  0  0  0
 27 47  1  0  0  0  0
 28  9  1  0  0  0  0
 28 29  1  0  0  0  0
 29 50  1  0  0  0  0
 30 29  1  0  0  0  0
 30 31  1  0  0  0  0
 31 54  1  0  0  0  0
 31 32  1  0  0  0  0
 32 57  1  0  0  0  0
 32 55  1  0  0  0  0
 33 31  1  0  0  0  0
 33 58  1  0  0  0  0
 34  3  1  0  0  0  0
 35  5  1  0  0  0  0
 40 22  1  0  0  0  0
 41 22  1  0  0  0  0
 45 27  1  0  0  0  0
 46 27  1  0  0  0  0
 48 28  1  0  0  0  0
 49 28  1  0  0  0  0
 51 29  1  0  0  0  0
 52 30  1  0  0  0  0
 53 30  1  0  0  0  0
 56 32  1  0  0  0  0
 59 33  1  0  0  0  0
 60 33  1  0  0  0  0
M  END
>  <Pose>
1

>  <Score>
-6.26

$$$$
