
 OpenBabel03202209553D

 31 34  0  0  1  0  0  0  0  0999 V2000
   23.3570    9.1140   29.9620 B   0  0  0  0  0  0  0  0  0  0  0  0
   22.0080    8.9560   31.3130 C   0  0  0  0  0  0  0  0  0  0  0  0
   21.7110   10.0940   32.0260 C   0  0  0  0  0  0  0  0  0  0  0  0
   20.7290    9.9700   33.0100 C   0  0  0  0  0  0  0  0  0  0  0  0
   20.1070    8.7650   33.2370 C   0  0  0  0  0  0  0  0  0  0  0  0
   20.4070    7.6190   32.5190 C   0  0  0  0  0  0  0  0  0  0  0  0
   21.3780    7.7350   31.5430 C   0  0  0  0  0  0  0  0  0  0  0  0
   19.7450    6.3870   32.7750 N   0  0  0  0  0  0  0  0  0  0  0  0
   18.5580    6.4230   33.1430 O   0  0  0  0  0  0  0  0  0  0  0  0
   20.3270    5.1570   32.6410 O   0  0  0  0  0  0  0  0  0  0  0  0
   22.3640   11.3280   31.7670 N   0  0  0  0  0  0  0  0  0  0  0  0
   21.8420   12.6020   31.4390 C   0  0  0  0  0  0  0  0  0  0  0  0
   20.6720   12.9960   31.6240 O   0  0  0  0  0  0  0  0  0  0  0  0
   22.8880   13.4470   30.8250 C   0  0  2  0  0  0  0  0  0  0  0  0
   22.7330   13.3100   29.3260 C   0  0  2  0  0  0  0  0  0  0  0  0
   23.2600   12.0030   29.1460 O   0  0  0  0  0  0  0  0  0  0  0  0
   24.5550   12.2870   29.6550 C   0  0  2  0  0  0  0  0  0  0  0  0
   24.1970   12.6970   31.0590 C   0  0  2  0  0  0  0  0  0  0  0  0
   23.7850   11.4860   31.8020 C   0  0  0  0  0  0  0  0  0  0  0  0
   24.5810   10.6860   32.3940 O   0  0  0  0  0  0  0  0  0  0  0  0
   24.9090   13.4430   28.8050 C   0  0  0  0  0  0  0  0  0  0  0  0
   23.7700   14.1050   28.6210 C   0  0  0  0  0  0  0  0  0  0  0  0
   20.4730   10.8520   33.5920 H   0  0  0  0  0  0  0  0  0  0  0  0
   19.3360    8.6630   34.0070 H   0  0  0  0  0  0  0  0  0  0  0  0
   21.6560    6.8870   30.9540 H   0  0  0  0  0  0  0  0  0  0  0  0
   22.9090   14.4710   31.1820 H   0  0  0  0  0  0  0  0  0  0  0  0
   21.7220   13.4210   28.9650 H   0  0  0  0  0  0  0  0  0  0  0  0
   25.2230   11.4350   29.5810 H   0  0  0  0  0  0  0  0  0  0  0  0
   24.9370   13.3010   31.5750 H   0  0  0  0  0  0  0  0  0  0  0  0
   25.8920   13.6820   28.4250 H   0  0  0  0  0  0  0  0  0  0  0  0
   23.6090   15.0340   28.0740 H   0  0  0  0  0  0  0  0  0  0  0  0
  1  2  1  0  0  0  0
  2  7  2  0  0  0  0
  2  3  1  0  0  0  0
  3  4  2  0  0  0  0
  4  5  1  0  0  0  0
  4 23  1  0  0  0  0
  5 24  1  0  0  0  0
  6  8  1  0  0  0  0
  6  5  2  0  0  0  0
  7  6  1  0  0  0  0
  8  9  2  0  0  0  0
 10  8  2  0  0  0  0
 11 19  1  0  0  0  0
 11  3  1  0  0  0  0
 12 13  2  0  0  0  0
 12 11  1  0  0  0  0
 14 18  1  0  0  0  0
 14 26  1  1  0  0  0
 14 12  1  0  0  0  0
 15 27  1  6  0  0  0
 15 14  1  0  0  0  0
 16 15  1  0  0  0  0
 16 17  1  0  0  0  0
 17 28  1  6  0  0  0
 17 18  1  0  0  0  0
 18 29  1  1  0  0  0
 18 19  1  0  0  0  0
 19 20  2  0  0  0  0
 21 17  1  0  0  0  0
 22 21  2  0  0  0  0
 22 15  1  0  0  0  0
 25  7  1  0  0  0  0
 30 21  1  0  0  0  0
 31 22  1  0  0  0  0
M  END
>  <Pose>
1

>  <Score>
-6.09

$$$$
