
 OpenBabel03202209553D

 39 42  0  0  1  0  0  0  0  0999 V2000
   23.2720    5.9750   30.0780 B   0  0  0  0  0  0  0  0  0  0  0  0
   22.3940    7.3520   31.0550 C   0  0  0  0  0  0  0  0  0  0  0  0
   21.2990    7.0200   31.8180 C   0  0  0  0  0  0  0  0  0  0  0  0
   20.6840    8.0350   32.5140 C   0  0  0  0  0  0  0  0  0  0  0  0
   21.1660    9.3470   32.4390 C   0  0  0  0  0  0  0  0  0  0  0  0
   22.2630    9.6950   31.6780 C   0  0  0  0  0  0  0  0  0  0  0  0
   22.8710    8.6630   30.9830 C   0  0  0  0  0  0  0  0  0  0  0  0
   22.7540   11.0260   31.6000 N   0  0  0  0  0  0  0  0  0  0  0  0
   24.1210   11.4050   31.7060 C   0  0  0  0  0  0  0  0  0  0  0  0
   25.0290   10.8130   32.3300 O   0  0  0  0  0  0  0  0  0  0  0  0
   24.3480   12.6660   30.9370 C   0  0  1  0  0  0  0  0  0  0  0  0
   24.6590   12.4010   29.5020 C   0  0  1  0  0  0  0  0  0  0  0  0
   23.3850   12.1230   28.9450 O   0  0  0  0  0  0  0  0  0  0  0  0
   22.7750   13.3400   29.3420 C   0  0  1  0  0  0  0  0  0  0  0  0
   22.9480   13.2650   30.8230 C   0  0  1  0  0  0  0  0  0  0  0  0
   22.0440   12.2410   31.3990 C   0  0  0  0  0  0  0  0  0  0  0  0
   20.8370   12.4220   31.6660 O   0  0  0  0  0  0  0  0  0  0  0  0
   23.7510   14.3010   28.7440 C   0  0  0  0  0  0  0  0  0  0  0  0
   24.9500   13.6980   28.8340 C   0  0  0  0  0  0  0  0  0  0  0  0
   21.3960   13.4830   28.8570 C   0  0  0  0  0  0  0  0  0  0  0  0
   25.6520   11.3440   29.2440 C   0  0  0  0  0  0  0  0  0  0  0  0
   26.9220   11.6970   29.6950 O   0  0  0  0  0  0  0  0  0  0  0  0
   20.7830    5.6220   31.9020 C   0  0  0  0  0  0  0  0  0  0  0  0
   19.8140    7.8200   33.1290 H   0  0  0  0  0  0  0  0  0  0  0  0
   20.6540   10.1160   33.0040 H   0  0  0  0  0  0  0  0  0  0  0  0
   23.7430    8.8940   30.3730 H   0  0  0  0  0  0  0  0  0  0  0  0
   25.0460   13.3300   31.4490 H   0  0  0  0  0  0  0  0  0  0  0  0
   22.8720   14.2360   31.3490 H   0  0  0  0  0  0  0  0  0  0  0  0
   23.4980   15.2540   28.3440 H   0  0  0  0  0  0  0  0  0  0  0  0
   25.8910   14.1020   28.4850 H   0  0  0  0  0  0  0  0  0  0  0  0
   20.6560   13.8560   29.5860 H   0  0  0  0  0  0  0  0  0  0  0  0
   21.3690   14.1740   27.9860 H   0  0  0  0  0  0  0  0  0  0  0  0
   21.0090   12.4970   28.4670 H   0  0  0  0  0  0  0  0  0  0  0  0
   25.7320   11.1540   28.1600 H   0  0  0  0  0  0  0  0  0  0  0  0
   25.3900   10.4150   29.7890 H   0  0  0  0  0  0  0  0  0  0  0  0
   26.9010   12.3890   30.4130 H   0  0  0  0  0  0  0  0  0  0  0  0
   21.1070    5.1170   30.9720 H   0  0  0  0  0  0  0  0  0  0  0  0
   21.2770    5.0570   32.7320 H   0  0  0  0  0  0  0  0  0  0  0  0
   19.7090    5.5800   32.0770 H   0  0  0  0  0  0  0  0  0  0  0  0
  1  2  1  0  0  0  0
  2  3  1  0  0  0  0
  3 23  1  0  0  0  0
  3  4  2  0  0  0  0
  4 24  1  0  0  0  0
  5  4  1  0  0  0  0
  5 25  1  0  0  0  0
  6  5  2  0  0  0  0
  7  2  2  0  0  0  0
  7  6  1  0  0  0  0
  8  6  1  0  0  0  0
  8  9  1  0  0  0  0
  9 10  2  0  0  0  0
 11 27  1  1  0  0  0
 11  9  1  0  0  0  0
 12 21  1  6  0  0  0
 12 11  1  0  0  0  0
 13 14  1  0  0  0  0
 13 12  1  0  0  0  0
 14 20  1  6  0  0  0
 14 15  1  0  0  0  0
 15 11  1  0  0  0  0
 15 28  1  1  0  0  0
 15 16  1  0  0  0  0
 16  8  1  0  0  0  0
 16 17  2  0  0  0  0
 18 19  2  0  0  0  0
 18 14  1  0  0  0  0
 19 12  1  0  0  0  0
 20 31  1  0  0  0  0
 21 22  1  0  0  0  0
 21 35  1  0  0  0  0
 22 36  1  0  0  0  0
 23 39  1  0  0  0  0
 23 38  1  0  0  0  0
 26  7  1  0  0  0  0
 29 18  1  0  0  0  0
 30 19  1  0  0  0  0
 32 20  1  0  0  0  0
 33 20  1  0  0  0  0
 34 21  1  0  0  0  0
 37 23  1  0  0  0  0
M  END
>  <Pose>
1

>  <Score>
-5.26

$$$$
