
 OpenBabel03202209553D

 54 57  0  0  1  0  0  0  0  0999 V2000
   18.6560    9.0750   33.6560 B   0  0  0  0  0  0  0  0  0  0  0  0
   19.9070    7.8860   32.8060 C   0  0  0  0  0  0  0  0  0  0  0  0
   21.1150    8.3750   32.3030 C   0  0  0  0  0  0  0  0  0  0  0  0
   22.0430    7.5740   31.6900 C   0  0  0  0  0  0  0  0  0  0  0  0
   21.7120    6.2120   31.5910 C   0  0  0  0  0  0  0  0  0  0  0  0
   20.5250    5.7170   32.0800 C   0  0  0  0  0  0  0  0  0  0  0  0
   19.6110    6.5450   32.6930 C   0  0  0  0  0  0  0  0  0  0  0  0
   23.3220    8.0320   31.1390 C   0  0  1  0  0  0  0  0  0  0  0  0
   23.7080    7.3810   29.9060 N   0  0  0  0  0  0  0  0  0  0  0  0
   22.9830    8.0110   28.8640 C   0  0  0  0  0  0  0  0  0  0  0  0
   22.6420    7.5270   27.7570 O   0  0  0  0  0  0  0  0  0  0  0  0
   22.6990    9.3680   29.3340 C   0  0  0  0  0  0  0  0  0  0  0  0
   22.0800   10.2900   28.7550 O   0  0  0  0  0  0  0  0  0  0  0  0
   23.3000    9.4550   30.6740 C   0  0  0  0  0  0  0  0  0  0  0  0
   23.6740   10.5650   31.2700 C   0  0  0  0  0  0  0  0  0  0  0  0
   24.1840   10.4480   32.5690 O   0  0  0  0  0  0  0  0  0  0  0  0
   23.5790   11.8870   30.6190 C   0  0  0  0  0  0  0  0  0  0  0  0
   24.2570   12.3530   29.6130 O   0  0  0  0  0  0  0  0  0  0  0  0
   23.8920   13.5770   29.3080 C   0  0  0  0  0  0  0  0  0  0  0  0
   22.8860   13.9740   30.1740 C   0  0  0  0  0  0  0  0  0  0  0  0
   22.7000   12.8830   31.0010 C   0  0  0  0  0  0  0  0  0  0  0  0
   22.3240   15.2270   30.0640 C   0  0  0  0  0  0  0  0  0  0  0  0
   22.7280   16.1290   29.1060 C   0  0  0  0  0  0  0  0  0  0  0  0
   23.7280   15.7500   28.2370 C   0  0  0  0  0  0  0  0  0  0  0  0
   24.2990   14.4830   28.3450 C   0  0  0  0  0  0  0  0  0  0  0  0
   24.6650    6.3020   29.6720 C   0  0  0  0  0  0  0  0  0  0  0  0
   25.8860    6.8240   28.9400 C   0  0  0  0  0  0  0  0  0  0  0  0
   26.5050    8.0180   29.6190 C   0  0  0  0  0  0  0  0  0  0  0  0
   27.9270    7.9410   29.5250 N   0  0  0  0  0  4  0  0  0  0  0  0
   28.3920    6.7770   28.8000 C   0  0  0  0  0  0  0  0  0  0  0  0
   28.5680    9.0910   28.9630 C   0  0  0  0  0  0  0  0  0  0  0  0
   21.3180    9.4270   32.4100 H   0  0  0  0  0  0  0  0  0  0  0  0
   22.4290    5.5520   31.1110 H   0  0  0  0  0  0  0  0  0  0  0  0
   20.2710    4.6640   32.0040 H   0  0  0  0  0  0  0  0  0  0  0  0
   18.6580    6.1700   33.0910 H   0  0  0  0  0  0  0  0  0  0  0  0
   24.1160    7.8870   31.9110 H   0  0  0  0  0  0  0  0  0  0  0  0
   21.9840   12.8240   31.7930 H   0  0  0  0  0  0  0  0  0  0  0  0
   21.5420   15.5300   30.7390 H   0  0  0  0  0  0  0  0  0  0  0  0
   22.3190   17.1210   28.9810 H   0  0  0  0  0  0  0  0  0  0  0  0
   24.0630   16.4510   27.4700 H   0  0  0  0  0  0  0  0  0  0  0  0
   25.0820   14.2310   27.6390 H   0  0  0  0  0  0  0  0  0  0  0  0
   25.0280    5.8450   30.6140 H   0  0  0  0  0  0  0  0  0  0  0  0
   24.2000    5.5040   29.0710 H   0  0  0  0  0  0  0  0  0  0  0  0
   25.5030    7.1930   27.9600 H   0  0  0  0  0  0  0  0  0  0  0  0
   26.6180    6.0380   28.7460 H   0  0  0  0  0  0  0  0  0  0  0  0
   26.2350    8.0720   30.6970 H   0  0  0  0  0  0  0  0  0  0  0  0
   26.1760    8.9560   29.1160 H   0  0  0  0  0  0  0  0  0  0  0  0
   28.3010    7.8320   30.5150 H   0  0  0  0  0  0  0  0  0  0  0  0
   29.4260    6.5250   29.1660 H   0  0  0  0  0  0  0  0  0  0  0  0
   28.5010    7.0260   27.7290 H   0  0  0  0  0  0  0  0  0  0  0  0
   27.7050    5.9420   28.9890 H   0  0  0  0  0  0  0  0  0  0  0  0
   28.6220    9.0790   27.8580 H   0  0  0  0  0  0  0  0  0  0  0  0
   29.6200    9.1090   29.3120 H   0  0  0  0  0  0  0  0  0  0  0  0
   28.1220   10.0540   29.3510 H   0  0  0  0  0  0  0  0  0  0  0  0
  2  1  1  0  0  0  0
  3 32  1  0  0  0  0
  3  2  2  0  0  0  0
  4  3  1  0  0  0  0
  5  4  2  0  0  0  0
  5  6  1  0  0  0  0
  6  7  2  0  0  0  0
  7  2  1  0  0  0  0
  7 35  1  0  0  0  0
  8  4  1  0  0  0  0
  8 36  1  1  0  0  0
  9  8  1  0  0  0  0
 10 12  1  0  0  0  0
 10  9  1  0  0  0  0
 11 10  2  0  0  0  0
 12 14  1  0  0  0  0
 13 12  2  0  0  0  0
 14  8  1  0  0  0  0
 14 15  2  0  0  0  0
 15 16  1  0  0  0  0
 17 21  2  0  0  0  0
 17 15  1  0  0  0  0
 18 17  1  0  0  0  0
 19 18  1  0  0  0  0
 19 20  1  0  0  0  0
 20 21  1  0  0  0  0
 21 37  1  0  0  0  0
 22 20  2  0  0  0  0
 22 38  1  0  0  0  0
 23 22  1  0  0  0  0
 24 25  1  0  0  0  0
 24 23  2  0  0  0  0
 25 19  2  0  0  0  0
 26  9  1  0  0  0  0
 26 42  1  0  0  0  0
 27 28  1  0  0  0  0
 27 26  1  0  0  0  0
 28 46  1  0  0  0  0
 29 28  1  0  0  0  0
 29 48  1  0  0  0  0
 30 51  1  0  0  0  0
 30 49  1  0  0  0  0
 30 29  1  0  0  0  0
 31 53  1  0  0  0  0
 31 54  1  0  0  0  0
 31 29  1  0  0  0  0
 33  5  1  0  0  0  0
 34  6  1  0  0  0  0
 39 23  1  0  0  0  0
 40 24  1  0  0  0  0
 41 25  1  0  0  0  0
 43 26  1  0  0  0  0
 44 27  1  0  0  0  0
 45 27  1  0  0  0  0
 47 28  1  0  0  0  0
 50 30  1  0  0  0  0
 52 31  1  0  0  0  0
M  END
>  <Pose>
1

>  <Score>
-5.73

$$$$
