
 OpenBabel03202209553D

 52 55  0  0  1  0  0  0  0  0999 V2000
   17.6100    8.6660   33.7760 B   0  0  0  0  0  0  0  0  0  0  0  0
   19.1490    7.7780   33.0080 C   0  0  0  0  0  0  0  0  0  0  0  0
   20.1980    8.4950   32.5090 C   0  0  0  0  0  0  0  0  0  0  0  0
   21.2950    7.9020   31.9540 C   0  0  0  0  0  0  0  0  0  0  0  0
   21.2890    6.4990   31.9220 C   0  0  0  0  0  0  0  0  0  0  0  0
   20.2580    5.7460   32.4120 C   0  0  0  0  0  0  0  0  0  0  0  0
   19.1800    6.4020   32.9590 C   0  0  0  0  0  0  0  0  0  0  0  0
   22.4320    8.5860   31.3950 C   0  0  2  0  0  0  0  0  0  0  0  0
   23.2230    9.1200   32.2980 O   0  0  0  0  0  0  0  0  0  0  0  0
   22.8390    8.7810   29.9970 C   0  0  0  0  0  0  0  0  0  0  0  0
   23.6980    9.9270   29.7900 N   0  0  0  0  0  0  0  0  0  0  0  0
   23.2620   11.2280   29.8040 C   0  0  0  0  0  0  0  0  0  0  0  0
   24.3460   12.0020   29.5070 C   0  0  0  0  0  0  0  0  0  0  0  0
   24.2030   13.3920   29.4550 C   0  0  0  0  0  0  0  0  0  0  0  0
   22.9700   13.9580   29.7030 C   0  0  0  0  0  0  0  0  0  0  0  0
   21.8740   13.1790   30.0020 C   0  0  0  0  0  0  0  0  0  0  0  0
   22.0280   11.7910   30.0520 C   0  0  0  0  0  0  0  0  0  0  0  0
   25.4010   11.1800   29.3170 N   0  0  0  0  0  0  0  0  0  0  0  0
   25.0230    9.9110   29.4840 C   0  0  2  0  0  0  0  0  0  0  0  0
   25.7730    8.8510   29.2840 N   0  0  0  0  0  0  0  0  0  0  0  0
   26.7090   11.6880   28.9410 C   0  0  0  0  0  0  0  0  0  0  0  0
   27.0250   11.6590   27.5030 C   0  0  0  0  0  0  0  0  0  0  0  0
   28.3720   11.4990   27.0870 N   0  0  0  0  0  0  0  0  0  0  0  0
   28.4510   11.4130   25.6060 C   0  0  0  0  0  0  0  0  0  0  0  0
   27.5950   10.3180   25.0600 C   0  0  0  0  0  0  0  0  0  0  0  0
   28.1590    9.1120   25.4770 O   0  0  0  0  0  0  0  0  0  0  0  0
   28.2480    9.0360   26.8450 C   0  0  0  0  0  0  0  0  0  0  0  0
   28.9320   10.2020   27.5050 C   0  0  0  0  0  0  0  0  0  0  0  0
   20.1370    9.5530   32.5770 H   0  0  0  0  0  0  0  0  0  0  0  0
   22.1190    5.9340   31.5030 H   0  0  0  0  0  0  0  0  0  0  0  0
   20.2820    4.6450   32.3710 H   0  0  0  0  0  0  0  0  0  0  0  0
   18.3480    5.8160   33.3550 H   0  0  0  0  0  0  0  0  0  0  0  0
   23.3660    7.8590   29.5930 H   0  0  0  0  0  0  0  0  0  0  0  0
   21.9130    8.9320   29.3640 H   0  0  0  0  0  0  0  0  0  0  0  0
   25.0730   13.9970   29.2220 H   0  0  0  0  0  0  0  0  0  0  0  0
   22.8890   15.0320   29.6580 H   0  0  0  0  0  0  0  0  0  0  0  0
   20.9190   13.6460   30.1940 H   0  0  0  0  0  0  0  0  0  0  0  0
   21.1690   11.1890   30.2750 H   0  0  0  0  0  0  0  0  0  0  0  0
   26.7630    8.9010   29.0590 H   0  0  0  0  0  0  0  0  0  0  0  0
   25.3300    7.9230   29.3290 H   0  0  0  0  0  0  0  0  0  0  0  0
   26.8270   12.7090   29.3670 H   0  0  0  0  0  0  0  0  0  0  0  0
   27.4730   11.0730   29.4710 H   0  0  0  0  0  0  0  0  0  0  0  0
   26.5330   12.5490   26.9950 H   0  0  0  0  0  0  0  0  0  0  0  0
   26.4360   10.7960   27.0620 H   0  0  0  0  0  0  0  0  0  0  0  0
   28.2700   12.3990   25.1470 H   0  0  0  0  0  0  0  0  0  0  0  0
   29.5050   11.1410   25.4140 H   0  0  0  0  0  0  0  0  0  0  0  0
   27.6920   10.3480   23.9550 H   0  0  0  0  0  0  0  0  0  0  0  0
   26.5300   10.3820   25.2880 H   0  0  0  0  0  0  0  0  0  0  0  0
   28.9000    8.1390   27.0610 H   0  0  0  0  0  0  0  0  0  0  0  0
   27.2410    8.8220   27.2640 H   0  0  0  0  0  0  0  0  0  0  0  0
   28.9290   10.0430   28.5770 H   0  0  0  0  0  0  0  0  0  0  0  0
   29.9800   10.2210   27.0740 H   0  0  0  0  0  0  0  0  0  0  0  0
  2  1  1  0  0  0  0
  3 29  1  0  0  0  0
  3  2  2  0  0  0  0
  4  3  1  0  0  0  0
  5  4  2  0  0  0  0
  5  6  1  0  0  0  0
  6  7  2  0  0  0  0
  7  2  1  0  0  0  0
  7 32  1  0  0  0  0
  8  4  1  0  0  0  0
  8  9  1  6  0  0  0
 10  8  1  0  0  0  0
 11 12  1  0  0  0  0
 11 10  1  0  0  0  0
 12 17  1  0  0  0  0
 13 12  2  0  0  0  0
 14 13  1  0  0  0  0
 14 15  2  0  0  0  0
 15 16  1  0  0  0  0
 16 17  2  0  0  0  0
 16 37  1  0  0  0  0
 17 38  1  0  0  0  0
 18 19  1  0  0  0  0
 18 13  1  0  0  0  0
 19 20  1  6  0  0  0
 19 11  1  0  0  0  0
 20 40  1  0  0  0  0
 21 18  1  0  0  0  0
 21 41  1  0  0  0  0
 21 42  1  0  0  0  0
 22 21  1  0  0  0  0
 23 22  1  0  0  0  0
 23 28  1  0  0  0  0
 24 23  1  0  0  0  0
 25 48  1  0  0  0  0
 25 26  1  0  0  0  0
 25 24  1  0  0  0  0
 26 27  1  0  0  0  0
 27 49  1  0  0  0  0
 27 50  1  0  0  0  0
 27 28  1  0  0  0  0
 28 51  1  0  0  0  0
 30  5  1  0  0  0  0
 31  6  1  0  0  0  0
 33 10  1  0  0  0  0
 34 10  1  0  0  0  0
 35 14  1  0  0  0  0
 36 15  1  0  0  0  0
 39 20  1  0  0  0  0
 43 22  1  0  0  0  0
 44 22  1  0  0  0  0
 45 24  1  0  0  0  0
 46 24  1  0  0  0  0
 47 25  1  0  0  0  0
 52 28  1  0  0  0  0
M  END
>  <Pose>
1

>  <Score>
-5.88

$$$$
