
 OpenBabel03202209553D

 51 54  0  0  1  0  0  0  0  0999 V2000
   23.1420    9.1810   32.0390 B   0  0  0  0  0  0  0  0  0  0  0  0
   23.0520   10.8300   31.0680 C   0  0  0  0  0  0  0  0  0  0  0  0
   22.0640   11.0720   30.1460 C   0  0  0  0  0  0  0  0  0  0  0  0
   22.0210   12.2610   29.4650 C   0  0  0  0  0  0  0  0  0  0  0  0
   22.9620   13.2900   29.6570 C   0  0  0  0  0  0  0  0  0  0  0  0
   23.9310   13.0290   30.5750 C   0  0  0  0  0  0  0  0  0  0  0  0
   23.9750   11.8310   31.2620 C   0  0  0  0  0  0  0  0  0  0  0  0
   22.8220   14.4860   28.8660 C   0  0  1  0  0  0  0  0  0  0  0  0
   22.3730   15.6900   29.5010 N   0  0  0  0  0  0  0  0  0  0  0  0
   22.6140   16.7170   28.4940 C   0  0  0  0  0  0  0  0  0  0  0  0
   22.0050   17.8040   28.3890 O   0  0  0  0  0  0  0  0  0  0  0  0
   23.6880   16.2470   27.6390 C   0  0  0  0  0  0  0  0  0  0  0  0
   24.2180   16.8140   26.6380 O   0  0  0  0  0  0  0  0  0  0  0  0
   24.0630   14.9320   28.1700 C   0  0  0  0  0  0  0  0  0  0  0  0
   25.2100   14.3350   27.9990 C   0  0  0  0  0  0  0  0  0  0  0  0
   25.3780   13.0500   28.5310 O   0  0  0  0  0  0  0  0  0  0  0  0
   26.3200   14.9810   27.2710 C   0  0  0  0  0  0  0  0  0  0  0  0
   27.4790   15.3510   27.8060 O   0  0  0  0  0  0  0  0  0  0  0  0
   28.2650   15.8990   26.9160 C   0  0  0  0  0  0  0  0  0  0  0  0
   27.6340   15.9210   25.6900 C   0  0  0  0  0  0  0  0  0  0  0  0
   26.4060   15.3350   25.9460 C   0  0  0  0  0  0  0  0  0  0  0  0
   28.2630   16.4530   24.5860 C   0  0  0  0  0  0  0  0  0  0  0  0
   29.5320   16.9850   24.6330 C   0  0  0  0  0  0  0  0  0  0  0  0
   30.1690   16.9660   25.8610 C   0  0  0  0  0  0  0  0  0  0  0  0
   29.5540   16.4380   26.9740 C   0  0  0  0  0  0  0  0  0  0  0  0
   21.7470   15.9650   30.7750 C   0  0  0  0  0  0  0  0  0  0  0  0
   22.0120   17.2610   31.4150 C   0  0  0  0  0  0  0  0  0  0  0  0
   22.4550   17.2440   32.7850 N   0  0  0  0  0  4  0  0  0  0  0  0
   22.7740   15.9230   33.2460 C   0  0  0  0  0  0  0  0  0  0  0  0
   23.4210   18.2510   33.1220 C   0  0  0  0  0  0  0  0  0  0  0  0
   21.3290   10.2960   29.9810 H   0  0  0  0  0  0  0  0  0  0  0  0
   21.2130   12.3840   28.7490 H   0  0  0  0  0  0  0  0  0  0  0  0
   24.6960   13.7510   30.7640 H   0  0  0  0  0  0  0  0  0  0  0  0
   24.7670   11.6510   31.9920 H   0  0  0  0  0  0  0  0  0  0  0  0
   22.0900   14.3130   28.0170 H   0  0  0  0  0  0  0  0  0  0  0  0
   25.6240   15.1880   25.2180 H   0  0  0  0  0  0  0  0  0  0  0  0
   27.7530   16.4610   23.6370 H   0  0  0  0  0  0  0  0  0  0  0  0
   30.0460   17.4090   23.7800 H   0  0  0  0  0  0  0  0  0  0  0  0
   31.1670   17.3690   25.9600 H   0  0  0  0  0  0  0  0  0  0  0  0
   30.0510   16.4220   27.9350 H   0  0  0  0  0  0  0  0  0  0  0  0
   21.9370   15.1350   31.5040 H   0  0  0  0  0  0  0  0  0  0  0  0
   20.6270   15.9010   30.5990 H   0  0  0  0  0  0  0  0  0  0  0  0
   21.1090   17.8990   31.3910 H   0  0  0  0  0  0  0  0  0  0  0  0
   22.8300   17.7860   30.8350 H   0  0  0  0  0  0  0  0  0  0  0  0
   21.5690   17.5110   33.3390 H   0  0  0  0  0  0  0  0  0  0  0  0
   22.5640   15.2300   32.4090 H   0  0  0  0  0  0  0  0  0  0  0  0
   23.7930   15.8250   33.6760 H   0  0  0  0  0  0  0  0  0  0  0  0
   22.0970   15.5620   34.0730 H   0  0  0  0  0  0  0  0  0  0  0  0
   23.6920   18.9310   32.2990 H   0  0  0  0  0  0  0  0  0  0  0  0
   23.0520   18.9390   33.9400 H   0  0  0  0  0  0  0  0  0  0  0  0
   24.3320   17.7790   33.6010 H   0  0  0  0  0  0  0  0  0  0  0  0
  2  7  1  0  0  0  0
  2  1  1  0  0  0  0
  3  2  2  0  0  0  0
  4  5  2  0  0  0  0
  4  3  1  0  0  0  0
  5  6  1  0  0  0  0
  6 33  1  0  0  0  0
  6  7  2  0  0  0  0
  7 34  1  0  0  0  0
  8 35  1  6  0  0  0
  8  9  1  0  0  0  0
  8  5  1  0  0  0  0
  9 26  1  0  0  0  0
 10  9  1  0  0  0  0
 11 10  2  0  0  0  0
 12 14  1  0  0  0  0
 12 10  1  0  0  0  0
 13 12  2  0  0  0  0
 14  8  1  0  0  0  0
 15 14  2  0  0  0  0
 15 16  1  0  0  0  0
 17 18  1  0  0  0  0
 17 15  1  0  0  0  0
 19 25  1  0  0  0  0
 19 18  1  0  0  0  0
 20 21  1  0  0  0  0
 20 19  2  0  0  0  0
 21 17  2  0  0  0  0
 22 23  2  0  0  0  0
 22 20  1  0  0  0  0
 23 24  1  0  0  0  0
 24 39  1  0  0  0  0
 24 25  2  0  0  0  0
 25 40  1  0  0  0  0
 26 27  1  0  0  0  0
 26 41  1  0  0  0  0
 27 28  1  0  0  0  0
 28 30  1  0  0  0  0
 28 29  1  0  0  0  0
 28 45  1  0  0  0  0
 29 47  1  0  0  0  0
 29 48  1  0  0  0  0
 30 51  1  0  0  0  0
 30 50  1  0  0  0  0
 31  3  1  0  0  0  0
 32  4  1  0  0  0  0
 36 21  1  0  0  0  0
 37 22  1  0  0  0  0
 38 23  1  0  0  0  0
 42 26  1  0  0  0  0
 43 27  1  0  0  0  0
 44 27  1  0  0  0  0
 46 29  1  0  0  0  0
 49 30  1  0  0  0  0
M  END
>  <Pose>
1

>  <Score>
-6.55

$$$$
