
 OpenBabel03202209553D

 55 58  0  0  1  0  0  0  0  0999 V2000
   31.7210   19.0120   26.4690 B   0  0  0  0  0  0  0  0  0  0  0  0
   30.5770   17.5540   26.9540 C   0  0  0  0  0  0  0  0  0  0  0  0
   29.4620   17.3040   26.1850 C   0  0  0  0  0  0  0  0  0  0  0  0
   28.6280   16.2620   26.5180 C   0  0  0  0  0  0  0  0  0  0  0  0
   28.8370   15.4220   27.6020 C   0  0  0  0  0  0  0  0  0  0  0  0
   29.9600   15.6970   28.3500 C   0  0  0  0  0  0  0  0  0  0  0  0
   30.8220   16.7560   28.0250 C   0  0  0  0  0  0  0  0  0  0  0  0
   27.9340   14.3940   27.8540 N   0  0  0  0  0  0  0  0  0  0  0  0
   27.4410   13.4170   26.9720 C   0  0  0  0  0  0  0  0  0  0  0  0
   27.8660   13.3360   25.8020 O   0  0  0  0  0  0  0  0  0  0  0  0
   26.4010   12.4320   27.3670 C   0  0  0  0  0  0  0  0  0  0  0  0
   26.3630   12.2650   28.7890 N   0  0  0  0  0  0  0  0  0  0  0  0
   25.6140   11.2550   29.4410 C   0  0  0  0  0  0  0  0  0  0  0  0
   25.6270   10.0980   28.9410 O   0  0  0  0  0  0  0  0  0  0  0  0
   24.8460   11.5780   30.6730 C   0  0  2  0  0  0  0  0  0  0  0  0
   24.5470   10.4330   31.3100 O   0  0  0  0  0  0  0  0  0  0  0  0
   23.4420   10.3970   32.1020 C   0  0  2  0  0  0  0  0  0  0  0  0
   23.1450    9.0510   32.3590 O   0  0  0  0  0  0  0  0  0  0  0  0
   22.3150    8.6120   31.3570 C   0  0  0  0  0  0  0  0  0  0  0  0
   21.9180    9.6970   30.6020 O   0  0  0  0  0  0  0  0  0  0  0  0
   22.1770   10.8340   31.4020 C   0  0  2  0  0  0  0  0  0  0  0  0
   22.3680   12.0590   30.5930 C   0  0  1  0  0  0  0  0  0  0  0  0
   21.7080   13.1670   31.1720 O   0  0  0  0  0  0  0  0  0  0  0  0
   22.5540   14.2430   31.0830 C   0  0  0  0  0  0  0  0  0  0  0  0
   23.8090   13.6960   31.1460 O   0  0  0  0  0  0  0  0  0  0  0  0
   23.7430   12.5240   30.3790 C   0  0  1  0  0  0  0  0  0  0  0  0
   22.2690   15.1330   32.2990 C   0  0  0  0  0  0  0  0  0  0  0  0
   22.3120   15.1000   29.8680 C   0  0  0  0  0  0  0  0  0  0  0  0
   21.0400    7.9750   31.9110 C   0  0  0  0  0  0  0  0  0  0  0  0
   22.9700    7.5580   30.4780 C   0  0  0  0  0  0  0  0  0  0  0  0
   29.2380   17.9370   25.3090 H   0  0  0  0  0  0  0  0  0  0  0  0
   27.7680   16.1150   25.8780 H   0  0  0  0  0  0  0  0  0  0  0  0
   30.2030   15.1090   29.1980 H   0  0  0  0  0  0  0  0  0  0  0  0
   31.6770   16.9180   28.6450 H   0  0  0  0  0  0  0  0  0  0  0  0
   27.5570   14.3320   28.8560 H   0  0  0  0  0  0  0  0  0  0  0  0
   25.4080   12.8850   27.0730 H   0  0  0  0  0  0  0  0  0  0  0  0
   26.4680   11.4830   26.8060 H   0  0  0  0  0  0  0  0  0  0  0  0
   26.9160   12.9230   29.3780 H   0  0  0  0  0  0  0  0  0  0  0  0
   25.5830   12.1430   31.3220 H   0  0  0  0  0  0  0  0  0  0  0  0
   23.5510   10.8790   33.0940 H   0  0  0  0  0  0  0  0  0  0  0  0
   21.3940   10.9360   32.1810 H   0  0  0  0  0  0  0  0  0  0  0  0
   21.8280   11.9050   29.6130 H   0  0  0  0  0  0  0  0  0  0  0  0
   23.8440   12.8700   29.3180 H   0  0  0  0  0  0  0  0  0  0  0  0
   22.7820   16.0870   32.1250 H   0  0  0  0  0  0  0  0  0  0  0  0
   22.5520   14.6270   33.2330 H   0  0  0  0  0  0  0  0  0  0  0  0
   21.1690   15.2800   32.3120 H   0  0  0  0  0  0  0  0  0  0  0  0
   23.2130   15.5730   29.4750 H   0  0  0  0  0  0  0  0  0  0  0  0
   21.8140   14.5220   29.0620 H   0  0  0  0  0  0  0  0  0  0  0  0
   21.5960   15.9420   30.1000 H   0  0  0  0  0  0  0  0  0  0  0  0
   21.3140    7.3320   32.7550 H   0  0  0  0  0  0  0  0  0  0  0  0
   20.2780    8.7410   32.1430 H   0  0  0  0  0  0  0  0  0  0  0  0
   20.6410    7.3310   31.0990 H   0  0  0  0  0  0  0  0  0  0  0  0
   22.4840    6.5660   30.5770 H   0  0  0  0  0  0  0  0  0  0  0  0
   24.0480    7.4290   30.7400 H   0  0  0  0  0  0  0  0  0  0  0  0
   22.8980    7.8300   29.3960 H   0  0  0  0  0  0  0  0  0  0  0  0
  1  2  1  0  0  0  0
  2  7  1  0  0  0  0
  3  4  1  0  0  0  0
  3  2  2  0  0  0  0
  4  5  2  0  0  0  0
  5  8  1  0  0  0  0
  5  6  1  0  0  0  0
  6 33  1  0  0  0  0
  7  6  2  0  0  0  0
  7 34  1  0  0  0  0
  8 35  1  0  0  0  0
  9 11  1  0  0  0  0
  9  8  1  0  0  0  0
 10  9  2  0  0  0  0
 11 12  1  0  0  0  0
 12 38  1  0  0  0  0
 12 13  1  0  0  0  0
 13 15  1  0  0  0  0
 14 13  2  0  0  0  0
 15 16  1  0  0  0  0
 15 39  1  1  0  0  0
 16 17  1  0  0  0  0
 17 18  1  0  0  0  0
 17 40  1  1  0  0  0
 19 29  1  0  0  0  0
 19 18  1  0  0  0  0
 20 19  1  0  0  0  0
 20 21  1  0  0  0  0
 21 17  1  0  0  0  0
 21 41  1  1  0  0  0
 22 42  1  6  0  0  0
 22 23  1  0  0  0  0
 22 21  1  0  0  0  0
 24 25  1  0  0  0  0
 24 23  1  0  0  0  0
 24 27  1  0  0  0  0
 26 43  1  6  0  0  0
 26 22  1  0  0  0  0
 26 15  1  0  0  0  0
 26 25  1  0  0  0  0
 27 46  1  0  0  0  0
 27 45  1  0  0  0  0
 28 49  1  0  0  0  0
 28 24  1  0  0  0  0
 29 51  1  0  0  0  0
 29 50  1  0  0  0  0
 30 53  1  0  0  0  0
 30 54  1  0  0  0  0
 30 19  1  0  0  0  0
 31  3  1  0  0  0  0
 32  4  1  0  0  0  0
 36 11  1  0  0  0  0
 37 11  1  0  0  0  0
 44 27  1  0  0  0  0
 47 28  1  0  0  0  0
 48 28  1  0  0  0  0
 52 29  1  0  0  0  0
 55 30  1  0  0  0  0
M  END
>  <Pose>
1

>  <Score>
-6.51

$$$$
