
 OpenBabel03202209553D

 56 59  0  0  1  0  0  0  0  0999 V2000
   25.9700   11.8880   28.1030 B   0  0  0  0  0  0  0  0  0  0  0  0
   24.7490   13.2710   28.5610 C   0  0  0  0  0  0  0  0  0  0  0  0
   23.7860   13.0140   29.5140 C   0  0  0  0  0  0  0  0  0  0  0  0
   22.9230   14.0460   29.8140 C   0  0  0  0  0  0  0  0  0  0  0  0
   23.0030   15.2800   29.2040 C   0  0  0  0  0  0  0  0  0  0  0  0
   23.9650   15.5370   28.2510 C   0  0  0  0  0  0  0  0  0  0  0  0
   24.8380   14.5180   27.9360 C   0  0  0  0  0  0  0  0  0  0  0  0
   24.0400   16.7880   27.6370 O   0  0  0  0  0  0  0  0  0  0  0  0
   23.9240   16.9760   26.2590 C   0  0  0  0  0  0  0  0  0  0  0  0
   22.1270   16.3160   29.5130 O   0  0  0  0  0  0  0  0  0  0  0  0
   21.7760   16.6970   30.8060 C   0  0  0  0  0  0  0  0  0  0  0  0
   23.6990   11.7100   30.1610 C   0  0  0  0  0  0  0  0  0  0  0  0
   22.8510   10.8100   29.8750 N   0  0  0  0  0  0  0  0  0  0  0  0
   22.7900    9.5590   30.5190 N   0  0  0  0  0  0  0  0  0  0  0  0
   21.6590    9.2970   31.3390 C   0  0  0  0  0  0  0  0  0  0  0  0
   21.3500    8.1110   31.9260 N   0  0  0  0  0  0  0  0  0  0  0  0
   20.1960    8.2600   32.6270 C   0  0  0  0  0  0  0  0  0  0  0  0
   19.4490    7.4430   33.3780 N   0  0  0  0  0  0  0  0  0  0  0  0
   18.3180    7.8550   33.9770 C   0  0  0  0  0  0  0  0  0  0  0  0
   17.9220    9.1370   33.8150 N   0  0  0  0  0  0  0  0  0  0  0  0
   18.6140   10.0040   33.0840 C   0  0  0  0  0  0  0  0  0  0  0  0
   19.7740    9.5750   32.4710 C   0  0  0  0  0  0  0  0  0  0  0  0
   20.6770   10.1520   31.6970 N   0  0  0  0  0  0  0  0  0  0  0  0
   18.2300   11.3360   32.8970 O   0  0  0  0  0  0  0  0  0  0  0  0
   17.5280    6.9640   34.7790 N   0  0  0  0  0  0  0  0  0  0  0  0
   22.1170    6.9090   31.8210 C   0  0  2  0  0  0  0  0  0  0  0  0
   23.3870    7.0930   31.2930 O   0  0  0  0  0  0  0  0  0  0  0  0
   23.8220    5.9040   30.7800 C   0  0  1  0  0  0  0  0  0  0  0  0
   22.6860    4.9420   30.6980 C   0  0  2  0  0  0  0  0  0  0  0  0
   21.4810    5.8520   30.9420 C   0  0  1  0  0  0  0  0  0  0  0  0
   20.4700    5.1610   31.6080 O   0  0  0  0  0  0  0  0  0  0  0  0
   22.7130    4.0600   31.7980 O   0  0  0  0  0  0  0  0  0  0  0  0
   24.3250    6.1520   29.3570 C   0  0  0  0  0  0  0  0  0  0  0  0
   25.6380    6.6340   29.3930 O   0  0  0  0  0  0  0  0  0  0  0  0
   22.1580   13.8450   30.5700 H   0  0  0  0  0  0  0  0  0  0  0  0
   25.6040   14.6940   27.1910 H   0  0  0  0  0  0  0  0  0  0  0  0
   23.6070   18.0060   25.9840 H   0  0  0  0  0  0  0  0  0  0  0  0
   23.1260   16.3080   25.8270 H   0  0  0  0  0  0  0  0  0  0  0  0
   24.8480   16.7670   25.6940 H   0  0  0  0  0  0  0  0  0  0  0  0
   21.4210   17.7510   30.7630 H   0  0  0  0  0  0  0  0  0  0  0  0
   22.5390   16.5220   31.5700 H   0  0  0  0  0  0  0  0  0  0  0  0
   20.8720   16.1010   31.1220 H   0  0  0  0  0  0  0  0  0  0  0  0
   24.4070   11.4780   30.9480 H   0  0  0  0  0  0  0  0  0  0  0  0
   23.5210    8.8380   30.4180 H   0  0  0  0  0  0  0  0  0  0  0  0
   17.3500   11.6090   33.3180 H   0  0  0  0  0  0  0  0  0  0  0  0
   16.7680    7.2630   35.3990 H   0  0  0  0  0  0  0  0  0  0  0  0
   17.7620    5.9510   34.7110 H   0  0  0  0  0  0  0  0  0  0  0  0
   22.2550    6.4350   32.8170 H   0  0  0  0  0  0  0  0  0  0  0  0
   24.6510    5.5340   31.4240 H   0  0  0  0  0  0  0  0  0  0  0  0
   22.6060    4.4090   29.7400 H   0  0  0  0  0  0  0  0  0  0  0  0
   21.1000    6.2660   29.9980 H   0  0  0  0  0  0  0  0  0  0  0  0
   20.5780    4.1840   31.4680 H   0  0  0  0  0  0  0  0  0  0  0  0
   21.9250    3.4760   31.8090 H   0  0  0  0  0  0  0  0  0  0  0  0
   23.6580    6.9130   28.9180 H   0  0  0  0  0  0  0  0  0  0  0  0
   24.2480    5.1990   28.8140 H   0  0  0  0  0  0  0  0  0  0  0  0
   26.0250    6.5600   30.3030 H   0  0  0  0  0  0  0  0  0  0  0  0
  1  2  1  0  0  0  0
  2  3  1  0  0  0  0
  3  4  2  0  0  0  0
  3 12  1  0  0  0  0
  4 35  1  0  0  0  0
  5 10  1  0  0  0  0
  5  4  1  0  0  0  0
  6  5  2  0  0  0  0
  7  6  1  0  0  0  0
  7  2  2  0  0  0  0
  8  6  1  0  0  0  0
  9  8  1  0  0  0  0
 10 11  1  0  0  0  0
 11 42  1  0  0  0  0
 11 41  1  0  0  0  0
 12 43  1  0  0  0  0
 13 12  2  0  0  0  0
 13 14  1  0  0  0  0
 14 15  1  0  0  0  0
 15 23  2  0  0  0  0
 15 16  1  0  0  0  0
 16 17  1  0  0  0  0
 17 18  1  0  0  0  0
 18 19  2  0  0  0  0
 19 25  1  0  0  0  0
 20 19  1  0  0  0  0
 21 20  2  0  0  0  0
 22 17  2  0  0  0  0
 22 21  1  0  0  0  0
 23 22  1  0  0  0  0
 24 21  1  0  0  0  0
 24 45  1  0  0  0  0
 25 46  1  0  0  0  0
 26 16  1  0  0  0  0
 26 48  1  1  0  0  0
 27 26  1  0  0  0  0
 28 27  1  0  0  0  0
 28 49  1  1  0  0  0
 29 50  1  6  0  0  0
 29 28  1  0  0  0  0
 29 30  1  0  0  0  0
 29 32  1  0  0  0  0
 30 51  1  6  0  0  0
 30 31  1  0  0  0  0
 30 26  1  0  0  0  0
 32 53  1  0  0  0  0
 33 34  1  0  0  0  0
 33 28  1  0  0  0  0
 34 56  1  0  0  0  0
 36  7  1  0  0  0  0
 37  9  1  0  0  0  0
 38  9  1  0  0  0  0
 39  9  1  0  0  0  0
 40 11  1  0  0  0  0
 44 14  1  0  0  0  0
 47 25  1  0  0  0  0
 52 31  1  0  0  0  0
 54 33  1  0  0  0  0
 55 33  1  0  0  0  0
M  END
>  <Pose>
1

>  <Score>
-7.64

$$$$
