
 OpenBabel03202209553D

 42 45  0  0  1  0  0  0  0  0999 V2000
   28.0240    6.3720   25.5900 Cl  0  0  0  0  0  0  0  0  0  0  0  0
   28.7720    4.9950   26.3610 C   0  0  0  0  0  0  0  0  0  0  0  0
   28.1230    4.4330   27.4410 C   0  0  0  0  0  0  0  0  0  0  0  0
   28.7380    3.3520   28.0250 C   0  0  0  0  0  0  0  0  0  0  0  0
   29.9340    2.8410   27.5730 C   0  0  0  0  0  0  0  0  0  0  0  0
   30.5760    3.4250   26.4740 C   0  0  0  0  0  0  0  0  0  0  0  0
   29.9800    4.5070   25.8760 C   0  0  0  0  0  0  0  0  0  0  0  0
   26.8560    4.9490   27.9460 C   0  0  0  0  0  0  0  0  0  0  0  0
   25.6930    5.0550   27.2830 N   0  0  0  0  0  0  0  0  0  0  0  0
   24.7800    5.5670   28.0810 O   0  0  0  0  0  0  0  0  0  0  0  0
   25.3010    5.8060   29.2580 C   0  0  0  0  0  0  0  0  0  0  0  0
   26.5940    5.4230   29.1770 N   0  0  0  0  0  0  0  0  0  0  0  0
   24.6200    6.3880   30.4700 C   0  0  0  0  0  0  0  0  0  0  0  0
   25.3500    7.5490   30.9470 N   0  0  0  0  0  0  0  0  0  0  0  0
   25.0700    8.8390   30.4620 C   0  0  0  0  0  0  0  0  0  0  0  0
   25.1320    9.0610   29.2330 O   0  0  0  0  0  0  0  0  0  0  0  0
   24.7090    9.9210   31.3910 C   0  0  1  0  0  0  0  0  0  0  0  0
   25.1050   11.2860   30.8590 C   0  0  0  0  0  0  0  0  0  0  0  0
   24.5650   12.3810   31.7160 C   0  0  0  0  0  0  0  0  0  0  0  0
   23.2300   12.9080   31.3040 C   0  0  0  0  0  0  0  0  0  0  0  0
   22.3860   11.8520   30.5950 C   0  0  0  0  0  0  0  0  0  0  0  0
   22.3020   10.7070   31.4720 N   0  0  0  0  0  0  0  0  0  0  0  0
   21.2010   10.3280   32.0620 N   0  0  0  0  0  0  0  0  0  0  0  0
   21.4560    9.2650   32.7840 N   0  0  0  0  0  0  0  0  0  0  0  0
   22.7360    8.9840   32.6390 N   0  0  0  0  0  0  0  0  0  0  0  0
   23.3000    9.8810   31.8120 C   0  0  0  0  0  0  0  0  0  0  0  0
   28.2720    2.8790   28.8700 H   0  0  0  0  0  0  0  0  0  0  0  0
   30.4230    1.9920   28.0240 H   0  0  0  0  0  0  0  0  0  0  0  0
   31.5180    3.0400   26.1000 H   0  0  0  0  0  0  0  0  0  0  0  0
   30.4790    4.9580   25.0250 H   0  0  0  0  0  0  0  0  0  0  0  0
   24.5480    5.6210   31.2560 H   0  0  0  0  0  0  0  0  0  0  0  0
   23.5890    6.6570   30.1640 H   0  0  0  0  0  0  0  0  0  0  0  0
   26.0950    7.4270   31.6610 H   0  0  0  0  0  0  0  0  0  0  0  0
   25.3160    9.7890   32.3230 H   0  0  0  0  0  0  0  0  0  0  0  0
   26.2330   11.3400   30.9150 H   0  0  0  0  0  0  0  0  0  0  0  0
   24.8690   11.3640   29.7910 H   0  0  0  0  0  0  0  0  0  0  0  0
   25.3240   13.2140   31.7450 H   0  0  0  0  0  0  0  0  0  0  0  0
   24.5150   12.0110   32.7660 H   0  0  0  0  0  0  0  0  0  0  0  0
   22.7150   13.2750   32.2150 H   0  0  0  0  0  0  0  0  0  0  0  0
   23.3060   13.7600   30.5890 H   0  0  0  0  0  0  0  0  0  0  0  0
   21.3760   12.2790   30.4460 H   0  0  0  0  0  0  0  0  0  0  0  0
   22.8470   11.5420   29.6570 H   0  0  0  0  0  0  0  0  0  0  0  0
  1  2  1  0  0  0  0
  2  3  1  0  0  0  0
  3  8  1  0  0  0  0
  3  4  2  0  0  0  0
  4 27  1  0  0  0  0
  5 28  1  0  0  0  0
  5  4  1  0  0  0  0
  6  5  2  0  0  0  0
  7  2  2  0  0  0  0
  7  6  1  0  0  0  0
  8 12  1  0  0  0  0
  9  8  2  0  0  0  0
  9 10  1  0  0  0  0
 10 11  1  0  0  0  0
 11 13  1  0  0  0  0
 12 11  2  0  0  0  0
 13 14  1  0  0  0  0
 13 31  1  0  0  0  0
 14 33  1  0  0  0  0
 15 14  1  0  0  0  0
 15 17  1  0  0  0  0
 16 15  2  0  0  0  0
 17 26  1  0  0  0  0
 17 34  1  1  0  0  0
 18 35  1  0  0  0  0
 18 17  1  0  0  0  0
 18 19  1  0  0  0  0
 19 37  1  0  0  0  0
 19 38  1  0  0  0  0
 20 19  1  0  0  0  0
 20 39  1  0  0  0  0
 21 20  1  0  0  0  0
 21 22  1  0  0  0  0
 22 26  1  0  0  0  0
 22 23  1  0  0  0  0
 23 24  2  0  0  0  0
 25 24  1  0  0  0  0
 26 25  2  0  0  0  0
 29  6  1  0  0  0  0
 30  7  1  0  0  0  0
 32 13  1  0  0  0  0
 36 18  1  0  0  0  0
 40 20  1  0  0  0  0
 41 21  1  0  0  0  0
 42 21  1  0  0  0  0
M  END
>  <Pose>
1

>  <Score>
-6.09

$$$$
