
 OpenBabel03202209553D

 33 36  0  0  1  0  0  0  0  0999 V2000
   20.1370    8.8140   32.8670 B   0  0  0  0  0  0  0  0  0  0  0  0
   21.5250    8.0020   31.8370 C   0  0  0  0  0  0  0  0  0  0  0  0
   22.5550    8.7370   31.3070 C   0  0  0  0  0  0  0  0  0  0  0  0
   23.5330    8.1190   30.5650 C   0  0  0  0  0  0  0  0  0  0  0  0
   23.5110    6.7510   30.3310 C   0  0  0  0  0  0  0  0  0  0  0  0
   22.4880    5.9960   30.8520 C   0  0  0  0  0  0  0  0  0  0  0  0
   21.4970    6.6340   31.6070 C   0  0  0  0  0  0  0  0  0  0  0  0
   22.6660   10.2050   31.5110 C   0  0  1  0  0  0  0  0  0  0  0  0
   23.7840   10.8390   30.9670 C   0  0  1  0  0  0  0  0  0  0  0  0
   24.3060   11.1760   29.6140 C   0  0  0  0  0  0  0  0  0  0  0  0
   23.7490   12.5520   29.6180 N   0  0  0  0  0  0  0  0  0  0  0  0
   22.5730   12.5020   30.1600 C   0  0  2  0  0  0  0  0  0  0  0  0
   22.3240   11.1380   30.5080 C   0  0  2  0  0  0  0  0  0  0  0  0
   21.8380   10.4430   29.2780 C   0  0  0  0  0  0  0  0  0  0  0  0
   21.4690    9.8730   28.3100 N   0  0  0  0  0  0  0  0  0  0  0  0
   21.6900   13.6280   30.3650 N   0  0  0  0  0  0  0  0  0  0  0  0
   25.7010   11.2490   29.6920 O   0  0  0  0  0  0  0  0  0  0  0  0
   26.2050   10.4700   28.6680 C   0  0  0  0  0  0  0  0  0  0  0  0
   25.0640   10.4780   27.6650 C   0  0  0  0  0  0  0  0  0  0  0  0
   23.9710   10.4190   28.5650 O   0  0  0  0  0  0  0  0  0  0  0  0
   24.3730   11.8620   31.9040 C   0  0  0  0  0  0  0  0  0  0  0  0
   24.8340   12.6790   32.6230 N   0  0  0  0  0  0  0  0  0  0  0  0
   24.3830    8.6570   30.1170 H   0  0  0  0  0  0  0  0  0  0  0  0
   24.2680    6.2520   29.7540 H   0  0  0  0  0  0  0  0  0  0  0  0
   22.4570    4.9480   30.6850 H   0  0  0  0  0  0  0  0  0  0  0  0
   20.6690    6.0770   32.0400 H   0  0  0  0  0  0  0  0  0  0  0  0
   22.3040   10.4500   32.5490 H   0  0  0  0  0  0  0  0  0  0  0  0
   21.0070   13.9130   29.6380 H   0  0  0  0  0  0  0  0  0  0  0  0
   21.7240   14.1730   31.2470 H   0  0  0  0  0  0  0  0  0  0  0  0
   26.3520    9.4370   29.0490 H   0  0  0  0  0  0  0  0  0  0  0  0
   27.1420   10.8860   28.2400 H   0  0  0  0  0  0  0  0  0  0  0  0
   25.0510   11.4410   27.1090 H   0  0  0  0  0  0  0  0  0  0  0  0
   25.0790    9.6150   26.9870 H   0  0  0  0  0  0  0  0  0  0  0  0
  2  1  1  0  0  0  0
  3  8  1  0  0  0  0
  3  2  2  0  0  0  0
  4  3  1  0  0  0  0
  5  4  2  0  0  0  0
  5  6  1  0  0  0  0
  6  7  2  0  0  0  0
  7  2  1  0  0  0  0
  7 26  1  0  0  0  0
  8 27  1  1  0  0  0
  9  8  1  0  0  0  0
  9 21  1  1  0  0  0
 10 11  1  0  0  0  0
 10 17  1  0  0  0  0
 10  9  1  0  0  0  0
 11 12  1  0  0  0  0
 12 16  1  6  0  0  0
 12 13  1  0  0  0  0
 13 14  1  6  0  0  0
 13  9  1  0  0  0  0
 13  8  1  0  0  0  0
 15 14  3  0  0  0  0
 16 29  1  0  0  0  0
 18 30  1  0  0  0  0
 18 17  1  0  0  0  0
 19 20  1  0  0  0  0
 19 18  1  0  0  0  0
 20 10  1  0  0  0  0
 21 22  3  0  0  0  0
 23  4  1  0  0  0  0
 24  5  1  0  0  0  0
 25  6  1  0  0  0  0
 28 16  1  0  0  0  0
 31 18  1  0  0  0  0
 32 19  1  0  0  0  0
 33 19  1  0  0  0  0
M  END
>  <Pose>
1

>  <Score>
-4.66

$$$$
