
 OpenBabel03202209553D

 57 60  0  0  1  0  0  0  0  0999 V2000
   23.5170   16.7730   27.7960 B   0  0  0  0  0  0  0  0  0  0  0  0
   23.2210   15.0690   28.5940 C   0  0  0  0  0  0  0  0  0  0  0  0
   22.3770   14.9330   29.6860 C   0  0  0  0  0  0  0  0  0  0  0  0
   22.1490   13.7150   30.2760 C   0  0  0  0  0  0  0  0  0  0  0  0
   22.7710   12.5950   29.7770 C   0  0  0  0  0  0  0  0  0  0  0  0
   23.6250   12.7130   28.6770 C   0  0  0  0  0  0  0  0  0  0  0  0
   23.8430   13.9380   28.0970 C   0  0  0  0  0  0  0  0  0  0  0  0
   22.5620   11.2700   30.3180 C   0  0  1  0  0  0  0  0  0  0  0  0
   22.4440   10.3200   29.4340 O   0  0  0  0  0  0  0  0  0  0  0  0
   22.4610   10.8090   31.6830 C   0  0  1  0  0  0  0  0  0  0  0  0
   21.7120    9.5830   31.7880 N   0  0  0  0  0  0  0  0  0  0  0  0
   22.5270    8.6720   30.9520 C   0  0  2  0  0  0  0  0  0  0  0  0
   21.9830    7.3790   31.1140 N   0  0  0  0  0  0  0  0  0  0  0  0
   20.7980    7.5010   31.9060 C   0  0  0  0  0  0  0  0  0  0  0  0
   20.6570    8.8340   32.2970 C   0  0  0  0  0  0  0  0  0  0  0  0
   19.5720    9.1850   33.0730 C   0  0  0  0  0  0  0  0  0  0  0  0
   19.4670   10.3920   33.4130 O   0  0  0  0  0  0  0  0  0  0  0  0
   18.6850    8.2510   33.4320 N   0  0  0  0  0  0  0  0  0  0  0  0
   18.8430    6.9960   33.0470 C   0  0  0  0  0  0  0  0  0  0  0  0
   17.9840    6.1460   33.4070 O   0  0  0  0  0  0  0  0  0  0  0  0
   19.8980    6.5850   32.2780 N   0  0  0  0  0  0  0  0  0  0  0  0
   19.9540    5.1850   31.9230 C   0  0  0  0  0  0  0  0  0  0  0  0
   17.5460    8.6680   34.2580 C   0  0  0  0  0  0  0  0  0  0  0  0
   22.4660    6.1340   30.5740 C   0  0  0  0  0  0  0  0  0  0  0  0
   23.9170    8.9720   31.3260 C   0  0  1  0  0  0  0  0  0  0  0  0
   23.8270   10.2700   32.1390 C   0  0  1  0  0  0  0  0  0  0  0  0
   24.9300   11.1780   31.8410 C   0  0  0  0  0  0  0  0  0  0  0  0
   25.8130   10.8460   30.9810 O   0  0  0  0  0  0  0  0  0  0  0  0
   25.0590   12.3930   32.4570 O   0  0  0  0  0  0  0  0  0  0  0  0
   26.2290   13.2060   32.3400 C   0  0  0  0  0  0  0  0  0  0  0  0
   24.6930    7.9620   32.0330 C   0  0  0  0  0  0  0  0  0  0  0  0
   24.9420    8.1060   33.2580 O   0  0  0  0  0  0  0  0  0  0  0  0
   25.1710    6.8350   31.3990 O   0  0  0  0  0  0  0  0  0  0  0  0
   25.7030    6.8940   30.0940 C   0  0  0  0  0  0  0  0  0  0  0  0
   21.8760   15.7970   30.0970 H   0  0  0  0  0  0  0  0  0  0  0  0
   21.5120   13.6590   31.1200 H   0  0  0  0  0  0  0  0  0  0  0  0
   24.1420   11.8340   28.2500 H   0  0  0  0  0  0  0  0  0  0  0  0
   24.5200   14.0100   27.2320 H   0  0  0  0  0  0  0  0  0  0  0  0
   22.0990   11.5820   32.4020 H   0  0  0  0  0  0  0  0  0  0  0  0
   22.3840    8.9450   29.8730 H   0  0  0  0  0  0  0  0  0  0  0  0
   20.9290    4.7030   32.1270 H   0  0  0  0  0  0  0  0  0  0  0  0
   19.2440    4.6080   32.6030 H   0  0  0  0  0  0  0  0  0  0  0  0
   19.5390    4.9730   30.9120 H   0  0  0  0  0  0  0  0  0  0  0  0
   17.8960    9.1180   35.2110 H   0  0  0  0  0  0  0  0  0  0  0  0
   16.8620    7.8130   34.4190 H   0  0  0  0  0  0  0  0  0  0  0  0
   16.9920    9.4600   33.7070 H   0  0  0  0  0  0  0  0  0  0  0  0
   23.1910    6.3390   29.7280 H   0  0  0  0  0  0  0  0  0  0  0  0
   22.9720    5.4700   31.2650 H   0  0  0  0  0  0  0  0  0  0  0  0
   21.6370    5.5840   30.0240 H   0  0  0  0  0  0  0  0  0  0  0  0
   24.5000    9.3040   30.4010 H   0  0  0  0  0  0  0  0  0  0  0  0
   23.7420   10.0030   33.2240 H   0  0  0  0  0  0  0  0  0  0  0  0
   26.2080   13.7670   31.3720 H   0  0  0  0  0  0  0  0  0  0  0  0
   26.2320   13.8940   33.2080 H   0  0  0  0  0  0  0  0  0  0  0  0
   27.0870   12.4870   32.3770 H   0  0  0  0  0  0  0  0  0  0  0  0
   26.1600    5.8960   29.8760 H   0  0  0  0  0  0  0  0  0  0  0  0
   24.8330    6.9830   29.3970 H   0  0  0  0  0  0  0  0  0  0  0  0
   26.4280    7.7230   29.9670 H   0  0  0  0  0  0  0  0  0  0  0  0
  1  2  1  0  0  0  0
  2  3  1  0  0  0  0
  3 35  1  0  0  0  0
  3  4  2  0  0  0  0
  4 36  1  0  0  0  0
  5  4  1  0  0  0  0
  5  8  1  0  0  0  0
  6  5  2  0  0  0  0
  7  2  2  0  0  0  0
  7  6  1  0  0  0  0
  8  9  1  1  0  0  0
  8 10  1  0  0  0  0
 10 11  1  0  0  0  0
 10 26  1  0  0  0  0
 10 39  1  1  0  0  0
 11 15  1  0  0  0  0
 12 40  1  6  0  0  0
 12 13  1  0  0  0  0
 12 25  1  0  0  0  0
 12 11  1  0  0  0  0
 13 14  1  0  0  0  0
 14 21  1  0  0  0  0
 14 15  2  0  0  0  0
 15 16  1  0  0  0  0
 16 17  2  0  0  0  0
 16 18  1  0  0  0  0
 18 23  1  0  0  0  0
 19 20  2  0  0  0  0
 19 18  1  0  0  0  0
 21 19  1  0  0  0  0
 22 41  1  0  0  0  0
 22 21  1  0  0  0  0
 22 42  1  0  0  0  0
 23 45  1  0  0  0  0
 23 44  1  0  0  0  0
 24 13  1  0  0  0  0
 24 48  1  0  0  0  0
 25 50  1  6  0  0  0
 25 31  1  0  0  0  0
 25 26  1  0  0  0  0
 26 51  1  1  0  0  0
 27 26  1  0  0  0  0
 27 29  1  0  0  0  0
 28 27  2  0  0  0  0
 30 54  1  0  0  0  0
 30 29  1  0  0  0  0
 30 53  1  0  0  0  0
 31 32  2  0  0  0  0
 33 31  1  0  0  0  0
 34 33  1  0  0  0  0
 37  6  1  0  0  0  0
 38  7  1  0  0  0  0
 43 22  1  0  0  0  0
 46 23  1  0  0  0  0
 47 24  1  0  0  0  0
 49 24  1  0  0  0  0
 52 30  1  0  0  0  0
 55 34  1  0  0  0  0
 56 34  1  0  0  0  0
 57 34  1  0  0  0  0
M  END
>  <Pose>
1

>  <Score>
-5.47

$$$$
