
 OpenBabel03202209553D

 52 55  0  0  1  0  0  0  0  0999 V2000
   25.0290   17.9030   24.9120 B   0  0  0  0  0  0  0  0  0  0  0  0
   26.3720   16.7010   25.6010 C   0  0  0  0  0  0  0  0  0  0  0  0
   25.9970   15.5790   26.2970 C   0  0  0  0  0  0  0  0  0  0  0  0
   26.9200   14.6650   26.8330 C   0  0  0  0  0  0  0  0  0  0  0  0
   28.2450   14.9150   26.6400 C   0  0  0  0  0  0  0  0  0  0  0  0
   28.6370   16.0500   25.9370 C   0  0  0  0  0  0  0  0  0  0  0  0
   27.7130   16.9420   25.4190 C   0  0  0  0  0  0  0  0  0  0  0  0
   26.3870   13.4910   27.5440 C   0  0  0  0  0  0  0  0  0  0  0  0
   26.7020   12.3320   27.2430 O   0  0  0  0  0  0  0  0  0  0  0  0
   25.4730   13.7730   28.6370 N   0  0  0  0  0  0  0  0  0  0  0  0
   24.0960   13.3570   28.5230 C   0  0  2  0  0  0  0  0  0  0  0  0
   23.3060   14.5820   29.0520 C   0  0  0  0  0  0  0  0  0  0  0  0
   23.7360   12.2080   29.4090 C   0  0  0  0  0  0  0  0  0  0  0  0
   22.5270   11.9110   29.5120 O   0  0  0  0  0  0  0  0  0  0  0  0
   24.7020   11.4680   30.1000 N   0  0  0  0  0  0  0  0  0  0  0  0
   25.1660   11.5720   31.4420 C   0  0  0  0  0  0  0  0  0  0  0  0
   25.5600   10.1360   31.8190 C   0  0  0  0  0  0  0  0  0  0  0  0
   24.7290    9.1100   31.0870 C   0  0  1  0  0  0  0  0  0  0  0  0
   25.1150    7.7730   31.4450 N   0  0  0  0  0  0  0  0  0  0  0  0
   24.3260    6.8470   30.6200 C   0  0  0  0  0  0  0  0  0  0  0  0
   22.8710    6.8930   30.9680 C   0  0  0  0  0  0  0  0  0  0  0  0
   22.4270    8.2380   31.3990 C   0  0  0  0  0  0  0  0  0  0  0  0
   21.2200    8.6720   31.7720 N   0  0  0  0  0  0  0  0  0  0  0  0
   21.3090    9.9830   32.0720 C   0  0  0  0  0  0  0  0  0  0  0  0
   22.5840   10.3500   31.8780 N   0  0  0  0  0  0  0  0  0  0  0  0
   23.3250    9.3120   31.4620 C   0  0  0  0  0  0  0  0  0  0  0  0
   24.9290    9.1720   29.5640 C   0  0  0  0  0  0  0  0  0  0  0  0
   25.5310   10.4890   29.3200 C   0  0  0  0  0  0  0  0  0  0  0  0
   24.9510   15.3730   26.4690 H   0  0  0  0  0  0  0  0  0  0  0  0
   28.9850   14.2260   27.0430 H   0  0  0  0  0  0  0  0  0  0  0  0
   29.6580   16.2610   25.7630 H   0  0  0  0  0  0  0  0  0  0  0  0
   27.9780   17.8460   24.8700 H   0  0  0  0  0  0  0  0  0  0  0  0
   25.8000   14.2620   29.4690 H   0  0  0  0  0  0  0  0  0  0  0  0
   23.7570   13.2380   27.4800 H   0  0  0  0  0  0  0  0  0  0  0  0
   23.7360   14.6890   30.1070 H   0  0  0  0  0  0  0  0  0  0  0  0
   23.5490   15.4710   28.5010 H   0  0  0  0  0  0  0  0  0  0  0  0
   22.2400   14.3550   29.1240 H   0  0  0  0  0  0  0  0  0  0  0  0
   26.1120   12.1730   31.4070 H   0  0  0  0  0  0  0  0  0  0  0  0
   24.4780   12.0170   32.1500 H   0  0  0  0  0  0  0  0  0  0  0  0
   25.2910   10.0450   32.8790 H   0  0  0  0  0  0  0  0  0  0  0  0
   26.6420    9.9730   31.7660 H   0  0  0  0  0  0  0  0  0  0  0  0
   26.1130    7.6140   31.1680 H   0  0  0  0  0  0  0  0  0  0  0  0
   24.4140    7.0080   29.5480 H   0  0  0  0  0  0  0  0  0  0  0  0
   24.6840    5.7960   30.8270 H   0  0  0  0  0  0  0  0  0  0  0  0
   22.5700    6.0880   31.6970 H   0  0  0  0  0  0  0  0  0  0  0  0
   22.2600    6.6490   30.0450 H   0  0  0  0  0  0  0  0  0  0  0  0
   20.3150    8.1570   31.8480 H   0  0  0  0  0  0  0  0  0  0  0  0
   20.5480   10.6600   32.4080 H   0  0  0  0  0  0  0  0  0  0  0  0
   23.9540    8.9830   29.1150 H   0  0  0  0  0  0  0  0  0  0  0  0
   25.6980    8.4170   29.2290 H   0  0  0  0  0  0  0  0  0  0  0  0
   25.7250   10.8600   28.3330 H   0  0  0  0  0  0  0  0  0  0  0  0
   26.5620   10.4590   29.8130 H   0  0  0  0  0  0  0  0  0  0  0  0
  1  2  1  0  0  0  0
  2  3  1  0  0  0  0
  3 29  1  0  0  0  0
  3  4  2  0  0  0  0
  4  8  1  0  0  0  0
  5  4  1  0  0  0  0
  5 30  1  0  0  0  0
  6  5  2  0  0  0  0
  7  2  2  0  0  0  0
  7  6  1  0  0  0  0
  8 10  1  0  0  0  0
  9  8  2  0  0  0  0
 10 33  1  0  0  0  0
 11 34  1  6  0  0  0
 11 10  1  0  0  0  0
 11 12  1  0  0  0  0
 11 13  1  0  0  0  0
 12 37  1  0  0  0  0
 12 35  1  0  0  0  0
 13 14  2  0  0  0  0
 13 15  1  0  0  0  0
 15 16  1  0  0  0  0
 16 17  1  0  0  0  0
 16 39  1  0  0  0  0
 17 40  1  0  0  0  0
 18 19  1  0  0  0  0
 18 26  1  1  0  0  0
 18 17  1  0  0  0  0
 20 44  1  0  0  0  0
 20 21  1  0  0  0  0
 20 19  1  0  0  0  0
 21 22  1  0  0  0  0
 21 45  1  0  0  0  0
 22 26  2  0  0  0  0
 22 23  1  0  0  0  0
 23 47  1  0  0  0  0
 23 24  1  0  0  0  0
 24 48  1  0  0  0  0
 25 24  2  0  0  0  0
 26 25  1  0  0  0  0
 27 18  1  0  0  0  0
 28 27  1  0  0  0  0
 28 52  1  0  0  0  0
 28 15  1  0  0  0  0
 31  6  1  0  0  0  0
 32  7  1  0  0  0  0
 36 12  1  0  0  0  0
 38 16  1  0  0  0  0
 41 17  1  0  0  0  0
 42 19  1  0  0  0  0
 43 20  1  0  0  0  0
 46 21  1  0  0  0  0
 49 27  1  0  0  0  0
 50 27  1  0  0  0  0
 51 28  1  0  0  0  0
M  END
>  <Pose>
1

>  <Score>
-6.14

$$$$
