
 OpenBabel03202209553D

 45 48  0  0  0  0  0  0  0  0999 V2000
   22.9050   18.8800   26.8560 B   0  0  0  0  0  0  0  0  0  0  0  0
   23.0840   17.1620   27.7040 C   0  0  0  0  0  0  0  0  0  0  0  0
   22.5730   16.9450   28.9710 C   0  0  0  0  0  0  0  0  0  0  0  0
   22.6910   15.7410   29.5820 N   0  0  0  0  0  0  0  0  0  0  0  0
   23.3070   14.7220   28.9730 C   0  0  0  0  0  0  0  0  0  0  0  0
   23.4210   13.5310   29.5830 N   0  0  0  0  0  0  0  0  0  0  0  0
   22.9320   13.3010   30.8130 C   0  0  0  0  0  0  0  0  0  0  0  0
   22.2990   14.3460   31.4390 C   0  0  0  0  0  0  0  0  0  0  0  0
   22.1700   15.5960   30.8180 C   0  0  0  0  0  0  0  0  0  0  0  0
   21.5850   16.5310   31.4200 O   0  0  0  0  0  0  0  0  0  0  0  0
   23.0890   11.9690   31.4300 C   0  0  0  0  0  0  0  0  0  0  0  0
   22.3380   11.0630   30.6690 O   0  0  0  0  0  0  0  0  0  0  0  0
   22.7070    9.6910   30.7210 C   0  0  0  0  0  0  0  0  0  0  0  0
   23.8110    9.5090   30.2230 O   0  0  0  0  0  0  0  0  0  0  0  0
   21.7870    8.7430   31.3190 C   0  0  0  0  0  0  0  0  0  0  0  0
   20.6430    9.1770   31.9270 N   0  0  0  0  0  0  0  0  0  0  0  0
   19.7880    8.3350   32.4790 N   0  0  0  0  0  0  0  0  0  0  0  0
   20.0050    7.0080   32.4680 C   0  0  0  0  0  0  0  0  0  0  0  0
   19.1720    6.2040   33.0050 O   0  0  0  0  0  0  0  0  0  0  0  0
   21.1330    6.4900   31.8770 C   0  0  0  0  0  0  0  0  0  0  0  0
   22.0200    7.4030   31.3000 C   0  0  0  0  0  0  0  0  0  0  0  0
   23.1310    6.8420   30.7210 C   0  0  0  0  0  0  0  0  0  0  0  0
   23.3470    5.4680   30.7150 C   0  0  0  0  0  0  0  0  0  0  0  0
   22.4520    4.5980   31.2930 C   0  0  0  0  0  0  0  0  0  0  0  0
   21.3340    5.1350   31.8780 C   0  0  0  0  0  0  0  0  0  0  0  0
   18.5790    8.8070   33.1210 C   0  0  0  0  0  0  0  0  0  0  0  0
   17.6060    7.6940   33.4060 C   0  0  0  0  0  0  0  0  0  0  0  0
   16.5850    8.0810   34.2550 O   0  0  0  0  0  0  0  0  0  0  0  0
   23.8190   14.9170   27.7180 C   0  0  0  0  0  0  0  0  0  0  0  0
   23.7200   16.1270   27.0640 C   0  0  0  0  0  0  0  0  0  0  0  0
   22.0740   17.7910   29.4500 H   0  0  0  0  0  0  0  0  0  0  0  0
   21.8850   14.2210   32.4290 H   0  0  0  0  0  0  0  0  0  0  0  0
   24.1500   11.6740   31.5480 H   0  0  0  0  0  0  0  0  0  0  0  0
   22.7070   12.0490   32.4850 H   0  0  0  0  0  0  0  0  0  0  0  0
   23.8640    7.4440   30.2580 H   0  0  0  0  0  0  0  0  0  0  0  0
   24.2400    5.0740   30.2450 H   0  0  0  0  0  0  0  0  0  0  0  0
   22.6180    3.5170   31.2900 H   0  0  0  0  0  0  0  0  0  0  0  0
   20.6230    4.4770   32.3330 H   0  0  0  0  0  0  0  0  0  0  0  0
   18.0670    9.5360   32.4620 H   0  0  0  0  0  0  0  0  0  0  0  0
   18.8260    9.3220   34.0610 H   0  0  0  0  0  0  0  0  0  0  0  0
   18.1140    6.7950   33.8000 H   0  0  0  0  0  0  0  0  0  0  0  0
   17.1440    7.4120   32.4390 H   0  0  0  0  0  0  0  0  0  0  0  0
   16.0780    7.2710   34.4990 H   0  0  0  0  0  0  0  0  0  0  0  0
   24.3300   14.0910   27.2030 H   0  0  0  0  0  0  0  0  0  0  0  0
   24.1250   16.2750   26.0760 H   0  0  0  0  0  0  0  0  0  0  0  0
  1  2  1  0  0  0  0
  2  3  1  0  0  0  0
  3 31  1  0  0  0  0
  3  4  1  0  0  0  0
  4  9  1  0  0  0  0
  5  4  1  0  0  0  0
  5  6  1  0  0  0  0
  6  7  2  0  0  0  0
  7 11  1  0  0  0  0
  7  8  1  0  0  0  0
  8 32  1  0  0  0  0
  9 10  2  0  0  0  0
  9  8  1  0  0  0  0
 11 33  1  0  0  0  0
 11 34  1  0  0  0  0
 12 13  1  0  0  0  0
 12 11  1  0  0  0  0
 13 15  1  0  0  0  0
 14 13  2  0  0  0  0
 15 16  2  0  0  0  0
 16 17  1  0  0  0  0
 17 26  1  0  0  0  0
 18 17  1  0  0  0  0
 18 19  2  0  0  0  0
 20 25  1  0  0  0  0
 20 18  1  0  0  0  0
 21 15  1  0  0  0  0
 21 20  2  0  0  0  0
 22 21  1  0  0  0  0
 23 22  2  0  0  0  0
 23 24  1  0  0  0  0
 24 25  2  0  0  0  0
 25 38  1  0  0  0  0
 26 27  1  0  0  0  0
 26 40  1  0  0  0  0
 27 41  1  0  0  0  0
 27 28  1  0  0  0  0
 28 43  1  0  0  0  0
 29  5  2  0  0  0  0
 30  2  2  0  0  0  0
 30 29  1  0  0  0  0
 35 22  1  0  0  0  0
 36 23  1  0  0  0  0
 37 24  1  0  0  0  0
 39 26  1  0  0  0  0
 42 27  1  0  0  0  0
 44 29  1  0  0  0  0
 45 30  1  0  0  0  0
M  END
>  <Pose>
1

>  <Score>
-8.38

$$$$
