
 OpenBabel03202209553D

 49 52  0  0  0  0  0  0  0  0999 V2000
   27.7450   15.5880   25.0330 B   0  0  0  0  0  0  0  0  0  0  0  0
   26.0820   16.0830   25.7930 C   0  0  0  0  0  0  0  0  0  0  0  0
   25.6100   15.3900   26.8930 C   0  0  0  0  0  0  0  0  0  0  0  0
   24.4040   15.7010   27.4930 C   0  0  0  0  0  0  0  0  0  0  0  0
   23.6640   16.7460   26.9570 C   0  0  0  0  0  0  0  0  0  0  0  0
   24.1400   17.4300   25.8640 C   0  0  0  0  0  0  0  0  0  0  0  0
   25.3380   17.1340   25.2530 C   0  0  0  0  0  0  0  0  0  0  0  0
   23.8810   14.9910   28.6510 C   0  0  0  0  0  0  0  0  0  0  0  0
   22.7900   15.3550   29.1590 O   0  0  0  0  0  0  0  0  0  0  0  0
   24.5440   13.8940   29.2460 N   0  0  0  0  0  0  0  0  0  0  0  0
   24.0700   13.2850   30.4710 C   0  0  0  0  0  0  0  0  0  0  0  0
   24.2840   11.8140   30.4700 C   0  0  0  0  0  0  0  0  0  0  0  0
   25.4660   11.4100   30.3490 O   0  0  0  0  0  0  0  0  0  0  0  0
   23.2470   10.8760   30.5970 N   0  0  0  0  0  0  0  0  0  0  0  0
   22.3880   10.8220   31.7540 C   0  0  0  0  0  0  0  0  0  0  0  0
   22.6400    9.4900   32.4260 C   0  0  0  0  0  0  0  0  0  0  0  0
   22.5360    8.3790   31.4090 C   0  0  0  0  0  0  0  0  0  0  0  0
   23.8280    7.7340   31.3170 N   0  0  0  0  0  0  0  0  0  0  0  0
   23.8640    6.5790   30.4890 C   0  0  0  0  0  0  0  0  0  0  0  0
   22.6940    5.6670   30.5480 C   0  0  0  0  0  0  0  0  0  0  0  0
   21.6740    6.0350   31.5520 C   0  0  0  0  0  0  0  0  0  0  0  0
   20.7180    5.3070   32.2060 N   0  0  0  0  0  0  0  0  0  0  0  0
   20.0670    6.1620   33.0060 C   0  0  0  0  0  0  0  0  0  0  0  0
   20.5940    7.3890   32.8630 N   0  0  0  0  0  0  0  0  0  0  0  0
   21.6040    7.3480   31.9590 C   0  0  0  0  0  0  0  0  0  0  0  0
   22.0680    8.8190   30.0590 C   0  0  0  0  0  0  0  0  0  0  0  0
   23.0060    9.9170   29.5500 C   0  0  0  0  0  0  0  0  0  0  0  0
   26.2040   14.5980   27.2730 H   0  0  0  0  0  0  0  0  0  0  0  0
   22.7070   17.0560   27.3680 H   0  0  0  0  0  0  0  0  0  0  0  0
   23.5750   18.2510   25.4300 H   0  0  0  0  0  0  0  0  0  0  0  0
   25.7360   17.6430   24.4060 H   0  0  0  0  0  0  0  0  0  0  0  0
   25.3960   13.5150   28.7890 H   0  0  0  0  0  0  0  0  0  0  0  0
   22.9790   13.4420   30.5940 H   0  0  0  0  0  0  0  0  0  0  0  0
   24.5980   13.7910   31.3030 H   0  0  0  0  0  0  0  0  0  0  0  0
   21.3120   10.8700   31.4480 H   0  0  0  0  0  0  0  0  0  0  0  0
   22.5370   11.6720   32.4430 H   0  0  0  0  0  0  0  0  0  0  0  0
   21.9510    9.3250   33.2820 H   0  0  0  0  0  0  0  0  0  0  0  0
   23.6830    9.5580   32.8410 H   0  0  0  0  0  0  0  0  0  0  0  0
   24.5180    8.4320   30.9340 H   0  0  0  0  0  0  0  0  0  0  0  0
   24.7660    5.9800   30.8110 H   0  0  0  0  0  0  0  0  0  0  0  0
   24.0940    6.8250   29.4160 H   0  0  0  0  0  0  0  0  0  0  0  0
   22.9920    4.5970   30.7600 H   0  0  0  0  0  0  0  0  0  0  0  0
   22.1780    5.5850   29.5480 H   0  0  0  0  0  0  0  0  0  0  0  0
   20.5620    4.2660   32.0700 H   0  0  0  0  0  0  0  0  0  0  0  0
   19.2510    5.9070   33.6620 H   0  0  0  0  0  0  0  0  0  0  0  0
   21.0210    9.1200   30.0330 H   0  0  0  0  0  0  0  0  0  0  0  0
   22.1940    7.9710   29.3630 H   0  0  0  0  0  0  0  0  0  0  0  0
   22.5510   10.4440   28.6850 H   0  0  0  0  0  0  0  0  0  0  0  0
   23.9110    9.4170   29.1960 H   0  0  0  0  0  0  0  0  0  0  0  0
  1  2  1  0  0  0  0
  2  3  1  0  0  0  0
  3 28  1  0  0  0  0
  3  4  2  0  0  0  0
  4  8  1  0  0  0  0
  5 29  1  0  0  0  0
  5  4  1  0  0  0  0
  6  5  2  0  0  0  0
  7  2  2  0  0  0  0
  7  6  1  0  0  0  0
  8  9  2  0  0  0  0
  8 10  1  0  0  0  0
 10 11  1  0  0  0  0
 11 33  1  0  0  0  0
 11 34  1  0  0  0  0
 12 11  1  0  0  0  0
 12 14  1  0  0  0  0
 13 12  2  0  0  0  0
 14 15  1  0  0  0  0
 15 16  1  0  0  0  0
 15 36  1  0  0  0  0
 16 38  1  0  0  0  0
 16 37  1  0  0  0  0
 17 25  1  0  0  0  0
 17 16  1  0  0  0  0
 18 17  1  0  0  0  0
 19 20  1  0  0  0  0
 19 40  1  0  0  0  0
 19 18  1  0  0  0  0
 20 42  1  0  0  0  0
 20 21  1  0  0  0  0
 21 25  2  0  0  0  0
 21 22  1  0  0  0  0
 22 23  1  0  0  0  0
 23 45  1  0  0  0  0
 24 23  2  0  0  0  0
 25 24  1  0  0  0  0
 26 17  1  0  0  0  0
 27 26  1  0  0  0  0
 27 14  1  0  0  0  0
 30  6  1  0  0  0  0
 31  7  1  0  0  0  0
 32 10  1  0  0  0  0
 35 15  1  0  0  0  0
 39 18  1  0  0  0  0
 41 19  1  0  0  0  0
 43 20  1  0  0  0  0
 44 22  1  0  0  0  0
 46 26  1  0  0  0  0
 47 26  1  0  0  0  0
 48 27  1  0  0  0  0
 49 27  1  0  0  0  0
M  END
>  <Pose>
1

>  <Score>
-7.19

$$$$
