
 OpenBabel03202209553D

 51 54  0  0  1  0  0  0  0  0999 V2000
   23.0110   15.7210   33.3430 B   0  0  0  0  0  0  0  0  0  0  0  0
   22.8590   14.3380   32.0370 C   0  0  0  0  0  0  0  0  0  0  0  0
   23.3220   13.0610   32.2890 C   0  0  0  0  0  0  0  0  0  0  0  0
   23.2360   12.0290   31.3790 C   0  0  0  0  0  0  0  0  0  0  0  0
   22.6390   12.3450   30.1550 C   0  0  0  0  0  0  0  0  0  0  0  0
   22.1780   13.6140   29.9050 C   0  0  0  0  0  0  0  0  0  0  0  0
   22.2710   14.6370   30.8260 C   0  0  0  0  0  0  0  0  0  0  0  0
   21.7540   15.9970   30.5010 C   0  0  0  0  0  0  0  0  0  0  0  0
   22.5670   11.2820   29.2660 O   0  0  0  0  0  0  0  0  0  0  0  0
   23.2270   10.0430   29.4460 C   0  0  0  0  0  0  0  0  0  0  0  0
   23.0890    9.5610   30.9280 C   0  0  2  0  0  0  0  0  0  0  0  0
   23.7410   10.6880   31.6390 C   0  0  0  0  0  0  0  0  0  0  0  0
   24.6880   10.6220   32.4420 O   0  0  0  0  0  0  0  0  0  0  0  0
   23.5910    8.3160   31.1470 N   0  0  0  0  0  0  0  0  0  0  0  0
   24.8740    7.9050   30.7670 C   0  0  0  0  0  0  0  0  0  0  0  0
   24.8020    7.0840   29.4980 C   0  0  0  0  0  0  0  0  0  0  0  0
   24.1130    5.9000   29.8530 O   0  0  0  0  0  0  0  0  0  0  0  0
   22.7800    6.3150   30.0190 C   0  0  0  0  0  0  0  0  0  0  0  0
   22.7220    7.2280   31.2460 C   0  0  0  0  0  0  0  0  0  0  0  0
   21.6200    9.6040   31.1560 C   0  0  0  0  0  0  0  0  0  0  0  0
   21.1420    9.7050   32.4990 N   0  0  0  0  0  0  0  0  0  0  0  0
   20.3710   10.8340   32.8590 C   0  0  0  0  0  0  0  0  0  0  0  0
   18.9420   10.7090   32.3110 C   0  0  0  0  0  0  0  0  0  0  0  0
   18.3730    9.6290   32.9940 O   0  0  0  0  0  0  0  0  0  0  0  0
   19.0120    8.4740   32.5280 C   0  0  0  0  0  0  0  0  0  0  0  0
   20.4730    8.4530   32.8560 C   0  0  0  0  0  0  0  0  0  0  0  0
   23.7920   12.8120   33.2560 H   0  0  0  0  0  0  0  0  0  0  0  0
   21.7220   13.8240   28.9460 H   0  0  0  0  0  0  0  0  0  0  0  0
   22.3600   16.7920   30.9770 H   0  0  0  0  0  0  0  0  0  0  0  0
   21.7470   16.0740   29.3900 H   0  0  0  0  0  0  0  0  0  0  0  0
   20.6960   16.0840   30.8230 H   0  0  0  0  0  0  0  0  0  0  0  0
   22.7510    9.3250   28.7600 H   0  0  0  0  0  0  0  0  0  0  0  0
   24.3080   10.1370   29.1930 H   0  0  0  0  0  0  0  0  0  0  0  0
   25.6480    8.6610   30.6640 H   0  0  0  0  0  0  0  0  0  0  0  0
   25.2530    7.1930   31.5520 H   0  0  0  0  0  0  0  0  0  0  0  0
   24.3010    7.6120   28.6910 H   0  0  0  0  0  0  0  0  0  0  0  0
   25.8340    6.7610   29.2530 H   0  0  0  0  0  0  0  0  0  0  0  0
   22.1800    5.4240   30.2710 H   0  0  0  0  0  0  0  0  0  0  0  0
   22.4860    6.8020   29.0930 H   0  0  0  0  0  0  0  0  0  0  0  0
   23.1370    6.5520   32.0720 H   0  0  0  0  0  0  0  0  0  0  0  0
   21.6870    7.3690   31.5260 H   0  0  0  0  0  0  0  0  0  0  0  0
   21.0910    8.7120   30.7110 H   0  0  0  0  0  0  0  0  0  0  0  0
   21.1350   10.4760   30.6170 H   0  0  0  0  0  0  0  0  0  0  0  0
   20.7440   11.7780   32.5100 H   0  0  0  0  0  0  0  0  0  0  0  0
   20.2360   10.8230   33.9700 H   0  0  0  0  0  0  0  0  0  0  0  0
   18.4390   11.6700   32.5960 H   0  0  0  0  0  0  0  0  0  0  0  0
   18.9240   10.5780   31.2190 H   0  0  0  0  0  0  0  0  0  0  0  0
   18.5330    7.6300   33.0970 H   0  0  0  0  0  0  0  0  0  0  0  0
   18.7990    8.2940   31.4580 H   0  0  0  0  0  0  0  0  0  0  0  0
   20.6370    8.1960   33.9120 H   0  0  0  0  0  0  0  0  0  0  0  0
   20.9590    7.6620   32.2490 H   0  0  0  0  0  0  0  0  0  0  0  0
  2  3  1  0  0  0  0
  2  1  1  0  0  0  0
  3 27  1  0  0  0  0
  4 12  1  0  0  0  0
  4  3  2  0  0  0  0
  5  4  1  0  0  0  0
  6  5  2  0  0  0  0
  6  7  1  0  0  0  0
  7  2  2  0  0  0  0
  8 31  1  0  0  0  0
  8  7  1  0  0  0  0
  8 29  1  0  0  0  0
  9 10  1  0  0  0  0
  9  5  1  0  0  0  0
 10 11  1  0  0  0  0
 11 14  1  0  0  0  0
 11 20  1  1  0  0  0
 11 12  1  0  0  0  0
 12 13  2  0  0  0  0
 14 19  1  0  0  0  0
 15 14  1  0  0  0  0
 15 35  1  0  0  0  0
 16 17  1  0  0  0  0
 16 15  1  0  0  0  0
 17 18  1  0  0  0  0
 18 38  1  0  0  0  0
 18 19  1  0  0  0  0
 19 41  1  0  0  0  0
 19 40  1  0  0  0  0
 20 21  1  0  0  0  0
 21 26  1  0  0  0  0
 21 22  1  0  0  0  0
 22 45  1  0  0  0  0
 23 46  1  0  0  0  0
 23 22  1  0  0  0  0
 23 24  1  0  0  0  0
 25 26  1  0  0  0  0
 25 24  1  0  0  0  0
 25 48  1  0  0  0  0
 26 50  1  0  0  0  0
 28  6  1  0  0  0  0
 30  8  1  0  0  0  0
 32 10  1  0  0  0  0
 33 10  1  0  0  0  0
 34 15  1  0  0  0  0
 36 16  1  0  0  0  0
 37 16  1  0  0  0  0
 39 18  1  0  0  0  0
 42 20  1  0  0  0  0
 43 20  1  0  0  0  0
 44 22  1  0  0  0  0
 47 23  1  0  0  0  0
 49 25  1  0  0  0  0
 51 26  1  0  0  0  0
M  END
>  <Pose>
1

>  <Score>
-5.04

$$$$
