
 OpenBabel03202209553D

 36 39  0  0  1  0  0  0  0  0999 V2000
   18.5650    9.2230   33.8290 B   0  0  0  0  0  0  0  0  0  0  0  0
   20.0690    8.5550   32.8260 C   0  0  0  0  0  0  0  0  0  0  0  0
   21.0670    9.3940   32.4060 C   0  0  0  0  0  0  0  0  0  0  0  0
   22.1340    8.8930   31.6900 C   0  0  0  0  0  0  0  0  0  0  0  0
   22.1480    7.5500   31.4270 C   0  0  0  0  0  0  0  0  0  0  0  0
   21.1210    6.6880   31.8610 C   0  0  0  0  0  0  0  0  0  0  0  0
   20.0690    7.2030   32.5710 C   0  0  0  0  0  0  0  0  0  0  0  0
   23.3070    7.1860   30.6830 N   0  0  0  0  0  0  0  0  0  0  0  0
   24.0610    8.3460   30.4650 C   0  0  0  0  0  0  0  0  0  0  0  0
   25.1610    8.3940   29.8340 O   0  0  0  0  0  0  0  0  0  0  0  0
   23.3480    9.5090   31.1000 C   0  0  2  0  0  0  0  0  0  0  0  0
   24.2650   10.0400   32.1020 C   0  0  0  0  0  0  0  0  0  0  0  0
   24.7690   11.3000   32.0010 C   0  0  0  0  0  0  0  0  0  0  0  0
   25.5810   11.4830   33.0830 N   0  0  0  0  0  0  0  0  0  0  0  0
   25.5940   10.3990   33.8310 N   0  0  0  0  0  0  0  0  0  0  0  0
   24.8020    9.4890   33.2690 C   0  0  0  0  0  0  0  0  0  0  0  0
   24.4820    8.1010   33.7270 C   0  0  0  0  0  0  0  0  0  0  0  0
   24.4480   12.1620   30.9470 O   0  0  0  0  0  0  0  0  0  0  0  0
   23.5740   11.6510   29.9930 C   0  0  0  0  0  0  0  0  0  0  0  0
   23.0570   10.4510   30.0350 C   0  0  0  0  0  0  0  0  0  0  0  0
   22.1480   10.0790   28.9380 C   0  0  0  0  0  0  0  0  0  0  0  0
   21.4090    9.7950   28.0790 N   0  0  0  0  0  0  0  0  0  0  0  0
   23.2030   12.5030   28.8720 N   0  0  0  0  0  0  0  0  0  0  0  0
   23.6620    5.8350   30.2200 C   0  0  0  0  0  0  0  0  0  0  0  0
   21.0400   10.4500   32.6220 H   0  0  0  0  0  0  0  0  0  0  0  0
   21.1350    5.6270   31.6510 H   0  0  0  0  0  0  0  0  0  0  0  0
   19.2530    6.5530   32.9220 H   0  0  0  0  0  0  0  0  0  0  0  0
   26.1200   10.2270   34.7270 H   0  0  0  0  0  0  0  0  0  0  0  0
   25.0550    7.9500   34.6790 H   0  0  0  0  0  0  0  0  0  0  0  0
   23.4080    8.0060   34.0230 H   0  0  0  0  0  0  0  0  0  0  0  0
   24.8220    7.3330   33.0340 H   0  0  0  0  0  0  0  0  0  0  0  0
   23.8930   13.2460   28.6450 H   0  0  0  0  0  0  0  0  0  0  0  0
   22.3400   12.3920   28.3440 H   0  0  0  0  0  0  0  0  0  0  0  0
   23.7220    5.8720   29.1150 H   0  0  0  0  0  0  0  0  0  0  0  0
   24.7000    5.6700   30.5930 H   0  0  0  0  0  0  0  0  0  0  0  0
   22.9740    5.0840   30.6070 H   0  0  0  0  0  0  0  0  0  0  0  0
  2  1  1  0  0  0  0
  3 25  1  0  0  0  0
  3  2  2  0  0  0  0
  4  3  1  0  0  0  0
  5  4  2  0  0  0  0
  5  6  1  0  0  0  0
  6  7  2  0  0  0  0
  7  2  1  0  0  0  0
  7 27  1  0  0  0  0
  8  5  1  0  0  0  0
  9  8  1  0  0  0  0
  9 11  1  0  0  0  0
 10  9  2  0  0  0  0
 11 20  1  6  0  0  0
 11  4  1  0  0  0  0
 11 12  1  0  0  0  0
 12 16  2  0  0  0  0
 13 12  1  0  0  0  0
 13 14  2  0  0  0  0
 14 15  1  0  0  0  0
 15 28  1  0  0  0  0
 16 17  1  0  0  0  0
 16 15  1  0  0  0  0
 17 30  1  0  0  0  0
 17 29  1  0  0  0  0
 18 13  1  0  0  0  0
 19 20  2  0  0  0  0
 19 18  1  0  0  0  0
 21 20  1  0  0  0  0
 22 21  3  0  0  0  0
 23 19  1  0  0  0  0
 24 35  1  0  0  0  0
 24 36  1  0  0  0  0
 24  8  1  0  0  0  0
 26  6  1  0  0  0  0
 31 17  1  0  0  0  0
 32 23  1  0  0  0  0
 33 23  1  0  0  0  0
 34 24  1  0  0  0  0
M  END
>  <Pose>
1

>  <Score>
-4.55

$$$$
