
 OpenBabel03202209553D

 38 41  0  0  0  0  0  0  0  0999 V2000
   19.7630    9.8860   33.3640 B   0  0  0  0  0  0  0  0  0  0  0  0
   21.1650    8.9940   32.4560 C   0  0  0  0  0  0  0  0  0  0  0  0
   20.9900    7.7020   32.0950 C   0  0  0  0  0  0  0  0  0  0  0  0
   19.9510    6.8590   32.2600 N   0  0  0  0  0  0  0  0  0  0  0  0
   20.3540    5.7210   31.7010 N   0  0  0  0  0  0  0  0  0  0  0  0
   21.5580    5.8110   31.2080 N   0  0  0  0  0  0  0  0  0  0  0  0
   22.0190    7.0690   31.4340 C   0  0  0  0  0  0  0  0  0  0  0  0
   23.2040    7.7380   31.1460 C   0  0  0  0  0  0  0  0  0  0  0  0
   23.3830    9.0210   31.5030 N   0  0  0  0  0  0  0  0  0  0  0  0
   22.3660    9.6310   32.1500 C   0  0  0  0  0  0  0  0  0  0  0  0
   24.6020    9.7610   31.2230 C   0  0  0  0  0  0  0  0  0  0  0  0
   24.4100   10.9380   30.3820 C   0  0  0  0  0  0  0  0  0  0  0  0
   25.2120   11.0700   29.4070 O   0  0  0  0  0  0  0  0  0  0  0  0
   23.3920   11.9700   30.5550 C   0  0  0  0  0  0  0  0  0  0  0  0
   23.6360   13.0030   31.4150 C   0  0  0  0  0  0  0  0  0  0  0  0
   22.6960   13.9830   31.6030 C   0  0  0  0  0  0  0  0  0  0  0  0
   21.4820   13.9700   30.9420 C   0  0  0  0  0  0  0  0  0  0  0  0
   21.2640   12.9030   30.0730 C   0  0  0  0  0  0  0  0  0  0  0  0
   22.2000   11.9230   29.8830 C   0  0  0  0  0  0  0  0  0  0  0  0
   20.5210   14.9440   31.1140 C   0  0  0  0  0  0  0  0  0  0  0  0
   20.8030   15.9710   31.9890 C   0  0  0  0  0  0  0  0  0  0  0  0
   22.0110   15.9950   32.6540 C   0  0  0  0  0  0  0  0  0  0  0  0
   22.9660   15.0200   32.4780 C   0  0  0  0  0  0  0  0  0  0  0  0
   18.6860    7.0340   32.8670 C   0  0  0  0  0  0  0  0  0  0  0  0
   23.9670    7.2030   30.6340 H   0  0  0  0  0  0  0  0  0  0  0  0
   22.4880   10.6620   32.4460 H   0  0  0  0  0  0  0  0  0  0  0  0
   25.0890   10.0910   32.1800 H   0  0  0  0  0  0  0  0  0  0  0  0
   25.3170    9.0780   30.7290 H   0  0  0  0  0  0  0  0  0  0  0  0
   24.5740   13.0910   31.9790 H   0  0  0  0  0  0  0  0  0  0  0  0
   20.2960   12.8960   29.5500 H   0  0  0  0  0  0  0  0  0  0  0  0
   21.9930   11.0980   29.1940 H   0  0  0  0  0  0  0  0  0  0  0  0
   19.5890   14.8770   30.5680 H   0  0  0  0  0  0  0  0  0  0  0  0
   20.0550   16.7540   32.1400 H   0  0  0  0  0  0  0  0  0  0  0  0
   22.2160   16.8090   33.3380 H   0  0  0  0  0  0  0  0  0  0  0  0
   23.9220   15.0480   33.0100 H   0  0  0  0  0  0  0  0  0  0  0  0
   18.2200    6.0400   33.0310 H   0  0  0  0  0  0  0  0  0  0  0  0
   17.9840    7.5620   32.1540 H   0  0  0  0  0  0  0  0  0  0  0  0
   18.6260    7.5630   33.8040 H   0  0  0  0  0  0  0  0  0  0  0  0
  2  1  1  0  0  0  0
  3  4  1  0  0  0  0
  3  2  1  0  0  0  0
  4 24  1  0  0  0  0
  5  4  1  0  0  0  0
  6  7  1  0  0  0  0
  6  5  2  0  0  0  0
  7  3  2  0  0  0  0
  8  7  1  0  0  0  0
  8  9  1  0  0  0  0
  9 10  1  0  0  0  0
 10 26  1  0  0  0  0
 10  2  2  0  0  0  0
 11  9  1  0  0  0  0
 11 27  1  0  0  0  0
 12 14  1  0  0  0  0
 12 11  1  0  0  0  0
 13 12  2  0  0  0  0
 14 15  1  0  0  0  0
 15 16  2  0  0  0  0
 15 29  1  0  0  0  0
 16 23  1  0  0  0  0
 17 20  1  0  0  0  0
 17 16  1  0  0  0  0
 18 17  2  0  0  0  0
 19 18  1  0  0  0  0
 19 14  2  0  0  0  0
 20 21  2  0  0  0  0
 21 33  1  0  0  0  0
 21 22  1  0  0  0  0
 22 34  1  0  0  0  0
 23 22  2  0  0  0  0
 23 35  1  0  0  0  0
 24 36  1  0  0  0  0
 24 38  1  0  0  0  0
 25  8  1  0  0  0  0
 28 11  1  0  0  0  0
 30 18  1  0  0  0  0
 31 19  1  0  0  0  0
 32 20  1  0  0  0  0
 37 24  1  0  0  0  0
M  END
>  <Pose>
1

>  <Score>
-6.45

$$$$
