
 OpenBabel03202209553D

 66 69  0  0  1  0  0  0  0  0999 V2000
   31.4680   11.8150   30.7810 B   0  0  0  0  0  0  0  0  0  0  0  0
   30.0740   12.1860   29.5190 C   0  0  0  0  0  0  0  0  0  0  0  0
   28.9750   11.3640   29.4520 C   0  0  0  0  0  0  0  0  0  0  0  0
   27.9310   11.6000   28.5420 C   0  0  0  0  0  0  0  0  0  0  0  0
   28.0690   12.6980   27.7220 C   0  0  0  0  0  0  0  0  0  0  0  0
   29.1600   13.5390   27.7680 C   0  0  0  0  0  0  0  0  0  0  0  0
   30.1700   13.2870   28.6690 C   0  0  0  0  0  0  0  0  0  0  0  0
   31.3840   14.1330   28.7950 C   0  0  0  0  0  0  0  0  0  0  0  0
   29.3230   15.0540   26.6200 B   0  0  0  0  0  0  0  0  0  0  0  0
   26.7930   10.7050   28.5030 C   0  0  0  0  0  0  0  0  0  0  0  0
   25.8250   10.9620   27.7800 O   0  0  0  0  0  0  0  0  0  0  0  0
   26.8000    9.4870   29.3320 C   0  0  1  0  0  0  0  0  0  0  0  0
   27.5640    9.8120   30.5970 C   0  0  0  0  0  0  0  0  0  0  0  0
   28.8720   10.2630   30.2980 O   0  0  0  0  0  0  0  0  0  0  0  0
   25.4320    8.9560   29.6340 C   0  0  0  0  0  0  0  0  0  0  0  0
   25.2640    8.3580   30.9020 N   0  0  0  0  0  4  0  0  0  0  0  0
   24.7060    9.3060   31.8210 C   0  0  0  0  0  0  0  0  0  0  0  0
   23.2810    9.6570   31.5830 C   0  0  2  0  0  0  0  0  0  0  0  0
   22.5530    8.8440   30.5840 C   0  0  0  0  0  0  0  0  0  0  0  0
   23.0890    7.4940   30.3060 C   0  0  0  0  0  0  0  0  0  0  0  0
   24.4160    7.1980   30.9390 C   0  0  0  0  0  0  0  0  0  0  0  0
   23.2360   11.1170   31.1150 C   0  0  0  0  0  0  0  0  0  0  0  0
   27.5960    8.4580   28.5550 C   0  0  0  0  0  0  0  0  0  0  0  0
   27.8760    7.2510   29.2540 N   0  0  0  0  0  4  0  0  0  0  0  0
   29.1620    6.7040   28.8260 C   0  0  0  0  0  0  0  0  0  0  0  0
   29.0120    5.5770   27.8460 C   0  0  1  0  0  0  0  0  0  0  0  0
   27.9270    5.9130   26.8490 C   0  0  0  0  0  0  0  0  0  0  0  0
   26.6230    5.9410   27.5850 C   0  0  0  0  0  0  0  0  0  0  0  0
   26.8990    6.2040   29.0450 C   0  0  0  0  0  0  0  0  0  0  0  0
   30.3210    5.5000   27.0480 C   0  0  0  0  0  0  0  0  0  0  0  0
   27.2910   12.9290   26.9980 H   0  0  0  0  0  0  0  0  0  0  0  0
   31.3850   14.5750   29.8160 H   0  0  0  0  0  0  0  0  0  0  0  0
   31.4780   14.8710   27.9970 H   0  0  0  0  0  0  0  0  0  0  0  0
   32.2560   13.4180   28.7900 H   0  0  0  0  0  0  0  0  0  0  0  0
   27.0730   10.6150   31.1660 H   0  0  0  0  0  0  0  0  0  0  0  0
   27.5920    8.9270   31.2920 H   0  0  0  0  0  0  0  0  0  0  0  0
   24.7420    9.8220   29.5660 H   0  0  0  0  0  0  0  0  0  0  0  0
   25.1400    8.2780   28.8060 H   0  0  0  0  0  0  0  0  0  0  0  0
   26.1970    8.0650   31.2880 H   0  0  0  0  0  0  0  0  0  0  0  0
   24.8420    8.8630   32.8520 H   0  0  0  0  0  0  0  0  0  0  0  0
   25.3590   10.2030   31.8200 H   0  0  0  0  0  0  0  0  0  0  0  0
   22.7540    9.6560   32.5640 H   0  0  0  0  0  0  0  0  0  0  0  0
   21.4890    8.7300   30.9450 H   0  0  0  0  0  0  0  0  0  0  0  0
   22.4320    9.3980   29.6060 H   0  0  0  0  0  0  0  0  0  0  0  0
   23.1560    7.2940   29.1960 H   0  0  0  0  0  0  0  0  0  0  0  0
   22.3870    6.6830   30.6670 H   0  0  0  0  0  0  0  0  0  0  0  0
   24.8340    6.2780   30.5490 H   0  0  0  0  0  0  0  0  0  0  0  0
   24.2030    7.0050   32.0340 H   0  0  0  0  0  0  0  0  0  0  0  0
   22.3020   11.6150   31.4730 H   0  0  0  0  0  0  0  0  0  0  0  0
   24.1520   11.6340   31.4310 H   0  0  0  0  0  0  0  0  0  0  0  0
   23.2180   11.1080   30.0090 H   0  0  0  0  0  0  0  0  0  0  0  0
   28.5690    8.9650   28.2960 H   0  0  0  0  0  0  0  0  0  0  0  0
   27.1090    8.2910   27.5530 H   0  0  0  0  0  0  0  0  0  0  0  0
   27.9560    7.4240   30.2590 H   0  0  0  0  0  0  0  0  0  0  0  0
   29.7620    6.3510   29.6810 H   0  0  0  0  0  0  0  0  0  0  0  0
   29.7720    7.4930   28.3110 H   0  0  0  0  0  0  0  0  0  0  0  0
   28.8850    4.5910   28.3120 H   0  0  0  0  0  0  0  0  0  0  0  0
   27.9410    5.1210   26.0740 H   0  0  0  0  0  0  0  0  0  0  0  0
   28.1870    6.8630   26.3710 H   0  0  0  0  0  0  0  0  0  0  0  0
   25.8740    6.6190   27.1840 H   0  0  0  0  0  0  0  0  0  0  0  0
   26.1750    4.9070   27.5380 H   0  0  0  0  0  0  0  0  0  0  0  0
   27.3440    5.2760   29.5110 H   0  0  0  0  0  0  0  0  0  0  0  0
   25.9400    6.3550   29.5430 H   0  0  0  0  0  0  0  0  0  0  0  0
   31.1690    5.8550   27.6790 H   0  0  0  0  0  0  0  0  0  0  0  0
   30.2450    6.0710   26.0990 H   0  0  0  0  0  0  0  0  0  0  0  0
   30.5470    4.4520   26.7610 H   0  0  0  0  0  0  0  0  0  0  0  0
  2  1  1  0  0  0  0
  3  2  1  0  0  0  0
  3 14  1  0  0  0  0
  4  3  2  0  0  0  0
  5  6  2  0  0  0  0
  5  4  1  0  0  0  0
  6  7  1  0  0  0  0
  7  8  1  0  0  0  0
  7  2  2  0  0  0  0
  8 32  1  0  0  0  0
  9  6  1  0  0  0  0
 10  4  1  0  0  0  0
 10 12  1  0  0  0  0
 11 10  2  0  0  0  0
 12 23  1  6  0  0  0
 12 15  1  0  0  0  0
 12 13  1  0  0  0  0
 13 35  1  0  0  0  0
 13 36  1  0  0  0  0
 14 13  1  0  0  0  0
 15 16  1  0  0  0  0
 16 21  1  0  0  0  0
 16 39  1  0  0  0  0
 16 17  1  0  0  0  0
 17 40  1  0  0  0  0
 18 17  1  0  0  0  0
 18 42  1  1  0  0  0
 19 43  1  0  0  0  0
 19 18  1  0  0  0  0
 20 19  1  0  0  0  0
 20 46  1  0  0  0  0
 20 21  1  0  0  0  0
 21 48  1  0  0  0  0
 22 50  1  0  0  0  0
 22 49  1  0  0  0  0
 22 18  1  0  0  0  0
 23 24  1  0  0  0  0
 24 54  1  0  0  0  0
 25 24  1  0  0  0  0
 25 55  1  0  0  0  0
 26 57  1  1  0  0  0
 26 25  1  0  0  0  0
 27 28  1  0  0  0  0
 27 26  1  0  0  0  0
 28 29  1  0  0  0  0
 29 24  1  0  0  0  0
 29 62  1  0  0  0  0
 29 63  1  0  0  0  0
 30 64  1  0  0  0  0
 30 26  1  0  0  0  0
 31  5  1  0  0  0  0
 33  8  1  0  0  0  0
 34  8  1  0  0  0  0
 37 15  1  0  0  0  0
 38 15  1  0  0  0  0
 41 17  1  0  0  0  0
 44 19  1  0  0  0  0
 45 20  1  0  0  0  0
 47 21  1  0  0  0  0
 51 22  1  0  0  0  0
 52 23  1  0  0  0  0
 53 23  1  0  0  0  0
 56 25  1  0  0  0  0
 58 27  1  0  0  0  0
 59 27  1  0  0  0  0
 60 28  1  0  0  0  0
 61 28  1  0  0  0  0
 65 30  1  0  0  0  0
 66 30  1  0  0  0  0
M  END
>  <Pose>
1

>  <Score>
-4.80

$$$$
