
 OpenBabel03202209553D

 55 58  0  0  1  0  0  0  0  0999 V2000
   23.3060    6.8930   29.6760 Cl  0  0  0  0  0  0  0  0  0  0  0  0
   22.5580    8.2150   30.5640 C   0  0  0  0  0  0  0  0  0  0  0  0
   22.8430    9.5270   30.2930 C   0  0  0  0  0  0  0  0  0  0  0  0
   22.2300   10.5230   31.0190 C   0  0  0  0  0  0  0  0  0  0  0  0
   21.3440   10.1600   31.9990 C   0  0  0  0  0  0  0  0  0  0  0  0
   21.0540    8.8200   32.2740 C   0  0  0  0  0  0  0  0  0  0  0  0
   21.6690    7.8420   31.5480 C   0  0  0  0  0  0  0  0  0  0  0  0
   20.7750   11.2860   32.6580 N   0  0  0  0  0  0  0  0  0  0  0  0
   21.3390   12.4160   32.0530 C   0  0  0  0  0  0  0  0  0  0  0  0
   21.0220   13.5990   32.4100 O   0  0  0  0  0  0  0  0  0  0  0  0
   22.2900   12.0040   31.0110 C   0  0  2  0  0  0  0  0  0  0  0  0
   21.8460   12.5600   29.7640 N   0  0  0  0  0  0  0  0  0  0  0  0
   22.7760   13.5610   29.3450 C   0  0  2  0  0  0  0  0  0  0  0  0
   23.6670   13.8570   30.5080 C   0  0  0  0  0  0  0  0  0  0  0  0
   23.6150   12.5710   31.2850 C   0  0  2  0  0  0  0  0  0  0  0  0
   24.7800   11.6890   31.0170 C   0  0  0  0  0  0  0  0  0  0  0  0
   25.4960   11.4080   32.0080 O   0  0  0  0  0  0  0  0  0  0  0  0
   25.0970   11.1810   29.7520 N   0  0  0  0  0  0  0  0  0  0  0  0
   26.0830   10.2590   29.4000 C   0  0  0  0  0  0  0  0  0  0  0  0
   27.2760   10.7150   28.8590 C   0  0  0  0  0  0  0  0  0  0  0  0
   28.2950    9.8600   28.4890 C   0  0  0  0  0  0  0  0  0  0  0  0
   28.1710    8.5020   28.6420 C   0  0  0  0  0  0  0  0  0  0  0  0
   27.0080    8.0230   29.1710 C   0  0  0  0  0  0  0  0  0  0  0  0
   25.9880    8.8970   29.5400 C   0  0  0  0  0  0  0  0  0  0  0  0
   26.8440    6.6600   29.3420 O   0  0  0  0  0  0  0  0  0  0  0  0
   25.9310    5.8970   28.5750 C   0  0  0  0  0  0  0  0  0  0  0  0
   27.4760   12.0720   28.6740 O   0  0  0  0  0  0  0  0  0  0  0  0
   26.9530   12.8020   27.6070 C   0  0  0  0  0  0  0  0  0  0  0  0
   22.0720   14.8070   28.8330 C   0  0  0  0  0  0  0  0  0  0  0  0
   23.0140   15.9050   28.5730 C   0  0  0  0  0  0  0  0  0  0  0  0
   22.9860   16.9330   29.2670 O   0  0  0  0  0  0  0  0  0  0  0  0
   23.9540   15.7880   27.5320 N   0  0  0  0  0  0  0  0  0  0  0  0
   23.5360    9.7670   29.5260 H   0  0  0  0  0  0  0  0  0  0  0  0
   20.3440    8.5490   33.0610 H   0  0  0  0  0  0  0  0  0  0  0  0
   21.4400    6.7990   31.7670 H   0  0  0  0  0  0  0  0  0  0  0  0
   20.0720   11.2780   33.4430 H   0  0  0  0  0  0  0  0  0  0  0  0
   21.6750   11.8140   29.0580 H   0  0  0  0  0  0  0  0  0  0  0  0
   23.4170   13.1930   28.5060 H   0  0  0  0  0  0  0  0  0  0  0  0
   23.2480   14.6590   31.1690 H   0  0  0  0  0  0  0  0  0  0  0  0
   24.7070   14.1150   30.2060 H   0  0  0  0  0  0  0  0  0  0  0  0
   23.6490   12.8250   32.3940 H   0  0  0  0  0  0  0  0  0  0  0  0
   24.4860   11.5570   28.9630 H   0  0  0  0  0  0  0  0  0  0  0  0
   29.2260   10.2470   28.0640 H   0  0  0  0  0  0  0  0  0  0  0  0
   28.9650    7.8340   28.3540 H   0  0  0  0  0  0  0  0  0  0  0  0
   25.1210    8.4430   29.9420 H   0  0  0  0  0  0  0  0  0  0  0  0
   26.0360    6.0880   27.4900 H   0  0  0  0  0  0  0  0  0  0  0  0
   24.9160    6.1720   28.9290 H   0  0  0  0  0  0  0  0  0  0  0  0
   26.0570    4.8150   28.7410 H   0  0  0  0  0  0  0  0  0  0  0  0
   25.8420   12.8680   27.7720 H   0  0  0  0  0  0  0  0  0  0  0  0
   27.3640   13.8320   27.6410 H   0  0  0  0  0  0  0  0  0  0  0  0
   27.0870   12.3300   26.6220 H   0  0  0  0  0  0  0  0  0  0  0  0
   21.2690   15.1060   29.5410 H   0  0  0  0  0  0  0  0  0  0  0  0
   21.5600   14.5800   27.8740 H   0  0  0  0  0  0  0  0  0  0  0  0
   23.7670   15.0950   26.7760 H   0  0  0  0  0  0  0  0  0  0  0  0
   24.8350   16.3530   27.4610 H   0  0  0  0  0  0  0  0  0  0  0  0
  1  2  1  0  0  0  0
  2  7  1  0  0  0  0
  3  2  2  0  0  0  0
  3  4  1  0  0  0  0
  4  5  2  0  0  0  0
  5  6  1  0  0  0  0
  5  8  1  0  0  0  0
  6 34  1  0  0  0  0
  7 35  1  0  0  0  0
  7  6  2  0  0  0  0
  8 36  1  0  0  0  0
  9 10  2  0  0  0  0
  9  8  1  0  0  0  0
 11  4  1  6  0  0  0
 11 15  1  0  0  0  0
 11  9  1  0  0  0  0
 12 11  1  0  0  0  0
 13 38  1  6  0  0  0
 13 12  1  0  0  0  0
 13 14  1  0  0  0  0
 14 39  1  0  0  0  0
 14 15  1  0  0  0  0
 15 41  1  1  0  0  0
 16 15  1  0  0  0  0
 16 17  2  0  0  0  0
 18 16  1  0  0  0  0
 19 24  1  0  0  0  0
 19 18  1  0  0  0  0
 20 19  2  0  0  0  0
 21 22  2  0  0  0  0
 21 20  1  0  0  0  0
 22 23  1  0  0  0  0
 23 25  1  0  0  0  0
 23 24  2  0  0  0  0
 24 45  1  0  0  0  0
 26 48  1  0  0  0  0
 26 47  1  0  0  0  0
 26 25  1  0  0  0  0
 27 20  1  0  0  0  0
 28 50  1  0  0  0  0
 28 49  1  0  0  0  0
 28 27  1  0  0  0  0
 29 13  1  0  0  0  0
 29 52  1  0  0  0  0
 30 29  1  0  0  0  0
 30 31  2  0  0  0  0
 32 30  1  0  0  0  0
 33  3  1  0  0  0  0
 37 12  1  0  0  0  0
 40 14  1  0  0  0  0
 42 18  1  0  0  0  0
 43 21  1  0  0  0  0
 44 22  1  0  0  0  0
 46 26  1  0  0  0  0
 51 28  1  0  0  0  0
 53 29  1  0  0  0  0
 54 32  1  0  0  0  0
 55 32  1  0  0  0  0
M  END
>  <Pose>
1

>  <Score>
-6.65

$$$$
