
 OpenBabel03202209553D

 32 35  0  0  0  0  0  0  0  0999 V2000
   25.1450    9.1800   30.1180 B   0  0  0  0  0  0  0  0  0  0  0  0
   25.2000   10.9090   29.3190 C   0  0  0  0  0  0  0  0  0  0  0  0
   26.2650   11.5200   28.6620 C   0  0  0  0  0  0  0  0  0  0  0  0
   25.8680   12.7410   28.2520 N   0  0  0  0  0  0  0  0  0  0  0  0
   24.6010   12.9100   28.6310 N   0  0  0  0  0  0  0  0  0  0  0  0
   24.1610   11.8160   29.2820 C   0  0  0  0  0  0  0  0  0  0  0  0
   22.8270   11.5590   29.8760 C   0  0  0  0  0  0  0  0  0  0  0  0
   26.6640   13.7180   27.5270 C   0  0  0  0  0  0  0  0  0  0  0  0
   25.8540   14.9010   27.1270 C   0  0  0  0  0  0  0  0  0  0  0  0
   25.9730   15.6670   26.0300 N   0  0  0  0  0  0  0  0  0  0  0  0
   25.0490   16.6430   26.0320 N   0  0  0  0  0  0  0  0  0  0  0  0
   24.3250   16.4960   27.1560 C   0  0  0  0  0  0  0  0  0  0  0  0
   24.8220   15.4330   27.8160 N   0  0  0  0  0  0  0  0  0  0  0  0
   23.3010   17.3950   27.3830 C   0  0  0  0  0  0  0  0  0  0  0  0
   23.0110   18.4190   26.5010 C   0  0  0  0  0  0  0  0  0  0  0  0
   21.9700   19.1490   26.9570 N   0  0  0  0  0  0  0  0  0  0  0  0
   21.6160   18.5960   28.1010 N   0  0  0  0  0  0  0  0  0  0  0  0
   22.3870   17.5350   28.4010 C   0  0  0  0  0  0  0  0  0  0  0  0
   21.3810   20.3100   26.2940 C   0  0  0  0  0  0  0  0  0  0  0  0
   23.7760   18.5060   25.3980 N   0  0  0  0  0  0  0  0  0  0  0  0
   24.7740   17.6370   25.1670 C   0  0  0  0  0  0  0  0  0  0  0  0
   27.2320   11.0480   28.5260 H   0  0  0  0  0  0  0  0  0  0  0  0
   22.7380   11.9350   30.9170 H   0  0  0  0  0  0  0  0  0  0  0  0
   22.5670   10.4890   29.8820 H   0  0  0  0  0  0  0  0  0  0  0  0
   22.0960   12.1450   29.2540 H   0  0  0  0  0  0  0  0  0  0  0  0
   27.1590   13.2510   26.6320 H   0  0  0  0  0  0  0  0  0  0  0  0
   27.5300   14.0270   28.1820 H   0  0  0  0  0  0  0  0  0  0  0  0
   22.3540   16.8790   29.2520 H   0  0  0  0  0  0  0  0  0  0  0  0
   20.3260   20.4560   26.6100 H   0  0  0  0  0  0  0  0  0  0  0  0
   21.3200   20.1280   25.1820 H   0  0  0  0  0  0  0  0  0  0  0  0
   21.9250   21.2380   26.5020 H   0  0  0  0  0  0  0  0  0  0  0  0
   25.4030   17.6900   24.2830 H   0  0  0  0  0  0  0  0  0  0  0  0
  2  1  1  0  0  0  0
  3  2  2  0  0  0  0
  4  5  1  0  0  0  0
  4  3  1  0  0  0  0
  5  6  2  0  0  0  0
  6  2  1  0  0  0  0
  6  7  1  0  0  0  0
  7 24  1  0  0  0  0
  7 23  1  0  0  0  0
  8 27  1  0  0  0  0
  8  4  1  0  0  0  0
  9  8  1  0  0  0  0
  9 13  1  0  0  0  0
 10 11  1  0  0  0  0
 10  9  2  0  0  0  0
 11 12  1  0  0  0  0
 12 14  1  0  0  0  0
 12 13  2  0  0  0  0
 14 18  1  0  0  0  0
 15 16  1  0  0  0  0
 15 14  2  0  0  0  0
 16 17  1  0  0  0  0
 17 18  2  0  0  0  0
 18 28  1  0  0  0  0
 19 31  1  0  0  0  0
 19 29  1  0  0  0  0
 19 16  1  0  0  0  0
 20 15  1  0  0  0  0
 21 20  2  0  0  0  0
 21 11  1  0  0  0  0
 22  3  1  0  0  0  0
 25  7  1  0  0  0  0
 26  8  1  0  0  0  0
 30 19  1  0  0  0  0
 32 21  1  0  0  0  0
M  END
>  <Pose>
1

>  <Score>
-5.91

$$$$
