
 OpenBabel03202209553D

 45 48  0  0  0  0  0  0  0  0999 V2000
   21.5740    5.6290   30.6890 B   0  0  0  0  0  0  0  0  0  0  0  0
   22.9540    6.9510   30.7320 C   0  0  0  0  0  0  0  0  0  0  0  0
   24.1600    6.7960   30.0960 C   0  0  0  0  0  0  0  0  0  0  0  0
   24.8870    7.9310   30.3450 C   0  0  0  0  0  0  0  0  0  0  0  0
   24.1460    8.7760   31.1220 N   0  0  0  0  0  0  0  0  0  0  0  0
   22.9600    8.1670   31.3570 C   0  0  0  0  0  0  0  0  0  0  0  0
   21.8570    8.7370   32.1630 C   0  0  0  0  0  0  0  0  0  0  0  0
   24.6240   10.0350   31.5750 C   0  0  0  0  0  0  0  0  0  0  0  0
   24.6830   11.1580   30.6600 C   0  0  0  0  0  0  0  0  0  0  0  0
   25.9180   11.6350   30.5450 O   0  0  0  0  0  0  0  0  0  0  0  0
   23.7380   11.8270   29.8980 N   0  0  0  0  0  0  0  0  0  0  0  0
   22.3530   11.5440   29.7740 C   0  0  0  0  0  0  0  0  0  0  0  0
   21.5360   12.6180   30.4950 C   0  0  0  0  0  0  0  0  0  0  0  0
   22.2600   13.9510   30.4070 C   0  0  0  0  0  0  0  0  0  0  0  0
   21.2160   14.9570   30.3110 N   0  0  0  0  0  0  0  0  0  0  0  0
   20.8860   15.3300   31.6660 C   0  0  0  0  0  0  0  0  0  0  0  0
   19.8400   15.9170   32.0360 O   0  0  0  0  0  0  0  0  0  0  0  0
   21.9780   14.9020   32.5020 N   0  0  0  0  0  0  0  0  0  0  0  0
   22.9510   14.2810   31.6710 C   0  0  0  0  0  0  0  0  0  0  0  0
   24.1460   14.0740   31.9870 O   0  0  0  0  0  0  0  0  0  0  0  0
   23.1310   14.0570   29.1960 C   0  0  0  0  0  0  0  0  0  0  0  0
   24.1800   12.9970   29.1020 C   0  0  0  0  0  0  0  0  0  0  0  0
   26.1710    8.0510   29.8120 C   0  0  0  0  0  0  0  0  0  0  0  0
   26.7130    7.0340   29.0370 C   0  0  0  0  0  0  0  0  0  0  0  0
   25.9720    5.9100   28.8000 C   0  0  0  0  0  0  0  0  0  0  0  0
   24.7050    5.7830   29.3220 C   0  0  0  0  0  0  0  0  0  0  0  0
   20.8600    8.5040   31.7240 H   0  0  0  0  0  0  0  0  0  0  0  0
   21.8850    8.2570   33.1710 H   0  0  0  0  0  0  0  0  0  0  0  0
   21.9530    9.8450   32.2720 H   0  0  0  0  0  0  0  0  0  0  0  0
   25.6590    9.8650   32.0270 H   0  0  0  0  0  0  0  0  0  0  0  0
   24.0260   10.3030   32.5060 H   0  0  0  0  0  0  0  0  0  0  0  0
   21.9900   10.5570   29.9960 H   0  0  0  0  0  0  0  0  0  0  0  0
   22.0980   11.6870   28.6660 H   0  0  0  0  0  0  0  0  0  0  0  0
   20.5490   12.6450   29.9900 H   0  0  0  0  0  0  0  0  0  0  0  0
   21.3780   12.3010   31.5250 H   0  0  0  0  0  0  0  0  0  0  0  0
   20.7820   15.3410   29.4460 H   0  0  0  0  0  0  0  0  0  0  0  0
   22.0380   15.0260   33.5220 H   0  0  0  0  0  0  0  0  0  0  0  0
   22.4580   14.0980   28.3070 H   0  0  0  0  0  0  0  0  0  0  0  0
   23.6300   15.0590   29.2450 H   0  0  0  0  0  0  0  0  0  0  0  0
   25.1950   13.3010   29.3460 H   0  0  0  0  0  0  0  0  0  0  0  0
   24.1700   12.6190   28.0370 H   0  0  0  0  0  0  0  0  0  0  0  0
   26.7270    8.9570   30.0230 H   0  0  0  0  0  0  0  0  0  0  0  0
   27.7190    7.1660   28.6400 H   0  0  0  0  0  0  0  0  0  0  0  0
   26.3900    5.1260   28.2030 H   0  0  0  0  0  0  0  0  0  0  0  0
   24.0980    4.9100   29.1510 H   0  0  0  0  0  0  0  0  0  0  0  0
  1  2  1  0  0  0  0
  2  6  2  0  0  0  0
  3  4  1  0  0  0  0
  3  2  1  0  0  0  0
  4  5  1  0  0  0  0
  5  6  1  0  0  0  0
  5  8  1  0  0  0  0
  6  7  1  0  0  0  0
  7 29  1  0  0  0  0
  7 28  1  0  0  0  0
  8 30  1  0  0  0  0
  8 31  1  0  0  0  0
  9  8  1  0  0  0  0
 10  9  2  0  0  0  0
 11  9  1  0  0  0  0
 12 11  1  0  0  0  0
 12 32  1  0  0  0  0
 12 13  1  0  0  0  0
 13 35  1  0  0  0  0
 14 13  1  0  0  0  0
 14 19  1  0  0  0  0
 15 14  1  0  0  0  0
 15 16  1  0  0  0  0
 16 17  2  0  0  0  0
 16 18  1  0  0  0  0
 18 37  1  0  0  0  0
 19 20  2  0  0  0  0
 19 18  1  0  0  0  0
 21 39  1  0  0  0  0
 21 14  1  0  0  0  0
 22 21  1  0  0  0  0
 22 40  1  0  0  0  0
 22 11  1  0  0  0  0
 23 42  1  0  0  0  0
 23  4  2  0  0  0  0
 24 23  1  0  0  0  0
 25 24  2  0  0  0  0
 25 26  1  0  0  0  0
 26  3  2  0  0  0  0
 27  7  1  0  0  0  0
 33 12  1  0  0  0  0
 34 13  1  0  0  0  0
 36 15  1  0  0  0  0
 38 21  1  0  0  0  0
 41 22  1  0  0  0  0
 43 24  1  0  0  0  0
 44 25  1  0  0  0  0
 45 26  1  0  0  0  0
M  END
>  <Pose>
1

>  <Score>
-7.11

$$$$
