
 OpenBabel03202209553D

 46 49  0  0  0  0  0  0  0  0999 V2000
   28.0100    6.8110   25.9200 B   0  0  0  0  0  0  0  0  0  0  0  0
   27.9900    8.6670   26.3660 C   0  0  0  0  0  0  0  0  0  0  0  0
   27.5740    9.1370   27.5680 N   0  0  0  0  0  0  0  0  0  0  0  0
   27.7140   10.4780   27.4830 C   0  0  0  0  0  0  0  0  0  0  0  0
   28.2100   10.8450   26.2490 C   0  0  0  0  0  0  0  0  0  0  0  0
   28.3720    9.6830   25.5720 N   0  0  0  0  0  0  0  0  0  0  0  0
   28.4420   12.1330   25.9100 N   0  0  0  0  0  0  0  0  0  0  0  0
   28.1720   13.0810   26.8260 C   0  0  0  0  0  0  0  0  0  0  0  0
   28.3620   14.3020   26.5820 O   0  0  0  0  0  0  0  0  0  0  0  0
   27.6810   12.7570   28.0540 N   0  0  0  0  0  0  0  0  0  0  0  0
   27.4480   11.4830   28.3980 C   0  0  0  0  0  0  0  0  0  0  0  0
   26.9990   11.1350   29.5130 O   0  0  0  0  0  0  0  0  0  0  0  0
   28.9640   12.5000   24.6070 C   0  0  0  0  0  0  0  0  0  0  0  0
   27.0840    8.3990   28.7080 C   0  0  0  0  0  0  0  0  0  0  0  0
   25.8500    9.0600   29.3090 C   0  0  0  0  0  0  0  0  0  0  0  0
   24.8050    8.0340   29.6600 C   0  0  0  0  0  0  0  0  0  0  0  0
   24.6520    7.7700   31.1280 C   0  0  0  0  0  0  0  0  0  0  0  0
   23.3620    8.1760   31.5770 N   0  0  0  0  0  0  0  0  0  0  0  0
   22.2540    7.4700   31.7980 C   0  0  0  0  0  0  0  0  0  0  0  0
   21.2650    8.3260   32.2690 C   0  0  0  0  0  0  0  0  0  0  0  0
   21.8220    9.5320   32.3130 N   0  0  0  0  0  0  0  0  0  0  0  0
   23.0890    9.4660   31.8990 C   0  0  0  0  0  0  0  0  0  0  0  0
   24.2640   10.9640   31.8000 B   0  0  0  0  0  0  0  0  0  0  0  0
   20.0460    7.8660   32.5650 N   0  0  0  0  0  0  0  0  0  0  0  0
   19.7420    6.5620   32.4140 C   0  0  0  0  0  0  0  0  0  0  0  0
   18.5940    6.1370   32.6940 O   0  0  0  0  0  0  0  0  0  0  0  0
   20.6830    5.7290   31.9600 N   0  0  0  0  0  0  0  0  0  0  0  0
   21.9190    6.1500   31.6520 C   0  0  0  0  0  0  0  0  0  0  0  0
   22.7840    5.3580   31.2280 O   0  0  0  0  0  0  0  0  0  0  0  0
   18.9900    8.7410   33.0610 C   0  0  0  0  0  0  0  0  0  0  0  0
   27.4830   13.5230   28.7400 H   0  0  0  0  0  0  0  0  0  0  0  0
   29.4760   11.6470   24.1160 H   0  0  0  0  0  0  0  0  0  0  0  0
   28.1120   12.7760   23.9220 H   0  0  0  0  0  0  0  0  0  0  0  0
   29.7100   13.3200   24.6600 H   0  0  0  0  0  0  0  0  0  0  0  0
   27.8610    8.2230   29.4490 H   0  0  0  0  0  0  0  0  0  0  0  0
   26.7350    7.4100   28.3170 H   0  0  0  0  0  0  0  0  0  0  0  0
   26.1240    9.5430   30.2930 H   0  0  0  0  0  0  0  0  0  0  0  0
   25.4350    9.8390   28.6580 H   0  0  0  0  0  0  0  0  0  0  0  0
   23.8420    8.3050   29.1730 H   0  0  0  0  0  0  0  0  0  0  0  0
   25.0550    7.0300   29.2040 H   0  0  0  0  0  0  0  0  0  0  0  0
   24.8180    6.6730   31.2710 H   0  0  0  0  0  0  0  0  0  0  0  0
   25.4880    8.2630   31.6600 H   0  0  0  0  0  0  0  0  0  0  0  0
   20.4860    4.6960   31.8270 H   0  0  0  0  0  0  0  0  0  0  0  0
   19.4540    9.7270   33.2870 H   0  0  0  0  0  0  0  0  0  0  0  0
   18.6250    8.2760   34.0050 H   0  0  0  0  0  0  0  0  0  0  0  0
   18.1670    8.8430   32.3340 H   0  0  0  0  0  0  0  0  0  0  0  0
  1  2  1  0  0  0  0
  2  3  1  0  0  0  0
  3 14  1  0  0  0  0
  4  3  1  0  0  0  0
  4 11  1  0  0  0  0
  5  4  2  0  0  0  0
  6  5  1  0  0  0  0
  6  2  2  0  0  0  0
  7  5  1  0  0  0  0
  7  8  1  0  0  0  0
  8 10  1  0  0  0  0
  9  8  2  0  0  0  0
 10 11  1  0  0  0  0
 10 31  1  0  0  0  0
 11 12  2  0  0  0  0
 13 34  1  0  0  0  0
 13  7  1  0  0  0  0
 14 15  1  0  0  0  0
 14 35  1  0  0  0  0
 15 16  1  0  0  0  0
 15 37  1  0  0  0  0
 16 17  1  0  0  0  0
 17 41  1  0  0  0  0
 17 18  1  0  0  0  0
 17 42  1  0  0  0  0
 18 19  1  0  0  0  0
 18 22  1  0  0  0  0
 19 20  2  0  0  0  0
 20 21  1  0  0  0  0
 20 24  1  0  0  0  0
 22 21  2  0  0  0  0
 23 22  1  0  0  0  0
 24 30  1  0  0  0  0
 25 24  1  0  0  0  0
 25 26  2  0  0  0  0
 27 25  1  0  0  0  0
 28 19  1  0  0  0  0
 28 27  1  0  0  0  0
 29 28  2  0  0  0  0
 30 44  1  0  0  0  0
 30 45  1  0  0  0  0
 32 13  1  0  0  0  0
 33 13  1  0  0  0  0
 36 14  1  0  0  0  0
 38 15  1  0  0  0  0
 39 16  1  0  0  0  0
 40 16  1  0  0  0  0
 43 27  1  0  0  0  0
 46 30  1  0  0  0  0
M  END
>  <Pose>
1

>  <Score>
-7.40

$$$$
