
 OpenBabel03202209553D

 50 53  0  0  0  0  0  0  0  0999 V2000
   31.9660    5.2740   28.7360 B   0  0  0  0  0  0  0  0  0  0  0  0
   30.2520    5.7990   28.1250 C   0  0  0  0  0  0  0  0  0  0  0  0
   30.0070    5.9030   26.7870 C   0  0  0  0  0  0  0  0  0  0  0  0
   28.7370    6.2930   26.3680 C   0  0  0  0  0  0  0  0  0  0  0  0
   27.7550    6.5660   27.3150 C   0  0  0  0  0  0  0  0  0  0  0  0
   27.9930    6.4640   28.6590 C   0  0  0  0  0  0  0  0  0  0  0  0
   29.2530    6.0780   29.0590 C   0  0  0  0  0  0  0  0  0  0  0  0
   29.4820    5.9780   30.4220 O   0  0  0  0  0  0  0  0  0  0  0  0
   26.9520    6.7540   29.6330 C   0  0  0  0  0  0  0  0  0  0  0  0
   25.7500    6.3080   29.5440 N   0  0  0  0  0  0  0  0  0  0  0  0
   24.7970    6.6540   30.5620 N   0  0  0  0  0  0  0  0  0  0  0  0
   23.4880    6.2310   30.3740 C   0  0  0  0  0  0  0  0  0  0  0  0
   23.2600    5.5110   29.3300 O   0  0  0  0  0  0  0  0  0  0  0  0
   22.3190    6.4860   31.1940 C   0  0  0  0  0  0  0  0  0  0  0  0
   21.5840    5.5270   31.8460 N   0  0  0  0  0  0  0  0  0  0  0  0
   20.6070    6.0970   32.4940 N   0  0  0  0  0  0  0  0  0  0  0  0
   20.6180    7.4080   32.3300 N   0  0  0  0  0  0  0  0  0  0  0  0
   21.6660    7.6760   31.5330 C   0  0  0  0  0  0  0  0  0  0  0  0
   22.0780    8.9910   31.0330 C   0  0  0  0  0  0  0  0  0  0  0  0
   22.5290    9.9190   32.0730 N   0  0  0  0  0  0  0  0  0  0  0  0
   22.0220   11.2670   31.7500 C   0  0  0  0  0  0  0  0  0  0  0  0
   22.2790   11.5710   30.3150 C   0  0  0  0  0  0  0  0  0  0  0  0
   23.6120   11.3940   30.0370 O   0  0  0  0  0  0  0  0  0  0  0  0
   24.3990   11.1920   31.1400 C   0  0  0  0  0  0  0  0  0  0  0  0
   24.0060   10.0150   31.9940 C   0  0  0  0  0  0  0  0  0  0  0  0
   19.6570    8.2860   32.8900 C   0  0  0  0  0  0  0  0  0  0  0  0
   19.7680    9.5960   33.1970 N   0  0  0  0  0  0  0  0  0  0  0  0
   18.6380   10.0330   33.6870 O   0  0  0  0  0  0  0  0  0  0  0  0
   17.7540    9.0680   33.7260 N   0  0  0  0  0  0  0  0  0  0  0  0
   18.3530    7.9680   33.2390 C   0  0  0  0  0  0  0  0  0  0  0  0
   17.7240    6.7100   33.1160 N   0  0  0  0  0  0  0  0  0  0  0  0
   28.3640    6.4470   24.5160 B   0  0  0  0  0  0  0  0  0  0  0  0
   30.9720    5.6350   25.8270 O   0  0  0  0  0  0  0  0  0  0  0  0
   26.7790    6.8660   26.9920 H   0  0  0  0  0  0  0  0  0  0  0  0
   28.7460    6.1990   31.0800 H   0  0  0  0  0  0  0  0  0  0  0  0
   27.1830    7.3810   30.4910 H   0  0  0  0  0  0  0  0  0  0  0  0
   25.1770    7.2050   31.3680 H   0  0  0  0  0  0  0  0  0  0  0  0
   21.2700    9.4960   30.4990 H   0  0  0  0  0  0  0  0  0  0  0  0
   22.9450    8.8760   30.3670 H   0  0  0  0  0  0  0  0  0  0  0  0
   20.9610   11.3650   32.0300 H   0  0  0  0  0  0  0  0  0  0  0  0
   22.6020   11.9660   32.3790 H   0  0  0  0  0  0  0  0  0  0  0  0
   21.6770   10.9640   29.6180 H   0  0  0  0  0  0  0  0  0  0  0  0
   22.0670   12.6680   30.1490 H   0  0  0  0  0  0  0  0  0  0  0  0
   25.4310   10.9510   30.7440 H   0  0  0  0  0  0  0  0  0  0  0  0
   24.5110   12.1290   31.7260 H   0  0  0  0  0  0  0  0  0  0  0  0
   24.3680   10.2260   33.0080 H   0  0  0  0  0  0  0  0  0  0  0  0
   24.4590    9.1130   31.5940 H   0  0  0  0  0  0  0  0  0  0  0  0
   17.1050    6.3840   33.8800 H   0  0  0  0  0  0  0  0  0  0  0  0
   17.8560    6.0980   32.2910 H   0  0  0  0  0  0  0  0  0  0  0  0
   30.8470    4.8950   25.1570 H   0  0  0  0  0  0  0  0  0  0  0  0
  2  1  1  0  0  0  0
  2  7  1  0  0  0  0
  3  2  2  0  0  0  0
  4  3  1  0  0  0  0
  4  5  2  0  0  0  0
  5  6  1  0  0  0  0
  6  7  2  0  0  0  0
  6  9  1  0  0  0  0
  7  8  1  0  0  0  0
  8 35  1  0  0  0  0
  9 36  1  0  0  0  0
 10  9  2  0  0  0  0
 10 11  1  0  0  0  0
 11 37  1  0  0  0  0
 12 11  1  0  0  0  0
 12 14  1  0  0  0  0
 13 12  2  0  0  0  0
 14 18  2  0  0  0  0
 14 15  1  0  0  0  0
 15 16  2  0  0  0  0
 17 16  1  0  0  0  0
 17 26  1  0  0  0  0
 18 17  1  0  0  0  0
 19 18  1  0  0  0  0
 19 20  1  0  0  0  0
 21 40  1  0  0  0  0
 21 20  1  0  0  0  0
 21 41  1  0  0  0  0
 22 21  1  0  0  0  0
 23 22  1  0  0  0  0
 23 24  1  0  0  0  0
 24 45  1  0  0  0  0
 24 25  1  0  0  0  0
 25 20  1  0  0  0  0
 25 46  1  0  0  0  0
 26 27  2  0  0  0  0
 26 30  1  0  0  0  0
 27 28  1  0  0  0  0
 28 29  1  0  0  0  0
 30 29  2  0  0  0  0
 31 30  1  0  0  0  0
 31 48  1  0  0  0  0
 32  4  1  0  0  0  0
 33  3  1  0  0  0  0
 34  5  1  0  0  0  0
 38 19  1  0  0  0  0
 39 19  1  0  0  0  0
 42 22  1  0  0  0  0
 43 22  1  0  0  0  0
 44 24  1  0  0  0  0
 47 25  1  0  0  0  0
 49 31  1  0  0  0  0
 50 33  1  0  0  0  0
M  END
>  <Pose>
1

>  <Score>
-8.68

$$$$
