
 OpenBabel03202209553D

 59 60  0  0  1  0  0  0  0  0999 V2000
   22.0140   12.6820   30.8500 B   0  0  0  0  0  0  0  0  0  0  0  0
   23.5360   11.6550   30.3680 C   0  0  0  0  0  0  0  0  0  0  0  0
   23.5640   10.2950   30.5880 C   0  0  0  0  0  0  0  0  0  0  0  0
   24.6870    9.5330   30.2370 C   0  0  0  0  0  0  0  0  0  0  0  0
   25.7210   10.2460   29.6710 C   0  0  0  0  0  0  0  0  0  0  0  0
   25.7330   11.5900   29.4350 C   0  0  0  0  0  0  0  0  0  0  0  0
   24.6080   12.3090   29.7960 C   0  0  0  0  0  0  0  0  0  0  0  0
   24.7290    8.1130   30.5230 C   0  0  2  0  0  0  0  0  0  0  0  0
   25.4090    7.1900   29.7250 N   0  0  0  0  0  0  0  0  0  0  0  0
   24.4230    6.2180   29.2620 C   0  0  0  0  0  0  0  0  0  0  0  0
   24.5850    5.3040   28.4150 O   0  0  0  0  0  0  0  0  0  0  0  0
   23.1560    6.4450   29.9410 C   0  0  0  0  0  0  0  0  0  0  0  0
   22.0770    5.7850   29.7720 O   0  0  0  0  0  0  0  0  0  0  0  0
   23.3700    7.5600   30.8250 C   0  0  0  0  0  0  0  0  0  0  0  0
   22.4970    8.0220   31.6970 C   0  0  0  0  0  0  0  0  0  0  0  0
   22.9100    9.1730   32.4090 O   0  0  0  0  0  0  0  0  0  0  0  0
   21.1890    7.4620   31.9840 C   0  0  0  0  0  0  0  0  0  0  0  0
   20.1000    7.9590   32.5900 N   0  0  0  0  0  0  0  0  0  0  0  0
   19.1060    7.0620   32.6830 C   0  0  0  0  0  0  0  0  0  0  0  0
   19.5760    5.9310   32.1100 N   0  0  0  0  0  0  0  0  0  0  0  0
   20.8230    6.1330   31.6780 C   0  0  0  0  0  0  0  0  0  0  0  0
   21.6900    5.1610   30.9980 C   0  0  0  0  0  0  0  0  0  0  0  0
   17.8860    7.3650   33.2570 C   0  0  0  0  0  0  0  0  0  0  0  0
   17.6830    8.6260   33.7500 C   0  0  0  0  0  0  0  0  0  0  0  0
   18.7060    9.5500   33.6540 C   0  0  0  0  0  0  0  0  0  0  0  0
   19.9080    9.2150   33.0760 C   0  0  0  0  0  0  0  0  0  0  0  0
   26.7950    7.0800   29.4540 C   0  0  0  0  0  0  0  0  0  0  0  0
   27.3550    7.4580   28.1590 C   0  0  0  0  0  0  0  0  0  0  0  0
   27.0000    6.7410   26.9690 N   0  0  0  0  0  4  0  0  0  0  0  0
   27.6600    7.4230   25.8560 C   0  0  0  0  0  0  0  0  0  0  0  0
   29.0340    6.9000   25.5870 C   0  0  0  0  0  0  0  0  0  0  0  0
   29.4730    6.0760   26.6350 O   0  0  0  0  0  0  0  0  0  0  0  0
   28.6410    4.9800   26.6110 C   0  0  0  0  0  0  0  0  0  0  0  0
   27.2670    5.3440   27.0380 C   0  0  0  0  0  0  0  0  0  0  0  0
   22.7490    9.7560   31.0300 H   0  0  0  0  0  0  0  0  0  0  0  0
   26.6110    9.6800   29.3860 H   0  0  0  0  0  0  0  0  0  0  0  0
   26.5740   12.1140   28.9860 H   0  0  0  0  0  0  0  0  0  0  0  0
   24.6230   13.3790   29.6080 H   0  0  0  0  0  0  0  0  0  0  0  0
   25.3090    8.0550   31.5480 H   0  0  0  0  0  0  0  0  0  0  0  0
   22.3270    5.6030   30.1990 H   0  0  0  0  0  0  0  0  0  0  0  0
   22.3010    4.6410   31.7740 H   0  0  0  0  0  0  0  0  0  0  0  0
   21.0560    4.3860   30.5170 H   0  0  0  0  0  0  0  0  0  0  0  0
   17.0920    6.6470   33.3330 H   0  0  0  0  0  0  0  0  0  0  0  0
   16.7550    8.9470   34.2160 H   0  0  0  0  0  0  0  0  0  0  0  0
   18.5880   10.5680   34.0340 H   0  0  0  0  0  0  0  0  0  0  0  0
   20.7270    9.9450   32.9910 H   0  0  0  0  0  0  0  0  0  0  0  0
   27.0730    5.9940   29.6460 H   0  0  0  0  0  0  0  0  0  0  0  0
   27.3710    7.6170   30.2580 H   0  0  0  0  0  0  0  0  0  0  0  0
   27.0190    8.5310   27.9840 H   0  0  0  0  0  0  0  0  0  0  0  0
   28.4790    7.5930   28.1860 H   0  0  0  0  0  0  0  0  0  0  0  0
   25.9700    6.8580   26.7330 H   0  0  0  0  0  0  0  0  0  0  0  0
   27.0460    7.2760   24.9540 H   0  0  0  0  0  0  0  0  0  0  0  0
   27.6980    8.5250   26.0440 H   0  0  0  0  0  0  0  0  0  0  0  0
   29.0510    6.2920   24.6450 H   0  0  0  0  0  0  0  0  0  0  0  0
   29.7390    7.7550   25.5290 H   0  0  0  0  0  0  0  0  0  0  0  0
   29.1000    4.2490   27.3510 H   0  0  0  0  0  0  0  0  0  0  0  0
   28.6600    4.5010   25.5870 H   0  0  0  0  0  0  0  0  0  0  0  0
   27.1050    4.9270   28.0650 H   0  0  0  0  0  0  0  0  0  0  0  0
   26.5590    4.8230   26.3230 H   0  0  0  0  0  0  0  0  0  0  0  0
  2  3  1  0  0  0  0
  2  1  1  0  0  0  0
  3 35  1  0  0  0  0
  4  8  1  0  0  0  0
  4  3  2  0  0  0  0
  5  4  1  0  0  0  0
  6  5  2  0  0  0  0
  6  7  1  0  0  0  0
  7  2  2  0  0  0  0
  8 14  1  0  0  0  0
  8 39  1  1  0  0  0
  9  8  1  0  0  0  0
 10  9  1  0  0  0  0
 11 10  2  0  0  0  0
 13 40  1  0  0  0  0
 14 15  2  0  0  0  0
 15 17  1  0  0  0  0
 15 16  1  0  0  0  0
 17 18  1  0  0  0  0
 18 19  1  0  0  0  0
 18 26  1  0  0  0  0
 19 23  1  0  0  0  0
 20 19  2  0  0  0  0
 21 17  2  0  0  0  0
 21 20  1  0  0  0  0
 22 21  1  0  0  0  0
 22 41  1  0  0  0  0
 23 43  1  0  0  0  0
 23 24  2  0  0  0  0
 24 44  1  0  0  0  0
 25 24  1  0  0  0  0
 25 45  1  0  0  0  0
 26 25  2  0  0  0  0
 27 47  1  0  0  0  0
 27  9  1  0  0  0  0
 27 48  1  0  0  0  0
 28 50  1  0  0  0  0
 28 27  1  0  0  0  0
 29 34  1  0  0  0  0
 29 28  1  0  0  0  0
 30 53  1  0  0  0  0
 30 29  1  0  0  0  0
 31 30  1  0  0  0  0
 31 32  1  0  0  0  0
 33 32  1  0  0  0  0
 33 34  1  0  0  0  0
 33 56  1  0  0  0  0
 34 58  1  0  0  0  0
 36  5  1  0  0  0  0
 37  6  1  0  0  0  0
 38  7  1  0  0  0  0
 42 22  1  0  0  0  0
 46 26  1  0  0  0  0
 49 28  1  0  0  0  0
 51 29  1  0  0  0  0
 52 30  1  0  0  0  0
 54 31  1  0  0  0  0
 55 31  1  0  0  0  0
 57 33  1  0  0  0  0
 59 34  1  0  0  0  0
M  END
>  <Pose>
1

>  <Score>
-7.32

$$$$
