
 OpenBabel03202209553D

 48 51  0  0  1  0  0  0  0  0999 V2000
   18.6510    9.2340   33.6330 Cl  0  0  0  0  0  0  0  0  0  0  0  0
   20.0350    8.5470   32.7950 C   0  0  0  0  0  0  0  0  0  0  0  0
   21.0620    9.3670   32.3350 C   0  0  0  0  0  0  0  0  0  0  0  0
   22.1480    8.8760   31.6530 C   0  0  0  0  0  0  0  0  0  0  0  0
   22.1680    7.4920   31.4460 C   0  0  0  0  0  0  0  0  0  0  0  0
   21.1530    6.6560   31.8970 C   0  0  0  0  0  0  0  0  0  0  0  0
   20.0850    7.1860   32.5710 C   0  0  0  0  0  0  0  0  0  0  0  0
   23.2520    9.6870   31.2780 N   0  0  0  0  0  4  0  0  0  0  0  0
   23.4260   10.8920   32.0490 C   0  0  0  0  0  0  0  0  0  0  0  0
   23.5890   12.0690   31.1820 C   0  0  2  0  0  0  0  0  0  0  0  0
   23.5480   11.5180   29.8580 N   0  0  0  0  0  0  0  0  0  0  0  0
   24.0430   11.9980   28.5890 C   0  0  0  0  0  0  0  0  0  0  0  0
   23.0000   12.2000   27.5370 C   0  0  0  0  0  0  0  0  0  0  0  0
   21.6530   11.6580   27.8660 C   0  0  0  0  0  0  0  0  0  0  0  0
   21.7080   10.1210   27.7140 C   0  0  0  0  0  0  0  0  0  0  0  0
   22.1240    9.6320   29.0900 C   0  0  0  0  0  0  0  0  0  0  0  0
   22.8970   10.2230   29.9720 C   0  0  0  0  0  0  0  0  0  0  0  0
   24.8970   12.6040   31.3530 O   0  0  0  0  0  0  0  0  0  0  0  0
   22.6950   13.1810   31.3960 C   0  0  0  0  0  0  0  0  0  0  0  0
   23.1270   14.4490   31.7870 C   0  0  0  0  0  0  0  0  0  0  0  0
   22.2640   15.5220   31.9670 C   0  0  0  0  0  0  0  0  0  0  0  0
   20.9010   15.3270   31.7470 C   0  0  0  0  0  0  0  0  0  0  0  0
   20.4370   14.1010   31.3650 C   0  0  0  0  0  0  0  0  0  0  0  0
   21.3410   13.0410   31.1920 C   0  0  0  0  0  0  0  0  0  0  0  0
   22.7720   16.7800   32.3650 N   0  0  0  0  0  0  0  0  0  0  0  0
   23.6630   16.8390   33.2690 O   0  0  0  0  0  0  0  0  0  0  0  0
   22.3600   17.9470   31.8390 O   0  0  0  0  0  0  0  0  0  0  0  0
   20.9110   10.4420   32.5300 H   0  0  0  0  0  0  0  0  0  0  0  0
   23.0080    7.0700   30.9210 H   0  0  0  0  0  0  0  0  0  0  0  0
   21.1880    5.5660   31.7200 H   0  0  0  0  0  0  0  0  0  0  0  0
   19.2900    6.5630   32.9230 H   0  0  0  0  0  0  0  0  0  0  0  0
   24.0670    9.0990   31.1350 H   0  0  0  0  0  0  0  0  0  0  0  0
   22.7530   10.8800   32.8830 H   0  0  0  0  0  0  0  0  0  0  0  0
   24.4550   10.7240   32.5410 H   0  0  0  0  0  0  0  0  0  0  0  0
   24.6870   12.8940   28.6490 H   0  0  0  0  0  0  0  0  0  0  0  0
   24.7510   11.2290   28.1040 H   0  0  0  0  0  0  0  0  0  0  0  0
   23.3220   11.8140   26.5430 H   0  0  0  0  0  0  0  0  0  0  0  0
   22.8390   13.3180   27.3500 H   0  0  0  0  0  0  0  0  0  0  0  0
   21.2620   11.9070   28.8730 H   0  0  0  0  0  0  0  0  0  0  0  0
   20.8680   11.9700   27.1220 H   0  0  0  0  0  0  0  0  0  0  0  0
   22.4400    9.8560   26.9600 H   0  0  0  0  0  0  0  0  0  0  0  0
   20.6860    9.7270   27.5320 H   0  0  0  0  0  0  0  0  0  0  0  0
   21.7010    8.6730   29.3300 H   0  0  0  0  0  0  0  0  0  0  0  0
   25.2560   12.7350   30.4140 H   0  0  0  0  0  0  0  0  0  0  0  0
   24.1590   14.5790   31.9460 H   0  0  0  0  0  0  0  0  0  0  0  0
   20.2650   16.1930   31.8970 H   0  0  0  0  0  0  0  0  0  0  0  0
   19.3530   13.9550   31.1930 H   0  0  0  0  0  0  0  0  0  0  0  0
   20.8560   12.1180   30.8880 H   0  0  0  0  0  0  0  0  0  0  0  0
  2  1  1  0  0  0  0
  3 28  1  0  0  0  0
  3  2  2  0  0  0  0
  4  3  1  0  0  0  0
  5  4  2  0  0  0  0
  5  6  1  0  0  0  0
  6  7  2  0  0  0  0
  7  2  1  0  0  0  0
  7 31  1  0  0  0  0
  8  4  1  0  0  0  0
  8  9  1  0  0  0  0
  9 34  1  0  0  0  0
  9 33  1  0  0  0  0
 10 18  1  1  0  0  0
 10 19  1  0  0  0  0
 10  9  1  0  0  0  0
 11 17  1  0  0  0  0
 11 10  1  0  0  0  0
 12 35  1  0  0  0  0
 12 11  1  0  0  0  0
 13 14  1  0  0  0  0
 13 12  1  0  0  0  0
 14 39  1  0  0  0  0
 15 14  1  0  0  0  0
 15 16  1  0  0  0  0
 16 43  1  0  0  0  0
 16 17  2  0  0  0  0
 17  8  1  0  0  0  0
 19 20  1  0  0  0  0
 20 45  1  0  0  0  0
 20 21  2  0  0  0  0
 21 25  1  0  0  0  0
 22 46  1  0  0  0  0
 22 21  1  0  0  0  0
 23 22  2  0  0  0  0
 24 23  1  0  0  0  0
 24 19  2  0  0  0  0
 25 26  2  0  0  0  0
 27 25  2  0  0  0  0
 29  5  1  0  0  0  0
 30  6  1  0  0  0  0
 32  8  1  0  0  0  0
 36 12  1  0  0  0  0
 37 13  1  0  0  0  0
 38 13  1  0  0  0  0
 40 14  1  0  0  0  0
 41 15  1  0  0  0  0
 42 15  1  0  0  0  0
 44 18  1  0  0  0  0
 47 23  1  0  0  0  0
 48 24  1  0  0  0  0
M  END
>  <Pose>
1

>  <Score>
-6.05

$$$$
