
 OpenBabel03202209553D

 53 56  0  0  1  0  0  0  0  0999 V2000
   22.5950   13.7740   31.5950 B   0  0  0  0  0  0  0  0  0  0  0  0
   23.2540   12.0590   31.0250 C   0  0  0  0  0  0  0  0  0  0  0  0
   24.3830   11.5020   31.5800 C   0  0  0  0  0  0  0  0  0  0  0  0
   24.8960   10.2890   31.2140 C   0  0  0  0  0  0  0  0  0  0  0  0
   24.2460    9.5720   30.2270 C   0  0  0  0  0  0  0  0  0  0  0  0
   23.1140   10.1070   29.6560 C   0  0  0  0  0  0  0  0  0  0  0  0
   22.6000   11.3490   30.0400 C   0  0  0  0  0  0  0  0  0  0  0  0
   24.7100    8.2580   29.7990 C   0  0  0  0  0  0  0  0  0  0  0  0
   24.0060    7.1720   30.0460 C   0  0  0  0  0  0  0  0  0  0  0  0
   24.3010    5.7430   29.7020 C   0  0  2  0  0  0  0  0  0  0  0  0
   23.9040    5.0670   30.8830 N   0  0  0  0  0  0  0  0  0  0  0  0
   22.6360    5.7010   31.2320 C   0  0  0  0  0  0  0  0  0  0  0  0
   21.6730    5.1950   31.8650 O   0  0  0  0  0  0  0  0  0  0  0  0
   22.7010    7.0550   30.6950 C   0  0  0  0  0  0  0  0  0  0  0  0
   21.8440    7.9990   30.7400 O   0  0  0  0  0  0  0  0  0  0  0  0
   24.4460    3.9650   31.6550 C   0  0  0  0  0  0  0  0  0  0  0  0
   25.6520    3.2910   31.1280 C   0  0  0  0  0  0  0  0  0  0  0  0
   25.4800    1.8540   30.8890 N   0  0  0  0  0  4  0  0  0  0  0  0
   25.7550    1.1180   32.0760 C   0  0  0  0  0  0  0  0  0  0  0  0
   26.9310    0.2060   32.0400 C   0  0  0  0  0  0  0  0  0  0  0  0
   27.2640   -0.2900   30.7940 O   0  0  0  0  0  0  0  0  0  0  0  0
   27.5710    0.8510   30.0170 C   0  0  0  0  0  0  0  0  0  0  0  0
   26.2690    1.5180   29.7410 C   0  0  0  0  0  0  0  0  0  0  0  0
   25.5600    5.5340   29.0700 C   0  0  0  0  0  0  0  0  0  0  0  0
   25.5930    5.1640   27.7470 C   0  0  0  0  0  0  0  0  0  0  0  0
   26.7680    4.9610   27.0640 C   0  0  0  0  0  0  0  0  0  0  0  0
   27.9900    5.1260   27.7000 C   0  0  0  0  0  0  0  0  0  0  0  0
   27.9350    5.4980   29.0290 C   0  0  0  0  0  0  0  0  0  0  0  0
   26.7530    5.7000   29.7060 C   0  0  0  0  0  0  0  0  0  0  0  0
   29.4900    4.8720   26.8440 Cl  0  0  0  0  0  0  0  0  0  0  0  0
   25.9160    8.2140   29.1220 O   0  0  0  0  0  0  0  0  0  0  0  0
   24.8790   12.0750   32.3490 H   0  0  0  0  0  0  0  0  0  0  0  0
   25.7810    9.8370   31.6380 H   0  0  0  0  0  0  0  0  0  0  0  0
   22.5470    9.5800   28.8840 H   0  0  0  0  0  0  0  0  0  0  0  0
   21.6990   11.7380   29.5600 H   0  0  0  0  0  0  0  0  0  0  0  0
   23.4770    5.5020   28.9500 H   0  0  0  0  0  0  0  0  0  0  0  0
   24.7350    4.3340   32.6930 H   0  0  0  0  0  0  0  0  0  0  0  0
   23.6230    3.2320   31.9210 H   0  0  0  0  0  0  0  0  0  0  0  0
   26.5730    3.3770   31.7010 H   0  0  0  0  0  0  0  0  0  0  0  0
   25.7920    3.7250   30.0780 H   0  0  0  0  0  0  0  0  0  0  0  0
   24.4530    1.7530   30.6210 H   0  0  0  0  0  0  0  0  0  0  0  0
   25.8310    1.8220   32.9580 H   0  0  0  0  0  0  0  0  0  0  0  0
   24.8580    0.4650   32.2950 H   0  0  0  0  0  0  0  0  0  0  0  0
   27.8360    0.7830   32.3900 H   0  0  0  0  0  0  0  0  0  0  0  0
   26.8460   -0.6620   32.7200 H   0  0  0  0  0  0  0  0  0  0  0  0
   28.3040    1.5020   30.5130 H   0  0  0  0  0  0  0  0  0  0  0  0
   28.0240    0.5040   29.0770 H   0  0  0  0  0  0  0  0  0  0  0  0
   26.4650    2.4070   29.0860 H   0  0  0  0  0  0  0  0  0  0  0  0
   25.6750    0.8130   29.0940 H   0  0  0  0  0  0  0  0  0  0  0  0
   24.6510    5.0130   27.1740 H   0  0  0  0  0  0  0  0  0  0  0  0
   26.7880    4.6700   26.0240 H   0  0  0  0  0  0  0  0  0  0  0  0
   28.9080    5.6230   29.5120 H   0  0  0  0  0  0  0  0  0  0  0  0
   26.8500    6.0050   30.7440 H   0  0  0  0  0  0  0  0  0  0  0  0
  2  3  1  0  0  0  0
  2  1  1  0  0  0  0
  3 32  1  0  0  0  0
  4  3  2  0  0  0  0
  4 33  1  0  0  0  0
  5  4  1  0  0  0  0
  6  7  1  0  0  0  0
  6  5  2  0  0  0  0
  7  2  2  0  0  0  0
  8  9  2  0  0  0  0
  8  5  1  0  0  0  0
  9 14  1  0  0  0  0
 10 36  1  6  0  0  0
 10  9  1  0  0  0  0
 10 11  1  0  0  0  0
 11 12  1  0  0  0  0
 11 16  1  0  0  0  0
 12 13  2  0  0  0  0
 14 15  2  0  0  0  0
 14 12  1  0  0  0  0
 16 38  1  0  0  0  0
 16 37  1  0  0  0  0
 17 16  1  0  0  0  0
 17 39  1  0  0  0  0
 18 17  1  0  0  0  0
 18 19  1  0  0  0  0
 19 43  1  0  0  0  0
 19 42  1  0  0  0  0
 20 19  1  0  0  0  0
 20 44  1  0  0  0  0
 20 45  1  0  0  0  0
 21 20  1  0  0  0  0
 22 46  1  0  0  0  0
 22 21  1  0  0  0  0
 23 22  1  0  0  0  0
 23 18  1  0  0  0  0
 24 10  1  0  0  0  0
 24 29  1  0  0  0  0
 25 24  2  0  0  0  0
 26 27  2  0  0  0  0
 26 25  1  0  0  0  0
 27 28  1  0  0  0  0
 28 52  1  0  0  0  0
 28 29  2  0  0  0  0
 29 53  1  0  0  0  0
 30 27  1  0  0  0  0
 31  8  1  0  0  0  0
 34  6  1  0  0  0  0
 35  7  1  0  0  0  0
 40 17  1  0  0  0  0
 41 18  1  0  0  0  0
 47 22  1  0  0  0  0
 48 23  1  0  0  0  0
 49 23  1  0  0  0  0
 50 25  1  0  0  0  0
 51 26  1  0  0  0  0
M  END
>  <Pose>
1

>  <Score>
-6.31

$$$$
