
 OpenBabel03202209553D

 49 52  0  0  0  0  0  0  0  0999 V2000
   23.3750    2.2230   33.3560 Cl  0  0  0  0  0  0  0  0  0  0  0  0
   23.7720    3.4810   32.1940 C   0  0  0  0  0  0  0  0  0  0  0  0
   25.0290    3.5030   31.6580 C   0  0  0  0  0  0  0  0  0  0  0  0
   25.3460    4.5000   30.7300 C   0  0  0  0  0  0  0  0  0  0  0  0
   24.4010    5.4210   30.3860 C   0  0  0  0  0  0  0  0  0  0  0  0
   23.1550    5.4040   30.9140 C   0  0  0  0  0  0  0  0  0  0  0  0
   22.8260    4.4020   31.8490 C   0  0  0  0  0  0  0  0  0  0  0  0
   24.7560    6.4840   29.3900 C   0  0  0  0  0  0  0  0  0  0  0  0
   24.8190    6.0910   28.1960 O   0  0  0  0  0  0  0  0  0  0  0  0
   24.9710    7.7390   29.8540 N   0  0  0  0  0  0  0  0  0  0  0  0
   25.1870    9.0070   30.3230 C   0  0  0  0  0  0  0  0  0  0  0  0
   24.0310    9.7780   30.7800 C   0  0  0  0  0  0  0  0  0  0  0  0
   23.2900    9.1550   31.6670 O   0  0  0  0  0  0  0  0  0  0  0  0
   23.5750   11.0460   30.4510 N   0  0  0  0  0  0  0  0  0  0  0  0
   22.3470   11.6080   30.9100 C   0  0  0  0  0  0  0  0  0  0  0  0
   22.0560   12.8700   30.0660 C   0  0  0  0  0  0  0  0  0  0  0  0
   23.1050   13.8940   30.4530 C   0  0  0  0  0  0  0  0  0  0  0  0
   22.9880   14.1820   31.8240 N   0  0  0  0  0  0  0  0  0  0  0  0
   22.0830   15.1470   32.2790 C   0  0  0  0  0  0  0  0  0  0  0  0
   21.8860   16.3550   31.4440 C   0  0  0  0  0  0  0  0  0  0  0  0
   22.3710   16.2050   30.0560 C   0  0  0  0  0  0  0  0  0  0  0  0
   22.3410   17.1150   29.0630 N   0  0  0  0  0  0  0  0  0  0  0  0
   22.8810   16.5600   27.9740 C   0  0  0  0  0  0  0  0  0  0  0  0
   23.2520   15.2970   28.2840 N   0  0  0  0  0  0  0  0  0  0  0  0
   22.9420   15.0600   29.5730 C   0  0  0  0  0  0  0  0  0  0  0  0
   24.4840   13.2480   30.2330 C   0  0  0  0  0  0  0  0  0  0  0  0
   24.3790   11.9050   29.5670 C   0  0  0  0  0  0  0  0  0  0  0  0
   25.7760    2.7780   31.9280 H   0  0  0  0  0  0  0  0  0  0  0  0
   26.3230    4.5590   30.2840 H   0  0  0  0  0  0  0  0  0  0  0  0
   22.3750    6.1150   30.6660 H   0  0  0  0  0  0  0  0  0  0  0  0
   21.8360    4.3780   32.2800 H   0  0  0  0  0  0  0  0  0  0  0  0
   23.8620    8.2030   29.1820 H   0  0  0  0  0  0  0  0  0  0  0  0
   25.7080    9.6470   29.5090 H   0  0  0  0  0  0  0  0  0  0  0  0
   25.9970    9.0710   31.1430 H   0  0  0  0  0  0  0  0  0  0  0  0
   22.3840   11.9240   31.9490 H   0  0  0  0  0  0  0  0  0  0  0  0
   21.5290   10.8620   30.6980 H   0  0  0  0  0  0  0  0  0  0  0  0
   21.0440   13.2300   30.3370 H   0  0  0  0  0  0  0  0  0  0  0  0
   22.1000   12.5790   29.0200 H   0  0  0  0  0  0  0  0  0  0  0  0
   23.4360   13.5730   32.4990 H   0  0  0  0  0  0  0  0  0  0  0  0
   22.4570   15.5060   33.2880 H   0  0  0  0  0  0  0  0  0  0  0  0
   21.1010   14.6480   32.5350 H   0  0  0  0  0  0  0  0  0  0  0  0
   22.4240   17.2510   31.8750 H   0  0  0  0  0  0  0  0  0  0  0  0
   20.8070   16.6580   31.4820 H   0  0  0  0  0  0  0  0  0  0  0  0
   23.0090   17.0310   27.0070 H   0  0  0  0  0  0  0  0  0  0  0  0
   23.6990   14.6280   27.6310 H   0  0  0  0  0  0  0  0  0  0  0  0
   25.1460   13.9170   29.6370 H   0  0  0  0  0  0  0  0  0  0  0  0
   25.0110   13.0910   31.2130 H   0  0  0  0  0  0  0  0  0  0  0  0
   25.4280   11.5120   29.4990 H   0  0  0  0  0  0  0  0  0  0  0  0
   23.9570   11.9380   28.5600 H   0  0  0  0  0  0  0  0  0  0  0  0
  2  1  1  0  0  0  0
  3 28  1  0  0  0  0
  3  2  2  0  0  0  0
  4  3  1  0  0  0  0
  5  4  2  0  0  0  0
  5  6  1  0  0  0  0
  6  7  2  0  0  0  0
  7  2  1  0  0  0  0
  7 31  1  0  0  0  0
  8 10  1  0  0  0  0
  8  5  1  0  0  0  0
  9  8  2  0  0  0  0
 10 11  1  0  0  0  0
 11 12  1  0  0  0  0
 11 34  1  0  0  0  0
 12 13  2  0  0  0  0
 14 12  1  0  0  0  0
 14 15  1  0  0  0  0
 15 35  1  0  0  0  0
 16 37  1  0  0  0  0
 16 17  1  0  0  0  0
 16 15  1  0  0  0  0
 17 18  1  0  0  0  0
 18 19  1  0  0  0  0
 18 39  1  0  0  0  0
 19 41  1  0  0  0  0
 19 40  1  0  0  0  0
 20 43  1  0  0  0  0
 20 42  1  0  0  0  0
 20 19  1  0  0  0  0
 21 20  1  0  0  0  0
 22 21  1  0  0  0  0
 23 24  1  0  0  0  0
 23 22  2  0  0  0  0
 24 25  1  0  0  0  0
 25 21  2  0  0  0  0
 25 17  1  0  0  0  0
 26 17  1  0  0  0  0
 26 47  1  0  0  0  0
 27 26  1  0  0  0  0
 27 14  1  0  0  0  0
 29  4  1  0  0  0  0
 30  6  1  0  0  0  0
 32 10  1  0  0  0  0
 33 11  1  0  0  0  0
 36 15  1  0  0  0  0
 38 16  1  0  0  0  0
 44 23  1  0  0  0  0
 45 24  1  0  0  0  0
 46 26  1  0  0  0  0
 48 27  1  0  0  0  0
 49 27  1  0  0  0  0
M  END
>  <Pose>
1

>  <Score>
-6.62

$$$$
