
 OpenBabel03202209553D

 41 44  0  0  1  0  0  0  0  0999 V2000
   23.4530    1.0690   33.8450 Cl  0  0  0  0  0  0  0  0  0  0  0  0
   24.3000    2.1020   32.7130 C   0  0  0  0  0  0  0  0  0  0  0  0
   23.6650    3.2080   32.2030 C   0  0  0  0  0  0  0  0  0  0  0  0
   22.4480    3.7540   32.3610 N   0  0  0  0  0  0  0  0  0  0  0  0
   22.3060    4.8690   31.6200 C   0  0  0  0  0  0  0  0  0  0  0  0
   23.5060    5.0280   30.9600 C   0  0  0  0  0  0  0  0  0  0  0  0
   24.3610    4.0060   31.3090 C   0  0  0  0  0  0  0  0  0  0  0  0
   25.6540    3.6680   30.9660 C   0  0  0  0  0  0  0  0  0  0  0  0
   26.3110    2.5690   31.4620 C   0  0  0  0  0  0  0  0  0  0  0  0
   25.6080    1.7700   32.3580 C   0  0  0  0  0  0  0  0  0  0  0  0
   23.5970    6.2110   30.0680 C   0  0  0  0  0  0  0  0  0  0  0  0
   23.1730    7.3240   30.8870 N   0  0  0  0  0  0  0  0  0  0  0  0
   21.8120    7.3000   31.2610 C   0  0  0  0  0  0  0  0  0  0  0  0
   21.2730    5.8910   31.3470 C   0  0  0  0  0  0  0  0  0  0  0  0
   23.7690    8.5520   30.5720 C   0  0  0  0  0  0  0  0  0  0  0  0
   23.5220    9.6100   31.6040 C   0  0  1  0  0  0  0  0  0  0  0  0
   24.7600   10.3060   32.0520 C   0  0  0  0  0  0  0  0  0  0  0  0
   24.6390   11.7100   31.8580 N   0  0  0  0  0  0  0  0  0  0  0  0
   23.3860   11.9920   31.2370 C   0  0  0  0  0  0  0  0  0  0  0  0
   22.6890   10.6980   30.9820 C   0  0  0  0  0  0  0  0  0  0  0  0
   22.7830    9.1020   32.6790 O   0  0  0  0  0  0  0  0  0  0  0  0
   21.6680    3.3900   32.9780 H   0  0  0  0  0  0  0  0  0  0  0  0
   26.1730    4.3060   30.2700 H   0  0  0  0  0  0  0  0  0  0  0  0
   27.3280    2.3100   31.1880 H   0  0  0  0  0  0  0  0  0  0  0  0
   26.1090    0.9000   32.7600 H   0  0  0  0  0  0  0  0  0  0  0  0
   22.8670    6.0170   29.2310 H   0  0  0  0  0  0  0  0  0  0  0  0
   24.6040    6.4160   29.7100 H   0  0  0  0  0  0  0  0  0  0  0  0
   21.6650    7.7400   32.2880 H   0  0  0  0  0  0  0  0  0  0  0  0
   21.1420    7.8440   30.5450 H   0  0  0  0  0  0  0  0  0  0  0  0
   20.5020    5.8290   32.1440 H   0  0  0  0  0  0  0  0  0  0  0  0
   20.7330    5.6180   30.4040 H   0  0  0  0  0  0  0  0  0  0  0  0
   23.5120    8.9720   29.5800 H   0  0  0  0  0  0  0  0  0  0  0  0
   24.8900    8.4030   30.5360 H   0  0  0  0  0  0  0  0  0  0  0  0
   25.0870   10.0360   33.0830 H   0  0  0  0  0  0  0  0  0  0  0  0
   25.6020    9.9540   31.3870 H   0  0  0  0  0  0  0  0  0  0  0  0
   24.7930   12.2730   32.7280 H   0  0  0  0  0  0  0  0  0  0  0  0
   22.7920   12.7050   31.8410 H   0  0  0  0  0  0  0  0  0  0  0  0
   23.5320   12.4880   30.2410 H   0  0  0  0  0  0  0  0  0  0  0  0
   21.6790   10.7790   31.4730 H   0  0  0  0  0  0  0  0  0  0  0  0
   22.5140   10.5020   29.8980 H   0  0  0  0  0  0  0  0  0  0  0  0
   23.3980    9.1110   33.4600 H   0  0  0  0  0  0  0  0  0  0  0  0
  2  1  1  0  0  0  0
  3  4  1  0  0  0  0
  3  2  2  0  0  0  0
  4 22  1  0  0  0  0
  5  4  1  0  0  0  0
  6  7  1  0  0  0  0
  6  5  2  0  0  0  0
  7  3  1  0  0  0  0
  8  7  2  0  0  0  0
  8  9  1  0  0  0  0
  9 10  2  0  0  0  0
 10  2  1  0  0  0  0
 10 25  1  0  0  0  0
 11 12  1  0  0  0  0
 11  6  1  0  0  0  0
 12 13  1  0  0  0  0
 13 14  1  0  0  0  0
 13 28  1  0  0  0  0
 14  5  1  0  0  0  0
 14 30  1  0  0  0  0
 15 12  1  0  0  0  0
 15 16  1  0  0  0  0
 16 17  1  0  0  0  0
 16 21  1  1  0  0  0
 17 34  1  0  0  0  0
 18 17  1  0  0  0  0
 18 36  1  0  0  0  0
 19 37  1  0  0  0  0
 19 18  1  0  0  0  0
 20 19  1  0  0  0  0
 20 39  1  0  0  0  0
 20 16  1  0  0  0  0
 21 41  1  0  0  0  0
 23  8  1  0  0  0  0
 24  9  1  0  0  0  0
 26 11  1  0  0  0  0
 27 11  1  0  0  0  0
 29 13  1  0  0  0  0
 31 14  1  0  0  0  0
 32 15  1  0  0  0  0
 33 15  1  0  0  0  0
 35 17  1  0  0  0  0
 38 19  1  0  0  0  0
 40 20  1  0  0  0  0
M  END
>  <Pose>
1

>  <Score>
-5.58

$$$$
