
 OpenBabel03202209553D

 44 47  0  0  1  0  0  0  0  0999 V2000
   27.2980   14.0290   26.7600 B   0  0  0  0  0  0  0  0  0  0  0  0
   27.0550   12.4220   27.7500 C   0  0  0  0  0  0  0  0  0  0  0  0
   25.9530   12.2400   28.5800 C   0  0  0  0  0  0  0  0  0  0  0  0
   25.7830   11.0730   29.2940 C   0  0  0  0  0  0  0  0  0  0  0  0
   26.7680   10.1050   29.1350 C   0  0  0  0  0  0  0  0  0  0  0  0
   27.8580   10.2640   28.3240 C   0  0  0  0  0  0  0  0  0  0  0  0
   28.0090   11.4350   27.6220 C   0  0  0  0  0  0  0  0  0  0  0  0
   24.6720   10.8380   30.1600 N   0  0  0  0  0  0  0  0  0  0  0  0
   23.5140   10.1000   29.7920 C   0  0  0  0  0  0  0  0  0  0  0  0
   23.1490    9.9340   28.6020 O   0  0  0  0  0  0  0  0  0  0  0  0
   22.9050    9.6250   31.0280 C   0  0  2  0  0  0  0  0  0  0  0  0
   23.2890   10.6910   32.0320 C   0  0  0  0  0  0  0  0  0  0  0  0
   24.5370   11.2850   31.5150 C   0  0  0  0  0  0  0  0  0  0  0  0
   25.3390   12.0400   32.1250 O   0  0  0  0  0  0  0  0  0  0  0  0
   23.2520    8.3260   31.4450 N   0  0  0  0  0  0  0  0  0  0  0  0
   22.9280    7.2490   30.5980 C   0  0  0  0  0  0  0  0  0  0  0  0
   21.6080    6.6300   31.0770 C   0  0  0  0  0  0  0  0  0  0  0  0
   21.3290    7.0590   32.4380 N   0  0  0  0  0  0  0  0  0  0  0  0
   22.3840    7.2580   33.4120 C   0  0  0  0  0  0  0  0  0  0  0  0
   23.5100    8.0470   32.7870 C   0  0  0  0  0  0  0  0  0  0  0  0
   19.9860    7.3240   32.8670 C   0  0  0  0  0  0  0  0  0  0  0  0
   19.5730    8.5830   33.1200 N   0  0  0  0  0  0  0  0  0  0  0  0
   18.3050    8.8260   33.5060 C   0  0  0  0  0  0  0  0  0  0  0  0
   17.3810    7.7980   33.6570 C   0  0  0  0  0  0  0  0  0  0  0  0
   17.8120    6.5100   33.3950 C   0  0  0  0  0  0  0  0  0  0  0  0
   19.0890    6.3320   33.0130 N   0  0  0  0  0  0  0  0  0  0  0  0
   25.2200   13.0260   28.6630 H   0  0  0  0  0  0  0  0  0  0  0  0
   26.6420    9.1800   29.6980 H   0  0  0  0  0  0  0  0  0  0  0  0
   28.6300    9.4950   28.2070 H   0  0  0  0  0  0  0  0  0  0  0  0
   28.8730   11.5550   26.9830 H   0  0  0  0  0  0  0  0  0  0  0  0
   21.7830    9.6770   30.9250 H   0  0  0  0  0  0  0  0  0  0  0  0
   22.5200   11.4810   32.0070 H   0  0  0  0  0  0  0  0  0  0  0  0
   23.4180   10.2620   33.0490 H   0  0  0  0  0  0  0  0  0  0  0  0
   23.6940    6.4530   30.7040 H   0  0  0  0  0  0  0  0  0  0  0  0
   22.8600    7.4870   29.5480 H   0  0  0  0  0  0  0  0  0  0  0  0
   20.7670    6.9880   30.4280 H   0  0  0  0  0  0  0  0  0  0  0  0
   21.6340    5.5380   31.0920 H   0  0  0  0  0  0  0  0  0  0  0  0
   22.7300    6.2640   33.8170 H   0  0  0  0  0  0  0  0  0  0  0  0
   22.0090    7.8910   34.2650 H   0  0  0  0  0  0  0  0  0  0  0  0
   23.7700    8.9510   33.3750 H   0  0  0  0  0  0  0  0  0  0  0  0
   24.4200    7.3770   32.8440 H   0  0  0  0  0  0  0  0  0  0  0  0
   17.9540    9.8380   33.7130 H   0  0  0  0  0  0  0  0  0  0  0  0
   16.3580    8.0280   33.9720 H   0  0  0  0  0  0  0  0  0  0  0  0
   17.1080    5.6740   33.4970 H   0  0  0  0  0  0  0  0  0  0  0  0
  1  2  1  0  0  0  0
  2  3  1  0  0  0  0
  3 27  1  0  0  0  0
  3  4  2  0  0  0  0
  4  8  1  0  0  0  0
  5  4  1  0  0  0  0
  5 28  1  0  0  0  0
  6  5  2  0  0  0  0
  7  2  2  0  0  0  0
  7  6  1  0  0  0  0
  8 13  1  0  0  0  0
  9  8  1  0  0  0  0
  9 11  1  0  0  0  0
 10  9  2  0  0  0  0
 11 31  1  6  0  0  0
 11 15  1  0  0  0  0
 11 12  1  0  0  0  0
 12 33  1  0  0  0  0
 13 12  1  0  0  0  0
 13 14  2  0  0  0  0
 15 20  1  0  0  0  0
 16 34  1  0  0  0  0
 16 17  1  0  0  0  0
 16 15  1  0  0  0  0
 17 37  1  0  0  0  0
 17 18  1  0  0  0  0
 18 21  1  0  0  0  0
 18 19  1  0  0  0  0
 19 38  1  0  0  0  0
 19 39  1  0  0  0  0
 20 41  1  0  0  0  0
 20 40  1  0  0  0  0
 20 19  1  0  0  0  0
 21 26  1  0  0  0  0
 21 22  2  0  0  0  0
 22 23  1  0  0  0  0
 23 24  2  0  0  0  0
 23 42  1  0  0  0  0
 24 43  1  0  0  0  0
 25 44  1  0  0  0  0
 25 24  1  0  0  0  0
 26 25  2  0  0  0  0
 29  6  1  0  0  0  0
 30  7  1  0  0  0  0
 32 12  1  0  0  0  0
 35 16  1  0  0  0  0
 36 17  1  0  0  0  0
M  END
>  <Pose>
1

>  <Score>
-5.66

$$$$
