
 OpenBabel03202209553D

 44 47  0  0  1  0  0  0  0  0999 V2000
   22.6460    6.9210   30.6130 Cl  0  0  0  0  0  0  0  0  0  0  0  0
   21.8530    8.3020   31.3380 C   0  0  0  0  0  0  0  0  0  0  0  0
   20.8220    8.0810   32.2030 C   0  0  0  0  0  0  0  0  0  0  0  0
   20.1810    9.1490   32.7870 C   0  0  0  0  0  0  0  0  0  0  0  0
   20.6020   10.4450   32.4800 C   0  0  0  0  0  0  0  0  0  0  0  0
   21.6410   10.6760   31.6070 C   0  0  0  0  0  0  0  0  0  0  0  0
   22.2600    9.5990   31.0410 C   0  0  0  0  0  0  0  0  0  0  0  0
   22.0180   12.0590   31.3180 C   0  0  0  0  0  0  0  0  0  0  0  0
   21.4160   13.2250   31.6680 N   0  0  0  0  0  0  0  0  0  0  0  0
   22.1190   14.2520   31.1790 C   0  0  2  0  0  0  0  0  0  0  0  0
   23.2050   13.7860   30.4890 N   0  0  0  0  0  0  0  0  0  0  0  0
   23.1290   12.4490   30.5830 C   0  0  0  0  0  0  0  0  0  0  0  0
   24.2240   14.5730   29.8560 C   0  0  0  0  0  0  0  0  0  0  0  0
   24.3730   14.6420   28.4280 C   0  0  1  0  0  0  0  0  0  0  0  0
   24.5730   13.4540   27.8660 O   0  0  0  0  0  0  0  0  0  0  0  0
   24.3520   15.7170   27.4680 C   0  0  0  0  0  0  0  0  0  0  0  0
   23.3430   16.7030   27.5410 C   0  0  0  0  0  0  0  0  0  0  0  0
   23.2420   17.7610   26.6770 C   0  0  0  0  0  0  0  0  0  0  0  0
   24.1990   17.8420   25.6850 C   0  0  0  0  0  0  0  0  0  0  0  0
   25.1930   16.8940   25.5920 C   0  0  0  0  0  0  0  0  0  0  0  0
   25.2900   15.8180   26.4760 C   0  0  0  0  0  0  0  0  0  0  0  0
   22.2220   18.7380   26.7670 N   0  0  0  0  0  0  0  0  0  0  0  0
   22.1760   19.6440   25.9280 O   0  0  0  0  0  0  0  0  0  0  0  0
   21.2840   18.7110   27.7580 O   0  0  0  0  0  0  0  0  0  0  0  0
   21.5000   15.5440   31.5500 C   0  0  0  0  0  0  0  0  0  0  0  0
   20.0830   15.1300   31.8370 C   0  0  0  0  0  0  0  0  0  0  0  0
   20.2500   13.7350   32.3930 C   0  0  0  0  0  0  0  0  0  0  0  0
   20.2740    6.4530   32.6050 Cl  0  0  0  0  0  0  0  0  0  0  0  0
   19.3730    8.9550   33.4640 H   0  0  0  0  0  0  0  0  0  0  0  0
   20.0580   11.2400   32.9710 H   0  0  0  0  0  0  0  0  0  0  0  0
   23.0740    9.6690   30.3410 H   0  0  0  0  0  0  0  0  0  0  0  0
   23.8560   11.7640   30.1330 H   0  0  0  0  0  0  0  0  0  0  0  0
   24.1320   15.6150   30.3170 H   0  0  0  0  0  0  0  0  0  0  0  0
   25.1950   14.2070   30.3330 H   0  0  0  0  0  0  0  0  0  0  0  0
   22.5850   16.6420   28.3240 H   0  0  0  0  0  0  0  0  0  0  0  0
   24.1290   18.6770   24.9930 H   0  0  0  0  0  0  0  0  0  0  0  0
   25.9470   16.9670   24.8010 H   0  0  0  0  0  0  0  0  0  0  0  0
   26.0990   15.1340   26.3240 H   0  0  0  0  0  0  0  0  0  0  0  0
   21.4790   16.2650   30.7140 H   0  0  0  0  0  0  0  0  0  0  0  0
   21.9730   15.9920   32.4660 H   0  0  0  0  0  0  0  0  0  0  0  0
   19.5530   15.0920   30.8600 H   0  0  0  0  0  0  0  0  0  0  0  0
   19.5700   15.7930   32.5640 H   0  0  0  0  0  0  0  0  0  0  0  0
   20.4580   13.8370   33.4780 H   0  0  0  0  0  0  0  0  0  0  0  0
   19.3310   13.1320   32.1910 H   0  0  0  0  0  0  0  0  0  0  0  0
  1  2  1  0  0  0  0
  2  3  1  0  0  0  0
  3 28  1  0  0  0  0
  3  4  2  0  0  0  0
  4 29  1  0  0  0  0
  5  4  1  0  0  0  0
  5 30  1  0  0  0  0
  6  5  2  0  0  0  0
  7  2  2  0  0  0  0
  7  6  1  0  0  0  0
  8  6  1  0  0  0  0
  8  9  1  0  0  0  0
  9 27  1  0  0  0  0
 10 11  1  1  0  0  0
 10 25  1  0  0  0  0
 10  9  1  0  0  0  0
 11 12  1  0  0  0  0
 12  8  2  0  0  0  0
 13 33  1  0  0  0  0
 13 34  1  0  0  0  0
 13 11  1  0  0  0  0
 14 15  1  6  0  0  0
 14 13  1  0  0  0  0
 16 17  1  0  0  0  0
 16 14  1  0  0  0  0
 17 35  1  0  0  0  0
 18 22  1  0  0  0  0
 18 17  2  0  0  0  0
 19 18  1  0  0  0  0
 20 19  2  0  0  0  0
 20 21  1  0  0  0  0
 21 16  2  0  0  0  0
 22 24  2  0  0  0  0
 23 22  2  0  0  0  0
 25 26  1  0  0  0  0
 25 40  1  0  0  0  0
 26 27  1  0  0  0  0
 26 42  1  0  0  0  0
 27 43  1  0  0  0  0
 31  7  1  0  0  0  0
 32 12  1  0  0  0  0
 36 19  1  0  0  0  0
 37 20  1  0  0  0  0
 38 21  1  0  0  0  0
 39 25  1  0  0  0  0
 41 26  1  0  0  0  0
 44 27  1  0  0  0  0
M  END
>  <Pose>
1

>  <Score>
-6.86

$$$$
