
 OpenBabel03202209553D

 44 47  0  0  1  0  0  0  0  0999 V2000
   24.5620    3.6230   31.8390 Cl  0  0  0  0  0  0  0  0  0  0  0  0
   25.1710    4.6750   30.6000 C   0  0  0  0  0  0  0  0  0  0  0  0
   25.7800    4.1640   29.4860 C   0  0  0  0  0  0  0  0  0  0  0  0
   26.2440    5.0450   28.5380 C   0  0  0  0  0  0  0  0  0  0  0  0
   26.0950    6.3960   28.7100 C   0  0  0  0  0  0  0  0  0  0  0  0
   25.4770    6.9520   29.8340 C   0  0  0  0  0  0  0  0  0  0  0  0
   25.0280    6.0670   30.7580 C   0  0  0  0  0  0  0  0  0  0  0  0
   25.3650    8.4050   29.9720 C   0  0  0  0  0  0  0  0  0  0  0  0
   26.0810    9.3940   29.4140 N   0  0  0  0  0  0  0  0  0  0  0  0
   25.6110   10.5860   29.8390 C   0  0  2  0  0  0  0  0  0  0  0  0
   24.5860   10.3520   30.6770 N   0  0  0  0  0  0  0  0  0  0  0  0
   24.3970    9.0070   30.7910 C   0  0  0  0  0  0  0  0  0  0  0  0
   23.7900   11.3360   31.3140 C   0  0  0  0  0  0  0  0  0  0  0  0
   23.0220   12.3150   30.6020 C   0  0  2  0  0  0  0  0  0  0  0  0
   23.0610   12.1160   29.2990 O   0  0  0  0  0  0  0  0  0  0  0  0
   22.2360   13.4490   31.0290 C   0  0  0  0  0  0  0  0  0  0  0  0
   22.7450   14.6610   31.4090 C   0  0  0  0  0  0  0  0  0  0  0  0
   21.9210   15.7160   31.8110 C   0  0  0  0  0  0  0  0  0  0  0  0
   20.5730   15.5580   31.8340 C   0  0  0  0  0  0  0  0  0  0  0  0
   20.0330   14.3480   31.4560 C   0  0  0  0  0  0  0  0  0  0  0  0
   20.8300   13.3090   31.0610 C   0  0  0  0  0  0  0  0  0  0  0  0
   22.5160   16.9570   32.1950 N   0  0  0  0  0  0  0  0  0  0  0  0
   23.2200   17.0060   33.2190 O   0  0  0  0  0  0  0  0  0  0  0  0
   22.3370   18.0940   31.4740 O   0  0  0  0  0  0  0  0  0  0  0  0
   26.3870   11.6860   29.2210 C   0  0  0  0  0  0  0  0  0  0  0  0
   27.7130   10.9930   29.0440 C   0  0  0  0  0  0  0  0  0  0  0  0
   27.2110    9.6400   28.5100 C   0  0  0  0  0  0  0  0  0  0  0  0
   25.9750    2.4400   29.2570 Cl  0  0  0  0  0  0  0  0  0  0  0  0
   26.7370    4.6770   27.6320 H   0  0  0  0  0  0  0  0  0  0  0  0
   26.4660    7.0570   27.9510 H   0  0  0  0  0  0  0  0  0  0  0  0
   24.5550    6.4070   31.6530 H   0  0  0  0  0  0  0  0  0  0  0  0
   23.6560    8.5270   31.3860 H   0  0  0  0  0  0  0  0  0  0  0  0
   24.4380   11.9210   32.0620 H   0  0  0  0  0  0  0  0  0  0  0  0
   23.0480   10.7910   32.0020 H   0  0  0  0  0  0  0  0  0  0  0  0
   23.8090   14.8420   31.4110 H   0  0  0  0  0  0  0  0  0  0  0  0
   19.9440   16.4030   32.1530 H   0  0  0  0  0  0  0  0  0  0  0  0
   18.9400   14.2230   31.4750 H   0  0  0  0  0  0  0  0  0  0  0  0
   20.3550   12.3700   30.7720 H   0  0  0  0  0  0  0  0  0  0  0  0
   25.9290   11.9270   28.2330 H   0  0  0  0  0  0  0  0  0  0  0  0
   26.4720   12.5770   29.8710 H   0  0  0  0  0  0  0  0  0  0  0  0
   28.1120   10.7770   30.0500 H   0  0  0  0  0  0  0  0  0  0  0  0
   28.3960   11.4780   28.3660 H   0  0  0  0  0  0  0  0  0  0  0  0
   26.8160    9.8120   27.5150 H   0  0  0  0  0  0  0  0  0  0  0  0
   28.0180    8.8940   28.6050 H   0  0  0  0  0  0  0  0  0  0  0  0
  2  7  1  0  0  0  0
  2  1  1  0  0  0  0
  3  2  2  0  0  0  0
  4  5  2  0  0  0  0
  4  3  1  0  0  0  0
  5  6  1  0  0  0  0
  6  8  1  0  0  0  0
  6  7  2  0  0  0  0
  7 31  1  0  0  0  0
  8 12  2  0  0  0  0
  9 10  1  0  0  0  0
  9  8  1  0  0  0  0
 10 25  1  6  0  0  0
 10 11  1  0  0  0  0
 11 12  1  0  0  0  0
 11 13  1  0  0  0  0
 12 32  1  0  0  0  0
 13 34  1  0  0  0  0
 13 33  1  0  0  0  0
 14 15  1  6  0  0  0
 14 16  1  0  0  0  0
 14 13  1  0  0  0  0
 16 21  2  0  0  0  0
 16 17  1  0  0  0  0
 17 35  1  0  0  0  0
 17 18  2  0  0  0  0
 18 19  1  0  0  0  0
 18 22  1  0  0  0  0
 19 36  1  0  0  0  0
 20 37  1  0  0  0  0
 20 19  2  0  0  0  0
 21 20  1  0  0  0  0
 22 23  2  0  0  0  0
 24 22  2  0  0  0  0
 25 40  1  0  0  0  0
 26 25  1  0  0  0  0
 26 41  1  0  0  0  0
 27 44  1  0  0  0  0
 27 26  1  0  0  0  0
 27  9  1  0  0  0  0
 28  3  1  0  0  0  0
 29  4  1  0  0  0  0
 30  5  1  0  0  0  0
 38 21  1  0  0  0  0
 39 25  1  0  0  0  0
 42 26  1  0  0  0  0
 43 27  1  0  0  0  0
M  END
>  <Pose>
1

>  <Score>
-7.35

$$$$
