
 OpenBabel03202209553D

 60 63  0  0  1  0  0  0  0  0999 V2000
   20.5400   15.8870   31.8530 Cl  0  0  0  0  0  0  0  0  0  0  0  0
   21.3670   14.4670   31.2140 C   0  0  0  0  0  0  0  0  0  0  0  0
   22.2720   14.5730   30.1730 C   0  0  0  0  0  0  0  0  0  0  0  0
   22.9110   13.4530   29.6840 C   0  0  0  0  0  0  0  0  0  0  0  0
   22.6930   12.1890   30.1900 C   0  0  0  0  0  0  0  0  0  0  0  0
   21.7740   12.1020   31.2430 C   0  0  0  0  0  0  0  0  0  0  0  0
   21.1360   13.2180   31.7330 C   0  0  0  0  0  0  0  0  0  0  0  0
   23.3950   11.0020   29.6440 C   0  0  2  0  0  0  0  0  0  0  0  0
   23.5270   10.0630   30.7660 N   0  0  0  0  0  0  0  0  0  0  0  0
   24.5080   10.6430   31.6150 C   0  0  0  0  0  0  0  0  0  0  0  0
   24.6130   10.4910   32.8430 O   0  0  0  0  0  0  0  0  0  0  0  0
   25.3670   11.4500   30.7540 C   0  0  0  0  0  0  0  0  0  0  0  0
   26.3770   12.1610   31.0350 O   0  0  0  0  0  0  0  0  0  0  0  0
   24.8340   11.3030   29.3920 C   0  0  0  0  0  0  0  0  0  0  0  0
   25.5030   11.4440   28.2650 C   0  0  0  0  0  0  0  0  0  0  0  0
   24.8100   11.3060   27.0590 O   0  0  0  0  0  0  0  0  0  0  0  0
   26.9290   11.7320   28.2200 C   0  0  0  0  0  0  0  0  0  0  0  0
   27.4570   12.7290   27.4160 C   0  0  0  0  0  0  0  0  0  0  0  0
   28.8120   12.9810   27.3580 C   0  0  0  0  0  0  0  0  0  0  0  0
   29.7060   12.2330   28.1120 C   0  0  0  0  0  0  0  0  0  0  0  0
   29.1940   11.2390   28.9140 C   0  0  0  0  0  0  0  0  0  0  0  0
   27.8190   10.9930   28.9660 C   0  0  0  0  0  0  0  0  0  0  0  0
   31.0760   12.4750   28.0640 O   0  0  0  0  0  0  0  0  0  0  0  0
   31.7680   12.7070   29.2590 C   0  0  0  0  0  0  0  0  0  0  0  0
   29.3310   14.0560   26.4840 C   0  0  0  0  0  0  0  0  0  0  0  0
   22.7980    8.8090   30.9590 C   0  0  0  0  0  0  0  0  0  0  0  0
   23.8300    7.7050   30.9420 C   0  0  0  0  0  0  0  0  0  0  0  0
   23.4880    6.6440   30.0340 N   0  0  0  0  0  4  0  0  0  0  0  0
   22.4770    5.8020   30.5870 C   0  0  0  0  0  0  0  0  0  0  0  0
   22.9550    4.5610   31.2630 C   0  0  0  0  0  0  0  0  0  0  0  0
   24.0910    4.0080   30.7350 O   0  0  0  0  0  0  0  0  0  0  0  0
   25.1390    4.9110   30.6210 C   0  0  0  0  0  0  0  0  0  0  0  0
   24.6950    5.9690   29.6460 C   0  0  0  0  0  0  0  0  0  0  0  0
   22.4680   15.5450   29.7510 H   0  0  0  0  0  0  0  0  0  0  0  0
   23.6340   13.5060   28.8580 H   0  0  0  0  0  0  0  0  0  0  0  0
   21.6110   11.1070   31.6340 H   0  0  0  0  0  0  0  0  0  0  0  0
   20.4360   13.1240   32.5420 H   0  0  0  0  0  0  0  0  0  0  0  0
   22.8900   10.5510   28.7860 H   0  0  0  0  0  0  0  0  0  0  0  0
   26.7280   13.3060   26.8290 H   0  0  0  0  0  0  0  0  0  0  0  0
   29.8920   10.6400   29.5170 H   0  0  0  0  0  0  0  0  0  0  0  0
   27.4800   10.1900   29.5980 H   0  0  0  0  0  0  0  0  0  0  0  0
   31.3920   13.6510   29.7500 H   0  0  0  0  0  0  0  0  0  0  0  0
   32.8450   12.9070   29.0670 H   0  0  0  0  0  0  0  0  0  0  0  0
   31.7150   11.8540   29.9680 H   0  0  0  0  0  0  0  0  0  0  0  0
   29.6650   13.6380   25.4900 H   0  0  0  0  0  0  0  0  0  0  0  0
   30.2180   14.5570   26.9160 H   0  0  0  0  0  0  0  0  0  0  0  0
   28.5380   14.8110   26.2650 H   0  0  0  0  0  0  0  0  0  0  0  0
   22.0890    8.6190   30.1360 H   0  0  0  0  0  0  0  0  0  0  0  0
   22.2410    8.8670   31.8910 H   0  0  0  0  0  0  0  0  0  0  0  0
   24.8190    8.1070   30.6560 H   0  0  0  0  0  0  0  0  0  0  0  0
   23.9650    7.2390   31.9450 H   0  0  0  0  0  0  0  0  0  0  0  0
   23.0720    7.1220   29.1850 H   0  0  0  0  0  0  0  0  0  0  0  0
   21.7980    5.4700   29.7450 H   0  0  0  0  0  0  0  0  0  0  0  0
   21.8000    6.4130   31.2450 H   0  0  0  0  0  0  0  0  0  0  0  0
   22.1580    3.7770   31.2680 H   0  0  0  0  0  0  0  0  0  0  0  0
   23.1330    4.8070   32.3500 H   0  0  0  0  0  0  0  0  0  0  0  0
   25.9700    4.3460   30.1140 H   0  0  0  0  0  0  0  0  0  0  0  0
   25.4690    5.3150   31.5890 H   0  0  0  0  0  0  0  0  0  0  0  0
   25.5590    6.6730   29.5420 H   0  0  0  0  0  0  0  0  0  0  0  0
   24.6070    5.4730   28.6500 H   0  0  0  0  0  0  0  0  0  0  0  0
  2  7  1  0  0  0  0
  2  1  1  0  0  0  0
  3  2  2  0  0  0  0
  4  3  1  0  0  0  0
  4  5  2  0  0  0  0
  5  6  1  0  0  0  0
  6 36  1  0  0  0  0
  6  7  2  0  0  0  0
  7 37  1  0  0  0  0
  8 38  1  6  0  0  0
  8  5  1  0  0  0  0
  8  9  1  0  0  0  0
  9 26  1  0  0  0  0
  9 10  1  0  0  0  0
 10 11  2  0  0  0  0
 12 13  2  0  0  0  0
 12 10  1  0  0  0  0
 14  8  1  0  0  0  0
 14 12  1  0  0  0  0
 15 14  2  0  0  0  0
 16 15  1  0  0  0  0
 17 15  1  0  0  0  0
 17 22  1  0  0  0  0
 18 17  2  0  0  0  0
 19 18  1  0  0  0  0
 19 20  2  0  0  0  0
 20 21  1  0  0  0  0
 21 22  2  0  0  0  0
 21 40  1  0  0  0  0
 22 41  1  0  0  0  0
 23 20  1  0  0  0  0
 23 24  1  0  0  0  0
 24 42  1  0  0  0  0
 24 44  1  0  0  0  0
 25 46  1  0  0  0  0
 25 19  1  0  0  0  0
 26 49  1  0  0  0  0
 27 26  1  0  0  0  0
 27 51  1  0  0  0  0
 28 29  1  0  0  0  0
 28 27  1  0  0  0  0
 29 54  1  0  0  0  0
 29 30  1  0  0  0  0
 30 55  1  0  0  0  0
 30 56  1  0  0  0  0
 31 30  1  0  0  0  0
 32 31  1  0  0  0  0
 32 58  1  0  0  0  0
 33 28  1  0  0  0  0
 33 32  1  0  0  0  0
 34  3  1  0  0  0  0
 35  4  1  0  0  0  0
 39 18  1  0  0  0  0
 43 24  1  0  0  0  0
 45 25  1  0  0  0  0
 47 25  1  0  0  0  0
 48 26  1  0  0  0  0
 50 27  1  0  0  0  0
 52 28  1  0  0  0  0
 53 29  1  0  0  0  0
 57 32  1  0  0  0  0
 59 33  1  0  0  0  0
 60 33  1  0  0  0  0
M  END
>  <Pose>
1

>  <Score>
-5.59

$$$$
