
 OpenBabel03202209553D

 36 39  0  0  1  0  0  0  0  0999 V2000
   25.7520    8.3910   30.0070 Cl  0  0  0  0  0  0  0  0  0  0  0  0
   24.3900    9.5000   30.0830 C   0  0  0  0  0  0  0  0  0  0  0  0
   24.4630   10.7060   30.7460 C   0  0  0  0  0  0  0  0  0  0  0  0
   23.4030   11.5650   30.8040 N   0  0  0  0  0  0  0  0  0  0  0  0
   22.2310   11.2740   30.2120 C   0  0  0  0  0  0  0  0  0  0  0  0
   21.1770   12.1270   30.2690 N   0  0  0  0  0  0  0  0  0  0  0  0
   21.2550   13.3070   30.9200 C   0  0  0  0  0  0  0  0  0  0  0  0
   22.4300   13.6340   31.5320 C   0  0  2  0  0  0  0  0  0  0  0  0
   22.5730   14.9310   32.2680 C   0  0  0  0  0  0  0  0  0  0  0  0
   21.6210   15.8440   31.6110 N   0  0  0  0  0  0  0  0  0  0  0  0
   20.2520   15.4240   31.7050 C   0  0  0  0  0  0  0  0  0  0  0  0
   20.0310   14.1500   30.9080 C   0  0  0  0  0  0  0  0  0  0  0  0
   22.1350   16.9780   30.9890 C   0  0  0  0  0  0  0  0  0  0  0  0
   22.2890   18.0410   31.6850 O   0  0  0  0  0  0  0  0  0  0  0  0
   22.5270   17.0800   29.5780 C   0  0  0  0  0  0  0  0  0  0  0  0
   22.4800   18.2320   28.9040 N   0  0  0  0  0  0  0  0  0  0  0  0
   22.8390   18.3160   27.6190 C   0  0  0  0  0  0  0  0  0  0  0  0
   23.2800   17.2150   26.9150 C   0  0  0  0  0  0  0  0  0  0  0  0
   23.3200   16.0640   27.6090 N   0  0  0  0  0  0  0  0  0  0  0  0
   22.9670   15.9540   28.8900 C   0  0  0  0  0  0  0  0  0  0  0  0
   23.4890   12.7390   31.4550 C   0  0  0  0  0  0  0  0  0  0  0  0
   24.5670   13.0290   32.0110 O   0  0  0  0  0  0  0  0  0  0  0  0
   22.1490   10.0630   29.5430 C   0  0  0  0  0  0  0  0  0  0  0  0
   23.2010    9.1750   29.4670 C   0  0  0  0  0  0  0  0  0  0  0  0
   25.3700   11.0020   31.2410 H   0  0  0  0  0  0  0  0  0  0  0  0
   23.6010   15.3120   32.2230 H   0  0  0  0  0  0  0  0  0  0  0  0
   22.2450   14.7150   33.3160 H   0  0  0  0  0  0  0  0  0  0  0  0
   19.4930   16.1730   31.5380 H   0  0  0  0  0  0  0  0  0  0  0  0
   20.1080   15.0960   32.7840 H   0  0  0  0  0  0  0  0  0  0  0  0
   19.7290   14.4290   29.8900 H   0  0  0  0  0  0  0  0  0  0  0  0
   19.1850   13.5920   31.3650 H   0  0  0  0  0  0  0  0  0  0  0  0
   22.7970   19.2590   27.0800 H   0  0  0  0  0  0  0  0  0  0  0  0
   23.5730   17.2790   25.8700 H   0  0  0  0  0  0  0  0  0  0  0  0
   23.0180   15.0210   29.3930 H   0  0  0  0  0  0  0  0  0  0  0  0
   21.2130    9.8130   29.0620 H   0  0  0  0  0  0  0  0  0  0  0  0
   23.1360    8.2260   28.9420 H   0  0  0  0  0  0  0  0  0  0  0  0
  1  2  1  0  0  0  0
  2  3  1  0  0  0  0
  3  4  1  0  0  0  0
  3 25  1  0  0  0  0
  4 21  1  0  0  0  0
  5  6  1  0  0  0  0
  5  4  1  0  0  0  0
  6  7  2  0  0  0  0
  8  7  1  6  0  0  0
  8  9  1  0  0  0  0
  9 27  1  0  0  0  0
 10 11  1  0  0  0  0
 10  9  1  0  0  0  0
 11 29  1  0  0  0  0
 12  7  1  0  0  0  0
 12 31  1  0  0  0  0
 12 11  1  0  0  0  0
 13 10  1  0  0  0  0
 13 14  2  0  0  0  0
 15 13  1  0  0  0  0
 16 15  1  0  0  0  0
 17 16  2  0  0  0  0
 18 19  2  0  0  0  0
 18 17  1  0  0  0  0
 19 20  1  0  0  0  0
 20 34  1  0  0  0  0
 20 15  2  0  0  0  0
 21  8  1  0  0  0  0
 21 22  2  0  0  0  0
 23  5  2  0  0  0  0
 24 23  1  0  0  0  0
 24  2  2  0  0  0  0
 26  9  1  0  0  0  0
 28 11  1  0  0  0  0
 30 12  1  0  0  0  0
 32 17  1  0  0  0  0
 33 18  1  0  0  0  0
 35 23  1  0  0  0  0
 36 24  1  0  0  0  0
M  END
>  <Pose>
1

>  <Score>
-6.75

$$$$
