
 OpenBabel03202209553D

 39 42  0  0  1  0  0  0  0  0999 V2000
   24.1520    2.1080   33.4440 B   0  0  0  0  0  0  0  0  0  0  0  0
   24.4810    3.4890   32.1620 C   0  0  0  0  0  0  0  0  0  0  0  0
   23.4430    4.3350   31.7590 C   0  0  0  0  0  0  0  0  0  0  0  0
   23.6690    5.3390   30.8350 C   0  0  0  0  0  0  0  0  0  0  0  0
   24.9470    5.4740   30.3320 C   0  0  0  0  0  0  0  0  0  0  0  0
   25.9730    4.6310   30.7390 C   0  0  0  0  0  0  0  0  0  0  0  0
   25.7450    3.6330   31.6580 C   0  0  0  0  0  0  0  0  0  0  0  0
   27.7380    4.8670   30.0060 B   0  0  0  0  0  0  0  0  0  0  0  0
   22.5660    6.2600   30.3750 C   0  0  1  0  0  0  0  0  0  0  0  0
   21.4430    6.0940   31.2170 N   0  0  0  0  0  4  0  0  0  0  0  0
   20.8300    7.2870   31.7250 C   0  0  2  0  0  0  0  0  0  0  0  0
   21.9010    8.1390   32.4270 C   0  0  0  0  0  0  0  0  0  0  0  0
   22.8200    8.5170   31.3360 C   0  0  0  0  0  0  0  0  0  0  0  0
   23.4870    9.7010   31.0660 C   0  0  0  0  0  0  0  0  0  0  0  0
   24.2030    9.4890   29.9080 C   0  0  0  0  0  0  0  0  0  0  0  0
   23.9960    8.2360   29.4750 N   0  0  0  0  0  0  0  0  0  0  0  0
   23.1370    7.6270   30.3580 C   0  0  0  0  0  0  0  0  0  0  0  0
   24.9630   10.5360   29.4190 C   0  0  0  0  0  0  0  0  0  0  0  0
   24.9720   11.7270   30.1020 C   0  0  0  0  0  0  0  0  0  0  0  0
   24.2550   11.9360   31.2590 C   0  0  0  0  0  0  0  0  0  0  0  0
   23.4850   10.8900   31.7620 C   0  0  0  0  0  0  0  0  0  0  0  0
   19.7440    6.9330   32.6610 C   0  0  0  0  0  0  0  0  0  0  0  0
   18.9860    7.8420   33.0870 O   0  0  0  0  0  0  0  0  0  0  0  0
   19.5830    5.6140   33.0520 O   0  0  0  0  0  0  0  0  0  0  0  0
   22.2190    4.1030   32.3280 O   0  0  0  0  0  0  0  0  0  0  0  0
   25.1850    6.2470   29.5990 H   0  0  0  0  0  0  0  0  0  0  0  0
   26.5430    2.9660   31.9840 H   0  0  0  0  0  0  0  0  0  0  0  0
   22.3620    5.9470   29.3120 H   0  0  0  0  0  0  0  0  0  0  0  0
   20.6930    5.5780   30.6540 H   0  0  0  0  0  0  0  0  0  0  0  0
   21.6120    5.4730   32.0470 H   0  0  0  0  0  0  0  0  0  0  0  0
   20.4410    7.8690   30.8590 H   0  0  0  0  0  0  0  0  0  0  0  0
   21.4120    9.0150   32.8990 H   0  0  0  0  0  0  0  0  0  0  0  0
   22.3520    7.4620   33.1750 H   0  0  0  0  0  0  0  0  0  0  0  0
   24.3890    7.7540   28.6260 H   0  0  0  0  0  0  0  0  0  0  0  0
   25.5320   10.3740   28.5050 H   0  0  0  0  0  0  0  0  0  0  0  0
   25.5770   12.5510   29.7070 H   0  0  0  0  0  0  0  0  0  0  0  0
   24.2640   12.8930   31.8020 H   0  0  0  0  0  0  0  0  0  0  0  0
   22.8980   10.9890   32.6650 H   0  0  0  0  0  0  0  0  0  0  0  0
   21.4420    3.6750   31.9030 H   0  0  0  0  0  0  0  0  0  0  0  0
  2  1  1  0  0  0  0
  3  2  1  0  0  0  0
  3 25  1  0  0  0  0
  4  3  2  0  0  0  0
  5  6  2  0  0  0  0
  5  4  1  0  0  0  0
  6  7  1  0  0  0  0
  7 27  1  0  0  0  0
  7  2  2  0  0  0  0
  8  6  1  0  0  0  0
  9 28  1  6  0  0  0
  9  4  1  0  0  0  0
  9 10  1  0  0  0  0
 10 11  1  0  0  0  0
 10 30  1  0  0  0  0
 11 31  1  6  0  0  0
 11 12  1  0  0  0  0
 11 22  1  0  0  0  0
 12 32  1  0  0  0  0
 12 33  1  0  0  0  0
 13 12  1  0  0  0  0
 14 13  1  0  0  0  0
 14 21  1  0  0  0  0
 15 14  2  0  0  0  0
 16 15  1  0  0  0  0
 16 17  1  0  0  0  0
 17  9  1  0  0  0  0
 17 13  2  0  0  0  0
 18 15  1  0  0  0  0
 18 19  2  0  0  0  0
 19 20  1  0  0  0  0
 20 21  2  0  0  0  0
 20 37  1  0  0  0  0
 21 38  1  0  0  0  0
 22 24  2  0  0  0  0
 22 23  1  0  0  0  0
 26  5  1  0  0  0  0
 29 10  1  0  0  0  0
 34 16  1  0  0  0  0
 35 18  1  0  0  0  0
 36 19  1  0  0  0  0
 39 25  1  0  0  0  0
M  END
>  <Pose>
1

>  <Score>
-5.56

$$$$
