
 OpenBabel03202209553D

 56 59  0  0  0  0  0  0  0  0999 V2000
   19.7610    9.2870   33.1040 Cl  0  0  0  0  0  0  0  0  0  0  0  0
   20.5730    7.9390   32.3940 C   0  0  0  0  0  0  0  0  0  0  0  0
   21.5760    8.1750   31.4780 C   0  0  0  0  0  0  0  0  0  0  0  0
   22.1910    7.0440   30.9450 C   0  0  0  0  0  0  0  0  0  0  0  0
   21.8110    5.7700   31.3180 C   0  0  0  0  0  0  0  0  0  0  0  0
   20.8080    5.5850   32.2330 C   0  0  0  0  0  0  0  0  0  0  0  0
   20.1880    6.6680   32.7730 C   0  0  0  0  0  0  0  0  0  0  0  0
   21.9940    9.4420   31.0670 N   0  0  0  0  0  0  0  0  0  0  0  0
   22.5200   10.4810   31.9260 C   0  0  0  0  0  0  0  0  0  0  0  0
   23.2660   11.4920   31.0590 C   0  0  0  0  0  0  0  0  0  0  0  0
   24.0280   10.7860   30.0410 N   0  0  0  0  0  0  0  0  0  0  0  0
   23.3220    9.9040   29.1410 C   0  0  0  0  0  0  0  0  0  0  0  0
   21.9020    9.7710   29.6360 C   0  0  0  0  0  0  0  0  0  0  0  0
   25.4360   10.9460   29.9160 C   0  0  0  0  0  0  0  0  0  0  0  0
   25.8700   11.9160   29.2190 O   0  0  0  0  0  0  0  0  0  0  0  0
   26.4230   10.0590   30.5420 C   0  0  0  0  0  0  0  0  0  0  0  0
   26.6840    8.8440   29.7720 N   0  0  0  0  0  0  0  0  0  0  0  0
   25.9120    7.7930   29.5810 N   0  0  0  0  0  0  0  0  0  0  0  0
   26.4830    6.8620   28.8140 C   0  0  0  0  0  0  0  0  0  0  0  0
   27.7320    7.3510   28.4780 C   0  0  0  0  0  0  0  0  0  0  0  0
   27.8310    8.5820   29.0860 C   0  0  0  0  0  0  0  0  0  0  0  0
   29.0070    9.4740   29.0000 C   0  0  0  0  0  0  0  0  0  0  0  0
   25.8970    5.5720   28.4040 C   0  0  0  0  0  0  0  0  0  0  0  0
   25.2140    5.4970   27.3640 O   0  0  0  0  0  0  0  0  0  0  0  0
   26.1260    4.4330   29.2070 N   0  0  0  0  0  0  0  0  0  0  0  0
   25.3560    4.1060   30.3740 C   0  0  0  0  0  0  0  0  0  0  0  0
   25.8440    2.7290   30.8400 C   0  0  0  0  0  0  0  0  0  0  0  0
   25.7990    1.8120   29.8130 O   0  0  0  0  0  0  0  0  0  0  0  0
   26.6060    2.1240   28.7450 C   0  0  0  0  0  0  0  0  0  0  0  0
   27.2080    3.5090   28.8540 C   0  0  0  0  0  0  0  0  0  0  0  0
   22.9790    7.1340   30.2260 H   0  0  0  0  0  0  0  0  0  0  0  0
   22.2980    4.9010   30.8950 H   0  0  0  0  0  0  0  0  0  0  0  0
   20.5130    4.5650   32.5240 H   0  0  0  0  0  0  0  0  0  0  0  0
   19.3840    6.5360   33.5070 H   0  0  0  0  0  0  0  0  0  0  0  0
   21.7370   11.0420   32.4570 H   0  0  0  0  0  0  0  0  0  0  0  0
   23.2880   10.0580   32.6050 H   0  0  0  0  0  0  0  0  0  0  0  0
   23.9980   11.9940   31.7230 H   0  0  0  0  0  0  0  0  0  0  0  0
   22.5730   12.2300   30.6100 H   0  0  0  0  0  0  0  0  0  0  0  0
   23.3690   10.2440   28.0890 H   0  0  0  0  0  0  0  0  0  0  0  0
   23.7590    8.8720   29.2400 H   0  0  0  0  0  0  0  0  0  0  0  0
   21.4110   10.7750   29.5660 H   0  0  0  0  0  0  0  0  0  0  0  0
   21.3330    8.9960   29.0830 H   0  0  0  0  0  0  0  0  0  0  0  0
   26.1410    9.7780   31.5760 H   0  0  0  0  0  0  0  0  0  0  0  0
   27.3870   10.6020   30.5940 H   0  0  0  0  0  0  0  0  0  0  0  0
   28.4660    6.8560   27.8640 H   0  0  0  0  0  0  0  0  0  0  0  0
   29.2500    9.6740   27.9390 H   0  0  0  0  0  0  0  0  0  0  0  0
   28.7960   10.4390   29.4980 H   0  0  0  0  0  0  0  0  0  0  0  0
   29.8760    9.0170   29.5380 H   0  0  0  0  0  0  0  0  0  0  0  0
   24.2740    4.0440   30.1370 H   0  0  0  0  0  0  0  0  0  0  0  0
   25.4860    4.7950   31.2150 H   0  0  0  0  0  0  0  0  0  0  0  0
   26.8230    2.8120   31.3370 H   0  0  0  0  0  0  0  0  0  0  0  0
   25.1060    2.4050   31.6060 H   0  0  0  0  0  0  0  0  0  0  0  0
   27.4580    1.3970   28.6770 H   0  0  0  0  0  0  0  0  0  0  0  0
   26.0400    2.0880   27.7950 H   0  0  0  0  0  0  0  0  0  0  0  0
   27.6460    3.8020   27.8810 H   0  0  0  0  0  0  0  0  0  0  0  0
   27.9660    3.4910   29.6560 H   0  0  0  0  0  0  0  0  0  0  0  0
  2  7  1  0  0  0  0
  2  1  1  0  0  0  0
  3  2  2  0  0  0  0
  4  5  2  0  0  0  0
  4  3  1  0  0  0  0
  5  6  1  0  0  0  0
  6 33  1  0  0  0  0
  6  7  2  0  0  0  0
  7 34  1  0  0  0  0
  8  3  1  0  0  0  0
  8  9  1  0  0  0  0
  9 35  1  0  0  0  0
  9 36  1  0  0  0  0
 10 37  1  0  0  0  0
 10  9  1  0  0  0  0
 11 10  1  0  0  0  0
 12 40  1  0  0  0  0
 12 13  1  0  0  0  0
 12 11  1  0  0  0  0
 13  8  1  0  0  0  0
 14 11  1  0  0  0  0
 14 16  1  0  0  0  0
 15 14  2  0  0  0  0
 16 44  1  0  0  0  0
 16 43  1  0  0  0  0
 17 16  1  0  0  0  0
 18 17  1  0  0  0  0
 19 18  2  0  0  0  0
 20 19  1  0  0  0  0
 20 21  2  0  0  0  0
 21 17  1  0  0  0  0
 22 21  1  0  0  0  0
 22 47  1  0  0  0  0
 22 48  1  0  0  0  0
 23 19  1  0  0  0  0
 23 25  1  0  0  0  0
 24 23  2  0  0  0  0
 25 26  1  0  0  0  0
 26 27  1  0  0  0  0
 26 50  1  0  0  0  0
 27 51  1  0  0  0  0
 27 52  1  0  0  0  0
 28 27  1  0  0  0  0
 29 30  1  0  0  0  0
 29 28  1  0  0  0  0
 30 25  1  0  0  0  0
 30 56  1  0  0  0  0
 31  4  1  0  0  0  0
 32  5  1  0  0  0  0
 38 10  1  0  0  0  0
 39 12  1  0  0  0  0
 41 13  1  0  0  0  0
 42 13  1  0  0  0  0
 45 20  1  0  0  0  0
 46 22  1  0  0  0  0
 49 26  1  0  0  0  0
 53 29  1  0  0  0  0
 54 29  1  0  0  0  0
 55 30  1  0  0  0  0
M  END
>  <Pose>
1

>  <Score>
-6.05

$$$$
