
 OpenBabel03202209553D

 46 49  0  0  1  0  0  0  0  0999 V2000
   23.5940   19.3930   25.9770 Cl  0  0  0  0  0  0  0  0  0  0  0  0
   23.5620   17.8810   26.8730 C   0  0  0  0  0  0  0  0  0  0  0  0
   22.9420   17.8770   28.1010 C   0  0  0  0  0  0  0  0  0  0  0  0
   22.9190   16.7080   28.7890 N   0  0  0  0  0  0  0  0  0  0  0  0
   23.4740   15.5850   28.3080 C   0  0  0  0  0  0  0  0  0  0  0  0
   23.4550   14.4210   28.9830 N   0  0  0  0  0  0  0  0  0  0  0  0
   22.8790   14.2940   30.1920 C   0  0  0  0  0  0  0  0  0  0  0  0
   22.3060   15.4520   30.6900 C   0  0  0  0  0  0  0  0  0  0  0  0
   22.3260   16.6420   29.9980 C   0  0  0  0  0  0  0  0  0  0  0  0
   21.7880   17.6800   30.4930 O   0  0  0  0  0  0  0  0  0  0  0  0
   22.8380   13.0430   30.9620 C   0  0  0  0  0  0  0  0  0  0  0  0
   23.4610   11.9290   30.3790 N   0  0  0  0  0  0  0  0  0  0  0  0
   24.6780   11.4820   30.9160 C   0  0  0  0  0  0  0  0  0  0  0  0
   24.5880   10.3390   31.8720 C   0  0  0  0  0  0  0  0  0  0  0  0
   23.4370    9.4900   31.6050 N   0  0  0  0  0  0  0  0  0  0  0  0
   23.1260    8.3630   32.2450 N   0  0  0  0  0  0  0  0  0  0  0  0
   22.0020    7.8590   31.7270 C   0  0  0  0  0  0  0  0  0  0  0  0
   21.6040    8.7100   30.7270 C   0  0  0  0  0  0  0  0  0  0  0  0
   22.5290    9.7560   30.6530 C   0  0  0  0  0  0  0  0  0  0  0  0
   22.6230   10.9530   29.7810 C   0  0  0  0  0  0  0  0  0  0  0  0
   21.3160    6.6030   32.1640 C   0  0  1  0  0  0  0  0  0  0  0  0
   19.9480    6.8900   32.3030 O   0  0  0  0  0  0  0  0  0  0  0  0
   21.4080    5.5490   31.0630 C   0  0  0  0  0  0  0  0  0  0  0  0
   22.5110    4.5680   31.4320 C   0  0  0  0  0  0  0  0  0  0  0  0
   24.1050   15.5820   27.0600 C   0  0  0  0  0  0  0  0  0  0  0  0
   24.1450   16.7500   26.3390 C   0  0  0  0  0  0  0  0  0  0  0  0
   22.4960   18.7570   28.5010 H   0  0  0  0  0  0  0  0  0  0  0  0
   21.8230   15.4080   31.6720 H   0  0  0  0  0  0  0  0  0  0  0  0
   23.3030   13.2300   31.9630 H   0  0  0  0  0  0  0  0  0  0  0  0
   21.7690   12.7710   31.2050 H   0  0  0  0  0  0  0  0  0  0  0  0
   25.3310   11.1330   30.0610 H   0  0  0  0  0  0  0  0  0  0  0  0
   25.2270   12.3490   31.3420 H   0  0  0  0  0  0  0  0  0  0  0  0
   24.5630   10.7320   32.9040 H   0  0  0  0  0  0  0  0  0  0  0  0
   25.5080    9.6870   31.8310 H   0  0  0  0  0  0  0  0  0  0  0  0
   20.7390    8.6210   30.0920 H   0  0  0  0  0  0  0  0  0  0  0  0
   23.0820   10.6680   28.7880 H   0  0  0  0  0  0  0  0  0  0  0  0
   21.6290   11.4050   29.5880 H   0  0  0  0  0  0  0  0  0  0  0  0
   21.7190    6.2030   33.1020 H   0  0  0  0  0  0  0  0  0  0  0  0
   19.4210    6.4520   31.5740 H   0  0  0  0  0  0  0  0  0  0  0  0
   21.7080    6.0640   30.1490 H   0  0  0  0  0  0  0  0  0  0  0  0
   20.4630    5.0280   30.9010 H   0  0  0  0  0  0  0  0  0  0  0  0
   22.8950    4.7890   32.4420 H   0  0  0  0  0  0  0  0  0  0  0  0
   22.1660    3.5110   31.3440 H   0  0  0  0  0  0  0  0  0  0  0  0
   23.3820    4.6540   30.7240 H   0  0  0  0  0  0  0  0  0  0  0  0
   24.5440   14.6580   26.6980 H   0  0  0  0  0  0  0  0  0  0  0  0
   24.6330   16.7510   25.3740 H   0  0  0  0  0  0  0  0  0  0  0  0
  1  2  1  0  0  0  0
  2  3  1  0  0  0  0
  3 27  1  0  0  0  0
  3  4  1  0  0  0  0
  4  9  1  0  0  0  0
  5  4  1  0  0  0  0
  5  6  1  0  0  0  0
  6  7  2  0  0  0  0
  7  8  1  0  0  0  0
  7 11  1  0  0  0  0
  8 28  1  0  0  0  0
  9 10  2  0  0  0  0
  9  8  1  0  0  0  0
 11 30  1  0  0  0  0
 11 29  1  0  0  0  0
 12 13  1  0  0  0  0
 12 11  1  0  0  0  0
 13 32  1  0  0  0  0
 13 14  1  0  0  0  0
 14 33  1  0  0  0  0
 15 14  1  0  0  0  0
 15 16  1  0  0  0  0
 17 21  1  0  0  0  0
 17 16  2  0  0  0  0
 18 17  1  0  0  0  0
 19 18  2  0  0  0  0
 19 15  1  0  0  0  0
 20 12  1  0  0  0  0
 20 19  1  0  0  0  0
 21 22  1  0  0  0  0
 21 38  1  1  0  0  0
 23 24  1  0  0  0  0
 23 21  1  0  0  0  0
 24 42  1  0  0  0  0
 25  5  2  0  0  0  0
 26  2  2  0  0  0  0
 26 25  1  0  0  0  0
 31 13  1  0  0  0  0
 34 14  1  0  0  0  0
 35 18  1  0  0  0  0
 36 20  1  0  0  0  0
 37 20  1  0  0  0  0
 39 22  1  0  0  0  0
 40 23  1  0  0  0  0
 41 23  1  0  0  0  0
 43 24  1  0  0  0  0
 44 24  1  0  0  0  0
 45 25  1  0  0  0  0
 46 26  1  0  0  0  0
M  END
>  <Pose>
1

>  <Score>
-6.22

$$$$
