
 OpenBabel03202209553D

 41 44  0  0  0  0  0  0  0  0999 V2000
   21.8860   15.7420   31.1020 Cl  0  0  0  0  0  0  0  0  0  0  0  0
   22.2410   14.0360   30.9090 C   0  0  0  0  0  0  0  0  0  0  0  0
   21.5710   13.0880   31.6480 C   0  0  0  0  0  0  0  0  0  0  0  0
   21.8740   11.7720   31.4720 N   0  0  0  0  0  0  0  0  0  0  0  0
   22.8130   11.4250   30.5850 C   0  0  0  0  0  0  0  0  0  0  0  0
   22.9350   10.0880   30.5870 N   0  0  0  0  0  0  0  0  0  0  0  0
   22.0800    9.5690   31.4690 C   0  0  0  0  0  0  0  0  0  0  0  0
   21.3970   10.6550   32.0380 C   0  0  0  0  0  0  0  0  0  0  0  0
   21.8590    8.1740   31.8100 C   0  0  0  0  0  0  0  0  0  0  0  0
   21.3730    7.9300   32.9750 O   0  0  0  0  0  0  0  0  0  0  0  0
   22.1210    7.0800   31.0080 N   0  0  0  0  0  0  0  0  0  0  0  0
   23.0530    7.0930   29.9070 C   0  0  0  0  0  0  0  0  0  0  0  0
   24.2670    6.2420   30.2150 C   0  0  0  0  0  0  0  0  0  0  0  0
   23.8400    5.0290   30.9910 C   0  0  0  0  0  0  0  0  0  0  0  0
   22.5720    4.8030   31.4530 C   0  0  0  0  0  0  0  0  0  0  0  0
   22.6270    3.6050   32.0910 N   0  0  0  0  0  0  0  0  0  0  0  0
   23.8400    3.1030   32.0420 N   0  0  0  0  0  0  0  0  0  0  0  0
   24.6410    3.9410   31.3710 C   0  0  0  0  0  0  0  0  0  0  0  0
   25.8810    3.8090   31.1120 O   0  0  0  0  0  0  0  0  0  0  0  0
   24.3120    1.8320   32.6090 C   0  0  0  0  0  0  0  0  0  0  0  0
   23.4890    1.4460   33.8170 C   0  0  0  0  0  0  0  0  0  0  0  0
   22.3180    0.7850   33.4660 O   0  0  0  0  0  0  0  0  0  0  0  0
   21.4600    5.7690   31.2210 C   0  0  0  0  0  0  0  0  0  0  0  0
   23.5130   12.3710   29.8160 C   0  0  0  0  0  0  0  0  0  0  0  0
   23.2150   13.6870   29.9880 C   0  0  0  0  0  0  0  0  0  0  0  0
   20.8130   13.3590   32.3650 H   0  0  0  0  0  0  0  0  0  0  0  0
   20.6220   10.5820   32.8030 H   0  0  0  0  0  0  0  0  0  0  0  0
   23.3560    8.0580   29.5370 H   0  0  0  0  0  0  0  0  0  0  0  0
   22.4770    6.6060   29.0500 H   0  0  0  0  0  0  0  0  0  0  0  0
   25.0450    6.7810   30.7550 H   0  0  0  0  0  0  0  0  0  0  0  0
   24.7010    5.9420   29.2230 H   0  0  0  0  0  0  0  0  0  0  0  0
   21.7830    3.1820   32.5470 H   0  0  0  0  0  0  0  0  0  0  0  0
   25.3440    2.0210   32.9710 H   0  0  0  0  0  0  0  0  0  0  0  0
   24.3470    1.0330   31.8720 H   0  0  0  0  0  0  0  0  0  0  0  0
   24.1010    0.7260   34.3970 H   0  0  0  0  0  0  0  0  0  0  0  0
   23.2340    2.3210   34.4240 H   0  0  0  0  0  0  0  0  0  0  0  0
   21.7790    1.3040   32.7980 H   0  0  0  0  0  0  0  0  0  0  0  0
   20.8620    5.5190   30.3290 H   0  0  0  0  0  0  0  0  0  0  0  0
   20.8550    5.8780   32.1430 H   0  0  0  0  0  0  0  0  0  0  0  0
   24.2710   12.0350   29.1060 H   0  0  0  0  0  0  0  0  0  0  0  0
   23.7490   14.4360   29.3990 H   0  0  0  0  0  0  0  0  0  0  0  0
  2  1  1  0  0  0  0
  2  3  2  0  0  0  0
  3 26  1  0  0  0  0
  4  3  1  0  0  0  0
  4  8  1  0  0  0  0
  5  6  2  0  0  0  0
  5  4  1  0  0  0  0
  6  7  1  0  0  0  0
  7  9  1  0  0  0  0
  7  8  2  0  0  0  0
  8 27  1  0  0  0  0
  9 10  2  0  0  0  0
 11 23  1  0  0  0  0
 11  9  1  0  0  0  0
 12 13  1  0  0  0  0
 12 11  1  0  0  0  0
 13 30  1  0  0  0  0
 13 14  1  0  0  0  0
 14 18  1  0  0  0  0
 14 15  2  0  0  0  0
 15 16  1  0  0  0  0
 16 32  1  0  0  0  0
 17 16  1  0  0  0  0
 17 20  1  0  0  0  0
 18 17  1  0  0  0  0
 19 18  2  0  0  0  0
 20 33  1  0  0  0  0
 20 21  1  0  0  0  0
 21 35  1  0  0  0  0
 21 36  1  0  0  0  0
 22 21  1  0  0  0  0
 23 15  1  0  0  0  0
 23 39  1  0  0  0  0
 24 25  2  0  0  0  0
 24  5  1  0  0  0  0
 25  2  1  0  0  0  0
 28 12  1  0  0  0  0
 29 12  1  0  0  0  0
 31 13  1  0  0  0  0
 34 20  1  0  0  0  0
 37 22  1  0  0  0  0
 38 23  1  0  0  0  0
 40 24  1  0  0  0  0
 41 25  1  0  0  0  0
M  END
>  <Pose>
1

>  <Score>
-6.77

$$$$
