
 OpenBabel03202209553D

 53 56  0  0  0  0  0  0  0  0999 V2000
   24.2500    2.7600   32.0600 Cl  0  0  0  0  0  0  0  0  0  0  0  0
   24.9680    4.0680   31.1220 C   0  0  0  0  0  0  0  0  0  0  0  0
   24.1310    5.0950   30.7050 C   0  0  0  0  0  0  0  0  0  0  0  0
   24.6630    6.1180   29.9740 C   0  0  0  0  0  0  0  0  0  0  0  0
   26.0380    6.0960   29.6700 C   0  0  0  0  0  0  0  0  0  0  0  0
   26.8390    5.0740   30.0930 C   0  0  0  0  0  0  0  0  0  0  0  0
   26.3150    4.0280   30.8340 C   0  0  0  0  0  0  0  0  0  0  0  0
   23.8510    7.2750   29.5300 C   0  0  0  0  0  0  0  0  0  0  0  0
   23.0230    7.8780   30.5250 N   0  0  0  0  0  0  0  0  0  0  0  0
   22.0410    7.2090   31.1640 C   0  0  0  0  0  0  0  0  0  0  0  0
   21.4240    8.1060   32.0030 C   0  0  0  0  0  0  0  0  0  0  0  0
   22.0330    9.2660   31.8540 N   0  0  0  0  0  0  0  0  0  0  0  0
   23.0290    9.1490   30.9400 C   0  0  0  0  0  0  0  0  0  0  0  0
   23.8470   10.2390   30.4900 N   0  0  0  0  0  0  0  0  0  0  0  0
   24.7690   10.8550   31.4660 C   0  0  0  0  0  0  0  0  0  0  0  0
   26.1840   10.8350   30.9840 C   0  0  0  0  0  0  0  0  0  0  0  0
   26.2450   10.7440   29.5440 N   0  0  0  0  0  0  0  0  0  0  0  0
   25.1850   11.3810   28.7910 C   0  0  0  0  0  0  0  0  0  0  0  0
   23.8490   10.7690   29.1740 C   0  0  0  0  0  0  0  0  0  0  0  0
   27.3130   10.0610   28.9010 C   0  0  0  0  0  0  0  0  0  0  0  0
   27.0840    9.0600   28.1870 O   0  0  0  0  0  0  0  0  0  0  0  0
   28.7170   10.5090   29.0550 C   0  0  0  0  0  0  0  0  0  0  0  0
   28.8100   11.9140   28.4650 C   0  0  0  0  0  0  0  0  0  0  0  0
   20.3850    7.6570   32.7630 N   0  0  0  0  0  0  0  0  0  0  0  0
   19.9680    6.3870   32.7040 C   0  0  0  0  0  0  0  0  0  0  0  0
   19.0010    6.0200   33.4280 O   0  0  0  0  0  0  0  0  0  0  0  0
   20.5410    5.4820   31.9010 N   0  0  0  0  0  0  0  0  0  0  0  0
   21.5760    5.8980   31.1340 C   0  0  0  0  0  0  0  0  0  0  0  0
   22.1140    5.0570   30.3810 O   0  0  0  0  0  0  0  0  0  0  0  0
   19.7120    8.5970   33.6570 C   0  0  0  0  0  0  0  0  0  0  0  0
   23.0710    5.0390   30.9620 H   0  0  0  0  0  0  0  0  0  0  0  0
   26.4590    6.9220   29.0820 H   0  0  0  0  0  0  0  0  0  0  0  0
   27.8970    5.0200   29.8780 H   0  0  0  0  0  0  0  0  0  0  0  0
   26.9310    3.2070   31.1810 H   0  0  0  0  0  0  0  0  0  0  0  0
   23.2000    6.9340   28.6680 H   0  0  0  0  0  0  0  0  0  0  0  0
   24.5580    7.9860   29.0550 H   0  0  0  0  0  0  0  0  0  0  0  0
   24.3950   11.8830   31.6380 H   0  0  0  0  0  0  0  0  0  0  0  0
   24.7380   10.2540   32.4070 H   0  0  0  0  0  0  0  0  0  0  0  0
   26.6640   11.8130   31.2670 H   0  0  0  0  0  0  0  0  0  0  0  0
   26.7780   10.0100   31.4320 H   0  0  0  0  0  0  0  0  0  0  0  0
   25.1710   12.4650   29.1110 H   0  0  0  0  0  0  0  0  0  0  0  0
   25.3360   11.3880   27.7080 H   0  0  0  0  0  0  0  0  0  0  0  0
   23.6030    9.9720   28.4510 H   0  0  0  0  0  0  0  0  0  0  0  0
   23.0580   11.5740   29.0440 H   0  0  0  0  0  0  0  0  0  0  0  0
   28.9910   10.5690   30.1440 H   0  0  0  0  0  0  0  0  0  0  0  0
   29.4370    9.8100   28.6140 H   0  0  0  0  0  0  0  0  0  0  0  0
   28.7490   12.7050   29.2390 H   0  0  0  0  0  0  0  0  0  0  0  0
   27.9950   12.1130   27.7380 H   0  0  0  0  0  0  0  0  0  0  0  0
   29.7650   12.0150   27.8960 H   0  0  0  0  0  0  0  0  0  0  0  0
   20.1830    4.5000   31.8860 H   0  0  0  0  0  0  0  0  0  0  0  0
   19.3800    8.0680   34.5780 H   0  0  0  0  0  0  0  0  0  0  0  0
   18.8060    8.9630   33.0940 H   0  0  0  0  0  0  0  0  0  0  0  0
   20.3470    9.4670   33.8640 H   0  0  0  0  0  0  0  0  0  0  0  0
  2  1  1  0  0  0  0
  3 31  1  0  0  0  0
  3  2  2  0  0  0  0
  4  3  1  0  0  0  0
  5  4  2  0  0  0  0
  5  6  1  0  0  0  0
  6  7  2  0  0  0  0
  7  2  1  0  0  0  0
  7 34  1  0  0  0  0
  8  4  1  0  0  0  0
  8  9  1  0  0  0  0
  9 13  1  0  0  0  0
  9 10  1  0  0  0  0
 10 11  2  0  0  0  0
 11 24  1  0  0  0  0
 12 11  1  0  0  0  0
 13 12  2  0  0  0  0
 14 13  1  0  0  0  0
 14 15  1  0  0  0  0
 15 37  1  0  0  0  0
 15 38  1  0  0  0  0
 16 39  1  0  0  0  0
 16 40  1  0  0  0  0
 16 15  1  0  0  0  0
 17 16  1  0  0  0  0
 18 41  1  0  0  0  0
 18 19  1  0  0  0  0
 18 17  1  0  0  0  0
 19 14  1  0  0  0  0
 20 22  1  0  0  0  0
 20 17  1  0  0  0  0
 21 20  2  0  0  0  0
 22 45  1  0  0  0  0
 23 22  1  0  0  0  0
 23 47  1  0  0  0  0
 24 30  1  0  0  0  0
 25 24  1  0  0  0  0
 25 26  2  0  0  0  0
 27 25  1  0  0  0  0
 28 10  1  0  0  0  0
 28 27  1  0  0  0  0
 29 28  2  0  0  0  0
 30 53  1  0  0  0  0
 30 51  1  0  0  0  0
 32  5  1  0  0  0  0
 33  6  1  0  0  0  0
 35  8  1  0  0  0  0
 36  8  1  0  0  0  0
 42 18  1  0  0  0  0
 43 19  1  0  0  0  0
 44 19  1  0  0  0  0
 46 22  1  0  0  0  0
 48 23  1  0  0  0  0
 49 23  1  0  0  0  0
 50 27  1  0  0  0  0
 52 30  1  0  0  0  0
M  END
>  <Pose>
1

>  <Score>
-6.61

$$$$
