
 OpenBabel03202209553D

 53 56  0  0  1  0  0  0  0  0999 V2000
   17.2910    7.6520   33.4360 Cl  0  0  0  0  0  0  0  0  0  0  0  0
   18.9510    7.8260   32.9390 C   0  0  0  0  0  0  0  0  0  0  0  0
   19.7690    6.7450   32.7890 C   0  0  0  0  0  0  0  0  0  0  0  0
   21.0830    6.9390   32.3920 C   0  0  0  0  0  0  0  0  0  0  0  0
   21.6130    8.1640   32.1390 C   0  0  0  0  0  0  0  0  0  0  0  0
   20.7740    9.2670   32.2930 C   0  0  0  0  0  0  0  0  0  0  0  0
   19.4660    9.1000   32.6870 C   0  0  0  0  0  0  0  0  0  0  0  0
   22.9980    8.3620   31.7300 C   0  0  1  0  0  0  0  0  0  0  0  0
   23.3900    7.3110   30.7740 N   0  0  0  0  0  0  0  0  0  0  0  0
   23.0300    7.7410   29.4680 C   0  0  0  0  0  0  0  0  0  0  0  0
   22.8610    7.0390   28.4690 O   0  0  0  0  0  0  0  0  0  0  0  0
   22.8930    9.2100   29.5140 C   0  0  0  0  0  0  0  0  0  0  0  0
   22.5780    9.9960   28.5640 O   0  0  0  0  0  0  0  0  0  0  0  0
   23.1900    9.5880   30.8860 C   0  0  0  0  0  0  0  0  0  0  0  0
   23.5250   10.7970   31.2600 C   0  0  0  0  0  0  0  0  0  0  0  0
   23.7370   11.0250   32.6170 O   0  0  0  0  0  0  0  0  0  0  0  0
   23.7050   11.9470   30.3800 C   0  0  0  0  0  0  0  0  0  0  0  0
   22.7130   12.9190   30.4300 C   0  0  0  0  0  0  0  0  0  0  0  0
   22.8280   14.0360   29.6520 C   0  0  0  0  0  0  0  0  0  0  0  0
   23.9120   14.2180   28.8140 C   0  0  0  0  0  0  0  0  0  0  0  0
   24.8930   13.2510   28.7680 C   0  0  0  0  0  0  0  0  0  0  0  0
   24.7660   12.1270   29.5600 C   0  0  0  0  0  0  0  0  0  0  0  0
   24.0150   15.6510   27.8450 Cl  0  0  0  0  0  0  0  0  0  0  0  0
   24.0350    6.1000   31.2120 C   0  0  0  0  0  0  0  0  0  0  0  0
   25.3220    5.7760   30.5530 C   0  0  0  0  0  0  0  0  0  0  0  0
   25.3150    4.9360   29.4130 N   0  0  0  0  0  4  0  0  0  0  0  0
   26.0550    3.7040   29.5830 C   0  0  0  0  0  0  0  0  0  0  0  0
   27.1270    3.4910   28.5420 C   0  0  0  0  0  0  0  0  0  0  0  0
   26.7170    3.6790   27.2470 O   0  0  0  0  0  0  0  0  0  0  0  0
   25.9880    4.8380   27.0590 C   0  0  0  0  0  0  0  0  0  0  0  0
   26.0090    5.6480   28.3200 C   0  0  0  0  0  0  0  0  0  0  0  0
   19.3650    5.7600   32.9860 H   0  0  0  0  0  0  0  0  0  0  0  0
   21.6820    6.0570   32.2850 H   0  0  0  0  0  0  0  0  0  0  0  0
   21.1810   10.2470   32.0960 H   0  0  0  0  0  0  0  0  0  0  0  0
   18.7870    9.9250   32.8160 H   0  0  0  0  0  0  0  0  0  0  0  0
   23.7130    8.3590   32.5840 H   0  0  0  0  0  0  0  0  0  0  0  0
   21.8430   12.7870   31.0940 H   0  0  0  0  0  0  0  0  0  0  0  0
   22.0270   14.7730   29.7230 H   0  0  0  0  0  0  0  0  0  0  0  0
   25.7290   13.4210   28.1040 H   0  0  0  0  0  0  0  0  0  0  0  0
   25.5650   11.3800   29.5230 H   0  0  0  0  0  0  0  0  0  0  0  0
   23.3250    5.2480   30.9770 H   0  0  0  0  0  0  0  0  0  0  0  0
   24.0980    6.0540   32.3290 H   0  0  0  0  0  0  0  0  0  0  0  0
   25.8780    6.7340   30.3010 H   0  0  0  0  0  0  0  0  0  0  0  0
   26.0500    5.2930   31.2870 H   0  0  0  0  0  0  0  0  0  0  0  0
   24.3700    4.7630   29.0320 H   0  0  0  0  0  0  0  0  0  0  0  0
   25.3350    2.8640   29.5700 H   0  0  0  0  0  0  0  0  0  0  0  0
   26.5800    3.6640   30.5610 H   0  0  0  0  0  0  0  0  0  0  0  0
   27.4460    2.4210   28.6600 H   0  0  0  0  0  0  0  0  0  0  0  0
   28.0320    4.0850   28.8040 H   0  0  0  0  0  0  0  0  0  0  0  0
   26.3820    5.4630   26.2450 H   0  0  0  0  0  0  0  0  0  0  0  0
   24.9270    4.5920   26.8350 H   0  0  0  0  0  0  0  0  0  0  0  0
   27.0320    5.8520   28.6740 H   0  0  0  0  0  0  0  0  0  0  0  0
   25.5230    6.6370   28.1420 H   0  0  0  0  0  0  0  0  0  0  0  0
  2  1  1  0  0  0  0
  3  2  1  0  0  0  0
  3 32  1  0  0  0  0
  4  3  2  0  0  0  0
  5  6  2  0  0  0  0
  5  4  1  0  0  0  0
  6  7  1  0  0  0  0
  7 35  1  0  0  0  0
  7  2  2  0  0  0  0
  8  5  1  0  0  0  0
  8 36  1  1  0  0  0
  9 24  1  0  0  0  0
  9  8  1  0  0  0  0
 10 12  1  0  0  0  0
 10  9  1  0  0  0  0
 11 10  2  0  0  0  0
 12 14  1  0  0  0  0
 13 12  2  0  0  0  0
 14 15  2  0  0  0  0
 14  8  1  0  0  0  0
 15 16  1  0  0  0  0
 17 18  1  0  0  0  0
 17 15  1  0  0  0  0
 18 37  1  0  0  0  0
 19 38  1  0  0  0  0
 19 18  2  0  0  0  0
 20 19  1  0  0  0  0
 21 20  2  0  0  0  0
 21 22  1  0  0  0  0
 22 17  2  0  0  0  0
 23 20  1  0  0  0  0
 24 42  1  0  0  0  0
 25 24  1  0  0  0  0
 25 44  1  0  0  0  0
 26 27  1  0  0  0  0
 26 25  1  0  0  0  0
 27 47  1  0  0  0  0
 28 48  1  0  0  0  0
 28 49  1  0  0  0  0
 28 27  1  0  0  0  0
 29 28  1  0  0  0  0
 30 29  1  0  0  0  0
 30 31  1  0  0  0  0
 31 52  1  0  0  0  0
 31 26  1  0  0  0  0
 33  4  1  0  0  0  0
 34  6  1  0  0  0  0
 39 21  1  0  0  0  0
 40 22  1  0  0  0  0
 41 24  1  0  0  0  0
 43 25  1  0  0  0  0
 45 26  1  0  0  0  0
 46 27  1  0  0  0  0
 50 30  1  0  0  0  0
 51 30  1  0  0  0  0
 53 31  1  0  0  0  0
M  END
>  <Pose>
1

>  <Score>
-6.33

$$$$
