
 OpenBabel03202209553D

 60 64  0  0  1  0  0  0  0  0999 V2000
   28.1640    2.0510   33.1430 Cl  0  0  0  0  0  0  0  0  0  0  0  0
   26.7460    2.8500   32.4470 C   0  0  0  0  0  0  0  0  0  0  0  0
   26.2050    2.3890   31.2710 C   0  0  0  0  0  0  0  0  0  0  0  0
   25.0920    3.0130   30.7230 C   0  0  0  0  0  0  0  0  0  0  0  0
   24.4780    4.0930   31.2980 C   0  0  0  0  0  0  0  0  0  0  0  0
   25.0520    4.5420   32.4980 C   0  0  0  0  0  0  0  0  0  0  0  0
   26.1560    3.9300   33.0500 C   0  0  0  0  0  0  0  0  0  0  0  0
   23.3520    4.5050   30.4770 C   0  0  1  0  0  0  0  0  0  0  0  0
   22.1370    4.3420   31.2700 N   0  0  0  0  0  0  0  0  0  0  0  0
   21.8110    5.6890   31.6490 C   0  0  1  0  0  0  0  0  0  0  0  0
   22.0340    6.4410   30.3570 C   0  0  2  0  0  0  0  0  0  0  0  0
   23.3910    5.9010   29.9600 C   0  0  1  0  0  0  0  0  0  0  0  0
   24.3390    6.8120   30.5700 C   0  0  0  0  0  0  0  0  0  0  0  0
   25.5620    6.6150   30.7450 O   0  0  0  0  0  0  0  0  0  0  0  0
   23.6600    8.0000   30.9550 N   0  0  0  0  0  0  0  0  0  0  0  0
   22.2810    7.8850   30.5990 C   0  0  0  0  0  0  0  0  0  0  0  0
   21.4040    8.7740   30.4940 O   0  0  0  0  0  0  0  0  0  0  0  0
   24.1950    9.1840   31.6010 C   0  0  0  0  0  0  0  0  0  0  0  0
   24.1060   10.3770   30.7410 C   0  0  0  0  0  0  0  0  0  0  0  0
   25.0280   10.5100   29.7250 C   0  0  0  0  0  0  0  0  0  0  0  0
   24.9390   11.6360   28.9190 C   0  0  0  0  0  0  0  0  0  0  0  0
   23.9750   12.5830   29.1160 C   0  0  0  0  0  0  0  0  0  0  0  0
   23.0720   12.4140   30.1400 C   0  0  0  0  0  0  0  0  0  0  0  0
   23.1080   11.3190   30.9750 C   0  0  0  0  0  0  0  0  0  0  0  0
   25.9930    9.5410   29.5440 O   0  0  0  0  0  0  0  0  0  0  0  0
   27.1840    9.7210   28.8450 C   0  0  0  0  0  0  0  0  0  0  0  0
   20.3820    5.7990   32.1310 C   0  0  0  0  0  0  0  0  0  0  0  0
   20.2510    7.1490   32.8050 C   0  0  0  0  0  0  0  0  0  0  0  0
   18.8510    7.4310   33.2060 C   0  0  0  0  0  0  0  0  0  0  0  0
   18.0690    6.4680   33.4480 O   0  0  0  0  0  0  0  0  0  0  0  0
   18.4600    8.7940   33.2980 N   0  0  0  0  0  0  0  0  0  0  0  0
   23.3360    3.5540   29.3400 C   0  0  0  0  0  0  0  0  0  0  0  0
   22.5240    3.5180   28.3690 O   0  0  0  0  0  0  0  0  0  0  0  0
   24.4130    2.6630   29.5230 N   0  0  0  0  0  0  0  0  0  0  0  0
   26.8370    1.2160   30.6060 C   0  0  0  0  0  0  0  0  0  0  0  0
   24.6200    5.3880   33.0070 H   0  0  0  0  0  0  0  0  0  0  0  0
   26.5730    4.3040   33.9800 H   0  0  0  0  0  0  0  0  0  0  0  0
   22.3230    3.6980   32.0680 H   0  0  0  0  0  0  0  0  0  0  0  0
   22.4430    6.1350   32.4180 H   0  0  0  0  0  0  0  0  0  0  0  0
   21.2550    6.2530   29.6100 H   0  0  0  0  0  0  0  0  0  0  0  0
   23.5060    5.9630   28.8540 H   0  0  0  0  0  0  0  0  0  0  0  0
   23.6620    9.3840   32.5510 H   0  0  0  0  0  0  0  0  0  0  0  0
   25.2480    8.9400   31.8880 H   0  0  0  0  0  0  0  0  0  0  0  0
   25.6570   11.7470   28.1210 H   0  0  0  0  0  0  0  0  0  0  0  0
   23.9430   13.4560   28.4530 H   0  0  0  0  0  0  0  0  0  0  0  0
   22.3060   13.1580   30.3040 H   0  0  0  0  0  0  0  0  0  0  0  0
   22.3850   11.1890   31.7910 H   0  0  0  0  0  0  0  0  0  0  0  0
   27.7150    8.7420   28.8240 H   0  0  0  0  0  0  0  0  0  0  0  0
   27.8340   10.4030   29.4350 H   0  0  0  0  0  0  0  0  0  0  0  0
   26.9930   10.0720   27.8210 H   0  0  0  0  0  0  0  0  0  0  0  0
   20.0960    4.9700   32.7980 H   0  0  0  0  0  0  0  0  0  0  0  0
   19.7450    5.8480   31.2150 H   0  0  0  0  0  0  0  0  0  0  0  0
   20.9540    7.2640   33.6670 H   0  0  0  0  0  0  0  0  0  0  0  0
   20.5520    7.9130   32.0600 H   0  0  0  0  0  0  0  0  0  0  0  0
   18.3790    9.3390   32.4230 H   0  0  0  0  0  0  0  0  0  0  0  0
   18.2750    9.1740   34.2610 H   0  0  0  0  0  0  0  0  0  0  0  0
   24.6580    1.8730   28.8680 H   0  0  0  0  0  0  0  0  0  0  0  0
   27.4250    1.5290   29.7320 H   0  0  0  0  0  0  0  0  0  0  0  0
   27.4760    0.6720   31.3010 H   0  0  0  0  0  0  0  0  0  0  0  0
   26.0550    0.5060   30.2170 H   0  0  0  0  0  0  0  0  0  0  0  0
  2  7  1  0  0  0  0
  2  1  1  0  0  0  0
  3  2  2  0  0  0  0
  4  3  1  0  0  0  0
  4  5  2  0  0  0  0
  5  6  1  0  0  0  0
  6 36  1  0  0  0  0
  6  7  2  0  0  0  0
  7 37  1  0  0  0  0
  8 32  1  6  0  0  0
  8  9  1  0  0  0  0
  8  5  1  0  0  0  0
  9 10  1  0  0  0  0
  9 38  1  0  0  0  0
 10 27  1  0  0  0  0
 10 39  1  1  0  0  0
 11 40  1  6  0  0  0
 11 16  1  0  0  0  0
 11 10  1  0  0  0  0
 12 41  1  6  0  0  0
 12 11  1  0  0  0  0
 12  8  1  0  0  0  0
 12 13  1  0  0  0  0
 13 14  2  0  0  0  0
 13 15  1  0  0  0  0
 15 18  1  0  0  0  0
 16 15  1  0  0  0  0
 17 16  2  0  0  0  0
 18 43  1  0  0  0  0
 18 42  1  0  0  0  0
 19 24  1  0  0  0  0
 19 18  1  0  0  0  0
 20 19  2  0  0  0  0
 21 22  2  0  0  0  0
 21 20  1  0  0  0  0
 22 23  1  0  0  0  0
 23 46  1  0  0  0  0
 23 24  2  0  0  0  0
 24 47  1  0  0  0  0
 25 20  1  0  0  0  0
 26 49  1  0  0  0  0
 26 25  1  0  0  0  0
 27 51  1  0  0  0  0
 27 28  1  0  0  0  0
 28 29  1  0  0  0  0
 28 53  1  0  0  0  0
 29 31  1  0  0  0  0
 29 30  2  0  0  0  0
 31 56  1  0  0  0  0
 32 34  1  0  0  0  0
 33 32  2  0  0  0  0
 34  4  1  0  0  0  0
 35  3  1  0  0  0  0
 35 59  1  0  0  0  0
 44 21  1  0  0  0  0
 45 22  1  0  0  0  0
 48 26  1  0  0  0  0
 50 26  1  0  0  0  0
 52 27  1  0  0  0  0
 54 28  1  0  0  0  0
 55 31  1  0  0  0  0
 57 34  1  0  0  0  0
 58 35  1  0  0  0  0
 60 35  1  0  0  0  0
M  END
>  <Pose>
1

>  <Score>
-5.96

$$$$
