
 OpenBabel03202209553D

 44 47  0  0  0  0  0  0  0  0999 V2000
   25.9020    5.5240   28.5560 S   0  0  0  0  0  0  0  0  0  0  0  0
   25.1760    4.8360   27.5110 O   0  0  0  0  0  0  0  0  0  0  0  0
   26.6680    4.5750   29.4270 O   0  0  0  0  0  0  0  0  0  0  0  0
   27.0840    6.7350   27.9140 C   0  0  0  0  0  0  0  0  0  0  0  0
   24.8300    6.4410   29.6320 C   0  0  0  0  0  0  0  0  0  0  0  0
   25.3310    7.5030   30.2720 N   0  0  0  0  0  0  0  0  0  0  0  0
   24.6200    8.3150   31.0490 C   0  0  0  0  0  0  0  0  0  0  0  0
   23.2520    8.0310   31.1880 C   0  0  0  0  0  0  0  0  0  0  0  0
   22.7520    6.9580   30.5400 C   0  0  0  0  0  0  0  0  0  0  0  0
   23.5460    6.1650   29.7660 N   0  0  0  0  0  0  0  0  0  0  0  0
   21.4040    6.6680   30.6860 O   0  0  0  0  0  0  0  0  0  0  0  0
   22.4860    9.0320   31.9350 C   0  0  0  0  0  0  0  0  0  0  0  0
   22.8270   10.2920   31.3510 N   0  0  0  0  0  0  0  0  0  0  0  0
   24.1780   10.6050   31.9980 C   0  0  0  0  0  0  0  0  0  0  0  0
   25.1560    9.5100   31.7530 C   0  0  0  0  0  0  0  0  0  0  0  0
   23.2350   10.2860   29.8990 C   0  0  0  0  0  0  0  0  0  0  0  0
   23.1820   11.7920   29.6290 C   0  0  0  0  0  0  0  0  0  0  0  0
   22.4370   12.6830   30.2980 C   0  0  0  0  0  0  0  0  0  0  0  0
   22.4210   14.0760   30.0130 C   0  0  0  0  0  0  0  0  0  0  0  0
   23.2620   14.4610   28.9650 C   0  0  0  0  0  0  0  0  0  0  0  0
   23.2890   15.7870   28.6470 C   0  0  0  0  0  0  0  0  0  0  0  0
   22.5280   16.7790   29.3030 C   0  0  0  0  0  0  0  0  0  0  0  0
   21.7010   16.3430   30.3550 C   0  0  0  0  0  0  0  0  0  0  0  0
   21.6850   15.0110   30.6590 C   0  0  0  0  0  0  0  0  0  0  0  0
   23.9910   13.6130   28.3250 O   0  0  0  0  0  0  0  0  0  0  0  0
   23.9840   12.3020   28.6110 C   0  0  0  0  0  0  0  0  0  0  0  0
   24.7110   11.4630   27.9530 O   0  0  0  0  0  0  0  0  0  0  0  0
   21.4800   12.1190   31.6250 Cl  0  0  0  0  0  0  0  0  0  0  0  0
   27.3170    7.4530   28.7790 H   0  0  0  0  0  0  0  0  0  0  0  0
   26.5470    7.3600   27.1420 H   0  0  0  0  0  0  0  0  0  0  0  0
   27.9800    6.2660   27.5040 H   0  0  0  0  0  0  0  0  0  0  0  0
   20.9660    5.8030   30.3520 H   0  0  0  0  0  0  0  0  0  0  0  0
   21.4010    8.8140   32.0640 H   0  0  0  0  0  0  0  0  0  0  0  0
   22.9450    9.0580   33.0080 H   0  0  0  0  0  0  0  0  0  0  0  0
   24.4800   11.5990   31.5400 H   0  0  0  0  0  0  0  0  0  0  0  0
   23.9310   10.7410   33.0460 H   0  0  0  0  0  0  0  0  0  0  0  0
   25.9670    9.9840   31.1040 H   0  0  0  0  0  0  0  0  0  0  0  0
   25.6500    9.2420   32.6880 H   0  0  0  0  0  0  0  0  0  0  0  0
   24.2350    9.9290   29.7530 H   0  0  0  0  0  0  0  0  0  0  0  0
   22.4180    9.7870   29.3700 H   0  0  0  0  0  0  0  0  0  0  0  0
   23.9380   16.1940   27.8740 H   0  0  0  0  0  0  0  0  0  0  0  0
   22.5650   17.8450   29.0040 H   0  0  0  0  0  0  0  0  0  0  0  0
   21.1660   17.0930   30.8510 H   0  0  0  0  0  0  0  0  0  0  0  0
   20.9880   14.6270   31.4200 H   0  0  0  0  0  0  0  0  0  0  0  0
  1  3  2  0  0  0  0
  1  5  1  0  0  0  0
  2  1  2  0  0  0  0
  4  1  1  0  0  0  0
  4 29  1  0  0  0  0
  5 10  1  0  0  0  0
  5  6  2  0  0  0  0
  6  7  1  0  0  0  0
  7  8  2  0  0  0  0
  7 15  1  0  0  0  0
  8 12  1  0  0  0  0
  9 11  1  0  0  0  0
  9  8  1  0  0  0  0
 10  9  2  0  0  0  0
 12 33  1  0  0  0  0
 12 34  1  0  0  0  0
 13 12  1  0  0  0  0
 13 14  1  0  0  0  0
 14 36  1  0  0  0  0
 15 14  1  0  0  0  0
 15 38  1  0  0  0  0
 16 13  1  0  0  0  0
 17 16  1  0  0  0  0
 17 18  2  0  0  0  0
 18 28  1  0  0  0  0
 19 18  1  0  0  0  0
 19 24  1  0  0  0  0
 20 19  2  0  0  0  0
 21 20  1  0  0  0  0
 21 22  2  0  0  0  0
 22 23  1  0  0  0  0
 23 24  2  0  0  0  0
 23 43  1  0  0  0  0
 24 44  1  0  0  0  0
 25 26  1  0  0  0  0
 25 20  1  0  0  0  0
 26 17  1  0  0  0  0
 27 26  2  0  0  0  0
 30  4  1  0  0  0  0
 31  4  1  0  0  0  0
 32 11  1  0  0  0  0
 35 14  1  0  0  0  0
 37 15  1  0  0  0  0
 39 16  1  0  0  0  0
 40 16  1  0  0  0  0
 41 21  1  0  0  0  0
 42 22  1  0  0  0  0
M  END
>  <Pose>
1

>  <Score>
-5.88

$$$$
