
 OpenBabel03202209553D

 63 66  0  0  0  0  0  0  0  0999 V2000
   21.6100    5.5960   31.3490 S   0  0  0  0  0  0  0  0  0  0  0  0
   20.4570    5.1670   30.5020 O   0  0  0  0  0  0  0  0  0  0  0  0
   21.6960    4.8000   32.6270 O   0  0  0  0  0  0  0  0  0  0  0  0
   23.1370    5.4090   30.5110 C   0  0  0  0  0  0  0  0  0  0  0  0
   23.9750    4.3330   30.7680 C   0  0  0  0  0  0  0  0  0  0  0  0
   25.1540    4.2220   30.0980 N   0  0  0  0  0  0  0  0  0  0  0  0
   25.5550    5.1170   29.1850 C   0  0  0  0  0  0  0  0  0  0  0  0
   24.7480    6.1610   28.9310 N   0  0  0  0  0  0  0  0  0  0  0  0
   23.5740    6.3140   29.5670 C   0  0  0  0  0  0  0  0  0  0  0  0
   26.7940    5.0020   28.4870 N   0  0  0  0  0  0  0  0  0  0  0  0
   26.8560    4.7940   27.0610 C   0  0  0  0  0  0  0  0  0  0  0  0
   27.6900    5.8040   26.3240 C   0  0  0  0  0  0  0  0  0  0  0  0
   28.7440    6.4400   27.2150 C   0  0  0  0  0  0  0  0  0  0  0  0
   29.1340    5.3030   28.1760 C   0  0  0  0  0  0  0  0  0  0  0  0
   28.0610    5.0860   29.1900 C   0  0  0  0  0  0  0  0  0  0  0  0
   28.3140    7.5280   27.9540 N   0  0  0  0  0  0  0  0  0  0  0  0
   27.8510    8.7130   27.3430 C   0  0  0  0  0  0  0  0  0  0  0  0
   26.7740    9.3100   28.2650 C   0  0  0  0  0  0  0  0  0  0  0  0
   27.0200    8.7960   29.6570 C   0  0  0  0  0  0  0  0  0  0  0  0
   28.4870    8.7330   30.0000 C   0  0  0  0  0  0  0  0  0  0  0  0
   29.2520    7.9200   28.9700 C   0  0  0  0  0  0  0  0  0  0  0  0
   29.9440    6.6930   26.3860 C   0  0  0  0  0  0  0  0  0  0  0  0
   30.3530    5.8200   25.5470 O   0  0  0  0  0  0  0  0  0  0  0  0
   30.6970    7.8700   26.4580 N   0  0  0  0  0  0  0  0  0  0  0  0
   23.5500    3.3970   31.7280 N   0  0  0  0  0  0  0  0  0  0  0  0
   21.4450    7.3020   31.7910 C   0  0  0  0  0  0  0  0  0  0  0  0
   20.4570    7.6940   32.6720 C   0  0  0  0  0  0  0  0  0  0  0  0
   20.3660    9.0330   32.9880 C   0  0  0  0  0  0  0  0  0  0  0  0
   21.2350    9.9730   32.4440 C   0  0  0  0  0  0  0  0  0  0  0  0
   22.2090    9.5410   31.5690 C   0  0  0  0  0  0  0  0  0  0  0  0
   22.3260    8.2080   31.2330 C   0  0  0  0  0  0  0  0  0  0  0  0
   23.3230   10.7230   30.8680 Cl  0  0  0  0  0  0  0  0  0  0  0  0
   19.6210    6.7430   33.1850 O   0  0  0  0  0  0  0  0  0  0  0  0
   18.2590    6.9200   33.4570 C   0  0  0  0  0  0  0  0  0  0  0  0
   22.9110    7.1680   29.3600 H   0  0  0  0  0  0  0  0  0  0  0  0
   27.2720    3.7480   26.9360 H   0  0  0  0  0  0  0  0  0  0  0  0
   25.8370    4.7210   26.6090 H   0  0  0  0  0  0  0  0  0  0  0  0
   28.2530    5.2320   25.5530 H   0  0  0  0  0  0  0  0  0  0  0  0
   27.1000    6.5540   25.7720 H   0  0  0  0  0  0  0  0  0  0  0  0
   30.1530    5.3830   28.5500 H   0  0  0  0  0  0  0  0  0  0  0  0
   29.1420    4.3570   27.5440 H   0  0  0  0  0  0  0  0  0  0  0  0
   28.0020    5.8260   29.9980 H   0  0  0  0  0  0  0  0  0  0  0  0
   28.1820    4.0600   29.6620 H   0  0  0  0  0  0  0  0  0  0  0  0
   28.6530    9.5120   27.3540 H   0  0  0  0  0  0  0  0  0  0  0  0
   27.4030    8.6370   26.3640 H   0  0  0  0  0  0  0  0  0  0  0  0
   26.7890   10.4230   28.2260 H   0  0  0  0  0  0  0  0  0  0  0  0
   25.7710    8.9390   27.9010 H   0  0  0  0  0  0  0  0  0  0  0  0
   26.6140    7.7520   29.7430 H   0  0  0  0  0  0  0  0  0  0  0  0
   26.5470    9.4460   30.4320 H   0  0  0  0  0  0  0  0  0  0  0  0
   28.5620    8.2630   31.0140 H   0  0  0  0  0  0  0  0  0  0  0  0
   28.8710    9.7600   30.1210 H   0  0  0  0  0  0  0  0  0  0  0  0
   29.8650    7.1450   29.4070 H   0  0  0  0  0  0  0  0  0  0  0  0
   29.9390    8.6810   28.4830 H   0  0  0  0  0  0  0  0  0  0  0  0
   31.2250    8.0710   27.3500 H   0  0  0  0  0  0  0  0  0  0  0  0
   30.8050    8.5860   25.7120 H   0  0  0  0  0  0  0  0  0  0  0  0
   22.5640    3.0770   31.8250 H   0  0  0  0  0  0  0  0  0  0  0  0
   24.2490    2.9930   32.3850 H   0  0  0  0  0  0  0  0  0  0  0  0
   19.6020    9.3850   33.6770 H   0  0  0  0  0  0  0  0  0  0  0  0
   21.1260   11.0030   32.7200 H   0  0  0  0  0  0  0  0  0  0  0  0
   23.1100    7.8810   30.5330 H   0  0  0  0  0  0  0  0  0  0  0  0
   17.6910    6.8690   32.5140 H   0  0  0  0  0  0  0  0  0  0  0  0
   17.9120    6.0500   34.0760 H   0  0  0  0  0  0  0  0  0  0  0  0
   18.0310    7.8210   34.0500 H   0  0  0  0  0  0  0  0  0  0  0  0
  1 26  1  0  0  0  0
  1  3  2  0  0  0  0
  2  1  2  0  0  0  0
  4  5  2  0  0  0  0
  4  1  1  0  0  0  0
  5 25  1  0  0  0  0
  6  5  1  0  0  0  0
  7  6  2  0  0  0  0
  8  7  1  0  0  0  0
  8  9  2  0  0  0  0
  9  4  1  0  0  0  0
 10  7  1  0  0  0  0
 10 15  1  0  0  0  0
 11 10  1  0  0  0  0
 12 11  1  0  0  0  0
 12 13  1  0  0  0  0
 13 16  1  0  0  0  0
 13 14  1  0  0  0  0
 14 40  1  0  0  0  0
 14 15  1  0  0  0  0
 15 43  1  0  0  0  0
 15 42  1  0  0  0  0
 16 21  1  0  0  0  0
 17 44  1  0  0  0  0
 17 16  1  0  0  0  0
 17 18  1  0  0  0  0
 18 19  1  0  0  0  0
 19 48  1  0  0  0  0
 19 20  1  0  0  0  0
 19 49  1  0  0  0  0
 20 51  1  0  0  0  0
 20 50  1  0  0  0  0
 21 52  1  0  0  0  0
 21 20  1  0  0  0  0
 22 24  1  0  0  0  0
 22 13  1  0  0  0  0
 23 22  2  0  0  0  0
 24 54  1  0  0  0  0
 25 56  1  0  0  0  0
 25 57  1  0  0  0  0
 26 27  1  0  0  0  0
 27 28  2  0  0  0  0
 27 33  1  0  0  0  0
 28 58  1  0  0  0  0
 29 59  1  0  0  0  0
 29 28  1  0  0  0  0
 30 29  2  0  0  0  0
 31 30  1  0  0  0  0
 31 26  2  0  0  0  0
 32 30  1  0  0  0  0
 33 34  1  0  0  0  0
 34 63  1  0  0  0  0
 34 62  1  0  0  0  0
 35  9  1  0  0  0  0
 36 11  1  0  0  0  0
 37 11  1  0  0  0  0
 38 12  1  0  0  0  0
 39 12  1  0  0  0  0
 41 14  1  0  0  0  0
 45 17  1  0  0  0  0
 46 18  1  0  0  0  0
 47 18  1  0  0  0  0
 53 21  1  0  0  0  0
 55 24  1  0  0  0  0
 60 31  1  0  0  0  0
 61 34  1  0  0  0  0
M  END
>  <Pose>
1

>  <Score>
-5.64

$$$$
