
 OpenBabel03202209553D

 61 64  0  0  1  0  0  0  0  0999 V2000
   21.4290   16.1800   31.6900 B   0  0  0  0  0  0  0  0  0  0  0  0
   22.0290   14.3490   31.6590 C   0  0  0  0  0  0  0  0  0  0  0  0
   21.1510   13.3090   31.8260 C   0  0  0  0  0  0  0  0  0  0  0  0
   21.5310   11.9710   31.8130 C   0  0  0  0  0  0  0  0  0  0  0  0
   22.8610   11.6720   31.6210 C   0  0  0  0  0  0  0  0  0  0  0  0
   23.7390   12.7320   31.4540 C   0  0  0  0  0  0  0  0  0  0  0  0
   23.3620   14.0540   31.4670 C   0  0  0  0  0  0  0  0  0  0  0  0
   23.3410   10.2990   31.5620 C   0  0  0  0  0  0  0  0  0  0  0  0
   23.8510    9.8640   32.6520 O   0  0  0  0  0  0  0  0  0  0  0  0
   23.2870    9.4210   30.3920 C   0  0  2  0  0  0  0  0  0  0  0  0
   23.1020    7.9600   30.7040 C   0  0  1  0  0  0  0  0  0  0  0  0
   24.3740    7.4130   30.8720 N   0  0  0  0  0  0  0  0  0  0  0  0
   25.1400    8.0930   29.8000 C   0  0  0  0  0  0  0  0  0  0  0  0
   26.1010    7.6190   29.1350 O   0  0  0  0  0  0  0  0  0  0  0  0
   24.5730    9.4240   29.6600 C   0  0  0  0  0  0  0  0  0  0  0  0
   25.0980   10.3840   29.0260 O   0  0  0  0  0  0  0  0  0  0  0  0
   25.0760    6.4010   31.5980 C   0  0  0  0  0  0  0  0  0  0  0  0
   25.5150    5.2040   30.8430 C   0  0  0  0  0  0  0  0  0  0  0  0
   26.8520    4.7850   30.8090 N   0  0  0  0  0  4  0  0  0  0  0  0
   27.1040    3.6080   31.6500 C   0  0  0  0  0  0  0  0  0  0  0  0
   26.3590    2.4000   31.1920 C   0  0  0  0  0  0  0  0  0  0  0  0
   25.7650    2.6520   29.9770 O   0  0  0  0  0  0  0  0  0  0  0  0
   26.7690    3.0720   29.0890 C   0  0  0  0  0  0  0  0  0  0  0  0
   27.2400    4.4720   29.4220 C   0  0  0  0  0  0  0  0  0  0  0  0
   21.9140    7.6200   31.4450 C   0  0  0  0  0  0  0  0  0  0  0  0
   21.1190    8.4960   32.1150 C   0  0  0  0  0  0  0  0  0  0  0  0
   19.9820    8.0690   32.7840 C   0  0  0  0  0  0  0  0  0  0  0  0
   19.6510    6.7050   32.7670 C   0  0  0  0  0  0  0  0  0  0  0  0
   20.4510    5.8270   32.0930 C   0  0  0  0  0  0  0  0  0  0  0  0
   21.5650    6.2480   31.4360 C   0  0  0  0  0  0  0  0  0  0  0  0
   18.5310    6.2270   33.4170 O   0  0  0  0  0  0  0  0  0  0  0  0
   19.1680    8.9190   33.4600 O   0  0  0  0  0  0  0  0  0  0  0  0
   19.1730   10.3010   33.3020 C   0  0  0  0  0  0  0  0  0  0  0  0
   18.6710   10.7630   31.9460 C   0  0  0  0  0  0  0  0  0  0  0  0
   20.0910   13.5260   31.9790 H   0  0  0  0  0  0  0  0  0  0  0  0
   20.7710   11.2180   31.9740 H   0  0  0  0  0  0  0  0  0  0  0  0
   24.8140   12.5500   31.2970 H   0  0  0  0  0  0  0  0  0  0  0  0
   24.0650   14.8690   31.3360 H   0  0  0  0  0  0  0  0  0  0  0  0
   22.4680    9.7650   29.6810 H   0  0  0  0  0  0  0  0  0  0  0  0
   22.8520    7.5560   29.5740 H   0  0  0  0  0  0  0  0  0  0  0  0
   26.0010    6.8180   32.0930 H   0  0  0  0  0  0  0  0  0  0  0  0
   24.3810    6.0310   32.4100 H   0  0  0  0  0  0  0  0  0  0  0  0
   25.1700    5.2750   29.7470 H   0  0  0  0  0  0  0  0  0  0  0  0
   24.8880    4.2910   31.1660 H   0  0  0  0  0  0  0  0  0  0  0  0
   27.4990    5.5050   31.1210 H   0  0  0  0  0  0  0  0  0  0  0  0
   26.9320    3.8970   32.6930 H   0  0  0  0  0  0  0  0  0  0  0  0
   28.1970    3.4070   31.5380 H   0  0  0  0  0  0  0  0  0  0  0  0
   27.0410    1.5300   31.0690 H   0  0  0  0  0  0  0  0  0  0  0  0
   25.5630    2.1920   31.9470 H   0  0  0  0  0  0  0  0  0  0  0  0
   27.6350    2.4070   29.0820 H   0  0  0  0  0  0  0  0  0  0  0  0
   26.2850    3.1240   28.0870 H   0  0  0  0  0  0  0  0  0  0  0  0
   28.3310    4.6010   29.3070 H   0  0  0  0  0  0  0  0  0  0  0  0
   26.7520    5.2490   28.7990 H   0  0  0  0  0  0  0  0  0  0  0  0
   21.3420    9.5660   32.1850 H   0  0  0  0  0  0  0  0  0  0  0  0
   20.1880    4.7570   32.0810 H   0  0  0  0  0  0  0  0  0  0  0  0
   22.1780    5.5230   30.9110 H   0  0  0  0  0  0  0  0  0  0  0  0
   18.5590   10.8080   34.0840 H   0  0  0  0  0  0  0  0  0  0  0  0
   20.2010   10.7260   33.4220 H   0  0  0  0  0  0  0  0  0  0  0  0
   17.6400   11.1870   32.0800 H   0  0  0  0  0  0  0  0  0  0  0  0
   19.3150   11.5680   31.5650 H   0  0  0  0  0  0  0  0  0  0  0  0
   18.5940    9.9440   31.2320 H   0  0  0  0  0  0  0  0  0  0  0  0
  2  1  1  0  0  0  0
  2  3  1  0  0  0  0
  3 35  1  0  0  0  0
  4  3  2  0  0  0  0
  4 36  1  0  0  0  0
  5  4  1  0  0  0  0
  6  7  1  0  0  0  0
  6  5  2  0  0  0  0
  7  2  2  0  0  0  0
  8  5  1  0  0  0  0
  8  9  2  0  0  0  0
 10 39  1  6  0  0  0
 10 11  1  0  0  0  0
 10  8  1  0  0  0  0
 11 40  1  6  0  0  0
 11 12  1  0  0  0  0
 11 25  1  0  0  0  0
 12 17  1  0  0  0  0
 13 12  1  0  0  0  0
 14 13  2  0  0  0  0
 15 13  1  0  0  0  0
 15 10  1  0  0  0  0
 16 15  2  0  0  0  0
 17 41  1  0  0  0  0
 17 42  1  0  0  0  0
 18 44  1  0  0  0  0
 18 17  1  0  0  0  0
 19 18  1  0  0  0  0
 19 45  1  0  0  0  0
 19 20  1  0  0  0  0
 20 46  1  0  0  0  0
 21 20  1  0  0  0  0
 21 49  1  0  0  0  0
 22 21  1  0  0  0  0
 23 24  1  0  0  0  0
 23 22  1  0  0  0  0
 24 19  1  0  0  0  0
 25 26  1  0  0  0  0
 26 54  1  0  0  0  0
 26 27  2  0  0  0  0
 27 32  1  0  0  0  0
 28 27  1  0  0  0  0
 28 31  1  0  0  0  0
 29 28  2  0  0  0  0
 30 25  2  0  0  0  0
 30 29  1  0  0  0  0
 33 58  1  0  0  0  0
 33 32  1  0  0  0  0
 33 57  1  0  0  0  0
 34 59  1  0  0  0  0
 34 33  1  0  0  0  0
 37  6  1  0  0  0  0
 38  7  1  0  0  0  0
 43 18  1  0  0  0  0
 47 20  1  0  0  0  0
 48 21  1  0  0  0  0
 50 23  1  0  0  0  0
 51 23  1  0  0  0  0
 52 24  1  0  0  0  0
 53 24  1  0  0  0  0
 55 29  1  0  0  0  0
 56 30  1  0  0  0  0
 60 34  1  0  0  0  0
 61 34  1  0  0  0  0
M  END
>  <Pose>
1

>  <Score>
-6.98

$$$$
