
 OpenBabel03202209553D

 37 40  0  0  0  0  0  0  0  0999 V2000
   22.5420    5.0840   31.2430 B   0  0  0  0  0  0  0  0  0  0  0  0
   21.2770    6.3930   31.8280 C   0  0  0  0  0  0  0  0  0  0  0  0
   20.0390    6.0110   32.2980 C   0  0  0  0  0  0  0  0  0  0  0  0
   19.1150    6.9360   32.7240 C   0  0  0  0  0  0  0  0  0  0  0  0
   17.8570    6.8550   33.2200 N   0  0  0  0  0  0  0  0  0  0  0  0
   17.4460    8.0870   33.4600 N   0  0  0  0  0  0  0  0  0  0  0  0
   18.3580    8.9660   33.1500 N   0  0  0  0  0  0  0  0  0  0  0  0
   19.4300    8.2730   32.6800 C   0  0  0  0  0  0  0  0  0  0  0  0
   20.6710    8.6630   32.2080 C   0  0  0  0  0  0  0  0  0  0  0  0
   21.5980    7.7250   31.7810 C   0  0  0  0  0  0  0  0  0  0  0  0
   20.9800   10.0880   32.1720 C   0  0  0  0  0  0  0  0  0  0  0  0
   20.4900   10.8270   33.0480 O   0  0  0  0  0  0  0  0  0  0  0  0
   21.8140   10.6630   31.1810 N   0  0  0  0  0  0  0  0  0  0  0  0
   22.9830   11.4300   31.5360 C   0  0  0  0  0  0  0  0  0  0  0  0
   22.9730   12.7200   30.7610 C   0  0  0  0  0  0  0  0  0  0  0  0
   22.3240   13.8510   31.0810 N   0  0  0  0  0  0  0  0  0  0  0  0
   22.5450   14.8060   30.1520 C   0  0  0  0  0  0  0  0  0  0  0  0
   23.3510   14.2510   29.2380 N   0  0  0  0  0  0  0  0  0  0  0  0
   23.6110   12.9870   29.6050 N   0  0  0  0  0  0  0  0  0  0  0  0
   21.8810   16.1180   30.3840 C   0  0  0  0  0  0  0  0  0  0  0  0
   22.3150   16.5290   31.7980 C   0  0  0  0  0  0  0  0  0  0  0  0
   22.0180   15.4780   32.8170 C   0  0  0  0  0  0  0  0  0  0  0  0
   21.4690   14.2160   32.1880 C   0  0  0  0  0  0  0  0  0  0  0  0
   19.7860    4.9620   32.3350 H   0  0  0  0  0  0  0  0  0  0  0  0
   18.3680   10.0050   33.2100 H   0  0  0  0  0  0  0  0  0  0  0  0
   22.5570    8.0830   31.4200 H   0  0  0  0  0  0  0  0  0  0  0  0
   21.5850   10.5330   30.1820 H   0  0  0  0  0  0  0  0  0  0  0  0
   23.0770   11.5870   32.6100 H   0  0  0  0  0  0  0  0  0  0  0  0
   23.8720   10.8460   31.1730 H   0  0  0  0  0  0  0  0  0  0  0  0
   20.7910   16.0230   30.3100 H   0  0  0  0  0  0  0  0  0  0  0  0
   22.3020   16.9120   29.7160 H   0  0  0  0  0  0  0  0  0  0  0  0
   23.4130   16.6570   31.7340 H   0  0  0  0  0  0  0  0  0  0  0  0
   21.8830   17.5110   32.0700 H   0  0  0  0  0  0  0  0  0  0  0  0
   21.3370   15.8400   33.6250 H   0  0  0  0  0  0  0  0  0  0  0  0
   22.9520   15.1860   33.3380 H   0  0  0  0  0  0  0  0  0  0  0  0
   20.4700   14.4610   31.7610 H   0  0  0  0  0  0  0  0  0  0  0  0
   21.3900   13.3920   32.9050 H   0  0  0  0  0  0  0  0  0  0  0  0
  1  2  1  0  0  0  0
  2  3  1  0  0  0  0
  3 24  1  0  0  0  0
  3  4  2  0  0  0  0
  4  5  1  0  0  0  0
  5  6  2  0  0  0  0
  7 25  1  0  0  0  0
  7  6  1  0  0  0  0
  8  4  1  0  0  0  0
  8  7  1  0  0  0  0
  9  8  2  0  0  0  0
 10  2  2  0  0  0  0
 10  9  1  0  0  0  0
 11  9  1  0  0  0  0
 11 12  2  0  0  0  0
 13 14  1  0  0  0  0
 13 11  1  0  0  0  0
 14 28  1  0  0  0  0
 15 16  1  0  0  0  0
 15 14  1  0  0  0  0
 16 23  1  0  0  0  0
 17 20  1  0  0  0  0
 17 16  1  0  0  0  0
 18 19  1  0  0  0  0
 18 17  2  0  0  0  0
 19 15  2  0  0  0  0
 20 21  1  0  0  0  0
 21 33  1  0  0  0  0
 21 22  1  0  0  0  0
 22 35  1  0  0  0  0
 22 34  1  0  0  0  0
 23 22  1  0  0  0  0
 23 37  1  0  0  0  0
 26 10  1  0  0  0  0
 27 13  1  0  0  0  0
 29 14  1  0  0  0  0
 30 20  1  0  0  0  0
 31 20  1  0  0  0  0
 32 21  1  0  0  0  0
 36 23  1  0  0  0  0
M  END
>  <Pose>
1

>  <Score>
-6.82

$$$$
