
 OpenBabel03202209553D

 55 58  0  0  1  0  0  0  0  0999 V2000
   27.3510    5.0040   28.0400 Cl  0  0  0  0  0  0  0  0  0  0  0  0
   26.0050    4.9040   29.1520 C   0  0  0  0  0  0  0  0  0  0  0  0
   24.9810    5.8340   29.1620 C   0  0  0  0  0  0  0  0  0  0  0  0
   23.9270    5.7470   30.0400 C   0  0  0  0  0  0  0  0  0  0  0  0
   22.8380    6.4980   30.2480 N   0  0  0  0  0  0  0  0  0  0  0  0
   22.0850    5.9790   31.2570 C   0  0  0  0  0  0  0  0  0  0  0  0
   22.7440    4.9000   31.6520 N   0  0  0  0  0  0  0  0  0  0  0  0
   23.8640    4.7180   30.9470 C   0  0  0  0  0  0  0  0  0  0  0  0
   24.8720    3.7790   30.9580 C   0  0  0  0  0  0  0  0  0  0  0  0
   25.9360    3.8700   30.0680 C   0  0  0  0  0  0  0  0  0  0  0  0
   20.8060    6.5540   31.7380 C   0  0  0  0  0  0  0  0  0  0  0  0
   20.7280    7.9910   31.3110 C   0  0  0  0  0  0  0  0  0  0  0  0
   21.8070    8.7560   31.9590 C   0  0  0  0  0  0  0  0  0  0  0  0
   21.9330    8.7540   33.2100 O   0  0  0  0  0  0  0  0  0  0  0  0
   22.7020    9.5000   31.1340 N   0  0  0  0  0  0  0  0  0  0  0  0
   23.9080   10.1340   31.6180 C   0  0  0  0  0  0  0  0  0  0  0  0
   24.1330   11.4760   30.9000 C   0  0  1  0  0  0  0  0  0  0  0  0
   22.7880   11.9550   30.4730 C   0  0  2  0  0  0  0  0  0  0  0  0
   22.2950   11.0990   29.3290 C   0  0  0  0  0  0  0  0  0  0  0  0
   22.3990    9.6410   29.7260 C   0  0  0  0  0  0  0  0  0  0  0  0
   22.6680   13.3490   30.2300 N   0  0  0  0  0  0  0  0  0  0  0  0
   23.2780   13.9830   29.2180 C   0  0  0  0  0  0  0  0  0  0  0  0
   23.1380   15.3500   29.0110 C   0  0  0  0  0  0  0  0  0  0  0  0
   22.3480   16.0780   29.8700 C   0  0  0  0  0  0  0  0  0  0  0  0
   22.2160   17.3280   29.6850 O   0  0  0  0  0  0  0  0  0  0  0  0
   21.7400   15.4410   30.8810 N   0  0  0  0  0  0  0  0  0  0  0  0
   21.9070   14.1170   31.0380 C   0  0  0  0  0  0  0  0  0  0  0  0
   21.3230   13.5130   32.0060 O   0  0  0  0  0  0  0  0  0  0  0  0
   23.8460   16.0050   27.8580 C   0  0  0  0  0  0  0  0  0  0  0  0
   24.7180   12.3120   31.8630 O   0  0  0  0  0  0  0  0  0  0  0  0
   25.1050   11.2190   29.7930 C   0  0  0  0  0  0  0  0  0  0  0  0
   25.0600    6.6330   28.4360 H   0  0  0  0  0  0  0  0  0  0  0  0
   22.5690    7.3740   29.7230 H   0  0  0  0  0  0  0  0  0  0  0  0
   24.8060    2.9810   31.6740 H   0  0  0  0  0  0  0  0  0  0  0  0
   26.7050    3.1150   30.1090 H   0  0  0  0  0  0  0  0  0  0  0  0
   20.7950    6.5560   32.8580 H   0  0  0  0  0  0  0  0  0  0  0  0
   19.9280    6.0130   31.3270 H   0  0  0  0  0  0  0  0  0  0  0  0
   20.8090    8.0600   30.1960 H   0  0  0  0  0  0  0  0  0  0  0  0
   19.7170    8.4150   31.5300 H   0  0  0  0  0  0  0  0  0  0  0  0
   23.9020   10.2550   32.7000 H   0  0  0  0  0  0  0  0  0  0  0  0
   24.7500    9.4200   31.3760 H   0  0  0  0  0  0  0  0  0  0  0  0
   22.0870   11.7230   31.3320 H   0  0  0  0  0  0  0  0  0  0  0  0
   21.2020   11.2780   29.1340 H   0  0  0  0  0  0  0  0  0  0  0  0
   22.7980   11.3050   28.3720 H   0  0  0  0  0  0  0  0  0  0  0  0
   21.4890    9.0670   29.4630 H   0  0  0  0  0  0  0  0  0  0  0  0
   23.2810    9.2030   29.1710 H   0  0  0  0  0  0  0  0  0  0  0  0
   23.8890   13.3950   28.5610 H   0  0  0  0  0  0  0  0  0  0  0  0
   21.1390   15.9810   31.5370 H   0  0  0  0  0  0  0  0  0  0  0  0
   24.0740   17.0590   28.1860 H   0  0  0  0  0  0  0  0  0  0  0  0
   24.8180   15.4970   27.7620 H   0  0  0  0  0  0  0  0  0  0  0  0
   23.2320   16.0080   26.9550 H   0  0  0  0  0  0  0  0  0  0  0  0
   25.3810   12.9210   31.4060 H   0  0  0  0  0  0  0  0  0  0  0  0
   25.4190   10.1360   29.7270 H   0  0  0  0  0  0  0  0  0  0  0  0
   26.0830   11.7540   29.9720 H   0  0  0  0  0  0  0  0  0  0  0  0
   24.7800   11.5150   28.7980 H   0  0  0  0  0  0  0  0  0  0  0  0
  1  2  1  0  0  0  0
  2  3  2  0  0  0  0
  2 10  1  0  0  0  0
  3  4  1  0  0  0  0
  4  5  1  0  0  0  0
  4  8  2  0  0  0  0
  5  6  1  0  0  0  0
  6  7  2  0  0  0  0
  6 11  1  0  0  0  0
  8  9  1  0  0  0  0
  8  7  1  0  0  0  0
  9 34  1  0  0  0  0
 10 35  1  0  0  0  0
 10  9  2  0  0  0  0
 11 36  1  0  0  0  0
 12 39  1  0  0  0  0
 12 11  1  0  0  0  0
 12 13  1  0  0  0  0
 13 14  2  0  0  0  0
 15 16  1  0  0  0  0
 15 13  1  0  0  0  0
 16 40  1  0  0  0  0
 17 16  1  0  0  0  0
 17 30  1  1  0  0  0
 18 17  1  0  0  0  0
 18 42  1  1  0  0  0
 19 20  1  0  0  0  0
 19 18  1  0  0  0  0
 20 15  1  0  0  0  0
 21 18  1  0  0  0  0
 21 27  1  0  0  0  0
 22 21  1  0  0  0  0
 23 22  2  0  0  0  0
 23 24  1  0  0  0  0
 24 26  1  0  0  0  0
 25 24  2  0  0  0  0
 26 27  1  0  0  0  0
 26 48  1  0  0  0  0
 27 28  2  0  0  0  0
 29 49  1  0  0  0  0
 29 23  1  0  0  0  0
 31 54  1  0  0  0  0
 31 17  1  0  0  0  0
 32  3  1  0  0  0  0
 33  5  1  0  0  0  0
 37 11  1  0  0  0  0
 38 12  1  0  0  0  0
 41 16  1  0  0  0  0
 43 19  1  0  0  0  0
 44 19  1  0  0  0  0
 45 20  1  0  0  0  0
 46 20  1  0  0  0  0
 47 22  1  0  0  0  0
 50 29  1  0  0  0  0
 51 29  1  0  0  0  0
 52 30  1  0  0  0  0
 53 31  1  0  0  0  0
 55 31  1  0  0  0  0
M  END
>  <Pose>
1

>  <Score>
-6.06

$$$$
