
 OpenBabel03202209553D

 50 53  0  0  1  0  0  0  0  0999 V2000
   23.1950   16.0500   34.0550 Cl  0  0  0  0  0  0  0  0  0  0  0  0
   22.7220   15.1350   32.6610 C   0  0  0  0  0  0  0  0  0  0  0  0
   22.6990   13.7480   32.6930 C   0  0  0  0  0  0  0  0  0  0  0  0
   22.3250   13.0070   31.5910 C   0  0  0  0  0  0  0  0  0  0  0  0
   21.9710   13.6790   30.4540 C   0  0  0  0  0  0  0  0  0  0  0  0
   21.9800   15.0750   30.3830 C   0  0  0  0  0  0  0  0  0  0  0  0
   22.3590   15.7840   31.5010 C   0  0  0  0  0  0  0  0  0  0  0  0
   21.6390   12.7500   29.4310 N   0  0  0  0  0  0  0  0  0  0  0  0
   21.7970   11.4410   29.9550 C   0  0  0  0  0  0  0  0  0  0  0  0
   21.5960   10.4110   29.2330 O   0  0  0  0  0  0  0  0  0  0  0  0
   22.1940   11.5710   31.3510 C   0  0  2  0  0  0  0  0  0  0  0  0
   21.2250   10.9520   32.2590 N   0  0  0  0  0  0  0  0  0  0  0  0
   21.5300    9.5510   32.0790 C   0  0  1  0  0  0  0  0  0  0  0  0
   23.0170    9.4530   31.9800 C   0  0  2  0  0  0  0  0  0  0  0  0
   23.4470   10.8700   31.7450 C   0  0  1  0  0  0  0  0  0  0  0  0
   24.5040   10.8580   30.7040 C   0  0  0  0  0  0  0  0  0  0  0  0
   25.1350   11.9030   30.4000 O   0  0  0  0  0  0  0  0  0  0  0  0
   24.6040    9.5330   30.2090 N   0  0  0  0  0  0  0  0  0  0  0  0
   23.4780    8.8040   30.7100 C   0  0  0  0  0  0  0  0  0  0  0  0
   22.9400    7.8060   30.2210 O   0  0  0  0  0  0  0  0  0  0  0  0
   25.6250    9.0150   29.3790 C   0  0  0  0  0  0  0  0  0  0  0  0
   26.9400    9.6900   29.3450 C   0  0  0  0  0  0  0  0  0  0  0  0
   27.2470   10.5500   28.1810 C   0  0  0  0  0  0  0  0  0  0  0  0
   27.5300   11.8780   28.4600 O   0  0  0  0  0  0  0  0  0  0  0  0
   26.5670   12.6660   27.7840 C   0  0  0  0  0  0  0  0  0  0  0  0
   20.9520    8.6900   33.1740 C   0  0  1  0  0  0  0  0  0  0  0  0
   19.9250    9.4040   33.7770 O   0  0  0  0  0  0  0  0  0  0  0  0
   20.4360    7.3700   32.6620 C   0  0  0  0  0  0  0  0  0  0  0  0
   22.9850   13.2160   33.6100 H   0  0  0  0  0  0  0  0  0  0  0  0
   21.6960   15.6020   29.4740 H   0  0  0  0  0  0  0  0  0  0  0  0
   22.3560   16.8710   31.4160 H   0  0  0  0  0  0  0  0  0  0  0  0
   21.3250   12.9880   28.4440 H   0  0  0  0  0  0  0  0  0  0  0  0
   21.5360   11.2230   33.2190 H   0  0  0  0  0  0  0  0  0  0  0  0
   21.0790    9.1850   31.1360 H   0  0  0  0  0  0  0  0  0  0  0  0
   23.5020    8.9640   32.8260 H   0  0  0  0  0  0  0  0  0  0  0  0
   23.8240   11.3470   32.6840 H   0  0  0  0  0  0  0  0  0  0  0  0
   25.2670    8.8250   28.3190 H   0  0  0  0  0  0  0  0  0  0  0  0
   25.8320    7.9530   29.7350 H   0  0  0  0  0  0  0  0  0  0  0  0
   27.7990    9.0010   29.5590 H   0  0  0  0  0  0  0  0  0  0  0  0
   26.9600   10.3760   30.2520 H   0  0  0  0  0  0  0  0  0  0  0  0
   28.1360   10.1760   27.5870 H   0  0  0  0  0  0  0  0  0  0  0  0
   26.4090   10.4990   27.4410 H   0  0  0  0  0  0  0  0  0  0  0  0
   26.7010   12.4130   26.7110 H   0  0  0  0  0  0  0  0  0  0  0  0
   26.7860   13.7450   27.8710 H   0  0  0  0  0  0  0  0  0  0  0  0
   25.5490   12.4160   28.0930 H   0  0  0  0  0  0  0  0  0  0  0  0
   21.7280    8.5030   33.9150 H   0  0  0  0  0  0  0  0  0  0  0  0
   19.9990    9.4210   34.7650 H   0  0  0  0  0  0  0  0  0  0  0  0
   21.2620    6.7200   32.3350 H   0  0  0  0  0  0  0  0  0  0  0  0
   19.6480    7.4910   31.8920 H   0  0  0  0  0  0  0  0  0  0  0  0
   19.9520    6.8570   33.5210 H   0  0  0  0  0  0  0  0  0  0  0  0
  2  3  1  0  0  0  0
  2  1  1  0  0  0  0
  3 29  1  0  0  0  0
  4  3  2  0  0  0  0
  5  4  1  0  0  0  0
  6  5  2  0  0  0  0
  6  7  1  0  0  0  0
  7  2  2  0  0  0  0
  8  9  1  0  0  0  0
  8  5  1  0  0  0  0
 10  9  2  0  0  0  0
 11  9  1  6  0  0  0
 11  4  1  0  0  0  0
 11 15  1  0  0  0  0
 11 12  1  0  0  0  0
 12 33  1  0  0  0  0
 13 34  1  6  0  0  0
 13 12  1  0  0  0  0
 13 26  1  0  0  0  0
 14 13  1  0  0  0  0
 14 35  1  1  0  0  0
 15 14  1  0  0  0  0
 15 36  1  1  0  0  0
 16 15  1  0  0  0  0
 17 16  2  0  0  0  0
 18 16  1  0  0  0  0
 18 19  1  0  0  0  0
 19 14  1  0  0  0  0
 20 19  2  0  0  0  0
 21 38  1  0  0  0  0
 21 18  1  0  0  0  0
 22 21  1  0  0  0  0
 22 39  1  0  0  0  0
 22 40  1  0  0  0  0
 23 24  1  0  0  0  0
 23 22  1  0  0  0  0
 25 44  1  0  0  0  0
 25 45  1  0  0  0  0
 25 24  1  0  0  0  0
 26 27  1  0  0  0  0
 26 46  1  1  0  0  0
 27 47  1  0  0  0  0
 28 26  1  0  0  0  0
 28 50  1  0  0  0  0
 30  6  1  0  0  0  0
 31  7  1  0  0  0  0
 32  8  1  0  0  0  0
 37 21  1  0  0  0  0
 41 23  1  0  0  0  0
 42 23  1  0  0  0  0
 43 25  1  0  0  0  0
 48 28  1  0  0  0  0
 49 28  1  0  0  0  0
M  END
>  <Pose>
1

>  <Score>
-6.09

$$$$
