
 OpenBabel03202209553D

 30 33  0  0  1  0  0  0  0  0999 V2000
   22.1480    7.0940   30.8300 F   0  0  0  0  0  0  0  0  0  0  0  0
   21.8390    8.3500   31.2950 C   0  0  0  0  0  0  0  0  0  0  0  0
   22.3710    9.4610   30.6280 C   0  0  0  0  0  0  0  0  0  0  0  0
   22.0770   10.7140   31.0730 C   0  0  0  0  0  0  0  0  0  0  0  0
   21.2490   10.8910   32.1900 C   0  0  0  0  0  0  0  0  0  0  0  0
   20.7430    9.7890   32.8220 C   0  0  0  0  0  0  0  0  0  0  0  0
   21.0270    8.5160   32.3900 C   0  0  0  0  0  0  0  0  0  0  0  0
   20.3690    7.0940   33.2120 Cl  0  0  0  0  0  0  0  0  0  0  0  0
   22.7610   11.7010   30.1970 C   0  0  2  0  0  0  0  0  0  0  0  0
   23.6380   12.5070   30.9860 N   0  0  0  0  0  0  0  0  0  0  0  0
   23.1750   13.6740   31.6290 C   0  0  0  0  0  0  0  0  0  0  0  0
   23.8710   14.2680   32.6330 N   0  0  0  0  0  0  0  0  0  0  0  0
   23.4770   15.3720   33.2750 C   0  0  0  0  0  0  0  0  0  0  0  0
   22.2790   15.9770   32.9100 C   0  0  0  0  0  0  0  0  0  0  0  0
   21.5190   15.4420   31.9080 C   0  0  0  0  0  0  0  0  0  0  0  0
   21.9850   14.3020   31.2900 C   0  0  0  0  0  0  0  0  0  0  0  0
   21.2450   13.6510   30.2060 C   0  0  0  0  0  0  0  0  0  0  0  0
   20.1410   14.1960   29.8600 O   0  0  0  0  0  0  0  0  0  0  0  0
   21.7140   12.4880   29.5690 N   0  0  0  0  0  0  0  0  0  0  0  0
   23.4750   10.8830   29.2100 C   0  0  0  0  0  0  0  0  0  0  0  0
   24.2120   11.3010   28.2420 O   0  0  0  0  0  0  0  0  0  0  0  0
   23.2290    9.5280   29.4820 N   0  0  0  0  0  0  0  0  0  0  0  0
   21.0280   11.9090   32.5260 H   0  0  0  0  0  0  0  0  0  0  0  0
   20.1020    9.9120   33.6850 H   0  0  0  0  0  0  0  0  0  0  0  0
   24.6490   12.2530   31.1080 H   0  0  0  0  0  0  0  0  0  0  0  0
   24.0440   15.8300   34.0720 H   0  0  0  0  0  0  0  0  0  0  0  0
   21.9380   16.8660   33.4080 H   0  0  0  0  0  0  0  0  0  0  0  0
   20.5750   15.8550   31.5670 H   0  0  0  0  0  0  0  0  0  0  0  0
   21.2790   12.2320   28.6520 H   0  0  0  0  0  0  0  0  0  0  0  0
   23.5810    8.6720   28.9760 H   0  0  0  0  0  0  0  0  0  0  0  0
  1  2  1  0  0  0  0
  2  7  1  0  0  0  0
  3  4  1  0  0  0  0
  3  2  2  0  0  0  0
  4  5  2  0  0  0  0
  5 23  1  0  0  0  0
  5  6  1  0  0  0  0
  6 24  1  0  0  0  0
  7  6  2  0  0  0  0
  7  8  1  0  0  0  0
  9 20  1  6  0  0  0
  9 10  1  0  0  0  0
  9  4  1  0  0  0  0
 10 25  1  0  0  0  0
 10 11  1  0  0  0  0
 11 12  1  0  0  0  0
 12 13  2  0  0  0  0
 13 26  1  0  0  0  0
 14 13  1  0  0  0  0
 14 27  1  0  0  0  0
 15 14  2  0  0  0  0
 16 11  2  0  0  0  0
 16 15  1  0  0  0  0
 17 16  1  0  0  0  0
 18 17  2  0  0  0  0
 19  9  1  0  0  0  0
 19 17  1  0  0  0  0
 20 22  1  0  0  0  0
 21 20  2  0  0  0  0
 22  3  1  0  0  0  0
 28 15  1  0  0  0  0
 29 19  1  0  0  0  0
 30 22  1  0  0  0  0
M  END
>  <Pose>
1

>  <Score>
-5.84

$$$$
