
 OpenBabel03202209553D

 48 51  0  0  0  0  0  0  0  0999 V2000
   25.1030   11.4560   29.8050 S   0  0  0  0  0  0  0  0  0  0  0  0
   26.6150   11.4510   29.9910 O   0  0  0  0  0  0  0  0  0  0  0  0
   24.8420   10.4660   28.6860 O   0  0  0  0  0  0  0  0  0  0  0  0
   24.3900   10.8730   31.2080 N   0  0  0  0  0  0  0  0  0  0  0  0
   22.9730   10.9520   31.2870 C   0  0  0  0  0  0  0  0  0  0  0  0
   22.3170    9.6310   31.6010 C   0  0  0  0  0  0  0  0  0  0  0  0
   23.0380    8.5120   31.0530 N   0  0  0  0  0  0  0  0  0  0  0  0
   24.4600    8.4080   31.2800 C   0  0  0  0  0  0  0  0  0  0  0  0
   24.9580    9.7190   31.8030 C   0  0  0  0  0  0  0  0  0  0  0  0
   22.4010    7.5010   30.2920 C   0  0  0  0  0  0  0  0  0  0  0  0
   21.8880    7.8040   29.1980 O   0  0  0  0  0  0  0  0  0  0  0  0
   22.3270    6.0990   30.7600 C   0  0  0  0  0  0  0  0  0  0  0  0
   23.5830    5.4280   30.5930 N   0  0  0  0  0  0  0  0  0  0  0  0
   24.5300    5.5220   29.5370 C   0  0  0  0  0  0  0  0  0  0  0  0
   24.3930    6.2550   28.5330 O   0  0  0  0  0  0  0  0  0  0  0  0
   25.6440    4.6380   29.8390 C   0  0  0  0  0  0  0  0  0  0  0  0
   25.4060    4.0120   31.0400 C   0  0  0  0  0  0  0  0  0  0  0  0
   26.3410    3.1130   31.5360 C   0  0  0  0  0  0  0  0  0  0  0  0
   27.4960    2.8330   30.8600 C   0  0  0  0  0  0  0  0  0  0  0  0
   27.7500    3.4610   29.6410 C   0  0  0  0  0  0  0  0  0  0  0  0
   26.8040    4.3560   29.1630 C   0  0  0  0  0  0  0  0  0  0  0  0
   24.1210    4.4900   31.5320 C   0  0  0  0  0  0  0  0  0  0  0  0
   23.6250    4.0970   32.6200 O   0  0  0  0  0  0  0  0  0  0  0  0
   24.5600   13.0010   29.2720 C   0  0  0  0  0  0  0  0  0  0  0  0
   23.3580   13.5080   29.7400 C   0  0  0  0  0  0  0  0  0  0  0  0
   22.8770   14.7390   29.3460 C   0  0  0  0  0  0  0  0  0  0  0  0
   23.6350   15.4760   28.4550 C   0  0  0  0  0  0  0  0  0  0  0  0
   24.8300   14.9590   27.9970 C   0  0  0  0  0  0  0  0  0  0  0  0
   25.3230   13.7300   28.3820 C   0  0  0  0  0  0  0  0  0  0  0  0
   23.0220   17.2040   27.8640 B   0  0  0  0  0  0  0  0  0  0  0  0
   22.7260   11.6400   32.1480 H   0  0  0  0  0  0  0  0  0  0  0  0
   22.5450   11.4370   30.3840 H   0  0  0  0  0  0  0  0  0  0  0  0
   21.2820    9.6500   31.2140 H   0  0  0  0  0  0  0  0  0  0  0  0
   22.2180    9.5170   32.7120 H   0  0  0  0  0  0  0  0  0  0  0  0
   24.6570    7.6440   32.0880 H   0  0  0  0  0  0  0  0  0  0  0  0
   24.9500    8.0820   30.3490 H   0  0  0  0  0  0  0  0  0  0  0  0
   26.0620    9.7700   31.7840 H   0  0  0  0  0  0  0  0  0  0  0  0
   24.6900    9.7450   32.9010 H   0  0  0  0  0  0  0  0  0  0  0  0
   21.5500    5.5880   30.1250 H   0  0  0  0  0  0  0  0  0  0  0  0
   22.0030    6.0470   31.8240 H   0  0  0  0  0  0  0  0  0  0  0  0
   26.1310    2.6370   32.4740 H   0  0  0  0  0  0  0  0  0  0  0  0
   28.2140    2.1440   31.2400 H   0  0  0  0  0  0  0  0  0  0  0  0
   28.6330    3.2810   29.0730 H   0  0  0  0  0  0  0  0  0  0  0  0
   27.0070    4.8400   28.2160 H   0  0  0  0  0  0  0  0  0  0  0  0
   22.7290   12.9550   30.4470 H   0  0  0  0  0  0  0  0  0  0  0  0
   21.9420   15.1600   29.6950 H   0  0  0  0  0  0  0  0  0  0  0  0
   25.4460   15.5310   27.2880 H   0  0  0  0  0  0  0  0  0  0  0  0
   26.2770   13.3640   27.9900 H   0  0  0  0  0  0  0  0  0  0  0  0
  1  2  2  0  0  0  0
  1  4  1  0  0  0  0
  3  1  2  0  0  0  0
  4  5  1  0  0  0  0
  4  9  1  0  0  0  0
  5  6  1  0  0  0  0
  5 31  1  0  0  0  0
  6 34  1  0  0  0  0
  7  8  1  0  0  0  0
  7  6  1  0  0  0  0
  8  9  1  0  0  0  0
  8 35  1  0  0  0  0
  9 38  1  0  0  0  0
 10 12  1  0  0  0  0
 10  7  1  0  0  0  0
 11 10  2  0  0  0  0
 12 40  1  0  0  0  0
 13 12  1  0  0  0  0
 13 22  1  0  0  0  0
 14 16  1  0  0  0  0
 14 13  1  0  0  0  0
 15 14  2  0  0  0  0
 16 17  1  0  0  0  0
 17 22  1  0  0  0  0
 17 18  2  0  0  0  0
 18 41  1  0  0  0  0
 19 42  1  0  0  0  0
 19 18  1  0  0  0  0
 20 19  2  0  0  0  0
 21 20  1  0  0  0  0
 21 16  2  0  0  0  0
 22 23  2  0  0  0  0
 24 25  1  0  0  0  0
 24  1  1  0  0  0  0
 25 45  1  0  0  0  0
 26 46  1  0  0  0  0
 26 25  2  0  0  0  0
 27 26  1  0  0  0  0
 28 29  1  0  0  0  0
 28 27  2  0  0  0  0
 29 24  2  0  0  0  0
 30 27  1  0  0  0  0
 32  5  1  0  0  0  0
 33  6  1  0  0  0  0
 36  8  1  0  0  0  0
 37  9  1  0  0  0  0
 39 12  1  0  0  0  0
 43 20  1  0  0  0  0
 44 21  1  0  0  0  0
 47 28  1  0  0  0  0
 48 29  1  0  0  0  0
M  END
>  <Pose>
1

>  <Score>
-6.41

$$$$
