
 OpenBabel03202209553D

 51 55  0  0  1  0  0  0  0  0999 V2000
   19.2620   15.5460   31.4250 Cl  0  0  0  0  0  0  0  0  0  0  0  0
   20.9370   15.2070   31.8000 C   0  0  0  0  0  0  0  0  0  0  0  0
   21.4920   14.0510   31.2490 C   0  0  0  0  0  0  0  0  0  0  0  0
   22.8080   13.7500   31.5210 C   0  0  0  0  0  0  0  0  0  0  0  0
   23.5240   14.6240   32.3420 C   0  0  0  0  0  0  0  0  0  0  0  0
   22.9670   15.7630   32.8820 C   0  0  0  0  0  0  0  0  0  0  0  0
   21.6500   16.0640   32.6080 C   0  0  0  0  0  0  0  0  0  0  0  0
   23.2030   12.5070   30.8600 C   0  0  1  0  0  0  0  0  0  0  0  0
   24.3450   12.6730   29.9810 N   0  0  0  0  0  0  0  0  0  0  0  0
   24.9130   11.3390   29.8370 C   0  0  2  0  0  0  0  0  0  0  0  0
   24.6810   10.6390   31.1480 C   0  0  1  0  0  0  0  0  0  0  0  0
   23.5840   11.4140   31.8340 C   0  0  2  0  0  0  0  0  0  0  0  0
   22.4730   10.4510   32.0390 C   0  0  0  0  0  0  0  0  0  0  0  0
   21.3470   10.8230   32.4730 O   0  0  0  0  0  0  0  0  0  0  0  0
   22.9020    9.1490   31.6790 N   0  0  0  0  0  0  0  0  0  0  0  0
   24.0600    9.2970   30.8720 C   0  0  0  0  0  0  0  0  0  0  0  0
   24.5470    8.4820   30.0390 O   0  0  0  0  0  0  0  0  0  0  0  0
   22.2910    7.9270   32.0580 C   0  0  0  0  0  0  0  0  0  0  0  0
   20.8150    7.8840   32.0810 C   0  0  2  0  0  0  0  0  0  0  0  0
   20.2150    8.6560   33.0640 O   0  0  0  0  0  0  0  0  0  0  0  0
   18.8660    8.4890   32.7480 C   0  0  0  0  0  0  0  0  0  0  0  0
   18.7090    6.9850   32.4900 C   0  0  0  0  0  0  0  0  0  0  0  0
   20.1690    6.5600   32.2590 C   0  0  0  0  0  0  0  0  0  0  0  0
   26.3710   11.4630   29.5050 C   0  0  0  0  0  0  0  0  0  0  0  0
   26.4600   11.9050   28.0770 C   0  0  0  0  0  0  0  0  0  0  0  0
   26.3150   11.0130   27.2020 O   0  0  0  0  0  0  0  0  0  0  0  0
   26.6950   13.2530   27.7070 N   0  0  0  0  0  0  0  0  0  0  0  0
   21.9980   12.0690   30.1390 C   0  0  0  0  0  0  0  0  0  0  0  0
   21.8640   11.0230   29.4050 O   0  0  0  0  0  0  0  0  0  0  0  0
   20.9870   13.0270   30.4030 N   0  0  0  0  0  0  0  0  0  0  0  0
   24.5650   14.4360   32.5890 H   0  0  0  0  0  0  0  0  0  0  0  0
   23.5260   16.4380   33.5170 H   0  0  0  0  0  0  0  0  0  0  0  0
   21.2290   16.9630   33.0410 H   0  0  0  0  0  0  0  0  0  0  0  0
   25.0440   13.3460   30.3700 H   0  0  0  0  0  0  0  0  0  0  0  0
   24.3520   10.8460   29.0260 H   0  0  0  0  0  0  0  0  0  0  0  0
   25.5980   10.5560   31.7350 H   0  0  0  0  0  0  0  0  0  0  0  0
   23.9400   11.8250   32.7780 H   0  0  0  0  0  0  0  0  0  0  0  0
   22.6210    7.0920   31.3700 H   0  0  0  0  0  0  0  0  0  0  0  0
   22.6380    7.5580   33.0690 H   0  0  0  0  0  0  0  0  0  0  0  0
   20.4560    8.2980   31.1070 H   0  0  0  0  0  0  0  0  0  0  0  0
   18.5840    9.0100   31.8210 H   0  0  0  0  0  0  0  0  0  0  0  0
   18.1980    8.8360   33.5530 H   0  0  0  0  0  0  0  0  0  0  0  0
   18.2740    6.5290   33.3760 H   0  0  0  0  0  0  0  0  0  0  0  0
   18.1340    6.8010   31.5530 H   0  0  0  0  0  0  0  0  0  0  0  0
   20.4500    5.9930   33.1450 H   0  0  0  0  0  0  0  0  0  0  0  0
   20.2110    5.9250   31.3430 H   0  0  0  0  0  0  0  0  0  0  0  0
   26.8200   10.4520   29.6220 H   0  0  0  0  0  0  0  0  0  0  0  0
   26.8530   12.1800   30.1780 H   0  0  0  0  0  0  0  0  0  0  0  0
   26.9280   13.9320   28.4580 H   0  0  0  0  0  0  0  0  0  0  0  0
   26.6500   13.6070   26.7320 H   0  0  0  0  0  0  0  0  0  0  0  0
   19.9990   12.9950   30.0310 H   0  0  0  0  0  0  0  0  0  0  0  0
  1  2  1  0  0  0  0
  2  7  1  0  0  0  0
  3  4  1  0  0  0  0
  3  2  2  0  0  0  0
  4  5  2  0  0  0  0
  5 31  1  0  0  0  0
  5  6  1  0  0  0  0
  6 32  1  0  0  0  0
  7  6  2  0  0  0  0
  7 33  1  0  0  0  0
  8 28  1  6  0  0  0
  8  4  1  0  0  0  0
  8 12  1  0  0  0  0
  9 34  1  0  0  0  0
  9  8  1  0  0  0  0
 10 35  1  6  0  0  0
 10  9  1  0  0  0  0
 10 11  1  0  0  0  0
 11 36  1  1  0  0  0
 11 12  1  0  0  0  0
 12 13  1  0  0  0  0
 12 37  1  1  0  0  0
 13 14  2  0  0  0  0
 15 13  1  0  0  0  0
 15 18  1  0  0  0  0
 16 11  1  0  0  0  0
 16 15  1  0  0  0  0
 17 16  2  0  0  0  0
 18 19  1  0  0  0  0
 18 39  1  0  0  0  0
 19 40  1  6  0  0  0
 19 23  1  0  0  0  0
 19 20  1  0  0  0  0
 21 20  1  0  0  0  0
 21 42  1  0  0  0  0
 22 21  1  0  0  0  0
 22 43  1  0  0  0  0
 23 22  1  0  0  0  0
 23 45  1  0  0  0  0
 24 47  1  0  0  0  0
 24 10  1  0  0  0  0
 24 48  1  0  0  0  0
 25 24  1  0  0  0  0
 26 25  2  0  0  0  0
 27 25  1  0  0  0  0
 27 49  1  0  0  0  0
 28 30  1  0  0  0  0
 29 28  2  0  0  0  0
 30  3  1  0  0  0  0
 38 18  1  0  0  0  0
 41 21  1  0  0  0  0
 44 22  1  0  0  0  0
 46 23  1  0  0  0  0
 50 27  1  0  0  0  0
 51 30  1  0  0  0  0
M  END
>  <Pose>
1

>  <Score>
-7.08

$$$$
