
 OpenBabel03202209553D

 43 46  0  0  1  0  0  0  0  0999 V2000
   23.4880   18.0730   26.4090 Cl  0  0  0  0  0  0  0  0  0  0  0  0
   22.9750   17.2770   27.8730 C   0  0  0  0  0  0  0  0  0  0  0  0
   22.7170   17.9560   28.9830 N   0  0  0  0  0  4  0  0  0  0  0  0
   22.3190   17.4260   30.1440 C   0  0  0  0  0  0  0  0  0  0  0  0
   22.0090   17.9040   31.3600 N   0  0  0  0  0  0  0  0  0  0  0  0
   21.6670   16.8820   32.1630 C   0  0  0  0  0  0  0  0  0  0  0  0
   21.7690   15.7620   31.4230 N   0  0  0  0  0  0  0  0  0  0  0  0
   22.1670   16.0430   30.1740 C   0  0  1  0  0  0  0  0  0  0  0  0
   22.4310   15.3290   29.0290 C   0  0  0  0  0  0  0  0  0  0  0  0
   22.8270   15.9330   27.9000 N   0  0  0  0  0  0  0  0  0  0  0  0
   22.2580   13.8950   29.1030 N   0  0  0  0  0  0  0  0  0  0  0  0
   23.3270   13.0900   29.5630 C   0  0  0  0  0  0  0  0  0  0  0  0
   23.0540   11.6670   29.6870 C   0  0  0  0  0  0  0  0  0  0  0  0
   21.7820   11.3580   29.3510 O   0  0  0  0  0  0  0  0  0  0  0  0
   23.8340   10.6130   30.0740 N   0  0  0  0  0  0  0  0  0  0  0  0
   24.4460    9.6190   29.2610 C   0  0  0  0  0  0  0  0  0  0  0  0
   23.8880    8.2270   29.5490 C   0  0  0  0  0  0  0  0  0  0  0  0
   23.5270    8.2400   30.9380 N   0  0  0  0  0  0  0  0  0  0  0  0
   24.3510    8.9940   31.8360 C   0  0  0  0  0  0  0  0  0  0  0  0
   24.0570   10.4730   31.5640 C   0  0  0  0  0  0  0  0  0  0  0  0
   22.4110    7.5470   31.4390 C   0  0  0  0  0  0  0  0  0  0  0  0
   22.2470    6.2060   31.2380 N   0  0  0  0  0  0  0  0  0  0  0  0
   21.2230    5.4970   31.6800 C   0  0  0  0  0  0  0  0  0  0  0  0
   20.2110    6.0690   32.3970 C   0  0  0  0  0  0  0  0  0  0  0  0
   20.3140    7.4320   32.6370 C   0  0  0  0  0  0  0  0  0  0  0  0
   21.3980    8.1550   32.1640 C   0  0  0  0  0  0  0  0  0  0  0  0
   21.3600   16.9110   33.2110 H   0  0  0  0  0  0  0  0  0  0  0  0
   21.5750   14.7720   31.7320 H   0  0  0  0  0  0  0  0  0  0  0  0
   21.3700   13.4780   28.8130 H   0  0  0  0  0  0  0  0  0  0  0  0
   24.2770   13.2790   28.9680 H   0  0  0  0  0  0  0  0  0  0  0  0
   23.5500   13.4510   30.6310 H   0  0  0  0  0  0  0  0  0  0  0  0
   24.3620    9.8220   28.2120 H   0  0  0  0  0  0  0  0  0  0  0  0
   25.5570    9.5770   29.5610 H   0  0  0  0  0  0  0  0  0  0  0  0
   24.6990    7.4730   29.4070 H   0  0  0  0  0  0  0  0  0  0  0  0
   23.0900    8.0120   28.8550 H   0  0  0  0  0  0  0  0  0  0  0  0
   25.4360    8.8550   31.6400 H   0  0  0  0  0  0  0  0  0  0  0  0
   24.0840    8.7950   32.8870 H   0  0  0  0  0  0  0  0  0  0  0  0
   24.9030   11.0810   31.8520 H   0  0  0  0  0  0  0  0  0  0  0  0
   23.1140   10.7970   32.0130 H   0  0  0  0  0  0  0  0  0  0  0  0
   21.1730    4.4190   31.4710 H   0  0  0  0  0  0  0  0  0  0  0  0
   19.3890    5.4890   32.7490 H   0  0  0  0  0  0  0  0  0  0  0  0
   19.5110    7.9130   33.2120 H   0  0  0  0  0  0  0  0  0  0  0  0
   21.4310    9.1930   32.3730 H   0  0  0  0  0  0  0  0  0  0  0  0
  1  2  1  0  0  0  0
  2 10  1  0  0  0  0
  2  3  2  0  0  0  0
  3  4  2  0  0  0  0
  4  8  1  0  0  0  0
  4  5  1  0  0  0  0
  5  6  2  0  0  0  0
  6 27  1  0  0  0  0
  7 28  1  0  0  0  0
  7  6  1  0  0  0  0
  8  9  1  6  0  0  0
  8  7  1  0  0  0  0
  9 11  1  0  0  0  0
 10  9  2  0  0  0  0
 11 12  1  0  0  0  0
 12 13  1  0  0  0  0
 12 31  1  0  0  0  0
 13 15  1  0  0  0  0
 14 13  2  0  0  0  0
 15 20  1  0  0  0  0
 16 17  1  0  0  0  0
 16 33  1  0  0  0  0
 16 15  1  0  0  0  0
 17 18  1  0  0  0  0
 18 21  1  0  0  0  0
 18 19  1  0  0  0  0
 19 37  1  0  0  0  0
 20 19  1  0  0  0  0
 20 38  1  0  0  0  0
 20 39  1  0  0  0  0
 21 26  1  0  0  0  0
 22 21  2  0  0  0  0
 22 23  1  0  0  0  0
 23 24  2  0  0  0  0
 24 25  1  0  0  0  0
 24 41  1  0  0  0  0
 25 42  1  0  0  0  0
 26 43  1  0  0  0  0
 26 25  2  0  0  0  0
 29 11  1  0  0  0  0
 30 12  1  0  0  0  0
 32 16  1  0  0  0  0
 34 17  1  0  0  0  0
 35 17  1  0  0  0  0
 36 19  1  0  0  0  0
 40 23  1  0  0  0  0
M  END
>  <Pose>
1

>  <Score>
-7.57

$$$$
