
 OpenBabel03202209553D

 53 56  0  0  1  0  0  0  0  0999 V2000
   21.7930    5.0340   31.1470 B   0  0  0  0  0  0  0  0  0  0  0  0
   23.6610    5.0020   30.7770 C   0  0  0  0  0  0  0  0  0  0  0  0
   24.2340    6.1150   30.2030 C   0  0  0  0  0  0  0  0  0  0  0  0
   25.5860    6.0760   29.9420 C   0  0  0  0  0  0  0  0  0  0  0  0
   26.3470    4.9440   30.2500 C   0  0  0  0  0  0  0  0  0  0  0  0
   25.7420    3.8430   30.8250 C   0  0  0  0  0  0  0  0  0  0  0  0
   24.4040    3.8660   31.0890 C   0  0  0  0  0  0  0  0  0  0  0  0
   26.5330    2.6200   31.1630 C   0  0  0  0  0  0  0  0  0  0  0  0
   26.4090    7.5980   29.1500 B   0  0  0  0  0  0  0  0  0  0  0  0
   23.4790    7.2020   29.9150 O   0  0  0  0  0  0  0  0  0  0  0  0
   23.3650    8.3880   30.6470 C   0  0  0  0  0  0  0  0  0  0  0  0
   21.9000    8.5050   31.0650 C   0  0  1  0  0  0  0  0  0  0  0  0
   21.6560    7.8230   32.2550 O   0  0  0  0  0  0  0  0  0  0  0  0
   21.6220    9.9630   31.2480 C   0  0  0  0  0  0  0  0  0  0  0  0
   22.7070   10.8260   30.8220 N   0  0  0  0  0  4  0  0  0  0  0  0
   22.3810   11.2970   29.5180 C   0  0  0  0  0  0  0  0  0  0  0  0
   22.4810   12.7780   29.3290 C   0  0  1  0  0  0  0  0  0  0  0  0
   21.3990   13.5590   29.9880 C   0  0  0  0  0  0  0  0  0  0  0  0
   21.8290   14.3930   31.0750 N   0  0  0  0  0  0  0  0  0  0  0  0
   22.9530   14.1980   31.7900 C   0  0  0  0  0  0  0  0  0  0  0  0
   23.3620   14.9900   32.8240 C   0  0  0  0  0  0  0  0  0  0  0  0
   22.5810   16.0720   33.1770 C   0  0  0  0  0  0  0  0  0  0  0  0
   21.4310   16.2770   32.4530 C   0  0  0  0  0  0  0  0  0  0  0  0
   21.0490   15.4590   31.4170 C   0  0  0  0  0  0  0  0  0  0  0  0
   19.9890   15.6780   30.7760 O   0  0  0  0  0  0  0  0  0  0  0  0
   23.7620   12.9980   31.3530 C   0  0  1  0  0  0  0  0  0  0  0  0
   23.0250   11.7960   31.7970 C   0  0  0  0  0  0  0  0  0  0  0  0
   23.8710   13.1560   29.8560 C   0  0  0  0  0  0  0  0  0  0  0  0
   27.4060    4.9040   30.0480 H   0  0  0  0  0  0  0  0  0  0  0  0
   23.9570    2.9850   31.5410 H   0  0  0  0  0  0  0  0  0  0  0  0
   25.9400    1.7290   30.8840 H   0  0  0  0  0  0  0  0  0  0  0  0
   26.6740    2.5650   32.2800 H   0  0  0  0  0  0  0  0  0  0  0  0
   27.5330    2.6310   30.6730 H   0  0  0  0  0  0  0  0  0  0  0  0
   24.0420    8.4670   31.5070 H   0  0  0  0  0  0  0  0  0  0  0  0
   23.5650    9.2450   29.9730 H   0  0  0  0  0  0  0  0  0  0  0  0
   21.3140    8.0200   30.2830 H   0  0  0  0  0  0  0  0  0  0  0  0
   22.4030    8.0710   32.8710 H   0  0  0  0  0  0  0  0  0  0  0  0
   20.7290   10.2250   30.6470 H   0  0  0  0  0  0  0  0  0  0  0  0
   21.3800   10.2220   32.2990 H   0  0  0  0  0  0  0  0  0  0  0  0
   23.5490   10.1800   30.7230 H   0  0  0  0  0  0  0  0  0  0  0  0
   23.0350   10.8310   28.7210 H   0  0  0  0  0  0  0  0  0  0  0  0
   21.3380   11.0090   29.1910 H   0  0  0  0  0  0  0  0  0  0  0  0
   22.5320   12.9710   28.2190 H   0  0  0  0  0  0  0  0  0  0  0  0
   20.9490   14.2520   29.2170 H   0  0  0  0  0  0  0  0  0  0  0  0
   20.5330   12.9200   30.3100 H   0  0  0  0  0  0  0  0  0  0  0  0
   24.2820   14.7430   33.3310 H   0  0  0  0  0  0  0  0  0  0  0  0
   22.8970   16.7010   33.9930 H   0  0  0  0  0  0  0  0  0  0  0  0
   20.7920   17.1200   32.7050 H   0  0  0  0  0  0  0  0  0  0  0  0
   24.7910   13.0890   31.7620 H   0  0  0  0  0  0  0  0  0  0  0  0
   23.6720   11.2960   32.5790 H   0  0  0  0  0  0  0  0  0  0  0  0
   22.0770   12.0330   32.3650 H   0  0  0  0  0  0  0  0  0  0  0  0
   24.6230   12.5180   29.3960 H   0  0  0  0  0  0  0  0  0  0  0  0
   23.9950   14.2370   29.5790 H   0  0  0  0  0  0  0  0  0  0  0  0
  2  7  1  0  0  0  0
  2  1  1  0  0  0  0
  3  2  2  0  0  0  0
  4  3  1  0  0  0  0
  4  5  2  0  0  0  0
  5  6  1  0  0  0  0
  6  7  2  0  0  0  0
  6  8  1  0  0  0  0
  7 30  1  0  0  0  0
  8 32  1  0  0  0  0
  9  4  1  0  0  0  0
 10  3  1  0  0  0  0
 10 11  1  0  0  0  0
 11 12  1  0  0  0  0
 11 34  1  0  0  0  0
 12 36  1  6  0  0  0
 12 14  1  0  0  0  0
 12 13  1  0  0  0  0
 13 37  1  0  0  0  0
 14 39  1  0  0  0  0
 15 14  1  0  0  0  0
 15 27  1  0  0  0  0
 16 15  1  0  0  0  0
 17 43  1  6  0  0  0
 17 16  1  0  0  0  0
 17 28  1  0  0  0  0
 17 18  1  0  0  0  0
 18 45  1  0  0  0  0
 18 19  1  0  0  0  0
 19 24  1  0  0  0  0
 19 20  1  0  0  0  0
 20 21  2  0  0  0  0
 21 22  1  0  0  0  0
 21 46  1  0  0  0  0
 22 47  1  0  0  0  0
 23 48  1  0  0  0  0
 23 22  2  0  0  0  0
 24 23  1  0  0  0  0
 25 24  2  0  0  0  0
 26 49  1  1  0  0  0
 26 20  1  0  0  0  0
 26 27  1  0  0  0  0
 27 51  1  0  0  0  0
 27 50  1  0  0  0  0
 28 26  1  0  0  0  0
 29  5  1  0  0  0  0
 31  8  1  0  0  0  0
 33  8  1  0  0  0  0
 35 11  1  0  0  0  0
 38 14  1  0  0  0  0
 40 15  1  0  0  0  0
 41 16  1  0  0  0  0
 42 16  1  0  0  0  0
 44 18  1  0  0  0  0
 52 28  1  0  0  0  0
 53 28  1  0  0  0  0
M  END
>  <Pose>
1

>  <Score>
-6.02

$$$$
