
 OpenBabel03202209553D

 54 58  0  0  1  0  0  0  0  0999 V2000
   27.4940    9.6260   28.8380 Cl  0  0  0  0  0  0  0  0  0  0  0  0
   27.6740    8.0880   27.9790 C   0  0  0  0  0  0  0  0  0  0  0  0
   27.5170    6.8920   28.6350 C   0  0  0  0  0  0  0  0  0  0  0  0
   27.6580    5.7070   27.9630 C   0  0  0  0  0  0  0  0  0  0  0  0
   27.9590    5.7240   26.6250 C   0  0  0  0  0  0  0  0  0  0  0  0
   28.1240    6.9240   25.9320 C   0  0  0  0  0  0  0  0  0  0  0  0
   27.9760    8.0980   26.6350 C   0  0  0  0  0  0  0  0  0  0  0  0
   28.0670    4.4120   26.1070 N   0  0  0  0  0  0  0  0  0  0  0  0
   27.8180    3.5280   27.1900 C   0  0  0  0  0  0  0  0  0  0  0  0
   27.8290    2.2800   27.1290 O   0  0  0  0  0  0  0  0  0  0  0  0
   27.5420    4.3020   28.4160 C   0  0  1  0  0  0  0  0  0  0  0  0
   28.4590    3.9920   29.4850 N   0  0  0  0  0  0  0  0  0  0  0  0
   27.7290    4.0360   30.7130 C   0  0  1  0  0  0  0  0  0  0  0  0
   26.3210    3.5840   30.4020 C   0  0  2  0  0  0  0  0  0  0  0  0
   26.1990    3.9530   28.9460 C   0  0  1  0  0  0  0  0  0  0  0  0
   25.2050    5.0520   28.8730 C   0  0  0  0  0  0  0  0  0  0  0  0
   25.0290    5.9010   27.9620 O   0  0  0  0  0  0  0  0  0  0  0  0
   24.4380    4.9690   30.0910 N   0  0  0  0  0  0  0  0  0  0  0  0
   25.2820    4.3820   31.1020 C   0  0  0  0  0  0  0  0  0  0  0  0
   25.1770    4.5080   32.3500 O   0  0  0  0  0  0  0  0  0  0  0  0
   23.0670    5.3920   30.2850 C   0  0  0  0  0  0  0  0  0  0  0  0
   23.0320    6.7910   30.8070 C   0  0  0  0  0  0  0  0  0  0  0  0
   21.8970    7.2910   31.4100 C   0  0  0  0  0  0  0  0  0  0  0  0
   21.8900    8.5920   31.8860 C   0  0  0  0  0  0  0  0  0  0  0  0
   22.9920    9.4160   31.7780 C   0  0  0  0  0  0  0  0  0  0  0  0
   24.1310    8.9260   31.1770 C   0  0  0  0  0  0  0  0  0  0  0  0
   24.1250    7.6330   30.7080 C   0  0  0  0  0  0  0  0  0  0  0  0
   20.7820    6.4550   31.5190 O   0  0  0  0  0  0  0  0  0  0  0  0
   19.9430    6.5880   32.6720 C   0  0  0  0  0  0  0  0  0  0  0  0
   28.3700    3.1760   31.7810 C   0  0  2  0  0  0  0  0  0  0  0  0
   27.4880    3.1160   32.8570 O   0  0  0  0  0  0  0  0  0  0  0  0
   29.5950    3.9390   32.2730 C   0  0  0  0  0  0  0  0  0  0  0  0
   27.2810    6.9600   29.6880 H   0  0  0  0  0  0  0  0  0  0  0  0
   28.3610    6.9440   24.8770 H   0  0  0  0  0  0  0  0  0  0  0  0
   28.0940    9.0710   26.1490 H   0  0  0  0  0  0  0  0  0  0  0  0
   28.2880    4.1000   25.1160 H   0  0  0  0  0  0  0  0  0  0  0  0
   29.2520    4.6410   29.4740 H   0  0  0  0  0  0  0  0  0  0  0  0
   27.6900    5.0570   31.0880 H   0  0  0  0  0  0  0  0  0  0  0  0
   26.1800    2.5040   30.5960 H   0  0  0  0  0  0  0  0  0  0  0  0
   25.8350    3.0340   28.4250 H   0  0  0  0  0  0  0  0  0  0  0  0
   22.4700    5.3660   29.3480 H   0  0  0  0  0  0  0  0  0  0  0  0
   22.5290    4.7350   31.0030 H   0  0  0  0  0  0  0  0  0  0  0  0
   21.0110    8.9900   32.3570 H   0  0  0  0  0  0  0  0  0  0  0  0
   23.0060   10.4330   32.1440 H   0  0  0  0  0  0  0  0  0  0  0  0
   25.0270    9.5250   31.0620 H   0  0  0  0  0  0  0  0  0  0  0  0
   25.0070    7.2650   30.2480 H   0  0  0  0  0  0  0  0  0  0  0  0
   20.5670    6.3930   33.5590 H   0  0  0  0  0  0  0  0  0  0  0  0
   19.1120    5.8560   32.5820 H   0  0  0  0  0  0  0  0  0  0  0  0
   19.5130    7.5880   32.7570 H   0  0  0  0  0  0  0  0  0  0  0  0
   28.6120    2.1690   31.4280 H   0  0  0  0  0  0  0  0  0  0  0  0
   27.2490    4.0280   33.1380 H   0  0  0  0  0  0  0  0  0  0  0  0
   29.6690    3.8960   33.3880 H   0  0  0  0  0  0  0  0  0  0  0  0
   30.5200    3.5790   31.7800 H   0  0  0  0  0  0  0  0  0  0  0  0
   29.5100    5.0240   32.0300 H   0  0  0  0  0  0  0  0  0  0  0  0
  2  3  1  0  0  0  0
  2  1  1  0  0  0  0
  3 33  1  0  0  0  0
  4 11  1  0  0  0  0
  4  3  2  0  0  0  0
  5  4  1  0  0  0  0
  6  5  2  0  0  0  0
  6  7  1  0  0  0  0
  7  2  2  0  0  0  0
  8  5  1  0  0  0  0
  8  9  1  0  0  0  0
 10  9  2  0  0  0  0
 11  9  1  6  0  0  0
 11 15  1  0  0  0  0
 11 12  1  0  0  0  0
 12 13  1  0  0  0  0
 13 38  1  1  0  0  0
 13 30  1  0  0  0  0
 14 39  1  1  0  0  0
 14 13  1  0  0  0  0
 14 19  1  0  0  0  0
 15 40  1  6  0  0  0
 15 14  1  0  0  0  0
 16 15  1  0  0  0  0
 16 18  1  0  0  0  0
 17 16  2  0  0  0  0
 18 21  1  0  0  0  0
 18 19  1  0  0  0  0
 19 20  2  0  0  0  0
 21 22  1  0  0  0  0
 21 42  1  0  0  0  0
 22 23  1  0  0  0  0
 23 28  1  0  0  0  0
 23 24  2  0  0  0  0
 24 43  1  0  0  0  0
 25 24  1  0  0  0  0
 25 44  1  0  0  0  0
 26 25  2  0  0  0  0
 27 22  2  0  0  0  0
 27 26  1  0  0  0  0
 28 29  1  0  0  0  0
 29 49  1  0  0  0  0
 29 47  1  0  0  0  0
 30 50  1  6  0  0  0
 30 32  1  0  0  0  0
 30 31  1  0  0  0  0
 31 51  1  0  0  0  0
 32 52  1  0  0  0  0
 34  6  1  0  0  0  0
 35  7  1  0  0  0  0
 36  8  1  0  0  0  0
 37 12  1  0  0  0  0
 41 21  1  0  0  0  0
 45 26  1  0  0  0  0
 46 27  1  0  0  0  0
 48 29  1  0  0  0  0
 53 32  1  0  0  0  0
 54 32  1  0  0  0  0
M  END
>  <Pose>
1

>  <Score>
-5.94

$$$$
