
 OpenBabel03202209553D

 47 50  0  0  1  0  0  0  0  0999 V2000
   21.7970   17.0390   31.8550 Cl  0  0  0  0  0  0  0  0  0  0  0  0
   21.7140   15.3080   31.6670 C   0  0  0  0  0  0  0  0  0  0  0  0
   22.7650   14.5990   31.1400 C   0  0  0  0  0  0  0  0  0  0  0  0
   22.7370   13.2240   30.9790 C   0  0  0  0  0  0  0  0  0  0  0  0
   21.6150   12.5560   31.3650 C   0  0  0  0  0  0  0  0  0  0  0  0
   20.5220   13.2270   31.9050 C   0  0  0  0  0  0  0  0  0  0  0  0
   20.5890   14.5990   32.0470 C   0  0  0  0  0  0  0  0  0  0  0  0
   23.8390   12.5220   30.4150 N   0  0  0  0  0  0  0  0  0  0  0  0
   24.1730   12.8130   29.0590 C   0  0  0  0  0  0  0  0  0  0  0  0
   23.5610   13.6560   28.3580 O   0  0  0  0  0  0  0  0  0  0  0  0
   25.2630   12.1090   28.4670 N   0  0  0  0  0  0  0  0  0  0  0  0
   25.9810   11.1400   29.2450 C   0  0  0  0  0  0  0  0  0  0  0  0
   27.0790   10.7280   28.7420 O   0  0  0  0  0  0  0  0  0  0  0  0
   25.4930   10.6440   30.5450 C   0  0  1  0  0  0  0  0  0  0  0  0
   24.5400   11.5710   31.2040 C   0  0  0  0  0  0  0  0  0  0  0  0
   24.3850   11.4800   32.4470 O   0  0  0  0  0  0  0  0  0  0  0  0
   24.8610    9.2810   30.3890 C   0  0  0  0  0  0  0  0  0  0  0  0
   23.9560    8.9850   29.4740 C   0  0  0  0  0  0  0  0  0  0  0  0
   23.6280    7.5600   29.6990 C   0  0  1  0  0  0  0  0  0  0  0  0
   24.8630    7.0540   30.2680 N   0  0  0  0  0  0  0  0  0  0  0  0
   25.1490    8.1160   31.1620 N   0  0  0  0  0  0  0  0  0  0  0  0
   22.5060    7.4230   30.6690 C   0  0  0  0  0  0  0  0  0  0  0  0
   21.9700    6.2390   31.0870 C   0  0  0  0  0  0  0  0  0  0  0  0
   20.9540    6.1650   32.0190 C   0  0  0  0  0  0  0  0  0  0  0  0
   20.4320    7.3190   32.5750 C   0  0  0  0  0  0  0  0  0  0  0  0
   20.9870    8.5340   32.1420 C   0  0  0  0  0  0  0  0  0  0  0  0
   21.9980    8.5880   31.2110 C   0  0  0  0  0  0  0  0  0  0  0  0
   19.4250    7.2840   33.5090 O   0  0  0  0  0  0  0  0  0  0  0  0
   18.0630    7.2660   33.1370 C   0  0  0  0  0  0  0  0  0  0  0  0
   20.4360    4.9190   32.4150 O   0  0  0  0  0  0  0  0  0  0  0  0
   23.6800   15.1110   30.8240 H   0  0  0  0  0  0  0  0  0  0  0  0
   21.5580   11.4720   31.2530 H   0  0  0  0  0  0  0  0  0  0  0  0
   19.6730   12.6400   32.1830 H   0  0  0  0  0  0  0  0  0  0  0  0
   19.7380   15.1000   32.4630 H   0  0  0  0  0  0  0  0  0  0  0  0
   25.5630   12.2740   27.4720 H   0  0  0  0  0  0  0  0  0  0  0  0
   26.3840   10.5960   31.2140 H   0  0  0  0  0  0  0  0  0  0  0  0
   23.5640    9.6640   28.7360 H   0  0  0  0  0  0  0  0  0  0  0  0
   23.3810    7.0150   28.7650 H   0  0  0  0  0  0  0  0  0  0  0  0
   24.7960    6.1380   30.7180 H   0  0  0  0  0  0  0  0  0  0  0  0
   25.4800    8.1330   32.1260 H   0  0  0  0  0  0  0  0  0  0  0  0
   22.3420    5.3300   30.6860 H   0  0  0  0  0  0  0  0  0  0  0  0
   20.5530    9.4160   32.5960 H   0  0  0  0  0  0  0  0  0  0  0  0
   22.3700    9.5800   30.9320 H   0  0  0  0  0  0  0  0  0  0  0  0
   17.8440    8.0910   32.4060 H   0  0  0  0  0  0  0  0  0  0  0  0
   17.4020    7.5040   34.0190 H   0  0  0  0  0  0  0  0  0  0  0  0
   17.7450    6.3210   32.6720 H   0  0  0  0  0  0  0  0  0  0  0  0
   20.9310    4.0830   32.1210 H   0  0  0  0  0  0  0  0  0  0  0  0
  2  1  1  0  0  0  0
  2  7  1  0  0  0  0
  3  2  2  0  0  0  0
  4  3  1  0  0  0  0
  4  5  2  0  0  0  0
  5  6  1  0  0  0  0
  6  7  2  0  0  0  0
  6 33  1  0  0  0  0
  7 34  1  0  0  0  0
  8  4  1  0  0  0  0
  8 15  1  0  0  0  0
  9  8  1  0  0  0  0
 10  9  2  0  0  0  0
 11  9  1  0  0  0  0
 11 12  1  0  0  0  0
 12 14  1  0  0  0  0
 13 12  2  0  0  0  0
 14 15  1  0  0  0  0
 14 36  1  1  0  0  0
 15 16  2  0  0  0  0
 17 14  1  0  0  0  0
 17 21  1  0  0  0  0
 18 19  1  0  0  0  0
 18 17  2  0  0  0  0
 19 38  1  6  0  0  0
 19 20  1  0  0  0  0
 19 22  1  0  0  0  0
 20 39  1  0  0  0  0
 20 21  1  0  0  0  0
 21 40  1  0  0  0  0
 22 23  2  0  0  0  0
 22 27  1  0  0  0  0
 23 24  1  0  0  0  0
 24 30  1  0  0  0  0
 24 25  2  0  0  0  0
 25 28  1  0  0  0  0
 26 25  1  0  0  0  0
 26 42  1  0  0  0  0
 27 26  2  0  0  0  0
 29 28  1  0  0  0  0
 29 45  1  0  0  0  0
 31  3  1  0  0  0  0
 32  5  1  0  0  0  0
 35 11  1  0  0  0  0
 37 18  1  0  0  0  0
 41 23  1  0  0  0  0
 43 27  1  0  0  0  0
 44 29  1  0  0  0  0
 46 29  1  0  0  0  0
 47 30  1  0  0  0  0
M  END
>  <Pose>
1

>  <Score>
-8.22

$$$$
