
 OpenBabel03202209553D

 47 50  0  0  1  0  0  0  0  0999 V2000
   25.3990   16.3830   25.5600 Cl  0  0  0  0  0  0  0  0  0  0  0  0
   24.1720   17.2060   26.4840 C   0  0  0  0  0  0  0  0  0  0  0  0
   23.5670   16.5420   27.5280 C   0  0  0  0  0  0  0  0  0  0  0  0
   22.5760   17.1400   28.3160 C   0  0  0  0  0  0  0  0  0  0  0  0
   22.2410   18.4270   27.9910 C   0  0  0  0  0  0  0  0  0  0  0  0
   22.8400   19.0990   26.9470 C   0  0  0  0  0  0  0  0  0  0  0  0
   23.8300   18.4940   26.1670 C   0  0  0  0  0  0  0  0  0  0  0  0
   22.0270   16.3730   29.3780 N   0  0  0  0  0  0  0  0  0  0  0  0
   21.9280   16.8120   30.7230 C   0  0  0  0  0  0  0  0  0  0  0  0
   22.3590   17.9180   31.0760 O   0  0  0  0  0  0  0  0  0  0  0  0
   21.3200   15.9660   31.7100 N   0  0  0  0  0  0  0  0  0  0  0  0
   20.8050   14.6830   31.3610 C   0  0  0  0  0  0  0  0  0  0  0  0
   19.9250   14.1150   32.0310 O   0  0  0  0  0  0  0  0  0  0  0  0
   21.3560   14.0050   30.1340 C   0  0  1  0  0  0  0  0  0  0  0  0
   21.4880   15.0600   29.1080 C   0  0  0  0  0  0  0  0  0  0  0  0
   21.1200   14.8520   27.8960 O   0  0  0  0  0  0  0  0  0  0  0  0
   22.6550   13.3520   30.4770 C   0  0  0  0  0  0  0  0  0  0  0  0
   23.1120   12.9820   31.6550 C   0  0  0  0  0  0  0  0  0  0  0  0
   24.4600   12.3760   31.4730 C   0  0  2  0  0  0  0  0  0  0  0  0
   24.8740   13.0120   30.1960 N   0  0  0  0  0  0  0  0  0  0  0  0
   23.6590   13.0440   29.5010 N   0  0  0  0  0  0  0  0  0  0  0  0
   24.3030   10.9290   31.1640 C   0  0  0  0  0  0  0  0  0  0  0  0
   25.2390   10.2410   30.3620 C   0  0  0  0  0  0  0  0  0  0  0  0
   25.1560    8.9120   30.0810 C   0  0  0  0  0  0  0  0  0  0  0  0
   24.1100    8.1720   30.5970 C   0  0  0  0  0  0  0  0  0  0  0  0
   23.1780    8.8100   31.3830 C   0  0  0  0  0  0  0  0  0  0  0  0
   23.2740   10.1560   31.6590 C   0  0  0  0  0  0  0  0  0  0  0  0
   24.0100    6.8120   30.3220 O   0  0  0  0  0  0  0  0  0  0  0  0
   26.1120    8.2790   29.2730 O   0  0  0  0  0  0  0  0  0  0  0  0
   27.3540    8.9080   29.0460 C   0  0  0  0  0  0  0  0  0  0  0  0
   23.8390   15.5070   27.7890 H   0  0  0  0  0  0  0  0  0  0  0  0
   21.4860   18.9230   28.5620 H   0  0  0  0  0  0  0  0  0  0  0  0
   22.5730   20.1190   26.6870 H   0  0  0  0  0  0  0  0  0  0  0  0
   24.2990   19.0260   25.3520 H   0  0  0  0  0  0  0  0  0  0  0  0
   21.2590   16.3030   32.6800 H   0  0  0  0  0  0  0  0  0  0  0  0
   20.6380   13.2610   29.7360 H   0  0  0  0  0  0  0  0  0  0  0  0
   22.6370   13.0770   32.6150 H   0  0  0  0  0  0  0  0  0  0  0  0
   25.1510   12.5840   32.2840 H   0  0  0  0  0  0  0  0  0  0  0  0
   25.2560   13.9600   30.3840 H   0  0  0  0  0  0  0  0  0  0  0  0
   23.4950   12.8860   28.5120 H   0  0  0  0  0  0  0  0  0  0  0  0
   26.0440   10.8440   29.9740 H   0  0  0  0  0  0  0  0  0  0  0  0
   22.3730    8.2010   31.7620 H   0  0  0  0  0  0  0  0  0  0  0  0
   22.5230   10.6290   32.2850 H   0  0  0  0  0  0  0  0  0  0  0  0
   24.2010    6.1470   31.0590 H   0  0  0  0  0  0  0  0  0  0  0  0
   27.9640    8.9340   29.9570 H   0  0  0  0  0  0  0  0  0  0  0  0
   27.8790    8.2870   28.2780 H   0  0  0  0  0  0  0  0  0  0  0  0
   27.1600    9.9120   28.5980 H   0  0  0  0  0  0  0  0  0  0  0  0
  1  2  1  0  0  0  0
  2  3  1  0  0  0  0
  3 31  1  0  0  0  0
  3  4  2  0  0  0  0
  4  8  1  0  0  0  0
  5  4  1  0  0  0  0
  5 32  1  0  0  0  0
  6  5  2  0  0  0  0
  7  2  2  0  0  0  0
  7  6  1  0  0  0  0
  8  9  1  0  0  0  0
  9 10  2  0  0  0  0
  9 11  1  0  0  0  0
 11 35  1  0  0  0  0
 12 11  1  0  0  0  0
 12 13  2  0  0  0  0
 14 36  1  6  0  0  0
 14 17  1  0  0  0  0
 14 12  1  0  0  0  0
 15  8  1  0  0  0  0
 15 14  1  0  0  0  0
 16 15  2  0  0  0  0
 17 18  2  0  0  0  0
 18 37  1  0  0  0  0
 19 18  1  0  0  0  0
 19 38  1  1  0  0  0
 20 39  1  0  0  0  0
 20 19  1  0  0  0  0
 21 20  1  0  0  0  0
 21 17  1  0  0  0  0
 22 19  1  0  0  0  0
 22 27  1  0  0  0  0
 23 22  2  0  0  0  0
 24 23  1  0  0  0  0
 24 25  2  0  0  0  0
 25 26  1  0  0  0  0
 26 27  2  0  0  0  0
 26 42  1  0  0  0  0
 27 43  1  0  0  0  0
 28 25  1  0  0  0  0
 28 44  1  0  0  0  0
 29 24  1  0  0  0  0
 30 29  1  0  0  0  0
 30 45  1  0  0  0  0
 33  6  1  0  0  0  0
 34  7  1  0  0  0  0
 40 21  1  0  0  0  0
 41 23  1  0  0  0  0
 46 30  1  0  0  0  0
 47 30  1  0  0  0  0
M  END
>  <Pose>
1

>  <Score>
-6.56

$$$$
