
 OpenBabel03202209553D

 47 50  0  0  0  0  0  0  0  0999 V2000
   22.5830    9.3610   30.9460 S   0  0  0  0  0  0  0  0  0  0  0  0
   21.7730    9.5230   29.7000 O   0  0  0  0  0  0  0  0  0  0  0  0
   23.8350    8.6030   30.6030 O   0  0  0  0  0  0  0  0  0  0  0  0
   23.0190   10.8770   31.5530 N   0  0  0  0  0  0  0  0  0  0  0  0
   22.1560   11.9590   31.1910 C   0  0  0  0  0  0  0  0  0  0  0  0
   22.5290   12.5820   29.8590 C   0  0  0  0  0  0  0  0  0  0  0  0
   23.9450   12.8350   29.8420 N   0  0  0  0  0  0  0  0  0  0  0  0
   24.6960   12.5970   31.0580 C   0  0  0  0  0  0  0  0  0  0  0  0
   24.4090   11.1760   31.4920 C   0  0  0  0  0  0  0  0  0  0  0  0
   24.6320   13.3060   28.6860 C   0  0  0  0  0  0  0  0  0  0  0  0
   25.5250   12.6270   28.1290 O   0  0  0  0  0  0  0  0  0  0  0  0
   24.3110   14.6140   28.1100 C   0  0  0  0  0  0  0  0  0  0  0  0
   24.8960   15.1820   27.0200 N   0  0  0  0  0  0  0  0  0  0  0  0
   24.3370   16.3820   26.8000 C   0  0  0  0  0  0  0  0  0  0  0  0
   23.4120   16.5640   27.7420 N   0  0  0  0  0  0  0  0  0  0  0  0
   23.3760   15.5000   28.5550 C   0  0  0  0  0  0  0  0  0  0  0  0
   22.7010   17.7080   27.7390 C   0  0  0  0  0  0  0  0  0  0  0  0
   22.8650   18.7100   26.8230 C   0  0  0  0  0  0  0  0  0  0  0  0
   23.8250   18.5380   25.8320 C   0  0  0  0  0  0  0  0  0  0  0  0
   24.5460   17.3650   25.8450 C   0  0  0  0  0  0  0  0  0  0  0  0
   21.9170   20.1930   26.8500 Cl  0  0  0  0  0  0  0  0  0  0  0  0
   21.6890    8.3990   32.0530 N   0  0  0  0  0  0  0  0  0  0  0  0
   21.4230    7.0680   31.5380 C   0  0  0  0  0  0  0  0  0  0  0  0
   20.2080    6.5430   32.2660 C   0  0  0  0  0  0  0  0  0  0  0  0
   20.1550    7.0020   33.5780 O   0  0  0  0  0  0  0  0  0  0  0  0
   19.9240    8.3730   33.6580 C   0  0  0  0  0  0  0  0  0  0  0  0
   20.3970    8.9870   32.3550 C   0  0  0  0  0  0  0  0  0  0  0  0
   22.2870   12.7640   31.9560 H   0  0  0  0  0  0  0  0  0  0  0  0
   21.1150   11.6340   31.2420 H   0  0  0  0  0  0  0  0  0  0  0  0
   22.2030   11.8880   29.0380 H   0  0  0  0  0  0  0  0  0  0  0  0
   21.9670   13.5240   29.6940 H   0  0  0  0  0  0  0  0  0  0  0  0
   24.2840   13.3140   31.8180 H   0  0  0  0  0  0  0  0  0  0  0  0
   25.7660   12.7570   30.9120 H   0  0  0  0  0  0  0  0  0  0  0  0
   24.8320   11.0430   32.5290 H   0  0  0  0  0  0  0  0  0  0  0  0
   24.9360   10.4990   30.8130 H   0  0  0  0  0  0  0  0  0  0  0  0
   22.6980   15.4130   29.4060 H   0  0  0  0  0  0  0  0  0  0  0  0
   21.9330   17.8770   28.5070 H   0  0  0  0  0  0  0  0  0  0  0  0
   24.0140   19.2860   25.0700 H   0  0  0  0  0  0  0  0  0  0  0  0
   25.3100   17.1860   25.0870 H   0  0  0  0  0  0  0  0  0  0  0  0
   22.2930    6.3920   31.6650 H   0  0  0  0  0  0  0  0  0  0  0  0
   21.1770    7.1790   30.4600 H   0  0  0  0  0  0  0  0  0  0  0  0
   20.2720    5.4350   32.3240 H   0  0  0  0  0  0  0  0  0  0  0  0
   19.2560    6.8130   31.7840 H   0  0  0  0  0  0  0  0  0  0  0  0
   20.6060    8.7900   34.4510 H   0  0  0  0  0  0  0  0  0  0  0  0
   18.8710    8.6190   33.8780 H   0  0  0  0  0  0  0  0  0  0  0  0
   19.6530    8.7990   31.5530 H   0  0  0  0  0  0  0  0  0  0  0  0
   20.5030   10.0860   32.4270 H   0  0  0  0  0  0  0  0  0  0  0  0
  1  4  1  0  0  0  0
  1 22  1  0  0  0  0
  2  1  2  0  0  0  0
  3  1  2  0  0  0  0
  5 29  1  0  0  0  0
  5  4  1  0  0  0  0
  5 28  1  0  0  0  0
  6  5  1  0  0  0  0
  7  6  1  0  0  0  0
  7  8  1  0  0  0  0
  8  9  1  0  0  0  0
  8 32  1  0  0  0  0
  9  4  1  0  0  0  0
  9 34  1  0  0  0  0
 10  7  1  0  0  0  0
 11 10  2  0  0  0  0
 12 16  2  0  0  0  0
 12 10  1  0  0  0  0
 13 12  1  0  0  0  0
 14 13  2  0  0  0  0
 14 15  1  0  0  0  0
 15 16  1  0  0  0  0
 16 36  1  0  0  0  0
 17 15  1  0  0  0  0
 17 37  1  0  0  0  0
 18 21  1  0  0  0  0
 18 17  2  0  0  0  0
 19 20  2  0  0  0  0
 19 18  1  0  0  0  0
 20 14  1  0  0  0  0
 22 27  1  0  0  0  0
 23 40  1  0  0  0  0
 23 22  1  0  0  0  0
 23 24  1  0  0  0  0
 24 42  1  0  0  0  0
 24 25  1  0  0  0  0
 25 26  1  0  0  0  0
 26 45  1  0  0  0  0
 26 44  1  0  0  0  0
 27 47  1  0  0  0  0
 27 26  1  0  0  0  0
 30  6  1  0  0  0  0
 31  6  1  0  0  0  0
 33  8  1  0  0  0  0
 35  9  1  0  0  0  0
 38 19  1  0  0  0  0
 39 20  1  0  0  0  0
 41 23  1  0  0  0  0
 43 24  1  0  0  0  0
 46 27  1  0  0  0  0
M  END
>  <Pose>
1

>  <Score>
-6.29

$$$$
