
 OpenBabel03202209553D

 47 51  0  0  1  0  0  0  0  0999 V2000
   29.5390   18.0960   24.6290 I   0  0  0  0  0  0  0  0  0  0  0  0
   28.4450   16.6880   25.7490 C   0  0  0  0  0  0  0  0  0  0  0  0
   28.9720   16.0910   26.8750 C   0  0  0  0  0  0  0  0  0  0  0  0
   28.2500   15.1570   27.6200 C   0  0  0  0  0  0  0  0  0  0  0  0
   26.9920   14.8270   27.2260 C   0  0  0  0  0  0  0  0  0  0  0  0
   26.4740   15.4330   26.0950 C   0  0  0  0  0  0  0  0  0  0  0  0
   27.1710   16.3570   25.3460 C   0  0  0  0  0  0  0  0  0  0  0  0
   26.1650   13.8760   27.9250 N   0  0  0  0  0  0  0  0  0  0  0  0
   26.5170   12.6680   28.3240 N   0  0  0  0  0  0  0  0  0  0  0  0
   25.5050   12.0340   28.9500 C   0  0  0  0  0  0  0  0  0  0  0  0
   25.4790   10.8330   29.4770 C   0  0  0  0  0  0  0  0  0  0  0  0
   24.4350   12.9070   28.9450 C   0  0  0  0  0  0  0  0  0  0  0  0
   23.2210   12.6760   29.4670 C   0  0  0  0  0  0  0  0  0  0  0  0
   22.2700   13.7260   29.3450 N   0  0  0  0  0  4  0  0  0  0  0  0
   21.8500   14.4290   30.5470 C   0  0  1  0  0  0  0  0  0  0  0  0
   21.8020   15.9260   30.2810 C   0  0  0  0  0  0  0  0  0  0  0  0
   21.3280   16.5970   31.4600 N   0  0  2  0  0  0  0  0  0  0  0  0
   22.2740   16.3120   32.5340 C   0  0  0  0  0  0  0  0  0  0  0  0
   22.3140   14.9110   32.8430 N   0  0  1  0  0  0  0  0  0  0  0  0
   20.9930   14.4220   33.1680 C   0  0  0  0  0  0  0  0  0  0  0  0
   20.0480   14.6740   32.1120 N   0  0  1  0  0  0  0  0  0  0  0  0
   20.0110   16.0940   31.7780 C   0  0  0  0  0  0  0  0  0  0  0  0
   20.4630   13.9600   30.9270 C   0  0  0  0  0  0  0  0  0  0  0  0
   22.7970   14.2000   31.6860 C   0  0  0  0  0  0  0  0  0  0  0  0
   24.8850   14.0390   28.3000 C   0  0  0  0  0  0  0  0  0  0  0  0
   24.2050   15.0740   28.0900 O   0  0  0  0  0  0  0  0  0  0  0  0
   29.9790   16.3850   27.1520 H   0  0  0  0  0  0  0  0  0  0  0  0
   28.6760   14.6990   28.4990 H   0  0  0  0  0  0  0  0  0  0  0  0
   25.4660   15.1610   25.7880 H   0  0  0  0  0  0  0  0  0  0  0  0
   26.7330   16.8210   24.4530 H   0  0  0  0  0  0  0  0  0  0  0  0
   27.4600   12.2340   28.1830 H   0  0  0  0  0  0  0  0  0  0  0  0
   24.5860   10.4640   29.9480 H   0  0  0  0  0  0  0  0  0  0  0  0
   26.3440   10.1920   29.4540 H   0  0  0  0  0  0  0  0  0  0  0  0
   22.9910   11.7360   29.9540 H   0  0  0  0  0  0  0  0  0  0  0  0
   21.8490   14.0290   28.4450 H   0  0  0  0  0  0  0  0  0  0  0  0
   22.8410   16.2230   30.0110 H   0  0  0  0  0  0  0  0  0  0  0  0
   21.1880   16.0930   29.3850 H   0  0  0  0  0  0  0  0  0  0  0  0
   22.1050   16.9560   33.4190 H   0  0  0  0  0  0  0  0  0  0  0  0
   23.2850   16.5980   32.1240 H   0  0  0  0  0  0  0  0  0  0  0  0
   20.6120   14.9380   34.0870 H   0  0  0  0  0  0  0  0  0  0  0  0
   21.0370   13.3300   33.3430 H   0  0  0  0  0  0  0  0  0  0  0  0
   19.3930   16.1820   30.8520 H   0  0  0  0  0  0  0  0  0  0  0  0
   19.5120   16.6950   32.5670 H   0  0  0  0  0  0  0  0  0  0  0  0
   20.5130   12.8790   31.1890 H   0  0  0  0  0  0  0  0  0  0  0  0
   19.7930   14.1460   30.0670 H   0  0  0  0  0  0  0  0  0  0  0  0
   23.8060   14.5370   31.3770 H   0  0  0  0  0  0  0  0  0  0  0  0
   22.8800   13.1160   31.9430 H   0  0  0  0  0  0  0  0  0  0  0  0
  1  2  1  0  0  0  0
  2  3  1  0  0  0  0
  3 27  1  0  0  0  0
  3  4  2  0  0  0  0
  4 28  1  0  0  0  0
  5  4  1  0  0  0  0
  5  8  1  0  0  0  0
  6  5  2  0  0  0  0
  7  2  2  0  0  0  0
  7  6  1  0  0  0  0
  8 25  1  0  0  0  0
  8  9  1  0  0  0  0
  9 10  1  0  0  0  0
 10 11  1  0  0  0  0
 11 32  1  0  0  0  0
 12 10  2  0  0  0  0
 12 13  1  0  0  0  0
 13 34  1  0  0  0  0
 14 13  2  0  0  0  0
 15 14  1  6  0  0  0
 15 23  1  0  0  0  0
 15 24  1  0  0  0  0
 16 15  1  0  0  0  0
 17 16  1  6  0  0  0
 17 22  1  0  0  0  0
 17 18  1  0  0  0  0
 18 19  1  0  0  0  0
 18 38  1  0  0  0  0
 19 24  1  6  0  0  0
 19 20  1  0  0  0  0
 20 41  1  0  0  0  0
 20 40  1  0  0  0  0
 21 23  1  6  0  0  0
 21 20  1  0  0  0  0
 22 21  1  0  0  0  0
 22 43  1  0  0  0  0
 23 44  1  0  0  0  0
 24 47  1  0  0  0  0
 25 12  1  0  0  0  0
 26 25  2  0  0  0  0
 29  6  1  0  0  0  0
 30  7  1  0  0  0  0
 31  9  1  0  0  0  0
 33 11  1  0  0  0  0
 35 14  1  0  0  0  0
 36 16  1  0  0  0  0
 37 16  1  0  0  0  0
 39 18  1  0  0  0  0
 42 22  1  0  0  0  0
 45 23  1  0  0  0  0
 46 24  1  0  0  0  0
M  END
>  <Pose>
1

>  <Score>
-6.11

$$$$
