
 OpenBabel03202209553D

 42 45  0  0  0  0  0  0  0  0999 V2000
   27.3780    5.0320   26.7370 Cl  0  0  0  0  0  0  0  0  0  0  0  0
   26.8040    6.2730   27.8530 C   0  0  0  0  0  0  0  0  0  0  0  0
   25.7660    6.0650   28.7160 C   0  0  0  0  0  0  0  0  0  0  0  0
   25.2900    7.0080   29.6030 C   0  0  0  0  0  0  0  0  0  0  0  0
   25.9200    8.2490   29.6040 C   0  0  0  0  0  0  0  0  0  0  0  0
   26.9860    8.4690   28.7210 C   0  0  0  0  0  0  0  0  0  0  0  0
   27.4200    7.5000   27.8620 C   0  0  0  0  0  0  0  0  0  0  0  0
   25.4880    9.2640   30.4840 N   0  0  0  0  0  0  0  0  0  0  0  0
   25.3200    9.1280   31.7780 N   0  0  0  0  0  0  0  0  0  0  0  0
   24.9080   10.3070   32.2340 N   0  0  0  0  0  0  0  0  0  0  0  0
   24.8100   11.2020   31.2330 C   0  0  0  0  0  0  0  0  0  0  0  0
   25.1790   10.5270   30.1390 C   0  0  0  0  0  0  0  0  0  0  0  0
   25.0810   11.4470   29.1050 C   0  0  0  0  0  0  0  0  0  0  0  0
   25.3470   11.1850   27.9100 O   0  0  0  0  0  0  0  0  0  0  0  0
   24.6660   12.6460   29.5390 N   0  0  0  0  0  0  0  0  0  0  0  0
   24.4970   12.4950   30.8660 C   0  0  0  0  0  0  0  0  0  0  0  0
   24.1090   13.4030   31.6600 O   0  0  0  0  0  0  0  0  0  0  0  0
   24.4400   13.8430   28.8000 C   0  0  0  0  0  0  0  0  0  0  0  0
   25.3710   14.3770   27.9310 C   0  0  0  0  0  0  0  0  0  0  0  0
   25.1430   15.5350   27.2170 C   0  0  0  0  0  0  0  0  0  0  0  0
   23.9560   16.2250   27.3450 C   0  0  0  0  0  0  0  0  0  0  0  0
   23.0160   15.7040   28.2100 C   0  0  0  0  0  0  0  0  0  0  0  0
   23.2530   14.5410   28.9200 C   0  0  0  0  0  0  0  0  0  0  0  0
   23.7350   17.3940   26.6210 O   0  0  0  0  0  0  0  0  0  0  0  0
   23.0480   18.4980   27.1250 C   0  0  0  0  0  0  0  0  0  0  0  0
   26.0820   16.0730   26.3420 O   0  0  0  0  0  0  0  0  0  0  0  0
   27.1710   15.2480   25.9700 C   0  0  0  0  0  0  0  0  0  0  0  0
   25.2760    5.0900   28.7090 H   0  0  0  0  0  0  0  0  0  0  0  0
   24.4630    6.8110   30.2740 H   0  0  0  0  0  0  0  0  0  0  0  0
   27.4880    9.4420   28.7160 H   0  0  0  0  0  0  0  0  0  0  0  0
   28.2530    7.6580   27.1660 H   0  0  0  0  0  0  0  0  0  0  0  0
   25.4800    8.2510   32.3560 H   0  0  0  0  0  0  0  0  0  0  0  0
   24.6950   10.4830   33.2450 H   0  0  0  0  0  0  0  0  0  0  0  0
   26.3030   13.8430   27.8250 H   0  0  0  0  0  0  0  0  0  0  0  0
   22.0830   16.2430   28.3110 H   0  0  0  0  0  0  0  0  0  0  0  0
   22.5060   14.1400   29.5970 H   0  0  0  0  0  0  0  0  0  0  0  0
   22.6470   19.1650   26.3340 H   0  0  0  0  0  0  0  0  0  0  0  0
   22.1650   18.2020   27.7500 H   0  0  0  0  0  0  0  0  0  0  0  0
   23.7340   19.0740   27.7760 H   0  0  0  0  0  0  0  0  0  0  0  0
   26.8080   14.2580   25.6460 H   0  0  0  0  0  0  0  0  0  0  0  0
   27.7900   15.7070   25.1780 H   0  0  0  0  0  0  0  0  0  0  0  0
   27.8270   15.1350   26.8570 H   0  0  0  0  0  0  0  0  0  0  0  0
  1  2  1  0  0  0  0
  2  7  2  0  0  0  0
  2  3  1  0  0  0  0
  3  4  2  0  0  0  0
  4  5  1  0  0  0  0
  4 29  1  0  0  0  0
  5  8  1  0  0  0  0
  6  5  2  0  0  0  0
  7  6  1  0  0  0  0
  8  9  1  0  0  0  0
  9 10  1  0  0  0  0
  9 32  1  0  0  0  0
 10 33  1  0  0  0  0
 11 10  1  0  0  0  0
 12  8  1  0  0  0  0
 12 11  2  0  0  0  0
 13 15  1  0  0  0  0
 13 12  1  0  0  0  0
 14 13  2  0  0  0  0
 15 16  1  0  0  0  0
 16 11  1  0  0  0  0
 16 17  2  0  0  0  0
 18 23  1  0  0  0  0
 18 15  1  0  0  0  0
 19 18  2  0  0  0  0
 20 21  2  0  0  0  0
 20 19  1  0  0  0  0
 21 22  1  0  0  0  0
 22 35  1  0  0  0  0
 22 23  2  0  0  0  0
 23 36  1  0  0  0  0
 24 25  1  0  0  0  0
 24 21  1  0  0  0  0
 25 38  1  0  0  0  0
 25 39  1  0  0  0  0
 26 20  1  0  0  0  0
 27 26  1  0  0  0  0
 27 42  1  0  0  0  0
 28  3  1  0  0  0  0
 30  6  1  0  0  0  0
 31  7  1  0  0  0  0
 34 19  1  0  0  0  0
 37 25  1  0  0  0  0
 40 27  1  0  0  0  0
 41 27  1  0  0  0  0
M  END
>  <Pose>
1

>  <Score>
-6.29

$$$$
