
 OpenBabel03202209553D

 42 45  0  0  1  0  0  0  0  0999 V2000
   24.8120    5.3500   29.5370 Cl  0  0  0  0  0  0  0  0  0  0  0  0
   23.3950    5.8670   30.4510 C   0  0  0  0  0  0  0  0  0  0  0  0
   23.1720    7.2110   30.6930 C   0  0  0  0  0  0  0  0  0  0  0  0
   22.0770    7.6260   31.4000 C   0  0  1  0  0  0  0  0  0  0  0  0
   21.2210    6.6500   31.8520 C   0  0  0  0  0  0  0  0  0  0  0  0
   21.4180    5.3130   31.6250 C   0  0  0  0  0  0  0  0  0  0  0  0
   22.5310    4.9070   30.9080 C   0  0  0  0  0  0  0  0  0  0  0  0
   20.0280    7.0600   32.6190 C   0  0  0  0  0  0  0  0  0  0  0  0
   19.0650    6.4020   33.1610 N   0  0  0  0  0  0  0  0  0  0  0  0
   18.1190    7.2610   33.8120 C   0  0  0  0  0  0  0  0  0  0  0  0
   18.6450    8.6420   33.5950 C   0  0  0  0  0  0  0  0  0  0  0  0
   19.8570    8.4510   32.8340 N   0  0  0  0  0  0  0  0  0  0  0  0
   20.7830    9.4280   32.3380 C   0  0  0  0  0  0  0  0  0  0  0  0
   20.8230   10.7660   32.4190 N   0  0  0  0  0  0  0  0  0  0  0  0
   21.8930   11.2270   31.7950 N   0  0  0  0  0  0  0  0  0  0  0  0
   22.5290   10.1420   31.3190 C   0  0  0  0  0  0  0  0  0  0  0  0
   23.5980   10.1890   30.6630 O   0  0  0  0  0  0  0  0  0  0  0  0
   21.8560    9.0060   31.6450 N   0  0  0  0  0  0  0  0  0  0  0  0
   22.3200   12.6140   31.6410 C   0  0  0  0  0  0  0  0  0  0  0  0
   21.8590   13.1130   30.3240 C   0  0  0  0  0  0  0  0  0  0  0  0
   22.5470   12.8480   29.2990 O   0  0  0  0  0  0  0  0  0  0  0  0
   20.6740   13.8790   30.1650 N   0  0  0  0  0  0  0  0  0  0  0  0
   20.1540   14.6710   31.2570 C   0  0  0  0  0  0  0  0  0  0  0  0
   21.0080   15.9240   31.4660 C   0  0  0  0  0  0  0  0  0  0  0  0
   18.7850   15.1720   30.8180 C   0  0  0  0  0  0  0  0  0  0  0  0
   23.8670    7.9310   30.3220 H   0  0  0  0  0  0  0  0  0  0  0  0
   20.7510    4.5350   31.9760 H   0  0  0  0  0  0  0  0  0  0  0  0
   22.6940    3.8340   30.7230 H   0  0  0  0  0  0  0  0  0  0  0  0
   17.1390    7.1360   33.2820 H   0  0  0  0  0  0  0  0  0  0  0  0
   18.0020    7.0080   34.8910 H   0  0  0  0  0  0  0  0  0  0  0  0
   17.9260    9.3080   33.0760 H   0  0  0  0  0  0  0  0  0  0  0  0
   18.9690    9.0800   34.5750 H   0  0  0  0  0  0  0  0  0  0  0  0
   21.7860   13.1970   32.4120 H   0  0  0  0  0  0  0  0  0  0  0  0
   23.3990   12.7460   31.8080 H   0  0  0  0  0  0  0  0  0  0  0  0
   20.2020   13.8450   29.2390 H   0  0  0  0  0  0  0  0  0  0  0  0
   20.0500   14.0880   32.1840 H   0  0  0  0  0  0  0  0  0  0  0  0
   21.3840   16.2020   30.4550 H   0  0  0  0  0  0  0  0  0  0  0  0
   20.3430   16.6900   31.8900 H   0  0  0  0  0  0  0  0  0  0  0  0
   21.8590   15.6910   32.1510 H   0  0  0  0  0  0  0  0  0  0  0  0
   18.9640   16.0570   30.1730 H   0  0  0  0  0  0  0  0  0  0  0  0
   18.1720   15.5040   31.6740 H   0  0  0  0  0  0  0  0  0  0  0  0
   18.3070   14.3910   30.2110 H   0  0  0  0  0  0  0  0  0  0  0  0
  1  2  1  0  0  0  0
  2  3  2  0  0  0  0
  2  7  1  0  0  0  0
  4  3  1  1  0  0  0
  4 18  1  0  0  0  0
  4  5  1  0  0  0  0
  5  8  2  0  0  0  0
  6  5  1  0  0  0  0
  6 27  1  0  0  0  0
  7  6  2  0  0  0  0
  8 12  1  0  0  0  0
  8  9  1  0  0  0  0
  9 10  1  0  0  0  0
 10 30  1  0  0  0  0
 11 10  1  0  0  0  0
 11 32  1  0  0  0  0
 12 11  1  0  0  0  0
 13 14  2  0  0  0  0
 13 12  1  0  0  0  0
 15 14  1  0  0  0  0
 16 18  1  0  0  0  0
 16 15  1  0  0  0  0
 17 16  2  0  0  0  0
 18 13  1  0  0  0  0
 19 15  1  0  0  0  0
 19 34  1  0  0  0  0
 19 33  1  0  0  0  0
 20 19  1  0  0  0  0
 21 20  2  0  0  0  0
 22 20  1  0  0  0  0
 22 23  1  0  0  0  0
 23 24  1  0  0  0  0
 23 36  1  0  0  0  0
 24 38  1  0  0  0  0
 24 39  1  0  0  0  0
 25 23  1  0  0  0  0
 25 41  1  0  0  0  0
 26  3  1  0  0  0  0
 28  7  1  0  0  0  0
 29 10  1  0  0  0  0
 31 11  1  0  0  0  0
 35 22  1  0  0  0  0
 37 24  1  0  0  0  0
 40 25  1  0  0  0  0
 42 25  1  0  0  0  0
M  END
>  <Pose>
1

>  <Score>
-7.60

$$$$
