
 OpenBabel03202209553D

 43 47  0  0  1  0  0  0  0  0999 V2000
   25.3880    4.3610   29.6660 Cl  0  0  0  0  0  0  0  0  0  0  0  0
   24.0060    5.1170   30.4300 C   0  0  0  0  0  0  0  0  0  0  0  0
   23.7650    6.4800   30.3730 C   0  0  0  0  0  0  0  0  0  0  0  0
   22.6750    7.0610   30.9780 C   0  0  2  0  0  0  0  0  0  0  0  0
   21.8220    6.2200   31.6500 C   0  0  0  0  0  0  0  0  0  0  0  0
   22.0120    4.8610   31.7390 C   0  0  0  0  0  0  0  0  0  0  0  0
   23.1290    4.3020   31.1140 C   0  0  0  0  0  0  0  0  0  0  0  0
   20.6420    6.8090   32.3120 C   0  0  0  0  0  0  0  0  0  0  0  0
   19.6960    6.2760   32.9970 N   0  0  0  0  0  0  0  0  0  0  0  0
   18.7420    7.2520   33.4530 C   0  0  0  0  0  0  0  0  0  0  0  0
   19.2590    8.5520   32.9240 C   0  0  0  0  0  0  0  0  0  0  0  0
   20.4610    8.2060   32.2120 N   0  0  0  0  0  0  0  0  0  0  0  0
   21.3910    9.0400   31.4910 C   0  0  0  0  0  0  0  0  0  0  0  0
   21.4270   10.3680   31.2640 N   0  0  0  0  0  0  0  0  0  0  0  0
   22.4940   10.6590   30.5390 N   0  0  0  0  0  0  0  0  0  0  0  0
   23.1140    9.4870   30.3250 C   0  0  0  0  0  0  0  0  0  0  0  0
   24.1840    9.3920   29.6580 O   0  0  0  0  0  0  0  0  0  0  0  0
   22.4520    8.4630   30.9040 N   0  0  0  0  0  0  0  0  0  0  0  0
   22.9220   11.9830   30.0640 C   0  0  0  0  0  0  0  0  0  0  0  0
   23.0930   12.8660   31.2470 C   0  0  0  0  0  0  0  0  0  0  0  0
   24.1730   12.7560   31.8810 O   0  0  0  0  0  0  0  0  0  0  0  0
   22.0900   13.7880   31.6510 N   0  0  0  0  0  0  0  0  0  0  0  0
   20.6650   13.5840   31.4690 C   0  0  0  0  0  0  0  0  0  0  0  0
   20.0000   14.8780   31.8570 C   0  0  0  0  0  0  0  0  0  0  0  0
   21.1340   15.8710   31.7110 C   0  0  0  0  0  0  0  0  0  0  0  0
   22.2940   15.0610   32.3000 C   0  0  0  0  0  0  0  0  0  0  0  0
   24.4530    7.0890   29.8410 H   0  0  0  0  0  0  0  0  0  0  0  0
   21.3320    4.2320   32.2690 H   0  0  0  0  0  0  0  0  0  0  0  0
   23.2550    3.2370   31.1980 H   0  0  0  0  0  0  0  0  0  0  0  0
   18.7190    7.3140   34.5720 H   0  0  0  0  0  0  0  0  0  0  0  0
   17.7190    7.0420   33.0610 H   0  0  0  0  0  0  0  0  0  0  0  0
   19.4440    9.2900   33.7340 H   0  0  0  0  0  0  0  0  0  0  0  0
   18.5360    8.9470   32.1700 H   0  0  0  0  0  0  0  0  0  0  0  0
   22.1540   12.3900   29.3750 H   0  0  0  0  0  0  0  0  0  0  0  0
   23.8860   11.8400   29.5530 H   0  0  0  0  0  0  0  0  0  0  0  0
   20.3760   12.7550   32.1440 H   0  0  0  0  0  0  0  0  0  0  0  0
   20.4860   13.3390   30.3990 H   0  0  0  0  0  0  0  0  0  0  0  0
   19.7300   14.8590   32.9380 H   0  0  0  0  0  0  0  0  0  0  0  0
   19.1330   15.1370   31.2170 H   0  0  0  0  0  0  0  0  0  0  0  0
   20.9440   16.7910   32.2660 H   0  0  0  0  0  0  0  0  0  0  0  0
   21.3250   16.0530   30.6190 H   0  0  0  0  0  0  0  0  0  0  0  0
   23.2630   15.5190   32.1180 H   0  0  0  0  0  0  0  0  0  0  0  0
   22.0550   14.9130   33.3740 H   0  0  0  0  0  0  0  0  0  0  0  0
  1  2  1  0  0  0  0
  2  7  1  0  0  0  0
  3  2  2  0  0  0  0
  4  3  1  6  0  0  0
  4  5  1  0  0  0  0
  5  6  1  0  0  0  0
  5  8  2  0  0  0  0
  6 28  1  0  0  0  0
  7 29  1  0  0  0  0
  7  6  2  0  0  0  0
  8  9  1  0  0  0  0
  9 10  1  0  0  0  0
 10 30  1  0  0  0  0
 11 10  1  0  0  0  0
 11 32  1  0  0  0  0
 12  8  1  0  0  0  0
 12 11  1  0  0  0  0
 13 12  1  0  0  0  0
 14 13  2  0  0  0  0
 15 14  1  0  0  0  0
 16 15  1  0  0  0  0
 16 18  1  0  0  0  0
 17 16  2  0  0  0  0
 18  4  1  0  0  0  0
 18 13  1  0  0  0  0
 19 15  1  0  0  0  0
 19 20  1  0  0  0  0
 20 22  1  0  0  0  0
 20 21  2  0  0  0  0
 22 26  1  0  0  0  0
 23 22  1  0  0  0  0
 23 24  1  0  0  0  0
 23 36  1  0  0  0  0
 24 38  1  0  0  0  0
 25 24  1  0  0  0  0
 25 40  1  0  0  0  0
 25 26  1  0  0  0  0
 26 43  1  0  0  0  0
 27  3  1  0  0  0  0
 31 10  1  0  0  0  0
 33 11  1  0  0  0  0
 34 19  1  0  0  0  0
 35 19  1  0  0  0  0
 37 23  1  0  0  0  0
 39 24  1  0  0  0  0
 41 25  1  0  0  0  0
 42 26  1  0  0  0  0
M  END
>  <Pose>
1

>  <Score>
-6.88

$$$$
