
 OpenBabel03202209553D

 47 50  0  0  0  0  0  0  0  0999 V2000
   27.4870    4.0120   28.3880 Cl  0  0  0  0  0  0  0  0  0  0  0  0
   26.0100    4.6080   29.1430 C   0  0  0  0  0  0  0  0  0  0  0  0
   25.3390    3.9050   30.0960 C   0  0  0  0  0  0  0  0  0  0  0  0
   24.1850    4.4120   30.6610 C   0  0  0  0  0  0  0  0  0  0  0  0
   23.6950    5.6330   30.2730 C   0  0  0  0  0  0  0  0  0  0  0  0
   24.3730    6.3390   29.3130 C   0  0  0  0  0  0  0  0  0  0  0  0
   25.5290    5.8340   28.7450 C   0  0  0  0  0  0  0  0  0  0  0  0
   22.4900    6.1940   30.8410 N   0  0  0  0  0  0  0  0  0  0  0  0
   21.7590    5.5000   31.8330 C   0  0  0  0  0  0  0  0  0  0  0  0
   20.6620    5.9770   32.3730 C   0  0  0  0  0  0  0  0  0  0  0  0
   20.0340    7.2170   32.0780 N   0  0  0  0  0  0  0  0  0  0  0  0
   19.5810    8.1420   33.0960 C   0  0  0  0  0  0  0  0  0  0  0  0
   20.0350    9.5470   32.6670 C   0  0  0  0  0  0  0  0  0  0  0  0
   20.8880    9.5090   31.5290 N   0  0  0  0  0  0  0  0  0  0  0  0
   20.2650    8.9630   30.3250 C   0  0  0  0  0  0  0  0  0  0  0  0
   19.7980    7.5750   30.6930 C   0  0  0  0  0  0  0  0  0  0  0  0
   22.2440    9.9050   31.4130 C   0  0  0  0  0  0  0  0  0  0  0  0
   23.2230    8.9730   31.7130 N   0  0  0  0  0  0  0  0  0  0  0  0
   24.5290    9.2240   31.6570 C   0  0  0  0  0  0  0  0  0  0  0  0
   24.9310   10.4750   31.2810 C   0  0  0  0  0  0  0  0  0  0  0  0
   23.9930   11.4210   30.9760 C   0  0  0  0  0  0  0  0  0  0  0  0
   22.6090   11.1620   31.0320 C   0  0  0  0  0  0  0  0  0  0  0  0
   21.6540   12.1670   30.6770 C   0  0  0  0  0  0  0  0  0  0  0  0
   20.8620   12.7090   31.4440 O   0  0  0  0  0  0  0  0  0  0  0  0
   21.5950   12.5950   29.3220 N   0  0  0  0  0  0  0  0  0  0  0  0
   22.2580    4.2120   32.2570 N   0  0  0  0  0  0  0  0  0  0  0  0
   23.4410    3.6880   31.6810 C   0  0  0  0  0  0  0  0  0  0  0  0
   23.9010    2.5500   32.0400 O   0  0  0  0  0  0  0  0  0  0  0  0
   25.6870    2.9520   30.4230 H   0  0  0  0  0  0  0  0  0  0  0  0
   23.9730    7.3010   29.0170 H   0  0  0  0  0  0  0  0  0  0  0  0
   26.0540    6.3900   27.9980 H   0  0  0  0  0  0  0  0  0  0  0  0
   22.1680    7.1200   30.5100 H   0  0  0  0  0  0  0  0  0  0  0  0
   20.1810    5.3430   33.1350 H   0  0  0  0  0  0  0  0  0  0  0  0
   19.9800    7.9510   34.0910 H   0  0  0  0  0  0  0  0  0  0  0  0
   18.4540    8.0900   33.1350 H   0  0  0  0  0  0  0  0  0  0  0  0
   20.5380    9.9770   33.5240 H   0  0  0  0  0  0  0  0  0  0  0  0
   19.0630   10.0370   32.4060 H   0  0  0  0  0  0  0  0  0  0  0  0
   20.9570    8.8790   29.4860 H   0  0  0  0  0  0  0  0  0  0  0  0
   19.3860    9.5670   30.0210 H   0  0  0  0  0  0  0  0  0  0  0  0
   18.6960    7.4670   30.5430 H   0  0  0  0  0  0  0  0  0  0  0  0
   20.2730    6.8160   30.0250 H   0  0  0  0  0  0  0  0  0  0  0  0
   25.2400    8.4330   31.9100 H   0  0  0  0  0  0  0  0  0  0  0  0
   25.9730   10.7010   31.2280 H   0  0  0  0  0  0  0  0  0  0  0  0
   24.2660   12.4430   30.6680 H   0  0  0  0  0  0  0  0  0  0  0  0
   21.8060   11.9320   28.5420 H   0  0  0  0  0  0  0  0  0  0  0  0
   21.3460   13.5670   29.0330 H   0  0  0  0  0  0  0  0  0  0  0  0
   21.7460    3.6730   32.9840 H   0  0  0  0  0  0  0  0  0  0  0  0
  1  2  1  0  0  0  0
  2  3  1  0  0  0  0
  3 29  1  0  0  0  0
  3  4  2  0  0  0  0
  4 27  1  0  0  0  0
  5  4  1  0  0  0  0
  5  8  1  0  0  0  0
  6  5  2  0  0  0  0
  7  2  2  0  0  0  0
  7  6  1  0  0  0  0
  8  9  1  0  0  0  0
  9 26  1  0  0  0  0
  9 10  2  0  0  0  0
 10 33  1  0  0  0  0
 11 10  1  0  0  0  0
 11 12  1  0  0  0  0
 12 35  1  0  0  0  0
 12 34  1  0  0  0  0
 13 12  1  0  0  0  0
 13 36  1  0  0  0  0
 14 13  1  0  0  0  0
 15 16  1  0  0  0  0
 15 14  1  0  0  0  0
 16 11  1  0  0  0  0
 17 14  1  0  0  0  0
 17 18  1  0  0  0  0
 19 18  2  0  0  0  0
 19 42  1  0  0  0  0
 20 19  1  0  0  0  0
 21 22  1  0  0  0  0
 21 20  2  0  0  0  0
 22 17  2  0  0  0  0
 23 22  1  0  0  0  0
 23 24  2  0  0  0  0
 25 23  1  0  0  0  0
 26 47  1  0  0  0  0
 27 28  2  0  0  0  0
 27 26  1  0  0  0  0
 30  6  1  0  0  0  0
 31  7  1  0  0  0  0
 32  8  1  0  0  0  0
 37 13  1  0  0  0  0
 38 15  1  0  0  0  0
 39 15  1  0  0  0  0
 40 16  1  0  0  0  0
 41 16  1  0  0  0  0
 43 20  1  0  0  0  0
 44 21  1  0  0  0  0
 45 25  1  0  0  0  0
 46 25  1  0  0  0  0
M  END
>  <Pose>
1

>  <Score>
-6.60

$$$$
