
 OpenBabel03202209553D

 38 42  0  0  1  0  0  0  0  0999 V2000
   23.5560   16.7160   26.9050 B   0  0  0  0  0  0  0  0  0  0  0  0
   23.9640   15.1820   27.9430 C   0  0  0  0  0  0  0  0  0  0  0  0
   23.0060   14.6510   28.7720 C   0  0  0  0  0  0  0  0  0  0  0  0
   23.3290   13.5360   29.5130 C   0  0  0  0  0  0  0  0  0  0  0  0
   24.5720   12.9460   29.4480 C   0  0  0  0  0  0  0  0  0  0  0  0
   25.5410   13.4810   28.6100 C   0  0  0  0  0  0  0  0  0  0  0  0
   25.2090   14.6110   27.8600 C   0  0  0  0  0  0  0  0  0  0  0  0
   24.8950   11.7850   30.2230 N   0  0  0  0  0  0  0  0  0  0  0  0
   25.3080   10.5600   29.6370 C   0  0  0  0  0  0  0  0  0  0  0  0
   25.7580   10.4530   28.4710 O   0  0  0  0  0  0  0  0  0  0  0  0
   25.1180    9.4610   30.6230 C   0  0  2  0  0  0  0  0  0  0  0  0
   23.8020    8.7670   30.4500 C   0  0  1  0  0  0  0  0  0  0  0  0
   23.5330    8.3950   31.7860 O   0  0  0  0  0  0  0  0  0  0  0  0
   23.5280    9.7050   32.3290 C   0  0  1  0  0  0  0  0  0  0  0  0
   24.8920   10.1740   31.9570 C   0  0  2  0  0  0  0  0  0  0  0  0
   24.8700   11.6280   31.6420 C   0  0  0  0  0  0  0  0  0  0  0  0
   24.8370   12.5300   32.4830 O   0  0  0  0  0  0  0  0  0  0  0  0
   22.5450   10.3420   31.4160 C   0  0  0  0  0  0  0  0  0  0  0  0
   22.7700    9.7920   30.2270 C   0  0  0  0  0  0  0  0  0  0  0  0
   23.8030    7.6260   29.5270 C   0  0  0  0  0  0  0  0  0  0  0  0
   22.8630    6.6740   29.8170 O   0  0  0  0  0  0  0  0  0  0  0  0
   23.5030    5.5450   30.2640 C   0  0  0  0  0  0  0  0  0  0  0  0
   24.9650    5.8460   30.2310 C   0  0  0  0  0  0  0  0  0  0  0  0
   25.0390    7.0080   29.4710 O   0  0  0  0  0  0  0  0  0  0  0  0
   22.0040   15.0800   28.8620 H   0  0  0  0  0  0  0  0  0  0  0  0
   22.5850   13.0860   30.1880 H   0  0  0  0  0  0  0  0  0  0  0  0
   26.5080   13.0100   28.5690 H   0  0  0  0  0  0  0  0  0  0  0  0
   25.9640   15.0280   27.2080 H   0  0  0  0  0  0  0  0  0  0  0  0
   25.9800    8.7960   30.6310 H   0  0  0  0  0  0  0  0  0  0  0  0
   23.2730    9.7330   33.3740 H   0  0  0  0  0  0  0  0  0  0  0  0
   25.6760    9.9290   32.6740 H   0  0  0  0  0  0  0  0  0  0  0  0
   21.8290   11.0900   31.7330 H   0  0  0  0  0  0  0  0  0  0  0  0
   22.2400   10.1150   29.3360 H   0  0  0  0  0  0  0  0  0  0  0  0
   23.5970    8.0210   28.4960 H   0  0  0  0  0  0  0  0  0  0  0  0
   23.2880    4.6450   29.6560 H   0  0  0  0  0  0  0  0  0  0  0  0
   23.2040    5.3860   31.3330 H   0  0  0  0  0  0  0  0  0  0  0  0
   25.5340    5.0060   29.7340 H   0  0  0  0  0  0  0  0  0  0  0  0
   25.3990    6.0470   31.2430 H   0  0  0  0  0  0  0  0  0  0  0  0
  1  2  1  0  0  0  0
  2  3  1  0  0  0  0
  3 25  1  0  0  0  0
  3  4  2  0  0  0  0
  4 26  1  0  0  0  0
  5  4  1  0  0  0  0
  5  8  1  0  0  0  0
  6  5  2  0  0  0  0
  7  2  2  0  0  0  0
  7  6  1  0  0  0  0
  8 16  1  0  0  0  0
  9  8  1  0  0  0  0
  9 11  1  0  0  0  0
 10  9  2  0  0  0  0
 11 29  1  1  0  0  0
 11 15  1  0  0  0  0
 12 20  1  6  0  0  0
 12 11  1  0  0  0  0
 12 13  1  0  0  0  0
 13 14  1  0  0  0  0
 14 30  1  1  0  0  0
 15 14  1  0  0  0  0
 15 31  1  1  0  0  0
 16 15  1  0  0  0  0
 16 17  2  0  0  0  0
 18 32  1  0  0  0  0
 18 14  1  0  0  0  0
 19 12  1  0  0  0  0
 19 18  2  0  0  0  0
 20 21  1  0  0  0  0
 21 22  1  0  0  0  0
 22 36  1  0  0  0  0
 23 22  1  0  0  0  0
 23 38  1  0  0  0  0
 24 20  1  0  0  0  0
 24 23  1  0  0  0  0
 27  6  1  0  0  0  0
 28  7  1  0  0  0  0
 33 19  1  0  0  0  0
 34 20  1  0  0  0  0
 35 22  1  0  0  0  0
 37 23  1  0  0  0  0
M  END
>  <Pose>
1

>  <Score>
-4.83

$$$$
