
 OpenBabel03202209553D

 58 61  0  0  0  0  0  0  0  0999 V2000
   25.0500   16.9110   25.2130 Cl  0  0  0  0  0  0  0  0  0  0  0  0
   24.0600   16.9010   26.6540 C   0  0  0  0  0  0  0  0  0  0  0  0
   23.9990   15.7990   27.5020 C   0  0  0  0  0  0  0  0  0  0  0  0
   23.2190   15.7930   28.6330 C   0  0  0  0  0  0  0  0  0  0  0  0
   22.4800   16.9150   28.9290 C   0  0  0  0  0  0  0  0  0  0  0  0
   22.5450   18.0230   28.0730 C   0  0  0  0  0  0  0  0  0  0  0  0
   23.3250   18.0290   26.9400 C   0  0  0  0  0  0  0  0  0  0  0  0
   23.3830   19.1450   26.0860 O   0  0  0  0  0  0  0  0  0  0  0  0
   22.5690   20.2750   26.2820 C   0  0  0  0  0  0  0  0  0  0  0  0
   21.7320   16.9240   30.0060 O   0  0  0  0  0  0  0  0  0  0  0  0
   21.6520   15.9030   30.8230 C   0  0  0  0  0  0  0  0  0  0  0  0
   20.9120   15.9500   31.8630 O   0  0  0  0  0  0  0  0  0  0  0  0
   22.3570   14.7180   30.6190 C   0  0  0  0  0  0  0  0  0  0  0  0
   23.1480   14.6930   29.4930 C   0  0  0  0  0  0  0  0  0  0  0  0
   23.9390   13.5090   29.1730 C   0  0  0  0  0  0  0  0  0  0  0  0
   22.2240   13.6010   31.5810 C   0  0  0  0  0  0  0  0  0  0  0  0
   21.9220   12.3190   30.8870 C   0  0  0  0  0  0  0  0  0  0  0  0
   21.1780   12.3760   29.8480 O   0  0  0  0  0  0  0  0  0  0  0  0
   22.3830   11.0750   31.2790 N   0  0  0  0  0  0  0  0  0  0  0  0
   23.6210   10.8750   31.9640 C   0  0  0  0  0  0  0  0  0  0  0  0
   24.4910    9.9560   31.1050 C   0  0  0  0  0  0  0  0  0  0  0  0
   23.7820    8.7530   30.8280 N   0  0  0  0  0  0  0  0  0  0  0  0
   22.4090    8.6560   31.3700 C   0  0  0  0  0  0  0  0  0  0  0  0
   21.6080    9.8860   31.0040 C   0  0  0  0  0  0  0  0  0  0  0  0
   24.2720    7.6610   30.0820 C   0  0  0  0  0  0  0  0  0  0  0  0
   23.3690    6.7060   29.8890 O   0  0  0  0  0  0  0  0  0  0  0  0
   25.5550    7.3980   29.5020 C   0  0  0  0  0  0  0  0  0  0  0  0
   25.6630    6.4410   28.4610 C   0  0  0  0  0  0  0  0  0  0  0  0
   26.8720    6.1570   27.8830 C   0  0  0  0  0  0  0  0  0  0  0  0
   26.9410    5.3030   26.9610 O   0  0  0  0  0  0  0  0  0  0  0  0
   28.0110    6.7540   28.2590 N   0  0  0  0  0  0  0  0  0  0  0  0
   27.9090    7.6540   29.2380 C   0  0  0  0  0  0  0  0  0  0  0  0
   28.9640    8.2500   29.6320 O   0  0  0  0  0  0  0  0  0  0  0  0
   26.7080    7.9640   29.8400 N   0  0  0  0  0  0  0  0  0  0  0  0
   29.2770    6.4390   27.6380 C   0  0  0  0  0  0  0  0  0  0  0  0
   24.5730   14.9110   27.2840 H   0  0  0  0  0  0  0  0  0  0  0  0
   21.9570   18.8940   28.3230 H   0  0  0  0  0  0  0  0  0  0  0  0
   22.4630   20.5620   27.3440 H   0  0  0  0  0  0  0  0  0  0  0  0
   22.9470   21.0870   25.6360 H   0  0  0  0  0  0  0  0  0  0  0  0
   21.5300   19.9670   25.9630 H   0  0  0  0  0  0  0  0  0  0  0  0
   23.6290   13.1940   28.1310 H   0  0  0  0  0  0  0  0  0  0  0  0
   23.7700   12.6510   29.8090 H   0  0  0  0  0  0  0  0  0  0  0  0
   25.0210   13.7470   29.0660 H   0  0  0  0  0  0  0  0  0  0  0  0
   21.6330   13.7980   32.4670 H   0  0  0  0  0  0  0  0  0  0  0  0
   23.2800   13.4460   31.9740 H   0  0  0  0  0  0  0  0  0  0  0  0
   23.4960   10.3530   32.9380 H   0  0  0  0  0  0  0  0  0  0  0  0
   24.1540   11.8190   32.1990 H   0  0  0  0  0  0  0  0  0  0  0  0
   24.7030   10.4690   30.1340 H   0  0  0  0  0  0  0  0  0  0  0  0
   25.4650    9.8170   31.6250 H   0  0  0  0  0  0  0  0  0  0  0  0
   21.9800    7.7160   31.0180 H   0  0  0  0  0  0  0  0  0  0  0  0
   22.5170    8.6430   32.4640 H   0  0  0  0  0  0  0  0  0  0  0  0
   21.4100    9.8460   29.9200 H   0  0  0  0  0  0  0  0  0  0  0  0
   20.6470    9.9390   31.5340 H   0  0  0  0  0  0  0  0  0  0  0  0
   24.7450    5.9580   28.1570 H   0  0  0  0  0  0  0  0  0  0  0  0
   26.7360    8.6820   30.5900 H   0  0  0  0  0  0  0  0  0  0  0  0
   30.0860    6.8850   28.2550 H   0  0  0  0  0  0  0  0  0  0  0  0
   29.3670    6.9420   26.6340 H   0  0  0  0  0  0  0  0  0  0  0  0
   29.4450    5.3530   27.5220 H   0  0  0  0  0  0  0  0  0  0  0  0
  1  2  1  0  0  0  0
  2  7  2  0  0  0  0
  2  3  1  0  0  0  0
  3  4  2  0  0  0  0
  4  5  1  0  0  0  0
  4 14  1  0  0  0  0
  5 10  1  0  0  0  0
  6 37  1  0  0  0  0
  6  5  2  0  0  0  0
  7  6  1  0  0  0  0
  8  9  1  0  0  0  0
  8  7  1  0  0  0  0
  9 38  1  0  0  0  0
 10 11  1  0  0  0  0
 11 12  2  0  0  0  0
 13 11  1  0  0  0  0
 13 16  1  0  0  0  0
 14 13  2  0  0  0  0
 15 14  1  0  0  0  0
 15 42  1  0  0  0  0
 16 45  1  0  0  0  0
 16 44  1  0  0  0  0
 17 19  1  0  0  0  0
 17 16  1  0  0  0  0
 18 17  2  0  0  0  0
 19 20  1  0  0  0  0
 20 47  1  0  0  0  0
 20 46  1  0  0  0  0
 21 49  1  0  0  0  0
 21 20  1  0  0  0  0
 22 21  1  0  0  0  0
 22 23  1  0  0  0  0
 23 51  1  0  0  0  0
 24 19  1  0  0  0  0
 24 23  1  0  0  0  0
 24 53  1  0  0  0  0
 25 22  1  0  0  0  0
 26 25  2  0  0  0  0
 27 34  1  0  0  0  0
 27 25  1  0  0  0  0
 28 27  2  0  0  0  0
 29 31  1  0  0  0  0
 29 28  1  0  0  0  0
 30 29  2  0  0  0  0
 31 32  1  0  0  0  0
 32 33  2  0  0  0  0
 32 34  1  0  0  0  0
 34 55  1  0  0  0  0
 35 56  1  0  0  0  0
 35 31  1  0  0  0  0
 36  3  1  0  0  0  0
 39  9  1  0  0  0  0
 40  9  1  0  0  0  0
 41 15  1  0  0  0  0
 43 15  1  0  0  0  0
 48 21  1  0  0  0  0
 50 23  1  0  0  0  0
 52 24  1  0  0  0  0
 54 28  1  0  0  0  0
 57 35  1  0  0  0  0
 58 35  1  0  0  0  0
M  END
>  <Pose>
1

>  <Score>
-7.23

$$$$
