
 OpenBabel03202209553D

 35 38  0  0  1  0  0  0  0  0999 V2000
   19.3620    9.2840   33.3450 Cl  0  0  0  0  0  0  0  0  0  0  0  0
   20.2410    7.8960   32.7120 C   0  0  0  0  0  0  0  0  0  0  0  0
   19.6510    6.6550   32.7940 C   0  0  0  0  0  0  0  0  0  0  0  0
   20.3290    5.6030   32.3080 N   0  0  0  0  0  0  0  0  0  0  0  0
   21.5600    5.7210   31.7450 C   0  0  0  0  0  0  0  0  0  0  0  0
   22.1450    6.9270   31.6580 N   0  0  0  0  0  0  0  0  0  0  0  0
   23.3320    6.7850   31.0760 N   0  0  0  0  0  0  0  0  0  0  0  0
   23.5470    5.4900   30.7700 C   0  0  0  0  0  0  0  0  0  0  0  0
   22.4280    4.8520   31.1970 N   0  0  0  0  0  0  0  0  0  0  0  0
   24.6900    4.9170   30.1410 N   0  0  0  0  0  0  0  0  0  0  0  0
   25.1800    5.2420   28.8480 C   0  0  0  0  0  0  0  0  0  0  0  0
   24.9510    6.2740   28.1640 O   0  0  0  0  0  0  0  0  0  0  0  0
   26.0660    4.1290   28.3630 C   0  0  2  0  0  0  0  0  0  0  0  0
   26.3200    3.2740   29.5530 C   0  0  1  0  0  0  0  0  0  0  0  0
   27.7710    3.2330   29.9980 C   0  0  0  0  0  0  0  0  0  0  0  0
   28.2310    4.6560   30.0790 C   0  0  0  0  0  0  0  0  0  0  0  0
   28.0140    5.3820   28.9970 C   0  0  0  0  0  0  0  0  0  0  0  0
   27.3560    4.7240   27.8420 C   0  0  0  0  0  0  0  0  0  0  0  0
   25.5710    3.9240   30.6440 C   0  0  0  0  0  0  0  0  0  0  0  0
   25.6850    3.6440   31.8820 O   0  0  0  0  0  0  0  0  0  0  0  0
   21.4890    8.0110   32.1400 C   0  0  0  0  0  0  0  0  0  0  0  0
   22.0400    9.1540   32.0590 O   0  0  0  0  0  0  0  0  0  0  0  0
   18.2900    6.5080   33.4140 C   0  0  0  0  0  0  0  0  0  0  0  0
   19.8860    4.6560   32.3690 H   0  0  0  0  0  0  0  0  0  0  0  0
   25.5440    3.5910   27.5400 H   0  0  0  0  0  0  0  0  0  0  0  0
   25.9420    2.2530   29.3330 H   0  0  0  0  0  0  0  0  0  0  0  0
   27.8250    2.7750   31.0010 H   0  0  0  0  0  0  0  0  0  0  0  0
   28.3680    2.6910   29.2440 H   0  0  0  0  0  0  0  0  0  0  0  0
   28.7010    5.0220   30.9800 H   0  0  0  0  0  0  0  0  0  0  0  0
   28.3050    6.4120   28.9520 H   0  0  0  0  0  0  0  0  0  0  0  0
   27.1550    5.4730   27.0410 H   0  0  0  0  0  0  0  0  0  0  0  0
   27.9980    3.8980   27.4540 H   0  0  0  0  0  0  0  0  0  0  0  0
   18.2950    6.8310   34.4630 H   0  0  0  0  0  0  0  0  0  0  0  0
   17.5370    7.0940   32.8290 H   0  0  0  0  0  0  0  0  0  0  0  0
   17.9650    5.4480   33.4010 H   0  0  0  0  0  0  0  0  0  0  0  0
  2  3  2  0  0  0  0
  2  1  1  0  0  0  0
  3 23  1  0  0  0  0
  4 24  1  0  0  0  0
  4  3  1  0  0  0  0
  5  4  1  0  0  0  0
  6  5  1  0  0  0  0
  6 21  1  0  0  0  0
  7  6  1  0  0  0  0
  8  7  2  0  0  0  0
  8  9  1  0  0  0  0
  9  5  2  0  0  0  0
 10 19  1  0  0  0  0
 10  8  1  0  0  0  0
 11 10  1  0  0  0  0
 12 11  2  0  0  0  0
 13 25  1  6  0  0  0
 13 11  1  0  0  0  0
 13 14  1  0  0  0  0
 14 26  1  6  0  0  0
 14 15  1  0  0  0  0
 14 19  1  0  0  0  0
 15 16  1  0  0  0  0
 15 27  1  0  0  0  0
 16 29  1  0  0  0  0
 17 16  2  0  0  0  0
 18 13  1  0  0  0  0
 18 17  1  0  0  0  0
 19 20  2  0  0  0  0
 21  2  1  0  0  0  0
 22 21  2  0  0  0  0
 23 33  1  0  0  0  0
 28 15  1  0  0  0  0
 30 17  1  0  0  0  0
 31 18  1  0  0  0  0
 32 18  1  0  0  0  0
 34 23  1  0  0  0  0
 35 23  1  0  0  0  0
M  END
>  <Pose>
1

>  <Score>
-5.97

$$$$
