
 OpenBabel03202209553D

 51 54  0  0  1  0  0  0  0  0999 V2000
   23.2420   15.7390   33.3650 Cl  0  0  0  0  0  0  0  0  0  0  0  0
   22.0540   15.1060   32.2450 C   0  0  0  0  0  0  0  0  0  0  0  0
   22.3840   14.1740   31.2880 C   0  0  0  0  0  0  0  0  0  0  0  0
   21.4170   13.6740   30.3880 C   0  0  0  0  0  0  0  0  0  0  0  0
   20.1540   14.1690   30.5310 C   0  0  0  0  0  0  0  0  0  0  0  0
   19.8120   15.1240   31.5100 C   0  0  0  0  0  0  0  0  0  0  0  0
   20.7730   15.5920   32.3690 C   0  0  0  0  0  0  0  0  0  0  0  0
   21.8250   12.7170   29.4380 N   0  0  0  0  0  0  0  0  0  0  0  0
   21.9900   11.3600   29.6620 C   0  0  0  0  0  0  0  0  0  0  0  0
   21.5750   10.4880   28.8900 O   0  0  0  0  0  0  0  0  0  0  0  0
   22.6990   10.8360   30.8940 C   0  0  0  0  0  0  0  0  0  0  0  0
   23.1430    9.4620   30.6230 N   0  0  0  0  0  0  0  0  0  0  0  0
   22.5480    8.3370   31.1210 C   0  0  1  0  0  0  0  0  0  0  0  0
   23.1940    7.2550   30.6560 N   0  0  0  0  0  0  0  0  0  0  0  0
   24.2070    7.6220   29.8610 C   0  0  0  0  0  0  0  0  0  0  0  0
   24.1480    9.0240   29.8610 C   0  0  0  0  0  0  0  0  0  0  0  0
   25.1940    6.8590   29.1150 C   0  0  0  0  0  0  0  0  0  0  0  0
   24.9750    5.5750   28.6980 C   0  0  0  0  0  0  0  0  0  0  0  0
   25.8960    4.8440   27.9700 C   0  0  0  0  0  0  0  0  0  0  0  0
   27.1200    5.3940   27.6210 C   0  0  0  0  0  0  0  0  0  0  0  0
   27.3410    6.6840   28.0380 C   0  0  0  0  0  0  0  0  0  0  0  0
   26.4220    7.4140   28.7650 C   0  0  0  0  0  0  0  0  0  0  0  0
   28.0670    4.6920   26.8940 O   0  0  0  0  0  0  0  0  0  0  0  0
   28.9270    5.3110   25.9540 C   0  0  0  0  0  0  0  0  0  0  0  0
   22.5440    6.0570   31.1880 C   0  0  0  0  0  0  0  0  0  0  0  0
   21.1950    6.5310   31.6960 C   0  0  0  0  0  0  0  0  0  0  0  0
   21.4290    7.9630   32.0230 C   0  0  0  0  0  0  0  0  0  0  0  0
   23.7730   13.6890   31.2080 C   0  0  0  0  0  0  0  0  0  0  0  0
   19.3610   13.8380   29.8820 H   0  0  0  0  0  0  0  0  0  0  0  0
   18.8040   15.5030   31.6080 H   0  0  0  0  0  0  0  0  0  0  0  0
   20.5100   16.3340   33.1360 H   0  0  0  0  0  0  0  0  0  0  0  0
   22.0310   13.0620   28.4520 H   0  0  0  0  0  0  0  0  0  0  0  0
   23.5990   11.4580   31.0170 H   0  0  0  0  0  0  0  0  0  0  0  0
   22.0270   10.8130   31.7580 H   0  0  0  0  0  0  0  0  0  0  0  0
   24.8310    9.6810   29.3200 H   0  0  0  0  0  0  0  0  0  0  0  0
   24.0050    5.1340   28.9810 H   0  0  0  0  0  0  0  0  0  0  0  0
   25.6520    3.8260   27.6750 H   0  0  0  0  0  0  0  0  0  0  0  0
   28.3050    7.1310   27.7690 H   0  0  0  0  0  0  0  0  0  0  0  0
   26.6270    8.4360   29.0870 H   0  0  0  0  0  0  0  0  0  0  0  0
   28.4030    5.4920   24.9860 H   0  0  0  0  0  0  0  0  0  0  0  0
   29.3680    6.2530   26.3090 H   0  0  0  0  0  0  0  0  0  0  0  0
   29.7640    4.6140   25.7500 H   0  0  0  0  0  0  0  0  0  0  0  0
   23.1410    5.5490   31.9460 H   0  0  0  0  0  0  0  0  0  0  0  0
   22.2940    5.3270   30.3850 H   0  0  0  0  0  0  0  0  0  0  0  0
   20.8310    5.9130   32.5270 H   0  0  0  0  0  0  0  0  0  0  0  0
   20.4590    6.5240   30.8350 H   0  0  0  0  0  0  0  0  0  0  0  0
   20.5470    8.6130   31.8430 H   0  0  0  0  0  0  0  0  0  0  0  0
   21.7670    8.0530   33.0930 H   0  0  0  0  0  0  0  0  0  0  0  0
   24.3990   14.2420   31.9310 H   0  0  0  0  0  0  0  0  0  0  0  0
   23.8390   12.6070   31.5220 H   0  0  0  0  0  0  0  0  0  0  0  0
   24.2200   13.7530   30.2000 H   0  0  0  0  0  0  0  0  0  0  0  0
  2  7  1  0  0  0  0
  2  1  1  0  0  0  0
  3  2  2  0  0  0  0
  4  5  2  0  0  0  0
  4  3  1  0  0  0  0
  5  6  1  0  0  0  0
  6 30  1  0  0  0  0
  6  7  2  0  0  0  0
  7 31  1  0  0  0  0
  8  9  1  0  0  0  0
  8  4  1  0  0  0  0
  9 11  1  0  0  0  0
 10  9  2  0  0  0  0
 11 33  1  0  0  0  0
 11 34  1  0  0  0  0
 12 11  1  0  0  0  0
 13 12  1  1  0  0  0
 13 27  1  0  0  0  0
 14 13  1  0  0  0  0
 14 25  1  0  0  0  0
 15 16  2  0  0  0  0
 15 14  1  0  0  0  0
 16 12  1  0  0  0  0
 17 15  1  0  0  0  0
 18 36  1  0  0  0  0
 18 17  2  0  0  0  0
 19 18  1  0  0  0  0
 20 19  2  0  0  0  0
 20 21  1  0  0  0  0
 21 22  2  0  0  0  0
 22 39  1  0  0  0  0
 22 17  1  0  0  0  0
 23 20  1  0  0  0  0
 24 41  1  0  0  0  0
 24 23  1  0  0  0  0
 25 26  1  0  0  0  0
 25 43  1  0  0  0  0
 26 27  1  0  0  0  0
 26 45  1  0  0  0  0
 27 48  1  0  0  0  0
 28  3  1  0  0  0  0
 28 50  1  0  0  0  0
 28 49  1  0  0  0  0
 29  5  1  0  0  0  0
 32  8  1  0  0  0  0
 35 16  1  0  0  0  0
 37 19  1  0  0  0  0
 38 21  1  0  0  0  0
 40 24  1  0  0  0  0
 42 24  1  0  0  0  0
 44 25  1  0  0  0  0
 46 26  1  0  0  0  0
 47 27  1  0  0  0  0
 51 28  1  0  0  0  0
M  END
>  <Pose>
1

>  <Score>
-6.47

$$$$
