
 OpenBabel03202209553D

 49 52  0  0  1  0  0  0  0  0999 V2000
   23.9230    0.8320   32.6900 Cl  0  0  0  0  0  0  0  0  0  0  0  0
   24.3790    2.4030   32.0650 C   0  0  0  0  0  0  0  0  0  0  0  0
   23.4550    3.4320   31.9500 C   0  0  0  0  0  0  0  0  0  0  0  0
   23.8380    4.6520   31.4570 C   0  0  0  0  0  0  0  0  0  0  0  0
   25.1520    4.9260   31.0500 C   0  0  0  0  0  0  0  0  0  0  0  0
   26.0440    3.8970   31.1720 C   0  0  0  0  0  0  0  0  0  0  0  0
   25.6700    2.6550   31.6710 C   0  0  0  0  0  0  0  0  0  0  0  0
   25.4890    6.1970   30.5400 N   0  0  0  0  0  0  0  0  0  0  0  0
   24.7910    6.9690   29.6070 C   0  0  0  0  0  0  0  0  0  0  0  0
   24.1760    6.4080   28.6650 O   0  0  0  0  0  0  0  0  0  0  0  0
   24.7500    8.4770   29.6870 C   0  0  0  0  0  0  0  0  0  0  0  0
   23.5990    8.8120   30.5060 N   0  0  0  0  0  0  0  0  0  0  0  0
   23.9900    9.7160   31.6090 C   0  0  0  0  0  0  0  0  0  0  0  0
   22.8880    9.4490   32.6540 C   0  0  0  0  0  0  0  0  0  0  0  0
   21.6910    9.2390   31.8250 N   0  0  0  0  0  0  0  0  0  0  0  0
   21.5890   10.0960   30.6870 C   0  0  0  0  0  0  0  0  0  0  0  0
   22.6480    9.6020   29.6880 C   0  0  0  0  0  0  0  0  0  0  0  0
   20.7830    8.2370   32.1950 C   0  0  2  0  0  0  0  0  0  0  0  0
   21.0770    6.9200   31.9690 N   0  0  0  0  0  0  0  0  0  0  0  0
   20.2610    5.9130   32.2790 C   0  0  0  0  0  0  0  0  0  0  0  0
   19.0780    6.1750   32.8440 N   0  0  0  0  0  0  0  0  0  0  0  0
   18.6800    7.4140   33.1140 C   0  0  0  0  0  0  0  0  0  0  0  0
   17.5680    7.9450   33.6610 N   0  0  0  0  0  0  0  0  0  0  0  0
   17.7390    9.2430   33.6690 N   0  0  0  0  0  0  0  0  0  0  0  0
   18.9140    9.5610   33.1490 N   0  0  0  0  0  0  0  0  0  0  0  0
   19.5450    8.4610   32.7830 C   0  0  0  0  0  0  0  0  0  0  0  0
   16.3880    7.2610   34.1560 C   0  0  0  0  0  0  0  0  0  0  0  0
   15.1460    7.6940   33.4080 C   0  0  0  0  0  0  0  0  0  0  0  0
   22.4440    3.2240   32.2650 H   0  0  0  0  0  0  0  0  0  0  0  0
   23.1060    5.4380   31.3760 H   0  0  0  0  0  0  0  0  0  0  0  0
   27.0750    3.9870   30.8840 H   0  0  0  0  0  0  0  0  0  0  0  0
   26.4290    1.8730   31.7440 H   0  0  0  0  0  0  0  0  0  0  0  0
   26.4080    6.6090   30.8960 H   0  0  0  0  0  0  0  0  0  0  0  0
   25.7080    8.8090   30.0910 H   0  0  0  0  0  0  0  0  0  0  0  0
   24.6410    8.8040   28.6340 H   0  0  0  0  0  0  0  0  0  0  0  0
   23.9020   10.7740   31.3360 H   0  0  0  0  0  0  0  0  0  0  0  0
   24.9860    9.5070   31.9730 H   0  0  0  0  0  0  0  0  0  0  0  0
   23.2080    8.5260   33.1680 H   0  0  0  0  0  0  0  0  0  0  0  0
   22.7690   10.2860   33.3370 H   0  0  0  0  0  0  0  0  0  0  0  0
   21.8210   11.1580   30.9650 H   0  0  0  0  0  0  0  0  0  0  0  0
   20.6300   10.0410   30.1640 H   0  0  0  0  0  0  0  0  0  0  0  0
   22.1960    9.0200   28.8990 H   0  0  0  0  0  0  0  0  0  0  0  0
   23.1460   10.4920   29.2420 H   0  0  0  0  0  0  0  0  0  0  0  0
   20.5760    4.8810   32.0630 H   0  0  0  0  0  0  0  0  0  0  0  0
   16.5400    6.1700   34.0290 H   0  0  0  0  0  0  0  0  0  0  0  0
   16.2030    7.4350   35.2340 H   0  0  0  0  0  0  0  0  0  0  0  0
   15.0530    7.0260   32.5230 H   0  0  0  0  0  0  0  0  0  0  0  0
   14.2910    7.5930   34.1040 H   0  0  0  0  0  0  0  0  0  0  0  0
   15.2110    8.7700   33.1150 H   0  0  0  0  0  0  0  0  0  0  0  0
  2  1  1  0  0  0  0
  3  2  1  0  0  0  0
  3 29  1  0  0  0  0
  4  3  2  0  0  0  0
  5  6  2  0  0  0  0
  5  4  1  0  0  0  0
  6  7  1  0  0  0  0
  7 32  1  0  0  0  0
  7  2  2  0  0  0  0
  8 33  1  0  0  0  0
  8  5  1  0  0  0  0
  9 11  1  0  0  0  0
  9  8  1  0  0  0  0
 10  9  2  0  0  0  0
 11 34  1  0  0  0  0
 11 12  1  0  0  0  0
 12 13  1  0  0  0  0
 13 37  1  0  0  0  0
 13 14  1  0  0  0  0
 14 38  1  0  0  0  0
 14 39  1  0  0  0  0
 15 14  1  0  0  0  0
 16 40  1  0  0  0  0
 16 15  1  0  0  0  0
 17 12  1  0  0  0  0
 17 16  1  0  0  0  0
 18 15  1  6  0  0  0
 18 26  1  0  0  0  0
 19 18  1  0  0  0  0
 19 20  2  0  0  0  0
 20 21  1  0  0  0  0
 21 22  1  0  0  0  0
 22 23  1  0  0  0  0
 23 24  1  0  0  0  0
 23 27  1  0  0  0  0
 25 24  2  0  0  0  0
 26 22  2  0  0  0  0
 26 25  1  0  0  0  0
 27 46  1  0  0  0  0
 28 48  1  0  0  0  0
 28 27  1  0  0  0  0
 30  4  1  0  0  0  0
 31  6  1  0  0  0  0
 35 11  1  0  0  0  0
 36 13  1  0  0  0  0
 41 16  1  0  0  0  0
 42 17  1  0  0  0  0
 43 17  1  0  0  0  0
 44 20  1  0  0  0  0
 45 27  1  0  0  0  0
 47 28  1  0  0  0  0
 49 28  1  0  0  0  0
M  END
>  <Pose>
1

>  <Score>
-7.45

$$$$
