
 OpenBabel03202209553D

 38 41  0  0  0  0  0  0  0  0999 V2000
   21.0410    5.1580   31.8230 Cl  0  0  0  0  0  0  0  0  0  0  0  0
   20.7180    6.8260   32.2750 C   0  0  0  0  0  0  0  0  0  0  0  0
   21.5580    7.8390   31.8590 C   0  0  0  0  0  0  0  0  0  0  0  0
   21.3090    9.1360   32.2100 C   0  0  0  0  0  0  0  0  0  0  0  0
   20.2030    9.4020   32.9860 C   0  0  0  0  0  0  0  0  0  0  0  0
   19.3520    8.4060   33.4120 C   0  0  0  0  0  0  0  0  0  0  0  0
   19.6130    7.1000   33.0520 C   0  0  0  0  0  0  0  0  0  0  0  0
   22.1620   10.2770   31.8030 C   0  0  0  0  0  0  0  0  0  0  0  0
   23.1230    9.7730   30.8530 N   0  0  0  0  0  0  0  0  0  0  0  0
   23.7840    8.5350   31.1920 C   0  0  0  0  0  0  0  0  0  0  0  0
   22.7260    7.4370   31.0230 C   0  0  0  0  0  0  0  0  0  0  0  0
   23.4230   10.4370   29.6400 C   0  0  0  0  0  0  0  0  0  0  0  0
   23.0530    9.9340   28.5470 O   0  0  0  0  0  0  0  0  0  0  0  0
   24.1630   11.7190   29.5760 C   0  0  0  0  0  0  0  0  0  0  0  0
   23.5990   12.6090   28.6640 O   0  0  0  0  0  0  0  0  0  0  0  0
   23.2270   13.9110   28.9730 C   0  0  0  0  0  0  0  0  0  0  0  0
   23.4770   14.8940   28.0870 N   0  0  0  0  0  0  0  0  0  0  0  0
   23.1470   16.1610   28.3230 N   0  0  0  0  0  0  0  0  0  0  0  0
   22.5440   16.5440   29.4560 C   0  0  0  0  0  0  0  0  0  0  0  0
   22.3330   17.8740   29.4170 N   0  0  0  0  0  0  0  0  0  0  0  0
   22.8050   18.2980   28.2690 N   0  0  0  0  0  0  0  0  0  0  0  0
   23.3120   17.2660   27.5740 C   0  0  0  0  0  0  0  0  0  0  0  0
   22.2700   15.5560   30.3950 C   0  0  0  0  0  0  0  0  0  0  0  0
   22.6100   14.2470   30.1520 C   0  0  0  0  0  0  0  0  0  0  0  0
   19.9570   10.4160   33.2940 H   0  0  0  0  0  0  0  0  0  0  0  0
   18.4750    8.6430   34.0310 H   0  0  0  0  0  0  0  0  0  0  0  0
   18.9820    6.2780   33.3560 H   0  0  0  0  0  0  0  0  0  0  0  0
   22.7370   10.7090   32.6470 H   0  0  0  0  0  0  0  0  0  0  0  0
   21.5830   11.0990   31.3370 H   0  0  0  0  0  0  0  0  0  0  0  0
   24.6670    8.3230   30.5610 H   0  0  0  0  0  0  0  0  0  0  0  0
   24.1000    8.5130   32.2530 H   0  0  0  0  0  0  0  0  0  0  0  0
   23.0850    6.4610   31.3490 H   0  0  0  0  0  0  0  0  0  0  0  0
   22.3800    7.4090   29.9780 H   0  0  0  0  0  0  0  0  0  0  0  0
   25.2320   11.5900   29.3130 H   0  0  0  0  0  0  0  0  0  0  0  0
   24.1470   12.1680   30.6000 H   0  0  0  0  0  0  0  0  0  0  0  0
   23.7800   17.2790   26.5820 H   0  0  0  0  0  0  0  0  0  0  0  0
   21.7910   15.8550   31.2960 H   0  0  0  0  0  0  0  0  0  0  0  0
   22.4130   13.4520   30.8570 H   0  0  0  0  0  0  0  0  0  0  0  0
  1  2  1  0  0  0  0
  2  7  1  0  0  0  0
  3  4  1  0  0  0  0
  3  2  2  0  0  0  0
  4  5  2  0  0  0  0
  5 25  1  0  0  0  0
  5  6  1  0  0  0  0
  6 26  1  0  0  0  0
  7 27  1  0  0  0  0
  7  6  2  0  0  0  0
  8  4  1  0  0  0  0
  8 28  1  0  0  0  0
  9 10  1  0  0  0  0
  9  8  1  0  0  0  0
 10 31  1  0  0  0  0
 11 10  1  0  0  0  0
 11 32  1  0  0  0  0
 11  3  1  0  0  0  0
 12  9  1  0  0  0  0
 13 12  2  0  0  0  0
 14 12  1  0  0  0  0
 14 35  1  0  0  0  0
 15 16  1  0  0  0  0
 15 14  1  0  0  0  0
 16 24  1  0  0  0  0
 17 18  1  0  0  0  0
 17 16  2  0  0  0  0
 18 19  1  0  0  0  0
 19 23  1  0  0  0  0
 20 19  2  0  0  0  0
 21 20  1  0  0  0  0
 22 21  2  0  0  0  0
 22 18  1  0  0  0  0
 23 37  1  0  0  0  0
 24 23  2  0  0  0  0
 24 38  1  0  0  0  0
 29  8  1  0  0  0  0
 30 10  1  0  0  0  0
 33 11  1  0  0  0  0
 34 14  1  0  0  0  0
 36 22  1  0  0  0  0
M  END
>  <Pose>
1

>  <Score>
-6.91

$$$$
