
 OpenBabel03202209553D

 42 45  0  0  1  0  0  0  0  0999 V2000
   22.9390   13.8520   29.7080 S   0  0  0  0  0  0  0  0  0  0  0  0
   22.4730   14.3670   31.0280 O   0  0  0  0  0  0  0  0  0  0  0  0
   21.8400   13.0250   29.0940 O   0  0  0  0  0  0  0  0  0  0  0  0
   24.3040   12.8240   29.9230 N   0  0  0  0  0  0  0  0  0  0  0  0
   24.2710   11.6810   29.0660 C   0  0  0  0  0  0  0  0  0  0  0  0
   24.5360   10.4560   29.9240 C   0  0  1  0  0  0  0  0  0  0  0  0
   24.0240   10.9100   31.2760 C   0  0  0  0  0  0  0  0  0  0  0  0
   24.4640   12.3790   31.2700 C   0  0  0  0  0  0  0  0  0  0  0  0
   23.6950    9.4140   29.4580 O   0  0  0  0  0  0  0  0  0  0  0  0
   23.8060    8.1150   29.9270 C   0  0  0  0  0  0  0  0  0  0  0  0
   22.6670    7.3650   29.8760 N   0  0  0  0  0  0  0  0  0  0  0  0
   22.7440    6.1000   30.3230 C   0  0  0  0  0  0  0  0  0  0  0  0
   23.9130    5.5580   30.8180 C   0  0  0  0  0  0  0  0  0  0  0  0
   25.0340    6.3650   30.8450 C   0  0  0  0  0  0  0  0  0  0  0  0
   24.9570    7.6350   30.3950 N   0  0  0  0  0  0  0  0  0  0  0  0
   23.9980    3.9070   31.3990 Cl  0  0  0  0  0  0  0  0  0  0  0  0
   23.2990   15.1910   28.6430 C   0  0  0  0  0  0  0  0  0  0  0  0
   22.6010   16.3770   28.7520 C   0  0  0  0  0  0  0  0  0  0  0  0
   22.8460   17.4670   27.9330 C   0  0  0  0  0  0  0  0  0  0  0  0
   23.8260   17.3890   26.9610 C   0  0  0  0  0  0  0  0  0  0  0  0
   24.5150   16.2080   26.8600 C   0  0  0  0  0  0  0  0  0  0  0  0
   24.2740   15.1210   27.6730 C   0  0  0  0  0  0  0  0  0  0  0  0
   24.0390   18.5030   26.1650 O   0  0  0  0  0  0  0  0  0  0  0  0
   23.0490   19.4850   25.9160 C   0  0  0  0  0  0  0  0  0  0  0  0
   22.0750   19.6470   27.0520 C   0  0  0  0  0  0  0  0  0  0  0  0
   22.1570   18.6530   28.0320 O   0  0  0  0  0  0  0  0  0  0  0  0
   25.1300   11.7550   28.3600 H   0  0  0  0  0  0  0  0  0  0  0  0
   23.3670   11.5850   28.4650 H   0  0  0  0  0  0  0  0  0  0  0  0
   25.5990   10.1870   29.9320 H   0  0  0  0  0  0  0  0  0  0  0  0
   22.9430   10.8140   31.3460 H   0  0  0  0  0  0  0  0  0  0  0  0
   24.5940   10.4060   32.0790 H   0  0  0  0  0  0  0  0  0  0  0  0
   23.8280   12.9370   31.9960 H   0  0  0  0  0  0  0  0  0  0  0  0
   25.5140   12.4150   31.5750 H   0  0  0  0  0  0  0  0  0  0  0  0
   21.8810    5.4530   30.3120 H   0  0  0  0  0  0  0  0  0  0  0  0
   25.9800    5.9600   31.2340 H   0  0  0  0  0  0  0  0  0  0  0  0
   21.8270   16.4470   29.5140 H   0  0  0  0  0  0  0  0  0  0  0  0
   25.2880   16.1660   26.0830 H   0  0  0  0  0  0  0  0  0  0  0  0
   24.8260   14.2070   27.5750 H   0  0  0  0  0  0  0  0  0  0  0  0
   23.5630   20.4340   25.6810 H   0  0  0  0  0  0  0  0  0  0  0  0
   22.5210   19.1560   24.9760 H   0  0  0  0  0  0  0  0  0  0  0  0
   22.2310   20.6740   27.4740 H   0  0  0  0  0  0  0  0  0  0  0  0
   21.0530   19.6250   26.6190 H   0  0  0  0  0  0  0  0  0  0  0  0
  1  4  1  0  0  0  0
  1  2  2  0  0  0  0
  3  1  2  0  0  0  0
  4  8  1  0  0  0  0
  5  4  1  0  0  0  0
  5  6  1  0  0  0  0
  6 29  1  1  0  0  0
  6  7  1  0  0  0  0
  7 30  1  0  0  0  0
  7 31  1  0  0  0  0
  8  7  1  0  0  0  0
  8 33  1  0  0  0  0
  8 32  1  0  0  0  0
  9  6  1  0  0  0  0
  9 10  1  0  0  0  0
 10 15  2  0  0  0  0
 11 10  2  0  0  0  0
 11 12  1  0  0  0  0
 12 13  2  0  0  0  0
 13 14  1  0  0  0  0
 13 16  1  0  0  0  0
 14 35  1  0  0  0  0
 15 14  1  0  0  0  0
 17 18  1  0  0  0  0
 17  1  1  0  0  0  0
 18 36  1  0  0  0  0
 19 26  1  0  0  0  0
 19 18  2  0  0  0  0
 20 19  1  0  0  0  0
 21 20  2  0  0  0  0
 21 22  1  0  0  0  0
 22 17  2  0  0  0  0
 23 20  1  0  0  0  0
 24 23  1  0  0  0  0
 24 25  1  0  0  0  0
 25 41  1  0  0  0  0
 25 26  1  0  0  0  0
 27  5  1  0  0  0  0
 28  5  1  0  0  0  0
 34 12  1  0  0  0  0
 37 21  1  0  0  0  0
 38 22  1  0  0  0  0
 39 24  1  0  0  0  0
 40 24  1  0  0  0  0
 42 25  1  0  0  0  0
M  END
>  <Pose>
1

>  <Score>
-6.47

$$$$
