
 OpenBabel03202209553D

 52 55  0  0  0  0  0  0  0  0999 V2000
   27.5440   11.2200   28.8760 Cl  0  0  0  0  0  0  0  0  0  0  0  0
   25.9860   10.4050   28.7750 C   0  0  0  0  0  0  0  0  0  0  0  0
   25.4330    9.7070   29.8110 C   0  0  0  0  0  0  0  0  0  0  0  0
   24.1940    9.0540   29.7200 C   0  0  0  0  0  0  0  0  0  0  0  0
   23.5300    9.1360   28.5340 C   0  0  0  0  0  0  0  0  0  0  0  0
   24.0860    9.8450   27.4790 C   0  0  0  0  0  0  0  0  0  0  0  0
   25.3060   10.4840   27.5780 C   0  0  0  0  0  0  0  0  0  0  0  0
   23.6950    8.3320   30.9200 C   0  0  0  0  0  0  0  0  0  0  0  0
   22.4650    8.8080   31.4590 N   0  0  0  0  0  0  0  0  0  0  0  0
   21.4830    7.9840   31.9180 C   0  0  0  0  0  0  0  0  0  0  0  0
   20.4410    8.7720   32.3310 C   0  0  0  0  0  0  0  0  0  0  0  0
   20.8200   10.0300   32.1120 N   0  0  0  0  0  0  0  0  0  0  0  0
   22.0680   10.0780   31.5750 C   0  0  0  0  0  0  0  0  0  0  0  0
   22.7750   11.2960   31.2650 N   0  0  0  0  0  0  0  0  0  0  0  0
   22.1070   12.1770   30.3350 C   0  0  0  0  0  0  0  0  0  0  0  0
   22.8340   13.4770   30.1020 C   0  0  0  0  0  0  0  0  0  0  0  0
   23.2180   13.9950   31.3640 N   0  0  0  0  0  0  0  0  0  0  0  0
   24.1660   13.1610   32.0240 C   0  0  0  0  0  0  0  0  0  0  0  0
   24.0420   11.6850   31.7820 C   0  0  0  0  0  0  0  0  0  0  0  0
   22.0720   14.3250   32.1520 C   0  0  0  0  0  0  0  0  0  0  0  0
   21.8930   15.7880   32.3810 C   0  0  0  0  0  0  0  0  0  0  0  0
   22.7740   16.5380   32.8310 O   0  0  0  0  0  0  0  0  0  0  0  0
   20.5960   16.3010   32.0430 N   0  0  0  0  0  0  0  0  0  0  0  0
   19.3510    8.1740   32.8430 N   0  0  0  0  0  0  0  0  0  0  0  0
   19.2660    6.8220   32.9590 C   0  0  0  0  0  0  0  0  0  0  0  0
   18.2400    6.2480   33.4430 O   0  0  0  0  0  0  0  0  0  0  0  0
   20.2720    6.0240   32.5640 N   0  0  0  0  0  0  0  0  0  0  0  0
   21.3670    6.6020   32.0500 C   0  0  0  0  0  0  0  0  0  0  0  0
   22.2860    5.8320   31.6930 O   0  0  0  0  0  0  0  0  0  0  0  0
   18.2320    8.9590   33.2950 C   0  0  0  0  0  0  0  0  0  0  0  0
   25.9940    9.6610   30.7350 H   0  0  0  0  0  0  0  0  0  0  0  0
   22.5680    8.6610   28.4100 H   0  0  0  0  0  0  0  0  0  0  0  0
   23.5460    9.9070   26.5330 H   0  0  0  0  0  0  0  0  0  0  0  0
   25.7060   11.0350   26.7170 H   0  0  0  0  0  0  0  0  0  0  0  0
   23.6280    7.2660   30.6250 H   0  0  0  0  0  0  0  0  0  0  0  0
   24.5010    8.3520   31.6960 H   0  0  0  0  0  0  0  0  0  0  0  0
   22.0990   11.6540   29.3240 H   0  0  0  0  0  0  0  0  0  0  0  0
   21.0420   12.2850   30.5950 H   0  0  0  0  0  0  0  0  0  0  0  0
   22.1470   14.1570   29.5790 H   0  0  0  0  0  0  0  0  0  0  0  0
   23.7020   13.3360   29.4140 H   0  0  0  0  0  0  0  0  0  0  0  0
   24.0770   13.4000   33.1260 H   0  0  0  0  0  0  0  0  0  0  0  0
   25.1840   13.5220   31.7120 H   0  0  0  0  0  0  0  0  0  0  0  0
   24.3040   11.1800   32.7400 H   0  0  0  0  0  0  0  0  0  0  0  0
   24.8910   11.3740   31.0930 H   0  0  0  0  0  0  0  0  0  0  0  0
   21.1060   13.9910   31.6810 H   0  0  0  0  0  0  0  0  0  0  0  0
   22.2100   13.8630   33.1660 H   0  0  0  0  0  0  0  0  0  0  0  0
   20.1340   16.0700   31.1350 H   0  0  0  0  0  0  0  0  0  0  0  0
   20.1210   16.9040   32.7110 H   0  0  0  0  0  0  0  0  0  0  0  0
   20.2020    4.9660   32.6560 H   0  0  0  0  0  0  0  0  0  0  0  0
   18.6190    9.9530   33.6140 H   0  0  0  0  0  0  0  0  0  0  0  0
   17.7250    8.4850   34.1500 H   0  0  0  0  0  0  0  0  0  0  0  0
   17.4840    9.0480   32.4750 H   0  0  0  0  0  0  0  0  0  0  0  0
  2  1  1  0  0  0  0
  2  3  1  0  0  0  0
  3 31  1  0  0  0  0
  4  3  2  0  0  0  0
  4  8  1  0  0  0  0
  5  4  1  0  0  0  0
  6  7  1  0  0  0  0
  6  5  2  0  0  0  0
  7  2  2  0  0  0  0
  8  9  1  0  0  0  0
  8 36  1  0  0  0  0
  9 13  1  0  0  0  0
  9 10  1  0  0  0  0
 10 28  1  0  0  0  0
 10 11  2  0  0  0  0
 11 24  1  0  0  0  0
 12 11  1  0  0  0  0
 13 12  2  0  0  0  0
 14 13  1  0  0  0  0
 14 19  1  0  0  0  0
 15 38  1  0  0  0  0
 15 14  1  0  0  0  0
 16 15  1  0  0  0  0
 16 17  1  0  0  0  0
 17 18  1  0  0  0  0
 17 20  1  0  0  0  0
 18 41  1  0  0  0  0
 19 18  1  0  0  0  0
 19 43  1  0  0  0  0
 20 21  1  0  0  0  0
 20 46  1  0  0  0  0
 21 22  2  0  0  0  0
 23 21  1  0  0  0  0
 23 48  1  0  0  0  0
 24 25  1  0  0  0  0
 24 30  1  0  0  0  0
 25 26  2  0  0  0  0
 27 49  1  0  0  0  0
 27 25  1  0  0  0  0
 28 27  1  0  0  0  0
 29 28  2  0  0  0  0
 30 50  1  0  0  0  0
 30 51  1  0  0  0  0
 32  5  1  0  0  0  0
 33  6  1  0  0  0  0
 34  7  1  0  0  0  0
 35  8  1  0  0  0  0
 37 15  1  0  0  0  0
 39 16  1  0  0  0  0
 40 16  1  0  0  0  0
 42 18  1  0  0  0  0
 44 19  1  0  0  0  0
 45 20  1  0  0  0  0
 47 23  1  0  0  0  0
 52 30  1  0  0  0  0
M  END
>  <Pose>
1

>  <Score>
-6.87

$$$$
