
 OpenBabel03202209553D

 46 49  0  0  0  0  0  0  0  0999 V2000
   19.7200    9.8140   33.3110 Cl  0  0  0  0  0  0  0  0  0  0  0  0
   20.2980    8.3000   32.6460 C   0  0  0  0  0  0  0  0  0  0  0  0
   21.1880    8.2350   31.5950 C   0  0  0  0  0  0  0  0  0  0  0  0
   21.6460    7.0480   31.0690 C   0  0  0  0  0  0  0  0  0  0  0  0
   21.2070    5.8570   31.6010 C   0  0  0  0  0  0  0  0  0  0  0  0
   20.3130    5.9030   32.6560 C   0  0  0  0  0  0  0  0  0  0  0  0
   19.8630    7.1000   33.1730 C   0  0  0  0  0  0  0  0  0  0  0  0
   22.6020    7.0220   29.9420 C   0  0  0  0  0  0  0  0  0  0  0  0
   23.7690    7.8380   30.1790 N   0  0  0  0  0  0  0  0  0  0  0  0
   25.0120    7.4550   30.7860 C   0  0  0  0  0  0  0  0  0  0  0  0
   25.2770    6.2860   31.2230 O   0  0  0  0  0  0  0  0  0  0  0  0
   25.8830    8.5820   30.8150 N   0  0  0  0  0  0  0  0  0  0  0  0
   25.0250    9.7400   30.7010 C   0  0  0  0  0  0  0  0  0  0  0  0
   24.4300    9.9860   32.0750 C   0  0  0  0  0  0  0  0  0  0  0  0
   23.2240   10.8920   31.8580 C   0  0  0  0  0  0  0  0  0  0  0  0
   23.5880   12.0080   31.0050 N   0  0  0  0  0  0  0  0  0  0  0  0
   24.9620   12.1910   30.6180 C   0  0  0  0  0  0  0  0  0  0  0  0
   25.6770   10.9520   30.1890 C   0  0  0  0  0  0  0  0  0  0  0  0
   22.5890   12.9130   30.5640 C   0  0  0  0  0  0  0  0  0  0  0  0
   21.8420   12.5930   29.5840 O   0  0  0  0  0  0  0  0  0  0  0  0
   22.3590   14.2130   31.1700 C   0  0  0  0  0  0  0  0  0  0  0  0
   22.9810   14.6090   32.2990 N   0  0  0  0  0  0  0  0  0  0  0  0
   22.7200   15.8270   32.8060 C   0  0  0  0  0  0  0  0  0  0  0  0
   21.8340   16.7010   32.2140 C   0  0  0  0  0  0  0  0  0  0  0  0
   21.2130   16.3100   31.0900 N   0  0  0  0  0  0  0  0  0  0  0  0
   21.4730   15.0790   30.5730 C   0  0  0  0  0  0  0  0  0  0  0  0
   23.9270    9.2160   29.8510 C   0  0  0  0  0  0  0  0  0  0  0  0
   23.2230    9.8050   28.9870 O   0  0  0  0  0  0  0  0  0  0  0  0
   21.5210    9.1840   31.1920 H   0  0  0  0  0  0  0  0  0  0  0  0
   21.5310    4.8810   31.2300 H   0  0  0  0  0  0  0  0  0  0  0  0
   19.9700    4.9520   33.0720 H   0  0  0  0  0  0  0  0  0  0  0  0
   19.1620    7.1350   33.9990 H   0  0  0  0  0  0  0  0  0  0  0  0
   22.8410    5.9700   29.7270 H   0  0  0  0  0  0  0  0  0  0  0  0
   22.1110    7.4190   29.0080 H   0  0  0  0  0  0  0  0  0  0  0  0
   26.9170    8.5790   30.9010 H   0  0  0  0  0  0  0  0  0  0  0  0
   24.1030    8.9950   32.4530 H   0  0  0  0  0  0  0  0  0  0  0  0
   25.1730   10.4570   32.7470 H   0  0  0  0  0  0  0  0  0  0  0  0
   22.8330   11.2750   32.7960 H   0  0  0  0  0  0  0  0  0  0  0  0
   22.4510   10.2560   31.3830 H   0  0  0  0  0  0  0  0  0  0  0  0
   25.4610   12.7080   31.4680 H   0  0  0  0  0  0  0  0  0  0  0  0
   25.0390   12.9130   29.7550 H   0  0  0  0  0  0  0  0  0  0  0  0
   26.7020   11.0070   30.6670 H   0  0  0  0  0  0  0  0  0  0  0  0
   25.9020   10.9360   29.1000 H   0  0  0  0  0  0  0  0  0  0  0  0
   23.2190   16.1570   33.7210 H   0  0  0  0  0  0  0  0  0  0  0  0
   21.6660   17.6650   32.6680 H   0  0  0  0  0  0  0  0  0  0  0  0
   20.9430   14.7980   29.6500 H   0  0  0  0  0  0  0  0  0  0  0  0
  2  7  1  0  0  0  0
  2  1  1  0  0  0  0
  3  2  2  0  0  0  0
  4  3  1  0  0  0  0
  4  5  2  0  0  0  0
  5  6  1  0  0  0  0
  6 31  1  0  0  0  0
  6  7  2  0  0  0  0
  7 32  1  0  0  0  0
  8  9  1  0  0  0  0
  8  4  1  0  0  0  0
  9 10  1  0  0  0  0
 10 12  1  0  0  0  0
 10 11  2  0  0  0  0
 12 35  1  0  0  0  0
 13 12  1  0  0  0  0
 13 14  1  0  0  0  0
 14 36  1  0  0  0  0
 14 37  1  0  0  0  0
 15 14  1  0  0  0  0
 15 38  1  0  0  0  0
 16 15  1  0  0  0  0
 17 16  1  0  0  0  0
 17 40  1  0  0  0  0
 18 17  1  0  0  0  0
 18 42  1  0  0  0  0
 18 13  1  0  0  0  0
 19 16  1  0  0  0  0
 19 21  1  0  0  0  0
 20 19  2  0  0  0  0
 21 22  1  0  0  0  0
 22 23  2  0  0  0  0
 23 44  1  0  0  0  0
 24 45  1  0  0  0  0
 24 23  1  0  0  0  0
 25 24  2  0  0  0  0
 26 25  1  0  0  0  0
 26 21  2  0  0  0  0
 27  9  1  0  0  0  0
 27 13  1  0  0  0  0
 28 27  2  0  0  0  0
 29  3  1  0  0  0  0
 30  5  1  0  0  0  0
 33  8  1  0  0  0  0
 34  8  1  0  0  0  0
 39 15  1  0  0  0  0
 41 17  1  0  0  0  0
 43 18  1  0  0  0  0
 46 26  1  0  0  0  0
M  END
>  <Pose>
1

>  <Score>
-7.72

$$$$
