
 OpenBabel03202209553D

 50 53  0  0  1  0  0  0  0  0999 V2000
   26.3390   -0.4110   27.6410 Cl  0  0  0  0  0  0  0  0  0  0  0  0
   26.6790    1.0940   28.4740 C   0  0  0  0  0  0  0  0  0  0  0  0
   27.3370    1.1210   29.6960 C   0  0  0  0  0  0  0  0  0  0  0  0
   27.5710    2.3590   30.2930 C   0  0  0  0  0  0  0  0  0  0  0  0
   27.1720    3.5330   29.7120 C   0  0  0  0  0  0  0  0  0  0  0  0
   26.5160    3.5110   28.4940 C   0  0  0  0  0  0  0  0  0  0  0  0
   26.2830    2.2870   27.9010 C   0  0  0  0  0  0  0  0  0  0  0  0
   27.4610    4.8050   30.3710 C   0  0  2  0  0  0  0  0  0  0  0  0
   26.7030    5.9410   30.0200 N   0  0  0  0  0  4  0  0  0  0  0  0
   27.3110    6.6320   28.9620 C   0  0  0  0  0  0  0  0  0  0  0  0
   27.2040    7.7350   28.2630 C   0  0  0  0  0  0  0  0  0  0  0  0
   28.1370    8.0510   27.1750 C   0  0  0  0  0  0  0  0  0  0  0  0
   28.9850    7.0100   26.6070 C   0  0  0  0  0  0  0  0  0  0  0  0
   28.9220    5.6730   27.3010 C   0  0  0  0  0  0  0  0  0  0  0  0
   28.4650    5.8060   28.6380 N   0  0  0  0  0  0  0  0  0  0  0  0
   28.8560    5.2960   29.9470 C   0  0  2  0  0  0  0  0  0  0  0  0
   29.8900    4.2580   29.8220 C   0  0  0  0  0  0  0  0  0  0  0  0
   25.3220    5.8760   30.1670 C   0  0  0  0  0  0  0  0  0  0  0  0
   24.8060    4.7610   30.8070 C   0  0  0  0  0  0  0  0  0  0  0  0
   23.4600    4.5710   31.0060 C   0  0  0  0  0  0  0  0  0  0  0  0
   22.5110    5.5010   30.5710 C   0  0  0  0  0  0  0  0  0  0  0  0
   23.0490    6.5950   29.9390 C   0  0  0  0  0  0  0  0  0  0  0  0
   24.3960    6.7790   29.7450 C   0  0  0  0  0  0  0  0  0  0  0  0
   21.1600    5.3010   30.7800 O   0  0  0  0  0  0  0  0  0  0  0  0
   20.5760    5.7160   31.9890 C   0  0  0  0  0  0  0  0  0  0  0  0
   27.5190    4.6840   31.7410 O   0  0  0  0  0  0  0  0  0  0  0  0
   27.6530    0.2020   30.1560 H   0  0  0  0  0  0  0  0  0  0  0  0
   28.0950    2.2720   31.2420 H   0  0  0  0  0  0  0  0  0  0  0  0
   26.2250    4.4520   28.0580 H   0  0  0  0  0  0  0  0  0  0  0  0
   25.7650    2.3270   26.9530 H   0  0  0  0  0  0  0  0  0  0  0  0
   26.9500    6.6360   30.8610 H   0  0  0  0  0  0  0  0  0  0  0  0
   26.4110    8.4770   28.5000 H   0  0  0  0  0  0  0  0  0  0  0  0
   28.7550    8.9290   27.5140 H   0  0  0  0  0  0  0  0  0  0  0  0
   27.4850    8.4920   26.3520 H   0  0  0  0  0  0  0  0  0  0  0  0
   30.0610    7.3810   26.5620 H   0  0  0  0  0  0  0  0  0  0  0  0
   28.7210    6.8320   25.5350 H   0  0  0  0  0  0  0  0  0  0  0  0
   29.9460    5.2580   27.3080 H   0  0  0  0  0  0  0  0  0  0  0  0
   28.3240    4.9460   26.7150 H   0  0  0  0  0  0  0  0  0  0  0  0
   29.1900    6.1110   30.5760 H   0  0  0  0  0  0  0  0  0  0  0  0
   30.1160    3.8050   30.8030 H   0  0  0  0  0  0  0  0  0  0  0  0
   29.8150    3.5650   28.9780 H   0  0  0  0  0  0  0  0  0  0  0  0
   30.8410    4.8430   29.6100 H   0  0  0  0  0  0  0  0  0  0  0  0
   25.4490    3.9600   31.2150 H   0  0  0  0  0  0  0  0  0  0  0  0
   23.0540    3.6900   31.5080 H   0  0  0  0  0  0  0  0  0  0  0  0
   22.3310    7.3500   29.5800 H   0  0  0  0  0  0  0  0  0  0  0  0
   24.6680    7.6680   29.2390 H   0  0  0  0  0  0  0  0  0  0  0  0
   20.3190    6.8110   31.9760 H   0  0  0  0  0  0  0  0  0  0  0  0
   21.1870    5.5520   32.8830 H   0  0  0  0  0  0  0  0  0  0  0  0
   19.5870    5.2050   32.1650 H   0  0  0  0  0  0  0  0  0  0  0  0
   27.6570    5.5020   32.2520 H   0  0  0  0  0  0  0  0  0  0  0  0
  1  2  1  0  0  0  0
  2  3  1  0  0  0  0
  3 27  1  0  0  0  0
  3  4  2  0  0  0  0
  4 28  1  0  0  0  0
  5  4  1  0  0  0  0
  5  8  1  0  0  0  0
  6  5  2  0  0  0  0
  7  2  2  0  0  0  0
  7  6  1  0  0  0  0
  8 26  1  1  0  0  0
  9 18  1  0  0  0  0
  9  8  1  0  0  0  0
  9 31  1  0  0  0  0
 10  9  1  0  0  0  0
 11 32  1  0  0  0  0
 11 10  2  0  0  0  0
 12 33  1  0  0  0  0
 12 11  1  0  0  0  0
 13 12  1  0  0  0  0
 13 14  1  0  0  0  0
 14 37  1  0  0  0  0
 14 15  1  0  0  0  0
 15 10  1  0  0  0  0
 15 16  1  0  0  0  0
 16  8  1  0  0  0  0
 16 39  1  1  0  0  0
 17 16  1  0  0  0  0
 17 40  1  0  0  0  0
 18 19  1  0  0  0  0
 19 20  2  0  0  0  0
 19 43  1  0  0  0  0
 20 44  1  0  0  0  0
 21 24  1  0  0  0  0
 21 20  1  0  0  0  0
 22 21  2  0  0  0  0
 23 22  1  0  0  0  0
 23 18  2  0  0  0  0
 24 25  1  0  0  0  0
 25 49  1  0  0  0  0
 25 48  1  0  0  0  0
 26 50  1  0  0  0  0
 29  6  1  0  0  0  0
 30  7  1  0  0  0  0
 34 12  1  0  0  0  0
 35 13  1  0  0  0  0
 36 13  1  0  0  0  0
 38 14  1  0  0  0  0
 41 17  1  0  0  0  0
 42 17  1  0  0  0  0
 45 22  1  0  0  0  0
 46 23  1  0  0  0  0
 47 25  1  0  0  0  0
M  END
>  <Pose>
1

>  <Score>
-5.03

$$$$
