
 OpenBabel03202209553D

 41 44  0  0  0  0  0  0  0  0999 V2000
   29.0530    8.2800   25.8530 Cl  0  0  0  0  0  0  0  0  0  0  0  0
   27.9610    7.4900   26.9980 C   0  0  0  0  0  0  0  0  0  0  0  0
   27.6510    8.0820   28.2040 C   0  0  0  0  0  0  0  0  0  0  0  0
   26.7910    7.4160   29.0580 C   0  0  0  0  0  0  0  0  0  0  0  0
   26.2360    6.1910   28.7530 C   0  0  0  0  0  0  0  0  0  0  0  0
   26.5700    5.6310   27.5370 C   0  0  0  0  0  0  0  0  0  0  0  0
   27.4310    6.2650   26.6460 C   0  0  0  0  0  0  0  0  0  0  0  0
   25.3600    5.5320   29.6420 N   0  0  0  0  0  0  0  0  0  0  0  0
   24.0290    5.7410   29.7770 C   0  0  0  0  0  0  0  0  0  0  0  0
   23.3770    6.5810   29.1030 O   0  0  0  0  0  0  0  0  0  0  0  0
   23.4930    4.9130   30.7490 C   0  0  0  0  0  0  0  0  0  0  0  0
   24.5030    4.1930   31.2120 C   0  0  0  0  0  0  0  0  0  0  0  0
   23.9770    3.3870   32.1580 N   0  0  0  0  0  0  0  0  0  0  0  0
   22.6630    3.6320   32.2540 N   0  0  0  0  0  0  0  0  0  0  0  0
   22.3540    4.5790   31.3820 N   0  0  0  0  0  0  0  0  0  0  0  0
   21.0440    5.1480   31.1470 C   0  0  0  0  0  0  0  0  0  0  0  0
   20.8330    6.4320   31.8590 C   0  0  0  0  0  0  0  0  0  0  0  0
   21.6900    7.5080   31.7840 C   0  0  0  0  0  0  0  0  0  0  0  0
   21.4890    8.7020   32.4480 C   0  0  0  0  0  0  0  0  0  0  0  0
   20.3710    8.8400   33.2350 C   0  0  0  0  0  0  0  0  0  0  0  0
   19.4880    7.7910   33.3390 C   0  0  0  0  0  0  0  0  0  0  0  0
   19.7140    6.6040   32.6620 C   0  0  0  0  0  0  0  0  0  0  0  0
   22.4240    9.7340   32.3030 O   0  0  0  0  0  0  0  0  0  0  0  0
   22.3170   10.6880   31.2660 C   0  0  0  0  0  0  0  0  0  0  0  0
   25.6450    4.5700   30.5360 C   0  0  0  0  0  0  0  0  0  0  0  0
   26.7720    4.0690   30.7480 O   0  0  0  0  0  0  0  0  0  0  0  0
   28.0870    9.0400   28.4390 H   0  0  0  0  0  0  0  0  0  0  0  0
   26.5370    7.8640   30.0030 H   0  0  0  0  0  0  0  0  0  0  0  0
   26.1230    4.6690   27.3170 H   0  0  0  0  0  0  0  0  0  0  0  0
   27.6640    5.7790   25.6960 H   0  0  0  0  0  0  0  0  0  0  0  0
   24.5100    2.6950   32.7170 H   0  0  0  0  0  0  0  0  0  0  0  0
   21.9680    3.1830   32.8870 H   0  0  0  0  0  0  0  0  0  0  0  0
   20.8840    5.3040   30.0620 H   0  0  0  0  0  0  0  0  0  0  0  0
   20.2920    4.4140   31.5610 H   0  0  0  0  0  0  0  0  0  0  0  0
   22.5940    7.4190   31.1590 H   0  0  0  0  0  0  0  0  0  0  0  0
   20.1870    9.7800   33.7750 H   0  0  0  0  0  0  0  0  0  0  0  0
   18.6110    7.9050   33.9600 H   0  0  0  0  0  0  0  0  0  0  0  0
   19.0150    5.7850   32.7490 H   0  0  0  0  0  0  0  0  0  0  0  0
   22.6140   10.2660   30.2780 H   0  0  0  0  0  0  0  0  0  0  0  0
   22.9960   11.5320   31.4700 H   0  0  0  0  0  0  0  0  0  0  0  0
   21.2540   11.0200   31.1650 H   0  0  0  0  0  0  0  0  0  0  0  0
  1  2  1  0  0  0  0
  2  3  1  0  0  0  0
  3 27  1  0  0  0  0
  3  4  2  0  0  0  0
  4 28  1  0  0  0  0
  5  4  1  0  0  0  0
  5  8  1  0  0  0  0
  6  5  2  0  0  0  0
  7  2  2  0  0  0  0
  7  6  1  0  0  0  0
  8  9  1  0  0  0  0
  8 25  1  0  0  0  0
  9 11  1  0  0  0  0
 10  9  2  0  0  0  0
 11 12  2  0  0  0  0
 11 15  1  0  0  0  0
 12 13  1  0  0  0  0
 13 14  1  0  0  0  0
 13 31  1  0  0  0  0
 14 32  1  0  0  0  0
 15 14  1  0  0  0  0
 16 15  1  0  0  0  0
 16 34  1  0  0  0  0
 16 17  1  0  0  0  0
 17 22  1  0  0  0  0
 18 17  2  0  0  0  0
 18 19  1  0  0  0  0
 19 20  2  0  0  0  0
 20 21  1  0  0  0  0
 20 36  1  0  0  0  0
 21 37  1  0  0  0  0
 22 38  1  0  0  0  0
 22 21  2  0  0  0  0
 23 19  1  0  0  0  0
 24 40  1  0  0  0  0
 24 23  1  0  0  0  0
 25 26  2  0  0  0  0
 25 12  1  0  0  0  0
 29  6  1  0  0  0  0
 30  7  1  0  0  0  0
 33 16  1  0  0  0  0
 35 18  1  0  0  0  0
 39 24  1  0  0  0  0
 41 24  1  0  0  0  0
M  END
>  <Pose>
1

>  <Score>
-6.54

$$$$
