
 OpenBabel03202209553D

 60 63  0  0  1  0  0  0  0  0999 V2000
   24.5840    0.4310   35.5020 Cl  0  0  0  0  0  0  0  0  0  0  0  0
   24.7870    1.4410   34.0710 C   0  0  0  0  0  0  0  0  0  0  0  0
   23.7440    2.2150   33.6400 C   0  0  0  0  0  0  0  0  0  0  0  0
   23.8740    3.0100   32.5300 C   0  0  0  0  0  0  0  0  0  0  0  0
   25.1130    2.9920   31.8600 C   0  0  0  0  0  0  0  0  0  0  0  0
   26.1350    2.2180   32.3010 C   0  0  0  0  0  0  0  0  0  0  0  0
   26.0020    1.4270   33.4120 C   0  0  0  0  0  0  0  0  0  0  0  0
   22.9460    3.7810   32.0440 O   0  0  0  0  0  0  0  0  0  0  0  0
   22.5110    4.6640   31.1740 C   0  0  0  0  0  0  0  0  0  0  0  0
   22.7240    6.1360   31.3840 C   0  0  1  0  0  0  0  0  0  0  0  0
   24.1140    6.3150   31.4460 O   0  0  0  0  0  0  0  0  0  0  0  0
   24.7270    6.4340   30.2290 C   0  0  0  0  0  0  0  0  0  0  0  0
   24.4270    7.7340   29.5090 C   0  0  0  0  0  0  0  0  0  0  0  0
   22.9910    7.9780   29.8010 N   0  0  0  0  0  0  0  0  0  0  0  0
   22.2440    6.8160   30.0890 C   0  0  0  0  0  0  0  0  0  0  0  0
   22.5320    9.2790   29.7640 C   0  0  0  0  0  0  0  0  0  0  0  0
   21.3920    9.5560   29.2060 O   0  0  0  0  0  0  0  0  0  0  0  0
   23.2220   10.4090   30.3070 C   0  0  0  0  0  0  0  0  0  0  0  0
   23.9790   10.3600   31.4030 N   0  0  0  0  0  0  0  0  0  0  0  0
   24.6310   11.4200   31.9200 C   0  0  0  0  0  0  0  0  0  0  0  0
   24.5270   12.6520   31.2950 C   0  0  0  0  0  0  0  0  0  0  0  0
   23.7850   12.7400   30.2040 N   0  0  0  0  0  0  0  0  0  0  0  0
   23.1430   11.6700   29.7060 C   0  0  0  0  0  0  0  0  0  0  0  0
   25.2660   13.7840   31.9070 C   0  0  0  0  0  0  0  0  0  0  0  0
   22.1300    6.7260   32.5790 C   0  0  0  0  0  0  0  0  0  0  0  0
   20.6840    6.6050   32.7760 C   0  0  0  0  0  0  0  0  0  0  0  0
   20.1640    5.5080   33.0530 O   0  0  0  0  0  0  0  0  0  0  0  0
   19.8220    7.7330   32.6590 N   0  0  0  0  0  0  0  0  0  0  0  0
   20.3500    9.0800   32.4710 C   0  0  0  0  0  0  0  0  0  0  0  0
   19.6320    9.9800   33.4540 C   0  0  0  0  0  0  0  0  0  0  0  0
   18.2570    9.9010   33.2160 O   0  0  0  0  0  0  0  0  0  0  0  0
   17.8090    8.6430   33.6190 C   0  0  0  0  0  0  0  0  0  0  0  0
   18.3810    7.5980   32.7170 C   0  0  0  0  0  0  0  0  0  0  0  0
   22.7990    2.1990   34.1620 H   0  0  0  0  0  0  0  0  0  0  0  0
   25.2710    3.6060   30.9700 H   0  0  0  0  0  0  0  0  0  0  0  0
   27.1000    2.1910   31.7980 H   0  0  0  0  0  0  0  0  0  0  0  0
   26.7750    0.8000   33.7990 H   0  0  0  0  0  0  0  0  0  0  0  0
   22.8570    4.4100   30.0940 H   0  0  0  0  0  0  0  0  0  0  0  0
   21.3670    4.5350   31.0360 H   0  0  0  0  0  0  0  0  0  0  0  0
   25.8170    6.4080   30.3930 H   0  0  0  0  0  0  0  0  0  0  0  0
   24.4780    5.5600   29.6010 H   0  0  0  0  0  0  0  0  0  0  0  0
   24.5940    7.5740   28.4420 H   0  0  0  0  0  0  0  0  0  0  0  0
   24.9670    8.5640   29.9640 H   0  0  0  0  0  0  0  0  0  0  0  0
   22.5310    6.0620   29.2750 H   0  0  0  0  0  0  0  0  0  0  0  0
   21.1710    6.8480   30.0530 H   0  0  0  0  0  0  0  0  0  0  0  0
   25.2230   11.2790   32.8160 H   0  0  0  0  0  0  0  0  0  0  0  0
   22.5440   11.7720   28.8150 H   0  0  0  0  0  0  0  0  0  0  0  0
   25.3900   14.6270   31.1890 H   0  0  0  0  0  0  0  0  0  0  0  0
   24.6870   14.0960   32.7990 H   0  0  0  0  0  0  0  0  0  0  0  0
   26.2760   13.4980   32.2590 H   0  0  0  0  0  0  0  0  0  0  0  0
   22.4000    7.8530   32.6200 H   0  0  0  0  0  0  0  0  0  0  0  0
   22.6760    6.3680   33.5020 H   0  0  0  0  0  0  0  0  0  0  0  0
   21.4430    9.1140   32.6390 H   0  0  0  0  0  0  0  0  0  0  0  0
   20.0920    9.4560   31.4470 H   0  0  0  0  0  0  0  0  0  0  0  0
   19.8950    9.6640   34.4720 H   0  0  0  0  0  0  0  0  0  0  0  0
   19.9040   11.0510   33.3020 H   0  0  0  0  0  0  0  0  0  0  0  0
   18.0960    8.4030   34.6580 H   0  0  0  0  0  0  0  0  0  0  0  0
   16.7010    8.6320   33.4810 H   0  0  0  0  0  0  0  0  0  0  0  0
   18.0670    6.6070   33.0990 H   0  0  0  0  0  0  0  0  0  0  0  0
   17.9980    7.6600   31.6760 H   0  0  0  0  0  0  0  0  0  0  0  0
  2  1  1  0  0  0  0
  3  2  1  0  0  0  0
  3 34  1  0  0  0  0
  4  3  2  0  0  0  0
  5  6  2  0  0  0  0
  5  4  1  0  0  0  0
  6  7  1  0  0  0  0
  7 37  1  0  0  0  0
  7  2  2  0  0  0  0
  8  4  1  0  0  0  0
  9  8  1  0  0  0  0
 10  9  1  6  0  0  0
 10 11  1  0  0  0  0
 10 25  1  0  0  0  0
 12 40  1  0  0  0  0
 12 11  1  0  0  0  0
 13 14  1  0  0  0  0
 13 43  1  0  0  0  0
 13 12  1  0  0  0  0
 14 15  1  0  0  0  0
 15 10  1  0  0  0  0
 16 14  1  0  0  0  0
 16 18  1  0  0  0  0
 17 16  2  0  0  0  0
 18 19  1  0  0  0  0
 19 20  2  0  0  0  0
 20 46  1  0  0  0  0
 21 24  1  0  0  0  0
 21 20  1  0  0  0  0
 22 21  2  0  0  0  0
 23 22  1  0  0  0  0
 23 18  2  0  0  0  0
 24 50  1  0  0  0  0
 24 49  1  0  0  0  0
 25 51  1  0  0  0  0
 25 26  1  0  0  0  0
 25 52  1  0  0  0  0
 26 27  2  0  0  0  0
 28 33  1  0  0  0  0
 28 26  1  0  0  0  0
 29 53  1  0  0  0  0
 29 28  1  0  0  0  0
 29 30  1  0  0  0  0
 30 55  1  0  0  0  0
 31 30  1  0  0  0  0
 31 32  1  0  0  0  0
 32 57  1  0  0  0  0
 33 59  1  0  0  0  0
 33 32  1  0  0  0  0
 35  5  1  0  0  0  0
 36  6  1  0  0  0  0
 38  9  1  0  0  0  0
 39  9  1  0  0  0  0
 41 12  1  0  0  0  0
 42 13  1  0  0  0  0
 44 15  1  0  0  0  0
 45 15  1  0  0  0  0
 47 23  1  0  0  0  0
 48 24  1  0  0  0  0
 54 29  1  0  0  0  0
 56 30  1  0  0  0  0
 58 32  1  0  0  0  0
 60 33  1  0  0  0  0
M  END
>  <Pose>
1

>  <Score>
-6.81

$$$$
