
 OpenBabel03202209553D

 51 54  0  0  1  0  0  0  0  0999 V2000
   20.8180    5.5950   31.6670 Cl  0  0  0  0  0  0  0  0  0  0  0  0
   22.4720    5.9010   31.2510 C   0  0  0  0  0  0  0  0  0  0  0  0
   23.2970    4.8820   31.0050 N   0  0  0  0  0  4  0  0  0  0  0  0
   24.5810    5.0610   30.6810 C   0  0  0  0  0  0  0  0  0  0  0  0
   25.5640    4.2170   30.3930 N   0  0  0  0  0  0  0  0  0  0  0  0
   26.6310    4.9870   30.1390 C   0  0  0  0  0  0  0  0  0  0  0  0
   26.3470    6.2910   30.2580 N   0  0  0  0  0  0  0  0  0  0  0  0
   25.0530    6.3790   30.6030 C   0  0  0  0  0  0  0  0  0  0  0  0
   24.2160    7.4340   30.8530 C   0  0  0  0  0  0  0  0  0  0  0  0
   22.9190    7.1580   31.1780 N   0  0  0  0  0  0  0  0  0  0  0  0
   24.6930    8.7600   30.7960 N   0  0  0  0  0  0  0  0  0  0  0  0
   25.5200    9.1320   29.6710 C   0  0  0  0  0  0  0  0  0  0  0  0
   26.0750   10.5270   29.7730 C   0  0  0  0  0  0  0  0  0  0  0  0
   24.9980   11.4610   30.2030 C   0  0  2  0  0  0  0  0  0  0  0  0
   24.5370   11.1050   31.5750 C   0  0  0  0  0  0  0  0  0  0  0  0
   24.3350    9.6600   31.8480 C   0  0  0  0  0  0  0  0  0  0  0  0
   23.9310   11.5930   29.2090 C   0  0  0  0  0  0  0  0  0  0  0  0
   23.4150   10.5480   28.7430 O   0  0  0  0  0  0  0  0  0  0  0  0
   23.4560   12.8370   28.7470 N   0  0  0  0  0  0  0  0  0  0  0  0
   24.1420   14.0900   28.9630 C   0  0  0  0  0  0  0  0  0  0  0  0
   23.8080   14.7430   30.2730 C   0  0  0  0  0  0  0  0  0  0  0  0
   22.3960   15.0720   30.3470 N   0  0  0  0  0  0  0  0  0  0  0  0
   22.1500   16.4740   30.3790 C   0  0  0  0  0  0  0  0  0  0  0  0
   21.6680   16.8970   31.7520 C   0  0  0  0  0  0  0  0  0  0  0  0
   20.4640   16.2790   31.9830 O   0  0  0  0  0  0  0  0  0  0  0  0
   20.4470   14.9170   31.8450 C   0  0  0  0  0  0  0  0  0  0  0  0
   21.6860   14.2960   31.3000 C   0  0  0  0  0  0  0  0  0  0  0  0
   27.6030    4.6080   29.8700 H   0  0  0  0  0  0  0  0  0  0  0  0
   26.9770    7.1150   30.1140 H   0  0  0  0  0  0  0  0  0  0  0  0
   25.0690    8.9320   28.6900 H   0  0  0  0  0  0  0  0  0  0  0  0
   26.4350    8.4570   29.6890 H   0  0  0  0  0  0  0  0  0  0  0  0
   26.9120   10.5700   30.4890 H   0  0  0  0  0  0  0  0  0  0  0  0
   26.4510   10.8010   28.7670 H   0  0  0  0  0  0  0  0  0  0  0  0
   25.4780   12.4810   30.2770 H   0  0  0  0  0  0  0  0  0  0  0  0
   25.3350   11.4680   32.2890 H   0  0  0  0  0  0  0  0  0  0  0  0
   23.6500   11.7260   31.8160 H   0  0  0  0  0  0  0  0  0  0  0  0
   23.2490    9.5230   32.1210 H   0  0  0  0  0  0  0  0  0  0  0  0
   24.8820    9.3110   32.7730 H   0  0  0  0  0  0  0  0  0  0  0  0
   22.5420   12.8590   28.2080 H   0  0  0  0  0  0  0  0  0  0  0  0
   25.2130   13.9960   28.7990 H   0  0  0  0  0  0  0  0  0  0  0  0
   23.7640   14.7860   28.1610 H   0  0  0  0  0  0  0  0  0  0  0  0
   23.9930   13.9850   31.0650 H   0  0  0  0  0  0  0  0  0  0  0  0
   24.4180   15.6290   30.4880 H   0  0  0  0  0  0  0  0  0  0  0  0
   21.4050   16.8120   29.6230 H   0  0  0  0  0  0  0  0  0  0  0  0
   23.0940   17.0070   30.1410 H   0  0  0  0  0  0  0  0  0  0  0  0
   22.4360   16.6470   32.5100 H   0  0  0  0  0  0  0  0  0  0  0  0
   21.4940   17.9900   31.7230 H   0  0  0  0  0  0  0  0  0  0  0  0
   20.1160   14.4130   32.7970 H   0  0  0  0  0  0  0  0  0  0  0  0
   19.6150   14.6750   31.1190 H   0  0  0  0  0  0  0  0  0  0  0  0
   21.4910   13.2980   30.8720 H   0  0  0  0  0  0  0  0  0  0  0  0
   22.3770   14.1170   32.1750 H   0  0  0  0  0  0  0  0  0  0  0  0
  2  1  1  0  0  0  0
  3  2  2  0  0  0  0
  4  3  2  0  0  0  0
  5  4  1  0  0  0  0
  6  7  1  0  0  0  0
  6  5  2  0  0  0  0
  7  8  1  0  0  0  0
  8  4  1  0  0  0  0
  8  9  2  0  0  0  0
  9 10  1  0  0  0  0
 10  2  1  0  0  0  0
 11  9  1  0  0  0  0
 11 16  1  0  0  0  0
 12 31  1  0  0  0  0
 12 13  1  0  0  0  0
 12 11  1  0  0  0  0
 13 14  1  0  0  0  0
 13 32  1  0  0  0  0
 14 34  1  1  0  0  0
 14 15  1  0  0  0  0
 15 36  1  0  0  0  0
 15 16  1  0  0  0  0
 15 35  1  0  0  0  0
 16 37  1  0  0  0  0
 16 38  1  0  0  0  0
 17 14  1  0  0  0  0
 18 17  2  0  0  0  0
 19 20  1  0  0  0  0
 19 17  1  0  0  0  0
 20 21  1  0  0  0  0
 21 22  1  0  0  0  0
 21 43  1  0  0  0  0
 21 42  1  0  0  0  0
 22 23  1  0  0  0  0
 22 27  1  0  0  0  0
 23 24  1  0  0  0  0
 24 25  1  0  0  0  0
 24 46  1  0  0  0  0
 26 25  1  0  0  0  0
 26 48  1  0  0  0  0
 27 26  1  0  0  0  0
 27 51  1  0  0  0  0
 28  6  1  0  0  0  0
 29  7  1  0  0  0  0
 30 12  1  0  0  0  0
 33 13  1  0  0  0  0
 39 19  1  0  0  0  0
 40 20  1  0  0  0  0
 41 20  1  0  0  0  0
 44 23  1  0  0  0  0
 45 23  1  0  0  0  0
 47 24  1  0  0  0  0
 49 26  1  0  0  0  0
 50 27  1  0  0  0  0
M  END
>  <Pose>
1

>  <Score>
-6.54

$$$$
