
 OpenBabel03202209553D

 58 61  0  0  1  0  0  0  0  0999 V2000
   23.5890   -0.0860   34.4510 Cl  0  0  0  0  0  0  0  0  0  0  0  0
   24.0370    1.1720   33.3090 C   0  0  0  0  0  0  0  0  0  0  0  0
   23.3860    2.3770   33.2330 C   0  0  0  0  0  0  0  0  0  0  0  0
   23.7450    3.3640   32.3290 C   0  0  0  0  0  0  0  0  0  0  0  0
   23.3090    4.5990   32.0320 N   0  0  0  0  0  0  0  0  0  0  0  0
   24.0340    5.1410   31.0380 C   0  0  0  0  0  0  0  0  0  0  0  0
   24.9560    4.1890   30.7150 N   0  0  0  0  0  0  0  0  0  0  0  0
   24.8020    3.1040   31.4820 C   0  0  0  0  0  0  0  0  0  0  0  0
   25.4840    1.9060   31.5250 C   0  0  0  0  0  0  0  0  0  0  0  0
   25.0890    0.9440   32.4480 C   0  0  0  0  0  0  0  0  0  0  0  0
   25.9470    4.4000   29.6610 C   0  0  0  0  0  0  0  0  0  0  0  0
   23.9020    6.4740   30.4000 C   0  0  0  0  0  0  0  0  0  0  0  0
   22.5320    7.0610   30.5020 C   0  0  0  0  0  0  0  0  0  0  0  0
   22.4740    8.2930   31.3260 C   0  0  0  0  0  0  0  0  0  0  0  0
   21.5980    8.3830   32.2240 O   0  0  0  0  0  0  0  0  0  0  0  0
   23.3730    9.3560   31.1230 N   0  0  0  0  0  0  0  0  0  0  0  0
   23.1430   10.6950   31.6660 C   0  0  0  0  0  0  0  0  0  0  0  0
   22.9660   11.5930   30.4570 C   0  0  2  0  0  0  0  0  0  0  0  0
   24.1530   11.4890   29.5290 C   0  0  1  0  0  0  0  0  0  0  0  0
   25.2260   10.5760   30.1350 C   0  0  0  0  0  0  0  0  0  0  0  0
   24.6010    9.2090   30.3610 C   0  0  0  0  0  0  0  0  0  0  0  0
   23.8160   10.8620   28.3040 O   0  0  0  0  0  0  0  0  0  0  0  0
   24.7550   12.8120   29.1650 C   0  0  0  0  0  0  0  0  0  0  0  0
   22.5660   12.9210   30.7620 N   0  0  0  0  0  0  0  0  0  0  0  0
   23.0510   13.5820   31.8550 C   0  0  0  0  0  0  0  0  0  0  0  0
   22.6630   14.8710   32.1530 C   0  0  0  0  0  0  0  0  0  0  0  0
   21.7640   15.5150   31.3320 C   0  0  0  0  0  0  0  0  0  0  0  0
   21.3790   16.7100   31.5740 O   0  0  0  0  0  0  0  0  0  0  0  0
   21.2900   14.8580   30.2590 N   0  0  0  0  0  0  0  0  0  0  0  0
   21.7040   13.5830   30.0050 C   0  0  0  0  0  0  0  0  0  0  0  0
   21.2290   13.0220   28.9920 O   0  0  0  0  0  0  0  0  0  0  0  0
   23.1710   15.6170   33.3310 C   0  0  0  0  0  0  0  0  0  0  0  0
   22.5570    2.5670   33.9050 H   0  0  0  0  0  0  0  0  0  0  0  0
   26.3120    1.7050   30.8600 H   0  0  0  0  0  0  0  0  0  0  0  0
   25.6170    0.0050   32.4880 H   0  0  0  0  0  0  0  0  0  0  0  0
   26.7200    5.1540   29.9830 H   0  0  0  0  0  0  0  0  0  0  0  0
   25.4780    4.8330   28.7490 H   0  0  0  0  0  0  0  0  0  0  0  0
   26.4530    3.4290   29.4460 H   0  0  0  0  0  0  0  0  0  0  0  0
   24.2640    6.4570   29.3400 H   0  0  0  0  0  0  0  0  0  0  0  0
   24.5980    7.1570   30.9320 H   0  0  0  0  0  0  0  0  0  0  0  0
   22.1840    7.3070   29.4590 H   0  0  0  0  0  0  0  0  0  0  0  0
   21.8580    6.2720   30.8970 H   0  0  0  0  0  0  0  0  0  0  0  0
   24.0560   10.9180   32.2550 H   0  0  0  0  0  0  0  0  0  0  0  0
   22.2210   10.7390   32.2730 H   0  0  0  0  0  0  0  0  0  0  0  0
   22.1070   11.1070   29.8980 H   0  0  0  0  0  0  0  0  0  0  0  0
   26.0170   10.4440   29.3710 H   0  0  0  0  0  0  0  0  0  0  0  0
   25.6820   11.0010   31.0270 H   0  0  0  0  0  0  0  0  0  0  0  0
   25.2960    8.6010   30.9770 H   0  0  0  0  0  0  0  0  0  0  0  0
   24.4410    8.7150   29.3920 H   0  0  0  0  0  0  0  0  0  0  0  0
   23.1180   11.4300   27.8960 H   0  0  0  0  0  0  0  0  0  0  0  0
   25.1120   12.8280   28.0940 H   0  0  0  0  0  0  0  0  0  0  0  0
   25.6820   13.0460   29.7600 H   0  0  0  0  0  0  0  0  0  0  0  0
   24.0470   13.6440   29.2610 H   0  0  0  0  0  0  0  0  0  0  0  0
   23.7690   13.0660   32.5090 H   0  0  0  0  0  0  0  0  0  0  0  0
   20.6140   15.3400   29.6390 H   0  0  0  0  0  0  0  0  0  0  0  0
   24.0820   16.1650   32.9820 H   0  0  0  0  0  0  0  0  0  0  0  0
   22.4480   16.3930   33.6580 H   0  0  0  0  0  0  0  0  0  0  0  0
   23.4100   14.9160   34.1570 H   0  0  0  0  0  0  0  0  0  0  0  0
  2  1  1  0  0  0  0
  3  2  1  0  0  0  0
  3 33  1  0  0  0  0
  4  3  2  0  0  0  0
  5  4  1  0  0  0  0
  6  5  2  0  0  0  0
  7  6  1  0  0  0  0
  7  8  1  0  0  0  0
  8  9  2  0  0  0  0
  8  4  1  0  0  0  0
  9 10  1  0  0  0  0
 10 35  1  0  0  0  0
 10  2  2  0  0  0  0
 11 36  1  0  0  0  0
 11  7  1  0  0  0  0
 12 13  1  0  0  0  0
 12 40  1  0  0  0  0
 12  6  1  0  0  0  0
 13 42  1  0  0  0  0
 13 14  1  0  0  0  0
 14 15  2  0  0  0  0
 16 14  1  0  0  0  0
 16 17  1  0  0  0  0
 17 43  1  0  0  0  0
 17 44  1  0  0  0  0
 18 45  1  6  0  0  0
 18 24  1  0  0  0  0
 18 17  1  0  0  0  0
 19 22  1  6  0  0  0
 19 20  1  0  0  0  0
 19 18  1  0  0  0  0
 20 21  1  0  0  0  0
 20 47  1  0  0  0  0
 21 48  1  0  0  0  0
 21 16  1  0  0  0  0
 23 53  1  0  0  0  0
 23 19  1  0  0  0  0
 23 52  1  0  0  0  0
 24 25  1  0  0  0  0
 25 26  2  0  0  0  0
 25 54  1  0  0  0  0
 26 32  1  0  0  0  0
 27 28  2  0  0  0  0
 27 26  1  0  0  0  0
 29 27  1  0  0  0  0
 30 29  1  0  0  0  0
 30 24  1  0  0  0  0
 31 30  2  0  0  0  0
 32 57  1  0  0  0  0
 32 58  1  0  0  0  0
 34  9  1  0  0  0  0
 37 11  1  0  0  0  0
 38 11  1  0  0  0  0
 39 12  1  0  0  0  0
 41 13  1  0  0  0  0
 46 20  1  0  0  0  0
 49 21  1  0  0  0  0
 50 22  1  0  0  0  0
 51 23  1  0  0  0  0
 55 29  1  0  0  0  0
 56 32  1  0  0  0  0
M  END
>  <Pose>
1

>  <Score>
-7.20

$$$$
