
 OpenBabel03202209553D

 42 45  0  0  0  0  0  0  0  0999 V2000
   22.0540   13.5190   30.5960 Cl  0  0  0  0  0  0  0  0  0  0  0  0
   23.0940   12.1230   30.8690 C   0  0  0  0  0  0  0  0  0  0  0  0
   22.6980   10.8360   30.5470 C   0  0  0  0  0  0  0  0  0  0  0  0
   23.4790    9.7190   30.7440 C   0  0  0  0  0  0  0  0  0  0  0  0
   23.3450    8.3980   30.5310 N   0  0  0  0  0  0  0  0  0  0  0  0
   24.4520    7.7380   30.9220 C   0  0  0  0  0  0  0  0  0  0  0  0
   25.2880    8.6790   31.3890 N   0  0  0  0  0  0  0  0  0  0  0  0
   24.7460    9.9100   31.3040 C   0  0  0  0  0  0  0  0  0  0  0  0
   25.1530   11.1830   31.6280 C   0  0  0  0  0  0  0  0  0  0  0  0
   24.3600   12.2840   31.4240 C   0  0  0  0  0  0  0  0  0  0  0  0
   24.6950    6.2560   30.8490 C   0  0  0  0  0  0  0  0  0  0  0  0
   25.9650    5.9960   30.1960 N   0  0  0  0  0  0  0  0  0  0  0  0
   26.0580    5.4910   28.8850 C   0  0  0  0  0  0  0  0  0  0  0  0
   25.0220    5.4730   28.1990 O   0  0  0  0  0  0  0  0  0  0  0  0
   27.3180    4.9930   28.3060 C   0  0  0  0  0  0  0  0  0  0  0  0
   28.1290    4.1070   29.1690 C   0  0  0  0  0  0  0  0  0  0  0  0
   27.3640    3.4420   28.0950 C   0  0  0  0  0  0  0  0  0  0  0  0
   27.9140    5.6820   27.2020 N   0  0  0  0  0  0  0  0  0  0  0  0
   29.0280    6.4950   27.4960 C   0  0  0  0  0  0  0  0  0  0  0  0
   28.5320    7.9290   27.6360 C   0  0  0  0  0  0  0  0  0  0  0  0
   28.1270    8.4090   26.4130 O   0  0  0  0  0  0  0  0  0  0  0  0
   27.6270    7.4620   25.5540 C   0  0  0  0  0  0  0  0  0  0  0  0
   27.0340    6.2700   26.2770 C   0  0  0  0  0  0  0  0  0  0  0  0
   21.7020   10.6910   30.1100 H   0  0  0  0  0  0  0  0  0  0  0  0
   26.2400    8.4780   31.7690 H   0  0  0  0  0  0  0  0  0  0  0  0
   26.1290   11.3150   32.0570 H   0  0  0  0  0  0  0  0  0  0  0  0
   24.6540   13.3030   31.6690 H   0  0  0  0  0  0  0  0  0  0  0  0
   23.8980    5.7440   30.3220 H   0  0  0  0  0  0  0  0  0  0  0  0
   24.7900    5.9000   31.8890 H   0  0  0  0  0  0  0  0  0  0  0  0
   26.8460    6.1920   30.7270 H   0  0  0  0  0  0  0  0  0  0  0  0
   27.8180    3.8660   30.2060 H   0  0  0  0  0  0  0  0  0  0  0  0
   29.2410    4.0850   29.0950 H   0  0  0  0  0  0  0  0  0  0  0  0
   26.4070    2.9120   28.3110 H   0  0  0  0  0  0  0  0  0  0  0  0
   27.9080    3.0450   27.2490 H   0  0  0  0  0  0  0  0  0  0  0  0
   29.6790    6.1970   28.3140 H   0  0  0  0  0  0  0  0  0  0  0  0
   29.6920    6.5120   26.5800 H   0  0  0  0  0  0  0  0  0  0  0  0
   27.6850    7.9430   28.3460 H   0  0  0  0  0  0  0  0  0  0  0  0
   29.3900    8.5290   28.0460 H   0  0  0  0  0  0  0  0  0  0  0  0
   26.7660    7.9490   25.0060 H   0  0  0  0  0  0  0  0  0  0  0  0
   28.3370    7.1590   24.7560 H   0  0  0  0  0  0  0  0  0  0  0  0
   26.0570    6.6030   26.6730 H   0  0  0  0  0  0  0  0  0  0  0  0
   26.7810    5.5260   25.4680 H   0  0  0  0  0  0  0  0  0  0  0  0
  1  2  1  0  0  0  0
  2 10  1  0  0  0  0
  3  4  1  0  0  0  0
  3  2  2  0  0  0  0
  4  8  2  0  0  0  0
  5  4  1  0  0  0  0
  5  6  2  0  0  0  0
  6  7  1  0  0  0  0
  7 25  1  0  0  0  0
  8  7  1  0  0  0  0
  8  9  1  0  0  0  0
  9 26  1  0  0  0  0
 10  9  2  0  0  0  0
 10 27  1  0  0  0  0
 11  6  1  0  0  0  0
 11 29  1  0  0  0  0
 12 30  1  0  0  0  0
 12 11  1  0  0  0  0
 13 12  1  0  0  0  0
 14 13  2  0  0  0  0
 15 13  1  0  0  0  0
 15 16  1  0  0  0  0
 16 31  1  0  0  0  0
 17 15  1  0  0  0  0
 17 33  1  0  0  0  0
 17 16  1  0  0  0  0
 18 19  1  0  0  0  0
 18 15  1  0  0  0  0
 19 20  1  0  0  0  0
 19 35  1  0  0  0  0
 20 38  1  0  0  0  0
 20 37  1  0  0  0  0
 21 20  1  0  0  0  0
 22 23  1  0  0  0  0
 22 21  1  0  0  0  0
 23 41  1  0  0  0  0
 23 18  1  0  0  0  0
 24  3  1  0  0  0  0
 28 11  1  0  0  0  0
 32 16  1  0  0  0  0
 34 17  1  0  0  0  0
 36 19  1  0  0  0  0
 39 22  1  0  0  0  0
 40 22  1  0  0  0  0
 42 23  1  0  0  0  0
M  END
>  <Pose>
1

>  <Score>
-5.86

$$$$
