
 OpenBabel03202209553D

 54 57  0  0  1  0  0  0  0  0999 V2000
   23.7710    6.5670   29.7030 Cl  0  0  0  0  0  0  0  0  0  0  0  0
   22.4610    6.7580   30.8440 C   0  0  0  0  0  0  0  0  0  0  0  0
   22.2190    8.0250   31.3620 C   0  0  0  0  0  0  0  0  0  0  0  0
   21.1510    8.1440   32.2110 C   0  0  0  0  0  0  0  0  0  0  0  0
   20.3650    7.0460   32.5400 C   0  0  0  0  0  0  0  0  0  0  0  0
   20.6070    5.7590   32.0160 C   0  0  0  0  0  0  0  0  0  0  0  0
   21.6840    5.6910   31.1540 C   0  0  0  0  0  0  0  0  0  0  0  0
   23.2230    9.0900   31.1040 C   0  0  0  0  0  0  0  0  0  0  0  0
   22.7410   10.1110   30.2450 N   0  0  0  0  0  0  0  0  0  0  0  0
   22.2670   11.3730   30.6090 C   0  0  0  0  0  0  0  0  0  0  0  0
   21.7250   11.5900   31.6610 O   0  0  0  0  0  0  0  0  0  0  0  0
   22.4750   12.5200   29.6140 C   0  0  0  0  0  0  0  0  0  0  0  0
   23.8850   12.5530   29.3090 N   0  0  0  0  0  0  0  0  0  0  0  0
   24.5030   13.6320   28.6890 C   0  0  0  0  0  0  0  0  0  0  0  0
   26.0700   13.4140   28.8240 C   0  0  0  0  0  0  0  0  0  0  0  0
   26.1360   11.9770   28.8500 N   0  0  0  0  0  0  0  0  0  0  0  0
   25.8510   11.4610   30.2200 C   0  0  0  0  0  0  0  0  0  0  0  0
   24.6000   12.2090   30.5880 C   0  0  0  0  0  0  0  0  0  0  0  0
   26.4980   11.1830   27.8030 C   0  0  0  0  0  0  0  0  0  0  0  0
   26.6220    9.9300   28.0250 O   0  0  0  0  0  0  0  0  0  0  0  0
   26.8010   11.5950   26.3960 C   0  0  1  0  0  0  0  0  0  0  0  0
   27.8610   12.5960   26.5410 O   0  0  0  0  0  0  0  0  0  0  0  0
   28.7330   12.2400   27.6110 C   0  0  0  0  0  0  0  0  0  0  0  0
   28.9670   10.9060   27.8150 C   0  0  0  0  0  0  0  0  0  0  0  0
   29.7960   10.4610   28.8380 C   0  0  0  0  0  0  0  0  0  0  0  0
   30.3720   11.4430   29.6360 C   0  0  0  0  0  0  0  0  0  0  0  0
   30.1640   12.7920   29.4530 C   0  0  0  0  0  0  0  0  0  0  0  0
   29.3360   13.1930   28.4240 C   0  0  0  0  0  0  0  0  0  0  0  0
   28.3560    9.9700   26.9720 O   0  0  0  0  0  0  0  0  0  0  0  0
   27.5910   10.3910   25.8150 C   0  0  0  0  0  0  0  0  0  0  0  0
   20.8760    9.0780   32.6760 H   0  0  0  0  0  0  0  0  0  0  0  0
   19.5200    7.0860   33.2200 H   0  0  0  0  0  0  0  0  0  0  0  0
   19.9800    4.9260   32.2860 H   0  0  0  0  0  0  0  0  0  0  0  0
   21.8660    4.7290   30.7170 H   0  0  0  0  0  0  0  0  0  0  0  0
   23.3740    9.5550   32.1470 H   0  0  0  0  0  0  0  0  0  0  0  0
   24.1450    8.6330   30.7340 H   0  0  0  0  0  0  0  0  0  0  0  0
   22.6450    9.8830   29.1920 H   0  0  0  0  0  0  0  0  0  0  0  0
   21.9070   12.3460   28.6920 H   0  0  0  0  0  0  0  0  0  0  0  0
   22.1710   13.4470   30.1130 H   0  0  0  0  0  0  0  0  0  0  0  0
   24.3230   14.6390   29.0120 H   0  0  0  0  0  0  0  0  0  0  0  0
   24.3950   13.5070   27.5650 H   0  0  0  0  0  0  0  0  0  0  0  0
   26.3650   13.8480   29.7890 H   0  0  0  0  0  0  0  0  0  0  0  0
   26.5840   13.8330   27.9680 H   0  0  0  0  0  0  0  0  0  0  0  0
   26.6620   11.8760   30.8450 H   0  0  0  0  0  0  0  0  0  0  0  0
   25.8160   10.3930   30.2710 H   0  0  0  0  0  0  0  0  0  0  0  0
   24.8400   13.1950   31.0220 H   0  0  0  0  0  0  0  0  0  0  0  0
   23.8840   11.6950   31.2150 H   0  0  0  0  0  0  0  0  0  0  0  0
   25.9790   11.9140   25.8070 H   0  0  0  0  0  0  0  0  0  0  0  0
   29.9550    9.3850   28.9900 H   0  0  0  0  0  0  0  0  0  0  0  0
   31.0040   11.0960   30.4440 H   0  0  0  0  0  0  0  0  0  0  0  0
   30.6350   13.5370   30.1240 H   0  0  0  0  0  0  0  0  0  0  0  0
   29.1350   14.2390   28.2320 H   0  0  0  0  0  0  0  0  0  0  0  0
   26.8090    9.5960   25.6900 H   0  0  0  0  0  0  0  0  0  0  0  0
   28.1720   10.6350   24.9540 H   0  0  0  0  0  0  0  0  0  0  0  0
  1  2  1  0  0  0  0
  2  7  2  0  0  0  0
  2  3  1  0  0  0  0
  3  4  2  0  0  0  0
  4  5  1  0  0  0  0
  4 31  1  0  0  0  0
  5 32  1  0  0  0  0
  6 33  1  0  0  0  0
  6  5  2  0  0  0  0
  7  6  1  0  0  0  0
  8  3  1  0  0  0  0
  8 35  1  0  0  0  0
  9 10  1  0  0  0  0
  9  8  1  0  0  0  0
 10 11  2  0  0  0  0
 12 39  1  0  0  0  0
 12 10  1  0  0  0  0
 13 12  1  0  0  0  0
 13 18  1  0  0  0  0
 14 15  1  0  0  0  0
 14 40  1  0  0  0  0
 14 13  1  0  0  0  0
 15 16  1  0  0  0  0
 15 42  1  0  0  0  0
 16 17  1  0  0  0  0
 17 45  1  0  0  0  0
 17 18  1  0  0  0  0
 17 44  1  0  0  0  0
 18 46  1  0  0  0  0
 18 47  1  0  0  0  0
 19 20  2  0  0  0  0
 19 16  1  0  0  0  0
 21 48  1  6  0  0  0
 21 22  1  0  0  0  0
 21 19  1  0  0  0  0
 22 23  1  0  0  0  0
 23 24  2  0  0  0  0
 23 28  1  0  0  0  0
 24 25  1  0  0  0  0
 25 49  1  0  0  0  0
 25 26  2  0  0  0  0
 26 50  1  0  0  0  0
 27 26  1  0  0  0  0
 27 51  1  0  0  0  0
 28 27  2  0  0  0  0
 29 24  1  0  0  0  0
 30 21  1  0  0  0  0
 30 29  1  0  0  0  0
 34  7  1  0  0  0  0
 36  8  1  0  0  0  0
 37  9  1  0  0  0  0
 38 12  1  0  0  0  0
 41 14  1  0  0  0  0
 43 15  1  0  0  0  0
 52 28  1  0  0  0  0
 53 30  1  0  0  0  0
 54 30  1  0  0  0  0
M  END
>  <Pose>
1

>  <Score>
-4.88

$$$$
