
 OpenBabel03202209553D

 45 48  0  0  0  0  0  0  0  0999 V2000
   27.5980    2.7210   31.9420 Cl  0  0  0  0  0  0  0  0  0  0  0  0
   26.4740    3.8730   31.2540 C   0  0  0  0  0  0  0  0  0  0  0  0
   26.9520    4.8250   30.4040 C   0  0  0  0  0  0  0  0  0  0  0  0
   26.0870    5.7630   29.8340 C   0  0  0  0  0  0  0  0  0  0  0  0
   24.7550    5.7760   30.0890 C   0  0  0  0  0  0  0  0  0  0  0  0
   24.2960    4.7830   30.9670 C   0  0  0  0  0  0  0  0  0  0  0  0
   25.1290    3.8510   31.5400 C   0  0  0  0  0  0  0  0  0  0  0  0
   23.8020    6.7000   29.4780 C   0  0  0  0  0  0  0  0  0  0  0  0
   23.0020    7.4960   30.3700 N   0  0  0  0  0  0  0  0  0  0  0  0
   21.9780    6.9710   31.1100 C   0  0  0  0  0  0  0  0  0  0  0  0
   21.3980    7.9520   31.8660 C   0  0  0  0  0  0  0  0  0  0  0  0
   22.0830    9.0480   31.5680 N   0  0  0  0  0  0  0  0  0  0  0  0
   23.0750    8.7980   30.6520 C   0  0  0  0  0  0  0  0  0  0  0  0
   23.9480    9.8050   30.1860 N   0  0  0  0  0  0  0  0  0  0  0  0
   23.4770   10.6650   29.1090 C   0  0  0  0  0  0  0  0  0  0  0  0
   24.0890   12.0350   29.4540 C   0  0  0  0  0  0  0  0  0  0  0  0
   24.1890   12.2290   30.8830 N   0  0  0  0  0  0  0  0  0  0  0  0
   25.1290   11.3410   31.5330 C   0  0  0  0  0  0  0  0  0  0  0  0
   25.2560   10.1240   30.6280 C   0  0  0  0  0  0  0  0  0  0  0  0
   20.3670    7.6930   32.6910 N   0  0  0  0  0  0  0  0  0  0  0  0
   19.8820    6.4280   32.7850 C   0  0  0  0  0  0  0  0  0  0  0  0
   18.9220    6.2340   33.5650 O   0  0  0  0  0  0  0  0  0  0  0  0
   20.4180    5.4290   32.0630 N   0  0  0  0  0  0  0  0  0  0  0  0
   21.4460    5.6990   31.2440 C   0  0  0  0  0  0  0  0  0  0  0  0
   21.9110    4.7370   30.5950 O   0  0  0  0  0  0  0  0  0  0  0  0
   19.8110    8.7950   33.4560 C   0  0  0  0  0  0  0  0  0  0  0  0
   27.9980    4.8840   30.1480 H   0  0  0  0  0  0  0  0  0  0  0  0
   26.5320    6.4950   29.1780 H   0  0  0  0  0  0  0  0  0  0  0  0
   23.2220    4.7720   31.1880 H   0  0  0  0  0  0  0  0  0  0  0  0
   24.7750    3.0850   32.2170 H   0  0  0  0  0  0  0  0  0  0  0  0
   23.1630    6.1980   28.6870 H   0  0  0  0  0  0  0  0  0  0  0  0
   24.4110    7.3940   28.8330 H   0  0  0  0  0  0  0  0  0  0  0  0
   22.3860   10.7230   29.0560 H   0  0  0  0  0  0  0  0  0  0  0  0
   23.8920   10.3870   28.1290 H   0  0  0  0  0  0  0  0  0  0  0  0
   25.0400   12.1920   28.9110 H   0  0  0  0  0  0  0  0  0  0  0  0
   23.3620   12.8040   29.0940 H   0  0  0  0  0  0  0  0  0  0  0  0
   24.5230   13.1970   31.0290 H   0  0  0  0  0  0  0  0  0  0  0  0
   24.8160   11.0580   32.5580 H   0  0  0  0  0  0  0  0  0  0  0  0
   26.1360   11.8100   31.6300 H   0  0  0  0  0  0  0  0  0  0  0  0
   25.8760   10.5420   29.7510 H   0  0  0  0  0  0  0  0  0  0  0  0
   25.8970    9.3440   30.9940 H   0  0  0  0  0  0  0  0  0  0  0  0
   20.0090    4.4780   32.1720 H   0  0  0  0  0  0  0  0  0  0  0  0
   19.2890    9.5150   32.7800 H   0  0  0  0  0  0  0  0  0  0  0  0
   20.6110    9.3680   34.0010 H   0  0  0  0  0  0  0  0  0  0  0  0
   19.0780    8.4700   34.2030 H   0  0  0  0  0  0  0  0  0  0  0  0
  2  7  1  0  0  0  0
  2  1  1  0  0  0  0
  3  2  2  0  0  0  0
  4  5  2  0  0  0  0
  4  3  1  0  0  0  0
  5  6  1  0  0  0  0
  6 29  1  0  0  0  0
  6  7  2  0  0  0  0
  7 30  1  0  0  0  0
  8  5  1  0  0  0  0
  8  9  1  0  0  0  0
  9 13  1  0  0  0  0
  9 10  1  0  0  0  0
 10 24  1  0  0  0  0
 10 11  2  0  0  0  0
 11 20  1  0  0  0  0
 12 11  1  0  0  0  0
 13 12  2  0  0  0  0
 14 19  1  0  0  0  0
 14 13  1  0  0  0  0
 15 16  1  0  0  0  0
 15 14  1  0  0  0  0
 16 17  1  0  0  0  0
 17 37  1  0  0  0  0
 17 18  1  0  0  0  0
 18 39  1  0  0  0  0
 18 38  1  0  0  0  0
 19 41  1  0  0  0  0
 19 18  1  0  0  0  0
 20 21  1  0  0  0  0
 20 26  1  0  0  0  0
 21 22  2  0  0  0  0
 23 42  1  0  0  0  0
 23 21  1  0  0  0  0
 24 23  1  0  0  0  0
 25 24  2  0  0  0  0
 26 44  1  0  0  0  0
 26 45  1  0  0  0  0
 27  3  1  0  0  0  0
 28  4  1  0  0  0  0
 31  8  1  0  0  0  0
 32  8  1  0  0  0  0
 33 15  1  0  0  0  0
 34 15  1  0  0  0  0
 35 16  1  0  0  0  0
 36 16  1  0  0  0  0
 40 19  1  0  0  0  0
 43 26  1  0  0  0  0
M  END
>  <Pose>
1

>  <Score>
-6.90

$$$$
