
 OpenBabel03202209553D

 50 53  0  0  1  0  0  0  0  0999 V2000
   29.0290   11.7610   27.4700 Cl  0  0  0  0  0  0  0  0  0  0  0  0
   27.4250   11.4870   28.1010 C   0  0  0  0  0  0  0  0  0  0  0  0
   27.0610   10.3060   28.7120 C   0  0  0  0  0  0  0  0  0  0  0  0
   25.7730   10.1560   29.1870 C   0  0  0  0  0  0  0  0  0  0  0  0
   24.8220   11.1390   29.0800 C   0  0  0  0  0  0  0  0  0  0  0  0
   25.2080   12.3270   28.4590 C   0  0  0  0  0  0  0  0  0  0  0  0
   26.4910   12.4840   27.9830 C   0  0  0  0  0  0  0  0  0  0  0  0
   23.4380   10.9630   29.5840 C   0  0  1  0  0  0  0  0  0  0  0  0
   23.4080    9.9860   30.6800 N   0  0  0  0  0  0  0  0  0  0  0  0
   24.1370   10.5840   31.7370 C   0  0  0  0  0  0  0  0  0  0  0  0
   24.7840    9.9880   32.6310 O   0  0  0  0  0  0  0  0  0  0  0  0
   23.9900   12.0440   31.5870 C   0  0  0  0  0  0  0  0  0  0  0  0
   24.4770   12.9430   32.3100 O   0  0  0  0  0  0  0  0  0  0  0  0
   23.1550   12.2090   30.4060 C   0  0  0  0  0  0  0  0  0  0  0  0
   22.3580   13.1860   30.1420 C   0  0  0  0  0  0  0  0  0  0  0  0
   21.6040   13.2040   28.9700 O   0  0  0  0  0  0  0  0  0  0  0  0
   22.2230   14.3090   31.0650 C   0  0  0  0  0  0  0  0  0  0  0  0
   22.1350   14.3660   32.3460 O   0  0  0  0  0  0  0  0  0  0  0  0
   22.0260   15.5980   32.7530 C   0  0  0  0  0  0  0  0  0  0  0  0
   22.0420   16.4360   31.6680 C   0  0  0  0  0  0  0  0  0  0  0  0
   22.1670   15.6220   30.5770 C   0  0  0  0  0  0  0  0  0  0  0  0
   22.7650    8.6800   30.6510 C   0  0  0  0  0  0  0  0  0  0  0  0
   23.7040    7.5270   30.8250 C   0  0  0  0  0  0  0  0  0  0  0  0
   23.5700    6.4610   29.8920 N   0  0  0  0  0  4  0  0  0  0  0  0
   24.5580    5.4320   29.9440 C   0  0  0  0  0  0  0  0  0  0  0  0
   24.5590    4.6540   31.2400 C   0  0  0  0  0  0  0  0  0  0  0  0
   23.3090    4.0930   31.4820 O   0  0  0  0  0  0  0  0  0  0  0  0
   22.2860    5.0300   31.3810 C   0  0  0  0  0  0  0  0  0  0  0  0
   22.2790    5.7630   30.0650 C   0  0  0  0  0  0  0  0  0  0  0  0
   27.8200    9.5440   28.7880 H   0  0  0  0  0  0  0  0  0  0  0  0
   25.5270    9.2160   29.6640 H   0  0  0  0  0  0  0  0  0  0  0  0
   24.4440   13.1130   28.3730 H   0  0  0  0  0  0  0  0  0  0  0  0
   26.7840   13.4130   27.5010 H   0  0  0  0  0  0  0  0  0  0  0  0
   22.6890   10.7840   28.8180 H   0  0  0  0  0  0  0  0  0  0  0  0
   21.9320   15.9730   33.7790 H   0  0  0  0  0  0  0  0  0  0  0  0
   21.9710   17.5320   31.6390 H   0  0  0  0  0  0  0  0  0  0  0  0
   22.2170   15.9370   29.5480 H   0  0  0  0  0  0  0  0  0  0  0  0
   22.1710    8.5600   29.7120 H   0  0  0  0  0  0  0  0  0  0  0  0
   22.0380    8.6940   31.5110 H   0  0  0  0  0  0  0  0  0  0  0  0
   24.7480    7.8940   30.9360 H   0  0  0  0  0  0  0  0  0  0  0  0
   23.4650    7.0910   31.8380 H   0  0  0  0  0  0  0  0  0  0  0  0
   23.5840    6.8640   28.9300 H   0  0  0  0  0  0  0  0  0  0  0  0
   24.2450    4.6740   29.1610 H   0  0  0  0  0  0  0  0  0  0  0  0
   25.5690    5.7190   29.6730 H   0  0  0  0  0  0  0  0  0  0  0  0
   25.2440    3.7750   31.0480 H   0  0  0  0  0  0  0  0  0  0  0  0
   24.9830    5.1970   32.0900 H   0  0  0  0  0  0  0  0  0  0  0  0
   22.3250    5.7770   32.2050 H   0  0  0  0  0  0  0  0  0  0  0  0
   21.3310    4.4700   31.4650 H   0  0  0  0  0  0  0  0  0  0  0  0
   22.2040    5.0170   29.2570 H   0  0  0  0  0  0  0  0  0  0  0  0
   21.4350    6.4750   30.1000 H   0  0  0  0  0  0  0  0  0  0  0  0
  1  2  1  0  0  0  0
  2  3  1  0  0  0  0
  3 30  1  0  0  0  0
  3  4  2  0  0  0  0
  4 31  1  0  0  0  0
  5  4  1  0  0  0  0
  5  8  1  0  0  0  0
  6  5  2  0  0  0  0
  7  2  2  0  0  0  0
  7  6  1  0  0  0  0
  8 34  1  6  0  0  0
  8 14  1  0  0  0  0
  8  9  1  0  0  0  0
  9 10  1  0  0  0  0
 10 11  2  0  0  0  0
 12 10  1  0  0  0  0
 12 13  2  0  0  0  0
 14 12  1  0  0  0  0
 15 14  2  0  0  0  0
 15 17  1  0  0  0  0
 16 15  1  0  0  0  0
 17 18  1  0  0  0  0
 18 19  1  0  0  0  0
 19 35  1  0  0  0  0
 20 19  2  0  0  0  0
 21 17  2  0  0  0  0
 21 20  1  0  0  0  0
 22  9  1  0  0  0  0
 22 23  1  0  0  0  0
 22 39  1  0  0  0  0
 23 40  1  0  0  0  0
 23 41  1  0  0  0  0
 24 25  1  0  0  0  0
 24 29  1  0  0  0  0
 24 23  1  0  0  0  0
 25 26  1  0  0  0  0
 26 27  1  0  0  0  0
 26 46  1  0  0  0  0
 28 48  1  0  0  0  0
 28 27  1  0  0  0  0
 28 47  1  0  0  0  0
 29 50  1  0  0  0  0
 29 28  1  0  0  0  0
 32  6  1  0  0  0  0
 33  7  1  0  0  0  0
 36 20  1  0  0  0  0
 37 21  1  0  0  0  0
 38 22  1  0  0  0  0
 42 24  1  0  0  0  0
 43 25  1  0  0  0  0
 44 25  1  0  0  0  0
 45 26  1  0  0  0  0
 49 29  1  0  0  0  0
M  END
>  <Pose>
1

>  <Score>
-6.10

$$$$
