
 OpenBabel03202209553D

 47 51  0  0  1  0  0  0  0  0999 V2000
   28.0070   14.1550   27.1920 Cl  0  0  0  0  0  0  0  0  0  0  0  0
   27.4570   12.6590   27.9250 C   0  0  0  0  0  0  0  0  0  0  0  0
   28.3710   11.6990   28.2860 C   0  0  0  0  0  0  0  0  0  0  0  0
   27.9220   10.5140   28.8580 C   0  0  0  0  0  0  0  0  0  0  0  0
   26.6010   10.2440   29.0880 C   0  0  0  0  0  0  0  0  0  0  0  0
   25.7110   11.2230   28.7180 C   0  0  0  0  0  0  0  0  0  0  0  0
   26.1340   12.4240   28.1400 C   0  0  0  0  0  0  0  0  0  0  0  0
   26.1480    9.0500   29.6600 N   0  0  0  0  0  0  0  0  0  0  0  0
   26.3600    7.6920   29.2180 C   0  0  0  0  0  0  0  0  0  0  0  0
   26.9670    7.3470   28.2000 O   0  0  0  0  0  0  0  0  0  0  0  0
   25.7420    6.7630   30.1730 C   0  0  2  0  0  0  0  0  0  0  0  0
   24.9000    5.6660   29.5670 C   0  0  2  0  0  0  0  0  0  0  0  0
   23.5370    6.1360   29.5090 N   0  0  0  0  0  0  0  0  0  0  0  0
   23.5900    7.5640   29.7540 C   0  0  2  0  0  0  0  0  0  0  0  0
   24.6830    7.6400   30.8000 C   0  0  2  0  0  0  0  0  0  0  0  0
   25.3590    8.9490   30.8570 C   0  0  0  0  0  0  0  0  0  0  0  0
   25.2280    9.7530   31.7840 O   0  0  0  0  0  0  0  0  0  0  0  0
   22.2870    8.1020   30.2850 C   0  0  0  0  0  0  0  0  0  0  0  0
   22.0720    9.5220   30.0230 C   0  0  0  0  0  0  0  0  0  0  0  0
   22.2490   10.3660   30.9230 O   0  0  0  0  0  0  0  0  0  0  0  0
   21.6600    9.9500   28.7400 N   0  0  0  0  0  0  0  0  0  0  0  0
   25.0440    4.5040   30.5100 C   0  0  0  0  0  0  0  0  0  0  0  0
   25.7760    3.5430   29.8730 C   0  0  0  0  0  0  0  0  0  0  0  0
   26.1400    2.3470   30.5110 C   0  0  0  0  0  0  0  0  0  0  0  0
   25.7570    2.1130   31.8150 C   0  0  0  0  0  0  0  0  0  0  0  0
   25.0200    3.0740   32.4540 C   0  0  0  0  0  0  0  0  0  0  0  0
   24.6710    4.2450   31.8130 C   0  0  0  0  0  0  0  0  0  0  0  0
   26.0150    3.8980   28.5210 N   0  0  0  0  0  0  0  0  0  0  0  0
   25.3880    5.1520   28.3030 C   0  0  0  0  0  0  0  0  0  0  0  0
   25.2940    5.6860   27.1770 O   0  0  0  0  0  0  0  0  0  0  0  0
   29.4370   11.8640   28.1250 H   0  0  0  0  0  0  0  0  0  0  0  0
   28.6740    9.8130   29.1120 H   0  0  0  0  0  0  0  0  0  0  0  0
   24.6590   11.1240   28.8490 H   0  0  0  0  0  0  0  0  0  0  0  0
   25.4120   13.1890   27.8530 H   0  0  0  0  0  0  0  0  0  0  0  0
   26.4620    6.3830   30.9270 H   0  0  0  0  0  0  0  0  0  0  0  0
   23.1670    5.9240   28.5530 H   0  0  0  0  0  0  0  0  0  0  0  0
   23.9620    8.1160   28.8630 H   0  0  0  0  0  0  0  0  0  0  0  0
   24.3400    7.2920   31.7880 H   0  0  0  0  0  0  0  0  0  0  0  0
   22.3230    7.9540   31.4060 H   0  0  0  0  0  0  0  0  0  0  0  0
   21.4740    7.4370   29.9220 H   0  0  0  0  0  0  0  0  0  0  0  0
   21.2360    9.3230   28.0150 H   0  0  0  0  0  0  0  0  0  0  0  0
   21.7490   10.9570   28.4140 H   0  0  0  0  0  0  0  0  0  0  0  0
   26.7230    1.5900   29.9980 H   0  0  0  0  0  0  0  0  0  0  0  0
   26.0560    1.1760   32.2880 H   0  0  0  0  0  0  0  0  0  0  0  0
   24.7080    2.9120   33.4680 H   0  0  0  0  0  0  0  0  0  0  0  0
   24.0830    4.9940   32.3340 H   0  0  0  0  0  0  0  0  0  0  0  0
   26.5620    3.3300   27.8030 H   0  0  0  0  0  0  0  0  0  0  0  0
  1  2  1  0  0  0  0
  2  7  2  0  0  0  0
  2  3  1  0  0  0  0
  3  4  2  0  0  0  0
  4  5  1  0  0  0  0
  4 32  1  0  0  0  0
  5  8  1  0  0  0  0
  6 33  1  0  0  0  0
  6  5  2  0  0  0  0
  7  6  1  0  0  0  0
  8 16  1  0  0  0  0
  9  8  1  0  0  0  0
  9 11  1  0  0  0  0
 10  9  2  0  0  0  0
 11 15  1  0  0  0  0
 11 35  1  1  0  0  0
 12 29  1  6  0  0  0
 12 11  1  0  0  0  0
 12 22  1  0  0  0  0
 13 12  1  0  0  0  0
 13 14  1  0  0  0  0
 14 37  1  6  0  0  0
 14 18  1  0  0  0  0
 14 15  1  0  0  0  0
 15 16  1  0  0  0  0
 15 38  1  1  0  0  0
 16 17  2  0  0  0  0
 18 39  1  0  0  0  0
 19 18  1  0  0  0  0
 19 20  2  0  0  0  0
 21 19  1  0  0  0  0
 22 27  1  0  0  0  0
 23 22  2  0  0  0  0
 23 24  1  0  0  0  0
 24 25  2  0  0  0  0
 25 44  1  0  0  0  0
 25 26  1  0  0  0  0
 26 45  1  0  0  0  0
 27 46  1  0  0  0  0
 27 26  2  0  0  0  0
 28 23  1  0  0  0  0
 29 28  1  0  0  0  0
 30 29  2  0  0  0  0
 31  3  1  0  0  0  0
 34  7  1  0  0  0  0
 36 13  1  0  0  0  0
 40 18  1  0  0  0  0
 41 21  1  0  0  0  0
 42 21  1  0  0  0  0
 43 24  1  0  0  0  0
 47 28  1  0  0  0  0
M  END
>  <Pose>
1

>  <Score>
-6.34

$$$$
