
 OpenBabel03202209553D

 40 43  0  0  0  0  0  0  0  0999 V2000
   24.7160    5.4000   30.0710 Cl  0  0  0  0  0  0  0  0  0  0  0  0
   23.2470    5.9460   30.8540 C   0  0  0  0  0  0  0  0  0  0  0  0
   22.9860    7.2820   31.0560 C   0  0  0  0  0  0  0  0  0  0  0  0
   21.8110    7.7050   31.6830 C   0  0  0  0  0  0  0  0  0  0  0  0
   20.9060    6.7390   32.0990 C   0  0  0  0  0  0  0  0  0  0  0  0
   21.1520    5.4010   31.9040 C   0  0  0  0  0  0  0  0  0  0  0  0
   22.3100    5.0000   31.2890 C   0  0  0  0  0  0  0  0  0  0  0  0
   19.6520    7.1380   32.7640 C   0  0  0  0  0  0  0  0  0  0  0  0
   18.6610    6.4620   33.2380 N   0  0  0  0  0  0  0  0  0  0  0  0
   17.6420    7.3030   33.8040 C   0  0  0  0  0  0  0  0  0  0  0  0
   18.1610    8.6930   33.6070 C   0  0  0  0  0  0  0  0  0  0  0  0
   19.4280    8.5220   32.9480 N   0  0  0  0  0  0  0  0  0  0  0  0
   20.3750    9.4880   32.5100 C   0  0  0  0  0  0  0  0  0  0  0  0
   20.1940   10.7280   32.6630 O   0  0  0  0  0  0  0  0  0  0  0  0
   21.6000    9.1010   31.8600 N   0  0  0  0  0  0  0  0  0  0  0  0
   22.5560   10.1080   31.4200 C   0  0  0  0  0  0  0  0  0  0  0  0
   22.3130   10.4950   30.0110 C   0  0  0  0  0  0  0  0  0  0  0  0
   21.7870    9.6490   29.2470 O   0  0  0  0  0  0  0  0  0  0  0  0
   22.6440   11.7680   29.4900 N   0  0  0  0  0  0  0  0  0  0  0  0
   22.8550   12.9130   30.3430 C   0  0  0  0  0  0  0  0  0  0  0  0
   21.5700   13.6800   30.5060 C   0  0  0  0  0  0  0  0  0  0  0  0
   21.6180   15.1180   30.8840 C   0  0  0  0  0  0  0  0  0  0  0  0
   21.2080   14.1160   31.8940 C   0  0  0  0  0  0  0  0  0  0  0  0
   23.6960    8.0400   30.7280 H   0  0  0  0  0  0  0  0  0  0  0  0
   20.4480    4.6660   32.2300 H   0  0  0  0  0  0  0  0  0  0  0  0
   22.5630    3.9500   31.1060 H   0  0  0  0  0  0  0  0  0  0  0  0
   17.4420    7.0750   34.8720 H   0  0  0  0  0  0  0  0  0  0  0  0
   16.6880    7.2130   33.2140 H   0  0  0  0  0  0  0  0  0  0  0  0
   17.4590    9.3270   33.0060 H   0  0  0  0  0  0  0  0  0  0  0  0
   18.3030    9.1380   34.6200 H   0  0  0  0  0  0  0  0  0  0  0  0
   23.5960    9.8670   31.6540 H   0  0  0  0  0  0  0  0  0  0  0  0
   22.3130   11.0280   32.0310 H   0  0  0  0  0  0  0  0  0  0  0  0
   22.7340   11.8610   28.4580 H   0  0  0  0  0  0  0  0  0  0  0  0
   23.6640   13.5620   29.9040 H   0  0  0  0  0  0  0  0  0  0  0  0
   23.2170   12.5600   31.3220 H   0  0  0  0  0  0  0  0  0  0  0  0
   20.7180   13.2640   29.9290 H   0  0  0  0  0  0  0  0  0  0  0  0
   22.6170   15.6060   30.9520 H   0  0  0  0  0  0  0  0  0  0  0  0
   20.8580   15.7820   30.4120 H   0  0  0  0  0  0  0  0  0  0  0  0
   21.9580   13.8850   32.6850 H   0  0  0  0  0  0  0  0  0  0  0  0
   20.1380   14.0920   32.2010 H   0  0  0  0  0  0  0  0  0  0  0  0
  1  2  1  0  0  0  0
  2  3  2  0  0  0  0
  2  7  1  0  0  0  0
  3  4  1  0  0  0  0
  4 15  1  0  0  0  0
  4  5  2  0  0  0  0
  5  8  1  0  0  0  0
  6  5  1  0  0  0  0
  6 25  1  0  0  0  0
  7  6  2  0  0  0  0
  8 12  1  0  0  0  0
  8  9  2  0  0  0  0
  9 10  1  0  0  0  0
 10 27  1  0  0  0  0
 11 10  1  0  0  0  0
 11 30  1  0  0  0  0
 12 11  1  0  0  0  0
 13 14  2  0  0  0  0
 13 12  1  0  0  0  0
 15 13  1  0  0  0  0
 16 31  1  0  0  0  0
 16 15  1  0  0  0  0
 16 32  1  0  0  0  0
 17 16  1  0  0  0  0
 18 17  2  0  0  0  0
 19 17  1  0  0  0  0
 19 20  1  0  0  0  0
 20 21  1  0  0  0  0
 20 35  1  0  0  0  0
 21 22  1  0  0  0  0
 21 23  1  0  0  0  0
 22 37  1  0  0  0  0
 22 23  1  0  0  0  0
 23 40  1  0  0  0  0
 23 39  1  0  0  0  0
 24  3  1  0  0  0  0
 26  7  1  0  0  0  0
 28 10  1  0  0  0  0
 29 11  1  0  0  0  0
 33 19  1  0  0  0  0
 34 20  1  0  0  0  0
 36 21  1  0  0  0  0
 38 22  1  0  0  0  0
M  END
>  <Pose>
1

>  <Score>
-7.34

$$$$
