
 OpenBabel03202209553D

 63 66  0  0  1  0  0  0  0  0999 V2000
   29.2530    5.8540   25.0250 Cl  0  0  0  0  0  0  0  0  0  0  0  0
   28.3690    6.4760   26.3990 C   0  0  0  0  0  0  0  0  0  0  0  0
   28.0770    7.8100   26.5600 C   0  0  0  0  0  0  0  0  0  0  0  0
   27.3760    8.2490   27.6640 C   0  0  0  0  0  0  0  0  0  0  0  0
   26.9300    7.3790   28.6690 C   0  0  0  0  0  0  0  0  0  0  0  0
   27.2350    6.0520   28.4810 C   0  0  0  0  0  0  0  0  0  0  0  0
   27.9470    5.6020   27.3600 C   0  0  0  0  0  0  0  0  0  0  0  0
   26.1620    7.9030   29.7760 C   0  0  0  0  0  0  0  0  0  0  0  0
   24.9760    7.4290   30.1190 C   0  0  0  0  0  0  0  0  0  0  0  0
   24.1280    7.9380   31.2570 C   0  0  2  0  0  0  0  0  0  0  0  0
   23.1120    6.9450   31.4530 N   0  0  0  0  0  0  0  0  0  0  0  0
   23.1000    6.0200   30.3760 C   0  0  0  0  0  0  0  0  0  0  0  0
   22.2670    5.1250   30.1690 O   0  0  0  0  0  0  0  0  0  0  0  0
   24.2800    6.3270   29.5350 C   0  0  0  0  0  0  0  0  0  0  0  0
   24.5870    5.7010   28.4930 O   0  0  0  0  0  0  0  0  0  0  0  0
   22.2180    6.8720   32.6040 C   0  0  0  0  0  0  0  0  0  0  0  0
   20.8020    6.9450   32.1470 C   0  0  0  0  0  0  0  0  0  0  0  0
   19.9300    7.5210   33.1840 N   0  0  0  0  0  4  0  0  0  0  0  0
   18.5900    7.0930   32.9210 C   0  0  0  0  0  0  0  0  0  0  0  0
   17.5650    7.9320   33.6800 C   0  0  0  0  0  0  0  0  0  0  0  0
   17.7780    9.2640   33.2790 O   0  0  0  0  0  0  0  0  0  0  0  0
   18.9770    9.6680   33.8280 C   0  0  0  0  0  0  0  0  0  0  0  0
   20.1090    8.9550   33.1170 C   0  0  0  0  0  0  0  0  0  0  0  0
   23.5970    9.2610   30.8280 C   0  0  0  0  0  0  0  0  0  0  0  0
   23.0230   10.0970   31.7420 C   0  0  0  0  0  0  0  0  0  0  0  0
   22.5510   11.3130   31.3410 C   0  0  0  0  0  0  0  0  0  0  0  0
   22.6340   11.7290   30.0300 C   0  0  0  0  0  0  0  0  0  0  0  0
   23.2150   10.8840   29.1030 C   0  0  0  0  0  0  0  0  0  0  0  0
   23.6940    9.6490   29.5150 C   0  0  0  0  0  0  0  0  0  0  0  0
   22.1500   12.9700   29.6300 O   0  0  0  0  0  0  0  0  0  0  0  0
   21.2400   13.6540   30.5040 C   0  0  0  0  0  0  0  0  0  0  0  0
   22.0130   14.7180   31.2790 C   0  0  0  0  0  0  0  0  0  0  0  0
   20.9940   15.7370   31.7690 C   0  0  0  0  0  0  0  0  0  0  0  0
   26.6530    8.9730   30.5620 O   0  0  0  0  0  0  0  0  0  0  0  0
   28.4150    8.4910   25.7930 H   0  0  0  0  0  0  0  0  0  0  0  0
   27.1540    9.3030   27.7740 H   0  0  0  0  0  0  0  0  0  0  0  0
   26.8920    5.3260   29.2060 H   0  0  0  0  0  0  0  0  0  0  0  0
   28.1650    4.5400   27.2580 H   0  0  0  0  0  0  0  0  0  0  0  0
   24.7660    8.0680   32.1570 H   0  0  0  0  0  0  0  0  0  0  0  0
   22.4390    7.7410   33.2640 H   0  0  0  0  0  0  0  0  0  0  0  0
   22.4240    5.9390   33.1530 H   0  0  0  0  0  0  0  0  0  0  0  0
   20.3890    5.9490   31.9170 H   0  0  0  0  0  0  0  0  0  0  0  0
   20.7220    7.6240   31.2590 H   0  0  0  0  0  0  0  0  0  0  0  0
   20.2210    7.1820   34.1380 H   0  0  0  0  0  0  0  0  0  0  0  0
   18.5040    6.0380   33.3030 H   0  0  0  0  0  0  0  0  0  0  0  0
   18.3290    7.1590   31.8450 H   0  0  0  0  0  0  0  0  0  0  0  0
   17.7850    7.7880   34.7520 H   0  0  0  0  0  0  0  0  0  0  0  0
   16.5670    7.6120   33.3800 H   0  0  0  0  0  0  0  0  0  0  0  0
   19.1280   10.7480   33.6610 H   0  0  0  0  0  0  0  0  0  0  0  0
   19.0630    9.4350   34.8980 H   0  0  0  0  0  0  0  0  0  0  0  0
   21.0570    9.1900   33.6460 H   0  0  0  0  0  0  0  0  0  0  0  0
   20.1730    9.2430   32.0500 H   0  0  0  0  0  0  0  0  0  0  0  0
   22.9340    9.8180   32.7840 H   0  0  0  0  0  0  0  0  0  0  0  0
   22.0920   11.9890   32.0570 H   0  0  0  0  0  0  0  0  0  0  0  0
   23.2720   11.2270   28.0800 H   0  0  0  0  0  0  0  0  0  0  0  0
   24.1400    9.0260   28.7370 H   0  0  0  0  0  0  0  0  0  0  0  0
   20.4620   14.1620   29.9130 H   0  0  0  0  0  0  0  0  0  0  0  0
   20.7630   12.9330   31.1900 H   0  0  0  0  0  0  0  0  0  0  0  0
   22.4590   14.2270   32.1680 H   0  0  0  0  0  0  0  0  0  0  0  0
   22.7840   15.1860   30.6380 H   0  0  0  0  0  0  0  0  0  0  0  0
   21.2950   16.1390   32.7440 H   0  0  0  0  0  0  0  0  0  0  0  0
   19.9860   15.2760   31.9050 H   0  0  0  0  0  0  0  0  0  0  0  0
   20.9480   16.5520   31.0190 H   0  0  0  0  0  0  0  0  0  0  0  0
  1  2  1  0  0  0  0
  2  3  2  0  0  0  0
  2  7  1  0  0  0  0
  3  4  1  0  0  0  0
  4 36  1  0  0  0  0
  4  5  2  0  0  0  0
  5  8  1  0  0  0  0
  6  5  1  0  0  0  0
  6 37  1  0  0  0  0
  7  6  2  0  0  0  0
  8  9  2  0  0  0  0
  8 34  1  0  0  0  0
  9 10  1  0  0  0  0
 10 11  1  0  0  0  0
 10 39  1  1  0  0  0
 11 16  1  0  0  0  0
 12 11  1  0  0  0  0
 13 12  2  0  0  0  0
 14  9  1  0  0  0  0
 14 12  1  0  0  0  0
 15 14  2  0  0  0  0
 16 41  1  0  0  0  0
 16 40  1  0  0  0  0
 17 16  1  0  0  0  0
 17 18  1  0  0  0  0
 18 44  1  0  0  0  0
 19 18  1  0  0  0  0
 19 45  1  0  0  0  0
 19 20  1  0  0  0  0
 20 47  1  0  0  0  0
 21 20  1  0  0  0  0
 21 22  1  0  0  0  0
 22 50  1  0  0  0  0
 23 18  1  0  0  0  0
 23 51  1  0  0  0  0
 23 22  1  0  0  0  0
 24 10  1  0  0  0  0
 24 25  1  0  0  0  0
 25 53  1  0  0  0  0
 26 25  2  0  0  0  0
 26 54  1  0  0  0  0
 27 26  1  0  0  0  0
 28 29  1  0  0  0  0
 28 27  2  0  0  0  0
 29 24  2  0  0  0  0
 30 27  1  0  0  0  0
 30 31  1  0  0  0  0
 31 58  1  0  0  0  0
 31 32  1  0  0  0  0
 32 33  1  0  0  0  0
 32 59  1  0  0  0  0
 33 62  1  0  0  0  0
 33 61  1  0  0  0  0
 35  3  1  0  0  0  0
 38  7  1  0  0  0  0
 42 17  1  0  0  0  0
 43 17  1  0  0  0  0
 46 19  1  0  0  0  0
 48 20  1  0  0  0  0
 49 22  1  0  0  0  0
 52 23  1  0  0  0  0
 55 28  1  0  0  0  0
 56 29  1  0  0  0  0
 57 31  1  0  0  0  0
 60 32  1  0  0  0  0
 63 33  1  0  0  0  0
M  END
>  <Pose>
1

>  <Score>
-6.46

$$$$
