
 OpenBabel03202209553D

 52 55  0  0  0  0  0  0  0  0999 V2000
   22.3590   14.7510   30.6350 Cl  0  0  0  0  0  0  0  0  0  0  0  0
   23.4220   13.4150   30.3130 C   0  0  0  0  0  0  0  0  0  0  0  0
   23.7740   12.5220   31.3260 C   0  0  0  0  0  0  0  0  0  0  0  0
   24.6210   11.4610   31.0630 C   0  0  0  0  0  0  0  0  0  0  0  0
   25.1400   11.2580   29.7870 C   0  0  0  0  0  0  0  0  0  0  0  0
   24.7980   12.1300   28.7910 C   0  0  0  0  0  0  0  0  0  0  0  0
   23.9430   13.1990   29.0590 C   0  0  0  0  0  0  0  0  0  0  0  0
   26.0490   10.1050   29.5480 C   0  0  0  0  0  0  0  0  0  0  0  0
   27.4230   10.5520   29.2520 C   0  0  0  0  0  0  0  0  0  0  0  0
   27.7740   11.6800   29.6890 O   0  0  0  0  0  0  0  0  0  0  0  0
   28.3510    9.7970   28.5170 N   0  0  0  0  0  0  0  0  0  0  0  0
   29.2260    8.8140   29.1800 C   0  0  0  0  0  0  0  0  0  0  0  0
   29.3670    7.6120   28.2590 C   0  0  0  0  0  0  0  0  0  0  0  0
   28.1640    7.5620   27.4520 N   0  0  0  0  0  0  0  0  0  0  0  0
   28.0620    8.5850   26.4260 C   0  0  0  0  0  0  0  0  0  0  0  0
   28.5410    9.8940   27.0770 C   0  0  0  0  0  0  0  0  0  0  0  0
   27.1540    6.5890   27.6650 C   0  0  0  0  0  0  0  0  0  0  0  0
   26.8580    5.6690   26.6760 C   0  0  0  0  0  0  0  0  0  0  0  0
   25.8720    4.7520   26.9020 N   0  0  0  0  0  0  0  0  0  0  0  0
   25.1830    4.7020   28.0250 N   0  0  0  0  0  0  0  0  0  0  0  0
   25.4230    5.5820   29.0460 C   0  0  0  0  0  0  0  0  0  0  0  0
   26.4080    6.4940   28.8160 C   0  0  0  0  0  0  0  0  0  0  0  0
   24.6460    5.4730   30.2200 N   0  0  0  0  0  0  0  0  0  0  0  0
   24.9560    4.4790   31.2310 C   0  0  0  0  0  0  0  0  0  0  0  0
   23.6800    3.7820   31.7050 C   0  0  0  0  0  0  0  0  0  0  0  0
   22.6780    4.6900   31.9850 O   0  0  0  0  0  0  0  0  0  0  0  0
   22.3580    5.3520   30.8090 C   0  0  0  0  0  0  0  0  0  0  0  0
   23.5110    6.3190   30.4850 C   0  0  0  0  0  0  0  0  0  0  0  0
   23.3750   12.6810   32.3050 H   0  0  0  0  0  0  0  0  0  0  0  0
   24.9170   10.7470   31.8300 H   0  0  0  0  0  0  0  0  0  0  0  0
   25.1770   12.0150   27.7720 H   0  0  0  0  0  0  0  0  0  0  0  0
   23.6920   13.8690   28.2540 H   0  0  0  0  0  0  0  0  0  0  0  0
   25.6350    9.5740   28.6420 H   0  0  0  0  0  0  0  0  0  0  0  0
   26.0220    9.4030   30.4060 H   0  0  0  0  0  0  0  0  0  0  0  0
   28.7270    8.5600   30.1270 H   0  0  0  0  0  0  0  0  0  0  0  0
   30.2060    9.2730   29.4220 H   0  0  0  0  0  0  0  0  0  0  0  0
   29.5570    6.6740   28.8000 H   0  0  0  0  0  0  0  0  0  0  0  0
   30.2240    7.7780   27.5690 H   0  0  0  0  0  0  0  0  0  0  0  0
   27.0620    8.7180   26.0110 H   0  0  0  0  0  0  0  0  0  0  0  0
   28.8090    8.3340   25.6460 H   0  0  0  0  0  0  0  0  0  0  0  0
   28.0770   10.7690   26.6260 H   0  0  0  0  0  0  0  0  0  0  0  0
   29.6420    9.9950   26.9260 H   0  0  0  0  0  0  0  0  0  0  0  0
   27.3560    5.6270   25.7380 H   0  0  0  0  0  0  0  0  0  0  0  0
   26.6320    7.2100   29.5880 H   0  0  0  0  0  0  0  0  0  0  0  0
   25.6370    3.6880   30.8570 H   0  0  0  0  0  0  0  0  0  0  0  0
   25.3660    4.9960   32.1180 H   0  0  0  0  0  0  0  0  0  0  0  0
   23.9260    3.2180   32.6150 H   0  0  0  0  0  0  0  0  0  0  0  0
   23.3220    3.0510   30.9600 H   0  0  0  0  0  0  0  0  0  0  0  0
   21.4000    5.8740   30.8460 H   0  0  0  0  0  0  0  0  0  0  0  0
   22.3880    4.5950   29.9760 H   0  0  0  0  0  0  0  0  0  0  0  0
   23.2160    6.9950   29.6930 H   0  0  0  0  0  0  0  0  0  0  0  0
   23.7300    6.8700   31.4420 H   0  0  0  0  0  0  0  0  0  0  0  0
  2  1  1  0  0  0  0
  2  3  1  0  0  0  0
  3 29  1  0  0  0  0
  4  3  2  0  0  0  0
  4 30  1  0  0  0  0
  5  4  1  0  0  0  0
  6  7  1  0  0  0  0
  6  5  2  0  0  0  0
  7  2  2  0  0  0  0
  8  5  1  0  0  0  0
  8 34  1  0  0  0  0
  9  8  1  0  0  0  0
  9 10  2  0  0  0  0
 11 12  1  0  0  0  0
 11  9  1  0  0  0  0
 12 36  1  0  0  0  0
 12 35  1  0  0  0  0
 13 37  1  0  0  0  0
 13 12  1  0  0  0  0
 14 17  1  0  0  0  0
 14 13  1  0  0  0  0
 15 16  1  0  0  0  0
 15 14  1  0  0  0  0
 16 11  1  0  0  0  0
 17 22  1  0  0  0  0
 18 19  1  0  0  0  0
 18 17  2  0  0  0  0
 19 20  2  0  0  0  0
 20 21  1  0  0  0  0
 21 23  1  0  0  0  0
 22 21  2  0  0  0  0
 22 44  1  0  0  0  0
 23 28  1  0  0  0  0
 23 24  1  0  0  0  0
 24 25  1  0  0  0  0
 24 46  1  0  0  0  0
 25 26  1  0  0  0  0
 25 47  1  0  0  0  0
 27 49  1  0  0  0  0
 27 26  1  0  0  0  0
 28 27  1  0  0  0  0
 28 52  1  0  0  0  0
 31  6  1  0  0  0  0
 32  7  1  0  0  0  0
 33  8  1  0  0  0  0
 38 13  1  0  0  0  0
 39 15  1  0  0  0  0
 40 15  1  0  0  0  0
 41 16  1  0  0  0  0
 42 16  1  0  0  0  0
 43 18  1  0  0  0  0
 45 24  1  0  0  0  0
 48 25  1  0  0  0  0
 50 27  1  0  0  0  0
 51 28  1  0  0  0  0
M  END
>  <Pose>
1

>  <Score>
-6.32

$$$$
