
 OpenBabel03202209553D

 37 40  0  0  0  0  0  0  0  0999 V2000
   26.3180   10.8330   29.7080 F   0  0  0  0  0  0  0  0  0  0  0  0
   24.9900   10.5870   29.8250 C   0  0  0  0  0  0  0  0  0  0  0  0
   24.4910    9.3150   29.8950 N   0  0  0  0  0  0  0  0  0  0  0  0
   23.1610    9.4620   30.0000 C   0  0  0  0  0  0  0  0  0  0  0  0
   22.8550   10.7700   29.9930 N   0  0  0  0  0  0  0  0  0  0  0  0
   23.9760   11.5090   29.8850 C   0  0  0  0  0  0  0  0  0  0  0  0
   24.0580   12.9940   29.8480 C   0  0  0  0  0  0  0  0  0  0  0  0
   23.3570   13.5070   30.8050 O   0  0  0  0  0  0  0  0  0  0  0  0
   24.7720   13.7300   28.9360 N   0  0  0  0  0  0  0  0  0  0  0  0
   25.4810   14.4630   28.0300 C   0  0  0  0  0  0  0  0  0  0  0  0
   24.6930   15.5030   27.2730 C   0  0  0  0  0  0  0  0  0  0  0  0
   25.0900   16.1240   26.1590 N   0  0  0  0  0  0  0  0  0  0  0  0
   24.1290   16.9570   25.7980 N   0  0  0  0  0  0  0  0  0  0  0  0
   23.1290   16.8860   26.6490 N   0  0  0  0  0  0  0  0  0  0  0  0
   23.4870   15.9810   27.5610 N   0  0  0  0  0  0  0  0  0  0  0  0
   26.3460   15.8610   25.5310 C   0  0  0  0  0  0  0  0  0  0  0  0
   26.3730   15.7410   24.1460 C   0  0  0  0  0  0  0  0  0  0  0  0
   27.5580   15.4670   23.4750 C   0  0  0  0  0  0  0  0  0  0  0  0
   28.7450   15.3050   24.1600 C   0  0  0  0  0  0  0  0  0  0  0  0
   28.7120   15.4260   25.5330 C   0  0  0  0  0  0  0  0  0  0  0  0
   27.5330   15.6980   26.2040 C   0  0  0  0  0  0  0  0  0  0  0  0
   22.4070    8.3170   30.0860 C   0  0  0  0  0  0  0  0  0  0  0  0
   22.9750    7.0420   30.0700 C   0  0  0  0  0  0  0  0  0  0  0  0
   24.3350    6.9320   29.9620 C   0  0  0  0  0  0  0  0  0  0  0  0
   25.0760    8.1060   29.8750 C   0  0  0  0  0  0  0  0  0  0  0  0
   25.1210    5.3540   29.9400 Cl  0  0  0  0  0  0  0  0  0  0  0  0
   25.6260   14.1460   29.9190 H   0  0  0  0  0  0  0  0  0  0  0  0
   25.9290   13.8140   27.1910 H   0  0  0  0  0  0  0  0  0  0  0  0
   26.4180   14.9930   28.4010 H   0  0  0  0  0  0  0  0  0  0  0  0
   25.4540   15.8660   23.5970 H   0  0  0  0  0  0  0  0  0  0  0  0
   27.5930   15.3690   22.3990 H   0  0  0  0  0  0  0  0  0  0  0  0
   29.6850   15.0840   23.6310 H   0  0  0  0  0  0  0  0  0  0  0  0
   29.6560   15.2970   26.0840 H   0  0  0  0  0  0  0  0  0  0  0  0
   27.5500   15.7830   27.2830 H   0  0  0  0  0  0  0  0  0  0  0  0
   21.3290    8.3540   30.1730 H   0  0  0  0  0  0  0  0  0  0  0  0
   22.3620    6.1340   30.1370 H   0  0  0  0  0  0  0  0  0  0  0  0
   26.1450    7.9980   29.7930 H   0  0  0  0  0  0  0  0  0  0  0  0
  1  2  1  0  0  0  0
  2  6  2  0  0  0  0
  2  3  1  0  0  0  0
  3  4  1  0  0  0  0
  4 22  1  0  0  0  0
  5  4  2  0  0  0  0
  6  5  1  0  0  0  0
  7  6  1  0  0  0  0
  7  8  2  0  0  0  0
  9  7  1  0  0  0  0
  9 27  1  0  0  0  0
 10 29  1  0  0  0  0
 10  9  1  0  0  0  0
 11 15  2  0  0  0  0
 11 10  1  0  0  0  0
 12 11  1  0  0  0  0
 13 12  1  0  0  0  0
 13 14  2  0  0  0  0
 14 15  1  0  0  0  0
 16 12  1  0  0  0  0
 16 21  1  0  0  0  0
 17 16  2  0  0  0  0
 18 17  1  0  0  0  0
 18 19  2  0  0  0  0
 19 20  1  0  0  0  0
 20 33  1  0  0  0  0
 20 21  2  0  0  0  0
 21 34  1  0  0  0  0
 22 35  1  0  0  0  0
 23 22  2  0  0  0  0
 23 36  1  0  0  0  0
 24 23  1  0  0  0  0
 25  3  1  0  0  0  0
 25 24  2  0  0  0  0
 26 24  1  0  0  0  0
 28 10  1  0  0  0  0
 30 17  1  0  0  0  0
 31 18  1  0  0  0  0
 32 19  1  0  0  0  0
 37 25  1  0  0  0  0
M  END
>  <Pose>
1

>  <Score>
-6.17

$$$$
