
 OpenBabel03202209553D

 42 45  0  0  0  0  0  0  0  0999 V2000
   21.8060   15.1540   32.1330 Cl  0  0  0  0  0  0  0  0  0  0  0  0
   22.5480   13.9990   31.0710 C   0  0  0  0  0  0  0  0  0  0  0  0
   22.8800   12.7020   31.4420 C   0  0  0  0  0  0  0  0  0  0  0  0
   23.4480   11.8430   30.5660 C   0  0  0  0  0  0  0  0  0  0  0  0
   23.6790   12.3220   29.2920 C   0  0  0  0  0  0  0  0  0  0  0  0
   23.3770   13.5730   28.8730 C   0  0  0  0  0  0  0  0  0  0  0  0
   22.8050   14.4440   29.7340 C   0  0  0  0  0  0  0  0  0  0  0  0
   23.8320   10.4830   30.8730 N   0  0  0  0  0  0  0  0  0  0  0  0
   24.7470   10.2290   31.7830 N   0  0  0  0  0  0  0  0  0  0  0  0
   24.8400    9.0470   31.8100 N   0  0  0  0  0  0  0  0  0  0  0  0
   24.3220    8.1200   31.2190 C   0  0  0  0  0  0  0  0  0  0  0  0
   23.4590    9.3210   30.4050 C   0  0  0  0  0  0  0  0  0  0  0  0
   23.7040    7.0110   30.5150 C   0  0  0  0  0  0  0  0  0  0  0  0
   24.7450    6.5590   29.7100 O   0  0  0  0  0  0  0  0  0  0  0  0
   22.5870    6.2680   30.3290 N   0  0  0  0  0  0  0  0  0  0  0  0
   21.4510    6.4460   29.4750 C   0  0  0  0  0  0  0  0  0  0  0  0
   20.2350    5.7210   30.0870 C   0  0  0  0  0  0  0  0  0  0  0  0
   20.4500    5.8380   31.5360 N   0  0  0  0  0  0  0  0  0  0  0  0
   21.4900    5.0710   32.1400 C   0  0  0  0  0  0  0  0  0  0  0  0
   22.5570    4.9820   31.0960 C   0  0  0  0  0  0  0  0  0  0  0  0
   19.7220    6.7720   32.2640 C   0  0  0  0  0  0  0  0  0  0  0  0
   18.5260    6.4160   32.8980 N   0  0  0  0  0  0  0  0  0  0  0  0
   17.7910    7.1910   33.6140 C   0  0  0  0  0  0  0  0  0  0  0  0
   18.1370    8.5310   33.8510 C   0  0  0  0  0  0  0  0  0  0  0  0
   19.3190    8.8950   33.2200 C   0  0  0  0  0  0  0  0  0  0  0  0
   20.0050    8.0770   32.5150 N   0  0  0  0  0  0  0  0  0  0  0  0
   22.7190   12.4040   32.4730 H   0  0  0  0  0  0  0  0  0  0  0  0
   24.1650   11.5720   28.6000 H   0  0  0  0  0  0  0  0  0  0  0  0
   23.5840   13.8750   27.8500 H   0  0  0  0  0  0  0  0  0  0  0  0
   22.5290   15.4270   29.5100 H   0  0  0  0  0  0  0  0  0  0  0  0
   22.7910    9.0900   29.6860 H   0  0  0  0  0  0  0  0  0  0  0  0
   21.5950    5.8910   28.5150 H   0  0  0  0  0  0  0  0  0  0  0  0
   21.1250    7.4690   29.3450 H   0  0  0  0  0  0  0  0  0  0  0  0
   19.2850    6.1740   29.8150 H   0  0  0  0  0  0  0  0  0  0  0  0
   20.2750    4.6520   29.7720 H   0  0  0  0  0  0  0  0  0  0  0  0
   21.1560    4.0470   32.3780 H   0  0  0  0  0  0  0  0  0  0  0  0
   21.8260    5.5660   33.1110 H   0  0  0  0  0  0  0  0  0  0  0  0
   22.4910    4.1450   30.3730 H   0  0  0  0  0  0  0  0  0  0  0  0
   23.5190    4.9090   31.6230 H   0  0  0  0  0  0  0  0  0  0  0  0
   16.8270    6.8990   34.0650 H   0  0  0  0  0  0  0  0  0  0  0  0
   17.5610    9.2190   34.4360 H   0  0  0  0  0  0  0  0  0  0  0  0
   19.6480    9.9580   33.3370 H   0  0  0  0  0  0  0  0  0  0  0  0
  2  3  1  0  0  0  0
  2  1  1  0  0  0  0
  3 27  1  0  0  0  0
  4  8  1  0  0  0  0
  4  3  2  0  0  0  0
  5  4  1  0  0  0  0
  6  5  2  0  0  0  0
  6  7  1  0  0  0  0
  7  2  2  0  0  0  0
  8  9  1  0  0  0  0
  9 10  2  0  0  0  0
 11 10  1  0  0  0  0
 12  8  1  0  0  0  0
 12 11  2  0  0  0  0
 13 11  1  0  0  0  0
 14 13  2  0  0  0  0
 15 13  1  0  0  0  0
 15 20  1  0  0  0  0
 16 17  1  0  0  0  0
 16 15  1  0  0  0  0
 17 18  1  0  0  0  0
 18 19  1  0  0  0  0
 18 21  1  0  0  0  0
 19 36  1  0  0  0  0
 19 37  1  0  0  0  0
 20 39  1  0  0  0  0
 20 19  1  0  0  0  0
 21 26  1  0  0  0  0
 21 22  2  0  0  0  0
 22 23  1  0  0  0  0
 23 24  2  0  0  0  0
 23 40  1  0  0  0  0
 24 41  1  0  0  0  0
 25 42  1  0  0  0  0
 25 24  1  0  0  0  0
 26 25  2  0  0  0  0
 28  5  1  0  0  0  0
 29  6  1  0  0  0  0
 30  7  1  0  0  0  0
 31 12  1  0  0  0  0
 32 16  1  0  0  0  0
 33 16  1  0  0  0  0
 34 17  1  0  0  0  0
 35 17  1  0  0  0  0
 38 20  1  0  0  0  0
M  END
>  <Pose>
1

>  <Score>
-6.74

$$$$
