
 OpenBabel03202209553D

 42 45  0  0  1  0  0  0  0  0999 V2000
   17.4210    7.9800   33.7440 Cl  0  0  0  0  0  0  0  0  0  0  0  0
   18.9550    7.5710   32.9760 C   0  0  0  0  0  0  0  0  0  0  0  0
   19.9800    8.4870   32.8590 C   0  0  0  0  0  0  0  0  0  0  0  0
   21.1660    8.1920   32.2740 N   0  0  0  0  0  0  0  0  0  0  0  0
   21.4170    6.9720   31.7640 C   0  0  0  0  0  0  0  0  0  0  0  0
   22.6000    6.6580   31.1730 N   0  0  0  0  0  0  0  0  0  0  0  0
   23.6050    7.5450   31.0540 C   0  0  0  0  0  0  0  0  0  0  0  0
   23.3610    8.8110   31.5760 C   0  0  2  0  0  0  0  0  0  0  0  0
   24.4700    9.7920   31.4460 C   0  0  0  0  0  0  0  0  0  0  0  0
   24.9460    9.6530   30.0650 N   0  0  0  0  0  0  0  0  0  0  0  0
   25.4880    8.3830   29.6730 C   0  0  0  0  0  0  0  0  0  0  0  0
   24.9030    7.2130   30.4130 C   0  0  0  0  0  0  0  0  0  0  0  0
   24.8600   10.7360   29.1620 C   0  0  0  0  0  0  0  0  0  0  0  0
   23.9030   10.7100   28.3160 O   0  0  0  0  0  0  0  0  0  0  0  0
   25.8140   11.8670   29.1690 C   0  0  0  0  0  0  0  0  0  0  0  0
   25.7650   12.6500   30.4630 C   0  0  0  0  0  0  0  0  0  0  0  0
   24.2880   12.7770   30.8130 C   0  0  0  0  0  0  0  0  0  0  0  0
   23.5360   12.9780   29.6570 O   0  0  0  0  0  0  0  0  0  0  0  0
   24.2620   13.6860   28.6900 C   0  0  0  0  0  0  0  0  0  0  0  0
   25.3730   12.8540   28.0780 C   0  0  0  0  0  0  0  0  0  0  0  0
   22.1530    9.1010   32.1700 C   0  0  0  0  0  0  0  0  0  0  0  0
   21.9550   10.2680   32.6400 O   0  0  0  0  0  0  0  0  0  0  0  0
   20.4000    6.0380   31.8710 C   0  0  0  0  0  0  0  0  0  0  0  0
   19.1850    6.3130   32.4620 C   0  0  0  0  0  0  0  0  0  0  0  0
   19.8220    9.4860   33.2580 H   0  0  0  0  0  0  0  0  0  0  0  0
   25.2430    9.5500   32.1810 H   0  0  0  0  0  0  0  0  0  0  0  0
   24.1400   10.8270   31.6130 H   0  0  0  0  0  0  0  0  0  0  0  0
   25.3100    8.1870   28.5910 H   0  0  0  0  0  0  0  0  0  0  0  0
   26.6010    8.4500   29.8530 H   0  0  0  0  0  0  0  0  0  0  0  0
   25.6000    6.8830   31.2370 H   0  0  0  0  0  0  0  0  0  0  0  0
   24.7320    6.3350   29.7560 H   0  0  0  0  0  0  0  0  0  0  0  0
   26.8400   11.4920   28.9540 H   0  0  0  0  0  0  0  0  0  0  0  0
   26.0920   13.7000   30.2140 H   0  0  0  0  0  0  0  0  0  0  0  0
   26.3720   12.2510   31.2690 H   0  0  0  0  0  0  0  0  0  0  0  0
   23.9680   11.8110   31.2380 H   0  0  0  0  0  0  0  0  0  0  0  0
   24.1060   13.5540   31.5760 H   0  0  0  0  0  0  0  0  0  0  0  0
   23.5520   13.9240   27.8720 H   0  0  0  0  0  0  0  0  0  0  0  0
   24.6320   14.6520   29.0810 H   0  0  0  0  0  0  0  0  0  0  0  0
   25.0710   12.3340   27.1650 H   0  0  0  0  0  0  0  0  0  0  0  0
   26.2370   13.5460   27.9420 H   0  0  0  0  0  0  0  0  0  0  0  0
   20.5970    5.0460   31.4590 H   0  0  0  0  0  0  0  0  0  0  0  0
   18.3930    5.5750   32.5430 H   0  0  0  0  0  0  0  0  0  0  0  0
  2  1  1  0  0  0  0
  3  2  1  0  0  0  0
  3 25  1  0  0  0  0
  4  3  1  0  0  0  0
  5 23  2  0  0  0  0
  5  4  1  0  0  0  0
  6  5  1  0  0  0  0
  7  6  2  0  0  0  0
  8  7  1  1  0  0  0
  8 21  1  0  0  0  0
  9  8  1  0  0  0  0
  9 27  1  0  0  0  0
  9 26  1  0  0  0  0
 10  9  1  0  0  0  0
 11 29  1  0  0  0  0
 11 10  1  0  0  0  0
 11 12  1  0  0  0  0
 12  7  1  0  0  0  0
 12 30  1  0  0  0  0
 13 15  1  0  0  0  0
 13 10  1  0  0  0  0
 14 13  2  0  0  0  0
 15 16  1  0  0  0  0
 16 17  1  0  0  0  0
 16 34  1  0  0  0  0
 17 35  1  0  0  0  0
 17 36  1  0  0  0  0
 18 17  1  0  0  0  0
 19 38  1  0  0  0  0
 19 18  1  0  0  0  0
 20 19  1  0  0  0  0
 20 15  1  0  0  0  0
 21  4  1  0  0  0  0
 21 22  2  0  0  0  0
 23 24  1  0  0  0  0
 24 42  1  0  0  0  0
 24  2  2  0  0  0  0
 28 11  1  0  0  0  0
 31 12  1  0  0  0  0
 32 15  1  0  0  0  0
 33 16  1  0  0  0  0
 37 19  1  0  0  0  0
 39 20  1  0  0  0  0
 40 20  1  0  0  0  0
 41 23  1  0  0  0  0
M  END
>  <Pose>
1

>  <Score>
-5.54

$$$$
