
 OpenBabel03202209553D

 41 44  0  0  0  0  0  0  0  0999 V2000
   25.2540   10.3900   30.2280 F   0  0  0  0  0  0  0  0  0  0  0  0
   24.5740    9.2290   30.3870 C   0  0  0  0  0  0  0  0  0  0  0  0
   23.3470    9.2670   31.0330 C   0  0  0  0  0  0  0  0  0  0  0  0
   22.6000    8.1260   31.2310 C   0  0  0  0  0  0  0  0  0  0  0  0
   23.1170    6.9310   30.7620 C   0  0  0  0  0  0  0  0  0  0  0  0
   24.3330    6.8920   30.1210 C   0  0  0  0  0  0  0  0  0  0  0  0
   25.0740    8.0340   29.9270 C   0  0  0  0  0  0  0  0  0  0  0  0
   22.1690    5.4750   31.0120 Cl  0  0  0  0  0  0  0  0  0  0  0  0
   21.3630    8.4210   31.9240 C   0  0  0  0  0  0  0  0  0  0  0  0
   20.4540    7.6320   32.2660 O   0  0  0  0  0  0  0  0  0  0  0  0
   21.3830    9.8600   32.1550 C   0  0  0  0  0  0  0  0  0  0  0  0
   20.4700   10.5220   32.7420 O   0  0  0  0  0  0  0  0  0  0  0  0
   22.5940   10.3550   31.6070 N   0  0  0  0  0  0  0  0  0  0  0  0
   23.0490   11.7310   31.6040 C   0  0  0  0  0  0  0  0  0  0  0  0
   22.0600   12.6610   31.1000 N   0  0  0  0  0  0  0  0  0  0  0  0
   22.2110   13.9420   31.7000 C   0  0  0  0  0  0  0  0  0  0  0  0
   22.1120   15.1020   30.7730 C   0  0  0  0  0  0  0  0  0  0  0  0
   22.7310   14.8750   29.4930 N   0  0  0  0  0  0  0  0  0  0  0  0
   23.0170   13.5160   29.0970 C   0  0  0  0  0  0  0  0  0  0  0  0
   21.9210   12.6510   29.6840 C   0  0  0  0  0  0  0  0  0  0  0  0
   23.0650   15.9310   28.6150 C   0  0  0  0  0  0  0  0  0  0  0  0
   23.6890   15.6990   27.4480 N   0  0  0  0  0  0  0  0  0  0  0  0
   24.0190   16.6890   26.5950 C   0  0  0  0  0  0  0  0  0  0  0  0
   23.7190   18.0030   26.8980 C   0  0  0  0  0  0  0  0  0  0  0  0
   23.0940   18.2400   28.0630 N   0  0  0  0  0  0  0  0  0  0  0  0
   22.7650   17.2530   28.9170 C   0  0  0  0  0  0  0  0  0  0  0  0
   24.7170    5.9280   29.7600 H   0  0  0  0  0  0  0  0  0  0  0  0
   26.0410    7.9720   29.4120 H   0  0  0  0  0  0  0  0  0  0  0  0
   23.3780   11.9650   32.6200 H   0  0  0  0  0  0  0  0  0  0  0  0
   23.9400   11.8020   30.9460 H   0  0  0  0  0  0  0  0  0  0  0  0
   21.4150   14.0520   32.4810 H   0  0  0  0  0  0  0  0  0  0  0  0
   23.1750   13.9790   32.2810 H   0  0  0  0  0  0  0  0  0  0  0  0
   21.0700   15.4940   30.6760 H   0  0  0  0  0  0  0  0  0  0  0  0
   22.6860   15.9520   31.2480 H   0  0  0  0  0  0  0  0  0  0  0  0
   23.9660   13.2380   29.6270 H   0  0  0  0  0  0  0  0  0  0  0  0
   23.1030   13.4000   28.0040 H   0  0  0  0  0  0  0  0  0  0  0  0
   21.8780   11.6370   29.2960 H   0  0  0  0  0  0  0  0  0  0  0  0
   20.9200   13.1110   29.4400 H   0  0  0  0  0  0  0  0  0  0  0  0
   24.5230   16.4900   25.6550 H   0  0  0  0  0  0  0  0  0  0  0  0
   23.9950   18.7800   26.1920 H   0  0  0  0  0  0  0  0  0  0  0  0
   22.2610   17.4370   29.8590 H   0  0  0  0  0  0  0  0  0  0  0  0
  1  2  1  0  0  0  0
  2  3  1  0  0  0  0
  3  4  2  0  0  0  0
  3 13  1  0  0  0  0
  4  9  1  0  0  0  0
  5  8  1  0  0  0  0
  5  4  1  0  0  0  0
  6  5  2  0  0  0  0
  7  6  1  0  0  0  0
  7  2  2  0  0  0  0
  9 11  1  0  0  0  0
  9 10  2  0  0  0  0
 11 12  2  0  0  0  0
 13 11  1  0  0  0  0
 14 13  1  0  0  0  0
 14 29  1  0  0  0  0
 15 14  1  0  0  0  0
 15 16  1  0  0  0  0
 16 32  1  0  0  0  0
 16 31  1  0  0  0  0
 17 34  1  0  0  0  0
 17 16  1  0  0  0  0
 18 17  1  0  0  0  0
 19 18  1  0  0  0  0
 19 35  1  0  0  0  0
 19 20  1  0  0  0  0
 20 15  1  0  0  0  0
 21 26  1  0  0  0  0
 21 18  1  0  0  0  0
 22 21  2  0  0  0  0
 23 24  2  0  0  0  0
 23 22  1  0  0  0  0
 24 25  1  0  0  0  0
 25 26  2  0  0  0  0
 26 41  1  0  0  0  0
 27  6  1  0  0  0  0
 28  7  1  0  0  0  0
 30 14  1  0  0  0  0
 33 17  1  0  0  0  0
 36 19  1  0  0  0  0
 37 20  1  0  0  0  0
 38 20  1  0  0  0  0
 39 23  1  0  0  0  0
 40 24  1  0  0  0  0
M  END
>  <Pose>
1

>  <Score>
-6.51

$$$$
