
 OpenBabel03202209553D

 41 44  0  0  0  0  0  0  0  0999 V2000
   25.4250   11.1140   28.6830 Cl  0  0  0  0  0  0  0  0  0  0  0  0
   24.5230   12.5660   29.0250 C   0  0  0  0  0  0  0  0  0  0  0  0
   24.7390   13.7380   28.3180 C   0  0  0  0  0  0  0  0  0  0  0  0
   24.0330   14.8980   28.5780 C   0  0  0  0  0  0  0  0  0  0  0  0
   23.0830   14.8590   29.5800 C   0  0  0  0  0  0  0  0  0  0  0  0
   22.8800   13.6810   30.2750 C   0  0  0  0  0  0  0  0  0  0  0  0
   23.5770   12.5110   30.0300 C   0  0  0  0  0  0  0  0  0  0  0  0
   23.3080   11.2680   30.8140 C   0  0  0  0  0  0  0  0  0  0  0  0
   21.9340   11.3170   31.4110 C   0  0  0  0  0  0  0  0  0  0  0  0
   21.3470   12.4540   31.4330 O   0  0  0  0  0  0  0  0  0  0  0  0
   21.3170   10.1470   31.9250 N   0  0  0  0  0  0  0  0  0  0  0  0
   22.1270    9.0440   32.3070 C   0  0  0  0  0  0  0  0  0  0  0  0
   21.5280    7.7770   31.6840 C   0  0  0  0  0  0  0  0  0  0  0  0
   20.1790    7.6800   32.3630 C   0  0  0  0  0  0  0  0  0  0  0  0
   19.4250    8.8220   32.5370 C   0  0  0  0  0  0  0  0  0  0  0  0
   18.2180    8.7130   33.1620 N   0  0  0  0  0  0  0  0  0  0  0  0
   17.7370    7.5440   33.6120 C   0  0  0  0  0  0  0  0  0  0  0  0
   18.4850    6.4410   33.4340 N   0  0  0  0  0  0  0  0  0  0  0  0
   19.7020    6.4830   32.8150 C   0  0  0  0  0  0  0  0  0  0  0  0
   20.4730    5.3500   32.6310 O   0  0  0  0  0  0  0  0  0  0  0  0
   19.8980   10.1330   32.0500 C   0  0  0  0  0  0  0  0  0  0  0  0
   22.3780   16.0160   29.8380 O   0  0  0  0  0  0  0  0  0  0  0  0
   22.2600   17.1070   28.9480 C   0  0  0  0  0  0  0  0  0  0  0  0
   23.2700   17.1230   27.8560 C   0  0  0  0  0  0  0  0  0  0  0  0
   24.2090   16.0830   27.9080 O   0  0  0  0  0  0  0  0  0  0  0  0
   25.4730   13.7920   27.5340 H   0  0  0  0  0  0  0  0  0  0  0  0
   22.1300   13.6610   31.0640 H   0  0  0  0  0  0  0  0  0  0  0  0
   24.0780   11.2300   31.6160 H   0  0  0  0  0  0  0  0  0  0  0  0
   23.4270   10.3620   30.2190 H   0  0  0  0  0  0  0  0  0  0  0  0
   22.1270    8.8830   33.4240 H   0  0  0  0  0  0  0  0  0  0  0  0
   23.1950    9.1460   32.0360 H   0  0  0  0  0  0  0  0  0  0  0  0
   22.1370    6.8930   31.8740 H   0  0  0  0  0  0  0  0  0  0  0  0
   21.4170    7.9780   30.6010 H   0  0  0  0  0  0  0  0  0  0  0  0
   16.7700    7.4740   34.1100 H   0  0  0  0  0  0  0  0  0  0  0  0
   19.9970    4.4790   32.4280 H   0  0  0  0  0  0  0  0  0  0  0  0
   19.4020   10.4060   31.0770 H   0  0  0  0  0  0  0  0  0  0  0  0
   19.5180   10.8910   32.7780 H   0  0  0  0  0  0  0  0  0  0  0  0
   21.2460   16.9980   28.4610 H   0  0  0  0  0  0  0  0  0  0  0  0
   22.1930   18.0570   29.5130 H   0  0  0  0  0  0  0  0  0  0  0  0
   22.8080   17.0870   26.8370 H   0  0  0  0  0  0  0  0  0  0  0  0
   23.8010   18.1150   27.8940 H   0  0  0  0  0  0  0  0  0  0  0  0
  1  2  1  0  0  0  0
  2  7  1  0  0  0  0
  3  4  1  0  0  0  0
  3  2  2  0  0  0  0
  4  5  2  0  0  0  0
  5 22  1  0  0  0  0
  5  6  1  0  0  0  0
  6 27  1  0  0  0  0
  7  6  2  0  0  0  0
  7  8  1  0  0  0  0
  8  9  1  0  0  0  0
  8 28  1  0  0  0  0
  9 10  2  0  0  0  0
  9 11  1  0  0  0  0
 11 21  1  0  0  0  0
 11 12  1  0  0  0  0
 12 30  1  0  0  0  0
 13 32  1  0  0  0  0
 13 12  1  0  0  0  0
 13 14  1  0  0  0  0
 14 15  2  0  0  0  0
 14 19  1  0  0  0  0
 15 16  1  0  0  0  0
 16 17  2  0  0  0  0
 17 34  1  0  0  0  0
 18 17  1  0  0  0  0
 19 18  2  0  0  0  0
 20 19  1  0  0  0  0
 21 15  1  0  0  0  0
 21 37  1  0  0  0  0
 23 39  1  0  0  0  0
 23 22  1  0  0  0  0
 24 41  1  0  0  0  0
 24 25  1  0  0  0  0
 24 23  1  0  0  0  0
 25  4  1  0  0  0  0
 26  3  1  0  0  0  0
 29  8  1  0  0  0  0
 31 12  1  0  0  0  0
 33 13  1  0  0  0  0
 35 20  1  0  0  0  0
 36 21  1  0  0  0  0
 38 23  1  0  0  0  0
 40 24  1  0  0  0  0
M  END
>  <Pose>
1

>  <Score>
-6.39

$$$$
