
 OpenBabel03202209553D

 46 49  0  0  1  0  0  0  0  0999 V2000
   19.7060    9.4980   33.1270 Cl  0  0  0  0  0  0  0  0  0  0  0  0
   21.2000    9.6950   32.2270 C   0  0  0  0  0  0  0  0  0  0  0  0
   21.4410   10.8390   31.4920 C   0  0  0  0  0  0  0  0  0  0  0  0
   22.6330   10.9970   30.7740 C   0  0  0  0  0  0  0  0  0  0  0  0
   23.5350    9.9660   30.8410 C   0  0  0  0  0  0  0  0  0  0  0  0
   23.2860    8.8060   31.5880 C   0  0  0  0  0  0  0  0  0  0  0  0
   22.1100    8.6610   32.2920 C   0  0  0  0  0  0  0  0  0  0  0  0
   24.7280   10.0990   30.1370 O   0  0  0  0  0  0  0  0  0  0  0  0
   25.0420   11.2130   29.3780 C   0  0  0  0  0  0  0  0  0  0  0  0
   24.1290   12.2540   29.3110 C   0  0  0  0  0  0  0  0  0  0  0  0
   22.8360   12.2390   30.0030 C   0  0  2  0  0  0  0  0  0  0  0  0
   22.7630   13.4080   30.9400 C   0  0  0  0  0  0  0  0  0  0  0  0
   23.7730   13.6510   31.8460 C   0  0  0  0  0  0  0  0  0  0  0  0
   23.6940   14.7140   32.6920 N   0  0  0  0  0  0  0  0  0  0  0  0
   22.6220   15.5450   32.6560 C   0  0  0  0  0  0  0  0  0  0  0  0
   22.5830   16.5200   33.4570 O   0  0  0  0  0  0  0  0  0  0  0  0
   21.6230   15.3330   31.7850 N   0  0  0  0  0  0  0  0  0  0  0  0
   21.6950   14.2830   30.9450 C   0  0  0  0  0  0  0  0  0  0  0  0
   20.7650   14.1010   30.1470 O   0  0  0  0  0  0  0  0  0  0  0  0
   20.4840   16.2450   31.7740 C   0  0  0  0  0  0  0  0  0  0  0  0
   24.7970   14.9190   33.6260 C   0  0  0  0  0  0  0  0  0  0  0  0
   24.8550   12.8170   31.8850 O   0  0  0  0  0  0  0  0  0  0  0  0
   24.4880   13.3440   28.5430 C   0  0  0  0  0  0  0  0  0  0  0  0
   23.6910   14.3310   28.4440 O   0  0  0  0  0  0  0  0  0  0  0  0
   25.6460   13.4500   27.8720 N   0  0  0  0  0  0  0  0  0  0  0  0
   26.5070   12.4080   27.9670 C   0  0  0  0  0  0  0  0  0  0  0  0
   27.5870   12.5280   27.3290 O   0  0  0  0  0  0  0  0  0  0  0  0
   26.1990   11.3250   28.7040 N   0  0  0  0  0  0  0  0  0  0  0  0
   27.1720   10.2520   28.7550 C   0  0  0  0  0  0  0  0  0  0  0  0
   25.9780   14.6310   27.0740 C   0  0  0  0  0  0  0  0  0  0  0  0
   20.7110   11.6470   31.4530 H   0  0  0  0  0  0  0  0  0  0  0  0
   24.0480    8.0310   31.5950 H   0  0  0  0  0  0  0  0  0  0  0  0
   21.9370    7.7590   32.8620 H   0  0  0  0  0  0  0  0  0  0  0  0
   22.0360   12.3980   29.2460 H   0  0  0  0  0  0  0  0  0  0  0  0
   19.6040   15.8220   31.2920 H   0  0  0  0  0  0  0  0  0  0  0  0
   20.8370   17.1490   31.2060 H   0  0  0  0  0  0  0  0  0  0  0  0
   20.3090   16.5960   32.8150 H   0  0  0  0  0  0  0  0  0  0  0  0
   25.2340   13.9240   33.8620 H   0  0  0  0  0  0  0  0  0  0  0  0
   25.5880   15.5300   33.1020 H   0  0  0  0  0  0  0  0  0  0  0  0
   24.4490   15.4470   34.5310 H   0  0  0  0  0  0  0  0  0  0  0  0
   27.9330   10.5060   29.5340 H   0  0  0  0  0  0  0  0  0  0  0  0
   26.7140    9.2860   29.0210 H   0  0  0  0  0  0  0  0  0  0  0  0
   27.6710   10.1230   27.7660 H   0  0  0  0  0  0  0  0  0  0  0  0
   26.7000   15.2110   27.7150 H   0  0  0  0  0  0  0  0  0  0  0  0
   26.3920   14.3800   26.1000 H   0  0  0  0  0  0  0  0  0  0  0  0
   25.0880   15.2570   26.9790 H   0  0  0  0  0  0  0  0  0  0  0  0
  2  7  1  0  0  0  0
  2  1  1  0  0  0  0
  3  2  2  0  0  0  0
  4  5  2  0  0  0  0
  4  3  1  0  0  0  0
  5  6  1  0  0  0  0
  6 32  1  0  0  0  0
  6  7  2  0  0  0  0
  7 33  1  0  0  0  0
  8  5  1  0  0  0  0
  9  8  1  0  0  0  0
 10  9  2  0  0  0  0
 10 11  1  0  0  0  0
 11 34  1  6  0  0  0
 11  4  1  0  0  0  0
 11 12  1  0  0  0  0
 12 18  1  0  0  0  0
 12 13  1  0  0  0  0
 13 22  2  0  0  0  0
 13 14  1  0  0  0  0
 14 21  1  0  0  0  0
 15 14  1  0  0  0  0
 15 16  2  0  0  0  0
 17 15  1  0  0  0  0
 18 17  1  0  0  0  0
 19 18  2  0  0  0  0
 20 17  1  0  0  0  0
 20 37  1  0  0  0  0
 21 38  1  0  0  0  0
 21 40  1  0  0  0  0
 23 10  1  0  0  0  0
 24 23  2  0  0  0  0
 25 26  1  0  0  0  0
 25 23  1  0  0  0  0
 26 28  1  0  0  0  0
 27 26  2  0  0  0  0
 28 29  1  0  0  0  0
 28  9  1  0  0  0  0
 29 42  1  0  0  0  0
 29 41  1  0  0  0  0
 30 44  1  0  0  0  0
 30 25  1  0  0  0  0
 31  3  1  0  0  0  0
 35 20  1  0  0  0  0
 36 20  1  0  0  0  0
 39 21  1  0  0  0  0
 43 29  1  0  0  0  0
 45 30  1  0  0  0  0
 46 30  1  0  0  0  0
M  END
>  <Pose>
1

>  <Score>
-5.94

$$$$
