
 OpenBabel03202209553D

 57 60  0  0  0  0  0  0  0  0999 V2000
   18.2270    6.7920   33.4330 Cl  0  0  0  0  0  0  0  0  0  0  0  0
   19.7050    7.6160   32.9990 C   0  0  0  0  0  0  0  0  0  0  0  0
   20.4180    7.2510   31.8790 C   0  0  0  0  0  0  0  0  0  0  0  0
   21.5760    7.9080   31.5550 C   0  0  0  0  0  0  0  0  0  0  0  0
   22.0290    8.9540   32.3670 C   0  0  0  0  0  0  0  0  0  0  0  0
   21.3180    9.3290   33.4960 C   0  0  0  0  0  0  0  0  0  0  0  0
   20.1680    8.6470   33.7870 C   0  0  0  0  0  0  0  0  0  0  0  0
   23.1730    9.7130   32.1780 O   0  0  0  0  0  0  0  0  0  0  0  0
   23.8670    9.9430   30.9740 C   0  0  0  0  0  0  0  0  0  0  0  0
   24.4710    8.6940   30.4180 C   0  0  0  0  0  0  0  0  0  0  0  0
   23.6530    7.5230   30.5100 N   0  0  0  0  0  0  0  0  0  0  0  0
   22.2300    7.4020   30.3210 C   0  0  0  0  0  0  0  0  0  0  0  0
   24.2980    6.2810   30.8340 C   0  0  0  0  0  0  0  0  0  0  0  0
   23.6010    5.4160   31.4200 O   0  0  0  0  0  0  0  0  0  0  0  0
   25.6990    6.0310   30.4980 C   0  0  0  0  0  0  0  0  0  0  0  0
   26.2950    4.8460   30.9950 N   0  0  0  0  0  0  0  0  0  0  0  0
   27.7410    4.8200   30.7550 C   0  0  0  0  0  0  0  0  0  0  0  0
   27.9700    4.8720   29.2920 C   0  0  0  0  0  0  0  0  0  0  0  0
   27.1450    3.9540   28.4530 C   0  0  0  0  0  0  0  0  0  0  0  0
   25.9850    3.3060   29.1000 C   0  0  0  0  0  0  0  0  0  0  0  0
   25.7320    3.6030   30.5290 C   0  0  0  0  0  0  0  0  0  0  0  0
   26.7530    4.5900   27.1720 C   0  0  0  0  0  0  0  0  0  0  0  0
   25.5730    4.9610   27.0100 O   0  0  0  0  0  0  0  0  0  0  0  0
   27.7090    4.7690   26.1500 N   0  0  0  0  0  0  0  0  0  0  0  0
   22.9490   10.6410   29.9840 C   0  0  0  0  0  0  0  0  0  0  0  0
   23.0900   12.1480   30.1090 C   0  0  0  0  0  0  0  0  0  0  0  0
   24.3360   12.5970   29.7160 O   0  0  0  0  0  0  0  0  0  0  0  0
   25.3020   11.6160   29.9110 C   0  0  0  0  0  0  0  0  0  0  0  0
   25.0190   10.9180   31.2280 C   0  0  0  0  0  0  0  0  0  0  0  0
   20.0780    6.4460   31.2440 H   0  0  0  0  0  0  0  0  0  0  0  0
   21.7040   10.1390   34.0950 H   0  0  0  0  0  0  0  0  0  0  0  0
   19.5820    8.9100   34.6630 H   0  0  0  0  0  0  0  0  0  0  0  0
   24.7220    8.8760   29.3420 H   0  0  0  0  0  0  0  0  0  0  0  0
   25.4530    8.5450   30.9380 H   0  0  0  0  0  0  0  0  0  0  0  0
   21.8590    7.9130   29.4120 H   0  0  0  0  0  0  0  0  0  0  0  0
   21.9280    6.3320   30.2130 H   0  0  0  0  0  0  0  0  0  0  0  0
   26.2860    6.8930   30.9370 H   0  0  0  0  0  0  0  0  0  0  0  0
   25.8160    6.1770   29.3920 H   0  0  0  0  0  0  0  0  0  0  0  0
   28.2040    5.6820   31.2340 H   0  0  0  0  0  0  0  0  0  0  0  0
   28.1050    3.8410   31.1420 H   0  0  0  0  0  0  0  0  0  0  0  0
   27.8050    5.9160   28.9000 H   0  0  0  0  0  0  0  0  0  0  0  0
   29.0820    4.7270   29.1400 H   0  0  0  0  0  0  0  0  0  0  0  0
   27.8580    3.1270   28.1380 H   0  0  0  0  0  0  0  0  0  0  0  0
   25.9880    2.1890   28.9120 H   0  0  0  0  0  0  0  0  0  0  0  0
   25.0530    3.6310   28.5430 H   0  0  0  0  0  0  0  0  0  0  0  0
   24.6960    3.5260   30.8710 H   0  0  0  0  0  0  0  0  0  0  0  0
   26.2760    2.8030   31.1200 H   0  0  0  0  0  0  0  0  0  0  0  0
   28.0250    3.8830   25.6560 H   0  0  0  0  0  0  0  0  0  0  0  0
   28.1200    5.6600   25.8450 H   0  0  0  0  0  0  0  0  0  0  0  0
   21.8870   10.4160   30.2520 H   0  0  0  0  0  0  0  0  0  0  0  0
   23.1820   10.3700   28.9410 H   0  0  0  0  0  0  0  0  0  0  0  0
   22.3370   12.6100   29.4340 H   0  0  0  0  0  0  0  0  0  0  0  0
   22.8940   12.4680   31.1480 H   0  0  0  0  0  0  0  0  0  0  0  0
   25.2160   10.9090   29.0530 H   0  0  0  0  0  0  0  0  0  0  0  0
   26.3200   12.0430   29.8740 H   0  0  0  0  0  0  0  0  0  0  0  0
   24.6710   11.7050   31.9310 H   0  0  0  0  0  0  0  0  0  0  0  0
   25.8990   10.4060   31.6370 H   0  0  0  0  0  0  0  0  0  0  0  0
  2  1  1  0  0  0  0
  2  7  1  0  0  0  0
  3  2  2  0  0  0  0
  4  3  1  0  0  0  0
  4  5  2  0  0  0  0
  5  6  1  0  0  0  0
  6  7  2  0  0  0  0
  6 31  1  0  0  0  0
  7 32  1  0  0  0  0
  8  5  1  0  0  0  0
  9 29  1  0  0  0  0
  9  8  1  0  0  0  0
 10 11  1  0  0  0  0
 10 34  1  0  0  0  0
 10  9  1  0  0  0  0
 11 13  1  0  0  0  0
 12 11  1  0  0  0  0
 12  4  1  0  0  0  0
 13 14  2  0  0  0  0
 15 13  1  0  0  0  0
 15 37  1  0  0  0  0
 15 16  1  0  0  0  0
 17 16  1  0  0  0  0
 17 40  1  0  0  0  0
 17 39  1  0  0  0  0
 18 17  1  0  0  0  0
 19 20  1  0  0  0  0
 19 18  1  0  0  0  0
 20 21  1  0  0  0  0
 21 46  1  0  0  0  0
 21 16  1  0  0  0  0
 21 47  1  0  0  0  0
 22 19  1  0  0  0  0
 23 22  2  0  0  0  0
 24 22  1  0  0  0  0
 25 26  1  0  0  0  0
 25 50  1  0  0  0  0
 25  9  1  0  0  0  0
 26 53  1  0  0  0  0
 27 28  1  0  0  0  0
 27 26  1  0  0  0  0
 28 29  1  0  0  0  0
 29 57  1  0  0  0  0
 29 56  1  0  0  0  0
 30  3  1  0  0  0  0
 33 10  1  0  0  0  0
 35 12  1  0  0  0  0
 36 12  1  0  0  0  0
 38 15  1  0  0  0  0
 41 18  1  0  0  0  0
 42 18  1  0  0  0  0
 43 19  1  0  0  0  0
 44 20  1  0  0  0  0
 45 20  1  0  0  0  0
 48 24  1  0  0  0  0
 49 24  1  0  0  0  0
 51 25  1  0  0  0  0
 52 26  1  0  0  0  0
 54 28  1  0  0  0  0
 55 28  1  0  0  0  0
M  END
>  <Pose>
1

>  <Score>
-5.85

$$$$
