
 OpenBabel03202209553D

 43 46  0  0  0  0  0  0  0  0999 V2000
   22.0920   16.5520   30.0210 S   0  0  0  0  0  0  0  0  0  0  0  0
   20.6270   16.5000   29.8150 O   0  0  0  0  0  0  0  0  0  0  0  0
   22.4240   17.5870   31.0730 O   0  0  0  0  0  0  0  0  0  0  0  0
   22.6940   15.0520   30.5270 N   0  0  0  0  0  0  0  0  0  0  0  0
   23.2040   14.2290   29.4740 C   0  0  0  0  0  0  0  0  0  0  0  0
   24.0230   13.0660   29.9690 C   0  0  0  0  0  0  0  0  0  0  0  0
   23.5070   12.5140   31.2010 N   0  0  0  0  0  0  0  0  0  0  0  0
   22.3220   13.0020   31.8550 C   0  0  0  0  0  0  0  0  0  0  0  0
   21.9170   14.3840   31.5090 C   0  0  0  0  0  0  0  0  0  0  0  0
   24.2070   11.4300   31.7950 C   0  0  0  0  0  0  0  0  0  0  0  0
   25.2940   11.6170   32.4370 O   0  0  0  0  0  0  0  0  0  0  0  0
   23.7020   10.0610   31.6880 C   0  0  0  0  0  0  0  0  0  0  0  0
   22.6040    9.6030   32.3880 C   0  0  0  0  0  0  0  0  0  0  0  0
   22.1950    8.3290   32.2390 N   0  0  0  0  0  0  0  0  0  0  0  0
   22.8050    7.4460   31.4280 C   0  0  0  0  0  0  0  0  0  0  0  0
   23.8770    7.8770   30.7380 N   0  0  0  0  0  0  0  0  0  0  0  0
   24.5020    7.0070   29.9200 C   0  0  0  0  0  0  0  0  0  0  0  0
   24.0780    5.7020   29.7720 C   0  0  0  0  0  0  0  0  0  0  0  0
   22.9810    5.2290   30.4660 C   0  0  0  0  0  0  0  0  0  0  0  0
   22.3540    6.1390   31.3000 C   0  0  0  0  0  0  0  0  0  0  0  0
   24.3180    9.1440   30.8600 C   0  0  0  0  0  0  0  0  0  0  0  0
   25.3180    9.5460   30.2170 O   0  0  0  0  0  0  0  0  0  0  0  0
   22.8980   17.0080   28.5110 C   0  0  0  0  0  0  0  0  0  0  0  0
   22.8420   18.4810   27.6550 S   0  0  0  0  0  0  0  0  0  0  0  0
   23.8720   18.0790   26.3570 C   0  0  0  0  0  0  0  0  0  0  0  0
   24.2320   16.7900   26.6360 C   0  0  0  0  0  0  0  0  0  0  0  0
   23.7330   16.2350   27.7450 C   0  0  0  0  0  0  0  0  0  0  0  0
   24.3790   19.0590   24.9660 Cl  0  0  0  0  0  0  0  0  0  0  0  0
   22.3450   13.8120   28.9070 H   0  0  0  0  0  0  0  0  0  0  0  0
   23.7880   14.8720   28.7870 H   0  0  0  0  0  0  0  0  0  0  0  0
   24.1280   12.2670   29.2120 H   0  0  0  0  0  0  0  0  0  0  0  0
   25.0400   13.4550   30.1800 H   0  0  0  0  0  0  0  0  0  0  0  0
   22.5470   12.9730   32.9620 H   0  0  0  0  0  0  0  0  0  0  0  0
   21.4830   12.2690   31.7340 H   0  0  0  0  0  0  0  0  0  0  0  0
   20.8560   14.3450   31.1240 H   0  0  0  0  0  0  0  0  0  0  0  0
   21.8650   15.0580   32.4150 H   0  0  0  0  0  0  0  0  0  0  0  0
   22.1040   10.3040   33.0450 H   0  0  0  0  0  0  0  0  0  0  0  0
   25.3680    7.3610   29.3660 H   0  0  0  0  0  0  0  0  0  0  0  0
   24.5850    5.0010   29.1100 H   0  0  0  0  0  0  0  0  0  0  0  0
   22.6200    4.2130   30.3740 H   0  0  0  0  0  0  0  0  0  0  0  0
   21.4920    5.7900   31.8530 H   0  0  0  0  0  0  0  0  0  0  0  0
   24.9170   16.2490   25.9490 H   0  0  0  0  0  0  0  0  0  0  0  0
   23.9520   15.1940   28.0790 H   0  0  0  0  0  0  0  0  0  0  0  0
  1  4  1  0  0  0  0
  1  3  2  0  0  0  0
  2  1  2  0  0  0  0
  4  9  1  0  0  0  0
  5  6  1  0  0  0  0
  5  4  1  0  0  0  0
  6 32  1  0  0  0  0
  6  7  1  0  0  0  0
  7 10  1  0  0  0  0
  7  8  1  0  0  0  0
  8 33  1  0  0  0  0
  9  8  1  0  0  0  0
  9 36  1  0  0  0  0
 10 11  2  0  0  0  0
 12 10  1  0  0  0  0
 12 13  2  0  0  0  0
 13 37  1  0  0  0  0
 14 13  1  0  0  0  0
 15 14  2  0  0  0  0
 16 21  1  0  0  0  0
 16 15  1  0  0  0  0
 17 16  1  0  0  0  0
 18 17  2  0  0  0  0
 18 19  1  0  0  0  0
 19 20  2  0  0  0  0
 20 15  1  0  0  0  0
 20 41  1  0  0  0  0
 21 12  1  0  0  0  0
 22 21  2  0  0  0  0
 23  1  1  0  0  0  0
 24 23  1  0  0  0  0
 25 26  2  0  0  0  0
 25 24  1  0  0  0  0
 26 27  1  0  0  0  0
 27 43  1  0  0  0  0
 27 23  2  0  0  0  0
 28 25  1  0  0  0  0
 29  5  1  0  0  0  0
 30  5  1  0  0  0  0
 31  6  1  0  0  0  0
 34  8  1  0  0  0  0
 35  9  1  0  0  0  0
 38 17  1  0  0  0  0
 39 18  1  0  0  0  0
 40 19  1  0  0  0  0
 42 26  1  0  0  0  0
M  END
>  <Pose>
1

>  <Score>
-7.55

$$$$
