
 OpenBabel03202209553D

 50 52  0  0  1  0  0  0  0  0999 V2000
   25.2600    6.2010   29.4570 S   0  0  0  0  0  0  0  0  0  0  0  0
   26.7690    6.0790   29.6080 O   0  0  0  0  0  0  0  0  0  0  0  0
   24.9870    5.6780   28.0470 O   0  0  0  0  0  0  0  0  0  0  0  0
   24.7590    7.7950   29.5570 N   0  0  0  0  0  0  0  0  0  0  0  0
   25.6180    8.7230   30.1500 C   0  0  0  0  0  0  0  0  0  0  0  0
   25.1660   10.1750   29.9370 C   0  0  0  0  0  0  0  0  0  0  0  0
   23.7410   10.3010   30.0200 N   0  0  0  0  0  0  0  0  0  0  0  0
   22.9310    9.3160   29.3360 C   0  0  0  0  0  0  0  0  0  0  0  0
   23.3580    7.9620   29.8670 C   0  0  0  0  0  0  0  0  0  0  0  0
   23.1620   11.3490   30.7430 C   0  0  0  0  0  0  0  0  0  0  0  0
   22.0520   11.1900   31.3120 O   0  0  0  0  0  0  0  0  0  0  0  0
   23.8150   12.6890   30.8770 C   0  0  0  0  0  0  0  0  0  0  0  0
   22.8380   13.8200   31.1000 C   0  0  0  0  0  0  0  0  0  0  0  0
   22.7960   13.9930   29.5830 C   0  0  0  0  0  0  0  0  0  0  0  0
   24.1520   13.2840   29.5330 C   0  0  0  0  0  0  0  0  0  0  0  0
   24.5090    5.0700   30.5620 C   0  0  0  0  0  0  0  0  0  0  0  0
   25.2620    3.9700   31.0190 C   0  0  0  0  0  0  0  0  0  0  0  0
   24.7090    3.0160   31.8420 C   0  0  0  0  0  0  0  0  0  0  0  0
   23.4000    3.0710   32.2650 C   0  0  0  0  0  0  0  0  0  0  0  0
   22.6630    4.1420   31.8240 C   0  0  0  0  0  0  0  0  0  0  0  0
   23.2080    5.1260   30.9860 C   0  0  0  0  0  0  0  0  0  0  0  0
   22.2260    6.4980   30.5310 Cl  0  0  0  0  0  0  0  0  0  0  0  0
   22.8920    2.0550   33.1090 N   0  0  0  0  0  0  0  0  0  0  0  0
   23.6860    0.9590   33.5450 C   0  0  0  0  0  0  0  0  0  0  0  0
   23.3880    0.1860   34.4750 O   0  0  0  0  0  0  0  0  0  0  0  0
   24.9640    0.7470   32.8150 C   0  0  2  0  0  0  0  0  0  0  0  0
   25.4770    1.9360   32.2810 O   0  0  0  0  0  0  0  0  0  0  0  0
   24.7770   -0.2390   31.6830 C   0  0  0  0  0  0  0  0  0  0  0  0
   26.6060    8.6900   29.6490 H   0  0  0  0  0  0  0  0  0  0  0  0
   25.7400    8.5720   31.2300 H   0  0  0  0  0  0  0  0  0  0  0  0
   25.6430   10.7890   30.7150 H   0  0  0  0  0  0  0  0  0  0  0  0
   25.4680   10.4860   28.9180 H   0  0  0  0  0  0  0  0  0  0  0  0
   21.8520    9.4920   29.4520 H   0  0  0  0  0  0  0  0  0  0  0  0
   23.2100    9.3490   28.2450 H   0  0  0  0  0  0  0  0  0  0  0  0
   23.2140    7.9390   30.9670 H   0  0  0  0  0  0  0  0  0  0  0  0
   22.7960    7.1660   29.3730 H   0  0  0  0  0  0  0  0  0  0  0  0
   24.6590   12.6740   31.6090 H   0  0  0  0  0  0  0  0  0  0  0  0
   23.2620   14.6930   31.6130 H   0  0  0  0  0  0  0  0  0  0  0  0
   21.8480   13.5040   31.5210 H   0  0  0  0  0  0  0  0  0  0  0  0
   21.9920   13.4110   29.1050 H   0  0  0  0  0  0  0  0  0  0  0  0
   22.8050   15.0330   29.2470 H   0  0  0  0  0  0  0  0  0  0  0  0
   25.0180   13.9790   29.5700 H   0  0  0  0  0  0  0  0  0  0  0  0
   24.2470   12.5670   28.7080 H   0  0  0  0  0  0  0  0  0  0  0  0
   26.2850    3.9150   30.6950 H   0  0  0  0  0  0  0  0  0  0  0  0
   21.6340    4.2290   32.1290 H   0  0  0  0  0  0  0  0  0  0  0  0
   21.8960    2.1030   33.4280 H   0  0  0  0  0  0  0  0  0  0  0  0
   25.6930    0.3320   33.5260 H   0  0  0  0  0  0  0  0  0  0  0  0
   23.8020   -0.7810   31.8480 H   0  0  0  0  0  0  0  0  0  0  0  0
   25.6180   -0.9540   31.6760 H   0  0  0  0  0  0  0  0  0  0  0  0
   24.6950    0.3020   30.7220 H   0  0  0  0  0  0  0  0  0  0  0  0
  1  4  1  0  0  0  0
  1  2  2  0  0  0  0
  1 16  1  0  0  0  0
  3  1  2  0  0  0  0
  4  9  1  0  0  0  0
  4  5  1  0  0  0  0
  5 30  1  0  0  0  0
  6  7  1  0  0  0  0
  6  5  1  0  0  0  0
  6 31  1  0  0  0  0
  7 10  1  0  0  0  0
  8 33  1  0  0  0  0
  8  9  1  0  0  0  0
  8  7  1  0  0  0  0
  9 35  1  0  0  0  0
 10 12  1  0  0  0  0
 10 11  2  0  0  0  0
 12 13  1  0  0  0  0
 12 37  1  0  0  0  0
 13 39  1  0  0  0  0
 13 38  1  0  0  0  0
 14 13  1  0  0  0  0
 15 42  1  0  0  0  0
 15 14  1  0  0  0  0
 15 12  1  0  0  0  0
 16 21  2  0  0  0  0
 16 17  1  0  0  0  0
 17 18  2  0  0  0  0
 18 19  1  0  0  0  0
 18 27  1  0  0  0  0
 19 23  1  0  0  0  0
 20 45  1  0  0  0  0
 20 19  2  0  0  0  0
 21 20  1  0  0  0  0
 23 46  1  0  0  0  0
 23 24  1  0  0  0  0
 24 25  2  0  0  0  0
 26 47  1  1  0  0  0
 26 24  1  0  0  0  0
 27 26  1  0  0  0  0
 28 48  1  0  0  0  0
 28 26  1  0  0  0  0
 29  5  1  0  0  0  0
 32  6  1  0  0  0  0
 34  8  1  0  0  0  0
 36  9  1  0  0  0  0
 40 14  1  0  0  0  0
 41 14  1  0  0  0  0
 43 15  1  0  0  0  0
 44 17  1  0  0  0  0
 49 28  1  0  0  0  0
 50 28  1  0  0  0  0
M  END
>  <Pose>
1

>  <Score>
-6.30

$$$$
