
 OpenBabel03202209553D

 41 43  0  0  0  0  0  0  0  0999 V2000
   20.6100   14.6130   31.4710 B   0  0  0  0  0  0  0  0  0  0  0  0
   22.2660   13.8260   30.9090 C   0  0  0  0  0  0  0  0  0  0  0  0
   22.9640   14.3500   29.8560 C   0  0  0  0  0  0  0  0  0  0  0  0
   24.1660   13.7700   29.4580 C   0  0  0  0  0  0  0  0  0  0  0  0
   24.5930   12.6680   30.1710 C   0  0  0  0  0  0  0  0  0  0  0  0
   23.8890   12.1540   31.2200 C   0  0  0  0  0  0  0  0  0  0  0  0
   22.6920   12.7220   31.6260 C   0  0  0  0  0  0  0  0  0  0  0  0
   25.8140   12.0990   29.7460 O   0  0  0  0  0  0  0  0  0  0  0  0
   25.9360   10.7010   29.5580 C   0  0  0  0  0  0  0  0  0  0  0  0
   24.8810   14.2670   28.2870 C   0  0  0  0  0  0  0  0  0  0  0  0
   24.7460   15.3550   27.5340 N   0  0  0  0  0  0  0  0  0  0  0  0
   25.6760   15.3470   26.5350 C   0  0  0  0  0  0  0  0  0  0  0  0
   26.3780   14.2040   26.7150 N   0  0  0  0  0  0  0  0  0  0  0  0
   25.9180   13.5530   27.7490 N   0  0  0  0  0  0  0  0  0  0  0  0
   25.5510   16.4380   25.7640 N   0  0  0  0  0  0  0  0  0  0  0  0
   24.5510   17.1790   26.2260 C   0  0  0  0  0  0  0  0  0  0  0  0
   24.0400   16.4970   27.3430 C   0  0  0  0  0  0  0  0  0  0  0  0
   23.0010   17.0130   28.0120 N   0  0  0  0  0  0  0  0  0  0  0  0
   22.4830   18.1930   27.5770 C   0  0  0  0  0  0  0  0  0  0  0  0
   21.5000   18.6600   28.2320 O   0  0  0  0  0  0  0  0  0  0  0  0
   22.9310   18.8790   26.5280 N   0  0  0  0  0  0  0  0  0  0  0  0
   23.9640   18.3670   25.8570 C   0  0  0  0  0  0  0  0  0  0  0  0
   24.4280   18.9740   24.8580 O   0  0  0  0  0  0  0  0  0  0  0  0
   22.3130   20.1530   26.1220 C   0  0  0  0  0  0  0  0  0  0  0  0
   22.4060   16.3520   29.1370 C   0  0  0  0  0  0  0  0  0  0  0  0
   26.3610   16.7770   24.6120 C   0  0  0  0  0  0  0  0  0  0  0  0
   22.6100   15.2140   29.3110 H   0  0  0  0  0  0  0  0  0  0  0  0
   24.2790   11.2750   31.7480 H   0  0  0  0  0  0  0  0  0  0  0  0
   22.1350   12.3150   32.4570 H   0  0  0  0  0  0  0  0  0  0  0  0
   27.0270   10.4890   29.4690 H   0  0  0  0  0  0  0  0  0  0  0  0
   25.5350   10.1260   30.4070 H   0  0  0  0  0  0  0  0  0  0  0  0
   25.4510   10.3380   28.6490 H   0  0  0  0  0  0  0  0  0  0  0  0
   21.3670   20.0040   25.6000 H   0  0  0  0  0  0  0  0  0  0  0  0
   22.1380   20.7260   27.0750 H   0  0  0  0  0  0  0  0  0  0  0  0
   23.0690   20.7190   25.5670 H   0  0  0  0  0  0  0  0  0  0  0  0
   21.4220   16.9170   29.3490 H   0  0  0  0  0  0  0  0  0  0  0  0
   22.9490   16.4630   30.0670 H   0  0  0  0  0  0  0  0  0  0  0  0
   22.0490   15.3710   28.8530 H   0  0  0  0  0  0  0  0  0  0  0  0
   25.7150   17.2300   23.8210 H   0  0  0  0  0  0  0  0  0  0  0  0
   27.1120   17.5270   24.9340 H   0  0  0  0  0  0  0  0  0  0  0  0
   26.8190   15.8800   24.1430 H   0  0  0  0  0  0  0  0  0  0  0  0
  2  1  1  0  0  0  0
  2  7  1  0  0  0  0
  3  2  2  0  0  0  0
  4  3  1  0  0  0  0
  4  5  2  0  0  0  0
  5  6  1  0  0  0  0
  6  7  2  0  0  0  0
  6 28  1  0  0  0  0
  7 29  1  0  0  0  0
  8  5  1  0  0  0  0
  9  8  1  0  0  0  0
  9 31  1  0  0  0  0
 10  4  1  0  0  0  0
 11 10  1  0  0  0  0
 12 13  2  0  0  0  0
 12 11  1  0  0  0  0
 13 14  1  0  0  0  0
 14 10  2  0  0  0  0
 15 16  1  0  0  0  0
 15 12  1  0  0  0  0
 16 17  2  0  0  0  0
 17 11  1  0  0  0  0
 17 18  1  0  0  0  0
 19 18  1  0  0  0  0
 19 20  2  0  0  0  0
 21 19  1  0  0  0  0
 22 16  1  0  0  0  0
 22 21  1  0  0  0  0
 23 22  2  0  0  0  0
 24 21  1  0  0  0  0
 24 34  1  0  0  0  0
 25 36  1  0  0  0  0
 25 37  1  0  0  0  0
 26 40  1  0  0  0  0
 26 15  1  0  0  0  0
 27  3  1  0  0  0  0
 30  9  1  0  0  0  0
 32  9  1  0  0  0  0
 33 24  1  0  0  0  0
 35 24  1  0  0  0  0
 38 25  1  0  0  0  0
 39 26  1  0  0  0  0
 41 26  1  0  0  0  0
M  END
>  <Pose>
1

>  <Score>
-6.52

$$$$
