
 OpenBabel03202209553D

 40 43  0  0  0  0  0  0  0  0999 V2000
   23.7680   16.1040   27.5690 Cl  0  0  0  0  0  0  0  0  0  0  0  0
   23.8140   14.5770   28.4350 C   0  0  0  0  0  0  0  0  0  0  0  0
   22.7920   14.1700   29.2710 C   0  0  0  0  0  0  0  0  0  0  0  0
   22.8370   12.9860   29.9360 N   0  0  0  0  0  0  0  0  0  0  0  0
   23.8730   12.1360   29.8280 C   0  0  0  0  0  0  0  0  0  0  0  0
   23.9270   10.9620   30.4840 N   0  0  0  0  0  0  0  0  0  0  0  0
   22.9370   10.5580   31.3000 C   0  0  0  0  0  0  0  0  0  0  0  0
   21.8570   11.4340   31.4180 C   0  0  0  0  0  0  0  0  0  0  0  0
   21.8120   12.6340   30.7420 C   0  0  0  0  0  0  0  0  0  0  0  0
   20.8250   13.4300   30.8530 O   0  0  0  0  0  0  0  0  0  0  0  0
   22.9510    9.2720   32.0440 C   0  0  0  0  0  0  0  0  0  0  0  0
   22.0740    8.3570   31.4130 N   0  0  0  0  0  0  0  0  0  0  0  0
   21.2040    7.6020   32.2330 C   0  0  0  0  0  0  0  0  0  0  0  0
   20.8280    6.2420   31.6650 C   0  0  0  0  0  0  0  0  0  0  0  0
   22.1080    5.6000   31.2640 C   0  0  0  0  0  0  0  0  0  0  0  0
   22.9650    6.3840   30.5200 C   0  0  0  0  0  0  0  0  0  0  0  0
   24.1340    5.8490   30.1350 N   0  0  0  0  0  0  0  0  0  0  0  0
   24.4540    4.5630   30.4780 C   0  0  0  0  0  0  0  0  0  0  0  0
   23.5870    3.8240   31.2110 N   0  0  0  0  0  0  0  0  0  0  0  0
   22.3960    4.3050   31.6290 C   0  0  0  0  0  0  0  0  0  0  0  0
   25.7450    3.9590   30.0590 C   0  0  0  0  0  0  0  0  0  0  0  0
   22.5240    7.7630   30.2000 C   0  0  0  0  0  0  0  0  0  0  0  0
   24.9140   12.5210   28.9940 C   0  0  0  0  0  0  0  0  0  0  0  0
   24.8860   13.7190   28.3100 C   0  0  0  0  0  0  0  0  0  0  0  0
   21.9370   14.8420   29.3770 H   0  0  0  0  0  0  0  0  0  0  0  0
   21.0460   11.1420   32.0630 H   0  0  0  0  0  0  0  0  0  0  0  0
   24.0000    8.8960   32.0080 H   0  0  0  0  0  0  0  0  0  0  0  0
   22.6630    9.4840   33.0850 H   0  0  0  0  0  0  0  0  0  0  0  0
   20.2680    8.1300   32.5110 H   0  0  0  0  0  0  0  0  0  0  0  0
   21.7460    7.3600   33.1940 H   0  0  0  0  0  0  0  0  0  0  0  0
   20.2200    6.4560   30.7410 H   0  0  0  0  0  0  0  0  0  0  0  0
   20.2880    5.6550   32.4040 H   0  0  0  0  0  0  0  0  0  0  0  0
   21.7270    3.6880   32.2120 H   0  0  0  0  0  0  0  0  0  0  0  0
   26.1470    4.5560   29.2180 H   0  0  0  0  0  0  0  0  0  0  0  0
   26.4350    4.0480   30.9370 H   0  0  0  0  0  0  0  0  0  0  0  0
   25.6150    2.9060   29.7470 H   0  0  0  0  0  0  0  0  0  0  0  0
   21.7470    7.7560   29.3950 H   0  0  0  0  0  0  0  0  0  0  0  0
   23.3850    8.3540   29.8230 H   0  0  0  0  0  0  0  0  0  0  0  0
   25.7600   11.8360   28.9010 H   0  0  0  0  0  0  0  0  0  0  0  0
   25.7120   14.0140   27.6550 H   0  0  0  0  0  0  0  0  0  0  0  0
  1  2  1  0  0  0  0
  2  3  1  0  0  0  0
  3 25  1  0  0  0  0
  3  4  1  0  0  0  0
  4  9  1  0  0  0  0
  5  4  1  0  0  0  0
  5  6  1  0  0  0  0
  6  7  2  0  0  0  0
  7  8  1  0  0  0  0
  7 11  1  0  0  0  0
  8 26  1  0  0  0  0
  9 10  2  0  0  0  0
  9  8  1  0  0  0  0
 11 28  1  0  0  0  0
 12 11  1  0  0  0  0
 12 13  1  0  0  0  0
 13 29  1  0  0  0  0
 13 30  1  0  0  0  0
 14 13  1  0  0  0  0
 14 32  1  0  0  0  0
 15 20  1  0  0  0  0
 15 14  1  0  0  0  0
 16 15  2  0  0  0  0
 17 18  2  0  0  0  0
 17 16  1  0  0  0  0
 18 19  1  0  0  0  0
 19 20  2  0  0  0  0
 20 33  1  0  0  0  0
 21 18  1  0  0  0  0
 21 35  1  0  0  0  0
 22 16  1  0  0  0  0
 22 12  1  0  0  0  0
 23  5  2  0  0  0  0
 24  2  2  0  0  0  0
 24 23  1  0  0  0  0
 27 11  1  0  0  0  0
 31 14  1  0  0  0  0
 34 21  1  0  0  0  0
 36 21  1  0  0  0  0
 37 22  1  0  0  0  0
 38 22  1  0  0  0  0
 39 23  1  0  0  0  0
 40 24  1  0  0  0  0
M  END
>  <Pose>
1

>  <Score>
-6.02

$$$$
