
 OpenBabel03202209553D

 35 37  0  0  1  0  0  0  0  0999 V2000
   21.4570   15.9780   31.2650 B   0  0  0  0  0  0  0  0  0  0  0  0
   22.4610   14.7590   30.2050 C   0  0  0  0  0  0  0  0  0  0  0  0
   22.4570   13.3970   30.5150 C   0  0  0  0  0  0  0  0  0  0  0  0
   23.1810   12.4760   29.7460 C   0  0  0  0  0  0  0  0  0  0  0  0
   23.8880   13.0030   28.6790 C   0  0  0  0  0  0  0  0  0  0  0  0
   23.8770   14.3560   28.3890 C   0  0  0  0  0  0  0  0  0  0  0  0
   23.1670   15.2410   29.1500 C   0  0  0  0  0  0  0  0  0  0  0  0
   24.5960   12.0940   27.9460 O   0  0  0  0  0  0  0  0  0  0  0  0
   25.9930   12.1860   27.8780 C   0  0  0  0  0  0  0  0  0  0  0  0
   23.0330   11.0680   30.0950 C   0  0  2  0  0  0  0  0  0  0  0  0
   23.2140   11.0770   31.6390 C   0  0  2  0  0  0  0  0  0  0  0  0
   24.5020   11.9210   31.6880 C   0  0  0  0  0  0  0  0  0  0  0  0
   24.6580   12.8770   32.4260 O   0  0  0  0  0  0  0  0  0  0  0  0
   25.4760   11.4170   30.7470 N   0  0  0  0  0  0  0  0  0  0  0  0
   25.2330   10.0260   30.3210 C   0  0  1  0  0  0  0  0  0  0  0  0
   24.9560    9.3320   31.5870 N   0  0  0  0  0  0  0  0  0  0  0  0
   23.7080    9.7670   32.1630 C   0  0  0  0  0  0  0  0  0  0  0  0
   23.0840    9.1210   33.0240 O   0  0  0  0  0  0  0  0  0  0  0  0
   23.8760   10.0350   29.5670 C   0  0  0  0  0  0  0  0  0  0  0  0
   26.2980    9.4090   29.5270 C   0  0  0  0  0  0  0  0  0  0  0  0
   21.8600   13.1290   31.3670 H   0  0  0  0  0  0  0  0  0  0  0  0
   24.4560   14.6630   27.5400 H   0  0  0  0  0  0  0  0  0  0  0  0
   23.2190   16.3040   28.8510 H   0  0  0  0  0  0  0  0  0  0  0  0
   26.3120   13.2160   27.6540 H   0  0  0  0  0  0  0  0  0  0  0  0
   26.3390   11.9780   28.9460 H   0  0  0  0  0  0  0  0  0  0  0  0
   26.4560   11.4280   27.2330 H   0  0  0  0  0  0  0  0  0  0  0  0
   21.9440   10.8270   29.9850 H   0  0  0  0  0  0  0  0  0  0  0  0
   22.4180   11.4810   32.2000 H   0  0  0  0  0  0  0  0  0  0  0  0
   26.2580   11.9680   30.3840 H   0  0  0  0  0  0  0  0  0  0  0  0
   25.5850    8.6330   31.9960 H   0  0  0  0  0  0  0  0  0  0  0  0
   23.4120    9.0390   29.8620 H   0  0  0  0  0  0  0  0  0  0  0  0
   23.9840    9.9100   28.4930 H   0  0  0  0  0  0  0  0  0  0  0  0
   26.3740    8.3190   29.8660 H   0  0  0  0  0  0  0  0  0  0  0  0
   26.1320    9.3940   28.4360 H   0  0  0  0  0  0  0  0  0  0  0  0
   27.2680    9.8620   29.7130 H   0  0  0  0  0  0  0  0  0  0  0  0
  2  3  1  0  0  0  0
  2  1  1  0  0  0  0
  3 21  1  0  0  0  0
  4 10  1  0  0  0  0
  4  3  2  0  0  0  0
  5  4  1  0  0  0  0
  6  5  2  0  0  0  0
  6  7  1  0  0  0  0
  7  2  2  0  0  0  0
  8  5  1  0  0  0  0
  9  8  1  0  0  0  0
  9 25  1  0  0  0  0
 10 27  1  6  0  0  0
 10 11  1  0  0  0  0
 11 12  1  0  0  0  0
 11 17  1  0  0  0  0
 11 28  1  1  0  0  0
 12 13  2  0  0  0  0
 14 12  1  0  0  0  0
 15 20  1  6  0  0  0
 15 14  1  0  0  0  0
 15 16  1  0  0  0  0
 16 30  1  0  0  0  0
 16 17  1  0  0  0  0
 17 18  2  0  0  0  0
 19 31  1  0  0  0  0
 19 10  1  0  0  0  0
 19 15  1  0  0  0  0
 20 35  1  0  0  0  0
 20 33  1  0  0  0  0
 22  6  1  0  0  0  0
 23  7  1  0  0  0  0
 24  9  1  0  0  0  0
 26  9  1  0  0  0  0
 29 14  1  0  0  0  0
 32 19  1  0  0  0  0
 34 20  1  0  0  0  0
M  END
>  <Pose>
1

>  <Score>
-5.27

$$$$
