
 OpenBabel03202209553D

 50 53  0  0  1  0  0  0  0  0999 V2000
   21.3810    4.7070   30.9060 Cl  0  0  0  0  0  0  0  0  0  0  0  0
   21.2900    6.3710   31.4780 C   0  0  0  0  0  0  0  0  0  0  0  0
   22.3880    7.2150   31.2340 C   0  0  0  0  0  0  0  0  0  0  0  0
   22.3120    8.5040   31.6720 C   0  0  0  0  0  0  0  0  0  0  0  0
   21.1980    8.9840   32.3470 C   0  0  0  0  0  0  0  0  0  0  0  0
   20.1400    8.1340   32.5730 C   0  0  0  0  0  0  0  0  0  0  0  0
   20.1730    6.8270   32.1420 C   0  0  0  0  0  0  0  0  0  0  0  0
   18.9450    8.6810   33.3070 C   0  0  0  0  0  0  0  0  0  0  0  0
   23.5340    9.2100   31.1780 C   0  0  2  0  0  0  0  0  0  0  0  0
   24.0790   10.1570   32.0670 N   0  0  0  0  0  0  0  0  0  0  0  0
   23.4310   11.4070   31.7890 C   0  0  2  0  0  0  0  0  0  0  0  0
   22.6500   11.2830   30.5450 C   0  0  2  0  0  0  0  0  0  0  0  0
   23.2310   10.0000   29.9440 C   0  0  1  0  0  0  0  0  0  0  0  0
   24.4100   10.5190   29.2760 C   0  0  0  0  0  0  0  0  0  0  0  0
   25.5730   10.0850   29.1200 O   0  0  0  0  0  0  0  0  0  0  0  0
   23.9920   11.7990   28.7330 N   0  0  0  0  0  0  0  0  0  0  0  0
   22.8870   12.2640   29.4930 C   0  0  0  0  0  0  0  0  0  0  0  0
   22.2620   13.3120   29.2780 O   0  0  0  0  0  0  0  0  0  0  0  0
   24.5530   12.5130   27.6150 C   0  0  0  0  0  0  0  0  0  0  0  0
   25.7830   13.2910   27.9000 C   0  0  0  0  0  0  0  0  0  0  0  0
   26.3860   13.9310   26.8590 O   0  0  0  0  0  0  0  0  0  0  0  0
   26.9140   15.1710   27.1560 C   0  0  0  0  0  0  0  0  0  0  0  0
   24.3940   12.5780   31.8460 C   0  0  1  0  0  0  0  0  0  0  0  0
   25.4550   12.4990   30.9930 O   0  0  0  0  0  0  0  0  0  0  0  0
   23.6200   13.8550   31.8270 C   0  0  0  0  0  0  0  0  0  0  0  0
   24.4300    8.1150   30.8120 C   0  0  0  0  0  0  0  0  0  0  0  0
   25.6860    8.0910   30.6120 O   0  0  0  0  0  0  0  0  0  0  0  0
   23.6720    6.9350   30.6880 N   0  0  0  0  0  0  0  0  0  0  0  0
   21.1060   10.0030   32.7240 H   0  0  0  0  0  0  0  0  0  0  0  0
   19.3150    6.1740   32.3350 H   0  0  0  0  0  0  0  0  0  0  0  0
   18.7060    9.6780   32.8870 H   0  0  0  0  0  0  0  0  0  0  0  0
   19.2060    8.8660   34.3890 H   0  0  0  0  0  0  0  0  0  0  0  0
   18.0740    8.0290   33.2100 H   0  0  0  0  0  0  0  0  0  0  0  0
   23.9760    9.8840   33.0740 H   0  0  0  0  0  0  0  0  0  0  0  0
   22.7040   11.6450   32.6290 H   0  0  0  0  0  0  0  0  0  0  0  0
   21.5650   11.0550   30.6870 H   0  0  0  0  0  0  0  0  0  0  0  0
   22.4980    9.5100   29.2760 H   0  0  0  0  0  0  0  0  0  0  0  0
   24.7960   11.7870   26.8060 H   0  0  0  0  0  0  0  0  0  0  0  0
   23.7610   13.1720   27.1830 H   0  0  0  0  0  0  0  0  0  0  0  0
   26.5370   12.5650   28.3210 H   0  0  0  0  0  0  0  0  0  0  0  0
   25.6120   14.0050   28.7420 H   0  0  0  0  0  0  0  0  0  0  0  0
   27.6710   15.1380   27.9410 H   0  0  0  0  0  0  0  0  0  0  0  0
   27.3830   15.5650   26.2290 H   0  0  0  0  0  0  0  0  0  0  0  0
   26.0560   15.8240   27.4700 H   0  0  0  0  0  0  0  0  0  0  0  0
   24.8480   12.4850   32.8890 H   0  0  0  0  0  0  0  0  0  0  0  0
   25.6030   13.3090   30.4420 H   0  0  0  0  0  0  0  0  0  0  0  0
   23.8720   14.4530   32.7560 H   0  0  0  0  0  0  0  0  0  0  0  0
   23.9190   14.5340   31.0000 H   0  0  0  0  0  0  0  0  0  0  0  0
   22.5470   13.6350   31.8760 H   0  0  0  0  0  0  0  0  0  0  0  0
   23.9410    6.0020   30.2840 H   0  0  0  0  0  0  0  0  0  0  0  0
  1  2  1  0  0  0  0
  2  7  1  0  0  0  0
  3  2  2  0  0  0  0
  3  4  1  0  0  0  0
  4  5  2  0  0  0  0
  5  6  1  0  0  0  0
  5 29  1  0  0  0  0
  6  8  1  0  0  0  0
  7 30  1  0  0  0  0
  7  6  2  0  0  0  0
  8 32  1  0  0  0  0
  9 26  1  6  0  0  0
  9  4  1  0  0  0  0
  9 10  1  0  0  0  0
 10 34  1  0  0  0  0
 11 23  1  0  0  0  0
 11 10  1  0  0  0  0
 11 35  1  1  0  0  0
 12 36  1  1  0  0  0
 12 11  1  0  0  0  0
 13 37  1  6  0  0  0
 13 12  1  0  0  0  0
 13  9  1  0  0  0  0
 14 13  1  0  0  0  0
 15 14  2  0  0  0  0
 16 14  1  0  0  0  0
 16 17  1  0  0  0  0
 17 12  1  0  0  0  0
 18 17  2  0  0  0  0
 19 20  1  0  0  0  0
 19 16  1  0  0  0  0
 20 40  1  0  0  0  0
 20 41  1  0  0  0  0
 21 22  1  0  0  0  0
 21 20  1  0  0  0  0
 22 44  1  0  0  0  0
 22 42  1  0  0  0  0
 23 45  1  1  0  0  0
 24 23  1  0  0  0  0
 25 23  1  0  0  0  0
 25 49  1  0  0  0  0
 25 47  1  0  0  0  0
 27 26  2  0  0  0  0
 28 26  1  0  0  0  0
 28  3  1  0  0  0  0
 31  8  1  0  0  0  0
 33  8  1  0  0  0  0
 38 19  1  0  0  0  0
 39 19  1  0  0  0  0
 43 22  1  0  0  0  0
 46 24  1  0  0  0  0
 48 25  1  0  0  0  0
 50 28  1  0  0  0  0
M  END
>  <Pose>
1

>  <Score>
-5.86

$$$$
