
 OpenBabel03202209553D

 55 58  0  0  0  0  0  0  0  0999 V2000
   21.6150    5.1170   30.9830 B   0  0  0  0  0  0  0  0  0  0  0  0
   22.7130    6.6650   31.0380 C   0  0  0  0  0  0  0  0  0  0  0  0
   22.1830    7.9440   31.2850 C   0  0  0  0  0  0  0  0  0  0  0  0
   23.0000    9.0450   31.3140 C   0  0  0  0  0  0  0  0  0  0  0  0
   24.3510    8.8910   31.1020 C   0  0  0  0  0  0  0  0  0  0  0  0
   24.8760    7.6140   30.8580 C   0  0  0  0  0  0  0  0  0  0  0  0
   24.0660    6.5250   30.8260 C   0  0  0  0  0  0  0  0  0  0  0  0
   25.1060   10.0120   31.1460 O   0  0  0  0  0  0  0  0  0  0  0  0
   26.1030   10.3250   32.0560 C   0  0  0  0  0  0  0  0  0  0  0  0
   22.4500   10.3600   31.6100 C   0  0  0  0  0  0  0  0  0  0  0  0
   22.6750   11.4610   30.9690 C   0  0  0  0  0  0  0  0  0  0  0  0
   23.4800   11.6210   29.8760 O   0  0  0  0  0  0  0  0  0  0  0  0
   23.4480   12.9560   29.4790 C   0  0  0  0  0  0  0  0  0  0  0  0
   22.6480   13.7090   30.2770 C   0  0  0  0  0  0  0  0  0  0  0  0
   22.4650   15.0760   30.0370 C   0  0  0  0  0  0  0  0  0  0  0  0
   23.0800   15.7230   28.9970 C   0  0  0  0  0  0  0  0  0  0  0  0
   23.9020   14.9030   28.2030 C   0  0  0  0  0  0  0  0  0  0  0  0
   24.0950   13.5790   28.4050 C   0  0  0  0  0  0  0  0  0  0  0  0
   24.9960   12.7280   27.6050 C   0  0  0  0  0  0  0  0  0  0  0  0
   26.3270   12.6930   28.1630 N   0  0  0  0  0  4  0  0  0  0  0  0
   27.2040   13.5260   27.3590 C   0  0  0  0  0  0  0  0  0  0  0  0
   28.5570   12.9880   27.1540 C   0  0  0  0  0  0  0  0  0  0  0  0
   29.0820   12.1800   28.2070 N   0  0  0  0  0  0  0  0  0  0  0  0
   28.2250   11.8020   29.2360 C   0  0  0  0  0  0  0  0  0  0  0  0
   26.8160   11.5000   28.6600 C   0  0  0  0  0  0  0  0  0  0  0  0
   30.1500   11.3160   27.8750 C   0  0  0  0  0  0  0  0  0  0  0  0
   31.2370   11.2180   28.8870 C   0  0  0  0  0  0  0  0  0  0  0  0
   24.5250   15.6180   27.1590 O   0  0  0  0  0  0  0  0  0  0  0  0
   22.1140   12.7770   31.2760 C   0  0  0  0  0  0  0  0  0  0  0  0
   21.3180   13.0630   32.2180 O   0  0  0  0  0  0  0  0  0  0  0  0
   21.1170    7.9780   31.4370 H   0  0  0  0  0  0  0  0  0  0  0  0
   25.9470    7.4890   30.6960 H   0  0  0  0  0  0  0  0  0  0  0  0
   24.5260    5.5580   30.6360 H   0  0  0  0  0  0  0  0  0  0  0  0
   27.0790   10.5750   31.5540 H   0  0  0  0  0  0  0  0  0  0  0  0
   26.3660    9.5480   32.7940 H   0  0  0  0  0  0  0  0  0  0  0  0
   25.7940   11.2310   32.6810 H   0  0  0  0  0  0  0  0  0  0  0  0
   21.7490   10.4700   32.4750 H   0  0  0  0  0  0  0  0  0  0  0  0
   21.7990   15.5820   30.7330 H   0  0  0  0  0  0  0  0  0  0  0  0
   22.9590   16.7600   28.7910 H   0  0  0  0  0  0  0  0  0  0  0  0
   24.9610   12.9830   26.5360 H   0  0  0  0  0  0  0  0  0  0  0  0
   24.5370   11.6830   27.6420 H   0  0  0  0  0  0  0  0  0  0  0  0
   26.1790   13.3270   29.0750 H   0  0  0  0  0  0  0  0  0  0  0  0
   27.2270   14.5670   27.7690 H   0  0  0  0  0  0  0  0  0  0  0  0
   26.7190   13.6460   26.3630 H   0  0  0  0  0  0  0  0  0  0  0  0
   28.6450   12.5060   26.1500 H   0  0  0  0  0  0  0  0  0  0  0  0
   29.2590   13.8790   27.0770 H   0  0  0  0  0  0  0  0  0  0  0  0
   28.5930   10.9900   29.8490 H   0  0  0  0  0  0  0  0  0  0  0  0
   28.0120   12.6740   29.9160 H   0  0  0  0  0  0  0  0  0  0  0  0
   26.2670   11.2410   29.6220 H   0  0  0  0  0  0  0  0  0  0  0  0
   26.7810   10.6230   28.0380 H   0  0  0  0  0  0  0  0  0  0  0  0
   29.7170   10.2820   27.7320 H   0  0  0  0  0  0  0  0  0  0  0  0
   30.5300   11.6350   26.8650 H   0  0  0  0  0  0  0  0  0  0  0  0
   31.2050   11.9820   29.6670 H   0  0  0  0  0  0  0  0  0  0  0  0
   31.2750   10.1990   29.3560 H   0  0  0  0  0  0  0  0  0  0  0  0
   32.1960   11.3580   28.3580 H   0  0  0  0  0  0  0  0  0  0  0  0
  1  2  1  0  0  0  0
  2  3  1  0  0  0  0
  3  4  2  0  0  0  0
  3 31  1  0  0  0  0
  4 10  1  0  0  0  0
  5  8  1  0  0  0  0
  5  4  1  0  0  0  0
  6  5  2  0  0  0  0
  7  6  1  0  0  0  0
  7  2  2  0  0  0  0
  8  9  1  0  0  0  0
  9 36  1  0  0  0  0
  9 35  1  0  0  0  0
 10 37  1  0  0  0  0
 11 29  1  0  0  0  0
 11 10  2  0  0  0  0
 12 11  1  0  0  0  0
 13 12  1  0  0  0  0
 13 14  1  0  0  0  0
 14 29  1  0  0  0  0
 15 14  2  0  0  0  0
 15 38  1  0  0  0  0
 16 15  1  0  0  0  0
 17 18  1  0  0  0  0
 17 16  2  0  0  0  0
 18 13  2  0  0  0  0
 19 41  1  0  0  0  0
 19 20  1  0  0  0  0
 19 18  1  0  0  0  0
 20 25  1  0  0  0  0
 20 42  1  0  0  0  0
 21 43  1  0  0  0  0
 21 20  1  0  0  0  0
 22 21  1  0  0  0  0
 22 23  1  0  0  0  0
 23 24  1  0  0  0  0
 24 47  1  0  0  0  0
 24 48  1  0  0  0  0
 25 24  1  0  0  0  0
 25 49  1  0  0  0  0
 26 23  1  0  0  0  0
 26 27  1  0  0  0  0
 27 54  1  0  0  0  0
 27 53  1  0  0  0  0
 28 17  1  0  0  0  0
 29 30  2  0  0  0  0
 32  6  1  0  0  0  0
 33  7  1  0  0  0  0
 34  9  1  0  0  0  0
 39 16  1  0  0  0  0
 40 19  1  0  0  0  0
 44 21  1  0  0  0  0
 45 22  1  0  0  0  0
 46 22  1  0  0  0  0
 50 25  1  0  0  0  0
 51 26  1  0  0  0  0
 52 26  1  0  0  0  0
 55 27  1  0  0  0  0
M  END
>  <Pose>
1

>  <Score>
-5.49

$$$$
