
 OpenBabel03202209553D

 48 51  0  0  0  0  0  0  0  0999 V2000
   25.7090    2.5000   32.3880 B   0  0  0  0  0  0  0  0  0  0  0  0
   24.5630    3.8030   31.6030 C   0  0  0  0  0  0  0  0  0  0  0  0
   23.2910    4.0780   32.0170 C   0  0  0  0  0  0  0  0  0  0  0  0
   22.4810    5.0260   31.4320 C   0  0  0  0  0  0  0  0  0  0  0  0
   23.0170    5.7370   30.3530 C   0  0  0  0  0  0  0  0  0  0  0  0
   24.2840    5.5040   29.8950 C   0  0  0  0  0  0  0  0  0  0  0  0
   25.0550    4.5340   30.5250 C   0  0  0  0  0  0  0  0  0  0  0  0
   22.2270    6.6970   29.7520 O   0  0  0  0  0  0  0  0  0  0  0  0
   22.3740    8.0510   30.0920 C   0  0  0  0  0  0  0  0  0  0  0  0
   21.1360    5.3120   31.9000 C   0  0  0  0  0  0  0  0  0  0  0  0
   20.6610    6.4840   32.2220 C   0  0  0  0  0  0  0  0  0  0  0  0
   21.3830    7.6660   32.1650 O   0  0  0  0  0  0  0  0  0  0  0  0
   20.6260    8.7510   32.5670 C   0  0  0  0  0  0  0  0  0  0  0  0
   19.3560    8.3520   32.9160 C   0  0  0  0  0  0  0  0  0  0  0  0
   18.4320    9.2800   33.3490 C   0  0  0  0  0  0  0  0  0  0  0  0
   18.7940   10.6080   33.4300 C   0  0  0  0  0  0  0  0  0  0  0  0
   20.1000   10.9900   33.0680 C   0  0  0  0  0  0  0  0  0  0  0  0
   21.0280   10.0920   32.6360 C   0  0  0  0  0  0  0  0  0  0  0  0
   22.3670   10.4270   32.2350 C   0  0  0  0  0  0  0  0  0  0  0  0
   22.6590   11.1010   31.0370 N   0  0  0  0  0  4  0  0  0  0  0  0
   22.6880   12.5360   31.1160 C   0  0  0  0  0  0  0  0  0  0  0  0
   23.9880   13.0990   31.6340 C   0  0  0  0  0  0  0  0  0  0  0  0
   24.8840   12.1270   32.0590 O   0  0  0  0  0  0  0  0  0  0  0  0
   25.1270   11.3120   30.9590 C   0  0  0  0  0  0  0  0  0  0  0  0
   23.9120   10.6310   30.4190 C   0  0  0  0  0  0  0  0  0  0  0  0
   20.3240   12.3700   33.2020 O   0  0  0  0  0  0  0  0  0  0  0  0
   19.3410    6.9000   32.7060 C   0  0  0  0  0  0  0  0  0  0  0  0
   18.3740    6.1320   32.9030 O   0  0  0  0  0  0  0  0  0  0  0  0
   22.9080    3.5020   32.8650 H   0  0  0  0  0  0  0  0  0  0  0  0
   24.7480    6.0300   29.0530 H   0  0  0  0  0  0  0  0  0  0  0  0
   26.0760    4.3370   30.1660 H   0  0  0  0  0  0  0  0  0  0  0  0
   21.4160    8.6100   29.8550 H   0  0  0  0  0  0  0  0  0  0  0  0
   23.1640    8.5100   29.4440 H   0  0  0  0  0  0  0  0  0  0  0  0
   22.5410    8.2250   31.1750 H   0  0  0  0  0  0  0  0  0  0  0  0
   20.4380    4.4650   31.9970 H   0  0  0  0  0  0  0  0  0  0  0  0
   17.4290    8.9530   33.6200 H   0  0  0  0  0  0  0  0  0  0  0  0
   18.1160   11.3790   33.7610 H   0  0  0  0  0  0  0  0  0  0  0  0
   22.9230   11.0090   33.0530 H   0  0  0  0  0  0  0  0  0  0  0  0
   23.0310    9.4800   32.2090 H   0  0  0  0  0  0  0  0  0  0  0  0
   21.9500   10.8440   30.3200 H   0  0  0  0  0  0  0  0  0  0  0  0
   22.5970   12.8990   30.0490 H   0  0  0  0  0  0  0  0  0  0  0  0
   21.8220   12.9330   31.6450 H   0  0  0  0  0  0  0  0  0  0  0  0
   24.5360   13.7060   30.8570 H   0  0  0  0  0  0  0  0  0  0  0  0
   23.7820   13.8190   32.4510 H   0  0  0  0  0  0  0  0  0  0  0  0
   25.8110   10.4910   31.3280 H   0  0  0  0  0  0  0  0  0  0  0  0
   25.7020   11.8880   30.1790 H   0  0  0  0  0  0  0  0  0  0  0  0
   23.9530    9.5250   30.5030 H   0  0  0  0  0  0  0  0  0  0  0  0
   23.8670   10.8390   29.3300 H   0  0  0  0  0  0  0  0  0  0  0  0
  2  3  1  0  0  0  0
  2  1  1  0  0  0  0
  3 29  1  0  0  0  0
  4 10  1  0  0  0  0
  4  3  2  0  0  0  0
  5  4  1  0  0  0  0
  6  5  2  0  0  0  0
  6  7  1  0  0  0  0
  7  2  2  0  0  0  0
  8  9  1  0  0  0  0
  8  5  1  0  0  0  0
  9 34  1  0  0  0  0
 10 35  1  0  0  0  0
 10 11  2  0  0  0  0
 11 27  1  0  0  0  0
 12 11  1  0  0  0  0
 12 13  1  0  0  0  0
 13 18  2  0  0  0  0
 13 14  1  0  0  0  0
 14 15  2  0  0  0  0
 15 16  1  0  0  0  0
 15 36  1  0  0  0  0
 16 37  1  0  0  0  0
 17 26  1  0  0  0  0
 17 16  2  0  0  0  0
 18 17  1  0  0  0  0
 19 18  1  0  0  0  0
 19 38  1  0  0  0  0
 20 21  1  0  0  0  0
 20 19  1  0  0  0  0
 21 22  1  0  0  0  0
 21 42  1  0  0  0  0
 22 23  1  0  0  0  0
 22 44  1  0  0  0  0
 24 45  1  0  0  0  0
 24 23  1  0  0  0  0
 25 47  1  0  0  0  0
 25 24  1  0  0  0  0
 25 20  1  0  0  0  0
 27 28  2  0  0  0  0
 27 14  1  0  0  0  0
 30  6  1  0  0  0  0
 31  7  1  0  0  0  0
 32  9  1  0  0  0  0
 33  9  1  0  0  0  0
 39 19  1  0  0  0  0
 40 20  1  0  0  0  0
 41 21  1  0  0  0  0
 43 22  1  0  0  0  0
 46 24  1  0  0  0  0
 48 25  1  0  0  0  0
M  END
>  <Pose>
1

>  <Score>
-7.00

$$$$
