
 OpenBabel03202209553D

 49 52  0  0  1  0  0  0  0  0999 V2000
   25.7880    5.1770   28.5200 S   0  0  0  0  0  0  0  0  0  0  0  0
   24.7750    4.5860   29.4720 O   0  0  0  0  0  0  0  0  0  0  0  0
   25.5420    4.5640   27.1830 O   0  0  0  0  0  0  0  0  0  0  0  0
   25.5330    6.8770   28.5130 N   0  0  0  0  0  0  0  0  0  0  0  0
   25.7200    7.4120   29.8460 C   0  0  0  0  0  0  0  0  0  0  0  0
   25.2660    8.8650   29.9030 C   0  0  0  0  0  0  0  0  0  0  0  0
   23.8450    8.9000   29.5590 N   0  0  0  0  0  0  0  0  0  0  0  0
   23.3200    7.6780   29.0280 C   0  0  0  0  0  0  0  0  0  0  0  0
   24.2580    7.2030   27.9490 C   0  0  0  0  0  0  0  0  0  0  0  0
   23.1170   10.0750   29.7770 C   0  0  0  0  0  0  0  0  0  0  0  0
   23.4370   11.1390   29.1070 O   0  0  0  0  0  0  0  0  0  0  0  0
   21.9960   10.2970   30.6950 C   0  0  0  0  0  0  0  0  0  0  0  0
   22.1240    9.4230   32.2490 S   0  0  0  0  0  0  0  0  0  0  0  0
   20.8830    8.1640   32.4850 C   0  0  1  0  0  0  0  0  0  0  0  0
   21.1410    6.8860   32.2390 N   0  0  0  0  0  0  0  0  0  0  0  0
   20.2530    5.9040   32.4160 C   0  0  0  0  0  0  0  0  0  0  0  0
   19.0070    6.2360   32.8760 N   0  0  0  0  0  0  0  0  0  0  0  0
   18.7140    7.5150   33.1320 C   0  0  0  0  0  0  0  0  0  0  0  0
   17.5720    8.1010   33.5980 N   0  0  0  0  0  0  0  0  0  0  0  0
   17.7810    9.3980   33.6930 N   0  0  0  0  0  0  0  0  0  0  0  0
   19.0230    9.6980   33.3070 C   0  0  0  0  0  0  0  0  0  0  0  0
   19.6360    8.5280   32.9470 C   0  0  0  0  0  0  0  0  0  0  0  0
   16.3600    7.4130   33.9330 C   0  0  0  0  0  0  0  0  0  0  0  0
   27.4090    4.8300   29.0790 C   0  0  0  0  0  0  0  0  0  0  0  0
   28.4970    4.6710   28.2510 C   0  0  0  0  0  0  0  0  0  0  0  0
   29.7460    4.3900   28.7510 C   0  0  0  0  0  0  0  0  0  0  0  0
   29.9340    4.2600   30.1270 C   0  0  0  0  0  0  0  0  0  0  0  0
   28.8370    4.4180   30.9810 C   0  0  0  0  0  0  0  0  0  0  0  0
   27.5950    4.7000   30.4550 C   0  0  0  0  0  0  0  0  0  0  0  0
   31.5240    3.9040   30.7470 Cl  0  0  0  0  0  0  0  0  0  0  0  0
   26.7950    7.4020   30.0700 H   0  0  0  0  0  0  0  0  0  0  0  0
   25.1920    6.8360   30.6100 H   0  0  0  0  0  0  0  0  0  0  0  0
   25.4070    9.2020   30.9510 H   0  0  0  0  0  0  0  0  0  0  0  0
   25.8740    9.4250   29.1870 H   0  0  0  0  0  0  0  0  0  0  0  0
   22.2710    7.7430   28.6840 H   0  0  0  0  0  0  0  0  0  0  0  0
   23.2860    6.9340   29.8700 H   0  0  0  0  0  0  0  0  0  0  0  0
   23.8150    6.4200   27.3220 H   0  0  0  0  0  0  0  0  0  0  0  0
   24.3800    8.0920   27.2570 H   0  0  0  0  0  0  0  0  0  0  0  0
   21.0730    9.9420   30.1920 H   0  0  0  0  0  0  0  0  0  0  0  0
   21.8020   11.3650   30.9340 H   0  0  0  0  0  0  0  0  0  0  0  0
   20.5080    4.8800   32.2060 H   0  0  0  0  0  0  0  0  0  0  0  0
   19.4620   10.6700   33.2870 H   0  0  0  0  0  0  0  0  0  0  0  0
   16.5470    6.4230   34.4340 H   0  0  0  0  0  0  0  0  0  0  0  0
   15.7490    8.0710   34.6120 H   0  0  0  0  0  0  0  0  0  0  0  0
   15.7960    7.2340   32.9990 H   0  0  0  0  0  0  0  0  0  0  0  0
   28.3520    4.7740   27.1910 H   0  0  0  0  0  0  0  0  0  0  0  0
   30.6170    4.2650   28.1300 H   0  0  0  0  0  0  0  0  0  0  0  0
   29.0150    4.3080   32.0500 H   0  0  0  0  0  0  0  0  0  0  0  0
   26.7570    4.8220   31.1010 H   0  0  0  0  0  0  0  0  0  0  0  0
  1 24  1  0  0  0  0
  1  2  2  0  0  0  0
  3  1  2  0  0  0  0
  4  1  1  0  0  0  0
  4  5  1  0  0  0  0
  5  6  1  0  0  0  0
  5 31  1  0  0  0  0
  5 32  1  0  0  0  0
  6 33  1  0  0  0  0
  7 10  1  0  0  0  0
  7  6  1  0  0  0  0
  8  7  1  0  0  0  0
  8 36  1  0  0  0  0
  9  4  1  0  0  0  0
  9  8  1  0  0  0  0
 10 12  1  0  0  0  0
 11 10  2  0  0  0  0
 12 40  1  0  0  0  0
 12 13  1  0  0  0  0
 14 13  1  1  0  0  0
 14 22  1  0  0  0  0
 15 16  2  0  0  0  0
 15 14  1  0  0  0  0
 16 17  1  0  0  0  0
 17 18  1  0  0  0  0
 18 19  1  0  0  0  0
 19 20  1  0  0  0  0
 19 23  1  0  0  0  0
 21 20  2  0  0  0  0
 22 18  2  0  0  0  0
 22 21  1  0  0  0  0
 23 43  1  0  0  0  0
 23 44  1  0  0  0  0
 24 29  1  0  0  0  0
 25 26  1  0  0  0  0
 25 24  2  0  0  0  0
 26 27  2  0  0  0  0
 27 30  1  0  0  0  0
 27 28  1  0  0  0  0
 28 48  1  0  0  0  0
 29 28  2  0  0  0  0
 29 49  1  0  0  0  0
 34  6  1  0  0  0  0
 35  8  1  0  0  0  0
 37  9  1  0  0  0  0
 38  9  1  0  0  0  0
 39 12  1  0  0  0  0
 41 16  1  0  0  0  0
 42 21  1  0  0  0  0
 45 23  1  0  0  0  0
 46 25  1  0  0  0  0
 47 26  1  0  0  0  0
M  END
>  <Pose>
1

>  <Score>
-6.70

$$$$
