
 OpenBabel03202209553D

 49 52  0  0  0  0  0  0  0  0999 V2000
   22.4130    9.6770   30.3460 S   0  0  0  0  0  0  0  0  0  0  0  0
   20.9900    9.2440   30.6720 O   0  0  0  0  0  0  0  0  0  0  0  0
   22.2870   10.4550   29.0410 O   0  0  0  0  0  0  0  0  0  0  0  0
   22.9110   10.7430   31.5450 N   0  0  0  0  0  0  0  0  0  0  0  0
   22.2320   12.0150   31.5660 C   0  0  0  0  0  0  0  0  0  0  0  0
   23.2880   13.1100   31.4260 C   0  0  0  0  0  0  0  0  0  0  0  0
   24.2460   12.7240   30.4610 N   0  0  0  0  0  0  0  0  0  0  0  0
   25.1700   11.6500   31.0370 C   0  0  0  0  0  0  0  0  0  0  0  0
   24.2920   10.7750   31.8580 C   0  0  0  0  0  0  0  0  0  0  0  0
   24.4410   13.0870   29.1600 C   0  0  0  0  0  0  0  0  0  0  0  0
   24.7970   11.9800   28.4210 O   0  0  0  0  0  0  0  0  0  0  0  0
   24.4030   14.2150   28.3150 C   0  0  0  0  0  0  0  0  0  0  0  0
   23.7910   15.3430   28.1660 C   0  0  0  0  0  0  0  0  0  0  0  0
   22.7740   15.8000   29.0170 N   0  0  0  0  0  0  0  0  0  0  0  0
   22.1350   17.0550   28.9080 N   0  0  0  0  0  0  0  0  0  0  0  0
   22.5240   17.9250   27.8840 C   0  0  0  0  0  0  0  0  0  0  0  0
   21.9630   19.0470   27.7740 O   0  0  0  0  0  0  0  0  0  0  0  0
   23.5870   17.5000   26.9570 C   0  0  0  0  0  0  0  0  0  0  0  0
   24.2080   16.2700   27.0710 C   0  0  0  0  0  0  0  0  0  0  0  0
   25.1790   15.9570   26.1750 C   0  0  0  0  0  0  0  0  0  0  0  0
   25.5250   16.8690   25.1720 C   0  0  0  0  0  0  0  0  0  0  0  0
   24.9110   18.0910   25.0540 C   0  0  0  0  0  0  0  0  0  0  0  0
   23.9270   18.4040   25.9660 C   0  0  0  0  0  0  0  0  0  0  0  0
   23.4460    8.3330   30.0620 C   0  0  0  0  0  0  0  0  0  0  0  0
   22.9760    7.0450   30.1150 C   0  0  0  0  0  0  0  0  0  0  0  0
   23.8260    5.9790   29.8830 C   0  0  0  0  0  0  0  0  0  0  0  0
   25.1610    6.1600   29.5950 C   0  0  0  0  0  0  0  0  0  0  0  0
   25.6420    7.4580   29.5410 C   0  0  0  0  0  0  0  0  0  0  0  0
   24.7740    8.5230   29.7760 C   0  0  0  0  0  0  0  0  0  0  0  0
   26.1960    4.7760   29.3100 Cl  0  0  0  0  0  0  0  0  0  0  0  0
   21.4280   12.1140   30.8280 H   0  0  0  0  0  0  0  0  0  0  0  0
   21.7840   12.1400   32.5710 H   0  0  0  0  0  0  0  0  0  0  0  0
   23.8190   13.0740   32.4580 H   0  0  0  0  0  0  0  0  0  0  0  0
   22.9090   14.1140   31.3780 H   0  0  0  0  0  0  0  0  0  0  0  0
   25.8630   12.2440   31.6580 H   0  0  0  0  0  0  0  0  0  0  0  0
   25.7050   11.1630   30.2090 H   0  0  0  0  0  0  0  0  0  0  0  0
   24.3840   11.1190   32.9310 H   0  0  0  0  0  0  0  0  0  0  0  0
   24.6560    9.7230   31.8780 H   0  0  0  0  0  0  0  0  0  0  0  0
   25.1870   14.0770   27.4670 H   0  0  0  0  0  0  0  0  0  0  0  0
   22.4070   15.2040   29.7630 H   0  0  0  0  0  0  0  0  0  0  0  0
   21.3770   17.2910   29.6150 H   0  0  0  0  0  0  0  0  0  0  0  0
   25.7040   15.0170   26.2030 H   0  0  0  0  0  0  0  0  0  0  0  0
   26.2980   16.5790   24.4860 H   0  0  0  0  0  0  0  0  0  0  0  0
   25.1690   18.8100   24.2810 H   0  0  0  0  0  0  0  0  0  0  0  0
   23.4020   19.3650   25.9220 H   0  0  0  0  0  0  0  0  0  0  0  0
   21.9450    6.7960   30.3330 H   0  0  0  0  0  0  0  0  0  0  0  0
   23.4690    4.9420   29.9200 H   0  0  0  0  0  0  0  0  0  0  0  0
   26.6940    7.6160   29.3140 H   0  0  0  0  0  0  0  0  0  0  0  0
   25.2400    9.5150   29.7130 H   0  0  0  0  0  0  0  0  0  0  0  0
  1  2  2  0  0  0  0
  1  4  1  0  0  0  0
  3  1  2  0  0  0  0
  4  5  1  0  0  0  0
  4  9  1  0  0  0  0
  5 32  1  0  0  0  0
  6  5  1  0  0  0  0
  6 33  1  0  0  0  0
  7  8  1  0  0  0  0
  7  6  1  0  0  0  0
  8 35  1  0  0  0  0
  8  9  1  0  0  0  0
  9 38  1  0  0  0  0
  9 37  1  0  0  0  0
 10  7  1  0  0  0  0
 11 10  2  0  0  0  0
 12 10  1  0  0  0  0
 13 12  2  0  0  0  0
 13 14  1  0  0  0  0
 14 40  1  0  0  0  0
 15 14  1  0  0  0  0
 15 41  1  0  0  0  0
 16 15  1  0  0  0  0
 17 16  2  0  0  0  0
 18 19  1  0  0  0  0
 18 16  1  0  0  0  0
 19 13  1  0  0  0  0
 20 42  1  0  0  0  0
 20 19  2  0  0  0  0
 21 20  1  0  0  0  0
 22 21  2  0  0  0  0
 22 23  1  0  0  0  0
 23 18  2  0  0  0  0
 24 25  1  0  0  0  0
 24  1  1  0  0  0  0
 25 46  1  0  0  0  0
 26 47  1  0  0  0  0
 26 25  2  0  0  0  0
 27 26  1  0  0  0  0
 28 27  2  0  0  0  0
 28 29  1  0  0  0  0
 29 24  2  0  0  0  0
 30 27  1  0  0  0  0
 31  5  1  0  0  0  0
 34  6  1  0  0  0  0
 36  8  1  0  0  0  0
 39 12  1  0  0  0  0
 43 21  1  0  0  0  0
 44 22  1  0  0  0  0
 45 23  1  0  0  0  0
 48 28  1  0  0  0  0
 49 29  1  0  0  0  0
M  END
>  <Pose>
1

>  <Score>
-7.41

$$$$
