
 OpenBabel03202209553D

 44 47  0  0  0  0  0  0  0  0999 V2000
   22.9890    3.9580   31.4670 Cl  0  0  0  0  0  0  0  0  0  0  0  0
   23.6010    5.4810   30.9030 C   0  0  0  0  0  0  0  0  0  0  0  0
   22.8770    6.6370   31.0520 C   0  0  0  0  0  0  0  0  0  0  0  0
   23.4170    7.8130   30.5830 C   0  0  0  0  0  0  0  0  0  0  0  0
   24.6490    7.8920   29.9720 C   0  0  0  0  0  0  0  0  0  0  0  0
   25.3620    6.7230   29.8310 C   0  0  0  0  0  0  0  0  0  0  0  0
   24.8300    5.5400   30.2970 C   0  0  0  0  0  0  0  0  0  0  0  0
   25.1920    9.1460   29.4880 N   0  0  0  0  0  0  0  0  0  0  0  0
   24.3500   10.2850   29.6000 C   0  0  0  0  0  0  0  0  0  0  0  0
   24.9240   11.5280   30.1070 C   0  0  0  0  0  0  0  0  0  0  0  0
   26.1020   11.3470   30.6530 O   0  0  0  0  0  0  0  0  0  0  0  0
   24.4660   12.8210   30.1140 N   0  0  0  0  0  0  0  0  0  0  0  0
   24.5640   13.7610   29.0440 C   0  0  0  0  0  0  0  0  0  0  0  0
   23.1540   14.2060   28.6640 C   0  0  0  0  0  0  0  0  0  0  0  0
   22.6680   14.8720   29.8110 O   0  0  0  0  0  0  0  0  0  0  0  0
   22.4400   13.9310   30.7920 C   0  0  0  0  0  0  0  0  0  0  0  0
   23.7600   13.3440   31.3040 C   0  0  0  0  0  0  0  0  0  0  0  0
   21.6060    6.6600   31.6530 N   0  0  0  0  0  0  0  0  0  0  0  0
   20.7510    5.6580   31.6340 N   0  0  0  0  0  0  0  0  0  0  0  0
   19.6550    5.9840   32.2930 N   0  0  0  0  0  0  0  0  0  0  0  0
   19.8360    7.2150   32.7280 N   0  0  0  0  0  0  0  0  0  0  0  0
   21.0660    7.6620   32.3340 C   0  0  0  0  0  0  0  0  0  0  0  0
   21.5560    9.0010   32.6550 C   0  0  0  0  0  0  0  0  0  0  0  0
   22.8040    9.5870   32.1830 C   0  0  0  0  0  0  0  0  0  0  0  0
   21.5080   10.0120   31.4720 C   0  0  0  0  0  0  0  0  0  0  0  0
   22.8520    8.7570   30.6910 H   0  0  0  0  0  0  0  0  0  0  0  0
   26.3340    6.7890   29.3480 H   0  0  0  0  0  0  0  0  0  0  0  0
   25.4430    4.6380   30.1570 H   0  0  0  0  0  0  0  0  0  0  0  0
   26.1340    9.1990   29.0880 H   0  0  0  0  0  0  0  0  0  0  0  0
   23.5250   10.0020   30.3270 H   0  0  0  0  0  0  0  0  0  0  0  0
   23.7720   10.4680   28.6480 H   0  0  0  0  0  0  0  0  0  0  0  0
   24.9870   14.7120   29.5510 H   0  0  0  0  0  0  0  0  0  0  0  0
   25.2160   13.5350   28.2180 H   0  0  0  0  0  0  0  0  0  0  0  0
   23.1950   14.8550   27.7880 H   0  0  0  0  0  0  0  0  0  0  0  0
   22.4680   13.3800   28.4850 H   0  0  0  0  0  0  0  0  0  0  0  0
   21.7940   13.1260   30.3870 H   0  0  0  0  0  0  0  0  0  0  0  0
   21.9060   14.3810   31.6380 H   0  0  0  0  0  0  0  0  0  0  0  0
   23.5700   12.5740   32.0470 H   0  0  0  0  0  0  0  0  0  0  0  0
   24.3670   14.2040   31.6500 H   0  0  0  0  0  0  0  0  0  0  0  0
   21.1070    9.4980   33.5760 H   0  0  0  0  0  0  0  0  0  0  0  0
   23.3010   10.3690   32.8340 H   0  0  0  0  0  0  0  0  0  0  0  0
   23.5160    9.1570   31.4840 H   0  0  0  0  0  0  0  0  0  0  0  0
   21.2140   11.0480   31.6850 H   0  0  0  0  0  0  0  0  0  0  0  0
   21.2760    9.6240   30.4830 H   0  0  0  0  0  0  0  0  0  0  0  0
  2  3  1  0  0  0  0
  2  1  1  0  0  0  0
  3 18  1  0  0  0  0
  4 26  1  0  0  0  0
  4  3  2  0  0  0  0
  5  4  1  0  0  0  0
  6  5  2  0  0  0  0
  6  7  1  0  0  0  0
  7  2  2  0  0  0  0
  8  9  1  0  0  0  0
  8  5  1  0  0  0  0
  9 10  1  0  0  0  0
  9 30  1  0  0  0  0
 10 12  1  0  0  0  0
 10 11  2  0  0  0  0
 12 17  1  0  0  0  0
 13 32  1  0  0  0  0
 13 12  1  0  0  0  0
 14 13  1  0  0  0  0
 14 15  1  0  0  0  0
 15 16  1  0  0  0  0
 16 17  1  0  0  0  0
 16 37  1  0  0  0  0
 17 39  1  0  0  0  0
 17 38  1  0  0  0  0
 18 22  1  0  0  0  0
 19 18  1  0  0  0  0
 19 20  2  0  0  0  0
 20 21  1  0  0  0  0
 22 23  1  0  0  0  0
 22 21  2  0  0  0  0
 23 40  1  0  0  0  0
 24 23  1  0  0  0  0
 24 41  1  0  0  0  0
 25 43  1  0  0  0  0
 25 24  1  0  0  0  0
 25 23  1  0  0  0  0
 27  6  1  0  0  0  0
 28  7  1  0  0  0  0
 29  8  1  0  0  0  0
 31  9  1  0  0  0  0
 33 13  1  0  0  0  0
 34 14  1  0  0  0  0
 35 14  1  0  0  0  0
 36 16  1  0  0  0  0
 42 24  1  0  0  0  0
 44 25  1  0  0  0  0
M  END
>  <Pose>
1

>  <Score>
-5.23

$$$$
