
 OpenBabel03202209553D

 49 52  0  0  1  0  0  0  0  0999 V2000
   21.9070   19.0050   32.4930 B   0  0  0  0  0  0  0  0  0  0  0  0
   22.0300   17.1370   32.0990 C   0  0  0  0  0  0  0  0  0  0  0  0
   21.5780   16.6190   30.9080 C   0  0  0  0  0  0  0  0  0  0  0  0
   21.6630   15.2630   30.6110 C   0  0  0  0  0  0  0  0  0  0  0  0
   22.2130   14.3850   31.5210 C   0  0  0  0  0  0  0  0  0  0  0  0
   22.6680   14.9100   32.7190 C   0  0  0  0  0  0  0  0  0  0  0  0
   22.5850   16.2550   33.0150 C   0  0  0  0  0  0  0  0  0  0  0  0
   22.3330   12.9630   31.2780 C   0  0  0  0  0  0  0  0  0  0  0  0
   23.3170   12.4470   30.4400 C   0  0  0  0  0  0  0  0  0  0  0  0
   23.4430   11.1620   30.2060 O   0  0  0  0  0  0  0  0  0  0  0  0
   22.6550   10.2600   30.7430 C   0  0  0  0  0  0  0  0  0  0  0  0
   21.6510   10.6760   31.5860 C   0  0  0  0  0  0  0  0  0  0  0  0
   20.8500    9.6980   32.1250 C   0  0  0  0  0  0  0  0  0  0  0  0
   21.0090    8.3620   31.8610 C   0  0  0  0  0  0  0  0  0  0  0  0
   22.0300    7.9150   30.9990 C   0  0  0  0  0  0  0  0  0  0  0  0
   22.8280    8.8990   30.4640 C   0  0  0  0  0  0  0  0  0  0  0  0
   22.1570    6.5620   30.7590 O   0  0  0  0  0  0  0  0  0  0  0  0
   23.3210    5.8580   30.6640 C   0  0  2  0  0  0  0  0  0  0  0  0
   23.8440    5.8150   29.3440 O   0  0  0  0  0  0  0  0  0  0  0  0
   25.1910    5.5660   29.4900 C   0  0  1  0  0  0  0  0  0  0  0  0
   25.5150    4.2360   30.0960 C   0  0  2  0  0  0  0  0  0  0  0  0
   24.6250    3.9050   31.2700 C   0  0  1  0  0  0  0  0  0  0  0  0
   23.2080    4.3970   31.0610 C   0  0  1  0  0  0  0  0  0  0  0  0
   22.5180    4.2410   32.2570 O   0  0  0  0  0  0  0  0  0  0  0  0
   24.6800    2.5410   31.5250 O   0  0  0  0  0  0  0  0  0  0  0  0
   26.8240    4.3170   30.5970 O   0  0  0  0  0  0  0  0  0  0  0  0
   25.9660    5.7470   28.2100 C   0  0  0  0  0  0  0  0  0  0  0  0
   25.3880    5.0560   27.1470 O   0  0  0  0  0  0  0  0  0  0  0  0
   21.4910   12.0180   31.8530 C   0  0  0  0  0  0  0  0  0  0  0  0
   20.5720   12.4000   32.6260 O   0  0  0  0  0  0  0  0  0  0  0  0
   21.1400   17.2950   30.1770 H   0  0  0  0  0  0  0  0  0  0  0  0
   21.3110   14.8550   29.6830 H   0  0  0  0  0  0  0  0  0  0  0  0
   23.1040   14.2160   33.4410 H   0  0  0  0  0  0  0  0  0  0  0  0
   22.9400   16.6660   33.9540 H   0  0  0  0  0  0  0  0  0  0  0  0
   23.9780   13.1920   29.9890 H   0  0  0  0  0  0  0  0  0  0  0  0
   20.0590   10.0440   32.7930 H   0  0  0  0  0  0  0  0  0  0  0  0
   20.3730    7.5980   32.2900 H   0  0  0  0  0  0  0  0  0  0  0  0
   23.6250    8.6230   29.7990 H   0  0  0  0  0  0  0  0  0  0  0  0
   24.1090    6.2830   31.3070 H   0  0  0  0  0  0  0  0  0  0  0  0
   25.5830    6.3470   30.2000 H   0  0  0  0  0  0  0  0  0  0  0  0
   25.5120    3.4060   29.3450 H   0  0  0  0  0  0  0  0  0  0  0  0
   25.0160    4.4400   32.1600 H   0  0  0  0  0  0  0  0  0  0  0  0
   22.6940    3.8750   30.2260 H   0  0  0  0  0  0  0  0  0  0  0  0
   21.7570    3.6240   32.1460 H   0  0  0  0  0  0  0  0  0  0  0  0
   24.2200    2.0030   30.8100 H   0  0  0  0  0  0  0  0  0  0  0  0
   26.9370    5.1300   31.1500 H   0  0  0  0  0  0  0  0  0  0  0  0
   27.0340    5.4800   28.3390 H   0  0  0  0  0  0  0  0  0  0  0  0
   25.9690    6.8270   27.9020 H   0  0  0  0  0  0  0  0  0  0  0  0
   25.3490    5.7200   26.3890 H   0  0  0  0  0  0  0  0  0  0  0  0
  2  1  1  0  0  0  0
  2  7  1  0  0  0  0
  3  2  2  0  0  0  0
  4  3  1  0  0  0  0
  4  5  2  0  0  0  0
  5  6  1  0  0  0  0
  6  7  2  0  0  0  0
  6 33  1  0  0  0  0
  7 34  1  0  0  0  0
  8  5  1  0  0  0  0
  8 29  1  0  0  0  0
  9  8  2  0  0  0  0
 10  9  1  0  0  0  0
 10 11  1  0  0  0  0
 11 12  1  0  0  0  0
 12 29  1  0  0  0  0
 12 13  2  0  0  0  0
 13 36  1  0  0  0  0
 14 13  1  0  0  0  0
 14 37  1  0  0  0  0
 15 14  2  0  0  0  0
 16 11  2  0  0  0  0
 16 15  1  0  0  0  0
 17 15  1  0  0  0  0
 18 17  1  0  0  0  0
 18 23  1  0  0  0  0
 18 39  1  1  0  0  0
 19 20  1  0  0  0  0
 19 18  1  0  0  0  0
 20 21  1  0  0  0  0
 20 40  1  1  0  0  0
 21 41  1  6  0  0  0
 21 26  1  0  0  0  0
 21 22  1  0  0  0  0
 22 25  1  0  0  0  0
 22 42  1  1  0  0  0
 23 43  1  6  0  0  0
 23 22  1  0  0  0  0
 23 24  1  0  0  0  0
 26 46  1  0  0  0  0
 27 47  1  0  0  0  0
 27 20  1  0  0  0  0
 28 27  1  0  0  0  0
 29 30  2  0  0  0  0
 31  3  1  0  0  0  0
 32  4  1  0  0  0  0
 35  9  1  0  0  0  0
 38 16  1  0  0  0  0
 44 24  1  0  0  0  0
 45 25  1  0  0  0  0
 48 27  1  0  0  0  0
 49 28  1  0  0  0  0
M  END
>  <Pose>
1

>  <Score>
-7.14

$$$$
