
 OpenBabel03202209553D

 45 48  0  0  0  0  0  0  0  0999 V2000
   23.2440   12.9850   31.1630 S   0  0  0  0  0  0  0  0  0  0  0  0
   21.9270   12.7140   31.8560 O   0  0  0  0  0  0  0  0  0  0  0  0
   24.2480   13.3080   32.2050 O   0  0  0  0  0  0  0  0  0  0  0  0
   23.6830   11.5840   30.2610 N   0  0  0  0  0  0  0  0  0  0  0  0
   22.5760   11.1640   29.4820 C   0  0  0  0  0  0  0  0  0  0  0  0
   22.1750    9.7180   29.5680 C   0  0  0  0  0  0  0  0  0  0  0  0
   22.4520    9.2320   30.8790 N   0  0  0  0  0  0  0  0  0  0  0  0
   23.9080    9.2550   31.0180 C   0  0  0  0  0  0  0  0  0  0  0  0
   24.3470   10.6690   31.0920 C   0  0  0  0  0  0  0  0  0  0  0  0
   21.9260    7.9430   31.1730 C   0  0  0  0  0  0  0  0  0  0  0  0
   22.1760    6.9730   30.0700 C   0  0  0  0  0  0  0  0  0  0  0  0
   22.9460    5.8270   30.5060 N   0  0  0  0  0  0  0  0  0  0  0  0
   22.7390    5.0800   31.5900 N   0  0  0  0  0  0  0  0  0  0  0  0
   23.6470    4.0960   31.6590 C   0  0  0  0  0  0  0  0  0  0  0  0
   24.4500    4.2230   30.5950 N   0  0  0  0  0  0  0  0  0  0  0  0
   25.4780    3.3670   30.3850 C   0  0  0  0  0  0  0  0  0  0  0  0
   25.7530    2.3270   31.2440 C   0  0  0  0  0  0  0  0  0  0  0  0
   24.9410    2.1730   32.3510 C   0  0  0  0  0  0  0  0  0  0  0  0
   23.9030    3.0600   32.5380 C   0  0  0  0  0  0  0  0  0  0  0  0
   24.0040    5.3020   29.8870 C   0  0  0  0  0  0  0  0  0  0  0  0
   24.5700    5.6680   28.8290 O   0  0  0  0  0  0  0  0  0  0  0  0
   23.1030   14.3830   30.0870 C   0  0  0  0  0  0  0  0  0  0  0  0
   23.8800   14.6850   28.6000 S   0  0  0  0  0  0  0  0  0  0  0  0
   23.2050   16.2060   28.2400 C   0  0  0  0  0  0  0  0  0  0  0  0
   22.3790   16.4390   29.3060 C   0  0  0  0  0  0  0  0  0  0  0  0
   22.3260   15.5000   30.2580 C   0  0  0  0  0  0  0  0  0  0  0  0
   23.5050   17.3460   26.7150 B   0  0  0  0  0  0  0  0  0  0  0  0
   21.6720   11.7560   29.8290 H   0  0  0  0  0  0  0  0  0  0  0  0
   22.7850   11.4500   28.4050 H   0  0  0  0  0  0  0  0  0  0  0  0
   21.1080    9.6710   29.2650 H   0  0  0  0  0  0  0  0  0  0  0  0
   22.8190    9.1920   28.8010 H   0  0  0  0  0  0  0  0  0  0  0  0
   24.2430    8.7160   31.9140 H   0  0  0  0  0  0  0  0  0  0  0  0
   24.3000    8.8190   30.0700 H   0  0  0  0  0  0  0  0  0  0  0  0
   24.2800   10.9790   32.1750 H   0  0  0  0  0  0  0  0  0  0  0  0
   25.4400   10.6860   30.8180 H   0  0  0  0  0  0  0  0  0  0  0  0
   22.3780    7.5040   32.1150 H   0  0  0  0  0  0  0  0  0  0  0  0
   20.8140    8.0410   31.3380 H   0  0  0  0  0  0  0  0  0  0  0  0
   21.1860    6.5690   29.7150 H   0  0  0  0  0  0  0  0  0  0  0  0
   22.7190    7.4410   29.2050 H   0  0  0  0  0  0  0  0  0  0  0  0
   26.1140    3.4910   29.5130 H   0  0  0  0  0  0  0  0  0  0  0  0
   26.5680    1.6350   31.0910 H   0  0  0  0  0  0  0  0  0  0  0  0
   25.1470    1.3540   33.0410 H   0  0  0  0  0  0  0  0  0  0  0  0
   23.2780    2.9300   33.4040 H   0  0  0  0  0  0  0  0  0  0  0  0
   21.7910   17.3830   29.3450 H   0  0  0  0  0  0  0  0  0  0  0  0
   21.6830   15.5980   31.1670 H   0  0  0  0  0  0  0  0  0  0  0  0
  1  2  2  0  0  0  0
  1  3  2  0  0  0  0
  4  9  1  0  0  0  0
  4  1  1  0  0  0  0
  5  6  1  0  0  0  0
  5 28  1  0  0  0  0
  5  4  1  0  0  0  0
  6  7  1  0  0  0  0
  7  8  1  0  0  0  0
  7 10  1  0  0  0  0
  8  9  1  0  0  0  0
  8 32  1  0  0  0  0
  9 34  1  0  0  0  0
 10 37  1  0  0  0  0
 10 36  1  0  0  0  0
 11 12  1  0  0  0  0
 11 10  1  0  0  0  0
 12 13  1  0  0  0  0
 13 14  2  0  0  0  0
 14 19  1  0  0  0  0
 15 14  1  0  0  0  0
 16 15  1  0  0  0  0
 16 17  2  0  0  0  0
 17 18  1  0  0  0  0
 18 19  2  0  0  0  0
 18 42  1  0  0  0  0
 19 43  1  0  0  0  0
 20 12  1  0  0  0  0
 20 15  1  0  0  0  0
 21 20  2  0  0  0  0
 22 26  2  0  0  0  0
 22  1  1  0  0  0  0
 23 22  1  0  0  0  0
 24 23  1  0  0  0  0
 24 25  2  0  0  0  0
 25 44  1  0  0  0  0
 25 26  1  0  0  0  0
 26 45  1  0  0  0  0
 27 24  1  0  0  0  0
 29  5  1  0  0  0  0
 30  6  1  0  0  0  0
 31  6  1  0  0  0  0
 33  8  1  0  0  0  0
 35  9  1  0  0  0  0
 38 11  1  0  0  0  0
 39 11  1  0  0  0  0
 40 16  1  0  0  0  0
 41 17  1  0  0  0  0
M  END
>  <Pose>
1

>  <Score>
-6.60

$$$$
