
 OpenBabel03202209553D

 52 55  0  0  0  0  0  0  0  0999 V2000
   25.2520    2.6290   31.5970 Cl  0  0  0  0  0  0  0  0  0  0  0  0
   25.1210    4.2900   30.9680 C   0  0  0  0  0  0  0  0  0  0  0  0
   26.1480    4.9100   30.2660 C   0  0  0  0  0  0  0  0  0  0  0  0
   26.0600    6.2250   29.8470 C   0  0  0  0  0  0  0  0  0  0  0  0
   24.9050    6.9790   30.1320 C   0  0  0  0  0  0  0  0  0  0  0  0
   23.9230    6.3480   30.8070 C   0  0  0  0  0  0  0  0  0  0  0  0
   23.9880    5.0360   31.2390 C   0  0  0  0  0  0  0  0  0  0  0  0
   24.9120    8.3910   29.7010 C   0  0  0  0  0  0  0  0  0  0  0  0
   25.9970    8.9470   29.0630 C   0  0  0  0  0  0  0  0  0  0  0  0
   25.9840   10.3210   28.7840 C   0  0  0  0  0  0  0  0  0  0  0  0
   24.9120   11.1130   29.1310 C   0  0  0  0  0  0  0  0  0  0  0  0
   24.8090   12.4850   28.8990 C   0  0  0  0  0  0  0  0  0  0  0  0
   25.9480   13.0340   28.2580 C   0  0  0  0  0  0  0  0  0  0  0  0
   27.0520   12.2680   27.8960 C   0  0  0  0  0  0  0  0  0  0  0  0
   27.0590   10.9090   28.1690 C   0  0  0  0  0  0  0  0  0  0  0  0
   26.0560   14.3730   27.9400 O   0  0  0  0  0  0  0  0  0  0  0  0
   23.8170   13.3890   29.3670 C   0  0  0  0  0  0  0  0  0  0  0  0
   22.4300   13.3610   28.9800 N   0  0  0  0  0  4  0  0  0  0  0  0
   21.5860   12.7020   30.0150 C   0  0  0  0  0  0  0  0  0  0  0  0
   22.0390   13.1100   31.3720 C   0  0  0  0  0  0  0  0  0  0  0  0
   21.9660   14.5270   31.6470 N   0  0  0  0  0  0  0  0  0  0  0  0
   22.1090   15.3300   30.4810 C   0  0  0  0  0  0  0  0  0  0  0  0
   21.9110   14.7550   29.1580 C   0  0  0  0  0  0  0  0  0  0  0  0
   22.9720   14.9020   32.6520 C   0  0  0  0  0  0  0  0  0  0  0  0
   22.6580   16.2280   33.3050 C   0  0  0  0  0  0  0  0  0  0  0  0
   23.7810   16.8400   33.8410 O   0  0  0  0  0  0  0  0  0  0  0  0
   23.9300   10.5580   29.7180 O   0  0  0  0  0  0  0  0  0  0  0  0
   23.8510    9.2610   30.0280 C   0  0  0  0  0  0  0  0  0  0  0  0
   22.8600    8.7860   30.5960 O   0  0  0  0  0  0  0  0  0  0  0  0
   27.0270    4.3210   30.0730 H   0  0  0  0  0  0  0  0  0  0  0  0
   26.8750    6.6930   29.3060 H   0  0  0  0  0  0  0  0  0  0  0  0
   22.9980    6.8560   31.0580 H   0  0  0  0  0  0  0  0  0  0  0  0
   23.1720    4.5730   31.7740 H   0  0  0  0  0  0  0  0  0  0  0  0
   26.8530    8.3680   28.7660 H   0  0  0  0  0  0  0  0  0  0  0  0
   27.8890   12.6650   27.3730 H   0  0  0  0  0  0  0  0  0  0  0  0
   27.9530   10.3030   27.9260 H   0  0  0  0  0  0  0  0  0  0  0  0
   24.1060   14.3810   28.7090 H   0  0  0  0  0  0  0  0  0  0  0  0
   24.0240   13.8180   30.3190 H   0  0  0  0  0  0  0  0  0  0  0  0
   22.1680   13.1060   28.0550 H   0  0  0  0  0  0  0  0  0  0  0  0
   21.4440   11.6470   29.8730 H   0  0  0  0  0  0  0  0  0  0  0  0
   20.5410   13.1590   29.8610 H   0  0  0  0  0  0  0  0  0  0  0  0
   23.0350   12.7170   31.6050 H   0  0  0  0  0  0  0  0  0  0  0  0
   21.3220   12.6170   32.0890 H   0  0  0  0  0  0  0  0  0  0  0  0
   23.0820   15.8700   30.5510 H   0  0  0  0  0  0  0  0  0  0  0  0
   21.3390   16.1830   30.5700 H   0  0  0  0  0  0  0  0  0  0  0  0
   22.3910   15.3610   28.3550 H   0  0  0  0  0  0  0  0  0  0  0  0
   20.7950   14.6830   28.9700 H   0  0  0  0  0  0  0  0  0  0  0  0
   23.9300   14.9550   32.1300 H   0  0  0  0  0  0  0  0  0  0  0  0
   23.0620   14.1620   33.4730 H   0  0  0  0  0  0  0  0  0  0  0  0
   21.7970   16.2260   33.9620 H   0  0  0  0  0  0  0  0  0  0  0  0
   22.3200   16.8780   32.4230 H   0  0  0  0  0  0  0  0  0  0  0  0
   24.4110   16.1170   34.1580 H   0  0  0  0  0  0  0  0  0  0  0  0
  2  7  1  0  0  0  0
  2  1  1  0  0  0  0
  3  2  2  0  0  0  0
  4  5  2  0  0  0  0
  4  3  1  0  0  0  0
  5  6  1  0  0  0  0
  6 32  1  0  0  0  0
  6  7  2  0  0  0  0
  7 33  1  0  0  0  0
  8 28  1  0  0  0  0
  8  5  1  0  0  0  0
  9  8  2  0  0  0  0
 10  9  1  0  0  0  0
 10 11  1  0  0  0  0
 11 27  1  0  0  0  0
 12 11  2  0  0  0  0
 12 17  1  0  0  0  0
 13 12  1  0  0  0  0
 14 15  1  0  0  0  0
 14 13  2  0  0  0  0
 15 10  2  0  0  0  0
 16 13  1  0  0  0  0
 17 38  1  0  0  0  0
 18 23  1  0  0  0  0
 18 17  1  0  0  0  0
 18 19  1  0  0  0  0
 19 20  1  0  0  0  0
 20 42  1  0  0  0  0
 20 21  1  0  0  0  0
 20 43  1  0  0  0  0
 21 24  1  0  0  0  0
 22 44  1  0  0  0  0
 22 45  1  0  0  0  0
 22 21  1  0  0  0  0
 23 22  1  0  0  0  0
 24 25  1  0  0  0  0
 24 49  1  0  0  0  0
 25 26  1  0  0  0  0
 25 50  1  0  0  0  0
 26 52  1  0  0  0  0
 27 28  1  0  0  0  0
 28 29  2  0  0  0  0
 30  3  1  0  0  0  0
 31  4  1  0  0  0  0
 34  9  1  0  0  0  0
 35 14  1  0  0  0  0
 36 15  1  0  0  0  0
 37 17  1  0  0  0  0
 39 18  1  0  0  0  0
 40 19  1  0  0  0  0
 41 19  1  0  0  0  0
 46 23  1  0  0  0  0
 47 23  1  0  0  0  0
 48 24  1  0  0  0  0
 51 25  1  0  0  0  0
M  END
>  <Pose>
1

>  <Score>
-6.30

$$$$
