
 OpenBabel03202209553D

 48 51  0  0  0  0  0  0  0  0999 V2000
   27.2390    2.1020   31.5530 B   0  0  0  0  0  0  0  0  0  0  0  0
   26.1860    3.6060   31.0440 C   0  0  0  0  0  0  0  0  0  0  0  0
   24.8510    3.7300   31.4180 C   0  0  0  0  0  0  0  0  0  0  0  0
   24.1320    4.8490   31.0050 C   0  0  0  0  0  0  0  0  0  0  0  0
   24.6630    5.8450   30.2450 C   0  0  0  0  0  0  0  0  0  0  0  0
   26.0160    5.6770   29.8910 C   0  0  0  0  0  0  0  0  0  0  0  0
   26.7650    4.5890   30.2750 C   0  0  0  0  0  0  0  0  0  0  0  0
   23.9670    7.0130   29.7450 C   0  0  0  0  0  0  0  0  0  0  0  0
   22.9830    7.6320   30.6000 N   0  0  0  0  0  0  0  0  0  0  0  0
   21.9810    7.0170   31.2450 C   0  0  0  0  0  0  0  0  0  0  0  0
   21.2720    7.9530   31.9640 C   0  0  0  0  0  0  0  0  0  0  0  0
   21.8670    9.1130   31.7330 N   0  0  0  0  0  0  0  0  0  0  0  0
   22.9100    8.9510   30.9070 C   0  0  0  0  0  0  0  0  0  0  0  0
   23.7960    9.9710   30.4300 N   0  0  0  0  0  0  0  0  0  0  0  0
   24.8410   10.4270   31.3200 C   0  0  0  0  0  0  0  0  0  0  0  0
   24.5670   11.8870   31.6490 C   0  0  0  0  0  0  0  0  0  0  0  0
   23.7730   12.5390   30.6610 N   0  0  0  0  0  0  0  0  0  0  0  0
   23.9270   12.0710   29.3240 C   0  0  0  0  0  0  0  0  0  0  0  0
   23.7190   10.5910   29.1330 C   0  0  0  0  0  0  0  0  0  0  0  0
   22.4880   12.9870   31.0440 C   0  0  0  0  0  0  0  0  0  0  0  0
   20.1860    7.6540   32.7210 N   0  0  0  0  0  0  0  0  0  0  0  0
   19.8020    6.3680   32.7490 C   0  0  0  0  0  0  0  0  0  0  0  0
   18.7960    6.1090   33.4560 O   0  0  0  0  0  0  0  0  0  0  0  0
   20.4500    5.4090   32.0660 N   0  0  0  0  0  0  0  0  0  0  0  0
   21.5290    5.6940   31.3140 C   0  0  0  0  0  0  0  0  0  0  0  0
   22.1470    4.8350   30.6710 O   0  0  0  0  0  0  0  0  0  0  0  0
   19.5060    8.7070   33.4460 C   0  0  0  0  0  0  0  0  0  0  0  0
   24.3850    2.9680   32.0270 H   0  0  0  0  0  0  0  0  0  0  0  0
   23.1230    4.8790   31.3200 H   0  0  0  0  0  0  0  0  0  0  0  0
   26.5270    6.4160   29.2830 H   0  0  0  0  0  0  0  0  0  0  0  0
   27.8130    4.5180   29.9650 H   0  0  0  0  0  0  0  0  0  0  0  0
   24.7330    7.8200   29.5320 H   0  0  0  0  0  0  0  0  0  0  0  0
   23.4490    6.7360   28.7950 H   0  0  0  0  0  0  0  0  0  0  0  0
   25.8110   10.3750   30.7420 H   0  0  0  0  0  0  0  0  0  0  0  0
   24.9820    9.8060   32.2150 H   0  0  0  0  0  0  0  0  0  0  0  0
   24.0180   11.8950   32.6110 H   0  0  0  0  0  0  0  0  0  0  0  0
   25.5180   12.4290   31.8020 H   0  0  0  0  0  0  0  0  0  0  0  0
   24.9580   12.3520   28.9630 H   0  0  0  0  0  0  0  0  0  0  0  0
   23.2190   12.6150   28.6670 H   0  0  0  0  0  0  0  0  0  0  0  0
   24.5680   10.2040   28.5000 H   0  0  0  0  0  0  0  0  0  0  0  0
   22.7540   10.4200   28.6180 H   0  0  0  0  0  0  0  0  0  0  0  0
   22.0870   12.5530   31.9800 H   0  0  0  0  0  0  0  0  0  0  0  0
   21.7690   12.7090   30.2350 H   0  0  0  0  0  0  0  0  0  0  0  0
   22.4150   14.1040   31.1300 H   0  0  0  0  0  0  0  0  0  0  0  0
   20.1430    4.4130   32.0930 H   0  0  0  0  0  0  0  0  0  0  0  0
   18.4210    8.4810   33.5750 H   0  0  0  0  0  0  0  0  0  0  0  0
   19.7240    9.6750   33.0020 H   0  0  0  0  0  0  0  0  0  0  0  0
   19.9170    8.7040   34.4810 H   0  0  0  0  0  0  0  0  0  0  0  0
  2  3  1  0  0  0  0
  2  1  1  0  0  0  0
  3 28  1  0  0  0  0
  4 29  1  0  0  0  0
  4  3  2  0  0  0  0
  5  4  1  0  0  0  0
  6  5  2  0  0  0  0
  6  7  1  0  0  0  0
  7  2  2  0  0  0  0
  8  5  1  0  0  0  0
  8  9  1  0  0  0  0
  9 13  1  0  0  0  0
  9 10  1  0  0  0  0
 10 25  1  0  0  0  0
 10 11  2  0  0  0  0
 11 21  1  0  0  0  0
 12 11  1  0  0  0  0
 13 12  2  0  0  0  0
 14 13  1  0  0  0  0
 14 15  1  0  0  0  0
 15 16  1  0  0  0  0
 15 35  1  0  0  0  0
 16 37  1  0  0  0  0
 16 36  1  0  0  0  0
 17 20  1  0  0  0  0
 17 16  1  0  0  0  0
 18 17  1  0  0  0  0
 19 18  1  0  0  0  0
 19 14  1  0  0  0  0
 20 44  1  0  0  0  0
 20 42  1  0  0  0  0
 21 22  1  0  0  0  0
 21 27  1  0  0  0  0
 22 23  2  0  0  0  0
 24 45  1  0  0  0  0
 24 22  1  0  0  0  0
 25 24  1  0  0  0  0
 26 25  2  0  0  0  0
 27 46  1  0  0  0  0
 27 48  1  0  0  0  0
 30  6  1  0  0  0  0
 31  7  1  0  0  0  0
 32  8  1  0  0  0  0
 33  8  1  0  0  0  0
 34 15  1  0  0  0  0
 38 18  1  0  0  0  0
 39 18  1  0  0  0  0
 40 19  1  0  0  0  0
 41 19  1  0  0  0  0
 43 20  1  0  0  0  0
 47 27  1  0  0  0  0
M  END
>  <Pose>
1

>  <Score>
-6.78

$$$$
