
 OpenBabel03202209553D

 43 46  0  0  0  0  0  0  0  0999 V2000
   23.4590   15.9990   34.0160 B   0  0  0  0  0  0  0  0  0  0  0  0
   22.5220   15.3710   32.4750 C   0  0  0  0  0  0  0  0  0  0  0  0
   21.2820   15.8410   32.1810 C   0  0  0  0  0  0  0  0  0  0  0  0
   20.6160   15.4120   31.1090 N   0  0  0  0  0  0  0  0  0  0  0  0
   21.1750   14.4990   30.3020 C   0  0  0  0  0  0  0  0  0  0  0  0
   22.4410   13.9820   30.5550 C   0  0  0  0  0  0  0  0  0  0  0  0
   23.1350   14.4210   31.6590 C   0  0  0  0  0  0  0  0  0  0  0  0
   22.9680   13.0070   29.6300 C   0  0  0  0  0  0  0  0  0  0  0  0
   23.8140   13.3290   28.7790 O   0  0  0  0  0  0  0  0  0  0  0  0
   22.5130   11.6020   29.6730 N   0  0  0  0  0  0  0  0  0  0  0  0
   22.7510   10.9280   30.8730 C   0  0  0  0  0  0  0  0  0  0  0  0
   21.8510    9.9910   31.5100 C   0  0  0  0  0  0  0  0  0  0  0  0
   20.8520   10.6720   32.2920 C   0  0  0  0  0  0  0  0  0  0  0  0
   19.9300    9.9620   32.9690 C   0  0  0  0  0  0  0  0  0  0  0  0
   19.9210    8.5550   32.9290 C   0  0  0  0  0  0  0  0  0  0  0  0
   20.8660    7.8890   32.1860 C   0  0  0  0  0  0  0  0  0  0  0  0
   21.8300    8.6200   31.4740 C   0  0  0  0  0  0  0  0  0  0  0  0
   22.7990    7.9200   30.5900 C   0  0  0  0  0  0  0  0  0  0  0  0
   22.3810    6.4990   30.2290 C   0  0  0  0  0  0  0  0  0  0  0  0
   21.9290    5.7640   31.3870 N   0  0  0  0  0  0  0  0  0  0  0  0
   20.9110    6.4310   32.1460 C   0  0  0  0  0  0  0  0  0  0  0  0
   20.0970    5.7000   32.7480 O   0  0  0  0  0  0  0  0  0  0  0  0
   22.4590    4.4670   31.7490 C   0  0  0  0  0  0  0  0  0  0  0  0
   18.9680    7.9190   33.6330 O   0  0  0  0  0  0  0  0  0  0  0  0
   19.1010   10.8820   33.6290 O   0  0  0  0  0  0  0  0  0  0  0  0
   19.6690   12.1730   33.5620 C   0  0  0  0  0  0  0  0  0  0  0  0
   20.6140   12.0310   32.5200 O   0  0  0  0  0  0  0  0  0  0  0  0
   20.7660   16.5920   32.8030 H   0  0  0  0  0  0  0  0  0  0  0  0
   20.6630   14.1250   29.4190 H   0  0  0  0  0  0  0  0  0  0  0  0
   24.1180   14.0440   31.8810 H   0  0  0  0  0  0  0  0  0  0  0  0
   22.1080   11.3130   28.7710 H   0  0  0  0  0  0  0  0  0  0  0  0
   23.7890   10.3980   30.7440 H   0  0  0  0  0  0  0  0  0  0  0  0
   23.1030   11.7180   31.6620 H   0  0  0  0  0  0  0  0  0  0  0  0
   23.8050    7.8380   31.0130 H   0  0  0  0  0  0  0  0  0  0  0  0
   22.8480    8.4150   29.5910 H   0  0  0  0  0  0  0  0  0  0  0  0
   23.2900    6.0330   29.7750 H   0  0  0  0  0  0  0  0  0  0  0  0
   21.5650    6.5940   29.4790 H   0  0  0  0  0  0  0  0  0  0  0  0
   23.4610    4.6540   32.2100 H   0  0  0  0  0  0  0  0  0  0  0  0
   22.6170    3.8540   30.8440 H   0  0  0  0  0  0  0  0  0  0  0  0
   21.8200    4.0030   32.5100 H   0  0  0  0  0  0  0  0  0  0  0  0
   18.9600    7.0610   34.0680 H   0  0  0  0  0  0  0  0  0  0  0  0
   18.9100   12.9500   33.3330 H   0  0  0  0  0  0  0  0  0  0  0  0
   20.1360   12.3770   34.5390 H   0  0  0  0  0  0  0  0  0  0  0  0
  2  1  1  0  0  0  0
  3  2  1  0  0  0  0
  3 28  1  0  0  0  0
  4  3  2  0  0  0  0
  5  6  2  0  0  0  0
  5  4  1  0  0  0  0
  6  7  1  0  0  0  0
  7 30  1  0  0  0  0
  7  2  2  0  0  0  0
  8 10  1  0  0  0  0
  8  6  1  0  0  0  0
  9  8  2  0  0  0  0
 10 11  1  0  0  0  0
 11 12  1  0  0  0  0
 11 33  1  0  0  0  0
 12 13  1  0  0  0  0
 13 27  1  0  0  0  0
 13 14  2  0  0  0  0
 14 25  1  0  0  0  0
 15 14  1  0  0  0  0
 15 24  1  0  0  0  0
 16 15  2  0  0  0  0
 17 12  2  0  0  0  0
 17 16  1  0  0  0  0
 18 34  1  0  0  0  0
 18 17  1  0  0  0  0
 19 18  1  0  0  0  0
 19 20  1  0  0  0  0
 20 23  1  0  0  0  0
 20 21  1  0  0  0  0
 21 16  1  0  0  0  0
 21 22  2  0  0  0  0
 23 38  1  0  0  0  0
 23 40  1  0  0  0  0
 24 41  1  0  0  0  0
 26 25  1  0  0  0  0
 26 43  1  0  0  0  0
 27 26  1  0  0  0  0
 29  5  1  0  0  0  0
 31 10  1  0  0  0  0
 32 11  1  0  0  0  0
 35 18  1  0  0  0  0
 36 19  1  0  0  0  0
 37 19  1  0  0  0  0
 39 23  1  0  0  0  0
 42 26  1  0  0  0  0
M  END
>  <Pose>
1

>  <Score>
-8.29

$$$$
