
 OpenBabel03202209553D

 52 55  0  0  0  0  0  0  0  0999 V2000
   23.5550   15.9010   34.2420 B   0  0  0  0  0  0  0  0  0  0  0  0
   22.6790   15.4410   32.6190 C   0  0  0  0  0  0  0  0  0  0  0  0
   22.1190   16.4610   31.8650 C   0  0  0  0  0  0  0  0  0  0  0  0
   21.4830   16.1010   30.6930 C   0  0  0  0  0  0  0  0  0  0  0  0
   21.4100   14.7900   30.2980 C   0  0  0  0  0  0  0  0  0  0  0  0
   21.9670   13.7480   31.0380 C   0  0  0  0  0  0  0  0  0  0  0  0
   22.5970   14.1250   32.2040 C   0  0  0  0  0  0  0  0  0  0  0  0
   21.8740   12.3860   30.5530 C   0  0  0  0  0  0  0  0  0  0  0  0
   22.5430   11.9760   29.5300 N   0  0  0  0  0  0  0  0  0  0  0  0
   22.4830   10.6870   29.0280 N   0  0  0  0  0  0  0  0  0  0  0  0
   22.4410    9.5710   29.9090 C   0  0  0  0  0  0  0  0  0  0  0  0
   21.3940    9.3800   30.6960 N   0  0  0  0  0  4  0  0  0  0  0  0
   21.2570    8.3390   31.5350 C   0  0  0  0  0  0  0  0  0  0  0  0
   22.2670    7.4430   31.5580 N   0  0  0  0  0  0  0  0  0  0  0  0
   23.3690    7.5840   30.7740 C   0  0  0  0  0  0  0  0  0  0  0  0
   23.4370    8.6610   29.9520 N   0  0  0  0  0  0  0  0  0  0  0  0
   24.4090    6.6330   30.7970 N   0  0  0  0  0  0  0  0  0  0  0  0
   24.2440    5.3570   31.4440 C   0  0  0  0  0  0  0  0  0  0  0  0
   24.6310    4.3130   30.3850 C   0  0  0  0  0  0  0  0  0  0  0  0
   25.8810    4.6200   29.8890 O   0  0  0  0  0  0  0  0  0  0  0  0
   25.8290    5.7780   29.1150 C   0  0  0  0  0  0  0  0  0  0  0  0
   25.6620    6.9170   30.1440 C   0  0  0  0  0  0  0  0  0  0  0  0
   20.0980    8.1720   32.3680 N   0  0  0  0  0  0  0  0  0  0  0  0
   19.5070    9.2830   33.0590 C   0  0  0  0  0  0  0  0  0  0  0  0
   18.1840    9.0540   33.6780 C   0  0  0  0  0  0  0  0  0  0  0  0
   17.8420    7.7170   33.8330 O   0  0  0  0  0  0  0  0  0  0  0  0
   18.0460    6.9880   32.6690 C   0  0  0  0  0  0  0  0  0  0  0  0
   19.5390    6.8580   32.4940 C   0  0  0  0  0  0  0  0  0  0  0  0
   20.7630   14.4330   29.1100 O   0  0  0  0  0  0  0  0  0  0  0  0
   22.1870   17.7960   32.2570 O   0  0  0  0  0  0  0  0  0  0  0  0
   21.0460   16.9200   30.1110 H   0  0  0  0  0  0  0  0  0  0  0  0
   23.0390   13.3130   32.8010 H   0  0  0  0  0  0  0  0  0  0  0  0
   21.2290   11.6850   31.0560 H   0  0  0  0  0  0  0  0  0  0  0  0
   22.4720   10.5300   28.0140 H   0  0  0  0  0  0  0  0  0  0  0  0
   24.9390    5.2780   32.3040 H   0  0  0  0  0  0  0  0  0  0  0  0
   23.1820    5.1890   31.7570 H   0  0  0  0  0  0  0  0  0  0  0  0
   24.5900    3.3190   30.8640 H   0  0  0  0  0  0  0  0  0  0  0  0
   23.8480    4.3840   29.5890 H   0  0  0  0  0  0  0  0  0  0  0  0
   24.8550    5.7580   28.5410 H   0  0  0  0  0  0  0  0  0  0  0  0
   26.7000    5.9090   28.4790 H   0  0  0  0  0  0  0  0  0  0  0  0
   26.4760    6.7340   30.9040 H   0  0  0  0  0  0  0  0  0  0  0  0
   25.7240    7.9060   29.6810 H   0  0  0  0  0  0  0  0  0  0  0  0
   20.2620    9.6240   33.8210 H   0  0  0  0  0  0  0  0  0  0  0  0
   19.4010   10.1150   32.2970 H   0  0  0  0  0  0  0  0  0  0  0  0
   17.3800    9.5900   33.1110 H   0  0  0  0  0  0  0  0  0  0  0  0
   18.1880    9.5060   34.7030 H   0  0  0  0  0  0  0  0  0  0  0  0
   17.5330    6.0280   32.7790 H   0  0  0  0  0  0  0  0  0  0  0  0
   17.6830    7.5280   31.7550 H   0  0  0  0  0  0  0  0  0  0  0  0
   19.6710    6.2580   31.5550 H   0  0  0  0  0  0  0  0  0  0  0  0
   20.0110    6.2780   33.3160 H   0  0  0  0  0  0  0  0  0  0  0  0
   21.1210   13.6380   28.5890 H   0  0  0  0  0  0  0  0  0  0  0  0
   21.4940   18.2460   32.8370 H   0  0  0  0  0  0  0  0  0  0  0  0
  2  1  1  0  0  0  0
  3 30  1  0  0  0  0
  3  2  2  0  0  0  0
  4  3  1  0  0  0  0
  5  4  2  0  0  0  0
  5  6  1  0  0  0  0
  6  7  2  0  0  0  0
  7  2  1  0  0  0  0
  7 32  1  0  0  0  0
  8  6  1  0  0  0  0
  8 33  1  0  0  0  0
  9  8  2  0  0  0  0
 10  9  1  0  0  0  0
 10 11  1  0  0  0  0
 11 16  1  0  0  0  0
 11 12  2  0  0  0  0
 12 13  2  0  0  0  0
 13 14  1  0  0  0  0
 13 23  1  0  0  0  0
 15 17  1  0  0  0  0
 15 14  2  0  0  0  0
 16 15  1  0  0  0  0
 17 18  1  0  0  0  0
 18 36  1  0  0  0  0
 18 35  1  0  0  0  0
 19 37  1  0  0  0  0
 19 18  1  0  0  0  0
 20 19  1  0  0  0  0
 21 20  1  0  0  0  0
 21 22  1  0  0  0  0
 22 17  1  0  0  0  0
 22 41  1  0  0  0  0
 23 28  1  0  0  0  0
 23 24  1  0  0  0  0
 24 25  1  0  0  0  0
 24 43  1  0  0  0  0
 25 26  1  0  0  0  0
 25 46  1  0  0  0  0
 27 47  1  0  0  0  0
 27 26  1  0  0  0  0
 28 27  1  0  0  0  0
 28 50  1  0  0  0  0
 29  5  1  0  0  0  0
 30 52  1  0  0  0  0
 31  4  1  0  0  0  0
 34 10  1  0  0  0  0
 38 19  1  0  0  0  0
 39 21  1  0  0  0  0
 40 21  1  0  0  0  0
 42 22  1  0  0  0  0
 44 24  1  0  0  0  0
 45 25  1  0  0  0  0
 48 27  1  0  0  0  0
 49 28  1  0  0  0  0
 51 29  1  0  0  0  0
M  END
>  <Pose>
1

>  <Score>
-8.25

$$$$
