
 OpenBabel03202209553D

 56 59  0  0  1  0  0  0  0  0999 V2000
   18.2040   15.8220   31.2360 Cl  0  0  0  0  0  0  0  0  0  0  0  0
   19.8170   15.1050   31.1890 C   0  0  0  0  0  0  0  0  0  0  0  0
   19.9860   13.9400   30.5120 C   0  0  0  0  0  0  0  0  0  0  0  0
   21.2750   13.3950   30.4950 C   0  0  0  0  0  0  0  0  0  0  0  0
   22.3190   13.9850   31.1180 C   0  0  0  0  0  0  0  0  0  0  0  0
   23.4130   13.1920   30.9070 N   0  0  0  0  0  0  0  0  0  0  0  0
   23.0920   12.1240   30.1730 C   0  0  0  0  0  0  0  0  0  0  0  0
   21.7300   12.2350   29.8990 C   0  0  0  0  0  0  0  0  0  0  0  0
   23.8960   11.0150   29.7340 C   0  0  0  0  0  0  0  0  0  0  0  0
   23.6290   10.6400   28.4760 O   0  0  0  0  0  0  0  0  0  0  0  0
   24.8820   10.2580   30.3290 N   0  0  0  0  0  0  0  0  0  0  0  0
   24.4500    9.7540   31.6630 C   0  0  0  0  0  0  0  0  0  0  0  0
   23.7720    8.4100   31.4870 C   0  0  0  0  0  0  0  0  0  0  0  0
   24.2290    7.8350   30.2010 C   0  0  1  0  0  0  0  0  0  0  0  0
   25.7130    7.6630   30.1820 C   0  0  2  0  0  0  0  0  0  0  0  0
   26.2360    8.6140   29.0910 C   0  0  0  0  0  0  0  0  0  0  0  0
   26.1560   10.0030   29.7500 C   0  0  0  0  0  0  0  0  0  0  0  0
   26.1290    6.3540   29.9500 O   0  0  0  0  0  0  0  0  0  0  0  0
   23.5850    6.6530   29.7240 N   0  0  0  0  0  0  0  0  0  0  0  0
   22.3060    6.8670   29.0970 C   0  0  0  0  0  0  0  0  0  0  0  0
   21.3030    7.3980   30.0500 C   0  0  0  0  0  0  0  0  0  0  0  0
   21.2470    6.4500   31.1680 N   0  0  0  0  0  0  0  0  0  0  0  0
   22.0990    5.2950   31.0550 C   0  0  0  0  0  0  0  0  0  0  0  0
   23.5250    5.5950   30.6970 C   0  0  0  0  0  0  0  0  0  0  0  0
   20.3690    6.6940   32.2680 C   0  0  0  0  0  0  0  0  0  0  0  0
   19.6620    5.7730   32.6990 O   0  0  0  0  0  0  0  0  0  0  0  0
   20.3350    8.0680   32.8610 C   0  0  0  0  0  0  0  0  0  0  0  0
   22.1320   15.1590   31.7960 C   0  0  0  0  0  0  0  0  0  0  0  0
   20.8670   15.7260   31.8330 C   0  0  0  0  0  0  0  0  0  0  0  0
   19.1790   13.4480   30.0100 H   0  0  0  0  0  0  0  0  0  0  0  0
   24.3330   13.4590   31.2820 H   0  0  0  0  0  0  0  0  0  0  0  0
   21.1660   11.5300   29.3230 H   0  0  0  0  0  0  0  0  0  0  0  0
   23.7310   10.4380   32.1180 H   0  0  0  0  0  0  0  0  0  0  0  0
   25.3460    9.7290   32.3020 H   0  0  0  0  0  0  0  0  0  0  0  0
   22.6800    8.4790   31.6070 H   0  0  0  0  0  0  0  0  0  0  0  0
   24.1530    7.8080   32.3740 H   0  0  0  0  0  0  0  0  0  0  0  0
   23.9170    8.6280   29.4210 H   0  0  0  0  0  0  0  0  0  0  0  0
   26.2340    7.9990   31.1180 H   0  0  0  0  0  0  0  0  0  0  0  0
   27.2540    8.3970   28.7970 H   0  0  0  0  0  0  0  0  0  0  0  0
   25.4790    8.5650   28.2750 H   0  0  0  0  0  0  0  0  0  0  0  0
   26.5710   10.7240   29.0790 H   0  0  0  0  0  0  0  0  0  0  0  0
   26.9420    9.9190   30.5950 H   0  0  0  0  0  0  0  0  0  0  0  0
   26.9740    6.2380   30.4940 H   0  0  0  0  0  0  0  0  0  0  0  0
   21.9710    5.8670   28.7100 H   0  0  0  0  0  0  0  0  0  0  0  0
   22.4570    7.5320   28.2080 H   0  0  0  0  0  0  0  0  0  0  0  0
   21.5210    8.4190   30.3660 H   0  0  0  0  0  0  0  0  0  0  0  0
   20.3080    7.3540   29.5350 H   0  0  0  0  0  0  0  0  0  0  0  0
   21.6220    4.6300   30.2870 H   0  0  0  0  0  0  0  0  0  0  0  0
   22.0680    4.6940   32.0180 H   0  0  0  0  0  0  0  0  0  0  0  0
   23.9460    4.6730   30.2230 H   0  0  0  0  0  0  0  0  0  0  0  0
   24.1500    5.7680   31.5930 H   0  0  0  0  0  0  0  0  0  0  0  0
   21.1010    8.7020   32.3910 H   0  0  0  0  0  0  0  0  0  0  0  0
   19.3070    8.4890   32.6900 H   0  0  0  0  0  0  0  0  0  0  0  0
   20.4990    7.9840   33.9350 H   0  0  0  0  0  0  0  0  0  0  0  0
   22.9460   15.6600   32.3030 H   0  0  0  0  0  0  0  0  0  0  0  0
   20.6600   16.6460   32.3500 H   0  0  0  0  0  0  0  0  0  0  0  0
  2  1  1  0  0  0  0
  2 29  1  0  0  0  0
  3  2  2  0  0  0  0
  4  3  1  0  0  0  0
  4  5  2  0  0  0  0
  5 28  1  0  0  0  0
  6  5  1  0  0  0  0
  6 31  1  0  0  0  0
  7  6  1  0  0  0  0
  8  7  2  0  0  0  0
  8  4  1  0  0  0  0
  9  7  1  0  0  0  0
  9 11  1  0  0  0  0
 10  9  2  0  0  0  0
 11 12  1  0  0  0  0
 12 33  1  0  0  0  0
 12 34  1  0  0  0  0
 13 35  1  0  0  0  0
 13 12  1  0  0  0  0
 13 36  1  0  0  0  0
 14 37  1  6  0  0  0
 14 13  1  0  0  0  0
 15 14  1  0  0  0  0
 15 38  1  1  0  0  0
 16 17  1  0  0  0  0
 16 15  1  0  0  0  0
 17 11  1  0  0  0  0
 17 42  1  0  0  0  0
 18 15  1  0  0  0  0
 18 43  1  0  0  0  0
 19 14  1  0  0  0  0
 19 24  1  0  0  0  0
 20 19  1  0  0  0  0
 20 21  1  0  0  0  0
 21 46  1  0  0  0  0
 21 22  1  0  0  0  0
 22 25  1  0  0  0  0
 23 22  1  0  0  0  0
 23 49  1  0  0  0  0
 24 23  1  0  0  0  0
 24 51  1  0  0  0  0
 25 26  2  0  0  0  0
 25 27  1  0  0  0  0
 27 54  1  0  0  0  0
 28 29  2  0  0  0  0
 28 55  1  0  0  0  0
 29 56  1  0  0  0  0
 30  3  1  0  0  0  0
 32  8  1  0  0  0  0
 39 16  1  0  0  0  0
 40 16  1  0  0  0  0
 41 17  1  0  0  0  0
 44 20  1  0  0  0  0
 45 20  1  0  0  0  0
 47 21  1  0  0  0  0
 48 23  1  0  0  0  0
 50 24  1  0  0  0  0
 52 27  1  0  0  0  0
 53 27  1  0  0  0  0
M  END
>  <Pose>
1

>  <Score>
-6.08

$$$$
