
 OpenBabel03202209553D

 46 49  0  0  0  0  0  0  0  0999 V2000
   19.1720   15.2790   30.6080 Cl  0  0  0  0  0  0  0  0  0  0  0  0
   20.7130   14.5900   31.0950 C   0  0  0  0  0  0  0  0  0  0  0  0
   21.0360   13.3080   30.6600 C   0  0  0  0  0  0  0  0  0  0  0  0
   22.2550   12.7680   31.0460 C   0  0  0  0  0  0  0  0  0  0  0  0
   23.0950   13.5410   31.8520 C   0  0  0  0  0  0  0  0  0  0  0  0
   22.7630   14.7960   32.2700 C   0  0  0  0  0  0  0  0  0  0  0  0
   21.5690   15.3280   31.8930 C   0  0  0  0  0  0  0  0  0  0  0  0
   24.1340   12.7860   32.0440 O   0  0  0  0  0  0  0  0  0  0  0  0
   24.0180   11.6300   31.4430 C   0  0  0  0  0  0  0  0  0  0  0  0
   24.8970   10.7290   31.4840 O   0  0  0  0  0  0  0  0  0  0  0  0
   22.8370   11.5910   30.8010 N   0  0  0  0  0  0  0  0  0  0  0  0
   22.3740   10.4710   30.0340 C   0  0  0  0  0  0  0  0  0  0  0  0
   21.6780    9.4910   30.9120 C   0  0  0  0  0  0  0  0  0  0  0  0
   20.8160    9.8020   31.8950 N   0  0  0  0  0  0  0  0  0  0  0  0
   20.4040    8.7230   32.4990 O   0  0  0  0  0  0  0  0  0  0  0  0
   20.9940    7.7010   31.9120 C   0  0  0  0  0  0  0  0  0  0  0  0
   21.7810    8.1550   30.9330 N   0  0  0  0  0  0  0  0  0  0  0  0
   20.7460    6.2910   32.3630 C   0  0  0  0  0  0  0  0  0  0  0  0
   19.7090    6.2330   33.1110 O   0  0  0  0  0  0  0  0  0  0  0  0
   21.5640    5.2960   31.9720 N   0  0  0  0  0  0  0  0  0  0  0  0
   22.3960    4.2640   31.5820 C   0  0  0  0  0  0  0  0  0  0  0  0
   22.8080    4.3370   30.1070 C   0  0  0  0  0  0  0  0  0  0  0  0
   24.0530    4.9500   29.8660 N   0  0  0  0  0  0  0  0  0  0  0  0
   25.1180    4.1460   30.3230 C   0  0  0  0  0  0  0  0  0  0  0  0
   26.3380    4.9280   30.6780 C   0  0  0  0  0  0  0  0  0  0  0  0
   26.5280    5.9100   29.7410 O   0  0  0  0  0  0  0  0  0  0  0  0
   25.5510    6.8880   29.7460 C   0  0  0  0  0  0  0  0  0  0  0  0
   24.1650    6.3490   29.9410 C   0  0  0  0  0  0  0  0  0  0  0  0
   20.4070   12.7090   30.0420 H   0  0  0  0  0  0  0  0  0  0  0  0
   23.4570   15.3610   32.8940 H   0  0  0  0  0  0  0  0  0  0  0  0
   21.3040   16.3320   32.2280 H   0  0  0  0  0  0  0  0  0  0  0  0
   23.2380   10.0200   29.5140 H   0  0  0  0  0  0  0  0  0  0  0  0
   21.6670   10.7680   29.2280 H   0  0  0  0  0  0  0  0  0  0  0  0
   20.9170    4.4400   32.8260 H   0  0  0  0  0  0  0  0  0  0  0  0
   21.8640    3.2670   31.6450 H   0  0  0  0  0  0  0  0  0  0  0  0
   23.3390    4.1470   32.1420 H   0  0  0  0  0  0  0  0  0  0  0  0
   22.0460    4.8540   29.4850 H   0  0  0  0  0  0  0  0  0  0  0  0
   22.8430    3.2900   29.7540 H   0  0  0  0  0  0  0  0  0  0  0  0
   24.8000    3.4900   31.1620 H   0  0  0  0  0  0  0  0  0  0  0  0
   25.4380    3.4310   29.5060 H   0  0  0  0  0  0  0  0  0  0  0  0
   26.2950    5.3450   31.7030 H   0  0  0  0  0  0  0  0  0  0  0  0
   27.2570    4.2680   30.6150 H   0  0  0  0  0  0  0  0  0  0  0  0
   25.6520    7.4730   28.7980 H   0  0  0  0  0  0  0  0  0  0  0  0
   25.7750    7.5850   30.5740 H   0  0  0  0  0  0  0  0  0  0  0  0
   23.5270    6.8730   29.1650 H   0  0  0  0  0  0  0  0  0  0  0  0
   23.7570    6.6800   30.9160 H   0  0  0  0  0  0  0  0  0  0  0  0
  1  2  1  0  0  0  0
  2  7  1  0  0  0  0
  3  4  1  0  0  0  0
  3  2  2  0  0  0  0
  4  5  2  0  0  0  0
  5  8  1  0  0  0  0
  5  6  1  0  0  0  0
  6 30  1  0  0  0  0
  7 31  1  0  0  0  0
  7  6  2  0  0  0  0
  9 10  2  0  0  0  0
  9  8  1  0  0  0  0
 11  4  1  0  0  0  0
 11  9  1  0  0  0  0
 12 11  1  0  0  0  0
 12 13  1  0  0  0  0
 13 17  1  0  0  0  0
 13 14  2  0  0  0  0
 14 15  1  0  0  0  0
 16 18  1  0  0  0  0
 16 15  1  0  0  0  0
 17 16  2  0  0  0  0
 18 19  2  0  0  0  0
 20 18  1  0  0  0  0
 20 34  1  0  0  0  0
 21 35  1  0  0  0  0
 21 20  1  0  0  0  0
 21 36  1  0  0  0  0
 22 21  1  0  0  0  0
 23 28  1  0  0  0  0
 23 22  1  0  0  0  0
 23 24  1  0  0  0  0
 24 25  1  0  0  0  0
 24 39  1  0  0  0  0
 25 41  1  0  0  0  0
 26 27  1  0  0  0  0
 26 25  1  0  0  0  0
 27 28  1  0  0  0  0
 27 44  1  0  0  0  0
 28 46  1  0  0  0  0
 29  3  1  0  0  0  0
 32 12  1  0  0  0  0
 33 12  1  0  0  0  0
 37 22  1  0  0  0  0
 38 22  1  0  0  0  0
 40 24  1  0  0  0  0
 42 25  1  0  0  0  0
 43 27  1  0  0  0  0
 45 28  1  0  0  0  0
M  END
>  <Pose>
1

>  <Score>
-6.28

$$$$
