
 OpenBabel03202209553D

 49 52  0  0  0  0  0  0  0  0999 V2000
   22.0200   17.8170   33.6970 Cl  0  0  0  0  0  0  0  0  0  0  0  0
   22.1220   16.6630   32.3610 C   0  0  0  0  0  0  0  0  0  0  0  0
   21.9470   17.0790   31.0670 C   0  0  0  0  0  0  0  0  0  0  0  0
   22.0370   16.1180   30.0830 C   0  0  0  0  0  0  0  0  0  0  0  0
   22.2930   14.7810   30.3780 C   0  0  0  0  0  0  0  0  0  0  0  0
   22.4620   14.4100   31.7040 C   0  0  0  0  0  0  0  0  0  0  0  0
   22.3740   15.3600   32.6960 C   0  0  0  0  0  0  0  0  0  0  0  0
   22.3800   13.8100   29.3400 N   0  0  0  0  0  0  0  0  0  0  0  0
   23.4050   12.8600   29.1950 C   0  0  0  0  0  0  0  0  0  0  0  0
   24.5950   13.2760   29.2050 O   0  0  0  0  0  0  0  0  0  0  0  0
   23.1800   11.4780   29.0360 N   0  0  0  0  0  0  0  0  0  0  0  0
   23.9360   10.4430   29.5740 N   0  0  0  0  0  0  0  0  0  0  0  0
   23.3810    9.6760   30.6260 C   0  0  0  0  0  0  0  0  0  0  0  0
   22.8020   10.2710   31.5900 O   0  0  0  0  0  0  0  0  0  0  0  0
   23.4900    8.2310   30.5880 C   0  0  0  0  0  0  0  0  0  0  0  0
   24.4990    7.5730   30.0720 N   0  0  0  0  0  0  0  0  0  0  0  0
   24.3470    6.2140   30.1690 N   0  0  0  0  0  0  0  0  0  0  0  0
   23.0930    6.0090   30.8210 C   0  0  0  0  0  0  0  0  0  0  0  0
   22.4440    4.9380   31.1700 N   0  0  0  0  0  0  0  0  0  0  0  0
   21.1850    5.0050   31.8240 N   0  0  0  0  0  0  0  0  0  0  0  0
   20.5700    6.2320   32.1330 C   0  0  0  0  0  0  0  0  0  0  0  0
   19.4000    6.3100   32.7510 C   0  0  0  0  0  0  0  0  0  0  0  0
   21.2820    7.4460   31.7480 C   0  0  0  0  0  0  0  0  0  0  0  0
   20.7590    8.5340   32.0080 O   0  0  0  0  0  0  0  0  0  0  0  0
   22.5420    7.2960   31.0920 N   0  0  0  0  0  0  0  0  0  0  0  0
   25.2850    5.2260   29.7490 C   0  0  0  0  0  0  0  0  0  0  0  0
   25.5350    4.1080   30.5060 C   0  0  0  0  0  0  0  0  0  0  0  0
   26.4050    3.0960   30.1240 C   0  0  0  0  0  0  0  0  0  0  0  0
   27.0770    3.1850   28.9220 C   0  0  0  0  0  0  0  0  0  0  0  0
   26.8450    4.3010   28.1460 C   0  0  0  0  0  0  0  0  0  0  0  0
   25.9650    5.3020   28.5550 C   0  0  0  0  0  0  0  0  0  0  0  0
   27.9950    2.1020   28.4540 C   0  0  0  0  0  0  0  0  0  0  0  0
   21.7460   18.1240   30.8230 H   0  0  0  0  0  0  0  0  0  0  0  0
   21.9040   16.3980   29.0330 H   0  0  0  0  0  0  0  0  0  0  0  0
   22.6640   13.3580   31.8960 H   0  0  0  0  0  0  0  0  0  0  0  0
   22.5190   15.0440   33.7380 H   0  0  0  0  0  0  0  0  0  0  0  0
   21.5970   13.8370   28.6400 H   0  0  0  0  0  0  0  0  0  0  0  0
   22.3440   11.1440   28.4550 H   0  0  0  0  0  0  0  0  0  0  0  0
   24.8740   10.2620   29.1850 H   0  0  0  0  0  0  0  0  0  0  0  0
   20.7490    4.0850   32.0600 H   0  0  0  0  0  0  0  0  0  0  0  0
   18.8360    5.4470   33.0620 H   0  0  0  0  0  0  0  0  0  0  0  0
   18.9620    7.2750   32.9780 H   0  0  0  0  0  0  0  0  0  0  0  0
   25.0020    4.0280   31.4640 H   0  0  0  0  0  0  0  0  0  0  0  0
   26.5780    2.2340   30.7430 H   0  0  0  0  0  0  0  0  0  0  0  0
   27.3860    4.3610   27.2020 H   0  0  0  0  0  0  0  0  0  0  0  0
   25.8050    6.1720   27.9210 H   0  0  0  0  0  0  0  0  0  0  0  0
   28.9750    2.1110   28.9380 H   0  0  0  0  0  0  0  0  0  0  0  0
   28.1330    2.1130   27.3670 H   0  0  0  0  0  0  0  0  0  0  0  0
   27.5200    1.0940   28.6670 H   0  0  0  0  0  0  0  0  0  0  0  0
  2  7  1  0  0  0  0
  2  1  1  0  0  0  0
  3  2  2  0  0  0  0
  4  5  2  0  0  0  0
  4  3  1  0  0  0  0
  5  6  1  0  0  0  0
  6 35  1  0  0  0  0
  6  7  2  0  0  0  0
  7 36  1  0  0  0  0
  8  5  1  0  0  0  0
  9 10  2  0  0  0  0
  9  8  1  0  0  0  0
 11  9  1  0  0  0  0
 11 12  1  0  0  0  0
 12 13  1  0  0  0  0
 13 14  2  0  0  0  0
 15 13  1  0  0  0  0
 15 25  1  0  0  0  0
 16 17  1  0  0  0  0
 16 15  2  0  0  0  0
 17 18  1  0  0  0  0
 18 25  1  0  0  0  0
 18 19  2  0  0  0  0
 19 20  1  0  0  0  0
 20 40  1  0  0  0  0
 20 21  1  0  0  0  0
 21 22  2  0  0  0  0
 22 42  1  0  0  0  0
 22 41  1  0  0  0  0
 23 24  2  0  0  0  0
 23 21  1  0  0  0  0
 25 23  1  0  0  0  0
 26 17  1  0  0  0  0
 26 27  1  0  0  0  0
 27 43  1  0  0  0  0
 28 27  2  0  0  0  0
 28 44  1  0  0  0  0
 29 28  1  0  0  0  0
 30 31  1  0  0  0  0
 30 29  2  0  0  0  0
 31 26  2  0  0  0  0
 32 49  1  0  0  0  0
 32 29  1  0  0  0  0
 32 47  1  0  0  0  0
 33  3  1  0  0  0  0
 34  4  1  0  0  0  0
 37  8  1  0  0  0  0
 38 11  1  0  0  0  0
 39 12  1  0  0  0  0
 45 30  1  0  0  0  0
 46 31  1  0  0  0  0
 48 32  1  0  0  0  0
M  END
>  <Pose>
1

>  <Score>
-8.61

$$$$
