
 OpenBabel03202209553D

 42 45  0  0  0  0  0  0  0  0999 V2000
   29.3960    2.9020   34.3270 Cl  0  0  0  0  0  0  0  0  0  0  0  0
   28.3730    3.1840   32.9220 C   0  0  0  0  0  0  0  0  0  0  0  0
   28.7500    4.1010   31.9730 C   0  0  0  0  0  0  0  0  0  0  0  0
   27.9330    4.3110   30.8730 C   0  0  0  0  0  0  0  0  0  0  0  0
   26.7610    3.6240   30.7130 C   0  0  0  0  0  0  0  0  0  0  0  0
   26.3810    2.7050   31.6610 C   0  0  0  0  0  0  0  0  0  0  0  0
   27.1890    2.4970   32.7510 C   0  0  0  0  0  0  0  0  0  0  0  0
   25.9510    3.9160   29.5020 C   0  0  0  0  0  0  0  0  0  0  0  0
   25.2130    5.1530   29.7500 N   0  0  0  0  0  0  0  0  0  0  0  0
   25.5710    6.3950   29.4870 N   0  0  0  0  0  0  0  0  0  0  0  0
   24.6360    7.2500   29.8560 N   0  0  0  0  0  0  0  0  0  0  0  0
   23.6200    6.5670   30.3820 C   0  0  0  0  0  0  0  0  0  0  0  0
   23.9830    5.2390   30.3170 C   0  0  0  0  0  0  0  0  0  0  0  0
   23.1180    4.3300   30.7900 N   0  0  0  0  0  0  0  0  0  0  0  0
   21.9370    4.7040   31.3120 C   0  0  0  0  0  0  0  0  0  0  0  0
   21.6050    6.0060   31.3650 N   0  0  0  0  0  0  0  0  0  0  0  0
   22.4110    7.0020   30.9110 C   0  0  0  0  0  0  0  0  0  0  0  0
   22.0680    8.3650   30.9650 N   0  0  0  0  0  0  0  0  0  0  0  0
   21.5910    9.0880   32.1130 C   0  0  0  0  0  0  0  0  0  0  0  0
   22.5370   10.1960   32.3940 C   0  0  0  0  0  0  0  0  0  0  0  0
   23.4250   10.5830   31.3810 N   0  0  0  0  0  0  0  0  0  0  0  0
   23.1700   10.2510   30.0450 C   0  0  0  0  0  0  0  0  0  0  0  0
   22.1850    9.1750   29.7780 C   0  0  0  0  0  0  0  0  0  0  0  0
   24.7690   10.1610   31.7340 C   0  0  0  0  0  0  0  0  0  0  0  0
   29.6690    4.6580   32.0720 H   0  0  0  0  0  0  0  0  0  0  0  0
   28.2430    5.0420   30.1260 H   0  0  0  0  0  0  0  0  0  0  0  0
   25.4690    2.1710   31.5350 H   0  0  0  0  0  0  0  0  0  0  0  0
   26.9300    1.7730   33.5350 H   0  0  0  0  0  0  0  0  0  0  0  0
   26.5970    4.0610   28.6290 H   0  0  0  0  0  0  0  0  0  0  0  0
   25.2620    3.0660   29.3120 H   0  0  0  0  0  0  0  0  0  0  0  0
   21.2650    3.9450   31.6840 H   0  0  0  0  0  0  0  0  0  0  0  0
   21.4730    8.4520   33.0100 H   0  0  0  0  0  0  0  0  0  0  0  0
   20.5740    9.4790   31.8930 H   0  0  0  0  0  0  0  0  0  0  0  0
   21.9210   11.1000   32.6810 H   0  0  0  0  0  0  0  0  0  0  0  0
   23.1030    9.9670   33.3410 H   0  0  0  0  0  0  0  0  0  0  0  0
   22.7970   11.1790   29.5140 H   0  0  0  0  0  0  0  0  0  0  0  0
   24.1270   10.0110   29.4970 H   0  0  0  0  0  0  0  0  0  0  0  0
   21.1880    9.5820   29.5040 H   0  0  0  0  0  0  0  0  0  0  0  0
   22.5400    8.5500   28.9100 H   0  0  0  0  0  0  0  0  0  0  0  0
   24.8070    9.7720   32.7900 H   0  0  0  0  0  0  0  0  0  0  0  0
   25.0680    9.3080   31.0880 H   0  0  0  0  0  0  0  0  0  0  0  0
   25.4930   10.9960   31.6920 H   0  0  0  0  0  0  0  0  0  0  0  0
  2  1  1  0  0  0  0
  3 25  1  0  0  0  0
  3  2  2  0  0  0  0
  4  3  1  0  0  0  0
  5  4  2  0  0  0  0
  5  6  1  0  0  0  0
  6  7  2  0  0  0  0
  7  2  1  0  0  0  0
  7 28  1  0  0  0  0
  8  9  1  0  0  0  0
  8  5  1  0  0  0  0
  9 13  1  0  0  0  0
 10  9  1  0  0  0  0
 10 11  2  0  0  0  0
 11 12  1  0  0  0  0
 12 17  1  0  0  0  0
 13 12  2  0  0  0  0
 13 14  1  0  0  0  0
 14 15  2  0  0  0  0
 15 16  1  0  0  0  0
 15 31  1  0  0  0  0
 17 18  1  0  0  0  0
 17 16  2  0  0  0  0
 18 19  1  0  0  0  0
 19 20  1  0  0  0  0
 19 32  1  0  0  0  0
 20 34  1  0  0  0  0
 20 35  1  0  0  0  0
 21 24  1  0  0  0  0
 21 20  1  0  0  0  0
 22 21  1  0  0  0  0
 23 22  1  0  0  0  0
 23 18  1  0  0  0  0
 24 40  1  0  0  0  0
 26  4  1  0  0  0  0
 27  6  1  0  0  0  0
 29  8  1  0  0  0  0
 30  8  1  0  0  0  0
 33 19  1  0  0  0  0
 36 22  1  0  0  0  0
 37 22  1  0  0  0  0
 38 23  1  0  0  0  0
 39 23  1  0  0  0  0
 41 24  1  0  0  0  0
 42 24  1  0  0  0  0
M  END
>  <Pose>
1

>  <Score>
-5.13

$$$$
