
 OpenBabel03202209553D

 38 41  0  0  1  0  0  0  0  0999 V2000
   22.9470   15.9810   33.1380 B   0  0  0  0  0  0  0  0  0  0  0  0
   22.3880   14.6540   31.8900 C   0  0  0  0  0  0  0  0  0  0  0  0
   23.2870   13.7890   31.3110 C   0  0  0  0  0  0  0  0  0  0  0  0
   22.9080   12.8010   30.3890 C   0  0  0  0  0  0  0  0  0  0  0  0
   21.5770   12.7380   30.0870 C   0  0  0  0  0  0  0  0  0  0  0  0
   20.6720   13.6210   30.6810 C   0  0  0  0  0  0  0  0  0  0  0  0
   21.0660   14.5690   31.5710 C   0  0  0  0  0  0  0  0  0  0  0  0
   23.8950   11.9570   29.8450 N   0  0  0  0  0  0  0  0  0  0  0  0
   23.7390   10.5860   29.5890 C   0  0  0  0  0  0  0  0  0  0  0  0
   23.0860   10.0920   28.6580 O   0  0  0  0  0  0  0  0  0  0  0  0
   24.4040    9.5900   30.5000 C   0  0  2  0  0  0  0  0  0  0  0  0
   23.9380    8.1720   30.2980 C   0  0  0  0  0  0  0  0  0  0  0  0
   22.9760    8.3000   31.4020 N   0  0  2  0  0  0  0  0  0  0  0  0
   23.7530    9.4430   31.8440 C   0  0  0  0  0  0  0  0  0  0  0  0
   21.8170    7.5700   31.7860 C   0  0  1  0  0  0  0  0  0  0  0  0
   21.7090    6.2310   31.5890 N   0  0  0  0  0  0  0  0  0  0  0  0
   20.5860    5.5530   31.9680 C   0  0  0  0  0  0  0  0  0  0  0  0
   19.5580    6.1840   32.5440 N   0  0  0  0  0  0  0  0  0  0  0  0
   19.5970    7.4980   32.7680 C   0  0  0  0  0  0  0  0  0  0  0  0
   18.7100    8.3500   33.3200 N   0  0  0  0  0  0  0  0  0  0  0  0
   19.2690    9.5400   33.2880 N   0  0  0  0  0  0  0  0  0  0  0  0
   20.4830    9.4730   32.7310 N   0  0  0  0  0  0  0  0  0  0  0  0
   20.7330    8.1810   32.3840 C   0  0  0  0  0  0  0  0  0  0  0  0
   17.3860    8.0480   33.8580 C   0  0  0  0  0  0  0  0  0  0  0  0
   24.3320   13.8760   31.5820 H   0  0  0  0  0  0  0  0  0  0  0  0
   21.1950   11.9990   29.3790 H   0  0  0  0  0  0  0  0  0  0  0  0
   19.6140   13.5250   30.4000 H   0  0  0  0  0  0  0  0  0  0  0  0
   20.3410   15.2460   32.0200 H   0  0  0  0  0  0  0  0  0  0  0  0
   24.8470   12.4230   29.6120 H   0  0  0  0  0  0  0  0  0  0  0  0
   25.5060    9.6510   30.4850 H   0  0  0  0  0  0  0  0  0  0  0  0
   23.3600    7.9800   29.3700 H   0  0  0  0  0  0  0  0  0  0  0  0
   24.6630    7.3890   30.5410 H   0  0  0  0  0  0  0  0  0  0  0  0
   23.1490   10.3330   32.1210 H   0  0  0  0  0  0  0  0  0  0  0  0
   24.4270    9.1430   32.6580 H   0  0  0  0  0  0  0  0  0  0  0  0
   20.5710    4.4900   31.7800 H   0  0  0  0  0  0  0  0  0  0  0  0
   17.1080    8.7460   34.6640 H   0  0  0  0  0  0  0  0  0  0  0  0
   17.3790    7.0240   34.3350 H   0  0  0  0  0  0  0  0  0  0  0  0
   16.6160    8.0260   33.0850 H   0  0  0  0  0  0  0  0  0  0  0  0
  2  1  1  0  0  0  0
  3 25  1  0  0  0  0
  3  2  2  0  0  0  0
  4  3  1  0  0  0  0
  5  4  2  0  0  0  0
  5  6  1  0  0  0  0
  6  7  2  0  0  0  0
  7  2  1  0  0  0  0
  7 28  1  0  0  0  0
  8  4  1  0  0  0  0
  9  8  1  0  0  0  0
  9 11  1  0  0  0  0
 10  9  2  0  0  0  0
 11 30  1  1  0  0  0
 11 14  1  0  0  0  0
 12 11  1  0  0  0  0
 12 32  1  0  0  0  0
 13 12  1  1  0  0  0
 13 15  1  0  0  0  0
 13 14  1  0  0  0  0
 14 33  1  0  0  0  0
 14 34  1  0  0  0  0
 15 16  1  1  0  0  0
 15 23  1  0  0  0  0
 16 17  2  0  0  0  0
 17 18  1  0  0  0  0
 18 19  1  0  0  0  0
 19 20  1  0  0  0  0
 20 24  1  0  0  0  0
 21 20  1  0  0  0  0
 22 21  2  0  0  0  0
 23 22  1  0  0  0  0
 23 19  2  0  0  0  0
 24 37  1  0  0  0  0
 24 36  1  0  0  0  0
 26  5  1  0  0  0  0
 27  6  1  0  0  0  0
 29  8  1  0  0  0  0
 31 12  1  0  0  0  0
 35 17  1  0  0  0  0
 38 24  1  0  0  0  0
M  END
>  <Pose>
1

>  <Score>
-7.56

$$$$
