
 OpenBabel03202209553D

 52 56  0  0  0  0  0  0  0  0999 V2000
   25.8080    4.9030   28.5780 Cl  0  0  0  0  0  0  0  0  0  0  0  0
   24.9500    6.1440   29.4750 C   0  0  0  0  0  0  0  0  0  0  0  0
   25.5460    7.3580   29.7860 C   0  0  0  0  0  0  0  0  0  0  0  0
   24.8540    8.3210   30.4920 C   0  0  0  0  0  0  0  0  0  0  0  0
   23.5570    8.1280   30.9190 C   0  0  0  0  0  0  0  0  0  0  0  0
   22.9680    6.8980   30.5980 C   0  0  0  0  0  0  0  0  0  0  0  0
   23.6520    5.9310   29.8920 C   0  0  0  0  0  0  0  0  0  0  0  0
   22.8230    9.1400   31.6660 C   0  0  0  0  0  0  0  0  0  0  0  0
   23.2700    9.5340   32.7660 O   0  0  0  0  0  0  0  0  0  0  0  0
   21.5730    9.6600   31.0830 C   0  0  0  0  0  0  0  0  0  0  0  0
   20.9260   10.6620   31.8970 N   0  0  0  0  0  0  0  0  0  0  0  0
   21.0130   11.9750   31.8590 N   0  0  0  0  0  0  0  0  0  0  0  0
   20.2420   12.5520   32.7920 C   0  0  0  0  0  0  0  0  0  0  0  0
   20.3450   13.8900   32.7360 N   0  0  0  0  0  0  0  0  0  0  0  0
   21.2000   14.2220   31.7450 C   0  0  0  0  0  0  0  0  0  0  0  0
   21.6150   13.0020   31.2000 C   0  0  0  0  0  0  0  0  0  0  0  0
   22.5010   13.1010   30.1490 C   0  0  0  0  0  0  0  0  0  0  0  0
   22.9030   12.0210   29.6210 O   0  0  0  0  0  0  0  0  0  0  0  0
   22.9600   14.2840   29.6580 N   0  0  0  0  0  0  0  0  0  0  0  0
   22.5150   15.4090   30.2370 C   0  0  0  0  0  0  0  0  0  0  0  0
   22.9560   16.5070   29.7620 O   0  0  0  0  0  0  0  0  0  0  0  0
   21.6510   15.3920   31.2610 N   0  0  0  0  0  0  0  0  0  0  0  0
   21.2120   16.6350   31.8360 C   0  0  0  0  0  0  0  0  0  0  0  0
   23.8910   14.3010   28.5530 C   0  0  0  0  0  0  0  0  0  0  0  0
   19.6420   11.5230   33.4410 N   0  0  0  0  0  0  0  0  0  0  0  0
   20.0490   10.3650   32.9050 C   0  0  0  0  0  0  0  0  0  0  0  0
   19.6750    9.0410   33.2730 N   0  0  0  0  0  0  0  0  0  0  0  0
   20.6560    7.9770   33.4050 C   0  0  0  0  0  0  0  0  0  0  0  0
   20.0400    6.7140   32.8530 C   0  0  0  0  0  0  0  0  0  0  0  0
   18.8270    6.4460   33.5070 O   0  0  0  0  0  0  0  0  0  0  0  0
   17.8550    7.3660   33.1780 C   0  0  0  0  0  0  0  0  0  0  0  0
   18.2900    8.7450   33.5280 C   0  0  0  0  0  0  0  0  0  0  0  0
   26.5560    7.5390   29.4680 H   0  0  0  0  0  0  0  0  0  0  0  0
   25.3170    9.2690   30.7360 H   0  0  0  0  0  0  0  0  0  0  0  0
   21.9580    6.6880   30.9020 H   0  0  0  0  0  0  0  0  0  0  0  0
   23.2010    4.9710   29.6390 H   0  0  0  0  0  0  0  0  0  0  0  0
   20.8800    8.9020   30.7460 H   0  0  0  0  0  0  0  0  0  0  0  0
   21.9070   10.1750   30.1280 H   0  0  0  0  0  0  0  0  0  0  0  0
   22.0060   17.4010   31.6600 H   0  0  0  0  0  0  0  0  0  0  0  0
   21.0410   16.4970   32.9340 H   0  0  0  0  0  0  0  0  0  0  0  0
   20.2380   16.9420   31.4170 H   0  0  0  0  0  0  0  0  0  0  0  0
   23.3500   14.0510   27.6040 H   0  0  0  0  0  0  0  0  0  0  0  0
   24.6250   13.4680   28.6930 H   0  0  0  0  0  0  0  0  0  0  0  0
   24.4690   15.2240   28.4890 H   0  0  0  0  0  0  0  0  0  0  0  0
   20.9250    7.8020   34.4680 H   0  0  0  0  0  0  0  0  0  0  0  0
   21.5750    8.1900   32.8110 H   0  0  0  0  0  0  0  0  0  0  0  0
   19.9370    6.7000   31.7670 H   0  0  0  0  0  0  0  0  0  0  0  0
   20.7160    5.8670   33.1370 H   0  0  0  0  0  0  0  0  0  0  0  0
   17.6050    7.3410   32.0840 H   0  0  0  0  0  0  0  0  0  0  0  0
   16.9580    7.1260   33.7900 H   0  0  0  0  0  0  0  0  0  0  0  0
   18.0600    9.0290   34.5790 H   0  0  0  0  0  0  0  0  0  0  0  0
   17.6710    9.4550   32.9100 H   0  0  0  0  0  0  0  0  0  0  0  0
  1  2  1  0  0  0  0
  2  3  2  0  0  0  0
  2  7  1  0  0  0  0
  3  4  1  0  0  0  0
  4 34  1  0  0  0  0
  4  5  2  0  0  0  0
  5  8  1  0  0  0  0
  6 35  1  0  0  0  0
  6  5  1  0  0  0  0
  7  6  2  0  0  0  0
  8  9  2  0  0  0  0
 10  8  1  0  0  0  0
 10 11  1  0  0  0  0
 11 26  1  0  0  0  0
 12 11  1  0  0  0  0
 12 13  1  0  0  0  0
 13 25  1  0  0  0  0
 14 13  2  0  0  0  0
 15 14  1  0  0  0  0
 16 15  2  0  0  0  0
 16 12  1  0  0  0  0
 17 16  1  0  0  0  0
 18 17  2  0  0  0  0
 19 17  1  0  0  0  0
 19 20  1  0  0  0  0
 20 22  1  0  0  0  0
 21 20  2  0  0  0  0
 22 15  1  0  0  0  0
 22 23  1  0  0  0  0
 23 40  1  0  0  0  0
 24 43  1  0  0  0  0
 24 19  1  0  0  0  0
 26 27  1  0  0  0  0
 26 25  2  0  0  0  0
 27 28  1  0  0  0  0
 27 32  1  0  0  0  0
 28 45  1  0  0  0  0
 29 48  1  0  0  0  0
 29 28  1  0  0  0  0
 29 30  1  0  0  0  0
 31 30  1  0  0  0  0
 31 32  1  0  0  0  0
 31 50  1  0  0  0  0
 32 51  1  0  0  0  0
 33  3  1  0  0  0  0
 36  7  1  0  0  0  0
 37 10  1  0  0  0  0
 38 10  1  0  0  0  0
 39 23  1  0  0  0  0
 41 23  1  0  0  0  0
 42 24  1  0  0  0  0
 44 24  1  0  0  0  0
 46 28  1  0  0  0  0
 47 29  1  0  0  0  0
 49 31  1  0  0  0  0
 52 32  1  0  0  0  0
M  END
>  <Pose>
1

>  <Score>
-8.17

$$$$
