
 OpenBabel03202209553D

 46 49  0  0  1  0  0  0  0  0999 V2000
   25.5730    5.1720   28.4310 Cl  0  0  0  0  0  0  0  0  0  0  0  0
   25.7300    6.7820   29.0980 C   0  0  0  0  0  0  0  0  0  0  0  0
   24.7130    7.2500   29.9430 C   0  0  0  0  0  0  0  0  0  0  0  0
   24.8070    8.5070   30.4810 C   0  0  0  0  0  0  0  0  0  0  0  0
   25.9360    9.2620   30.1460 C   0  0  0  0  0  0  0  0  0  0  0  0
   26.9280    8.7920   29.3150 C   0  0  0  0  0  0  0  0  0  0  0  0
   26.8380    7.5240   28.7700 C   0  0  0  0  0  0  0  0  0  0  0  0
   28.3390    9.7620   28.9090 Cl  0  0  0  0  0  0  0  0  0  0  0  0
   23.7890    9.0780   31.3750 C   0  0  2  0  0  0  0  0  0  0  0  0
   22.6880    8.1260   31.6010 C   0  0  0  0  0  0  0  0  0  0  0  0
   22.6140    6.8830   31.0580 C   0  0  0  0  0  0  0  0  0  0  0  0
   21.5690    6.0380   31.3000 N   0  0  0  0  0  0  0  0  0  0  0  0
   20.5990    6.4740   32.1000 C   0  0  0  0  0  0  0  0  0  0  0  0
   19.6050    5.7230   32.3550 O   0  0  0  0  0  0  0  0  0  0  0  0
   20.6320    7.7000   32.6610 N   0  0  0  0  0  0  0  0  0  0  0  0
   21.6510    8.5350   32.4310 C   0  0  0  0  0  0  0  0  0  0  0  0
   21.6830    9.6780   32.9540 O   0  0  0  0  0  0  0  0  0  0  0  0
   19.5410    8.1160   33.5300 C   0  0  0  0  0  0  0  0  0  0  0  0
   21.5210    4.7210   30.7040 C   0  0  0  0  0  0  0  0  0  0  0  0
   23.6210    6.4540   30.2370 O   0  0  0  0  0  0  0  0  0  0  0  0
   23.2820   10.3930   30.8580 C   0  0  0  0  0  0  0  0  0  0  0  0
   22.4440   10.4730   29.7730 C   0  0  0  0  0  0  0  0  0  0  0  0
   21.9830   11.6340   29.2820 N   0  0  0  0  0  0  0  0  0  0  0  0
   22.3660   12.7760   29.8860 C   0  0  0  0  0  0  0  0  0  0  0  0
   21.9270   13.8650   29.4140 O   0  0  0  0  0  0  0  0  0  0  0  0
   23.1870   12.7440   30.9510 N   0  0  0  0  0  0  0  0  0  0  0  0
   23.6560   11.5950   31.4570 C   0  0  0  0  0  0  0  0  0  0  0  0
   24.4220   11.5340   32.4490 O   0  0  0  0  0  0  0  0  0  0  0  0
   23.5700   13.9950   31.5630 C   0  0  0  0  0  0  0  0  0  0  0  0
   21.0950   11.6860   28.1370 C   0  0  0  0  0  0  0  0  0  0  0  0
   22.0520    9.3040   29.1550 O   0  0  0  0  0  0  0  0  0  0  0  0
   26.0160   10.2570   30.5690 H   0  0  0  0  0  0  0  0  0  0  0  0
   27.5970    7.1270   28.1170 H   0  0  0  0  0  0  0  0  0  0  0  0
   24.2320    9.3000   32.3890 H   0  0  0  0  0  0  0  0  0  0  0  0
   18.7480    7.3220   33.5450 H   0  0  0  0  0  0  0  0  0  0  0  0
   19.1030    9.0840   33.2420 H   0  0  0  0  0  0  0  0  0  0  0  0
   19.8600    8.2100   34.5920 H   0  0  0  0  0  0  0  0  0  0  0  0
   22.3430    4.5930   29.9560 H   0  0  0  0  0  0  0  0  0  0  0  0
   20.5800    4.5500   30.1410 H   0  0  0  0  0  0  0  0  0  0  0  0
   21.6780    3.9700   31.5000 H   0  0  0  0  0  0  0  0  0  0  0  0
   23.6290   13.8780   32.6550 H   0  0  0  0  0  0  0  0  0  0  0  0
   22.8440   14.8060   31.3450 H   0  0  0  0  0  0  0  0  0  0  0  0
   24.5460   14.3700   31.1340 H   0  0  0  0  0  0  0  0  0  0  0  0
   20.1400   12.1640   28.5060 H   0  0  0  0  0  0  0  0  0  0  0  0
   21.4640   12.3730   27.3410 H   0  0  0  0  0  0  0  0  0  0  0  0
   20.8220   10.6920   27.7780 H   0  0  0  0  0  0  0  0  0  0  0  0
  1  2  1  0  0  0  0
  2  3  1  0  0  0  0
  3 20  1  0  0  0  0
  3  4  2  0  0  0  0
  4  9  1  0  0  0  0
  5  4  1  0  0  0  0
  5 32  1  0  0  0  0
  6  5  2  0  0  0  0
  7  2  2  0  0  0  0
  7  6  1  0  0  0  0
  8  6  1  0  0  0  0
  9 10  1  0  0  0  0
  9 34  1  1  0  0  0
 10 16  1  0  0  0  0
 11 12  1  0  0  0  0
 11 10  2  0  0  0  0
 12 13  1  0  0  0  0
 13 14  2  0  0  0  0
 13 15  1  0  0  0  0
 15 18  1  0  0  0  0
 16 15  1  0  0  0  0
 16 17  2  0  0  0  0
 18 35  1  0  0  0  0
 18 37  1  0  0  0  0
 19 12  1  0  0  0  0
 19 40  1  0  0  0  0
 20 11  1  0  0  0  0
 21  9  1  0  0  0  0
 21 27  1  0  0  0  0
 22 21  1  0  0  0  0
 23 22  1  0  0  0  0
 23 24  1  0  0  0  0
 24 26  1  0  0  0  0
 25 24  2  0  0  0  0
 26 27  1  0  0  0  0
 26 29  1  0  0  0  0
 27 28  2  0  0  0  0
 29 41  1  0  0  0  0
 30 44  1  0  0  0  0
 30 23  1  0  0  0  0
 31 22  2  0  0  0  0
 33  7  1  0  0  0  0
 36 18  1  0  0  0  0
 38 19  1  0  0  0  0
 39 19  1  0  0  0  0
 42 29  1  0  0  0  0
 43 29  1  0  0  0  0
 45 30  1  0  0  0  0
 46 30  1  0  0  0  0
M  END
>  <Pose>
1

>  <Score>
-6.41

$$$$
