
 OpenBabel03202209553D

 51 55  0  0  1  0  0  0  0  0999 V2000
   19.2140   15.0820   30.7470 Cl  0  0  0  0  0  0  0  0  0  0  0  0
   20.7230   14.2690   31.1020 C   0  0  0  0  0  0  0  0  0  0  0  0
   20.8080   12.9090   31.2330 C   0  0  0  0  0  0  0  0  0  0  0  0
   22.0330   12.3010   31.5170 C   0  0  0  0  0  0  0  0  0  0  0  0
   23.1280   13.1010   31.6560 C   0  0  0  0  0  0  0  0  0  0  0  0
   23.0440   14.4970   31.5220 C   0  0  0  0  0  0  0  0  0  0  0  0
   21.8460   15.0920   31.2450 C   0  0  0  0  0  0  0  0  0  0  0  0
   24.2580   12.2830   31.9420 N   0  0  0  0  0  0  0  0  0  0  0  0
   23.8630   10.9330   31.9820 C   0  0  0  0  0  0  0  0  0  0  0  0
   24.6540    9.9670   32.2190 O   0  0  0  0  0  0  0  0  0  0  0  0
   22.4230   10.8940   31.7080 C   0  0  1  0  0  0  0  0  0  0  0  0
   21.6580   10.4000   32.8310 N   0  0  0  0  0  0  0  0  0  0  0  0
   21.0190    9.1700   32.4860 C   0  0  2  0  0  0  0  0  0  0  0  0
   21.5870    8.7810   31.1790 C   0  0  1  0  0  0  0  0  0  0  0  0
   22.0800   10.0360   30.5130 C   0  0  2  0  0  0  0  0  0  0  0  0
   23.2790    9.5650   29.7850 C   0  0  0  0  0  0  0  0  0  0  0  0
   23.8720   10.1120   28.8220 O   0  0  0  0  0  0  0  0  0  0  0  0
   23.7280    8.3120   30.3440 N   0  0  0  0  0  0  0  0  0  0  0  0
   22.8570    8.0130   31.4280 C   0  0  0  0  0  0  0  0  0  0  0  0
   23.1350    7.2510   32.3830 O   0  0  0  0  0  0  0  0  0  0  0  0
   24.8540    7.5310   29.8760 C   0  0  0  0  0  0  0  0  0  0  0  0
   24.4790    6.1260   29.4880 C   0  0  1  0  0  0  0  0  0  0  0  0
   25.0050    5.8340   28.2320 O   0  0  0  0  0  0  0  0  0  0  0  0
   26.2420    5.2650   28.4300 C   0  0  0  0  0  0  0  0  0  0  0  0
   26.2320    4.5770   29.7780 C   0  0  0  0  0  0  0  0  0  0  0  0
   24.9560    5.0760   30.4270 C   0  0  0  0  0  0  0  0  0  0  0  0
   19.5170    9.2650   32.5110 C   0  0  0  0  0  0  0  0  0  0  0  0
   18.8320    8.0430   32.8900 C   0  0  0  0  0  0  0  0  0  0  0  0
   18.9450    7.0160   32.1880 O   0  0  0  0  0  0  0  0  0  0  0  0
   18.0300    7.9890   34.0510 N   0  0  0  0  0  0  0  0  0  0  0  0
   19.9550   12.2890   31.1240 H   0  0  0  0  0  0  0  0  0  0  0  0
   23.9370   15.0710   31.6420 H   0  0  0  0  0  0  0  0  0  0  0  0
   21.8000   16.1650   31.1450 H   0  0  0  0  0  0  0  0  0  0  0  0
   25.2560   12.6170   32.1020 H   0  0  0  0  0  0  0  0  0  0  0  0
   20.9180   11.0660   33.1460 H   0  0  0  0  0  0  0  0  0  0  0  0
   21.3620    8.4160   33.2540 H   0  0  0  0  0  0  0  0  0  0  0  0
   20.9210    8.1870   30.5220 H   0  0  0  0  0  0  0  0  0  0  0  0
   21.3340   10.5010   29.8440 H   0  0  0  0  0  0  0  0  0  0  0  0
   25.3240    8.0370   29.0070 H   0  0  0  0  0  0  0  0  0  0  0  0
   25.6440    7.5060   30.6750 H   0  0  0  0  0  0  0  0  0  0  0  0
   23.3760    6.0610   29.4020 H   0  0  0  0  0  0  0  0  0  0  0  0
   26.3890    4.5030   27.6310 H   0  0  0  0  0  0  0  0  0  0  0  0
   27.0810    5.9850   28.3350 H   0  0  0  0  0  0  0  0  0  0  0  0
   26.1510    3.4860   29.6370 H   0  0  0  0  0  0  0  0  0  0  0  0
   27.1090    4.8700   30.3900 H   0  0  0  0  0  0  0  0  0  0  0  0
   25.1080    5.4230   31.4530 H   0  0  0  0  0  0  0  0  0  0  0  0
   24.2120    4.2290   30.5100 H   0  0  0  0  0  0  0  0  0  0  0  0
   19.2640   10.0560   33.2730 H   0  0  0  0  0  0  0  0  0  0  0  0
   19.1780    9.6960   31.5430 H   0  0  0  0  0  0  0  0  0  0  0  0
   18.1000    8.7560   34.7600 H   0  0  0  0  0  0  0  0  0  0  0  0
   17.3590    7.2270   34.2630 H   0  0  0  0  0  0  0  0  0  0  0  0
  1  2  1  0  0  0  0
  2  3  2  0  0  0  0
  2  7  1  0  0  0  0
  3  4  1  0  0  0  0
  4  5  2  0  0  0  0
  5  8  1  0  0  0  0
  6 32  1  0  0  0  0
  6  5  1  0  0  0  0
  7  6  2  0  0  0  0
  8  9  1  0  0  0  0
  8 34  1  0  0  0  0
  9 10  2  0  0  0  0
 11  4  1  6  0  0  0
 11  9  1  0  0  0  0
 11 12  1  0  0  0  0
 12 35  1  0  0  0  0
 13 27  1  0  0  0  0
 13 12  1  0  0  0  0
 13 36  1  1  0  0  0
 14 37  1  6  0  0  0
 14 19  1  0  0  0  0
 14 13  1  0  0  0  0
 15 38  1  6  0  0  0
 15 14  1  0  0  0  0
 15 11  1  0  0  0  0
 16 18  1  0  0  0  0
 16 15  1  0  0  0  0
 17 16  2  0  0  0  0
 18 19  1  0  0  0  0
 19 20  2  0  0  0  0
 21 18  1  0  0  0  0
 21 40  1  0  0  0  0
 22 41  1  6  0  0  0
 22 21  1  0  0  0  0
 22 26  1  0  0  0  0
 23 24  1  0  0  0  0
 23 22  1  0  0  0  0
 24 25  1  0  0  0  0
 25 45  1  0  0  0  0
 25 26  1  0  0  0  0
 26 47  1  0  0  0  0
 26 46  1  0  0  0  0
 27 28  1  0  0  0  0
 27 48  1  0  0  0  0
 28 30  1  0  0  0  0
 29 28  2  0  0  0  0
 30 51  1  0  0  0  0
 30 50  1  0  0  0  0
 31  3  1  0  0  0  0
 33  7  1  0  0  0  0
 39 21  1  0  0  0  0
 42 24  1  0  0  0  0
 43 24  1  0  0  0  0
 44 25  1  0  0  0  0
 49 27  1  0  0  0  0
M  END
>  <Pose>
1

>  <Score>
-6.61

$$$$
