
 OpenBabel03202209553D

 53 56  0  0  0  0  0  0  0  0999 V2000
   23.5720   17.5600   27.1940 Cl  0  0  0  0  0  0  0  0  0  0  0  0
   24.2520   16.0030   27.5970 C   0  0  0  0  0  0  0  0  0  0  0  0
   25.4970   15.6210   27.1550 C   0  0  0  0  0  0  0  0  0  0  0  0
   26.0400   14.4100   27.4640 C   0  0  0  0  0  0  0  0  0  0  0  0
   25.3510   13.4700   28.2590 C   0  0  0  0  0  0  0  0  0  0  0  0
   24.0760   13.8800   28.7020 C   0  0  0  0  0  0  0  0  0  0  0  0
   23.5640   15.1000   28.3750 C   0  0  0  0  0  0  0  0  0  0  0  0
   25.8130   12.3060   28.5830 O   0  0  0  0  0  0  0  0  0  0  0  0
   26.2480   11.1340   28.8780 C   0  0  0  0  0  0  0  0  0  0  0  0
   25.5290   10.1650   29.7280 C   0  0  0  0  0  0  0  0  0  0  0  0
   26.1340    9.0160   29.8450 O   0  0  0  0  0  0  0  0  0  0  0  0
   24.3290   10.2870   30.4100 N   0  0  0  0  0  0  0  0  0  0  0  0
   24.3600   10.1360   31.8980 C   0  0  0  0  0  0  0  0  0  0  0  0
   23.1380    9.3270   32.2540 C   0  0  0  0  0  0  0  0  0  0  0  0
   22.6120    8.5660   31.1360 N   0  0  0  0  0  0  0  0  0  0  0  0
   22.1510    9.3080   29.9930 C   0  0  0  0  0  0  0  0  0  0  0  0
   23.0110   10.5580   29.9010 C   0  0  0  0  0  0  0  0  0  0  0  0
   22.5710    7.1570   31.1950 C   0  0  0  0  0  0  0  0  0  0  0  0
   23.7090    6.4120   31.1130 N   0  0  0  0  0  0  0  0  0  0  0  0
   23.7210    5.0880   31.1670 C   0  0  0  0  0  0  0  0  0  0  0  0
   22.5270    4.4580   31.3110 N   0  0  0  0  0  0  0  0  0  0  0  0
   21.3820    5.1100   31.3980 C   0  0  0  0  0  0  0  0  0  0  0  0
   21.3750    6.5000   31.3400 C   0  0  0  0  0  0  0  0  0  0  0  0
   24.8950    4.3000   31.0820 N   0  0  0  0  0  0  0  0  0  0  0  0
   25.8730    4.5620   30.0310 C   0  0  0  0  0  0  0  0  0  0  0  0
   26.0900    3.2120   29.3410 C   0  0  0  0  0  0  0  0  0  0  0  0
   26.5720    2.2970   30.2390 O   0  0  0  0  0  0  0  0  0  0  0  0
   25.7200    1.9980   31.2760 C   0  0  0  0  0  0  0  0  0  0  0  0
   25.1950    3.2220   31.9920 C   0  0  0  0  0  0  0  0  0  0  0  0
   26.0260   16.3530   26.5400 H   0  0  0  0  0  0  0  0  0  0  0  0
   27.0040   14.1360   27.1190 H   0  0  0  0  0  0  0  0  0  0  0  0
   23.5350   13.1660   29.3170 H   0  0  0  0  0  0  0  0  0  0  0  0
   22.5810   15.3890   28.7310 H   0  0  0  0  0  0  0  0  0  0  0  0
   27.2930   11.2000   29.3960 H   0  0  0  0  0  0  0  0  0  0  0  0
   26.5800   10.4910   27.9650 H   0  0  0  0  0  0  0  0  0  0  0  0
   24.2750   11.1740   32.2780 H   0  0  0  0  0  0  0  0  0  0  0  0
   25.3060    9.6360   32.1990 H   0  0  0  0  0  0  0  0  0  0  0  0
   22.3120   10.0510   32.5220 H   0  0  0  0  0  0  0  0  0  0  0  0
   23.3220    8.6330   33.1160 H   0  0  0  0  0  0  0  0  0  0  0  0
   22.1300    8.7510   29.0540 H   0  0  0  0  0  0  0  0  0  0  0  0
   21.0780    9.6140   30.1760 H   0  0  0  0  0  0  0  0  0  0  0  0
   22.5250   11.2700   30.6500 H   0  0  0  0  0  0  0  0  0  0  0  0
   22.9520   11.0840   28.9580 H   0  0  0  0  0  0  0  0  0  0  0  0
   20.4300    4.5820   31.5140 H   0  0  0  0  0  0  0  0  0  0  0  0
   20.4280    7.0310   31.4170 H   0  0  0  0  0  0  0  0  0  0  0  0
   25.5030    5.3030   29.3000 H   0  0  0  0  0  0  0  0  0  0  0  0
   26.8060    4.8450   30.5160 H   0  0  0  0  0  0  0  0  0  0  0  0
   25.1160    2.9160   28.8860 H   0  0  0  0  0  0  0  0  0  0  0  0
   26.8180    3.3700   28.5440 H   0  0  0  0  0  0  0  0  0  0  0  0
   24.8500    1.3780   30.9650 H   0  0  0  0  0  0  0  0  0  0  0  0
   26.2840    1.4020   32.0220 H   0  0  0  0  0  0  0  0  0  0  0  0
   24.2840    2.9050   32.5410 H   0  0  0  0  0  0  0  0  0  0  0  0
   25.9340    3.5490   32.7430 H   0  0  0  0  0  0  0  0  0  0  0  0
  1  2  1  0  0  0  0
  2  7  1  0  0  0  0
  3  4  1  0  0  0  0
  3  2  2  0  0  0  0
  4  5  2  0  0  0  0
  5  8  1  0  0  0  0
  5  6  1  0  0  0  0
  6 32  1  0  0  0  0
  7  6  2  0  0  0  0
  7 33  1  0  0  0  0
  8  9  1  0  0  0  0
  9 34  1  0  0  0  0
  9 10  1  0  0  0  0
 10 11  2  0  0  0  0
 10 12  1  0  0  0  0
 12 13  1  0  0  0  0
 13 37  1  0  0  0  0
 13 14  1  0  0  0  0
 13 36  1  0  0  0  0
 14 38  1  0  0  0  0
 14 39  1  0  0  0  0
 15 18  1  0  0  0  0
 15 14  1  0  0  0  0
 16 41  1  0  0  0  0
 16 15  1  0  0  0  0
 17 16  1  0  0  0  0
 17 12  1  0  0  0  0
 17 42  1  0  0  0  0
 18 23  2  0  0  0  0
 19 20  2  0  0  0  0
 19 18  1  0  0  0  0
 20 21  1  0  0  0  0
 21 22  2  0  0  0  0
 22 44  1  0  0  0  0
 23 22  1  0  0  0  0
 23 45  1  0  0  0  0
 24 20  1  0  0  0  0
 24 29  1  0  0  0  0
 25 47  1  0  0  0  0
 25 24  1  0  0  0  0
 26 25  1  0  0  0  0
 26 27  1  0  0  0  0
 27 28  1  0  0  0  0
 28 29  1  0  0  0  0
 28 51  1  0  0  0  0
 29 52  1  0  0  0  0
 29 53  1  0  0  0  0
 30  3  1  0  0  0  0
 31  4  1  0  0  0  0
 35  9  1  0  0  0  0
 40 16  1  0  0  0  0
 43 17  1  0  0  0  0
 46 25  1  0  0  0  0
 48 26  1  0  0  0  0
 49 26  1  0  0  0  0
 50 28  1  0  0  0  0
M  END
>  <Pose>
1

>  <Score>
-6.46

$$$$
