
 OpenBabel03202209553D

 41 44  0  0  1  0  0  0  0  0999 V2000
   22.7270   10.2190   29.5850 S   0  0  0  0  0  0  0  0  0  0  0  0
   23.9700   10.1140   28.7310 O   0  0  0  0  0  0  0  0  0  0  0  0
   21.5660    9.8720   28.7020 O   0  0  0  0  0  0  0  0  0  0  0  0
   22.8480    9.1670   30.8740 N   0  0  0  0  0  0  0  0  0  0  0  0
   23.0130    7.8040   30.6320 C   0  0  0  0  0  0  0  0  0  0  0  0
   22.2910    6.9190   31.6210 C   0  0  0  0  0  0  0  0  0  0  0  0
   21.0890    7.5510   32.2140 C   0  0  2  0  0  0  0  0  0  0  0  0
   21.1580    8.8990   32.4720 C   0  0  0  0  0  0  0  0  0  0  0  0
   20.1220    9.5540   33.0080 N   0  0  0  0  0  0  0  0  0  0  0  0
   18.9710    8.8660   33.3050 C   0  0  2  0  0  0  0  0  0  0  0  0
   18.9220    7.5430   33.0450 N   0  0  0  0  0  0  0  0  0  0  0  0
   17.7140    7.1150   33.4190 N   0  0  0  0  0  0  0  0  0  0  0  0
   17.0000    8.1230   33.9060 C   0  0  0  0  0  0  0  0  0  0  0  0
   17.7750    9.2790   33.8510 C   0  0  0  0  0  0  0  0  0  0  0  0
   19.9280    6.8380   32.5100 C   0  0  0  0  0  0  0  0  0  0  0  0
   19.8800    5.6080   32.2680 O   0  0  0  0  0  0  0  0  0  0  0  0
   22.4020    9.6130   32.1410 C   0  0  0  0  0  0  0  0  0  0  0  0
   22.5700   11.9030   30.0350 C   0  0  0  0  0  0  0  0  0  0  0  0
   22.9750   12.9410   29.2130 C   0  0  0  0  0  0  0  0  0  0  0  0
   22.8260   14.2570   29.6220 C   0  0  0  0  0  0  0  0  0  0  0  0
   22.2800   14.5920   30.8390 C   0  0  0  0  0  0  0  0  0  0  0  0
   21.8770   13.5590   31.6580 C   0  0  0  0  0  0  0  0  0  0  0  0
   22.0240   12.2520   31.2530 C   0  0  0  0  0  0  0  0  0  0  0  0
   22.1380   15.9330   31.2330 O   0  0  0  0  0  0  0  0  0  0  0  0
   22.5460   16.3290   32.5290 C   0  0  0  0  0  0  0  0  0  0  0  0
   23.3440   15.5590   28.5690 Cl  0  0  0  0  0  0  0  0  0  0  0  0
   22.7600    7.5160   29.5780 H   0  0  0  0  0  0  0  0  0  0  0  0
   24.1090    7.5500   30.7490 H   0  0  0  0  0  0  0  0  0  0  0  0
   22.0700    5.9190   31.1940 H   0  0  0  0  0  0  0  0  0  0  0  0
   22.9720    6.7020   32.4960 H   0  0  0  0  0  0  0  0  0  0  0  0
   17.3660    6.1320   33.3450 H   0  0  0  0  0  0  0  0  0  0  0  0
   15.9990    8.0940   34.2850 H   0  0  0  0  0  0  0  0  0  0  0  0
   17.4720   10.2480   34.1730 H   0  0  0  0  0  0  0  0  0  0  0  0
   22.2920   10.7030   32.1250 H   0  0  0  0  0  0  0  0  0  0  0  0
   23.1650    9.2860   32.9060 H   0  0  0  0  0  0  0  0  0  0  0  0
   23.4030   12.6660   28.2570 H   0  0  0  0  0  0  0  0  0  0  0  0
   21.4390   13.8130   32.6340 H   0  0  0  0  0  0  0  0  0  0  0  0
   21.6990   11.4510   31.9160 H   0  0  0  0  0  0  0  0  0  0  0  0
   23.6030   15.9550   32.6490 H   0  0  0  0  0  0  0  0  0  0  0  0
   22.6410   17.4390   32.5760 H   0  0  0  0  0  0  0  0  0  0  0  0
   21.8850   15.9340   33.3150 H   0  0  0  0  0  0  0  0  0  0  0  0
  1 18  1  0  0  0  0
  1  4  1  0  0  0  0
  2  1  2  0  0  0  0
  3  1  2  0  0  0  0
  4 17  1  0  0  0  0
  5 28  1  0  0  0  0
  5  4  1  0  0  0  0
  5  6  1  0  0  0  0
  6  7  1  0  0  0  0
  6 30  1  0  0  0  0
  7  8  1  1  0  0  0
  7 15  1  0  0  0  0
  8  9  2  0  0  0  0
 10  9  1  6  0  0  0
 10 14  1  0  0  0  0
 11 10  1  0  0  0  0
 11 12  1  0  0  0  0
 12 13  1  0  0  0  0
 13 32  1  0  0  0  0
 14 13  2  0  0  0  0
 14 33  1  0  0  0  0
 15 11  1  0  0  0  0
 16 15  2  0  0  0  0
 17  8  1  0  0  0  0
 17 35  1  0  0  0  0
 18 23  1  0  0  0  0
 19 20  1  0  0  0  0
 19 18  2  0  0  0  0
 20 21  2  0  0  0  0
 21 24  1  0  0  0  0
 21 22  1  0  0  0  0
 22 37  1  0  0  0  0
 23 22  2  0  0  0  0
 23 38  1  0  0  0  0
 24 25  1  0  0  0  0
 25 40  1  0  0  0  0
 25 39  1  0  0  0  0
 25 41  1  0  0  0  0
 26 20  1  0  0  0  0
 27  5  1  0  0  0  0
 29  6  1  0  0  0  0
 31 12  1  0  0  0  0
 34 17  1  0  0  0  0
 36 19  1  0  0  0  0
M  END
>  <Pose>
1

>  <Score>
-7.89

$$$$
