
 OpenBabel03202209553D

 41 43  0  0  1  0  0  0  0  0999 V2000
   19.5010    6.5340   33.0080 Cl  0  0  0  0  0  0  0  0  0  0  0  0
   20.9550    7.0690   32.1690 C   0  0  0  0  0  0  0  0  0  0  0  0
   21.3150    8.3980   32.2210 C   0  0  0  0  0  0  0  0  0  0  0  0
   22.4550    8.7970   31.5590 C   0  0  0  0  0  0  0  0  0  0  0  0
   23.2650    7.9160   30.8350 C   0  0  0  0  0  0  0  0  0  0  0  0
   22.9010    6.6020   30.7900 C   0  0  0  0  0  0  0  0  0  0  0  0
   21.7450    6.1780   31.4570 C   0  0  0  0  0  0  0  0  0  0  0  0
   24.4330    8.4600   30.1900 C   0  0  0  0  0  0  0  0  0  0  0  0
   24.2910    9.3910   29.3470 O   0  0  0  0  0  0  0  0  0  0  0  0
   25.7240    7.9390   30.5120 N   0  0  0  0  0  0  0  0  0  0  0  0
   26.5650    7.5190   29.4300 C   0  0  0  0  0  0  0  0  0  0  0  0
   26.7620    6.0660   29.2530 C   0  0  2  0  0  0  0  0  0  0  0  0
   27.6800    5.6450   28.2390 N   0  0  1  0  0  0  0  0  0  0  0  0
   28.3620    4.4560   28.8070 C   0  0  0  0  0  0  0  0  0  0  0  0
   27.2150    3.6110   29.3750 C   0  0  0  0  0  0  0  0  0  0  0  0
   25.9490    3.9110   28.7370 N   0  0  1  0  0  0  0  0  0  0  0  0
   25.4860    5.2660   29.0470 C   0  0  0  0  0  0  0  0  0  0  0  0
   26.1900    3.9100   27.3050 C   0  0  0  0  0  0  0  0  0  0  0  0
   27.0640    5.1290   27.0340 C   0  0  0  0  0  0  0  0  0  0  0  0
   20.5300    9.2960   32.9310 O   0  0  0  0  0  0  0  0  0  0  0  0
   20.6360   10.6910   32.7250 C   0  0  0  0  0  0  0  0  0  0  0  0
   22.7060    9.8560   31.6240 H   0  0  0  0  0  0  0  0  0  0  0  0
   23.4700    5.8730   30.2600 H   0  0  0  0  0  0  0  0  0  0  0  0
   21.4760    5.1330   31.4070 H   0  0  0  0  0  0  0  0  0  0  0  0
   25.9960    7.8880   31.4930 H   0  0  0  0  0  0  0  0  0  0  0  0
   26.2080    7.9490   28.4830 H   0  0  0  0  0  0  0  0  0  0  0  0
   27.5830    7.9610   29.6340 H   0  0  0  0  0  0  0  0  0  0  0  0
   27.1410    5.6910   30.2630 H   0  0  0  0  0  0  0  0  0  0  0  0
   28.9930    4.8530   29.6240 H   0  0  0  0  0  0  0  0  0  0  0  0
   28.9110    3.9340   28.0210 H   0  0  0  0  0  0  0  0  0  0  0  0
   27.4680    2.5680   29.0880 H   0  0  0  0  0  0  0  0  0  0  0  0
   27.1930    3.6710   30.4670 H   0  0  0  0  0  0  0  0  0  0  0  0
   24.8840    5.6060   28.2050 H   0  0  0  0  0  0  0  0  0  0  0  0
   24.8990    5.2520   29.9920 H   0  0  0  0  0  0  0  0  0  0  0  0
   25.2040    4.0400   26.8180 H   0  0  0  0  0  0  0  0  0  0  0  0
   26.6790    2.9590   27.0650 H   0  0  0  0  0  0  0  0  0  0  0  0
   26.5800    5.8590   26.3970 H   0  0  0  0  0  0  0  0  0  0  0  0
   27.9280    4.7060   26.4290 H   0  0  0  0  0  0  0  0  0  0  0  0
   20.3400   10.8790   31.6710 H   0  0  0  0  0  0  0  0  0  0  0  0
   21.7030   11.0270   32.8150 H   0  0  0  0  0  0  0  0  0  0  0  0
   19.9660   11.2100   33.4100 H   0  0  0  0  0  0  0  0  0  0  0  0
  2  3  1  0  0  0  0
  2  1  1  0  0  0  0
  3 20  1  0  0  0  0
  4 22  1  0  0  0  0
  4  3  2  0  0  0  0
  5  4  1  0  0  0  0
  6  5  2  0  0  0  0
  6  7  1  0  0  0  0
  7  2  2  0  0  0  0
  8 10  1  0  0  0  0
  8  5  1  0  0  0  0
  9  8  2  0  0  0  0
 10 25  1  0  0  0  0
 11 27  1  0  0  0  0
 11 10  1  0  0  0  0
 12 11  1  0  0  0  0
 12 28  1  1  0  0  0
 13 19  1  6  0  0  0
 13 14  1  0  0  0  0
 13 12  1  0  0  0  0
 14 15  1  0  0  0  0
 14 29  1  0  0  0  0
 15 32  1  0  0  0  0
 16 18  1  6  0  0  0
 16 17  1  0  0  0  0
 16 15  1  0  0  0  0
 17 12  1  0  0  0  0
 17 34  1  0  0  0  0
 19 18  1  0  0  0  0
 21 40  1  0  0  0  0
 21 20  1  0  0  0  0
 21 41  1  0  0  0  0
 23  6  1  0  0  0  0
 24  7  1  0  0  0  0
 26 11  1  0  0  0  0
 30 14  1  0  0  0  0
 31 15  1  0  0  0  0
 33 17  1  0  0  0  0
 35 18  1  0  0  0  0
 36 18  1  0  0  0  0
 37 19  1  0  0  0  0
 38 19  1  0  0  0  0
 39 21  1  0  0  0  0
M  END
>  <Pose>
1

>  <Score>
-5.18

$$$$
