
 OpenBabel03202209553D

 51 54  0  0  0  0  0  0  0  0999 V2000
   23.4290   18.4230   26.3360 Cl  0  0  0  0  0  0  0  0  0  0  0  0
   23.2430   17.1540   27.5230 C   0  0  0  0  0  0  0  0  0  0  0  0
   22.4690   17.3490   28.6330 C   0  0  0  0  0  0  0  0  0  0  0  0
   22.3290   16.3100   29.5620 C   0  0  0  0  0  0  0  0  0  0  0  0
   22.9450   15.0920   29.3970 C   0  0  0  0  0  0  0  0  0  0  0  0
   23.7420   14.8770   28.2580 C   0  0  0  0  0  0  0  0  0  0  0  0
   23.8590   15.9270   27.3620 C   0  0  0  0  0  0  0  0  0  0  0  0
   22.6390   14.2820   30.4060 N   0  0  0  0  0  0  0  0  0  0  0  0
   21.8120   15.0220   31.2200 C   0  0  0  0  0  0  0  0  0  0  0  0
   21.2980   14.6130   32.3000 O   0  0  0  0  0  0  0  0  0  0  0  0
   21.6600   16.2050   30.6800 O   0  0  0  0  0  0  0  0  0  0  0  0
   23.0830   12.9380   30.7370 C   0  0  0  0  0  0  0  0  0  0  0  0
   22.5500   11.8390   29.9380 C   0  0  0  0  0  0  0  0  0  0  0  0
   23.2800   10.6120   29.7340 C   0  0  0  0  0  0  0  0  0  0  0  0
   23.9900   10.5780   28.6570 O   0  0  0  0  0  0  0  0  0  0  0  0
   23.3480    9.4710   30.5370 N   0  0  0  0  0  0  0  0  0  0  0  0
   22.1760    8.7030   30.9970 C   0  0  0  0  0  0  0  0  0  0  0  0
   22.3850    7.4210   30.1300 C   0  0  0  0  0  0  0  0  0  0  0  0
   23.5930    6.7620   30.6060 N   0  0  0  0  0  0  0  0  0  0  0  0
   24.5700    7.4650   31.2360 C   0  0  0  0  0  0  0  0  0  0  0  0
   24.5870    8.9550   31.0490 C   0  0  0  0  0  0  0  0  0  0  0  0
   23.7100    5.5540   29.9380 C   0  0  0  0  0  0  0  0  0  0  0  0
   23.9110    4.3850   30.9030 C   0  0  0  0  0  0  0  0  0  0  0  0
   23.0930    4.3990   31.9010 O   0  0  0  0  0  0  0  0  0  0  0  0
   24.8530    3.4730   30.6980 N   0  0  0  0  0  0  0  0  0  0  0  0
   25.8570    2.5020   30.4810 C   0  0  0  0  0  0  0  0  0  0  0  0
   27.1710    3.0540   29.8080 C   0  0  0  0  0  0  0  0  0  0  0  0
   26.2670    2.2080   29.0520 C   0  0  0  0  0  0  0  0  0  0  0  0
   21.9700   18.2990   28.8000 H   0  0  0  0  0  0  0  0  0  0  0  0
   24.2080   13.9350   28.1590 H   0  0  0  0  0  0  0  0  0  0  0  0
   24.4750   15.7590   26.4930 H   0  0  0  0  0  0  0  0  0  0  0  0
   22.8260   12.7830   31.8290 H   0  0  0  0  0  0  0  0  0  0  0  0
   24.2180   13.0230   30.6670 H   0  0  0  0  0  0  0  0  0  0  0  0
   22.2960   12.2170   28.8750 H   0  0  0  0  0  0  0  0  0  0  0  0
   21.5470   11.5320   30.4050 H   0  0  0  0  0  0  0  0  0  0  0  0
   21.2340    9.1650   30.8210 H   0  0  0  0  0  0  0  0  0  0  0  0
   22.2730    8.4140   32.0590 H   0  0  0  0  0  0  0  0  0  0  0  0
   21.5300    6.7560   30.2370 H   0  0  0  0  0  0  0  0  0  0  0  0
   22.5140    7.6510   29.0720 H   0  0  0  0  0  0  0  0  0  0  0  0
   25.6020    7.0750   30.9690 H   0  0  0  0  0  0  0  0  0  0  0  0
   24.5320    7.2390   32.3760 H   0  0  0  0  0  0  0  0  0  0  0  0
   25.4620    9.2870   30.4980 H   0  0  0  0  0  0  0  0  0  0  0  0
   24.7420    9.3750   32.1110 H   0  0  0  0  0  0  0  0  0  0  0  0
   24.5960    5.5810   29.2590 H   0  0  0  0  0  0  0  0  0  0  0  0
   22.8400    5.2950   29.2630 H   0  0  0  0  0  0  0  0  0  0  0  0
   23.9970    2.6900   29.9920 H   0  0  0  0  0  0  0  0  0  0  0  0
   26.2010    1.8630   31.3260 H   0  0  0  0  0  0  0  0  0  0  0  0
   27.2190    4.1290   29.8460 H   0  0  0  0  0  0  0  0  0  0  0  0
   28.1290    2.5610   30.1530 H   0  0  0  0  0  0  0  0  0  0  0  0
   25.6260    2.6080   28.2180 H   0  0  0  0  0  0  0  0  0  0  0  0
   26.6260    1.1750   28.7860 H   0  0  0  0  0  0  0  0  0  0  0  0
  1  2  1  0  0  0  0
  2  3  1  0  0  0  0
  3 29  1  0  0  0  0
  3  4  2  0  0  0  0
  4 11  1  0  0  0  0
  5  4  1  0  0  0  0
  5  8  1  0  0  0  0
  6  5  2  0  0  0  0
  7  2  2  0  0  0  0
  7  6  1  0  0  0  0
  8 12  1  0  0  0  0
  8  9  1  0  0  0  0
  9 10  2  0  0  0  0
 11  9  1  0  0  0  0
 12 32  1  0  0  0  0
 13 35  1  0  0  0  0
 13 12  1  0  0  0  0
 14 13  1  0  0  0  0
 14 16  1  0  0  0  0
 15 14  2  0  0  0  0
 16 17  1  0  0  0  0
 16 21  1  0  0  0  0
 17 37  1  0  0  0  0
 18 38  1  0  0  0  0
 18 19  1  0  0  0  0
 18 17  1  0  0  0  0
 19 20  1  0  0  0  0
 20 41  1  0  0  0  0
 21 20  1  0  0  0  0
 21 43  1  0  0  0  0
 22 19  1  0  0  0  0
 22 23  1  0  0  0  0
 23 24  2  0  0  0  0
 25 23  1  0  0  0  0
 26 25  1  0  0  0  0
 26 47  1  0  0  0  0
 27 48  1  0  0  0  0
 27 49  1  0  0  0  0
 27 26  1  0  0  0  0
 28 27  1  0  0  0  0
 28 26  1  0  0  0  0
 30  6  1  0  0  0  0
 31  7  1  0  0  0  0
 33 12  1  0  0  0  0
 34 13  1  0  0  0  0
 36 17  1  0  0  0  0
 39 18  1  0  0  0  0
 40 20  1  0  0  0  0
 42 21  1  0  0  0  0
 44 22  1  0  0  0  0
 45 22  1  0  0  0  0
 46 25  1  0  0  0  0
 50 28  1  0  0  0  0
 51 28  1  0  0  0  0
M  END
>  <Pose>
1

>  <Score>
-6.81

$$$$
