
 OpenBabel03202209553D

 36 39  0  0  1  0  0  0  0  0999 V2000
   20.9340    5.7540   31.9320 Cl  0  0  0  0  0  0  0  0  0  0  0  0
   22.0290    6.9680   31.3020 C   0  0  0  0  0  0  0  0  0  0  0  0
   23.1560    6.5380   30.6340 C   0  0  0  0  0  0  0  0  0  0  0  0
   23.9890    7.5610   30.1630 C   0  0  0  0  0  0  0  0  0  0  0  0
   25.0220    7.2290   29.5510 O   0  0  0  0  0  0  0  0  0  0  0  0
   23.6870    8.8500   30.3600 N   0  0  0  0  0  0  0  0  0  0  0  0
   22.6020    9.2560   31.0030 N   0  0  0  0  0  0  0  0  0  0  0  0
   22.4210   10.6950   31.1240 C   0  0  1  0  0  0  0  0  0  0  0  0
   23.6640   11.2290   31.8130 C   0  0  1  0  0  0  0  0  0  0  0  0
   24.8780   10.7490   31.1420 C   0  0  1  0  0  0  0  0  0  0  0  0
   24.5450    9.9370   29.8830 C   0  0  2  0  0  0  0  0  0  0  0  0
   23.6240   10.8030   29.0700 C   0  0  0  0  0  0  0  0  0  0  0  0
   22.5310   11.1960   29.7030 C   0  0  0  0  0  0  0  0  0  0  0  0
   24.5110   12.2400   31.1370 C   0  0  0  0  0  0  0  0  0  0  0  0
   21.7770    8.3260   31.4730 C   0  0  0  0  0  0  0  0  0  0  0  0
   20.7440    8.7010   32.0840 O   0  0  0  0  0  0  0  0  0  0  0  0
   23.4880    5.1700   30.4120 N   0  0  0  0  0  0  0  0  0  0  0  0
   24.1280    4.3170   31.3460 C   0  0  0  0  0  0  0  0  0  0  0  0
   23.1900    3.5310   32.2260 C   0  0  0  0  0  0  0  0  0  0  0  0
   25.0580    3.3040   30.6940 C   0  0  0  0  0  0  0  0  0  0  0  0
   21.4910   10.9850   31.6010 H   0  0  0  0  0  0  0  0  0  0  0  0
   23.5690   11.3320   32.9070 H   0  0  0  0  0  0  0  0  0  0  0  0
   25.7980   10.4680   31.6870 H   0  0  0  0  0  0  0  0  0  0  0  0
   25.4190    9.6010   29.3460 H   0  0  0  0  0  0  0  0  0  0  0  0
   23.9020   11.0380   28.0600 H   0  0  0  0  0  0  0  0  0  0  0  0
   21.7420   11.8140   29.3200 H   0  0  0  0  0  0  0  0  0  0  0  0
   25.1070   12.9190   31.7500 H   0  0  0  0  0  0  0  0  0  0  0  0
   24.1440   12.5910   30.1310 H   0  0  0  0  0  0  0  0  0  0  0  0
   23.2250    4.7960   29.4760 H   0  0  0  0  0  0  0  0  0  0  0  0
   24.7700    4.9120   32.0260 H   0  0  0  0  0  0  0  0  0  0  0  0
   22.6520    4.1560   32.9670 H   0  0  0  0  0  0  0  0  0  0  0  0
   23.7760    2.7990   32.8570 H   0  0  0  0  0  0  0  0  0  0  0  0
   22.4590    2.9310   31.6920 H   0  0  0  0  0  0  0  0  0  0  0  0
   25.5560    2.7710   31.5540 H   0  0  0  0  0  0  0  0  0  0  0  0
   25.8770    3.8110   30.1540 H   0  0  0  0  0  0  0  0  0  0  0  0
   24.5320    2.5380   30.1270 H   0  0  0  0  0  0  0  0  0  0  0  0
  2 15  1  0  0  0  0
  2  1  1  0  0  0  0
  3  2  2  0  0  0  0
  4  6  1  0  0  0  0
  4  3  1  0  0  0  0
  5  4  2  0  0  0  0
  6  7  1  0  0  0  0
  7  8  1  0  0  0  0
  7 15  1  0  0  0  0
  8 21  1  1  0  0  0
  8  9  1  0  0  0  0
  9 22  1  1  0  0  0
 10 23  1  1  0  0  0
 10  9  1  0  0  0  0
 11 24  1  6  0  0  0
 11  6  1  0  0  0  0
 11 10  1  0  0  0  0
 12 13  2  0  0  0  0
 12 11  1  0  0  0  0
 13  8  1  0  0  0  0
 14 10  1  0  0  0  0
 14 27  1  0  0  0  0
 14  9  1  0  0  0  0
 15 16  2  0  0  0  0
 17  3  1  0  0  0  0
 17 18  1  0  0  0  0
 18 30  1  0  0  0  0
 18 19  1  0  0  0  0
 19 32  1  0  0  0  0
 19 31  1  0  0  0  0
 20 18  1  0  0  0  0
 20 34  1  0  0  0  0
 25 12  1  0  0  0  0
 26 13  1  0  0  0  0
 28 14  1  0  0  0  0
 29 17  1  0  0  0  0
 33 19  1  0  0  0  0
 35 20  1  0  0  0  0
 36 20  1  0  0  0  0
M  END
>  <Pose>
1

>  <Score>
-4.79

$$$$
