
 OpenBabel03202209553D

 59 62  0  0  1  0  0  0  0  0999 V2000
   21.2360    5.4100   31.9970 Cl  0  0  0  0  0  0  0  0  0  0  0  0
   22.8450    5.5270   31.1780 C   0  0  2  0  0  0  0  0  0  0  0  0
   23.1320    6.6670   30.5640 C   0  0  2  0  0  0  0  0  0  0  0  0
   24.4410    6.6870   29.8680 C   0  0  0  0  0  0  0  0  0  0  0  0
   25.1710    5.6390   29.9420 N   0  0  0  0  0  0  0  0  0  0  0  0
   24.8460    4.4940   30.5980 N   0  0  0  0  0  0  0  0  0  0  0  0
   23.6970    4.4220   31.2120 C   0  0  0  0  0  0  0  0  0  0  0  0
   23.3010    3.3990   31.8660 O   0  0  0  0  0  0  0  0  0  0  0  0
   25.9190    3.5210   30.7950 C   0  0  0  0  0  0  0  0  0  0  0  0
   25.9860    2.3510   30.1080 C   0  0  0  0  0  0  0  0  0  0  0  0
   27.0720    1.5120   30.2260 C   0  0  0  0  0  0  0  0  0  0  0  0
   28.1400    1.8430   31.0580 C   0  0  0  0  0  0  0  0  0  0  0  0
   28.0390    3.0460   31.7570 C   0  0  0  0  0  0  0  0  0  0  0  0
   26.9730    3.8480   31.6280 C   0  0  0  0  0  0  0  0  0  0  0  0
   22.5290    7.8990   30.7640 N   0  0  0  0  0  0  0  0  0  0  0  0
   21.4560    8.5850   30.1790 C   0  0  0  0  0  0  0  0  0  0  0  0
   22.0270    9.9420   29.6230 C   0  0  0  0  0  0  0  0  0  0  0  0
   23.3960   10.0820   29.5810 N   0  0  0  0  0  0  0  0  0  0  0  0
   24.2110    9.3490   30.5120 C   0  0  0  0  0  0  0  0  0  0  0  0
   23.3260    8.8150   31.6860 C   0  0  0  0  0  0  0  0  0  0  0  0
   23.8980   11.4850   29.7640 C   0  0  0  0  0  0  0  0  0  0  0  0
   24.2380   12.0580   28.4710 C   0  0  0  0  0  0  0  0  0  0  0  0
   25.0000   11.8500   27.6800 O   0  0  0  0  0  0  0  0  0  0  0  0
   23.1840   13.3540   28.1160 N   0  0  0  0  0  0  0  0  0  0  0  0
   23.2880   13.9700   29.4860 C   0  0  0  0  0  0  0  0  0  0  0  0
   24.1470   13.7410   30.2930 O   0  0  0  0  0  0  0  0  0  0  0  0
   22.2050   14.9030   29.6960 N   0  0  0  0  0  0  0  0  0  0  0  0
   21.4690   15.1180   30.8840 C   0  0  0  0  0  0  0  0  0  0  0  0
   21.8530   14.4130   32.1200 C   0  0  0  0  0  0  0  0  0  0  0  0
   22.8280   15.3180   32.8800 C   0  0  0  0  0  0  0  0  0  0  0  0
   22.2920   16.6860   32.5290 C   0  0  0  0  0  0  0  0  0  0  0  0
   21.6660   16.6140   31.2070 C   0  0  0  0  0  0  0  0  0  0  0  0
   24.5790    7.6250   29.3780 H   0  0  0  0  0  0  0  0  0  0  0  0
   25.1550    2.0560   29.4680 H   0  0  0  0  0  0  0  0  0  0  0  0
   27.1560    0.6260   29.6750 H   0  0  0  0  0  0  0  0  0  0  0  0
   28.9670    1.1710   31.1090 H   0  0  0  0  0  0  0  0  0  0  0  0
   28.9030    3.2850   32.3790 H   0  0  0  0  0  0  0  0  0  0  0  0
   26.9330    4.7770   32.1820 H   0  0  0  0  0  0  0  0  0  0  0  0
   20.8470    8.0860   29.4370 H   0  0  0  0  0  0  0  0  0  0  0  0
   20.7410    8.8350   31.0130 H   0  0  0  0  0  0  0  0  0  0  0  0
   21.5070   10.7130   30.2710 H   0  0  0  0  0  0  0  0  0  0  0  0
   21.4840   10.0760   28.6380 H   0  0  0  0  0  0  0  0  0  0  0  0
   24.6500    8.4040   30.1080 H   0  0  0  0  0  0  0  0  0  0  0  0
   24.9080   10.0110   31.0200 H   0  0  0  0  0  0  0  0  0  0  0  0
   23.8690    8.3100   32.4260 H   0  0  0  0  0  0  0  0  0  0  0  0
   22.6750    9.6800   31.9650 H   0  0  0  0  0  0  0  0  0  0  0  0
   23.0820   11.9660   30.2880 H   0  0  0  0  0  0  0  0  0  0  0  0
   24.7840   11.4240   30.4030 H   0  0  0  0  0  0  0  0  0  0  0  0
   23.1320   13.0320   27.4150 H   0  0  0  0  0  0  0  0  0  0  0  0
   21.9270   15.4800   28.8330 H   0  0  0  0  0  0  0  0  0  0  0  0
   20.3530   14.8780   30.7030 H   0  0  0  0  0  0  0  0  0  0  0  0
   20.9490   14.3440   32.7720 H   0  0  0  0  0  0  0  0  0  0  0  0
   22.2800   13.3990   31.9800 H   0  0  0  0  0  0  0  0  0  0  0  0
   23.8630   15.2000   32.4940 H   0  0  0  0  0  0  0  0  0  0  0  0
   22.7790   15.1320   33.9850 H   0  0  0  0  0  0  0  0  0  0  0  0
   23.2230   17.3540   32.4390 H   0  0  0  0  0  0  0  0  0  0  0  0
   21.6400   17.1280   33.3090 H   0  0  0  0  0  0  0  0  0  0  0  0
   20.7490   17.2140   31.0400 H   0  0  0  0  0  0  0  0  0  0  0  0
   22.4670   16.9910   30.4530 H   0  0  0  0  0  0  0  0  0  0  0  0
  2  7  1  0  0  0  0
  2  1  1  6  0  0  0
  3 15  1  1  0  0  0
  3  2  1  0  0  0  0
  4  5  2  0  0  0  0
  4  3  1  0  0  0  0
  5  6  1  0  0  0  0
  6  9  1  0  0  0  0
  6  7  1  0  0  0  0
  7  8  2  0  0  0  0
  9 14  1  0  0  0  0
 10 11  1  0  0  0  0
 10  9  2  0  0  0  0
 11 12  2  0  0  0  0
 12 36  1  0  0  0  0
 12 13  1  0  0  0  0
 13 37  1  0  0  0  0
 14 13  2  0  0  0  0
 14 38  1  0  0  0  0
 15 20  1  0  0  0  0
 16 15  1  0  0  0  0
 16 40  1  0  0  0  0
 17 16  1  0  0  0  0
 17 41  1  0  0  0  0
 18 17  1  0  0  0  0
 18 21  1  0  0  0  0
 18 19  1  0  0  0  0
 19 44  1  0  0  0  0
 19 20  1  0  0  0  0
 20 46  1  0  0  0  0
 20 45  1  0  0  0  0
 21 47  1  0  0  0  0
 21 48  1  0  0  0  0
 22 21  1  0  0  0  0
 23 22  2  0  0  0  0
 24 22  1  0  0  0  0
 24 25  1  0  0  0  0
 25 27  1  0  0  0  0
 25 26  2  0  0  0  0
 27 28  1  0  0  0  0
 28 32  1  0  0  0  0
 28 29  1  0  0  0  0
 29 52  1  0  0  0  0
 29 30  1  0  0  0  0
 30 55  1  0  0  0  0
 31 30  1  0  0  0  0
 31 57  1  0  0  0  0
 32 31  1  0  0  0  0
 33  4  1  0  0  0  0
 34 10  1  0  0  0  0
 35 11  1  0  0  0  0
 39 16  1  0  0  0  0
 42 17  1  0  0  0  0
 43 19  1  0  0  0  0
 49 24  1  0  0  0  0
 50 27  1  0  0  0  0
 51 28  1  0  0  0  0
 53 29  1  0  0  0  0
 54 30  1  0  0  0  0
 56 31  1  0  0  0  0
 58 32  1  0  0  0  0
 59 32  1  0  0  0  0
M  END
>  <Pose>
1

>  <Score>
-6.79

$$$$
