
 OpenBabel03202209553D

 38 41  0  0  0  0  0  0  0  0999 V2000
   20.8920    5.6640   31.7920 Cl  0  0  0  0  0  0  0  0  0  0  0  0
   21.8690    7.1090   31.6430 C   0  0  0  0  0  0  0  0  0  0  0  0
   23.1030    7.1050   31.0050 C   0  0  0  0  0  0  0  0  0  0  0  0
   23.8970    8.2100   30.8770 C   0  0  0  0  0  0  0  0  0  0  0  0
   23.4790    9.4030   31.3940 C   0  0  0  0  0  0  0  0  0  0  0  0
   22.2430    9.4410   32.0380 C   0  0  0  0  0  0  0  0  0  0  0  0
   21.4560    8.3120   32.1590 C   0  0  0  0  0  0  0  0  0  0  0  0
   24.2190   10.6740   31.3330 C   0  0  0  0  0  0  0  0  0  0  0  0
   23.2850   11.8090   31.5960 C   0  0  0  0  0  0  0  0  0  0  0  0
   22.4570   12.1280   30.3390 C   0  0  0  0  0  0  0  0  0  0  0  0
   23.4780   12.5920   29.3890 N   0  0  0  0  0  0  0  0  0  0  0  0
   24.4080   11.5870   28.9810 C   0  0  0  0  0  0  0  0  0  0  0  0
   25.0570   10.8650   30.1260 C   0  0  0  0  0  0  0  0  0  0  0  0
   23.4590   13.9450   28.9730 C   0  0  0  0  0  0  0  0  0  0  0  0
   22.7380   14.8420   29.6690 N   0  0  0  0  0  0  0  0  0  0  0  0
   22.6490   16.1270   29.3900 N   0  0  0  0  0  0  0  0  0  0  0  0
   22.0150   17.1700   29.9320 N   0  0  0  0  0  0  0  0  0  0  0  0
   22.2650   18.2680   29.2530 N   0  0  0  0  0  0  0  0  0  0  0  0
   23.0620   17.9460   28.2710 N   0  0  0  0  0  0  0  0  0  0  0  0
   23.3110   16.6150   28.3430 C   0  0  0  0  0  0  0  0  0  0  0  0
   24.0750   15.7510   27.5780 C   0  0  0  0  0  0  0  0  0  0  0  0
   24.1570   14.4090   27.8840 C   0  0  0  0  0  0  0  0  0  0  0  0
   25.0920   10.6330   32.4500 O   0  0  0  0  0  0  0  0  0  0  0  0
   23.4590    6.1770   30.5930 H   0  0  0  0  0  0  0  0  0  0  0  0
   24.8560    8.2060   30.3740 H   0  0  0  0  0  0  0  0  0  0  0  0
   21.8360   10.3350   32.4750 H   0  0  0  0  0  0  0  0  0  0  0  0
   20.4780    8.3560   32.6790 H   0  0  0  0  0  0  0  0  0  0  0  0
   22.5590   11.5680   32.4000 H   0  0  0  0  0  0  0  0  0  0  0  0
   23.7940   12.7450   31.8780 H   0  0  0  0  0  0  0  0  0  0  0  0
   21.7220   12.9150   30.5570 H   0  0  0  0  0  0  0  0  0  0  0  0
   22.0070   11.2280   29.8960 H   0  0  0  0  0  0  0  0  0  0  0  0
   23.8160   10.8160   28.4000 H   0  0  0  0  0  0  0  0  0  0  0  0
   25.1880   11.9710   28.2960 H   0  0  0  0  0  0  0  0  0  0  0  0
   25.9330   11.5200   30.4260 H   0  0  0  0  0  0  0  0  0  0  0  0
   25.5230    9.9360   29.7690 H   0  0  0  0  0  0  0  0  0  0  0  0
   24.5960   16.1820   26.7390 H   0  0  0  0  0  0  0  0  0  0  0  0
   24.7500   13.7380   27.2890 H   0  0  0  0  0  0  0  0  0  0  0  0
   25.4190    9.6830   32.5230 H   0  0  0  0  0  0  0  0  0  0  0  0
  2  1  1  0  0  0  0
  2  7  1  0  0  0  0
  3  2  2  0  0  0  0
  4  3  1  0  0  0  0
  4  5  2  0  0  0  0
  5  6  1  0  0  0  0
  6  7  2  0  0  0  0
  6 26  1  0  0  0  0
  7 27  1  0  0  0  0
  8  5  1  0  0  0  0
  8  9  1  0  0  0  0
  8 23  1  0  0  0  0
  9 29  1  0  0  0  0
  9 28  1  0  0  0  0
 10 30  1  0  0  0  0
 10  9  1  0  0  0  0
 11 10  1  0  0  0  0
 12 11  1  0  0  0  0
 12 13  1  0  0  0  0
 13 34  1  0  0  0  0
 13  8  1  0  0  0  0
 14 11  1  0  0  0  0
 14 15  2  0  0  0  0
 16 15  1  0  0  0  0
 16 17  1  0  0  0  0
 18 17  2  0  0  0  0
 19 20  2  0  0  0  0
 19 18  1  0  0  0  0
 20 16  1  0  0  0  0
 21 22  2  0  0  0  0
 21 20  1  0  0  0  0
 22 14  1  0  0  0  0
 23 38  1  0  0  0  0
 24  3  1  0  0  0  0
 25  4  1  0  0  0  0
 31 10  1  0  0  0  0
 32 12  1  0  0  0  0
 33 12  1  0  0  0  0
 35 13  1  0  0  0  0
 36 21  1  0  0  0  0
 37 22  1  0  0  0  0
M  END
>  <Pose>
1

>  <Score>
-6.38

$$$$
