
 OpenBabel03202209553D

 50 53  0  0  1  0  0  0  0  0999 V2000
   23.8850    8.6250   30.6760 S   0  0  0  0  0  0  0  0  0  0  0  0
   23.8510    7.9780   29.3280 O   0  0  0  0  0  0  0  0  0  0  0  0
   24.8440    7.8210   31.5180 O   0  0  0  0  0  0  0  0  0  0  0  0
   24.4670   10.2160   30.5740 N   0  0  0  0  0  0  0  0  0  0  0  0
   24.3260   10.9990   31.7420 C   0  0  0  0  0  0  0  0  0  0  0  0
   24.2810   12.4860   31.5090 C   0  0  0  0  0  0  0  0  0  0  0  0
   23.4710   12.8570   30.3820 N   0  0  0  0  0  0  0  0  0  0  0  0
   23.0570   11.7960   29.4990 C   0  0  0  0  0  0  0  0  0  0  0  0
   24.2590   10.8700   29.3300 C   0  0  0  0  0  0  0  0  0  0  0  0
   23.1220   14.2010   30.1770 C   0  0  0  0  0  0  0  0  0  0  0  0
   21.9080   14.5140   30.3380 O   0  0  0  0  0  0  0  0  0  0  0  0
   24.0840   15.2670   29.7840 C   0  0  2  0  0  0  0  0  0  0  0  0
   23.5270   16.1570   28.8330 N   0  0  0  0  0  0  0  0  0  0  0  0
   23.7070   15.8170   27.4590 C   0  0  2  0  0  0  0  0  0  0  0  0
   25.2940   14.9580   27.4660 S   0  0  0  0  0  0  0  0  0  0  0  0
   25.3830   14.7090   29.2840 C   0  0  0  0  0  0  0  0  0  0  0  0
   23.9320   17.1680   26.8080 C   0  0  0  0  0  0  0  0  0  0  0  0
   22.7790   17.9420   27.4590 C   0  0  0  0  0  0  0  0  0  0  0  0
   22.7730   17.3910   28.8120 C   0  0  0  0  0  0  0  0  0  0  0  0
   22.1840   17.9420   29.7900 O   0  0  0  0  0  0  0  0  0  0  0  0
   22.6120   15.0570   26.8220 C   0  0  0  0  0  0  0  0  0  0  0  0
   22.3140    8.5170   31.4650 C   0  0  0  0  0  0  0  0  0  0  0  0
   21.6430    9.6580   31.8470 C   0  0  0  0  0  0  0  0  0  0  0  0
   20.4160    9.6090   32.4660 C   0  0  0  0  0  0  0  0  0  0  0  0
   19.7950    8.4020   32.7350 C   0  0  0  0  0  0  0  0  0  0  0  0
   20.4940    7.2740   32.3390 C   0  0  0  0  0  0  0  0  0  0  0  0
   21.7180    7.3080   31.7200 C   0  0  0  0  0  0  0  0  0  0  0  0
   18.2340    8.3030   33.5220 Cl  0  0  0  0  0  0  0  0  0  0  0  0
   25.1040   10.7280   32.4850 H   0  0  0  0  0  0  0  0  0  0  0  0
   23.3440   10.7280   32.2210 H   0  0  0  0  0  0  0  0  0  0  0  0
   25.3330   12.8390   31.4340 H   0  0  0  0  0  0  0  0  0  0  0  0
   23.8900   12.9810   32.4460 H   0  0  0  0  0  0  0  0  0  0  0  0
   22.6990   12.1620   28.5190 H   0  0  0  0  0  0  0  0  0  0  0  0
   22.2550   11.2290   30.0270 H   0  0  0  0  0  0  0  0  0  0  0  0
   25.1290   11.4180   28.9640 H   0  0  0  0  0  0  0  0  0  0  0  0
   24.0260   10.0880   28.5620 H   0  0  0  0  0  0  0  0  0  0  0  0
   24.3400   15.8050   30.7220 H   0  0  0  0  0  0  0  0  0  0  0  0
   26.2760   15.2530   29.6340 H   0  0  0  0  0  0  0  0  0  0  0  0
   25.5370   13.6360   29.5150 H   0  0  0  0  0  0  0  0  0  0  0  0
   24.9170   17.5320   27.1780 H   0  0  0  0  0  0  0  0  0  0  0  0
   23.8460   17.1400   25.7230 H   0  0  0  0  0  0  0  0  0  0  0  0
   23.0460   19.0280   27.4440 H   0  0  0  0  0  0  0  0  0  0  0  0
   21.8620   17.7070   26.9110 H   0  0  0  0  0  0  0  0  0  0  0  0
   22.6270   15.2900   25.7160 H   0  0  0  0  0  0  0  0  0  0  0  0
   22.7630   13.9450   26.8590 H   0  0  0  0  0  0  0  0  0  0  0  0
   21.6030   15.3560   27.1600 H   0  0  0  0  0  0  0  0  0  0  0  0
   22.1210   10.6230   31.6420 H   0  0  0  0  0  0  0  0  0  0  0  0
   19.8970   10.5210   32.7630 H   0  0  0  0  0  0  0  0  0  0  0  0
   19.9810    6.3320   32.5640 H   0  0  0  0  0  0  0  0  0  0  0  0
   22.1970    6.3910   31.4440 H   0  0  0  0  0  0  0  0  0  0  0  0
  1 22  1  0  0  0  0
  1  3  2  0  0  0  0
  2  1  2  0  0  0  0
  4  1  1  0  0  0  0
  4  5  1  0  0  0  0
  5 30  1  0  0  0  0
  5 29  1  0  0  0  0
  6  5  1  0  0  0  0
  6 32  1  0  0  0  0
  7  6  1  0  0  0  0
  8 34  1  0  0  0  0
  8  7  1  0  0  0  0
  9  8  1  0  0  0  0
  9  4  1  0  0  0  0
 10 11  2  0  0  0  0
 10  7  1  0  0  0  0
 12 10  1  0  0  0  0
 12 37  1  1  0  0  0
 13 12  1  0  0  0  0
 14 21  1  6  0  0  0
 14 15  1  0  0  0  0
 14 13  1  0  0  0  0
 15 16  1  0  0  0  0
 16 39  1  0  0  0  0
 16 38  1  0  0  0  0
 16 12  1  0  0  0  0
 17 40  1  0  0  0  0
 17 18  1  0  0  0  0
 17 14  1  0  0  0  0
 18 19  1  0  0  0  0
 19 13  1  0  0  0  0
 19 20  2  0  0  0  0
 21 45  1  0  0  0  0
 21 46  1  0  0  0  0
 22 27  2  0  0  0  0
 22 23  1  0  0  0  0
 23 24  2  0  0  0  0
 24 25  1  0  0  0  0
 24 48  1  0  0  0  0
 25 28  1  0  0  0  0
 26 49  1  0  0  0  0
 26 25  2  0  0  0  0
 27 26  1  0  0  0  0
 31  6  1  0  0  0  0
 33  8  1  0  0  0  0
 35  9  1  0  0  0  0
 36  9  1  0  0  0  0
 41 17  1  0  0  0  0
 42 18  1  0  0  0  0
 43 18  1  0  0  0  0
 44 21  1  0  0  0  0
 47 23  1  0  0  0  0
 50 27  1  0  0  0  0
M  END
>  <Pose>
1

>  <Score>
-5.79

$$$$
