
 OpenBabel03202209553D

 44 47  0  0  1  0  0  0  0  0999 V2000
   24.4800    5.9160   30.0340 B   0  0  0  0  0  0  0  0  0  0  0  0
   23.1530    7.1790   30.5890 C   0  0  0  0  0  0  0  0  0  0  0  0
   23.1690    8.4870   30.1500 C   0  0  0  0  0  0  0  0  0  0  0  0
   22.2140    9.4090   30.5420 C   0  0  0  0  0  0  0  0  0  0  0  0
   21.2370    8.9530   31.4010 C   0  0  0  0  0  0  0  0  0  0  0  0
   21.1880    7.6570   31.8600 C   0  0  0  0  0  0  0  0  0  0  0  0
   22.1520    6.7470   31.4580 C   0  0  0  0  0  0  0  0  0  0  0  0
   19.8040    7.0890   33.0500 B   0  0  0  0  0  0  0  0  0  0  0  0
   22.4600   10.7090   29.9350 C   0  0  0  0  0  0  0  0  0  0  0  0
   21.8120   11.8080   30.0440 N   0  0  0  0  0  0  0  0  0  0  0  0
   22.1910   12.9790   29.3820 N   0  0  0  0  0  0  0  0  0  0  0  0
   23.2210   13.7600   29.9520 C   0  0  0  0  0  0  0  0  0  0  0  0
   23.5760   13.5750   31.1340 O   0  0  0  0  0  0  0  0  0  0  0  0
   23.9310   14.8320   29.1840 C   0  0  0  0  0  0  0  0  0  0  0  0
   23.0560   15.5020   28.2620 N   0  0  0  0  0  0  0  0  0  0  0  0
   23.2080   16.8710   27.9100 C   0  0  0  0  0  0  0  0  0  0  0  0
   23.2520   17.7180   28.8280 O   0  0  0  0  0  0  0  0  0  0  0  0
   23.3160   17.3520   26.5000 C   0  0  2  0  0  0  0  0  0  0  0  0
   24.1500   16.5360   25.7320 O   0  0  0  0  0  0  0  0  0  0  0  0
   25.4060   16.9050   25.2560 C   0  0  0  0  0  0  0  0  0  0  0  0
   25.6870   18.2450   25.2180 C   0  0  0  0  0  0  0  0  0  0  0  0
   26.9370   18.6440   24.7440 C   0  0  0  0  0  0  0  0  0  0  0  0
   27.8870   17.7440   24.3180 C   0  0  0  0  0  0  0  0  0  0  0  0
   27.5680   16.4010   24.3710 C   0  0  0  0  0  0  0  0  0  0  0  0
   26.3370   16.0020   24.8370 C   0  0  0  0  0  0  0  0  0  0  0  0
   24.7490   19.1480   25.6390 O   0  0  0  0  0  0  0  0  0  0  0  0
   23.6340   18.8030   26.4140 C   0  0  0  0  0  0  0  0  0  0  0  0
   23.6630   10.5400   29.1140 C   0  0  0  0  0  0  0  0  0  0  0  0
   24.1830   11.4640   28.4310 O   0  0  0  0  0  0  0  0  0  0  0  0
   24.0480    9.1900   29.2780 N   0  0  0  0  0  0  0  0  0  0  0  0
   20.4720    9.6340   31.7340 H   0  0  0  0  0  0  0  0  0  0  0  0
   22.1330    5.7370   31.8000 H   0  0  0  0  0  0  0  0  0  0  0  0
   21.6890   13.2150   28.5000 H   0  0  0  0  0  0  0  0  0  0  0  0
   24.2710   15.5670   29.9460 H   0  0  0  0  0  0  0  0  0  0  0  0
   24.8450   14.4330   28.6910 H   0  0  0  0  0  0  0  0  0  0  0  0
   22.2600   14.9990   27.8050 H   0  0  0  0  0  0  0  0  0  0  0  0
   22.2770   17.2010   26.0800 H   0  0  0  0  0  0  0  0  0  0  0  0
   27.1360   19.7080   24.7230 H   0  0  0  0  0  0  0  0  0  0  0  0
   28.8420   18.0950   23.9590 H   0  0  0  0  0  0  0  0  0  0  0  0
   28.3340   15.6850   24.0280 H   0  0  0  0  0  0  0  0  0  0  0  0
   26.1130   14.9450   24.8660 H   0  0  0  0  0  0  0  0  0  0  0  0
   22.7400   19.3790   26.0200 H   0  0  0  0  0  0  0  0  0  0  0  0
   23.8140   19.2030   27.4390 H   0  0  0  0  0  0  0  0  0  0  0  0
   24.8710    8.7610   28.8210 H   0  0  0  0  0  0  0  0  0  0  0  0
  1  2  1  0  0  0  0
  2  7  1  0  0  0  0
  3  4  1  0  0  0  0
  3  2  2  0  0  0  0
  4  5  2  0  0  0  0
  5 31  1  0  0  0  0
  5  6  1  0  0  0  0
  6  8  1  0  0  0  0
  7 32  1  0  0  0  0
  7  6  2  0  0  0  0
  9 10  2  0  0  0  0
  9  4  1  0  0  0  0
 11 12  1  0  0  0  0
 11 10  1  0  0  0  0
 12 13  2  0  0  0  0
 14 34  1  0  0  0  0
 14 12  1  0  0  0  0
 15 14  1  0  0  0  0
 16 15  1  0  0  0  0
 16 17  2  0  0  0  0
 18 37  1  6  0  0  0
 18 16  1  0  0  0  0
 19 18  1  0  0  0  0
 20 19  1  0  0  0  0
 21 20  1  0  0  0  0
 21 26  1  0  0  0  0
 22 21  2  0  0  0  0
 23 24  2  0  0  0  0
 23 22  1  0  0  0  0
 24 25  1  0  0  0  0
 25 41  1  0  0  0  0
 25 20  2  0  0  0  0
 26 27  1  0  0  0  0
 27 18  1  0  0  0  0
 27 43  1  0  0  0  0
 28 30  1  0  0  0  0
 28  9  1  0  0  0  0
 29 28  2  0  0  0  0
 30  3  1  0  0  0  0
 33 11  1  0  0  0  0
 35 14  1  0  0  0  0
 36 15  1  0  0  0  0
 38 22  1  0  0  0  0
 39 23  1  0  0  0  0
 40 24  1  0  0  0  0
 42 27  1  0  0  0  0
 44 30  1  0  0  0  0
M  END
>  <Pose>
1

>  <Score>
-8.60

$$$$
