
 OpenBabel03202209553D

 39 42  0  0  0  0  0  0  0  0999 V2000
   23.9360    6.8100   30.1030 Cl  0  0  0  0  0  0  0  0  0  0  0  0
   22.4470    7.1560   30.9710 C   0  0  0  0  0  0  0  0  0  0  0  0
   21.6180    6.0930   31.2650 C   0  0  0  0  0  0  0  0  0  0  0  0
   20.4560    6.3850   31.9460 C   0  0  0  0  0  0  0  0  0  0  0  0
   20.0860    7.6450   32.3380 C   0  0  0  0  0  0  0  0  0  0  0  0
   20.9600    8.6890   32.0160 C   0  0  0  0  0  0  0  0  0  0  0  0
   22.1300    8.4610   31.3410 C   0  0  0  0  0  0  0  0  0  0  0  0
   18.8530    7.9310   33.0580 C   0  0  0  0  0  0  0  0  0  0  0  0
   17.9870    7.0880   33.6280 N   0  0  0  0  0  0  0  0  0  0  0  0
   16.9900    7.7970   34.1820 N   0  0  0  0  0  0  0  0  0  0  0  0
   17.2240    9.0790   33.9640 N   0  0  0  0  0  0  0  0  0  0  0  0
   18.3650    9.1620   33.2760 N   0  0  0  0  0  0  0  0  0  0  0  0
   21.9530    4.7110   30.8750 C   0  0  0  0  0  0  0  0  0  0  0  0
   21.6270    4.3470   29.7220 O   0  0  0  0  0  0  0  0  0  0  0  0
   22.6060    3.8090   31.7180 N   0  0  0  0  0  0  0  0  0  0  0  0
   23.9710    3.5160   31.8830 C   0  0  0  0  0  0  0  0  0  0  0  0
   24.4230    2.5530   32.8960 C   0  0  0  0  0  0  0  0  0  0  0  0
   23.6860    1.3070   33.0880 C   0  0  0  0  0  0  0  0  0  0  0  0
   23.9700    0.1020   32.5830 N   0  0  0  0  0  0  0  0  0  0  0  0
   23.0760   -0.7610   33.0370 C   0  0  0  0  0  0  0  0  0  0  0  0
   22.2280   -0.0910   33.8280 N   0  0  0  0  0  0  0  0  0  0  0  0
   22.6010    1.1600   33.8570 N   0  0  0  0  0  0  0  0  0  0  0  0
   23.0950   -2.0970   32.6970 C   0  0  0  0  0  0  0  0  0  0  0  0
   24.1010   -2.5210   31.8480 C   0  0  0  0  0  0  0  0  0  0  0  0
   25.0220   -1.6210   31.3830 C   0  0  0  0  0  0  0  0  0  0  0  0
   24.9510   -0.3110   31.7560 C   0  0  0  0  0  0  0  0  0  0  0  0
   19.8050    5.5540   32.1790 H   0  0  0  0  0  0  0  0  0  0  0  0
   20.6520    9.6860   32.3350 H   0  0  0  0  0  0  0  0  0  0  0  0
   22.7910    9.2820   31.1020 H   0  0  0  0  0  0  0  0  0  0  0  0
   16.1630    7.4200   34.7000 H   0  0  0  0  0  0  0  0  0  0  0  0
   21.9300    3.2440   32.3460 H   0  0  0  0  0  0  0  0  0  0  0  0
   24.3960    3.1740   30.8740 H   0  0  0  0  0  0  0  0  0  0  0  0
   24.5660    4.4740   32.0300 H   0  0  0  0  0  0  0  0  0  0  0  0
   24.5660    3.0890   33.8940 H   0  0  0  0  0  0  0  0  0  0  0  0
   25.5000    2.2510   32.6720 H   0  0  0  0  0  0  0  0  0  0  0  0
   22.3570   -2.7630   33.0820 H   0  0  0  0  0  0  0  0  0  0  0  0
   24.1680   -3.5440   31.5490 H   0  0  0  0  0  0  0  0  0  0  0  0
   25.8170   -1.9200   30.7210 H   0  0  0  0  0  0  0  0  0  0  0  0
   25.6650    0.4290   31.4060 H   0  0  0  0  0  0  0  0  0  0  0  0
  1  2  1  0  0  0  0
  2  3  2  0  0  0  0
  2  7  1  0  0  0  0
  3  4  1  0  0  0  0
  4 27  1  0  0  0  0
  4  5  2  0  0  0  0
  5  8  1  0  0  0  0
  6 28  1  0  0  0  0
  6  5  1  0  0  0  0
  7  6  2  0  0  0  0
  8 12  1  0  0  0  0
  8  9  2  0  0  0  0
  9 10  1  0  0  0  0
 10 30  1  0  0  0  0
 11 10  1  0  0  0  0
 12 11  2  0  0  0  0
 13  3  1  0  0  0  0
 13 15  1  0  0  0  0
 14 13  2  0  0  0  0
 15 16  1  0  0  0  0
 15 31  1  0  0  0  0
 16 33  1  0  0  0  0
 16 17  1  0  0  0  0
 17 18  1  0  0  0  0
 17 34  1  0  0  0  0
 18 22  2  0  0  0  0
 19 20  1  0  0  0  0
 19 18  1  0  0  0  0
 20 21  2  0  0  0  0
 21 22  1  0  0  0  0
 23 20  1  0  0  0  0
 23 36  1  0  0  0  0
 24 23  2  0  0  0  0
 25 26  2  0  0  0  0
 25 24  1  0  0  0  0
 26 19  1  0  0  0  0
 29  7  1  0  0  0  0
 32 16  1  0  0  0  0
 35 17  1  0  0  0  0
 37 24  1  0  0  0  0
 38 25  1  0  0  0  0
 39 26  1  0  0  0  0
M  END
>  <Pose>
1

>  <Score>
-7.54

$$$$
