
 OpenBabel03202209553D

 53 55  0  0  1  0  0  0  0  0999 V2000
   25.6140    6.2450   29.2100 S   0  0  0  0  0  0  0  0  0  0  0  0
   24.7780    5.1020   28.6280 O   0  0  0  0  0  0  0  0  0  0  0  0
   26.5310    5.5530   30.2250 O   0  0  0  0  0  0  0  0  0  0  0  0
   26.5300    6.8730   27.9310 N   0  0  0  0  0  0  0  0  0  0  0  0
   27.7520    7.5080   28.2730 C   0  0  0  0  0  0  0  0  0  0  0  0
   28.5210    8.0100   27.0730 C   0  0  1  0  0  0  0  0  0  0  0  0
   28.7620    6.9000   26.1080 C   0  0  0  0  0  0  0  0  0  0  0  0
   27.4840    6.1400   25.7950 C   0  0  0  0  0  0  0  0  0  0  0  0
   26.8520    5.7140   27.0730 C   0  0  0  0  0  0  0  0  0  0  0  0
   27.9760    9.2470   26.4790 C   0  0  0  0  0  0  0  0  0  0  0  0
   27.4260    9.1010   25.3250 O   0  0  0  0  0  0  0  0  0  0  0  0
   27.9890   10.5240   27.0220 N   0  0  0  0  0  0  0  0  0  0  0  0
   28.6380   11.6160   26.3660 C   0  0  0  0  0  0  0  0  0  0  0  0
   27.9240   12.9290   26.5270 C   0  0  0  0  0  0  0  0  0  0  0  0
   27.1210   13.0300   27.6190 O   0  0  0  0  0  0  0  0  0  0  0  0
   26.3550   11.9260   27.9330 C   0  0  0  0  0  0  0  0  0  0  0  0
   27.3630   10.8200   28.2870 C   0  0  0  0  0  0  0  0  0  0  0  0
   24.6010    7.3290   30.0670 C   0  0  0  0  0  0  0  0  0  0  0  0
   24.8740    8.6710   30.1750 C   0  0  0  0  0  0  0  0  0  0  0  0
   23.9810    9.5090   30.8270 C   0  0  0  0  0  0  0  0  0  0  0  0
   22.7970    9.0180   31.3850 C   0  0  0  0  0  0  0  0  0  0  0  0
   22.5130    7.6750   31.2870 C   0  0  0  0  0  0  0  0  0  0  0  0
   23.4110    6.8600   30.6370 C   0  0  0  0  0  0  0  0  0  0  0  0
   21.2880    7.1360   31.8620 C   0  0  0  0  0  0  0  0  0  0  0  0
   20.9680    5.8360   31.9700 N   0  0  0  0  0  0  0  0  0  0  0  0
   19.7980    5.7120   32.5330 O   0  0  0  0  0  0  0  0  0  0  0  0
   19.3280    6.9000   32.8050 C   0  0  0  0  0  0  0  0  0  0  0  0
   20.2450    7.7960   32.3920 N   0  0  0  0  0  0  0  0  0  0  0  0
   18.0110    7.2240   33.4550 C   0  0  0  0  0  0  0  0  0  0  0  0
   26.3550    9.4030   29.5970 Cl  0  0  0  0  0  0  0  0  0  0  0  0
   27.5930    8.3760   28.9720 H   0  0  0  0  0  0  0  0  0  0  0  0
   28.4020    6.7920   28.8050 H   0  0  0  0  0  0  0  0  0  0  0  0
   29.5410    8.2810   27.4860 H   0  0  0  0  0  0  0  0  0  0  0  0
   29.4440    6.1670   26.5930 H   0  0  0  0  0  0  0  0  0  0  0  0
   29.2160    7.2620   25.1710 H   0  0  0  0  0  0  0  0  0  0  0  0
   26.7980    6.8220   25.2640 H   0  0  0  0  0  0  0  0  0  0  0  0
   27.7760    5.2510   25.2260 H   0  0  0  0  0  0  0  0  0  0  0  0
   27.5730    5.0790   27.6610 H   0  0  0  0  0  0  0  0  0  0  0  0
   25.9350    5.1400   26.8510 H   0  0  0  0  0  0  0  0  0  0  0  0
   28.7900   11.4480   25.2780 H   0  0  0  0  0  0  0  0  0  0  0  0
   29.6730   11.6930   26.8040 H   0  0  0  0  0  0  0  0  0  0  0  0
   27.3210   13.1860   25.6060 H   0  0  0  0  0  0  0  0  0  0  0  0
   28.7040   13.7200   26.5900 H   0  0  0  0  0  0  0  0  0  0  0  0
   25.8180   11.6130   26.9990 H   0  0  0  0  0  0  0  0  0  0  0  0
   25.6910   12.1630   28.7580 H   0  0  0  0  0  0  0  0  0  0  0  0
   26.9340    9.9910   28.8270 H   0  0  0  0  0  0  0  0  0  0  0  0
   28.1750   11.3400   28.8900 H   0  0  0  0  0  0  0  0  0  0  0  0
   24.2070   10.5600   30.9010 H   0  0  0  0  0  0  0  0  0  0  0  0
   22.1080    9.6780   31.8920 H   0  0  0  0  0  0  0  0  0  0  0  0
   23.1640    5.8120   30.5740 H   0  0  0  0  0  0  0  0  0  0  0  0
   17.5320    6.2780   33.7510 H   0  0  0  0  0  0  0  0  0  0  0  0
   18.2310    7.9000   34.3000 H   0  0  0  0  0  0  0  0  0  0  0  0
   17.4210    7.7800   32.6910 H   0  0  0  0  0  0  0  0  0  0  0  0
  1 18  1  0  0  0  0
  1  3  2  0  0  0  0
  2  1  2  0  0  0  0
  4  5  1  0  0  0  0
  4  1  1  0  0  0  0
  5 32  1  0  0  0  0
  5 31  1  0  0  0  0
  6 33  1  1  0  0  0
  6  5  1  0  0  0  0
  7 34  1  0  0  0  0
  7  6  1  0  0  0  0
  8  7  1  0  0  0  0
  8  9  1  0  0  0  0
  9 38  1  0  0  0  0
  9  4  1  0  0  0  0
 10 12  1  0  0  0  0
 10  6  1  0  0  0  0
 11 10  2  0  0  0  0
 12 17  1  0  0  0  0
 13 14  1  0  0  0  0
 13 41  1  0  0  0  0
 13 12  1  0  0  0  0
 14 43  1  0  0  0  0
 14 15  1  0  0  0  0
 15 16  1  0  0  0  0
 16 17  1  0  0  0  0
 16 45  1  0  0  0  0
 17 46  1  0  0  0  0
 17 47  1  0  0  0  0
 18 19  2  0  0  0  0
 18 23  1  0  0  0  0
 19 20  1  0  0  0  0
 20 48  1  0  0  0  0
 20 21  2  0  0  0  0
 21 49  1  0  0  0  0
 22 21  1  0  0  0  0
 22 24  1  0  0  0  0
 23 22  2  0  0  0  0
 24 25  2  0  0  0  0
 24 28  1  0  0  0  0
 25 26  1  0  0  0  0
 26 27  1  0  0  0  0
 27 29  1  0  0  0  0
 28 27  2  0  0  0  0
 29 51  1  0  0  0  0
 29 52  1  0  0  0  0
 35  7  1  0  0  0  0
 36  8  1  0  0  0  0
 37  8  1  0  0  0  0
 39  9  1  0  0  0  0
 40 13  1  0  0  0  0
 42 14  1  0  0  0  0
 44 16  1  0  0  0  0
 50 23  1  0  0  0  0
 53 29  1  0  0  0  0
M  END
>  <Pose>
1

>  <Score>
-6.23

$$$$
