
 OpenBabel03202209553D

 67 70  0  0  1  0  0  0  0  0999 V2000
   25.6320    5.5110   28.5380 S   0  0  0  0  0  0  0  0  0  0  0  0
   24.1790    5.3950   28.9960 O   0  0  0  0  0  0  0  0  0  0  0  0
   25.5640    5.1710   27.0540 O   0  0  0  0  0  0  0  0  0  0  0  0
   26.5260    4.3390   29.3060 N   0  0  0  0  0  0  0  0  0  0  0  0
   25.8820    3.2300   29.8890 C   0  0  0  0  0  0  0  0  0  0  0  0
   26.1560    3.0790   31.3700 C   0  0  2  0  0  0  0  0  0  0  0  0
   27.4540    3.6390   31.8070 C   0  0  0  0  0  0  0  0  0  0  0  0
   28.4600    3.9190   30.7520 C   0  0  0  0  0  0  0  0  0  0  0  0
   27.9110    4.4440   29.4500 C   0  0  0  0  0  0  0  0  0  0  0  0
   26.0460    1.6570   31.7870 C   0  0  0  0  0  0  0  0  0  0  0  0
   27.0820    1.0840   32.2040 O   0  0  0  0  0  0  0  0  0  0  0  0
   24.7780    0.9680   31.7100 N   0  0  0  0  0  0  0  0  0  0  0  0
   23.9810    0.9370   32.8820 C   0  0  0  0  0  0  0  0  0  0  0  0
   23.2120   -0.2900   33.1960 C   0  0  0  0  0  0  0  0  0  0  0  0
   22.5500   -0.3920   34.4430 N   0  0  0  0  0  0  0  0  0  0  0  0
   23.2300   -0.9710   35.5070 C   0  0  0  0  0  0  0  0  0  0  0  0
   22.6870   -2.2720   36.0250 C   0  0  0  0  0  0  0  0  0  0  0  0
   21.3000   -2.2970   36.0540 O   0  0  0  0  0  0  0  0  0  0  0  0
   20.8760   -2.1840   34.7300 C   0  0  0  0  0  0  0  0  0  0  0  0
   21.1620   -0.7650   34.2980 C   0  0  0  0  0  0  0  0  0  0  0  0
   26.1800    7.1390   28.6950 C   0  0  0  0  0  0  0  0  0  0  0  0
   25.4750    8.0400   29.4770 C   0  0  0  0  0  0  0  0  0  0  0  0
   25.8770    9.3430   29.6460 C   0  0  0  0  0  0  0  0  0  0  0  0
   27.0420    9.7790   29.0040 C   0  0  0  0  0  0  0  0  0  0  0  0
   27.7240    8.8900   28.2410 C   0  0  0  0  0  0  0  0  0  0  0  0
   27.3180    7.5770   28.0720 C   0  0  0  0  0  0  0  0  0  0  0  0
   28.3700    6.4030   26.9570 B   0  0  0  0  0  0  0  0  0  0  0  0
   27.2980   11.2120   29.3130 C   0  0  0  0  0  0  0  0  0  0  0  0
   25.9210   11.6850   29.7300 C   0  0  0  0  0  0  0  0  0  0  0  0
   25.3960   10.4700   30.3650 N   0  0  0  0  0  0  0  0  0  0  0  0
   24.5700   10.4900   31.4870 C   0  0  0  0  0  0  0  0  0  0  0  0
   24.7820   11.3440   32.4150 O   0  0  0  0  0  0  0  0  0  0  0  0
   23.4460    9.5780   31.6920 C   0  0  0  0  0  0  0  0  0  0  0  0
   22.5560    9.4800   30.4550 C   0  0  0  0  0  0  0  0  0  0  0  0
   26.2820    2.2920   29.4040 H   0  0  0  0  0  0  0  0  0  0  0  0
   24.8050    3.2560   29.6530 H   0  0  0  0  0  0  0  0  0  0  0  0
   25.3130    3.6420   31.8730 H   0  0  0  0  0  0  0  0  0  0  0  0
   27.9440    2.9110   32.5250 H   0  0  0  0  0  0  0  0  0  0  0  0
   27.2840    4.5900   32.3720 H   0  0  0  0  0  0  0  0  0  0  0  0
   29.1550    4.7150   31.1310 H   0  0  0  0  0  0  0  0  0  0  0  0
   29.1250    3.0270   30.6150 H   0  0  0  0  0  0  0  0  0  0  0  0
   28.2660    5.4570   29.1890 H   0  0  0  0  0  0  0  0  0  0  0  0
   28.3860    3.7910   28.6490 H   0  0  0  0  0  0  0  0  0  0  0  0
   24.5640    0.5460   30.8030 H   0  0  0  0  0  0  0  0  0  0  0  0
   23.2250    1.7660   32.7740 H   0  0  0  0  0  0  0  0  0  0  0  0
   24.6740    1.2210   33.7390 H   0  0  0  0  0  0  0  0  0  0  0  0
   22.4510   -0.4800   32.3570 H   0  0  0  0  0  0  0  0  0  0  0  0
   23.9070   -1.1860   33.0380 H   0  0  0  0  0  0  0  0  0  0  0  0
   23.0730   -0.2530   36.4050 H   0  0  0  0  0  0  0  0  0  0  0  0
   24.3230   -0.9470   35.3980 H   0  0  0  0  0  0  0  0  0  0  0  0
   23.0110   -3.0890   35.3600 H   0  0  0  0  0  0  0  0  0  0  0  0
   23.0570   -2.5050   37.0420 H   0  0  0  0  0  0  0  0  0  0  0  0
   21.3190   -2.9510   34.0940 H   0  0  0  0  0  0  0  0  0  0  0  0
   19.7630   -2.3120   34.6570 H   0  0  0  0  0  0  0  0  0  0  0  0
   20.5970   -0.1060   35.0220 H   0  0  0  0  0  0  0  0  0  0  0  0
   20.7530   -0.5170   33.3080 H   0  0  0  0  0  0  0  0  0  0  0  0
   24.5700    7.7570   29.9960 H   0  0  0  0  0  0  0  0  0  0  0  0
   28.6400    9.2000   27.7250 H   0  0  0  0  0  0  0  0  0  0  0  0
   28.0450   11.3670   30.0950 H   0  0  0  0  0  0  0  0  0  0  0  0
   27.5870   11.7520   28.3950 H   0  0  0  0  0  0  0  0  0  0  0  0
   25.9690   12.5270   30.4480 H   0  0  0  0  0  0  0  0  0  0  0  0
   25.3390   12.0070   28.8660 H   0  0  0  0  0  0  0  0  0  0  0  0
   23.9090    8.5540   31.8510 H   0  0  0  0  0  0  0  0  0  0  0  0
   22.8060    9.7970   32.5510 H   0  0  0  0  0  0  0  0  0  0  0  0
   22.2770    8.4290   30.2920 H   0  0  0  0  0  0  0  0  0  0  0  0
   23.1220    9.9070   29.5980 H   0  0  0  0  0  0  0  0  0  0  0  0
   21.6620   10.1110   30.6240 H   0  0  0  0  0  0  0  0  0  0  0  0
  1 21  1  0  0  0  0
  1  2  2  0  0  0  0
  1  4  1  0  0  0  0
  3  1  2  0  0  0  0
  4  9  1  0  0  0  0
  4  5  1  0  0  0  0
  5  6  1  0  0  0  0
  6 10  1  0  0  0  0
  6  7  1  0  0  0  0
  6 37  1  1  0  0  0
  7 39  1  0  0  0  0
  7 38  1  0  0  0  0
  8 40  1  0  0  0  0
  8  7  1  0  0  0  0
  9  8  1  0  0  0  0
 10 11  2  0  0  0  0
 12 10  1  0  0  0  0
 12 13  1  0  0  0  0
 13 14  1  0  0  0  0
 13 46  1  0  0  0  0
 14 15  1  0  0  0  0
 15 16  1  0  0  0  0
 16 17  1  0  0  0  0
 16 49  1  0  0  0  0
 17 18  1  0  0  0  0
 17 52  1  0  0  0  0
 19 18  1  0  0  0  0
 20 15  1  0  0  0  0
 20 19  1  0  0  0  0
 20 55  1  0  0  0  0
 21 22  1  0  0  0  0
 22 23  2  0  0  0  0
 22 57  1  0  0  0  0
 23 30  1  0  0  0  0
 24 28  1  0  0  0  0
 24 23  1  0  0  0  0
 25 24  2  0  0  0  0
 26 25  1  0  0  0  0
 26 21  2  0  0  0  0
 27 26  1  0  0  0  0
 28 29  1  0  0  0  0
 28 59  1  0  0  0  0
 29 30  1  0  0  0  0
 29 61  1  0  0  0  0
 30 31  1  0  0  0  0
 31 33  1  0  0  0  0
 31 32  2  0  0  0  0
 33 63  1  0  0  0  0
 33 64  1  0  0  0  0
 34 67  1  0  0  0  0
 34 33  1  0  0  0  0
 35  5  1  0  0  0  0
 36  5  1  0  0  0  0
 41  8  1  0  0  0  0
 42  9  1  0  0  0  0
 43  9  1  0  0  0  0
 44 12  1  0  0  0  0
 45 13  1  0  0  0  0
 47 14  1  0  0  0  0
 48 14  1  0  0  0  0
 50 16  1  0  0  0  0
 51 17  1  0  0  0  0
 53 19  1  0  0  0  0
 54 19  1  0  0  0  0
 56 20  1  0  0  0  0
 58 25  1  0  0  0  0
 60 28  1  0  0  0  0
 62 29  1  0  0  0  0
 65 34  1  0  0  0  0
 66 34  1  0  0  0  0
M  END
>  <Pose>
1

>  <Score>
-6.80

$$$$
