
 OpenBabel03202209553D

 49 52  0  0  1  0  0  0  0  0999 V2000
   24.6490    1.1230   33.3820 Cl  0  0  0  0  0  0  0  0  0  0  0  0
   24.3730    2.6020   32.4620 C   0  0  0  0  0  0  0  0  0  0  0  0
   25.3480    3.1140   31.6490 C   0  0  0  0  0  0  0  0  0  0  0  0
   25.1180    4.2740   30.9330 C   0  0  0  0  0  0  0  0  0  0  0  0
   23.9240    4.9590   30.9990 C   0  0  0  0  0  0  0  0  0  0  0  0
   22.9510    4.4310   31.8220 C   0  0  0  0  0  0  0  0  0  0  0  0
   23.1750    3.2550   32.5520 C   0  0  0  0  0  0  0  0  0  0  0  0
   23.6890    6.1520   30.2580 N   0  0  0  0  0  0  0  0  0  0  0  0
   22.7010    7.1930   30.5140 C   0  0  0  0  0  0  0  0  0  0  0  0
   23.2480    8.4560   29.9100 C   0  0  2  0  0  0  0  0  0  0  0  0
   24.3220    8.0570   28.9540 C   0  0  0  0  0  0  0  0  0  0  0  0
   24.3950    6.5820   29.0740 C   0  0  0  0  0  0  0  0  0  0  0  0
   24.9640    5.7330   28.3130 O   0  0  0  0  0  0  0  0  0  0  0  0
   23.6100    9.5000   30.8760 C   0  0  0  0  0  0  0  0  0  0  0  0
   23.5680    9.1770   32.1220 O   0  0  0  0  0  0  0  0  0  0  0  0
   23.9970   10.8140   30.5920 N   0  0  0  0  0  0  0  0  0  0  0  0
   24.8120   11.5590   31.5380 C   0  0  0  0  0  0  0  0  0  0  0  0
   24.1140   12.8540   31.9420 C   0  0  0  0  0  0  0  0  0  0  0  0
   23.3860   13.3620   30.8170 N   0  0  0  0  0  0  0  0  0  0  0  0
   23.8290   13.0200   29.5000 C   0  0  0  0  0  0  0  0  0  0  0  0
   23.6260   11.4970   29.3760 C   0  0  0  0  0  0  0  0  0  0  0  0
   22.2480   14.1760   30.9980 C   0  0  0  0  0  0  0  0  0  0  0  0
   22.1020   15.1820   31.9050 N   0  0  0  0  0  0  0  0  0  0  0  0
   20.8850   15.7230   31.7630 C   0  0  0  0  0  0  0  0  0  0  0  0
   20.2340   15.0570   30.7520 C   0  0  0  0  0  0  0  0  0  0  0  0
   21.0830   14.1400   30.3220 N   0  0  0  0  0  0  0  0  0  0  0  0
   23.1160   15.6010   32.8810 C   0  0  0  0  0  0  0  0  0  0  0  0
   26.2910    2.5760   31.5950 H   0  0  0  0  0  0  0  0  0  0  0  0
   25.9280    4.6310   30.3070 H   0  0  0  0  0  0  0  0  0  0  0  0
   22.0150    4.9220   31.9080 H   0  0  0  0  0  0  0  0  0  0  0  0
   22.4040    2.8500   33.1940 H   0  0  0  0  0  0  0  0  0  0  0  0
   22.5010    7.2480   31.5820 H   0  0  0  0  0  0  0  0  0  0  0  0
   21.7580    6.8490   30.0050 H   0  0  0  0  0  0  0  0  0  0  0  0
   22.4070    8.8470   29.2560 H   0  0  0  0  0  0  0  0  0  0  0  0
   24.0550    8.2400   27.8690 H   0  0  0  0  0  0  0  0  0  0  0  0
   25.2760    8.5750   29.1170 H   0  0  0  0  0  0  0  0  0  0  0  0
   25.7580   11.8260   31.0110 H   0  0  0  0  0  0  0  0  0  0  0  0
   25.0990   10.9640   32.4160 H   0  0  0  0  0  0  0  0  0  0  0  0
   24.9140   13.6000   32.1700 H   0  0  0  0  0  0  0  0  0  0  0  0
   23.4740   12.6500   32.8270 H   0  0  0  0  0  0  0  0  0  0  0  0
   23.2020   13.4730   28.7000 H   0  0  0  0  0  0  0  0  0  0  0  0
   24.9050   13.2590   29.3830 H   0  0  0  0  0  0  0  0  0  0  0  0
   24.2090   11.1770   28.4900 H   0  0  0  0  0  0  0  0  0  0  0  0
   22.5360   11.3960   29.2550 H   0  0  0  0  0  0  0  0  0  0  0  0
   20.4810   16.5420   32.3450 H   0  0  0  0  0  0  0  0  0  0  0  0
   19.2230   15.2320   30.3670 H   0  0  0  0  0  0  0  0  0  0  0  0
   22.7130   15.4320   33.9110 H   0  0  0  0  0  0  0  0  0  0  0  0
   24.0140   14.9800   32.7450 H   0  0  0  0  0  0  0  0  0  0  0  0
   23.2980   16.6720   32.7820 H   0  0  0  0  0  0  0  0  0  0  0  0
  2  7  1  0  0  0  0
  2  1  1  0  0  0  0
  3  2  2  0  0  0  0
  4  5  2  0  0  0  0
  4  3  1  0  0  0  0
  5  6  1  0  0  0  0
  6 30  1  0  0  0  0
  6  7  2  0  0  0  0
  7 31  1  0  0  0  0
  8  9  1  0  0  0  0
  8  5  1  0  0  0  0
  9 32  1  0  0  0  0
 10 34  1  6  0  0  0
 10  9  1  0  0  0  0
 10 14  1  0  0  0  0
 11 12  1  0  0  0  0
 11 36  1  0  0  0  0
 11 10  1  0  0  0  0
 12  8  1  0  0  0  0
 13 12  2  0  0  0  0
 14 15  2  0  0  0  0
 16 14  1  0  0  0  0
 16 17  1  0  0  0  0
 17 18  1  0  0  0  0
 17 38  1  0  0  0  0
 18 39  1  0  0  0  0
 18 40  1  0  0  0  0
 19 22  1  0  0  0  0
 19 18  1  0  0  0  0
 20 19  1  0  0  0  0
 21 20  1  0  0  0  0
 21 16  1  0  0  0  0
 22 23  1  0  0  0  0
 23 27  1  0  0  0  0
 24 23  1  0  0  0  0
 24 45  1  0  0  0  0
 25 24  2  0  0  0  0
 26 25  1  0  0  0  0
 26 22  2  0  0  0  0
 27 47  1  0  0  0  0
 28  3  1  0  0  0  0
 29  4  1  0  0  0  0
 33  9  1  0  0  0  0
 35 11  1  0  0  0  0
 37 17  1  0  0  0  0
 41 20  1  0  0  0  0
 42 20  1  0  0  0  0
 43 21  1  0  0  0  0
 44 21  1  0  0  0  0
 46 25  1  0  0  0  0
 48 27  1  0  0  0  0
 49 27  1  0  0  0  0
M  END
>  <Pose>
1

>  <Score>
-5.66

$$$$
