
 OpenBabel03202209553D

 35 38  0  0  1  0  0  0  0  0999 V2000
   22.0600    4.6050   31.5180 Cl  0  0  0  0  0  0  0  0  0  0  0  0
   22.6160    6.2560   31.2550 C   0  0  0  0  0  0  0  0  0  0  0  0
   23.8350    6.4970   30.6490 C   0  0  0  0  0  0  0  0  0  0  0  0
   24.2870    7.7760   30.4310 C   0  0  0  0  0  0  0  0  0  0  0  0
   23.5200    8.8820   30.8170 C   0  0  0  0  0  0  0  0  0  0  0  0
   22.3130    8.6040   31.4150 C   0  0  0  0  0  0  0  0  0  0  0  0
   21.8370    7.3360   31.6460 C   0  0  0  0  0  0  0  0  0  0  0  0
   23.9880   10.2030   30.5810 N   0  0  0  0  0  0  0  0  0  0  0  0
   23.9040   10.9860   29.3790 C   0  0  0  0  0  0  0  0  0  0  0  0
   23.5800   10.5050   28.2630 O   0  0  0  0  0  0  0  0  0  0  0  0
   24.2480   12.4040   29.6490 C   0  0  1  0  0  0  0  0  0  0  0  0
   23.1150   13.3520   29.4270 C   0  0  1  0  0  0  0  0  0  0  0  0
   21.8330   12.6020   29.7230 C   0  0  1  0  0  0  0  0  0  0  0  0
   21.9770   12.3350   31.2200 C   0  0  1  0  0  0  0  0  0  0  0  0
   23.2270   13.0650   31.6560 C   0  0  1  0  0  0  0  0  0  0  0  0
   24.4880   12.4270   31.1640 C   0  0  1  0  0  0  0  0  0  0  0  0
   24.6420   11.0040   31.5520 C   0  0  0  0  0  0  0  0  0  0  0  0
   25.2560   10.6120   32.5750 O   0  0  0  0  0  0  0  0  0  0  0  0
   23.1520   14.2540   30.6720 C   0  0  0  0  0  0  0  0  0  0  0  0
   20.9270   12.9100   31.9320 O   0  0  0  0  0  0  0  0  0  0  0  0
   20.7830   13.4780   29.5560 O   0  0  0  0  0  0  0  0  0  0  0  0
   24.4250    5.6320   30.3540 H   0  0  0  0  0  0  0  0  0  0  0  0
   25.2280    7.9890   29.9650 H   0  0  0  0  0  0  0  0  0  0  0  0
   21.6850    9.4410   31.7310 H   0  0  0  0  0  0  0  0  0  0  0  0
   20.8730    7.1350   32.1230 H   0  0  0  0  0  0  0  0  0  0  0  0
   25.1840   12.7090   29.1380 H   0  0  0  0  0  0  0  0  0  0  0  0
   23.1210   13.9060   28.5060 H   0  0  0  0  0  0  0  0  0  0  0  0
   21.7460   11.6720   29.1490 H   0  0  0  0  0  0  0  0  0  0  0  0
   21.9950   11.2720   31.4380 H   0  0  0  0  0  0  0  0  0  0  0  0
   23.2340   13.3900   32.6920 H   0  0  0  0  0  0  0  0  0  0  0  0
   25.3490   13.0570   31.4410 H   0  0  0  0  0  0  0  0  0  0  0  0
   24.0360   14.8780   30.7150 H   0  0  0  0  0  0  0  0  0  0  0  0
   22.1770   14.7640   30.7970 H   0  0  0  0  0  0  0  0  0  0  0  0
   20.1030   12.8240   31.3650 H   0  0  0  0  0  0  0  0  0  0  0  0
   20.3910   13.4920   28.6520 H   0  0  0  0  0  0  0  0  0  0  0  0
  2  1  1  0  0  0  0
  2  7  1  0  0  0  0
  3  2  2  0  0  0  0
  4  3  1  0  0  0  0
  4  5  2  0  0  0  0
  5  6  1  0  0  0  0
  6  7  2  0  0  0  0
  6 24  1  0  0  0  0
  7 25  1  0  0  0  0
  8  5  1  0  0  0  0
  8 17  1  0  0  0  0
  9 11  1  0  0  0  0
  9  8  1  0  0  0  0
 10  9  2  0  0  0  0
 11 26  1  6  0  0  0
 11 16  1  0  0  0  0
 12 27  1  6  0  0  0
 12 11  1  0  0  0  0
 12 13  1  0  0  0  0
 12 19  1  0  0  0  0
 13 28  1  6  0  0  0
 13 14  1  0  0  0  0
 14 29  1  1  0  0  0
 14 15  1  0  0  0  0
 14 20  1  0  0  0  0
 15 30  1  1  0  0  0
 16 31  1  1  0  0  0
 16 17  1  0  0  0  0
 16 15  1  0  0  0  0
 17 18  2  0  0  0  0
 19 32  1  0  0  0  0
 19 33  1  0  0  0  0
 19 15  1  0  0  0  0
 21 13  1  0  0  0  0
 22  3  1  0  0  0  0
 23  4  1  0  0  0  0
 34 20  1  0  0  0  0
 35 21  1  0  0  0  0
M  END
>  <Pose>
1

>  <Score>
-5.16

$$$$
