
 OpenBabel03202209553D

 51 54  0  0  1  0  0  0  0  0999 V2000
   17.9130    8.3050   34.0450 Cl  0  0  0  0  0  0  0  0  0  0  0  0
   19.3330    8.7960   33.1130 C   0  0  0  0  0  0  0  0  0  0  0  0
   20.0850    7.8720   32.4320 C   0  0  0  0  0  0  0  0  0  0  0  0
   21.1900    8.2740   31.7100 C   0  0  0  0  0  0  0  0  0  0  0  0
   21.5740    9.5890   31.6450 C   0  0  0  0  0  0  0  0  0  0  0  0
   20.8260   10.5090   32.3250 C   0  0  0  0  0  0  0  0  0  0  0  0
   19.7000   10.1200   33.0630 C   0  0  0  0  0  0  0  0  0  0  0  0
   22.7190    9.9700   30.8960 N   0  0  0  0  0  0  0  0  0  0  0  0
   22.5680   10.4900   29.5820 C   0  0  0  0  0  0  0  0  0  0  0  0
   21.3740   10.5910   29.1300 O   0  0  0  0  0  0  0  0  0  0  0  0
   23.6830   10.8700   28.8280 N   0  0  0  0  0  0  0  0  0  0  0  0
   24.9880   10.7460   29.3560 C   0  0  0  0  0  0  0  0  0  0  0  0
   25.9430   11.3600   28.8400 O   0  0  0  0  0  0  0  0  0  0  0  0
   25.2300    9.8800   30.5310 C   0  0  1  0  0  0  0  0  0  0  0  0
   24.0370    9.8520   31.4110 C   0  0  0  0  0  0  0  0  0  0  0  0
   24.2030    9.7210   32.6360 O   0  0  0  0  0  0  0  0  0  0  0  0
   25.5120    8.4700   30.0920 C   0  0  0  0  0  0  0  0  0  0  0  0
   26.2240    7.5530   30.7190 C   0  0  0  0  0  0  0  0  0  0  0  0
   26.2430    6.2970   29.9290 C   0  0  2  0  0  0  0  0  0  0  0  0
   25.8690    6.7430   28.6160 N   0  0  0  0  0  0  0  0  0  0  0  0
   25.0600    7.8570   28.8890 N   0  0  0  0  0  0  0  0  0  0  0  0
   25.3190    5.3480   30.5370 C   0  0  0  0  0  0  0  0  0  0  0  0
   25.8200    4.4200   31.4250 C   0  0  0  0  0  0  0  0  0  0  0  0
   25.0270    3.4820   32.0550 C   0  0  0  0  0  0  0  0  0  0  0  0
   23.6560    3.4880   31.7680 C   0  0  0  0  0  0  0  0  0  0  0  0
   23.1090    4.3950   30.8870 C   0  0  0  0  0  0  0  0  0  0  0  0
   23.9630    5.3030   30.2940 C   0  0  0  0  0  0  0  0  0  0  0  0
   21.7690    4.3580   30.6400 O   0  0  0  0  0  0  0  0  0  0  0  0
   20.8290    5.3350   30.9810 C   0  0  0  0  0  0  0  0  0  0  0  0
   22.8240    2.5730   32.3710 O   0  0  0  0  0  0  0  0  0  0  0  0
   25.5220    2.5440   32.9520 O   0  0  0  0  0  0  0  0  0  0  0  0
   26.8950    2.2240   32.8470 C   0  0  0  0  0  0  0  0  0  0  0  0
   19.7820    6.8400   32.4820 H   0  0  0  0  0  0  0  0  0  0  0  0
   21.7640    7.5270   31.1810 H   0  0  0  0  0  0  0  0  0  0  0  0
   21.1120   11.5450   32.2860 H   0  0  0  0  0  0  0  0  0  0  0  0
   19.1160   10.8500   33.5950 H   0  0  0  0  0  0  0  0  0  0  0  0
   23.5110   11.2530   27.8540 H   0  0  0  0  0  0  0  0  0  0  0  0
   26.1280   10.2640   31.0540 H   0  0  0  0  0  0  0  0  0  0  0  0
   26.7130    7.7360   31.6830 H   0  0  0  0  0  0  0  0  0  0  0  0
   27.2890    5.9090   29.9360 H   0  0  0  0  0  0  0  0  0  0  0  0
   25.4280    6.0400   28.0240 H   0  0  0  0  0  0  0  0  0  0  0  0
   24.2650    8.1680   28.2970 H   0  0  0  0  0  0  0  0  0  0  0  0
   26.8780    4.3850   31.6720 H   0  0  0  0  0  0  0  0  0  0  0  0
   23.5750    6.0260   29.6010 H   0  0  0  0  0  0  0  0  0  0  0  0
   20.9860    5.7540   31.9990 H   0  0  0  0  0  0  0  0  0  0  0  0
   19.7920    5.0130   30.9250 H   0  0  0  0  0  0  0  0  0  0  0  0
   20.9560    6.1930   30.2840 H   0  0  0  0  0  0  0  0  0  0  0  0
   22.0580    2.1680   31.8500 H   0  0  0  0  0  0  0  0  0  0  0  0
   27.1540    1.3740   33.5010 H   0  0  0  0  0  0  0  0  0  0  0  0
   27.5480    3.0940   33.0030 H   0  0  0  0  0  0  0  0  0  0  0  0
   27.0790    1.8690   31.8000 H   0  0  0  0  0  0  0  0  0  0  0  0
  2  1  1  0  0  0  0
  3 33  1  0  0  0  0
  3  2  2  0  0  0  0
  4  3  1  0  0  0  0
  5  4  2  0  0  0  0
  5  6  1  0  0  0  0
  6  7  2  0  0  0  0
  7  2  1  0  0  0  0
  7 36  1  0  0  0  0
  8 15  1  0  0  0  0
  8  5  1  0  0  0  0
  9  8  1  0  0  0  0
 10  9  2  0  0  0  0
 11 12  1  0  0  0  0
 11  9  1  0  0  0  0
 12 14  1  0  0  0  0
 13 12  2  0  0  0  0
 14 38  1  1  0  0  0
 14 15  1  0  0  0  0
 15 16  2  0  0  0  0
 17 14  1  0  0  0  0
 17 18  2  0  0  0  0
 18 39  1  0  0  0  0
 19 40  1  6  0  0  0
 19 22  1  0  0  0  0
 19 18  1  0  0  0  0
 20 21  1  0  0  0  0
 20 19  1  0  0  0  0
 21 17  1  0  0  0  0
 22 23  1  0  0  0  0
 23 43  1  0  0  0  0
 23 24  2  0  0  0  0
 24 31  1  0  0  0  0
 25 24  1  0  0  0  0
 25 30  1  0  0  0  0
 26 25  2  0  0  0  0
 27 22  2  0  0  0  0
 27 26  1  0  0  0  0
 28 26  1  0  0  0  0
 28 29  1  0  0  0  0
 29 45  1  0  0  0  0
 32 31  1  0  0  0  0
 32 50  1  0  0  0  0
 32 49  1  0  0  0  0
 34  4  1  0  0  0  0
 35  6  1  0  0  0  0
 37 11  1  0  0  0  0
 41 20  1  0  0  0  0
 42 21  1  0  0  0  0
 44 27  1  0  0  0  0
 46 29  1  0  0  0  0
 47 29  1  0  0  0  0
 48 30  1  0  0  0  0
 51 32  1  0  0  0  0
M  END
>  <Pose>
1

>  <Score>
-5.96

$$$$
