
 OpenBabel03202209553D

 47 50  0  0  1  0  0  0  0  0999 V2000
   17.2860    7.8470   33.8380 Cl  0  0  0  0  0  0  0  0  0  0  0  0
   18.8840    7.8840   33.1170 C   0  0  0  0  0  0  0  0  0  0  0  0
   19.5120    6.7170   32.7070 C   0  0  0  0  0  0  0  0  0  0  0  0
   20.7530    6.7790   32.1500 C   0  0  0  0  0  0  0  0  0  0  0  0
   21.4280    7.9810   31.9720 C   0  0  0  0  0  0  0  0  0  0  0  0
   20.8020    9.1370   32.3810 C   0  0  0  0  0  0  0  0  0  0  0  0
   19.5290    9.1000   32.9540 C   0  0  0  0  0  0  0  0  0  0  0  0
   22.7240    8.0400   31.3920 N   0  0  0  0  0  0  0  0  0  0  0  0
   23.8740    7.4840   32.0140 C   0  0  0  0  0  0  0  0  0  0  0  0
   23.7300    6.9150   33.1360 O   0  0  0  0  0  0  0  0  0  0  0  0
   25.1500    7.5550   31.4110 N   0  0  0  0  0  0  0  0  0  0  0  0
   25.3180    8.1880   30.1580 C   0  0  0  0  0  0  0  0  0  0  0  0
   26.4210    8.1080   29.5120 O   0  0  0  0  0  0  0  0  0  0  0  0
   24.2410    8.9620   29.5410 C   0  0  1  0  0  0  0  0  0  0  0  0
   22.9310    8.6680   30.1350 C   0  0  0  0  0  0  0  0  0  0  0  0
   21.8700    8.9890   29.4960 O   0  0  0  0  0  0  0  0  0  0  0  0
   24.5640   10.4200   29.5800 C   0  0  0  0  0  0  0  0  0  0  0  0
   24.3270   11.3250   28.6690 C   0  0  0  0  0  0  0  0  0  0  0  0
   24.8400   12.6160   29.1900 C   0  0  2  0  0  0  0  0  0  0  0  0
   25.7500   12.2290   30.2470 N   0  0  0  0  0  0  0  0  0  0  0  0
   25.2110   11.0190   30.6980 N   0  0  0  0  0  0  0  0  0  0  0  0
   23.7290   13.4390   29.7420 C   0  0  0  0  0  0  0  0  0  0  0  0
   22.9520   13.0140   30.7950 C   0  0  0  0  0  0  0  0  0  0  0  0
   21.9170   13.7700   31.3140 C   0  0  0  0  0  0  0  0  0  0  0  0
   21.6290   15.0030   30.7750 C   0  0  0  0  0  0  0  0  0  0  0  0
   22.3930   15.4450   29.7230 C   0  0  0  0  0  0  0  0  0  0  0  0
   23.4220   14.6840   29.2140 C   0  0  0  0  0  0  0  0  0  0  0  0
   20.6000   15.7740   31.2770 O   0  0  0  0  0  0  0  0  0  0  0  0
   19.2640   15.3990   31.0320 C   0  0  0  0  0  0  0  0  0  0  0  0
   21.1720   13.2900   32.3740 O   0  0  0  0  0  0  0  0  0  0  0  0
   19.0140    5.7810   32.8320 H   0  0  0  0  0  0  0  0  0  0  0  0
   21.2440    5.8520   31.8280 H   0  0  0  0  0  0  0  0  0  0  0  0
   21.3350   10.0680   32.2380 H   0  0  0  0  0  0  0  0  0  0  0  0
   19.0750   10.0390   33.2610 H   0  0  0  0  0  0  0  0  0  0  0  0
   25.9900    7.1360   31.8890 H   0  0  0  0  0  0  0  0  0  0  0  0
   24.2050    8.6460   28.4570 H   0  0  0  0  0  0  0  0  0  0  0  0
   23.8410   11.1190   27.7180 H   0  0  0  0  0  0  0  0  0  0  0  0
   25.3700   13.1800   28.3850 H   0  0  0  0  0  0  0  0  0  0  0  0
   26.7260   12.1060   29.8870 H   0  0  0  0  0  0  0  0  0  0  0  0
   25.3000   10.6710   31.6880 H   0  0  0  0  0  0  0  0  0  0  0  0
   23.2000   12.0310   31.2070 H   0  0  0  0  0  0  0  0  0  0  0  0
   22.1710   16.4280   29.2870 H   0  0  0  0  0  0  0  0  0  0  0  0
   24.0370   15.0290   28.3740 H   0  0  0  0  0  0  0  0  0  0  0  0
   19.0030   14.4230   31.4840 H   0  0  0  0  0  0  0  0  0  0  0  0
   18.6000   16.2040   31.3990 H   0  0  0  0  0  0  0  0  0  0  0  0
   19.1310   15.3590   29.9300 H   0  0  0  0  0  0  0  0  0  0  0  0
   21.3810   13.5500   33.3170 H   0  0  0  0  0  0  0  0  0  0  0  0
  2  1  1  0  0  0  0
  3 31  1  0  0  0  0
  3  2  2  0  0  0  0
  4  3  1  0  0  0  0
  5  4  2  0  0  0  0
  5  6  1  0  0  0  0
  6  7  2  0  0  0  0
  7  2  1  0  0  0  0
  7 34  1  0  0  0  0
  8  5  1  0  0  0  0
  8  9  1  0  0  0  0
  9 10  2  0  0  0  0
 11 35  1  0  0  0  0
 11  9  1  0  0  0  0
 12 11  1  0  0  0  0
 13 12  2  0  0  0  0
 14 36  1  6  0  0  0
 14 17  1  0  0  0  0
 14 15  1  0  0  0  0
 14 12  1  0  0  0  0
 15  8  1  0  0  0  0
 16 15  2  0  0  0  0
 17 21  1  0  0  0  0
 18 19  1  0  0  0  0
 18 17  2  0  0  0  0
 19 38  1  6  0  0  0
 19 22  1  0  0  0  0
 19 20  1  0  0  0  0
 20 21  1  0  0  0  0
 21 40  1  0  0  0  0
 22 23  1  0  0  0  0
 23 41  1  0  0  0  0
 23 24  2  0  0  0  0
 24 30  1  0  0  0  0
 25 28  1  0  0  0  0
 25 24  1  0  0  0  0
 26 25  2  0  0  0  0
 27 26  1  0  0  0  0
 27 22  2  0  0  0  0
 29 28  1  0  0  0  0
 29 45  1  0  0  0  0
 29 44  1  0  0  0  0
 30 47  1  0  0  0  0
 32  4  1  0  0  0  0
 33  6  1  0  0  0  0
 37 18  1  0  0  0  0
 39 20  1  0  0  0  0
 42 26  1  0  0  0  0
 43 27  1  0  0  0  0
 46 29  1  0  0  0  0
M  END
>  <Pose>
1

>  <Score>
-6.66

$$$$
