
 OpenBabel03202209553D

 41 44  0  0  1  0  0  0  0  0999 V2000
   17.4000    7.9820   34.0520 Cl  0  0  0  0  0  0  0  0  0  0  0  0
   18.9380    8.0320   33.2080 C   0  0  0  0  0  0  0  0  0  0  0  0
   19.7450    6.9170   33.1240 C   0  0  0  0  0  0  0  0  0  0  0  0
   20.9630    6.9620   32.4550 C   0  0  0  0  0  0  0  0  0  0  0  0
   21.4080    8.1180   31.8530 C   0  0  0  0  0  0  0  0  0  0  0  0
   20.6000    9.2300   31.9380 C   0  0  0  0  0  0  0  0  0  0  0  0
   19.3880    9.1860   32.6030 C   0  0  0  0  0  0  0  0  0  0  0  0
   22.6740    8.1800   31.1520 N   0  0  0  0  0  0  0  0  0  0  0  0
   22.9530    7.2950   30.0830 C   0  0  0  0  0  0  0  0  0  0  0  0
   22.0990    6.4460   29.7250 O   0  0  0  0  0  0  0  0  0  0  0  0
   24.2240    7.3880   29.4170 N   0  0  0  0  0  0  0  0  0  0  0  0
   25.1920    8.3480   29.8190 C   0  0  0  0  0  0  0  0  0  0  0  0
   26.3910    8.1990   29.4730 O   0  0  0  0  0  0  0  0  0  0  0  0
   24.7730    9.4990   30.6350 C   0  0  2  0  0  0  0  0  0  0  0  0
   23.6620    9.1240   31.5270 C   0  0  0  0  0  0  0  0  0  0  0  0
   23.5700    9.6620   32.6840 O   0  0  0  0  0  0  0  0  0  0  0  0
   24.3680   10.6530   29.7640 C   0  0  0  0  0  0  0  0  0  0  0  0
   24.9340   11.8260   29.6540 C   0  0  0  0  0  0  0  0  0  0  0  0
   24.1860   12.6350   28.6790 C   0  0  1  0  0  0  0  0  0  0  0  0
   23.3620   11.6800   27.9940 N   0  0  0  0  0  0  0  0  0  0  0  0
   23.2510   10.6060   28.8910 N   0  0  0  0  0  0  0  0  0  0  0  0
   23.3410   13.5790   29.4540 C   0  0  0  0  0  0  0  0  0  0  0  0
   23.1770   14.8740   29.0240 C   0  0  0  0  0  0  0  0  0  0  0  0
   22.4030   15.7450   29.7310 N   0  0  0  0  0  0  0  0  0  0  0  0
   21.7710   15.3940   30.8620 C   0  0  0  0  0  0  0  0  0  0  0  0
   21.9140   14.1040   31.3210 C   0  0  0  0  0  0  0  0  0  0  0  0
   22.7070   13.1950   30.6060 C   0  0  0  0  0  0  0  0  0  0  0  0
   19.4130    6.0030   33.5890 H   0  0  0  0  0  0  0  0  0  0  0  0
   21.6040    6.0980   32.3780 H   0  0  0  0  0  0  0  0  0  0  0  0
   20.9420   10.1570   31.4650 H   0  0  0  0  0  0  0  0  0  0  0  0
   18.7400   10.0630   32.6790 H   0  0  0  0  0  0  0  0  0  0  0  0
   24.4720    6.7570   28.6250 H   0  0  0  0  0  0  0  0  0  0  0  0
   25.6000    9.8960   31.2650 H   0  0  0  0  0  0  0  0  0  0  0  0
   25.8150   12.1260   30.2060 H   0  0  0  0  0  0  0  0  0  0  0  0
   24.8600   13.1880   27.9790 H   0  0  0  0  0  0  0  0  0  0  0  0
   23.7600   11.3870   27.0960 H   0  0  0  0  0  0  0  0  0  0  0  0
   22.4530    9.9310   28.8570 H   0  0  0  0  0  0  0  0  0  0  0  0
   23.6810   15.1840   28.1040 H   0  0  0  0  0  0  0  0  0  0  0  0
   21.1510   16.1130   31.4180 H   0  0  0  0  0  0  0  0  0  0  0  0
   21.4110   13.8120   32.2280 H   0  0  0  0  0  0  0  0  0  0  0  0
   22.8110   12.2030   30.9680 H   0  0  0  0  0  0  0  0  0  0  0  0
  2  1  1  0  0  0  0
  3  2  1  0  0  0  0
  3 28  1  0  0  0  0
  4  3  2  0  0  0  0
  5  6  2  0  0  0  0
  5  4  1  0  0  0  0
  6  7  1  0  0  0  0
  7 31  1  0  0  0  0
  7  2  2  0  0  0  0
  8 15  1  0  0  0  0
  8  5  1  0  0  0  0
  9  8  1  0  0  0  0
 10  9  2  0  0  0  0
 11 12  1  0  0  0  0
 11  9  1  0  0  0  0
 12 14  1  0  0  0  0
 13 12  2  0  0  0  0
 14 33  1  1  0  0  0
 14 15  1  0  0  0  0
 15 16  2  0  0  0  0
 17 14  1  0  0  0  0
 18 17  2  0  0  0  0
 18 34  1  0  0  0  0
 19 35  1  6  0  0  0
 19 22  1  0  0  0  0
 19 18  1  0  0  0  0
 20 19  1  0  0  0  0
 20 21  1  0  0  0  0
 21 17  1  0  0  0  0
 22 27  1  0  0  0  0
 23 22  2  0  0  0  0
 23 24  1  0  0  0  0
 24 25  2  0  0  0  0
 25 26  1  0  0  0  0
 25 39  1  0  0  0  0
 26 40  1  0  0  0  0
 27 41  1  0  0  0  0
 27 26  2  0  0  0  0
 29  4  1  0  0  0  0
 30  6  1  0  0  0  0
 32 11  1  0  0  0  0
 36 20  1  0  0  0  0
 37 21  1  0  0  0  0
 38 23  1  0  0  0  0
M  END
>  <Pose>
1

>  <Score>
-6.31

$$$$
