
 OpenBabel03202209553D

 53 56  0  0  1  0  0  0  0  0999 V2000
   22.2280   12.5310   29.8470 Cl  0  0  0  0  0  0  0  0  0  0  0  0
   22.4610   10.8310   30.2700 C   0  0  0  0  0  0  0  0  0  0  0  0
   22.7080   10.4950   31.5820 C   0  0  0  0  0  0  0  0  0  0  0  0
   22.8930    9.1580   31.9210 C   0  0  0  0  0  0  0  0  0  0  0  0
   22.8320    8.1750   30.9700 C   0  0  0  0  0  0  0  0  0  0  0  0
   22.5840    8.5420   29.6660 C   0  0  0  0  0  0  0  0  0  0  0  0
   22.3960    9.8610   29.2930 C   0  0  0  0  0  0  0  0  0  0  0  0
   23.0260    6.7600   31.3130 N   0  0  0  0  0  0  0  0  0  0  0  0
   24.3120    6.1760   31.1720 C   0  0  2  0  0  0  0  0  0  0  0  0
   24.3610    4.7450   31.4300 C   0  0  0  0  0  0  0  0  0  0  0  0
   23.2830    4.0370   31.8680 C   0  0  0  0  0  0  0  0  0  0  0  0
   23.4100    2.6570   32.1180 C   0  0  0  0  0  0  0  0  0  0  0  0
   24.5860    1.9730   31.9410 C   0  0  0  0  0  0  0  0  0  0  0  0
   25.6710    2.7090   31.4950 C   0  0  0  0  0  0  0  0  0  0  0  0
   25.5560    4.0400   31.2510 C   0  0  0  0  0  0  0  0  0  0  0  0
   21.9970    4.6460   32.0630 N   0  0  0  0  0  0  0  0  0  0  0  0
   21.9200    6.0270   31.7690 C   0  0  0  0  0  0  0  0  0  0  0  0
   20.8140    6.6430   31.9190 O   0  0  0  0  0  0  0  0  0  0  0  0
   25.1030    6.8110   32.1930 O   0  0  0  0  0  0  0  0  0  0  0  0
   24.9640    6.5460   29.8890 C   0  0  0  0  0  0  0  0  0  0  0  0
   24.4510    6.2190   28.8170 O   0  0  0  0  0  0  0  0  0  0  0  0
   26.1680    7.2720   29.9470 N   0  0  0  0  0  0  0  0  0  0  0  0
   26.7870    7.8660   28.7620 C   0  0  0  0  0  0  0  0  0  0  0  0
   27.9660    7.1040   28.2920 C   0  0  0  0  0  0  0  0  0  0  0  0
   28.1630    7.0020   26.8980 N   0  0  0  0  0  0  0  0  0  0  0  0
   27.3830    6.0910   26.1670 C   0  0  0  0  0  0  0  0  0  0  0  0
   27.5850    6.3640   24.6730 C   0  0  0  0  0  0  0  0  0  0  0  0
   28.9040    6.7870   24.4300 O   0  0  0  0  0  0  0  0  0  0  0  0
   29.1180    8.0760   24.9140 C   0  0  0  0  0  0  0  0  0  0  0  0
   28.3610    8.2300   26.2050 C   0  0  0  0  0  0  0  0  0  0  0  0
   22.7510   11.2830   32.3100 H   0  0  0  0  0  0  0  0  0  0  0  0
   23.0830    8.9220   32.9470 H   0  0  0  0  0  0  0  0  0  0  0  0
   22.5320    7.7890   28.9020 H   0  0  0  0  0  0  0  0  0  0  0  0
   22.2010   10.1710   28.2850 H   0  0  0  0  0  0  0  0  0  0  0  0
   22.5330    2.1390   32.4620 H   0  0  0  0  0  0  0  0  0  0  0  0
   24.7030    0.9210   32.1270 H   0  0  0  0  0  0  0  0  0  0  0  0
   26.6280    2.1780   31.3440 H   0  0  0  0  0  0  0  0  0  0  0  0
   26.4020    4.5980   30.9070 H   0  0  0  0  0  0  0  0  0  0  0  0
   21.2010    4.0770   32.4000 H   0  0  0  0  0  0  0  0  0  0  0  0
   26.0240    6.9560   31.8540 H   0  0  0  0  0  0  0  0  0  0  0  0
   26.6930    7.4290   30.8520 H   0  0  0  0  0  0  0  0  0  0  0  0
   25.9850    8.0040   28.0320 H   0  0  0  0  0  0  0  0  0  0  0  0
   27.1230    8.8760   29.0760 H   0  0  0  0  0  0  0  0  0  0  0  0
   27.8730    6.0590   28.6980 H   0  0  0  0  0  0  0  0  0  0  0  0
   28.8910    7.5060   28.7530 H   0  0  0  0  0  0  0  0  0  0  0  0
   27.5350    5.0230   26.4080 H   0  0  0  0  0  0  0  0  0  0  0  0
   26.3070    6.2940   26.3640 H   0  0  0  0  0  0  0  0  0  0  0  0
   27.3570    5.4910   24.0570 H   0  0  0  0  0  0  0  0  0  0  0  0
   26.9370    7.2020   24.3250 H   0  0  0  0  0  0  0  0  0  0  0  0
   28.8330    8.8610   24.1860 H   0  0  0  0  0  0  0  0  0  0  0  0
   30.1930    8.2090   25.1200 H   0  0  0  0  0  0  0  0  0  0  0  0
   28.8160    8.9910   26.8710 H   0  0  0  0  0  0  0  0  0  0  0  0
   27.3470    8.6320   25.9230 H   0  0  0  0  0  0  0  0  0  0  0  0
  1  2  1  0  0  0  0
  2  3  1  0  0  0  0
  3  4  2  0  0  0  0
  3 31  1  0  0  0  0
  4 32  1  0  0  0  0
  5  8  1  0  0  0  0
  5  4  1  0  0  0  0
  6  5  2  0  0  0  0
  7  6  1  0  0  0  0
  7  2  2  0  0  0  0
  8 17  1  0  0  0  0
  9 20  1  6  0  0  0
  9  8  1  0  0  0  0
  9 10  1  0  0  0  0
  9 19  1  0  0  0  0
 10 11  1  0  0  0  0
 11 16  1  0  0  0  0
 11 12  2  0  0  0  0
 12 35  1  0  0  0  0
 13 12  1  0  0  0  0
 13 36  1  0  0  0  0
 14 13  2  0  0  0  0
 15 10  2  0  0  0  0
 15 14  1  0  0  0  0
 16 39  1  0  0  0  0
 17 18  2  0  0  0  0
 17 16  1  0  0  0  0
 20 22  1  0  0  0  0
 21 20  2  0  0  0  0
 22 41  1  0  0  0  0
 23 43  1  0  0  0  0
 23 22  1  0  0  0  0
 24 44  1  0  0  0  0
 24 45  1  0  0  0  0
 24 23  1  0  0  0  0
 25 24  1  0  0  0  0
 26 47  1  0  0  0  0
 26 46  1  0  0  0  0
 26 25  1  0  0  0  0
 27 26  1  0  0  0  0
 28 27  1  0  0  0  0
 28 29  1  0  0  0  0
 29 51  1  0  0  0  0
 29 30  1  0  0  0  0
 30 52  1  0  0  0  0
 30 25  1  0  0  0  0
 33  6  1  0  0  0  0
 34  7  1  0  0  0  0
 37 14  1  0  0  0  0
 38 15  1  0  0  0  0
 40 19  1  0  0  0  0
 42 23  1  0  0  0  0
 48 27  1  0  0  0  0
 49 27  1  0  0  0  0
 50 29  1  0  0  0  0
 53 30  1  0  0  0  0
M  END
>  <Pose>
1

>  <Score>
-6.56

$$$$
