
 OpenBabel03202209553D

 58 62  0  0  1  0  0  0  0  0999 V2000
   28.9510    9.4860   27.4610 Cl  0  0  0  0  0  0  0  0  0  0  0  0
   28.7060    8.0230   26.5330 C   0  0  0  0  0  0  0  0  0  0  0  0
   28.3290    6.8490   27.1530 C   0  0  0  0  0  0  0  0  0  0  0  0
   28.1300    5.6830   26.4490 C   0  0  0  0  0  0  0  0  0  0  0  0
   28.3160    5.7120   25.0850 C   0  0  0  0  0  0  0  0  0  0  0  0
   28.6870    6.8750   24.4870 C   0  0  0  0  0  0  0  0  0  0  0  0
   28.8920    8.0510   25.1720 C   0  0  0  0  0  0  0  0  0  0  0  0
   27.7190    4.4170   27.1500 C   0  0  0  0  0  0  0  0  0  0  0  0
   27.0560    4.7400   28.4010 N   0  0  0  0  0  0  0  0  0  0  0  0
   27.5560    4.3020   29.6590 C   0  0  0  0  0  0  0  0  0  0  0  0
   28.5710    3.5350   29.6940 O   0  0  0  0  0  0  0  0  0  0  0  0
   26.9620    4.6900   30.9420 C   0  0  1  0  0  0  0  0  0  0  0  0
   25.7020    5.3500   30.8480 N   0  0  1  0  0  0  0  0  0  0  0  0
   25.4980    6.1700   29.6990 C   0  0  0  0  0  0  0  0  0  0  0  0
   25.9600    7.6020   29.8190 C   0  0  0  0  0  0  0  0  0  0  0  0
   24.6010    8.0370   29.7990 N   0  0  0  0  0  0  0  0  0  0  0  0
   24.0850    6.7290   29.7190 C   0  0  0  0  0  0  0  0  0  0  0  0
   24.1460    8.9440   30.7890 C   0  0  0  0  0  0  0  0  0  0  0  0
   23.9920   10.3410   30.3650 C   0  0  0  0  0  0  0  0  0  0  0  0
   22.7400   10.8950   30.2650 C   0  0  0  0  0  0  0  0  0  0  0  0
   22.5640   12.2220   29.8630 C   0  0  0  0  0  0  0  0  0  0  0  0
   23.6720   12.9820   29.5640 C   0  0  0  0  0  0  0  0  0  0  0  0
   24.9370   12.4530   29.6560 C   0  0  0  0  0  0  0  0  0  0  0  0
   25.0760   11.1260   30.0600 C   0  0  0  0  0  0  0  0  0  0  0  0
   21.3070   12.7830   29.7610 O   0  0  0  0  0  0  0  0  0  0  0  0
   20.9380   13.7880   30.6860 C   0  0  0  0  0  0  0  0  0  0  0  0
   25.8630    5.5140   28.4170 C   0  0  0  0  0  0  0  0  0  0  0  0
   25.1740    5.6160   27.3700 O   0  0  0  0  0  0  0  0  0  0  0  0
   24.6690    4.3570   30.9180 C   0  0  0  0  0  0  0  0  0  0  0  0
   25.3210    3.0200   31.1330 C   0  0  1  0  0  0  0  0  0  0  0  0
   26.6620    3.3890   31.7000 C   0  0  0  0  0  0  0  0  0  0  0  0
   24.5940    2.1930   31.9780 O   0  0  0  0  0  0  0  0  0  0  0  0
   28.1830    6.8390   28.2440 H   0  0  0  0  0  0  0  0  0  0  0  0
   28.1610    4.8120   24.5320 H   0  0  0  0  0  0  0  0  0  0  0  0
   28.8310    6.8840   23.4080 H   0  0  0  0  0  0  0  0  0  0  0  0
   29.1910    8.9750   24.6620 H   0  0  0  0  0  0  0  0  0  0  0  0
   28.6530    3.8530   27.3580 H   0  0  0  0  0  0  0  0  0  0  0  0
   27.0370    3.8750   26.4680 H   0  0  0  0  0  0  0  0  0  0  0  0
   27.6740    5.2740   31.5720 H   0  0  0  0  0  0  0  0  0  0  0  0
   26.5810    7.8380   30.6810 H   0  0  0  0  0  0  0  0  0  0  0  0
   26.4610    7.9440   28.8670 H   0  0  0  0  0  0  0  0  0  0  0  0
   23.4440    6.3440   30.5170 H   0  0  0  0  0  0  0  0  0  0  0  0
   23.5910    6.5200   28.7260 H   0  0  0  0  0  0  0  0  0  0  0  0
   23.1740    8.5200   31.1880 H   0  0  0  0  0  0  0  0  0  0  0  0
   24.8340    8.8510   31.6820 H   0  0  0  0  0  0  0  0  0  0  0  0
   21.8270   10.3550   30.4830 H   0  0  0  0  0  0  0  0  0  0  0  0
   23.5000   14.0160   29.2530 H   0  0  0  0  0  0  0  0  0  0  0  0
   25.7680   13.0960   29.4100 H   0  0  0  0  0  0  0  0  0  0  0  0
   26.0920   10.7640   30.1140 H   0  0  0  0  0  0  0  0  0  0  0  0
   19.8790   14.0480   30.4610 H   0  0  0  0  0  0  0  0  0  0  0  0
   21.0350   13.4270   31.7380 H   0  0  0  0  0  0  0  0  0  0  0  0
   21.5640   14.6970   30.5840 H   0  0  0  0  0  0  0  0  0  0  0  0
   24.0600    4.2850   29.9820 H   0  0  0  0  0  0  0  0  0  0  0  0
   23.9850    4.5950   31.7850 H   0  0  0  0  0  0  0  0  0  0  0  0
   25.5010    2.5390   30.1320 H   0  0  0  0  0  0  0  0  0  0  0  0
   27.4370    2.6290   31.5120 H   0  0  0  0  0  0  0  0  0  0  0  0
   26.5470    3.6450   32.7580 H   0  0  0  0  0  0  0  0  0  0  0  0
   23.9660    1.6780   31.4160 H   0  0  0  0  0  0  0  0  0  0  0  0
  2  3  1  0  0  0  0
  2  1  1  0  0  0  0
  3 33  1  0  0  0  0
  4  8  1  0  0  0  0
  4  3  2  0  0  0  0
  5  4  1  0  0  0  0
  6  5  2  0  0  0  0
  6  7  1  0  0  0  0
  7  2  2  0  0  0  0
  8 37  1  0  0  0  0
  8  9  1  0  0  0  0
  9 27  1  0  0  0  0
  9 10  1  0  0  0  0
 10 11  2  0  0  0  0
 10 12  1  0  0  0  0
 12 39  1  1  0  0  0
 12 31  1  0  0  0  0
 13 14  1  6  0  0  0
 13 29  1  0  0  0  0
 13 12  1  0  0  0  0
 14 17  1  0  0  0  0
 14 15  1  0  0  0  0
 15 40  1  0  0  0  0
 16 15  1  0  0  0  0
 16 18  1  0  0  0  0
 17 16  1  0  0  0  0
 17 42  1  0  0  0  0
 18 44  1  0  0  0  0
 18 45  1  0  0  0  0
 19 18  1  0  0  0  0
 20 19  1  0  0  0  0
 20 46  1  0  0  0  0
 21 20  2  0  0  0  0
 22 23  2  0  0  0  0
 22 21  1  0  0  0  0
 23 24  1  0  0  0  0
 24 49  1  0  0  0  0
 24 19  2  0  0  0  0
 25 21  1  0  0  0  0
 25 26  1  0  0  0  0
 26 51  1  0  0  0  0
 27 14  1  0  0  0  0
 28 27  2  0  0  0  0
 29 30  1  0  0  0  0
 29 54  1  0  0  0  0
 30 55  1  6  0  0  0
 30 31  1  0  0  0  0
 30 32  1  0  0  0  0
 31 57  1  0  0  0  0
 34  5  1  0  0  0  0
 35  6  1  0  0  0  0
 36  7  1  0  0  0  0
 38  8  1  0  0  0  0
 41 15  1  0  0  0  0
 43 17  1  0  0  0  0
 47 22  1  0  0  0  0
 48 23  1  0  0  0  0
 50 26  1  0  0  0  0
 52 26  1  0  0  0  0
 53 29  1  0  0  0  0
 56 31  1  0  0  0  0
 58 32  1  0  0  0  0
M  END
>  <Pose>
1

>  <Score>
-6.05

$$$$
