
 OpenBabel03202209553D

 58 61  0  0  1  0  0  0  0  0999 V2000
   21.7660    3.8710   30.2970 Cl  0  0  0  0  0  0  0  0  0  0  0  0
   22.1410    5.5710   30.6710 C   0  0  0  0  0  0  0  0  0  0  0  0
   21.3630    6.2790   31.5570 C   0  0  0  0  0  0  0  0  0  0  0  0
   21.6620    7.6220   31.8310 C   0  0  0  0  0  0  0  0  0  0  0  0
   22.7330    8.2690   31.2320 C   0  0  0  0  0  0  0  0  0  0  0  0
   23.4860    7.5470   30.3640 C   0  0  0  0  0  0  0  0  0  0  0  0
   23.2090    6.2170   30.0730 C   0  0  0  0  0  0  0  0  0  0  0  0
   22.9150    9.6960   31.5840 C   0  0  1  0  0  0  0  0  0  0  0  0
   24.3170   10.0940   31.7780 C   0  0  0  0  0  0  0  0  0  0  0  0
   24.7100   11.4860   31.3510 C   0  0  0  0  0  0  0  0  0  0  0  0
   23.6380   12.3370   30.9510 N   0  0  0  0  0  0  0  0  0  0  0  0
   22.6770   11.7000   30.0290 C   0  0  0  0  0  0  0  0  0  0  0  0
   22.1360   10.4570   30.5410 C   0  0  0  0  0  0  0  0  0  0  0  0
   23.5680   13.7410   31.1150 C   0  0  0  0  0  0  0  0  0  0  0  0
   24.5800   14.4370   31.0870 O   0  0  0  0  0  0  0  0  0  0  0  0
   22.2200   14.4190   31.3260 C   0  0  1  0  0  0  0  0  0  0  0  0
   21.8730   15.1770   30.1470 N   0  0  0  0  0  0  0  0  0  0  0  0
   22.1190   16.5370   29.9670 C   0  0  0  0  0  0  0  0  0  0  0  0
   22.3800   17.1210   31.1920 O   0  0  0  0  0  0  0  0  0  0  0  0
   22.2070   17.4720   28.9470 C   0  0  0  0  0  0  0  0  0  0  0  0
   22.7090   17.8480   27.8080 C   0  0  0  0  0  0  0  0  0  0  0  0
   22.2800   19.1260   27.2250 N   0  0  0  0  0  0  0  0  0  0  0  0
   22.8230   19.6520   26.0690 N   0  0  0  0  0  0  0  0  0  0  0  0
   23.8260   19.0050   25.3650 C   0  0  0  0  0  0  0  0  0  0  0  0
   24.3440   19.4430   24.3070 O   0  0  0  0  0  0  0  0  0  0  0  0
   24.3260   17.7060   25.8770 C   0  0  0  0  0  0  0  0  0  0  0  0
   23.7600   17.2200   27.0310 C   0  0  0  0  0  0  0  0  0  0  0  0
   24.3320   16.0450   27.5300 C   0  0  0  0  0  0  0  0  0  0  0  0
   25.3890   15.4250   26.8780 C   0  0  0  0  0  0  0  0  0  0  0  0
   25.9150   15.9420   25.7230 C   0  0  0  0  0  0  0  0  0  0  0  0
   25.3710   17.1040   25.2200 C   0  0  0  0  0  0  0  0  0  0  0  0
   21.2400   13.7450   32.1260 C   0  0  0  0  0  0  0  0  0  0  0  0
   22.2510    9.8920   32.8320 O   0  0  0  0  0  0  0  0  0  0  0  0
   20.5240    5.7800   32.0390 H   0  0  0  0  0  0  0  0  0  0  0  0
   21.0310    8.1310   32.5430 H   0  0  0  0  0  0  0  0  0  0  0  0
   24.3460    7.9670   29.8580 H   0  0  0  0  0  0  0  0  0  0  0  0
   23.7930    5.6380   29.3860 H   0  0  0  0  0  0  0  0  0  0  0  0
   25.0700    9.3930   31.3270 H   0  0  0  0  0  0  0  0  0  0  0  0
   24.5370   10.0450   32.8930 H   0  0  0  0  0  0  0  0  0  0  0  0
   25.3310   11.3660   30.3830 H   0  0  0  0  0  0  0  0  0  0  0  0
   25.4460   11.9760   32.0180 H   0  0  0  0  0  0  0  0  0  0  0  0
   23.3850   11.4220   29.1400 H   0  0  0  0  0  0  0  0  0  0  0  0
   21.9450   12.3880   29.6280 H   0  0  0  0  0  0  0  0  0  0  0  0
   21.1000   10.6010   30.9060 H   0  0  0  0  0  0  0  0  0  0  0  0
   21.9670    9.7750   29.6270 H   0  0  0  0  0  0  0  0  0  0  0  0
   22.5920   15.3250   32.0270 H   0  0  0  0  0  0  0  0  0  0  0  0
   21.3380   14.5600   29.4490 H   0  0  0  0  0  0  0  0  0  0  0  0
   21.4610   18.3840   29.2400 H   0  0  0  0  0  0  0  0  0  0  0  0
   21.5180   19.6330   27.7520 H   0  0  0  0  0  0  0  0  0  0  0  0
   22.4650   20.5780   25.7060 H   0  0  0  0  0  0  0  0  0  0  0  0
   23.9840   15.6640   28.4300 H   0  0  0  0  0  0  0  0  0  0  0  0
   25.8120   14.4940   27.2940 H   0  0  0  0  0  0  0  0  0  0  0  0
   26.7380   15.4190   25.2700 H   0  0  0  0  0  0  0  0  0  0  0  0
   25.7520   17.5560   24.3140 H   0  0  0  0  0  0  0  0  0  0  0  0
   20.2790   13.4800   31.6280 H   0  0  0  0  0  0  0  0  0  0  0  0
   20.8970   14.3570   33.0320 H   0  0  0  0  0  0  0  0  0  0  0  0
   21.6580   12.8310   32.6390 H   0  0  0  0  0  0  0  0  0  0  0  0
   22.4600    9.1830   33.4630 H   0  0  0  0  0  0  0  0  0  0  0  0
  1  2  1  0  0  0  0
  2  3  1  0  0  0  0
  3  4  2  0  0  0  0
  3 34  1  0  0  0  0
  4 35  1  0  0  0  0
  5  8  1  0  0  0  0
  5  4  1  0  0  0  0
  6  5  2  0  0  0  0
  7  6  1  0  0  0  0
  7  2  2  0  0  0  0
  8  9  1  0  0  0  0
  8 33  1  1  0  0  0
  9 39  1  0  0  0  0
 10  9  1  0  0  0  0
 10 41  1  0  0  0  0
 11 14  1  0  0  0  0
 11 10  1  0  0  0  0
 12 13  1  0  0  0  0
 12 11  1  0  0  0  0
 13 44  1  0  0  0  0
 13  8  1  0  0  0  0
 14 16  1  0  0  0  0
 15 14  2  0  0  0  0
 16 46  1  1  0  0  0
 16 32  1  0  0  0  0
 17 16  1  0  0  0  0
 18 17  1  0  0  0  0
 18 19  2  0  0  0  0
 20 48  1  0  0  0  0
 20 18  1  0  0  0  0
 21 20  2  0  0  0  0
 22 49  1  0  0  0  0
 22 21  1  0  0  0  0
 23 22  1  0  0  0  0
 24 26  1  0  0  0  0
 24 23  1  0  0  0  0
 25 24  2  0  0  0  0
 26 27  1  0  0  0  0
 27 28  2  0  0  0  0
 27 21  1  0  0  0  0
 28 51  1  0  0  0  0
 29 52  1  0  0  0  0
 29 28  1  0  0  0  0
 30 29  2  0  0  0  0
 31 30  1  0  0  0  0
 31 26  2  0  0  0  0
 32 57  1  0  0  0  0
 32 56  1  0  0  0  0
 33 58  1  0  0  0  0
 36  6  1  0  0  0  0
 37  7  1  0  0  0  0
 38  9  1  0  0  0  0
 40 10  1  0  0  0  0
 42 12  1  0  0  0  0
 43 12  1  0  0  0  0
 45 13  1  0  0  0  0
 47 17  1  0  0  0  0
 50 23  1  0  0  0  0
 53 30  1  0  0  0  0
 54 31  1  0  0  0  0
 55 32  1  0  0  0  0
M  END
>  <Pose>
1

>  <Score>
-8.08

$$$$
