
 OpenBabel03202209553D

 58 61  0  0  0  0  0  0  0  0999 V2000
   22.3700    9.5550   29.3520 Cl  0  0  0  0  0  0  0  0  0  0  0  0
   23.1830   10.7300   30.3550 C   0  0  0  0  0  0  0  0  0  0  0  0
   24.3440   10.3470   30.9900 C   0  0  0  0  0  0  0  0  0  0  0  0
   24.9390   11.3570   31.7600 C   0  0  0  0  0  0  0  0  0  0  0  0
   24.3960   12.5850   31.8500 N   0  0  0  0  0  0  0  0  0  0  0  0
   23.2870   12.9580   31.2460 N   0  0  0  0  0  0  0  0  0  0  0  0
   22.6820   12.0270   30.4990 C   0  0  0  0  0  0  0  0  0  0  0  0
   21.6180   12.3020   29.8890 O   0  0  0  0  0  0  0  0  0  0  0  0
   22.7820   14.2820   31.3960 C   0  0  0  0  0  0  0  0  0  0  0  0
   22.5710   15.1170   30.3100 C   0  0  0  0  0  0  0  0  0  0  0  0
   22.0830   16.4020   30.4380 C   0  0  0  0  0  0  0  0  0  0  0  0
   21.7940   16.8660   31.7040 C   0  0  0  0  0  0  0  0  0  0  0  0
   21.9940   16.0590   32.8100 C   0  0  0  0  0  0  0  0  0  0  0  0
   22.4910   14.7610   32.6470 C   0  0  0  0  0  0  0  0  0  0  0  0
   24.8850    9.0490   30.9170 N   0  0  0  0  0  0  0  0  0  0  0  0
   25.4960    8.4420   32.0950 C   0  0  0  0  0  0  0  0  0  0  0  0
   24.8310    7.1380   32.4710 C   0  0  0  0  0  0  0  0  0  0  0  0
   24.0890    6.6720   31.3250 N   0  0  0  0  0  0  0  0  0  0  0  0
   24.7730    6.7680   30.0480 C   0  0  0  0  0  0  0  0  0  0  0  0
   24.8210    8.2520   29.6840 C   0  0  0  0  0  0  0  0  0  0  0  0
   22.7810    6.1480   31.3860 C   0  0  0  0  0  0  0  0  0  0  0  0
   22.6100    4.9940   31.8380 O   0  0  0  0  0  0  0  0  0  0  0  0
   21.5810    6.8960   30.9400 C   0  0  0  0  0  0  0  0  0  0  0  0
   21.4300    8.1820   31.7190 C   0  0  0  0  0  0  0  0  0  0  0  0
   20.9540    7.9510   33.1220 C   0  0  0  0  0  0  0  0  0  0  0  0
   19.5550    8.2580   33.3250 N   0  0  0  0  0  0  0  0  0  0  0  0
   18.9990    9.5490   33.4930 C   0  0  0  0  0  0  0  0  0  0  0  0
   19.6360   10.6560   33.4960 O   0  0  0  0  0  0  0  0  0  0  0  0
   17.6000    9.4880   33.6650 N   0  0  0  0  0  0  0  0  0  0  0  0
   17.2000    8.0990   33.6250 C   0  0  0  0  0  0  0  0  0  0  0  0
   18.4540    7.3470   33.3960 C   0  0  0  0  0  0  0  0  0  0  0  0
   18.5490    6.1060   33.2820 O   0  0  0  0  0  0  0  0  0  0  0  0
   16.7050   10.6110   33.8510 C   0  0  0  0  0  0  0  0  0  0  0  0
   25.8400   11.0860   32.2770 H   0  0  0  0  0  0  0  0  0  0  0  0
   22.8020   14.7370   29.3240 H   0  0  0  0  0  0  0  0  0  0  0  0
   21.9220   17.0480   29.5630 H   0  0  0  0  0  0  0  0  0  0  0  0
   21.4120   17.8730   31.7960 H   0  0  0  0  0  0  0  0  0  0  0  0
   21.7560   16.4580   33.7810 H   0  0  0  0  0  0  0  0  0  0  0  0
   22.6500   14.1190   33.5030 H   0  0  0  0  0  0  0  0  0  0  0  0
   26.5650    8.2290   31.7610 H   0  0  0  0  0  0  0  0  0  0  0  0
   25.4920    9.0650   32.9930 H   0  0  0  0  0  0  0  0  0  0  0  0
   24.1580    7.2580   33.3420 H   0  0  0  0  0  0  0  0  0  0  0  0
   25.6390    6.4060   32.7590 H   0  0  0  0  0  0  0  0  0  0  0  0
   25.8150    6.4160   30.1820 H   0  0  0  0  0  0  0  0  0  0  0  0
   24.2930    6.1650   29.2550 H   0  0  0  0  0  0  0  0  0  0  0  0
   23.8380    8.4420   29.2330 H   0  0  0  0  0  0  0  0  0  0  0  0
   25.7070    8.4420   29.1090 H   0  0  0  0  0  0  0  0  0  0  0  0
   21.6380    7.1440   29.8610 H   0  0  0  0  0  0  0  0  0  0  0  0
   20.6590    6.2750   31.0540 H   0  0  0  0  0  0  0  0  0  0  0  0
   20.6980    8.8480   31.2260 H   0  0  0  0  0  0  0  0  0  0  0  0
   22.4000    8.7360   31.7410 H   0  0  0  0  0  0  0  0  0  0  0  0
   21.5510    8.5690   33.8440 H   0  0  0  0  0  0  0  0  0  0  0  0
   21.0930    6.9020   33.4540 H   0  0  0  0  0  0  0  0  0  0  0  0
   16.4720    7.9090   32.7910 H   0  0  0  0  0  0  0  0  0  0  0  0
   16.6880    7.7710   34.5500 H   0  0  0  0  0  0  0  0  0  0  0  0
   16.5050   11.0640   32.8520 H   0  0  0  0  0  0  0  0  0  0  0  0
   17.2540   11.4140   34.4210 H   0  0  0  0  0  0  0  0  0  0  0  0
   15.7820   10.2990   34.3590 H   0  0  0  0  0  0  0  0  0  0  0  0
  1  2  1  0  0  0  0
  2  7  1  0  0  0  0
  2  3  2  0  0  0  0
  3  4  1  0  0  0  0
  4  5  2  0  0  0  0
  4 34  1  0  0  0  0
  6  9  1  0  0  0  0
  6  5  1  0  0  0  0
  7  6  1  0  0  0  0
  8  7  2  0  0  0  0
  9 14  1  0  0  0  0
 10 11  1  0  0  0  0
 10  9  2  0  0  0  0
 11 12  2  0  0  0  0
 12 37  1  0  0  0  0
 12 13  1  0  0  0  0
 13 38  1  0  0  0  0
 14 13  2  0  0  0  0
 14 39  1  0  0  0  0
 15  3  1  0  0  0  0
 15 16  1  0  0  0  0
 16 17  1  0  0  0  0
 16 41  1  0  0  0  0
 17 43  1  0  0  0  0
 17 42  1  0  0  0  0
 18 21  1  0  0  0  0
 18 17  1  0  0  0  0
 19 44  1  0  0  0  0
 19 18  1  0  0  0  0
 20 19  1  0  0  0  0
 20 15  1  0  0  0  0
 21 22  2  0  0  0  0
 23 49  1  0  0  0  0
 23 21  1  0  0  0  0
 23 24  1  0  0  0  0
 24 51  1  0  0  0  0
 24 25  1  0  0  0  0
 25 26  1  0  0  0  0
 25 53  1  0  0  0  0
 25 52  1  0  0  0  0
 26 31  1  0  0  0  0
 26 27  1  0  0  0  0
 27 28  2  0  0  0  0
 27 29  1  0  0  0  0
 29 33  1  0  0  0  0
 30 29  1  0  0  0  0
 30 55  1  0  0  0  0
 31 30  1  0  0  0  0
 32 31  2  0  0  0  0
 33 58  1  0  0  0  0
 33 57  1  0  0  0  0
 35 10  1  0  0  0  0
 36 11  1  0  0  0  0
 40 16  1  0  0  0  0
 45 19  1  0  0  0  0
 46 20  1  0  0  0  0
 47 20  1  0  0  0  0
 48 23  1  0  0  0  0
 50 24  1  0  0  0  0
 54 30  1  0  0  0  0
 56 33  1  0  0  0  0
M  END
>  <Pose>
1

>  <Score>
-6.61

$$$$
