
 OpenBabel03202209553D

 50 53  0  0  0  0  0  0  0  0999 V2000
   22.8190   13.7420   30.0420 Cl  0  0  0  0  0  0  0  0  0  0  0  0
   24.2840   13.3350   29.1790 C   0  0  0  0  0  0  0  0  0  0  0  0
   24.8070   12.0640   29.3100 C   0  0  0  0  0  0  0  0  0  0  0  0
   25.9680   11.8080   28.6030 C   0  0  0  0  0  0  0  0  0  0  0  0
   26.5550   12.7430   27.8320 N   0  0  0  0  0  0  0  0  0  0  0  0
   26.0670   13.9650   27.6940 N   0  0  0  0  0  0  0  0  0  0  0  0
   24.9380   14.2490   28.3680 C   0  0  0  0  0  0  0  0  0  0  0  0
   24.4700   15.4010   28.2430 O   0  0  0  0  0  0  0  0  0  0  0  0
   26.6960   14.9520   26.8720 C   0  0  0  0  0  0  0  0  0  0  0  0
   25.9920   15.5950   25.8750 C   0  0  0  0  0  0  0  0  0  0  0  0
   26.5910   16.5480   25.0760 C   0  0  0  0  0  0  0  0  0  0  0  0
   27.9150   16.9010   25.2340 C   0  0  0  0  0  0  0  0  0  0  0  0
   28.6250   16.2620   26.2300 C   0  0  0  0  0  0  0  0  0  0  0  0
   28.0220   15.3130   27.0230 C   0  0  0  0  0  0  0  0  0  0  0  0
   24.1930   11.0640   30.1250 N   0  0  0  0  0  0  0  0  0  0  0  0
   24.9640   10.4800   31.1870 C   0  0  0  0  0  0  0  0  0  0  0  0
   24.6810    9.0010   31.3310 C   0  0  0  0  0  0  0  0  0  0  0  0
   23.3090    8.6830   31.0210 N   0  0  0  0  0  0  0  0  0  0  0  0
   22.3530    9.7590   30.9220 C   0  0  0  0  0  0  0  0  0  0  0  0
   22.8240   10.6910   29.8340 C   0  0  0  0  0  0  0  0  0  0  0  0
   22.9180    7.3350   30.8200 C   0  0  0  0  0  0  0  0  0  0  0  0
   22.0940    6.7600   31.6010 O   0  0  0  0  0  0  0  0  0  0  0  0
   23.4380    6.5150   29.6940 C   0  0  0  0  0  0  0  0  0  0  0  0
   24.8350    6.3980   29.7330 O   0  0  0  0  0  0  0  0  0  0  0  0
   25.5390    6.0140   28.6080 C   0  0  0  0  0  0  0  0  0  0  0  0
   25.2170    5.1330   27.6540 N   0  0  0  0  0  0  0  0  0  0  0  0
   26.1580    5.0650   26.7700 O   0  0  0  0  0  0  0  0  0  0  0  0
   27.1530    5.8760   27.0630 C   0  0  0  0  0  0  0  0  0  0  0  0
   26.7860    6.4990   28.2380 C   0  0  0  0  0  0  0  0  0  0  0  0
   28.3670    6.0140   26.2380 C   0  0  0  0  0  0  0  0  0  0  0  0
   26.3950   10.7980   28.7010 H   0  0  0  0  0  0  0  0  0  0  0  0
   24.9520   15.3380   25.7260 H   0  0  0  0  0  0  0  0  0  0  0  0
   26.0400   17.0520   24.2940 H   0  0  0  0  0  0  0  0  0  0  0  0
   28.3770   17.6540   24.6000 H   0  0  0  0  0  0  0  0  0  0  0  0
   29.6650   16.5590   26.3340 H   0  0  0  0  0  0  0  0  0  0  0  0
   28.6120   14.8380   27.7870 H   0  0  0  0  0  0  0  0  0  0  0  0
   26.0520   10.5990   31.0260 H   0  0  0  0  0  0  0  0  0  0  0  0
   24.7140   11.0440   32.1210 H   0  0  0  0  0  0  0  0  0  0  0  0
   25.4100    8.4110   30.7740 H   0  0  0  0  0  0  0  0  0  0  0  0
   24.8300    8.7480   32.4130 H   0  0  0  0  0  0  0  0  0  0  0  0
   22.4200   10.3430   31.8810 H   0  0  0  0  0  0  0  0  0  0  0  0
   21.3200    9.4050   30.7690 H   0  0  0  0  0  0  0  0  0  0  0  0
   22.7440   10.2180   28.8290 H   0  0  0  0  0  0  0  0  0  0  0  0
   22.1760   11.6130   29.8890 H   0  0  0  0  0  0  0  0  0  0  0  0
   23.0870    6.8850   28.7120 H   0  0  0  0  0  0  0  0  0  0  0  0
   23.0310    5.4650   29.7860 H   0  0  0  0  0  0  0  0  0  0  0  0
   27.3890    7.2310   28.7500 H   0  0  0  0  0  0  0  0  0  0  0  0
   29.1720    6.5610   26.7560 H   0  0  0  0  0  0  0  0  0  0  0  0
   28.1480    6.5600   25.2740 H   0  0  0  0  0  0  0  0  0  0  0  0
   28.7230    4.9850   25.9380 H   0  0  0  0  0  0  0  0  0  0  0  0
  2  3  2  0  0  0  0
  2  1  1  0  0  0  0
  3 15  1  0  0  0  0
  4 31  1  0  0  0  0
  4  3  1  0  0  0  0
  5  4  2  0  0  0  0
  6  5  1  0  0  0  0
  6  7  1  0  0  0  0
  7  2  1  0  0  0  0
  8  7  2  0  0  0  0
  9 14  1  0  0  0  0
  9  6  1  0  0  0  0
 10  9  2  0  0  0  0
 11 12  2  0  0  0  0
 11 10  1  0  0  0  0
 12 13  1  0  0  0  0
 13 35  1  0  0  0  0
 13 14  2  0  0  0  0
 14 36  1  0  0  0  0
 15 16  1  0  0  0  0
 16 17  1  0  0  0  0
 16 38  1  0  0  0  0
 17 40  1  0  0  0  0
 18 17  1  0  0  0  0
 19 18  1  0  0  0  0
 19 41  1  0  0  0  0
 20 44  1  0  0  0  0
 20 15  1  0  0  0  0
 20 19  1  0  0  0  0
 21 18  1  0  0  0  0
 21 22  2  0  0  0  0
 23 24  1  0  0  0  0
 23 46  1  0  0  0  0
 23 21  1  0  0  0  0
 25 24  1  0  0  0  0
 26 25  2  0  0  0  0
 27 28  1  0  0  0  0
 27 26  1  0  0  0  0
 28 29  2  0  0  0  0
 29 25  1  0  0  0  0
 29 47  1  0  0  0  0
 30 48  1  0  0  0  0
 30 28  1  0  0  0  0
 32 10  1  0  0  0  0
 33 11  1  0  0  0  0
 34 12  1  0  0  0  0
 37 16  1  0  0  0  0
 39 17  1  0  0  0  0
 42 19  1  0  0  0  0
 43 20  1  0  0  0  0
 45 23  1  0  0  0  0
 49 30  1  0  0  0  0
 50 30  1  0  0  0  0
M  END
>  <Pose>
1

>  <Score>
-6.70

$$$$
