
 OpenBabel03202209553D

 53 56  0  0  0  0  0  0  0  0999 V2000
   26.5170    5.9340   28.6470 Cl  0  0  0  0  0  0  0  0  0  0  0  0
   25.0590    6.5010   29.4540 C   0  0  0  0  0  0  0  0  0  0  0  0
   25.1160    7.7520   30.0630 C   0  0  0  0  0  0  0  0  0  0  0  0
   23.9840    8.2090   30.6990 C   0  0  0  0  0  0  0  0  0  0  0  0
   22.8310    7.4360   30.7210 C   0  0  0  0  0  0  0  0  0  0  0  0
   22.7820    6.1890   30.1110 C   0  0  0  0  0  0  0  0  0  0  0  0
   23.9210    5.7300   29.4730 C   0  0  0  0  0  0  0  0  0  0  0  0
   21.6550    7.8260   31.3390 O   0  0  0  0  0  0  0  0  0  0  0  0
   21.4540    8.6720   32.4370 C   0  0  0  0  0  0  0  0  0  0  0  0
   21.9340   10.0690   32.2830 C   0  0  0  0  0  0  0  0  0  0  0  0
   22.9670   10.2910   31.3240 N   0  0  0  0  0  0  0  0  0  0  0  0
   24.2370    9.5540   31.2840 C   0  0  0  0  0  0  0  0  0  0  0  0
   22.7810   11.2960   30.3350 C   0  0  0  0  0  0  0  0  0  0  0  0
   22.0700   10.9960   29.3500 O   0  0  0  0  0  0  0  0  0  0  0  0
   23.3760   12.6190   30.4430 C   0  0  0  0  0  0  0  0  0  0  0  0
   23.8170   13.0810   31.7710 C   0  0  0  0  0  0  0  0  0  0  0  0
   23.5630   14.4700   32.1860 C   0  0  0  0  0  0  0  0  0  0  0  0
   22.2600   15.0170   32.1030 N   0  0  0  0  0  0  0  0  0  0  0  0
   21.9470   16.3960   32.0240 C   0  0  0  0  0  0  0  0  0  0  0  0
   22.7390   17.3850   32.0030 O   0  0  0  0  0  0  0  0  0  0  0  0
   20.5350   16.5000   31.9650 N   0  0  0  0  0  0  0  0  0  0  0  0
   19.9820   15.1900   31.6320 C   0  0  0  0  0  0  0  0  0  0  0  0
   21.0520   14.2810   32.0950 C   0  0  0  0  0  0  0  0  0  0  0  0
   20.8850   13.0520   32.4240 O   0  0  0  0  0  0  0  0  0  0  0  0
   19.9440    8.7010   32.7430 C   0  0  0  0  0  0  0  0  0  0  0  0
   19.4980    7.2650   32.8140 C   0  0  0  0  0  0  0  0  0  0  0  0
   20.5530    6.3740   32.7320 O   0  0  0  0  0  0  0  0  0  0  0  0
   21.5100    6.5870   33.7070 C   0  0  0  0  0  0  0  0  0  0  0  0
   22.0510    8.0000   33.6840 C   0  0  0  0  0  0  0  0  0  0  0  0
   26.0300    8.3160   30.0210 H   0  0  0  0  0  0  0  0  0  0  0  0
   21.8840    5.6230   30.1480 H   0  0  0  0  0  0  0  0  0  0  0  0
   23.9120    4.7530   28.9830 H   0  0  0  0  0  0  0  0  0  0  0  0
   22.3580   10.3860   33.2830 H   0  0  0  0  0  0  0  0  0  0  0  0
   21.0640   10.7710   32.1360 H   0  0  0  0  0  0  0  0  0  0  0  0
   25.0370   10.1000   30.7890 H   0  0  0  0  0  0  0  0  0  0  0  0
   24.5970    9.3650   32.3310 H   0  0  0  0  0  0  0  0  0  0  0  0
   22.7380   13.4270   30.0030 H   0  0  0  0  0  0  0  0  0  0  0  0
   24.2880   12.6280   29.7720 H   0  0  0  0  0  0  0  0  0  0  0  0
   24.9510   12.9450   31.7970 H   0  0  0  0  0  0  0  0  0  0  0  0
   23.4980   12.3370   32.5750 H   0  0  0  0  0  0  0  0  0  0  0  0
   23.9790   14.5580   33.2500 H   0  0  0  0  0  0  0  0  0  0  0  0
   24.2440   15.2070   31.6400 H   0  0  0  0  0  0  0  0  0  0  0  0
   19.9530   17.3450   32.1260 H   0  0  0  0  0  0  0  0  0  0  0  0
   19.8860   15.0710   30.5380 H   0  0  0  0  0  0  0  0  0  0  0  0
   19.0300   15.0070   32.1720 H   0  0  0  0  0  0  0  0  0  0  0  0
   19.4020    9.2960   32.0050 H   0  0  0  0  0  0  0  0  0  0  0  0
   19.8610    9.1650   33.7490 H   0  0  0  0  0  0  0  0  0  0  0  0
   18.8980    7.0490   33.7310 H   0  0  0  0  0  0  0  0  0  0  0  0
   18.8270    7.0800   31.9500 H   0  0  0  0  0  0  0  0  0  0  0  0
   21.1740    6.2930   34.7270 H   0  0  0  0  0  0  0  0  0  0  0  0
   22.3700    5.8980   33.4680 H   0  0  0  0  0  0  0  0  0  0  0  0
   21.6190    8.5230   34.5760 H   0  0  0  0  0  0  0  0  0  0  0  0
   23.1390    8.0420   33.6980 H   0  0  0  0  0  0  0  0  0  0  0  0
  1  2  1  0  0  0  0
  2  7  2  0  0  0  0
  2  3  1  0  0  0  0
  3  4  2  0  0  0  0
  4  5  1  0  0  0  0
  4 12  1  0  0  0  0
  5  8  1  0  0  0  0
  6 31  1  0  0  0  0
  6  5  2  0  0  0  0
  7  6  1  0  0  0  0
  8  9  1  0  0  0  0
  9 25  1  0  0  0  0
  9 29  1  0  0  0  0
 10  9  1  0  0  0  0
 10 33  1  0  0  0  0
 11 10  1  0  0  0  0
 12 11  1  0  0  0  0
 12 36  1  0  0  0  0
 13 15  1  0  0  0  0
 13 11  1  0  0  0  0
 14 13  2  0  0  0  0
 15 16  1  0  0  0  0
 16 39  1  0  0  0  0
 16 17  1  0  0  0  0
 16 40  1  0  0  0  0
 17 41  1  0  0  0  0
 18 17  1  0  0  0  0
 19 18  1  0  0  0  0
 20 19  2  0  0  0  0
 21 19  1  0  0  0  0
 21 43  1  0  0  0  0
 22 21  1  0  0  0  0
 22 23  1  0  0  0  0
 22 45  1  0  0  0  0
 23 18  1  0  0  0  0
 23 24  2  0  0  0  0
 25 26  1  0  0  0  0
 25 47  1  0  0  0  0
 26 48  1  0  0  0  0
 27 26  1  0  0  0  0
 27 28  1  0  0  0  0
 28 50  1  0  0  0  0
 29 53  1  0  0  0  0
 29 28  1  0  0  0  0
 29 52  1  0  0  0  0
 30  3  1  0  0  0  0
 32  7  1  0  0  0  0
 34 10  1  0  0  0  0
 35 12  1  0  0  0  0
 37 15  1  0  0  0  0
 38 15  1  0  0  0  0
 42 17  1  0  0  0  0
 44 22  1  0  0  0  0
 46 25  1  0  0  0  0
 49 26  1  0  0  0  0
 51 28  1  0  0  0  0
M  END
>  <Pose>
1

>  <Score>
-6.55

$$$$
