
 OpenBabel03202209553D

 39 42  0  0  0  0  0  0  0  0999 V2000
   23.7580   16.9880   26.8740 B   0  0  0  0  0  0  0  0  0  0  0  0
   23.2170   15.9360   28.3680 C   0  0  0  0  0  0  0  0  0  0  0  0
   23.5290   14.6040   28.3650 C   0  0  0  0  0  0  0  0  0  0  0  0
   23.1560   13.8410   29.4130 N   0  0  0  0  0  0  0  0  0  0  0  0
   22.4890   14.3710   30.4490 C   0  0  0  0  0  0  0  0  0  0  0  0
   22.1110   13.5980   31.5090 N   0  0  0  0  0  0  0  0  0  0  0  0
   22.3970   12.2850   31.5460 C   0  0  0  0  0  0  0  0  0  0  0  0
   23.0810   11.7620   30.4770 C   0  0  0  0  0  0  0  0  0  0  0  0
   23.4760   12.5140   29.3920 C   0  0  0  0  0  0  0  0  0  0  0  0
   24.0940   12.0640   28.4150 O   0  0  0  0  0  0  0  0  0  0  0  0
   21.9660   11.4840   32.7410 C   0  0  0  0  0  0  0  0  0  0  0  0
   21.8770   10.0670   32.4510 N   0  0  0  0  0  0  0  0  0  0  0  0
   20.8670    9.2050   32.6370 C   0  0  0  0  0  0  0  0  0  0  0  0
   21.2290    7.9240   32.2350 C   0  0  0  0  0  0  0  0  0  0  0  0
   22.5040    8.0400   31.7950 N   0  0  0  0  0  0  0  0  0  0  0  0
   22.8930    9.3110   31.9210 C   0  0  0  0  0  0  0  0  0  0  0  0
   20.4030    6.8590   32.3070 N   0  0  0  0  0  0  0  0  0  0  0  0
   19.1720    7.0920   32.7980 C   0  0  0  0  0  0  0  0  0  0  0  0
   18.3860    6.1080   32.8720 O   0  0  0  0  0  0  0  0  0  0  0  0
   18.7720    8.3090   33.1980 N   0  0  0  0  0  0  0  0  0  0  0  0
   19.5960    9.3750   33.1280 C   0  0  0  0  0  0  0  0  0  0  0  0
   19.2430   10.5130   33.4930 O   0  0  0  0  0  0  0  0  0  0  0  0
   17.4420    8.5560   33.7270 C   0  0  0  0  0  0  0  0  0  0  0  0
   20.8420    5.5470   31.8720 C   0  0  0  0  0  0  0  0  0  0  0  0
   22.1690   15.7200   30.4600 C   0  0  0  0  0  0  0  0  0  0  0  0
   22.5340   16.5220   29.4090 C   0  0  0  0  0  0  0  0  0  0  0  0
   24.0770   14.1390   27.5280 H   0  0  0  0  0  0  0  0  0  0  0  0
   23.3310   10.7120   30.4810 H   0  0  0  0  0  0  0  0  0  0  0  0
   22.6510   11.6940   33.5800 H   0  0  0  0  0  0  0  0  0  0  0  0
   20.9560   11.8410   33.0190 H   0  0  0  0  0  0  0  0  0  0  0  0
   23.8560    9.7380   31.6600 H   0  0  0  0  0  0  0  0  0  0  0  0
   17.4310    9.4320   34.4040 H   0  0  0  0  0  0  0  0  0  0  0  0
   16.7670    8.6860   32.8510 H   0  0  0  0  0  0  0  0  0  0  0  0
   17.0880    7.6490   34.2860 H   0  0  0  0  0  0  0  0  0  0  0  0
   20.4560    5.3160   30.8560 H   0  0  0  0  0  0  0  0  0  0  0  0
   20.4920    4.8050   32.6330 H   0  0  0  0  0  0  0  0  0  0  0  0
   21.9550    5.4960   31.9000 H   0  0  0  0  0  0  0  0  0  0  0  0
   21.6250   16.1210   31.3180 H   0  0  0  0  0  0  0  0  0  0  0  0
   22.2850   17.5910   29.4100 H   0  0  0  0  0  0  0  0  0  0  0  0
  1  2  1  0  0  0  0
  2 26  2  0  0  0  0
  3  2  1  0  0  0  0
  3  4  1  0  0  0  0
  4  5  1  0  0  0  0
  5 25  2  0  0  0  0
  5  6  1  0  0  0  0
  6  7  2  0  0  0  0
  7 11  1  0  0  0  0
  8 28  1  0  0  0  0
  8  7  1  0  0  0  0
  9  4  1  0  0  0  0
  9  8  1  0  0  0  0
 10  9  2  0  0  0  0
 11 30  1  0  0  0  0
 11 29  1  0  0  0  0
 12 13  1  0  0  0  0
 12 11  1  0  0  0  0
 13 21  1  0  0  0  0
 14 17  1  0  0  0  0
 14 13  2  0  0  0  0
 15 16  2  0  0  0  0
 15 14  1  0  0  0  0
 16 12  1  0  0  0  0
 17 18  1  0  0  0  0
 18 19  2  0  0  0  0
 18 20  1  0  0  0  0
 20 23  1  0  0  0  0
 21 20  1  0  0  0  0
 21 22  2  0  0  0  0
 23 34  1  0  0  0  0
 23 32  1  0  0  0  0
 24 37  1  0  0  0  0
 24 17  1  0  0  0  0
 24 36  1  0  0  0  0
 25 38  1  0  0  0  0
 26 39  1  0  0  0  0
 26 25  1  0  0  0  0
 27  3  1  0  0  0  0
 31 16  1  0  0  0  0
 33 23  1  0  0  0  0
 35 24  1  0  0  0  0
M  END
>  <Pose>
1

>  <Score>
-6.57

$$$$
