
 OpenBabel03202209553D

 40 43  0  0  1  0  0  0  0  0999 V2000
   22.6540   16.0230   33.2130 Cl  0  0  0  0  0  0  0  0  0  0  0  0
   22.7160   14.6810   32.0910 C   0  0  0  0  0  0  0  0  0  0  0  0
   23.7440   13.8170   31.8630 N   0  0  0  0  0  0  0  0  0  0  0  0
   23.4360   12.9140   30.9310 C   0  0  0  0  0  0  0  0  0  0  0  0
   22.1260   13.2460   30.5620 C   0  0  0  0  0  0  0  0  0  0  0  0
   21.6760   14.3330   31.2720 C   0  0  0  0  0  0  0  0  0  0  0  0
   20.1170   15.1220   31.1700 Cl  0  0  0  0  0  0  0  0  0  0  0  0
   24.2060   11.8360   30.3660 C   0  0  0  0  0  0  0  0  0  0  0  0
   25.2650   12.2700   29.7080 O   0  0  0  0  0  0  0  0  0  0  0  0
   24.0100   10.4650   30.4060 N   0  0  0  0  0  0  0  0  0  0  0  0
   23.1520    9.8580   29.3600 C   0  0  0  0  0  0  0  0  0  0  0  0
   21.9950    9.2260   30.0870 C   0  0  0  0  0  0  0  0  0  0  0  0
   22.1040    9.2430   31.5120 N   0  0  0  0  0  0  0  0  0  0  0  0
   23.3630    9.1680   32.2380 C   0  0  0  0  0  0  0  0  0  0  0  0
   24.5230    9.5070   31.3130 C   0  0  0  0  0  0  0  0  0  0  0  0
   20.9310    9.3400   32.3090 C   0  0  2  0  0  0  0  0  0  0  0  0
   20.4880   10.5310   32.7530 N   0  0  0  0  0  0  0  0  0  0  0  0
   19.3740   10.6410   33.5150 C   0  0  0  0  0  0  0  0  0  0  0  0
   18.6700    9.5470   33.8520 N   0  0  0  0  0  0  0  0  0  0  0  0
   19.0460    8.3230   33.4490 C   0  0  0  0  0  0  0  0  0  0  0  0
   18.5280    7.0950   33.6430 N   0  0  0  0  0  0  0  0  0  0  0  0
   19.3090    6.2410   33.0130 N   0  0  0  0  0  0  0  0  0  0  0  0
   20.3320    6.8870   32.4060 C   0  0  0  0  0  0  0  0  0  0  0  0
   20.1990    8.2260   32.6620 C   0  0  0  0  0  0  0  0  0  0  0  0
   17.3300    6.7380   34.4030 C   0  0  0  0  0  0  0  0  0  0  0  0
   24.6190   13.9310   32.4130 H   0  0  0  0  0  0  0  0  0  0  0  0
   21.4860   12.7540   29.8200 H   0  0  0  0  0  0  0  0  0  0  0  0
   22.8460   10.6300   28.6390 H   0  0  0  0  0  0  0  0  0  0  0  0
   23.7670    9.0750   28.8500 H   0  0  0  0  0  0  0  0  0  0  0  0
   21.0720    9.7100   29.7090 H   0  0  0  0  0  0  0  0  0  0  0  0
   21.9140    8.1530   29.7430 H   0  0  0  0  0  0  0  0  0  0  0  0
   23.4890    8.1700   32.6670 H   0  0  0  0  0  0  0  0  0  0  0  0
   23.3240    9.9220   33.0400 H   0  0  0  0  0  0  0  0  0  0  0  0
   24.6790    8.5120   30.7420 H   0  0  0  0  0  0  0  0  0  0  0  0
   25.4330    9.6950   31.8450 H   0  0  0  0  0  0  0  0  0  0  0  0
   19.0410   11.6090   33.8590 H   0  0  0  0  0  0  0  0  0  0  0  0
   21.1030    6.4340   31.8310 H   0  0  0  0  0  0  0  0  0  0  0  0
   17.6750    6.2020   35.3260 H   0  0  0  0  0  0  0  0  0  0  0  0
   16.6440    6.1080   33.8200 H   0  0  0  0  0  0  0  0  0  0  0  0
   16.7890    7.6350   34.7220 H   0  0  0  0  0  0  0  0  0  0  0  0
  2  1  1  0  0  0  0
  3  2  1  0  0  0  0
  3 26  1  0  0  0  0
  4  3  1  0  0  0  0
  5  4  2  0  0  0  0
  5  6  1  0  0  0  0
  6  2  2  0  0  0  0
  7  6  1  0  0  0  0
  8 10  1  0  0  0  0
  8  4  1  0  0  0  0
  9  8  2  0  0  0  0
 10 15  1  0  0  0  0
 11 12  1  0  0  0  0
 11 10  1  0  0  0  0
 12 13  1  0  0  0  0
 13 14  1  0  0  0  0
 14 32  1  0  0  0  0
 14 33  1  0  0  0  0
 15 35  1  0  0  0  0
 15 14  1  0  0  0  0
 16 13  1  1  0  0  0
 16 24  1  0  0  0  0
 16 17  1  0  0  0  0
 17 18  2  0  0  0  0
 18 19  1  0  0  0  0
 18 36  1  0  0  0  0
 20 21  1  0  0  0  0
 20 19  1  0  0  0  0
 21 25  1  0  0  0  0
 22 21  1  0  0  0  0
 23 24  1  0  0  0  0
 23 22  2  0  0  0  0
 24 20  2  0  0  0  0
 25 40  1  0  0  0  0
 25 38  1  0  0  0  0
 27  5  1  0  0  0  0
 28 11  1  0  0  0  0
 29 11  1  0  0  0  0
 30 12  1  0  0  0  0
 31 12  1  0  0  0  0
 34 15  1  0  0  0  0
 37 23  1  0  0  0  0
 39 25  1  0  0  0  0
M  END
>  <Pose>
1

>  <Score>
-7.26

$$$$
