
 OpenBabel03202209553D

 55 59  0  0  1  0  0  0  0  0999 V2000
   27.1460    3.4880   28.4580 B   0  0  0  0  0  0  0  0  0  0  0  0
   25.8520    4.6300   29.2460 C   0  0  0  0  0  0  0  0  0  0  0  0
   25.1000    4.2340   30.3130 C   0  0  0  0  0  0  0  0  0  0  0  0
   24.1670    5.0920   30.8620 C   0  0  0  0  0  0  0  0  0  0  0  0
   23.9290    6.3810   30.3890 C   0  0  0  0  0  0  0  0  0  0  0  0
   24.6850    6.7650   29.3250 C   0  0  0  0  0  0  0  0  0  0  0  0
   25.6430    5.8900   28.7570 C   0  0  0  0  0  0  0  0  0  0  0  0
   22.8990    7.1870   31.0540 C   0  0  0  0  0  0  0  0  0  0  0  0
   21.6430    6.6510   31.3910 C   0  0  0  0  0  0  0  0  0  0  0  0
   20.9200    7.5880   31.9990 N   0  0  0  0  0  0  0  0  0  0  0  0
   19.7110    7.8120   32.5770 C   0  0  0  0  0  0  0  0  0  0  0  0
   19.7160    9.0950   33.0060 C   0  0  0  0  0  0  0  0  0  0  0  0
   20.9100    9.6150   32.6840 N   0  0  0  0  0  0  0  0  0  0  0  0
   21.6700    8.6900   32.0560 C   0  0  1  0  0  0  0  0  0  0  0  0
   22.8940    8.4590   31.4770 N   0  0  0  0  0  0  0  0  0  0  0  0
   23.9320    9.4330   31.4000 C   0  0  0  0  0  0  0  0  0  0  0  0
   23.4810   10.8700   31.4290 C   0  0  0  0  0  0  0  0  0  0  0  0
   23.6620   11.6500   30.2040 C   0  0  0  0  0  0  0  0  0  0  0  0
   22.5690   12.4170   29.6820 N   0  0  0  0  0  4  0  0  0  0  0  0
   21.3820   12.3290   30.5130 C   0  0  0  0  0  0  0  0  0  0  0  0
   21.2750   13.3080   31.6030 C   0  0  0  0  0  0  0  0  0  0  0  0
   22.2350   14.4390   31.5830 C   0  0  0  0  0  0  0  0  0  0  0  0
   22.5660   14.8410   30.1900 C   0  0  0  0  0  0  0  0  0  0  0  0
   22.8990   13.7320   29.2620 C   0  0  0  0  0  0  0  0  0  0  0  0
   18.6100    9.6280   33.6440 C   0  0  0  0  0  0  0  0  0  0  0  0
   17.4780    8.8600   33.8580 C   0  0  0  0  0  0  0  0  0  0  0  0
   17.4720    7.5430   33.4170 C   0  0  0  0  0  0  0  0  0  0  0  0
   18.5900    7.0460   32.7850 C   0  0  0  0  0  0  0  0  0  0  0  0
   25.2580    3.2400   30.7070 H   0  0  0  0  0  0  0  0  0  0  0  0
   23.6000    4.7200   31.7130 H   0  0  0  0  0  0  0  0  0  0  0  0
   24.5810    7.7170   28.8870 H   0  0  0  0  0  0  0  0  0  0  0  0
   26.2180    6.2370   27.9180 H   0  0  0  0  0  0  0  0  0  0  0  0
   21.2640    5.6590   31.2160 H   0  0  0  0  0  0  0  0  0  0  0  0
   21.2240   10.5970   32.8950 H   0  0  0  0  0  0  0  0  0  0  0  0
   24.6690    9.2420   30.6080 H   0  0  0  0  0  0  0  0  0  0  0  0
   24.5700    9.2380   32.3420 H   0  0  0  0  0  0  0  0  0  0  0  0
   24.1440   11.3650   32.2140 H   0  0  0  0  0  0  0  0  0  0  0  0
   22.4730   10.9750   31.9060 H   0  0  0  0  0  0  0  0  0  0  0  0
   23.9320   10.9200   29.3800 H   0  0  0  0  0  0  0  0  0  0  0  0
   24.6010   12.2760   30.2800 H   0  0  0  0  0  0  0  0  0  0  0  0
   22.2720   11.8970   28.8260 H   0  0  0  0  0  0  0  0  0  0  0  0
   20.4390   12.3510   29.9220 H   0  0  0  0  0  0  0  0  0  0  0  0
   21.4080   11.2780   30.9340 H   0  0  0  0  0  0  0  0  0  0  0  0
   21.4000   12.7900   32.6010 H   0  0  0  0  0  0  0  0  0  0  0  0
   20.2340   13.7440   31.6790 H   0  0  0  0  0  0  0  0  0  0  0  0
   21.7880   15.3090   32.1090 H   0  0  0  0  0  0  0  0  0  0  0  0
   23.1570   14.1950   32.1920 H   0  0  0  0  0  0  0  0  0  0  0  0
   23.4160   15.5710   30.2420 H   0  0  0  0  0  0  0  0  0  0  0  0
   21.7060   15.4530   29.8010 H   0  0  0  0  0  0  0  0  0  0  0  0
   24.0100   13.7440   29.0690 H   0  0  0  0  0  0  0  0  0  0  0  0
   22.4570   13.9950   28.2620 H   0  0  0  0  0  0  0  0  0  0  0  0
   18.6120   10.6520   33.9880 H   0  0  0  0  0  0  0  0  0  0  0  0
   16.5970    9.2510   34.3540 H   0  0  0  0  0  0  0  0  0  0  0  0
   16.5780    6.9700   33.5950 H   0  0  0  0  0  0  0  0  0  0  0  0
   18.5780    6.0350   32.4500 H   0  0  0  0  0  0  0  0  0  0  0  0
  1  2  1  0  0  0  0
  2  3  1  0  0  0  0
  3 29  1  0  0  0  0
  3  4  2  0  0  0  0
  4 30  1  0  0  0  0
  5  4  1  0  0  0  0
  5  8  1  0  0  0  0
  6  5  2  0  0  0  0
  7  2  2  0  0  0  0
  7  6  1  0  0  0  0
  8  9  2  0  0  0  0
  8 15  1  0  0  0  0
  9 10  1  0  0  0  0
 10 14  1  0  0  0  0
 10 11  1  0  0  0  0
 11 28  2  0  0  0  0
 11 12  1  0  0  0  0
 12 25  2  0  0  0  0
 13 34  1  0  0  0  0
 13 12  1  0  0  0  0
 14 15  1  1  0  0  0
 14 13  1  0  0  0  0
 16 17  1  0  0  0  0
 16 15  1  0  0  0  0
 16 36  1  0  0  0  0
 17 38  1  0  0  0  0
 17 37  1  0  0  0  0
 18 40  1  0  0  0  0
 18 17  1  0  0  0  0
 19 18  1  0  0  0  0
 19 20  1  0  0  0  0
 20 43  1  0  0  0  0
 20 21  1  0  0  0  0
 21 45  1  0  0  0  0
 21 44  1  0  0  0  0
 22 21  1  0  0  0  0
 22 46  1  0  0  0  0
 22 47  1  0  0  0  0
 23 48  1  0  0  0  0
 23 22  1  0  0  0  0
 24 19  1  0  0  0  0
 24 23  1  0  0  0  0
 25 26  1  0  0  0  0
 25 52  1  0  0  0  0
 26 53  1  0  0  0  0
 27 54  1  0  0  0  0
 27 26  2  0  0  0  0
 28 27  1  0  0  0  0
 31  6  1  0  0  0  0
 32  7  1  0  0  0  0
 33  9  1  0  0  0  0
 35 16  1  0  0  0  0
 39 18  1  0  0  0  0
 41 19  1  0  0  0  0
 42 20  1  0  0  0  0
 49 23  1  0  0  0  0
 50 24  1  0  0  0  0
 51 24  1  0  0  0  0
 55 28  1  0  0  0  0
M  END
>  <Pose>
1

>  <Score>
-6.75

$$$$
