
 OpenBabel03202209553D

 52 55  0  0  1  0  0  0  0  0999 V2000
   27.9710    8.5300   29.0340 Cl  0  0  0  0  0  0  0  0  0  0  0  0
   26.4000    7.7910   29.3280 C   0  0  0  0  0  0  0  0  0  0  0  0
   25.4750    8.5290   30.0810 C   0  0  0  0  0  0  0  0  0  0  0  0
   24.2550    7.9520   30.3060 C   0  0  0  0  0  0  0  0  0  0  0  0
   23.9440    6.6710   29.8040 C   0  0  0  0  0  0  0  0  0  0  0  0
   24.8570    5.9580   29.0690 C   0  0  0  0  0  0  0  0  0  0  0  0
   26.0830    6.5450   28.8450 C   0  0  0  0  0  0  0  0  0  0  0  0
   23.4490    8.8940   31.0950 C   0  0  2  0  0  0  0  0  0  0  0  0
   22.8820    8.3440   32.2730 N   0  0  0  0  0  0  0  0  0  0  0  0
   21.6860    8.9810   32.6140 C   0  0  1  0  0  0  0  0  0  0  0  0
   21.2510    9.7000   31.3560 C   0  0  2  0  0  0  0  0  0  0  0  0
   22.2450    9.3770   30.2890 C   0  0  1  0  0  0  0  0  0  0  0  0
   22.5330   10.6320   29.5470 C   0  0  0  0  0  0  0  0  0  0  0  0
   23.2490   10.6900   28.5200 O   0  0  0  0  0  0  0  0  0  0  0  0
   21.8590   11.7000   30.2140 N   0  0  0  0  0  0  0  0  0  0  0  0
   21.3780   11.1700   31.4580 C   0  0  0  0  0  0  0  0  0  0  0  0
   21.1140   11.8580   32.4570 O   0  0  0  0  0  0  0  0  0  0  0  0
   21.6720   13.0450   29.7620 C   0  0  0  0  0  0  0  0  0  0  0  0
   22.9010   13.8740   29.6530 C   0  0  0  0  0  0  0  0  0  0  0  0
   23.4270   14.1080   28.2820 C   0  0  0  0  0  0  0  0  0  0  0  0
   23.6260   15.5920   27.9960 C   0  0  0  0  0  0  0  0  0  0  0  0
   20.6020    8.1970   33.2450 C   0  0  0  0  0  0  0  0  0  0  0  0
   19.2300    8.3480   32.7200 C   0  0  0  0  0  0  0  0  0  0  0  0
   18.1960    7.4570   33.2570 C   0  0  0  0  0  0  0  0  0  0  0  0
   18.2660    6.2270   33.0810 O   0  0  0  0  0  0  0  0  0  0  0  0
   17.0750    7.9320   33.9990 N   0  0  0  0  0  0  0  0  0  0  0  0
   24.3230   10.0450   31.3370 C   0  0  0  0  0  0  0  0  0  0  0  0
   24.0840   11.1030   31.9990 O   0  0  0  0  0  0  0  0  0  0  0  0
   25.5600    9.8110   30.6920 N   0  0  0  0  0  0  0  0  0  0  0  0
   22.9650    6.2440   30.0040 H   0  0  0  0  0  0  0  0  0  0  0  0
   24.6510    4.9740   28.6690 H   0  0  0  0  0  0  0  0  0  0  0  0
   26.8180    6.0010   28.2670 H   0  0  0  0  0  0  0  0  0  0  0  0
   23.5440    8.1180   33.0340 H   0  0  0  0  0  0  0  0  0  0  0  0
   21.9450    9.8060   33.3480 H   0  0  0  0  0  0  0  0  0  0  0  0
   20.2090    9.4790   31.0760 H   0  0  0  0  0  0  0  0  0  0  0  0
   21.9150    8.6280   29.5680 H   0  0  0  0  0  0  0  0  0  0  0  0
   21.0040   13.5700   30.5070 H   0  0  0  0  0  0  0  0  0  0  0  0
   21.0890   13.0870   28.8090 H   0  0  0  0  0  0  0  0  0  0  0  0
   22.6480   14.8950   30.0700 H   0  0  0  0  0  0  0  0  0  0  0  0
   23.6880   13.5030   30.3570 H   0  0  0  0  0  0  0  0  0  0  0  0
   22.8320   13.7220   27.4530 H   0  0  0  0  0  0  0  0  0  0  0  0
   24.4330   13.6000   28.2340 H   0  0  0  0  0  0  0  0  0  0  0  0
   22.8270   16.2150   28.4450 H   0  0  0  0  0  0  0  0  0  0  0  0
   23.6540   15.7900   26.9000 H   0  0  0  0  0  0  0  0  0  0  0  0
   24.5800   15.9580   28.4280 H   0  0  0  0  0  0  0  0  0  0  0  0
   20.9450    7.1280   33.2890 H   0  0  0  0  0  0  0  0  0  0  0  0
   20.5680    8.4870   34.3380 H   0  0  0  0  0  0  0  0  0  0  0  0
   18.8380    9.3990   32.9000 H   0  0  0  0  0  0  0  0  0  0  0  0
   19.1750    8.2560   31.6070 H   0  0  0  0  0  0  0  0  0  0  0  0
   16.9490    8.9220   34.2740 H   0  0  0  0  0  0  0  0  0  0  0  0
   16.3450    7.2550   34.2780 H   0  0  0  0  0  0  0  0  0  0  0  0
   26.4040   10.4300   30.6450 H   0  0  0  0  0  0  0  0  0  0  0  0
  1  2  1  0  0  0  0
  2  3  1  0  0  0  0
  3  4  2  0  0  0  0
  3 29  1  0  0  0  0
  5 30  1  0  0  0  0
  5  4  1  0  0  0  0
  6  5  2  0  0  0  0
  7  6  1  0  0  0  0
  7  2  2  0  0  0  0
  8  4  1  6  0  0  0
  8 27  1  0  0  0  0
  8  9  1  0  0  0  0
  9 10  1  0  0  0  0
  9 33  1  0  0  0  0
 10 22  1  0  0  0  0
 10 34  1  1  0  0  0
 11 35  1  6  0  0  0
 11 16  1  0  0  0  0
 11 10  1  0  0  0  0
 12 36  1  6  0  0  0
 12  8  1  0  0  0  0
 12 11  1  0  0  0  0
 13 15  1  0  0  0  0
 13 12  1  0  0  0  0
 14 13  2  0  0  0  0
 15 16  1  0  0  0  0
 16 17  2  0  0  0  0
 18 15  1  0  0  0  0
 18 37  1  0  0  0  0
 19 18  1  0  0  0  0
 19 39  1  0  0  0  0
 19 40  1  0  0  0  0
 20 19  1  0  0  0  0
 21 20  1  0  0  0  0
 21 45  1  0  0  0  0
 21 43  1  0  0  0  0
 22 46  1  0  0  0  0
 22 47  1  0  0  0  0
 23 48  1  0  0  0  0
 23 22  1  0  0  0  0
 23 24  1  0  0  0  0
 24 26  1  0  0  0  0
 25 24  2  0  0  0  0
 26 50  1  0  0  0  0
 26 51  1  0  0  0  0
 27 28  2  0  0  0  0
 29 27  1  0  0  0  0
 31  6  1  0  0  0  0
 32  7  1  0  0  0  0
 38 18  1  0  0  0  0
 41 20  1  0  0  0  0
 42 20  1  0  0  0  0
 44 21  1  0  0  0  0
 49 23  1  0  0  0  0
 52 29  1  0  0  0  0
M  END
>  <Pose>
1

>  <Score>
-7.54

$$$$
