
 OpenBabel03202209553D

 62 64  0  0  1  0  0  0  0  0999 V2000
   21.8170   16.5580   31.5860 S   0  0  0  0  0  0  0  0  0  0  0  0
   22.2120   17.9330   31.0930 O   0  0  0  0  0  0  0  0  0  0  0  0
   20.3600   16.6720   32.0130 O   0  0  0  0  0  0  0  0  0  0  0  0
   21.9200   15.3580   30.3870 N   0  0  0  0  0  0  0  0  0  0  0  0
   22.0370   14.0280   30.8830 C   0  0  0  0  0  0  0  0  0  0  0  0
   23.5030   13.6440   30.8990 C   0  0  0  0  0  0  0  0  0  0  0  0
   23.9250   13.5050   29.5270 N   0  0  0  0  0  0  0  0  0  0  0  0
   23.2710   14.3540   28.6030 C   0  0  0  0  0  0  0  0  0  0  0  0
   22.8540   15.6260   29.3420 C   0  0  0  0  0  0  0  0  0  0  0  0
   24.2160   12.1770   29.1140 C   0  0  0  0  0  0  0  0  0  0  0  0
   24.0090   11.2540   30.2630 C   0  0  1  0  0  0  0  0  0  0  0  0
   23.0980   11.8070   31.3060 C   0  0  0  0  0  0  0  0  0  0  0  0
   22.6900   12.9930   31.2880 O   0  0  0  0  0  0  0  0  0  0  0  0
   22.7490   10.8880   32.2920 O   0  0  0  0  0  0  0  0  0  0  0  0
   22.6820    9.5230   32.1040 C   0  0  0  0  0  0  0  0  0  0  0  0
   22.9730    9.0410   30.8770 C   0  0  0  0  0  0  0  0  0  0  0  0
   23.3350    9.9760   29.8340 C   0  0  0  0  0  0  0  0  0  0  0  0
   23.1070    9.7590   28.6320 O   0  0  0  0  0  0  0  0  0  0  0  0
   22.9060    7.6010   30.5930 C   0  0  0  0  0  0  0  0  0  0  0  0
   24.0710    6.8720   30.8860 N   0  0  0  0  0  0  0  0  0  0  0  0
   25.3030    7.5150   31.0550 C   0  0  0  0  0  0  0  0  0  0  0  0
   26.4650    6.5200   30.8310 C   0  0  0  0  0  0  0  0  0  0  0  0
   26.1420    5.8460   29.5990 N   0  0  0  0  0  0  0  0  0  0  0  0
   25.0030    4.9440   29.6900 C   0  0  0  0  0  0  0  0  0  0  0  0
   24.0400    5.4620   30.7500 C   0  0  0  0  0  0  0  0  0  0  0  0
   26.8600    6.0540   28.4050 C   0  0  0  0  0  0  0  0  0  0  0  0
   27.1880    7.2970   27.9140 C   0  0  0  0  0  0  0  0  0  0  0  0
   27.8940    7.4420   26.7430 C   0  0  0  0  0  0  0  0  0  0  0  0
   28.3120    6.3630   26.0000 C   0  0  0  0  0  0  0  0  0  0  0  0
   28.0000    5.1100   26.4630 C   0  0  0  0  0  0  0  0  0  0  0  0
   27.2870    4.9610   27.6440 C   0  0  0  0  0  0  0  0  0  0  0  0
   28.2780    9.0430   26.1730 Cl  0  0  0  0  0  0  0  0  0  0  0  0
   22.7520   16.2030   33.0260 C   0  0  0  0  0  0  0  0  0  0  0  0
   21.5700   13.3570   30.1020 H   0  0  0  0  0  0  0  0  0  0  0  0
   21.5080   13.8400   31.8120 H   0  0  0  0  0  0  0  0  0  0  0  0
   24.0740   14.4850   31.3420 H   0  0  0  0  0  0  0  0  0  0  0  0
   23.6950   12.7520   31.4990 H   0  0  0  0  0  0  0  0  0  0  0  0
   22.4300   13.8990   28.0520 H   0  0  0  0  0  0  0  0  0  0  0  0
   24.0170   14.6790   27.8280 H   0  0  0  0  0  0  0  0  0  0  0  0
   23.8010   16.0740   29.7420 H   0  0  0  0  0  0  0  0  0  0  0  0
   22.4560   16.3810   28.6250 H   0  0  0  0  0  0  0  0  0  0  0  0
   23.5380   11.8410   28.2910 H   0  0  0  0  0  0  0  0  0  0  0  0
   25.2610   12.1710   28.7260 H   0  0  0  0  0  0  0  0  0  0  0  0
   24.9600   11.0030   30.7330 H   0  0  0  0  0  0  0  0  0  0  0  0
   22.4130    8.8170   32.8710 H   0  0  0  0  0  0  0  0  0  0  0  0
   22.5630    7.4960   29.5220 H   0  0  0  0  0  0  0  0  0  0  0  0
   22.0640    7.1750   31.2180 H   0  0  0  0  0  0  0  0  0  0  0  0
   25.4850    7.9350   32.0570 H   0  0  0  0  0  0  0  0  0  0  0  0
   25.4760    8.2530   30.2190 H   0  0  0  0  0  0  0  0  0  0  0  0
   27.4390    6.9930   30.8810 H   0  0  0  0  0  0  0  0  0  0  0  0
   26.3960    5.8300   31.7020 H   0  0  0  0  0  0  0  0  0  0  0  0
   24.4480    4.8620   28.7540 H   0  0  0  0  0  0  0  0  0  0  0  0
   25.3900    3.9790   30.0750 H   0  0  0  0  0  0  0  0  0  0  0  0
   23.0240    5.1420   30.4510 H   0  0  0  0  0  0  0  0  0  0  0  0
   24.2370    4.9840   31.7320 H   0  0  0  0  0  0  0  0  0  0  0  0
   26.8590    8.1710   28.4950 H   0  0  0  0  0  0  0  0  0  0  0  0
   28.8760    6.4950   25.0660 H   0  0  0  0  0  0  0  0  0  0  0  0
   28.3050    4.2120   25.9180 H   0  0  0  0  0  0  0  0  0  0  0  0
   27.0350    3.9750   28.0250 H   0  0  0  0  0  0  0  0  0  0  0  0
   23.7770   16.6220   33.0150 H   0  0  0  0  0  0  0  0  0  0  0  0
   22.2620   16.6500   33.9400 H   0  0  0  0  0  0  0  0  0  0  0  0
   22.8520   15.1220   33.2470 H   0  0  0  0  0  0  0  0  0  0  0  0
  1  3  2  0  0  0  0
  1 33  1  0  0  0  0
  2  1  2  0  0  0  0
  4  5  1  0  0  0  0
  4  1  1  0  0  0  0
  5 35  1  0  0  0  0
  6 13  1  0  0  0  0
  6 36  1  0  0  0  0
  7  6  1  0  0  0  0
  8  9  1  0  0  0  0
  8  7  1  0  0  0  0
  9 40  1  0  0  0  0
  9  4  1  0  0  0  0
 10  7  1  0  0  0  0
 10 11  1  0  0  0  0
 11 44  1  1  0  0  0
 11 12  1  0  0  0  0
 12 14  1  0  0  0  0
 13 37  1  0  0  0  0
 15 14  1  0  0  0  0
 15 45  1  0  0  0  0
 16 15  2  0  0  0  0
 17 11  1  0  0  0  0
 17 16  1  0  0  0  0
 18 17  2  0  0  0  0
 19 16  1  0  0  0  0
 19 20  1  0  0  0  0
 19 47  1  0  0  0  0
 20 21  1  0  0  0  0
 21 48  1  0  0  0  0
 22 50  1  0  0  0  0
 22 21  1  0  0  0  0
 22 51  1  0  0  0  0
 23 24  1  0  0  0  0
 23 22  1  0  0  0  0
 24 53  1  0  0  0  0
 24 25  1  0  0  0  0
 25 20  1  0  0  0  0
 25 55  1  0  0  0  0
 26 23  1  0  0  0  0
 27 26  1  0  0  0  0
 27 56  1  0  0  0  0
 28 27  2  0  0  0  0
 29 30  2  0  0  0  0
 29 28  1  0  0  0  0
 30 31  1  0  0  0  0
 31 59  1  0  0  0  0
 31 26  2  0  0  0  0
 32 28  1  0  0  0  0
 33 62  1  0  0  0  0
 33 61  1  0  0  0  0
 34  5  1  0  0  0  0
 38  8  1  0  0  0  0
 39  8  1  0  0  0  0
 41  9  1  0  0  0  0
 42 10  1  0  0  0  0
 43 10  1  0  0  0  0
 46 19  1  0  0  0  0
 49 21  1  0  0  0  0
 52 24  1  0  0  0  0
 54 25  1  0  0  0  0
 57 29  1  0  0  0  0
 58 30  1  0  0  0  0
 60 33  1  0  0  0  0
M  END
>  <Pose>
1

>  <Score>
-5.06

$$$$
