3


 38 41  0  0  0  0  0  0  0  0999 V2000
   12.8018   66.7270  -15.0790 C   0  0  0  0  0  0  0  0  0  0  0  0
   13.1780   67.9198  -15.6441 N   0  0  0  0  0  0  0  0  0  0  0  0
   12.1248   68.5258  -16.1179 N   0  0  0  0  0  0  0  0  0  0  0  0
   11.0272   67.8184  -15.9124 N   0  0  0  0  0  0  0  0  0  0  0  0
   11.4167   66.7017  -15.2744 C   0  0  0  0  0  0  0  0  0  0  0  0
    9.7291   68.2411  -16.2905 C   0  0  0  0  0  0  0  0  0  0  0  0
    8.7598   67.5594  -16.9376 N   0  0  0  0  0  0  0  0  0  0  0  0
    7.7052   68.3177  -17.0799 O   0  0  0  0  0  0  0  0  0  0  0  0
    7.9167   69.4968  -16.5533 N   0  0  0  0  0  0  0  0  0  0  0  0
    9.1636   69.4847  -16.0533 C   0  0  0  0  0  0  0  0  0  0  0  0
    9.7672   70.5799  -15.3984 N   0  0  0  0  0  0  0  0  0  0  0  0
    9.4277   70.8491  -14.4572 H   0  0  0  0  0  0  0  0  0  0  0  0
   10.5383   71.1275  -15.8210 H   0  0  0  0  0  0  0  0  0  0  0  0
   13.7393   65.3451  -13.1351 N   0  0  0  0  0  0  0  0  0  0  0  0
   13.7019   65.7764  -14.4541 C   0  0  0  0  0  0  0  0  0  0  0  0
   14.5826   65.2743  -15.2493 O   0  0  0  0  0  0  0  0  0  0  0  0
   13.1115   65.6430  -12.3511 H   0  0  0  0  0  0  0  0  0  0  0  0
   15.3309   64.4713  -11.6453 C   0  0  0  0  0  0  0  0  0  0  0  0
   14.7493   64.3843  -12.7883 N   0  0  0  0  0  0  0  0  0  0  0  0
   16.5904   59.5626  -10.0760 Br  0  0  0  0  0  0  0  0  0  0  0  0
   17.0594   61.3557  -10.4684 C   0  0  0  0  0  0  0  0  0  0  0  0
   18.3513   61.7702  -10.3260 C   0  0  0  0  0  0  0  0  0  0  0  0
   18.6649   63.0945  -10.6209 C   0  0  0  0  0  0  0  0  0  0  0  0
   17.6630   63.9592  -11.0501 C   0  0  0  0  0  0  0  0  0  0  0  0
   16.3641   63.5512  -11.1954 C   0  0  0  0  0  0  0  0  0  0  0  0
   16.0686   62.2390  -10.9000 C   0  0  0  0  0  0  0  0  0  0  0  0
   14.7504   61.8369  -11.0510 O   0  0  0  0  0  0  0  0  0  0  0  0
   20.4507   63.7021  -10.4344 Br  0  0  0  0  0  0  0  0  0  0  0  0
   19.3649   60.9243   -9.9000 O   0  0  0  0  0  0  0  0  0  0  0  0
   14.4824   60.8823  -10.8464 H   0  0  0  0  0  0  0  0  0  0  0  0
   20.3109   61.2550   -9.8022 H   0  0  0  0  0  0  0  0  0  0  0  0
   10.5566   65.6145  -14.7978 C   0  0  0  0  0  0  0  0  0  0  0  0
   10.5652   64.4211  -15.6481 N   0  0  0  0  0  0  0  0  0  0  0  0
    9.2048   64.2189  -16.1840 C   0  0  0  0  0  0  0  0  0  0  0  0
    8.2061   64.3477  -15.0874 C   0  0  0  0  0  0  0  0  0  0  0  0
    8.5346   63.4962  -14.0612 O   0  0  0  0  0  0  0  0  0  0  0  0
    9.5388   62.6126  -14.3580 C   0  0  0  0  0  0  0  0  0  0  0  0
   10.8368   63.2464  -14.7859 C   0  0  0  0  0  0  0  0  0  0  0  0
 20 21  1  0  0  0
 21 22  2  0  0  0
 21 26  1  0  0  0
 22 23  1  0  0  0
 22 29  1  0  0  0
 23 24  2  0  0  0
 23 28  1  0  0  0
 24 25  1  0  0  0
 25 26  2  0  0  0
 25 18  1  0  0  0
 26 27  1  0  0  0
 18 19  2  0  0  0
 19 14  1  0  0  0
 14 15  1  0  0  0
 15 16  2  0  0  0
 15  1  1  0  0  0
  1  2  1  0  0  0
  1  5  2  0  0  0
  2  3  2  0  0  0
  3  4  1  0  0  0
  4  5  1  0  0  0
  4  6  1  0  0  0
  5 32  1  0  0  0
 32 33  1  0  0  0
 33 34  1  0  0  0
 33 38  1  0  0  0
 34 35  1  0  0  0
 35 36  1  0  0  0
 36 37  1  0  0  0
 37 38  1  0  0  0
  6  7  2  0  0  0
  6 10  1  0  0  0
  7  8  1  0  0  0
  8  9  1  0  0  0
  9 10  2  0  0  0
 10 11  1  0  0  0
 27 30  1  0  0  0
 14 17  1  0  0  0
 11 12  1  0  0  0
 11 13  1  0  0  0
 29 31  1  0  0  0
M  END
> <minimizedAffinity>
-7.33488

$$$$
708


 31 34  0  0  0  0  0  0  0  0999 V2000
   19.9921   63.3591  -10.0836 C   0  0  0  0  0  0  0  0  0  0  0  0
   18.7854   63.2376   -9.1996 C   0  0  0  0  0  0  0  0  0  0  0  0
   18.5423   60.0000   -9.4128 Br  0  0  0  0  0  0  0  0  0  0  0  0
   17.3735   61.3620  -10.0487 C   0  0  0  0  0  0  0  0  0  0  0  0
   17.6205   62.6954   -9.8682 N   0  0  0  0  0  0  0  0  0  0  0  0
   16.5781   63.3183  -10.4530 C   0  0  0  0  0  0  0  0  0  0  0  0
   15.6910   62.3995  -10.9901 C   0  0  0  0  0  0  0  0  0  0  0  0
   16.2237   61.1891  -10.7168 N   0  0  0  0  0  0  0  0  0  0  0  0
   14.5616   62.7297  -11.6398 N   0  0  0  0  0  0  0  0  0  0  0  0
   14.3017   64.0436  -11.7637 C   0  0  0  0  0  0  0  0  0  0  0  0
   13.2401   64.4088  -12.3720 O   0  0  0  0  0  0  0  0  0  0  0  0
   15.1367   64.9701  -11.2583 N   0  0  0  0  0  0  0  0  0  0  0  0
   16.2820   64.6387  -10.5993 C   0  0  0  0  0  0  0  0  0  0  0  0
   17.0471   65.5106  -10.1381 O   0  0  0  0  0  0  0  0  0  0  0  0
   13.6396   61.7629  -12.1965 C   0  0  0  0  0  0  0  0  0  0  0  0
   14.9498   65.9917  -11.3454 H   0  0  0  0  0  0  0  0  0  0  0  0
   20.9022   64.5052   -9.7469 C   0  0  0  0  0  0  0  0  0  0  0  0
   22.0678   64.0199   -9.0211 N   0  0  0  0  0  0  0  0  0  0  0  0
   22.3388   64.1255   -7.7002 C   0  0  0  0  0  0  0  0  0  0  0  0
   23.5465   63.5332   -7.4122 C   0  0  0  0  0  0  0  0  0  0  0  0
   24.0079   63.0637   -8.5864 N   0  0  0  0  0  0  0  0  0  0  0  0
   23.1111   63.3615   -9.5511 C   0  0  0  0  0  0  0  0  0  0  0  0
   23.2460   62.9362  -11.4080 Br  0  0  0  0  0  0  0  0  0  0  0  0
   24.0775   63.4838   -6.1764 N   0  0  0  0  0  0  0  0  0  0  0  0
   23.3550   64.0596   -5.1843 C   0  0  0  0  0  0  0  0  0  0  0  0
   23.8517   64.0140   -4.0175 O   0  0  0  0  0  0  0  0  0  0  0  0
   22.1658   64.6511   -5.4235 N   0  0  0  0  0  0  0  0  0  0  0  0
   21.6431   64.6945   -6.6661 C   0  0  0  0  0  0  0  0  0  0  0  0
   20.5403   65.2365   -6.9217 O   0  0  0  0  0  0  0  0  0  0  0  0
   25.3650   62.8436   -5.9180 C   0  0  0  0  0  0  0  0  0  0  0  0
   21.6562   65.0753   -4.6231 H   0  0  0  0  0  0  0  0  0  0  0  0
  3  4  1  0  0  0
  4  5  1  0  0  0
  4  8  2  0  0  0
  5  6  1  0  0  0
  5  2  1  0  0  0
  6  7  2  0  0  0
  6 13  1  0  0  0
  7  8  1  0  0  0
  7  9  1  0  0  0
  9 10  1  0  0  0
  9 15  1  0  0  0
 10 11  2  0  0  0
 10 12  1  0  0  0
 12 13  1  0  0  0
 13 14  2  0  0  0
  2  1  1  0  0  0
  1 17  1  0  0  0
 17 18  1  0  0  0
 18 19  1  0  0  0
 18 22  1  0  0  0
 19 20  2  0  0  0
 19 28  1  0  0  0
 20 21  1  0  0  0
 20 24  1  0  0  0
 21 22  2  0  0  0
 22 23  1  0  0  0
 24 25  1  0  0  0
 24 30  1  0  0  0
 25 26  2  0  0  0
 25 27  1  0  0  0
 27 28  1  0  0  0
 28 29  2  0  0  0
 12 16  1  0  0  0
 27 31  1  0  0  0
M  END
> <minimizedAffinity>
-7.11209

$$$$
1808


 24 28  0  0  0  0  0  0  0  0999 V2000
   16.2050   62.7503  -10.5723 N   0  0  0  0  0  0  0  0  0  0  0  0
   16.9376   63.6049   -9.7081 C   0  0  0  0  0  0  0  0  0  0  0  0
   16.5719   64.7603   -9.3839 O   0  0  0  0  0  0  0  0  0  0  0  0
   18.1760   62.9072   -9.2693 C   0  0  0  0  0  0  0  0  0  0  0  0
   19.3528   63.2477  -10.1307 C   0  0  0  0  0  0  0  0  0  0  0  0
   20.0801   62.0389  -10.0585 O   0  0  0  0  0  0  0  0  0  0  0  0
   19.0747   61.2024  -10.6056 C   0  0  0  0  0  0  0  0  0  0  0  0
   17.9528   61.4444   -9.6557 C   0  0  0  0  0  0  0  0  0  0  0  0
   16.6506   61.4089  -10.3741 C   0  0  0  0  0  0  0  0  0  0  0  0
   16.0707   60.3794  -10.7295 O   0  0  0  0  0  0  0  0  0  0  0  0
   18.7978   61.9473  -11.8615 C   0  0  0  0  0  0  0  0  0  0  0  0
   18.9129   63.2310  -11.5347 C   0  0  0  0  0  0  0  0  0  0  0  0
   11.8977   64.7683  -14.3797 Br  0  0  0  0  0  0  0  0  0  0  0  0
   13.2441   64.1484  -13.1961 C   0  0  0  0  0  0  0  0  0  0  0  0
   14.2883   64.9775  -12.8649 C   0  0  0  0  0  0  0  0  0  0  0  0
   15.2512   64.5017  -12.0024 C   0  0  0  0  0  0  0  0  0  0  0  0
   15.1977   63.2323  -11.4706 C   0  0  0  0  0  0  0  0  0  0  0  0
   14.1427   62.3937  -11.8038 C   0  0  0  0  0  0  0  0  0  0  0  0
   13.1681   62.8800  -12.6776 C   0  0  0  0  0  0  0  0  0  0  0  0
   20.1363   64.4136   -9.7038 C   0  0  0  0  0  0  0  0  0  0  0  0
   21.3002   64.5887  -10.4010 O   0  0  0  0  0  0  0  0  0  0  0  0
   22.3581   64.3239   -9.5679 C   0  0  0  0  0  0  0  0  0  0  0  0
   21.7723   63.9643   -8.2422 C   0  0  0  0  0  0  0  0  0  0  0  0
   20.4450   64.3621   -8.3564 O   0  0  0  0  0  0  0  0  0  0  0  0
 13 14  1  0  0  0
 14 15  2  0  0  0
 14 19  1  0  0  0
 15 16  1  0  0  0
 16 17  2  0  0  0
 17 18  1  0  0  0
 17  1  1  0  0  0
 18 19  2  0  0  0
  1  2  1  0  0  0
  1  9  1  0  0  0
  2  3  2  0  0  0
  2  4  1  0  0  0
  4  5  1  0  0  0
  4  8  1  0  0  0
  5  6  1  0  0  0
  5 12  1  0  0  0
  5 20  1  0  0  0
  6  7  1  0  0  0
  7  8  1  0  0  0
  7 11  1  0  0  0
  8  9  1  0  0  0
  9 10  2  0  0  0
 11 12  2  0  0  0
 20 21  1  0  0  0
 20 24  1  0  0  0
 21 22  1  0  0  0
 22 23  1  0  0  0
 23 24  1  0  0  0
M  END
> <minimizedAffinity>
-7.25436

$$$$
