
 OpenBabel03232203513D

 50 53  0  0  0  0  0  0  0  0999 V2000
   -3.7350   20.5490   -9.8000 B   0  0  0  0  0  0  0  0  0  0  0  0
   -3.0120   19.2830  -11.0500 C   0  0  0  0  0  0  0  0  0  0  0  0
   -3.7690   18.9440  -12.1550 C   0  0  0  0  0  0  0  0  0  0  0  0
   -3.2310   18.0350  -13.0400 C   0  0  0  0  0  0  0  0  0  0  0  0
   -1.9780   17.4900  -12.8160 C   0  0  0  0  0  0  0  0  0  0  0  0
   -1.2190   17.8250  -11.7140 C   0  0  0  0  0  0  0  0  0  0  0  0
   -1.7640   18.7360  -10.8320 C   0  0  0  0  0  0  0  0  0  0  0  0
   -0.9870   19.0760   -9.7100 O   0  0  0  0  0  0  0  0  0  0  0  0
    0.1110   17.2510  -11.4680 C   0  0  0  0  0  0  0  0  0  0  0  0
    0.6570   16.4160  -12.2690 N   0  0  0  0  0  0  0  0  0  0  0  0
    1.9620   15.8820  -11.9850 N   0  0  0  0  0  0  0  0  0  0  0  0
    2.0020   14.5890  -11.4520 C   0  0  0  0  0  0  0  0  0  0  0  0
    1.3510   14.4220  -10.3330 O   0  0  0  0  0  0  0  0  0  0  0  0
    2.6490   13.3950  -11.9420 C   0  0  0  0  0  0  0  0  0  0  0  0
    3.9530   13.0760  -11.6270 N   0  0  0  0  0  0  0  0  0  0  0  0
    4.2410   11.9620  -12.2190 N   0  0  0  0  0  0  0  0  0  0  0  0
    3.1570   11.5310  -12.9220 N   0  0  0  0  0  0  0  0  0  0  0  0
    2.1570   12.3970  -12.7710 C   0  0  0  0  0  0  0  0  0  0  0  0
    0.8090   12.3560  -13.3380 C   0  0  0  0  0  0  0  0  0  0  0  0
    0.5160   11.4560  -14.3890 N   0  0  0  0  0  4  0  0  0  0  0  0
   -0.4310   11.9880  -15.3590 C   0  0  0  0  0  0  0  0  0  0  0  0
   -1.6440   12.5040  -14.6960 C   0  0  0  0  0  0  0  0  0  0  0  0
   -2.1050   11.9350  -13.5800 O   0  0  0  0  0  0  0  0  0  0  0  0
   -1.4200   10.9080  -13.0160 C   0  0  0  0  0  0  0  0  0  0  0  0
   -0.2910   10.3480  -13.7820 C   0  0  0  0  0  0  0  0  0  0  0  0
    3.2360   10.3070  -13.6570 C   0  0  0  0  0  0  0  0  0  0  0  0
    3.8070   10.0030  -14.8150 N   0  0  0  0  0  0  0  0  0  0  0  0
    3.6200    8.7410  -15.0240 O   0  0  0  0  0  0  0  0  0  0  0  0
    2.9510    8.1880  -14.0610 N   0  0  0  0  0  0  0  0  0  0  0  0
    2.6740    9.1200  -13.1600 C   0  0  0  0  0  0  0  0  0  0  0  0
    1.9660    9.0080  -11.9360 N   0  0  0  0  0  0  0  0  0  0  0  0
   -4.2820   17.5680  -14.5680 B   0  0  0  0  0  0  0  0  0  0  0  0
   -5.0280   19.5140  -12.3500 O   0  0  0  0  0  0  0  0  0  0  0  0
   -1.5690   16.7710  -13.5270 H   0  0  0  0  0  0  0  0  0  0  0  0
   -0.3330   19.8410   -9.7740 H   0  0  0  0  0  0  0  0  0  0  0  0
    0.6420   17.5370  -10.5940 H   0  0  0  0  0  0  0  0  0  0  0  0
    2.7620   16.4580  -12.1880 H   0  0  0  0  0  0  0  0  0  0  0  0
    0.4620   13.4040  -13.6340 H   0  0  0  0  0  0  0  0  0  0  0  0
    0.1070   12.0730  -12.4910 H   0  0  0  0  0  0  0  0  0  0  0  0
    1.3380   11.0540  -14.8150 H   0  0  0  0  0  0  0  0  0  0  0  0
   -0.7350   11.0980  -15.9840 H   0  0  0  0  0  0  0  0  0  0  0  0
   -0.0230   12.7280  -16.0420 H   0  0  0  0  0  0  0  0  0  0  0  0
   -2.4720   12.4920  -15.4670 H   0  0  0  0  0  0  0  0  0  0  0  0
   -1.4950   13.6090  -14.5160 H   0  0  0  0  0  0  0  0  0  0  0  0
   -1.0760   11.2140  -12.0070 H   0  0  0  0  0  0  0  0  0  0  0  0
   -2.1530   10.0720  -12.8290 H   0  0  0  0  0  0  0  0  0  0  0  0
   -0.5840    9.7020  -14.6190 H   0  0  0  0  0  0  0  0  0  0  0  0
    0.4190    9.8100  -13.1390 H   0  0  0  0  0  0  0  0  0  0  0  0
    0.9700    8.7070  -11.9460 H   0  0  0  0  0  0  0  0  0  0  0  0
    2.4120    9.2210  -10.9970 H   0  0  0  0  0  0  0  0  0  0  0  0
  2  7  1  0  0  0  0
  2  1  1  0  0  0  0
  3  2  2  0  0  0  0
  4  5  2  0  0  0  0
  4  3  1  0  0  0  0
  5  6  1  0  0  0  0
  6  9  1  0  0  0  0
  6  7  2  0  0  0  0
  7  8  1  0  0  0  0
  9 36  1  0  0  0  0
 10 11  1  0  0  0  0
 10  9  2  0  0  0  0
 11 12  1  0  0  0  0
 12 13  2  0  0  0  0
 14 15  1  0  0  0  0
 14 12  1  0  0  0  0
 16 15  2  0  0  0  0
 17 18  1  0  0  0  0
 17 16  1  0  0  0  0
 18 14  2  0  0  0  0
 19 18  1  0  0  0  0
 19 39  1  0  0  0  0
 20 25  1  0  0  0  0
 20 19  1  0  0  0  0
 21 22  1  0  0  0  0
 21 20  1  0  0  0  0
 22 44  1  0  0  0  0
 22 23  1  0  0  0  0
 23 24  1  0  0  0  0
 24 46  1  0  0  0  0
 24 45  1  0  0  0  0
 25 48  1  0  0  0  0
 25 24  1  0  0  0  0
 26 30  1  0  0  0  0
 26 17  1  0  0  0  0
 27 26  2  0  0  0  0
 28 27  1  0  0  0  0
 28 29  1  0  0  0  0
 29 30  2  0  0  0  0
 30 31  1  0  0  0  0
 31 50  1  0  0  0  0
 32  4  1  0  0  0  0
 33  3  1  0  0  0  0
 34  5  1  0  0  0  0
 35  8  1  0  0  0  0
 37 11  1  0  0  0  0
 38 19  1  0  0  0  0
 40 20  1  0  0  0  0
 41 21  1  0  0  0  0
 42 21  1  0  0  0  0
 43 22  1  0  0  0  0
 47 25  1  0  0  0  0
 49 31  1  0  0  0  0
M  END
>  <Pose>
1

>  <Score>
-8.26

$$$$
