
 OpenBabel03162216103D

 50 53  0  0  0  0  0  0  0  0999 V2000
   -9.8780   11.1350  -17.0550 B   0  0  0  0  0  0  0  0  0  0  0  0
   -8.8700   11.5050  -15.4940 C   0  0  0  0  0  0  0  0  0  0  0  0
   -9.2560   12.5070  -14.6540 C   0  0  0  0  0  0  0  0  0  0  0  0
   -8.4940   12.7560  -13.5150 C   0  0  0  0  0  0  0  0  0  0  0  0
   -7.3650   11.9840  -13.2620 C   0  0  0  0  0  0  0  0  0  0  0  0
   -6.9710   10.9760  -14.1000 C   0  0  0  0  0  0  0  0  0  0  0  0
   -7.7340   10.7410  -15.2220 C   0  0  0  0  0  0  0  0  0  0  0  0
   -7.3250    9.7180  -16.0640 O   0  0  0  0  0  0  0  0  0  0  0  0
   -5.7860   10.1800  -13.8170 C   0  0  0  0  0  0  0  0  0  0  0  0
   -4.7170   10.2160  -14.5300 N   0  0  0  0  0  0  0  0  0  0  0  0
   -3.6020    9.3890  -14.1620 N   0  0  0  0  0  0  0  0  0  0  0  0
   -2.6900    9.9200  -13.2610 C   0  0  0  0  0  0  0  0  0  0  0  0
   -3.0020    9.8450  -12.0130 O   0  0  0  0  0  0  0  0  0  0  0  0
   -1.4150   10.5610  -13.5230 C   0  0  0  0  0  0  0  0  0  0  0  0
   -1.2520   11.7930  -14.1050 N   0  0  0  0  0  0  0  0  0  0  0  0
    0.0200   12.0690  -14.1870 N   0  0  0  0  0  0  0  0  0  0  0  0
    0.7590   11.0910  -13.6920 N   0  0  0  0  0  0  0  0  0  0  0  0
   -0.1010   10.1480  -13.2730 C   0  0  0  0  0  0  0  0  0  0  0  0
    0.2350    8.8510  -12.6780 C   0  0  0  0  0  0  0  0  0  0  0  0
    0.9680    7.9500  -13.5710 N   0  0  0  0  0  0  0  0  0  0  0  0
    0.0130    6.9800  -14.1420 C   0  0  0  0  0  0  0  0  0  0  0  0
   -0.8490    6.4250  -13.0630 C   0  0  0  0  0  0  0  0  0  0  0  0
   -0.0630    5.9100  -12.0620 O   0  0  0  0  0  0  0  0  0  0  0  0
    1.2700    5.8390  -12.3690 C   0  0  0  0  0  0  0  0  0  0  0  0
    1.9060    7.1520  -12.7460 C   0  0  0  0  0  0  0  0  0  0  0  0
    2.1760   11.0990  -13.6760 C   0  0  0  0  0  0  0  0  0  0  0  0
    3.0460   10.4640  -14.4900 N   0  0  0  0  0  0  0  0  0  0  0  0
    4.2710   10.7480  -14.1370 O   0  0  0  0  0  0  0  0  0  0  0  0
    4.2730   11.5570  -13.1080 N   0  0  0  0  0  0  0  0  0  0  0  0
    2.9880   11.7960  -12.7950 C   0  0  0  0  0  0  0  0  0  0  0  0
    2.5710   12.6290  -11.7350 N   0  0  0  0  0  0  0  0  0  0  0  0
   -9.0030   14.1420  -12.3260 B   0  0  0  0  0  0  0  0  0  0  0  0
  -10.3780   13.2890  -14.8880 O   0  0  0  0  0  0  0  0  0  0  0  0
   -6.7790   12.1750  -12.3860 H   0  0  0  0  0  0  0  0  0  0  0  0
   -6.6530    9.9000  -16.7980 H   0  0  0  0  0  0  0  0  0  0  0  0
   -5.7850    9.5100  -12.9600 H   0  0  0  0  0  0  0  0  0  0  0  0
   -3.5720    8.4440  -14.6140 H   0  0  0  0  0  0  0  0  0  0  0  0
   -0.6550    8.3070  -12.3550 H   0  0  0  0  0  0  0  0  0  0  0  0
    0.9060    9.0030  -11.8220 H   0  0  0  0  0  0  0  0  0  0  0  0
   -0.5610    7.4330  -14.9660 H   0  0  0  0  0  0  0  0  0  0  0  0
    0.6290    6.1670  -14.5690 H   0  0  0  0  0  0  0  0  0  0  0  0
   -1.5510    7.1600  -12.6350 H   0  0  0  0  0  0  0  0  0  0  0  0
   -1.4240    5.5520  -13.4920 H   0  0  0  0  0  0  0  0  0  0  0  0
    1.7900    5.5100  -11.4190 H   0  0  0  0  0  0  0  0  0  0  0  0
    1.4660    5.0380  -13.1120 H   0  0  0  0  0  0  0  0  0  0  0  0
    2.7680    6.9130  -13.3820 H   0  0  0  0  0  0  0  0  0  0  0  0
    2.2150    7.6740  -11.8460 H   0  0  0  0  0  0  0  0  0  0  0  0
    2.3150   13.6110  -11.9410 H   0  0  0  0  0  0  0  0  0  0  0  0
    2.5090   12.2970  -10.7550 H   0  0  0  0  0  0  0  0  0  0  0  0
  -10.5210   14.1540  -14.3940 H   0  0  0  0  0  0  0  0  0  0  0  0
  1  2  1  0  0  0  0
  2  7  2  0  0  0  0
  2  3  1  0  0  0  0
  3  4  2  0  0  0  0
  4  5  1  0  0  0  0
  4 32  1  0  0  0  0
  5 34  1  0  0  0  0
  6  9  1  0  0  0  0
  6  5  2  0  0  0  0
  7  6  1  0  0  0  0
  8  7  1  0  0  0  0
  9 36  1  0  0  0  0
 10 11  1  0  0  0  0
 10  9  2  0  0  0  0
 11 12  1  0  0  0  0
 12 13  2  0  0  0  0
 14 18  2  0  0  0  0
 14 12  1  0  0  0  0
 15 14  1  0  0  0  0
 16 15  2  0  0  0  0
 16 17  1  0  0  0  0
 17 26  1  0  0  0  0
 17 18  1  0  0  0  0
 18 19  1  0  0  0  0
 19 38  1  0  0  0  0
 19 39  1  0  0  0  0
 20 25  1  0  0  0  0
 20 19  1  0  0  0  0
 21 20  1  0  0  0  0
 21 22  1  0  0  0  0
 22 42  1  0  0  0  0
 22 23  1  0  0  0  0
 24 23  1  0  0  0  0
 24 44  1  0  0  0  0
 25 24  1  0  0  0  0
 25 47  1  0  0  0  0
 26 30  1  0  0  0  0
 27 28  1  0  0  0  0
 27 26  2  0  0  0  0
 28 29  1  0  0  0  0
 29 30  2  0  0  0  0
 30 31  1  0  0  0  0
 31 49  1  0  0  0  0
 33  3  1  0  0  0  0
 33 50  1  0  0  0  0
 35  8  1  0  0  0  0
 37 11  1  0  0  0  0
 40 21  1  0  0  0  0
 41 21  1  0  0  0  0
 43 22  1  0  0  0  0
 45 24  1  0  0  0  0
 46 25  1  0  0  0  0
 48 31  1  0  0  0  0
M  END
>  <Pose>
1

>  <Score>
-9.34

$$$$
