
 OpenBabel03232203513D

 50 52  0  0  0  0  0  0  0  0999 V2000
   -3.4960   20.2310  -10.0130 B   0  0  0  0  0  0  0  0  0  0  0  0
   -3.2980   19.1370  -11.5470 C   0  0  0  0  0  0  0  0  0  0  0  0
   -4.2820   19.1030  -12.4920 C   0  0  0  0  0  0  0  0  0  0  0  0
   -4.1080   18.2880  -13.6080 C   0  0  0  0  0  0  0  0  0  0  0  0
   -2.9460   17.5320  -13.7340 C   0  0  0  0  0  0  0  0  0  0  0  0
   -1.9550   17.5610  -12.7900 C   0  0  0  0  0  0  0  0  0  0  0  0
   -2.1400   18.3710  -11.6920 C   0  0  0  0  0  0  0  0  0  0  0  0
   -1.1300   18.3930  -10.7420 O   0  0  0  0  0  0  0  0  0  0  0  0
   -0.7480   16.7630  -12.9400 C   0  0  0  0  0  0  0  0  0  0  0  0
    0.0440   16.4810  -11.9680 N   0  0  0  0  0  0  0  0  0  0  0  0
    1.2110   15.6830  -12.2240 N   0  0  0  0  0  0  0  0  0  0  0  0
    1.0720   14.3060  -12.1160 C   0  0  0  0  0  0  0  0  0  0  0  0
    0.0130   13.8780  -11.5210 O   0  0  0  0  0  0  0  0  0  0  0  0
    1.9620   13.2590  -12.5830 C   0  0  0  0  0  0  0  0  0  0  0  0
    3.3300   13.3530  -12.6460 N   0  0  0  0  0  0  0  0  0  0  0  0
    3.8200   12.2350  -13.1060 N   0  0  0  0  0  0  0  0  0  0  0  0
    2.8640   11.3620  -13.3710 N   0  0  0  0  0  0  0  0  0  0  0  0
    1.7060   11.9680  -13.0550 C   0  0  0  0  0  0  0  0  0  0  0  0
    0.3560   11.4180  -13.2040 C   0  0  0  0  0  0  0  0  0  0  0  0
    0.2150   10.4490  -14.2940 N   0  0  0  0  0  0  0  0  0  0  0  0
   -1.1680   10.5210  -14.8070 C   0  0  0  0  0  0  0  0  0  0  0  0
   -2.1290   10.5110  -13.6710 C   0  0  0  0  0  0  0  0  0  0  0  0
   -1.8860    9.4220  -12.8700 O   0  0  0  0  0  0  0  0  0  0  0  0
   -0.9940    8.5230  -13.3920 C   0  0  0  0  0  0  0  0  0  0  0  0
    0.3620    9.0900  -13.7220 C   0  0  0  0  0  0  0  0  0  0  0  0
    3.0950   10.0730  -13.9120 C   0  0  0  0  0  0  0  0  0  0  0  0
    3.7650    9.7200  -15.0300 N   0  0  0  0  0  0  0  0  0  0  0  0
    3.7520    8.4200  -15.1610 O   0  0  0  0  0  0  0  0  0  0  0  0
    3.0960    7.8680  -14.1730 N   0  0  0  0  0  0  0  0  0  0  0  0
    2.6740    8.8650  -13.3780 C   0  0  0  0  0  0  0  0  0  0  0  0
    1.9250    8.6750  -12.1960 N   0  0  0  0  0  0  0  0  0  0  0  0
   -5.4550   18.2180  -14.9400 B   0  0  0  0  0  0  0  0  0  0  0  0
   -5.4470   19.8480  -12.3860 O   0  0  0  0  0  0  0  0  0  0  0  0
   -2.8130   16.9060  -14.5920 H   0  0  0  0  0  0  0  0  0  0  0  0
   -0.9470   17.5750  -10.1750 H   0  0  0  0  0  0  0  0  0  0  0  0
   -0.4830   16.3760  -13.9200 H   0  0  0  0  0  0  0  0  0  0  0  0
    2.0780   16.2170  -12.4700 H   0  0  0  0  0  0  0  0  0  0  0  0
   -0.3850   12.1990  -13.3900 H   0  0  0  0  0  0  0  0  0  0  0  0
    0.0840   10.8590  -12.2980 H   0  0  0  0  0  0  0  0  0  0  0  0
   -1.2950   11.3880  -15.4750 H   0  0  0  0  0  0  0  0  0  0  0  0
   -1.3110    9.6070  -15.4130 H   0  0  0  0  0  0  0  0  0  0  0  0
   -2.1000   11.4280  -13.0590 H   0  0  0  0  0  0  0  0  0  0  0  0
   -3.1660   10.3640  -14.0940 H   0  0  0  0  0  0  0  0  0  0  0  0
   -0.8150    7.7570  -12.5780 H   0  0  0  0  0  0  0  0  0  0  0  0
   -1.4440    7.9630  -14.2390 H   0  0  0  0  0  0  0  0  0  0  0  0
    0.7860    8.4540  -14.5090 H   0  0  0  0  0  0  0  0  0  0  0  0
    0.9820    9.0800  -12.8310 H   0  0  0  0  0  0  0  0  0  0  0  0
    0.8990    8.5470  -12.2690 H   0  0  0  0  0  0  0  0  0  0  0  0
    2.3590    8.6590  -11.2560 H   0  0  0  0  0  0  0  0  0  0  0  0
   -6.2170   19.7000  -13.0170 H   0  0  0  0  0  0  0  0  0  0  0  0
  2  1  1  0  0  0  0
  3 33  1  0  0  0  0
  3  2  2  0  0  0  0
  4  3  1  0  0  0  0
  5  4  2  0  0  0  0
  5  6  1  0  0  0  0
  6  7  2  0  0  0  0
  7  2  1  0  0  0  0
  7  8  1  0  0  0  0
  8 35  1  0  0  0  0
  9  6  1  0  0  0  0
  9 10  2  0  0  0  0
 11 12  1  0  0  0  0
 11 10  1  0  0  0  0
 12 13  2  0  0  0  0
 14 12  1  0  0  0  0
 15 14  1  0  0  0  0
 16 15  2  0  0  0  0
 17 16  1  0  0  0  0
 17 18  1  0  0  0  0
 18 14  2  0  0  0  0
 19 18  1  0  0  0  0
 19 39  1  0  0  0  0
 20 25  1  0  0  0  0
 20 19  1  0  0  0  0
 21 20  1  0  0  0  0
 21 22  1  0  0  0  0
 22 42  1  0  0  0  0
 22 23  1  0  0  0  0
 24 23  1  0  0  0  0
 24 44  1  0  0  0  0
 25 24  1  0  0  0  0
 25 47  1  0  0  0  0
 26 30  1  0  0  0  0
 26 17  1  0  0  0  0
 27 26  2  0  0  0  0
 28 27  1  0  0  0  0
 28 29  1  0  0  0  0
 29 30  2  0  0  0  0
 31 49  1  0  0  0  0
 32  4  1  0  0  0  0
 34  5  1  0  0  0  0
 36  9  1  0  0  0  0
 37 11  1  0  0  0  0
 38 19  1  0  0  0  0
 40 21  1  0  0  0  0
 41 21  1  0  0  0  0
 43 22  1  0  0  0  0
 45 24  1  0  0  0  0
 46 25  1  0  0  0  0
 48 31  1  0  0  0  0
 50 33  1  0  0  0  0
M  END
>  <Pose>
1

>  <Score>
-8.00

$$$$
