
 OpenBabel03232203513D

 52 55  0  0  0  0  0  0  0  0999 V2000
   -3.3640   20.1700  -10.2160 B   0  0  0  0  0  0  0  0  0  0  0  0
   -3.2770   18.9960  -11.7220 C   0  0  0  0  0  0  0  0  0  0  0  0
   -4.3460   18.9970  -12.5970 C   0  0  0  0  0  0  0  0  0  0  0  0
   -4.2880   18.1520  -13.6840 C   0  0  0  0  0  0  0  0  0  0  0  0
   -3.1980   17.3280  -13.9010 C   0  0  0  0  0  0  0  0  0  0  0  0
   -2.1310   17.3210  -13.0350 C   0  0  0  0  0  0  0  0  0  0  0  0
   -2.1900   18.1670  -11.9470 C   0  0  0  0  0  0  0  0  0  0  0  0
   -1.1330   18.1770  -11.0690 O   0  0  0  0  0  0  0  0  0  0  0  0
   -0.9990   16.4440  -13.2870 C   0  0  0  0  0  0  0  0  0  0  0  0
   -1.0820   15.1770  -13.3880 N   0  0  0  0  0  0  0  0  0  0  0  0
    0.0300   14.3480  -13.6320 N   0  0  0  0  0  0  0  0  0  0  0  0
   -0.1200   12.9390  -13.5180 C   0  0  0  0  0  0  0  0  0  0  0  0
   -1.3270   12.3800  -13.4750 N   0  0  0  0  0  4  0  0  0  0  0  0
   -1.5110   11.0320  -13.3660 C   0  0  0  0  0  0  0  0  0  0  0  0
   -0.4050   10.2930  -13.3020 N   0  0  0  0  0  0  0  0  0  0  0  0
    0.8570   10.7780  -13.3380 C   0  0  0  0  0  0  0  0  0  0  0  0
    0.9500   12.1370  -13.4490 N   0  0  0  0  0  0  0  0  0  0  0  0
    1.9970    9.9570  -13.2670 N   0  0  0  0  0  0  0  0  0  0  0  0
    3.2020   10.3180  -13.9470 C   0  0  0  0  0  0  0  0  0  0  0  0
    3.6350    9.1040  -14.7730 C   0  0  0  0  0  0  0  0  0  0  0  0
    2.7250    8.0720  -14.6910 O   0  0  0  0  0  0  0  0  0  0  0  0
    2.4780    7.6310  -13.4150 C   0  0  0  0  0  0  0  0  0  0  0  0
    1.9640    8.7440  -12.5100 C   0  0  0  0  0  0  0  0  0  0  0  0
   -2.8000   10.4600  -13.3230 N   0  0  0  0  0  0  0  0  0  0  0  0
   -3.0410    9.1700  -13.9080 C   0  0  0  0  0  0  0  0  0  0  0  0
   -4.3060    9.2830  -14.7440 C   0  0  0  0  0  0  0  0  0  0  0  0
   -5.3270    9.9280  -14.0570 O   0  0  0  0  0  0  0  0  0  0  0  0
   -5.0210   11.2240  -13.7090 C   0  0  0  0  0  0  0  0  0  0  0  0
   -3.8760   11.1690  -12.6910 C   0  0  0  0  0  0  0  0  0  0  0  0
   -5.7630   18.1420  -14.9060 B   0  0  0  0  0  0  0  0  0  0  0  0
   -5.4350   19.8330  -12.3630 O   0  0  0  0  0  0  0  0  0  0  0  0
   -3.1700   16.6630  -14.7720 H   0  0  0  0  0  0  0  0  0  0  0  0
   -0.8610   17.3270  -10.5660 H   0  0  0  0  0  0  0  0  0  0  0  0
   -0.0240   16.8900  -13.3950 H   0  0  0  0  0  0  0  0  0  0  0  0
    0.9050   14.8180  -13.8860 H   0  0  0  0  0  0  0  0  0  0  0  0
    3.9980   10.4600  -13.1780 H   0  0  0  0  0  0  0  0  0  0  0  0
    3.0660   11.2140  -14.5780 H   0  0  0  0  0  0  0  0  0  0  0  0
    4.6540    8.7840  -14.5350 H   0  0  0  0  0  0  0  0  0  0  0  0
    3.6480    9.4400  -15.8420 H   0  0  0  0  0  0  0  0  0  0  0  0
    3.3550    7.1220  -12.9610 H   0  0  0  0  0  0  0  0  0  0  0  0
    1.6720    6.8700  -13.4700 H   0  0  0  0  0  0  0  0  0  0  0  0
    0.9390    8.5370  -12.1410 H   0  0  0  0  0  0  0  0  0  0  0  0
    2.6130    8.7700  -11.6110 H   0  0  0  0  0  0  0  0  0  0  0  0
   -2.2340    8.8550  -14.6190 H   0  0  0  0  0  0  0  0  0  0  0  0
   -3.2300    8.3950  -13.1370 H   0  0  0  0  0  0  0  0  0  0  0  0
   -4.0740    9.7800  -15.7010 H   0  0  0  0  0  0  0  0  0  0  0  0
   -4.6610    8.2550  -14.9670 H   0  0  0  0  0  0  0  0  0  0  0  0
   -4.6210   11.7550  -14.5910 H   0  0  0  0  0  0  0  0  0  0  0  0
   -5.9150   11.6940  -13.2820 H   0  0  0  0  0  0  0  0  0  0  0  0
   -4.2610   10.5230  -11.8570 H   0  0  0  0  0  0  0  0  0  0  0  0
   -3.5940   12.1770  -12.3480 H   0  0  0  0  0  0  0  0  0  0  0  0
   -6.0060   20.1320  -13.1360 H   0  0  0  0  0  0  0  0  0  0  0  0
  2  1  1  0  0  0  0
  3 31  1  0  0  0  0
  3  2  2  0  0  0  0
  4  3  1  0  0  0  0
  5  4  2  0  0  0  0
  5  6  1  0  0  0  0
  6  7  2  0  0  0  0
  7  2  1  0  0  0  0
  7  8  1  0  0  0  0
  8 33  1  0  0  0  0
  9  6  1  0  0  0  0
 10  9  2  0  0  0  0
 11 12  1  0  0  0  0
 11 10  1  0  0  0  0
 12 13  2  0  0  0  0
 12 17  1  0  0  0  0
 13 14  2  0  0  0  0
 14 24  1  0  0  0  0
 14 15  1  0  0  0  0
 16 15  2  0  0  0  0
 16 18  1  0  0  0  0
 17 16  1  0  0  0  0
 18 23  1  0  0  0  0
 19 18  1  0  0  0  0
 19 36  1  0  0  0  0
 20 21  1  0  0  0  0
 20 38  1  0  0  0  0
 20 19  1  0  0  0  0
 21 22  1  0  0  0  0
 22 40  1  0  0  0  0
 22 23  1  0  0  0  0
 23 42  1  0  0  0  0
 23 43  1  0  0  0  0
 24 29  1  0  0  0  0
 25 24  1  0  0  0  0
 25 45  1  0  0  0  0
 26 27  1  0  0  0  0
 26 25  1  0  0  0  0
 27 28  1  0  0  0  0
 28 49  1  0  0  0  0
 28 29  1  0  0  0  0
 29 51  1  0  0  0  0
 29 50  1  0  0  0  0
 30  4  1  0  0  0  0
 32  5  1  0  0  0  0
 34  9  1  0  0  0  0
 35 11  1  0  0  0  0
 37 19  1  0  0  0  0
 39 20  1  0  0  0  0
 41 22  1  0  0  0  0
 44 25  1  0  0  0  0
 46 26  1  0  0  0  0
 47 26  1  0  0  0  0
 48 28  1  0  0  0  0
 52 31  1  0  0  0  0
M  END
>  <Pose>
1

>  <Score>
-6.62

$$$$
