
 OpenBabel03232203513D

 43 46  0  0  0  0  0  0  0  0999 V2000
    8.7790    6.2950  -12.9770 B   0  0  0  0  0  0  0  0  0  0  0  0
    6.9930    5.6760  -13.1440 C   0  0  0  0  0  0  0  0  0  0  0  0
    5.9740    6.6000  -13.2330 C   0  0  0  0  0  0  0  0  0  0  0  0
    4.6870    6.1720  -13.3530 C   0  0  0  0  0  0  0  0  0  0  0  0
    4.3720    4.8090  -13.3890 C   0  0  0  0  0  0  0  0  0  0  0  0
    5.4070    3.9100  -13.2990 C   0  0  0  0  0  0  0  0  0  0  0  0
    6.7110    4.3210  -13.1780 C   0  0  0  0  0  0  0  0  0  0  0  0
    5.0320    2.0340  -13.3430 B   0  0  0  0  0  0  0  0  0  0  0  0
    3.6080    7.1350  -13.4470 C   0  0  0  0  0  0  0  0  0  0  0  0
    3.1350    7.4310  -14.5970 N   0  0  0  0  0  0  0  0  0  0  0  0
    2.1060    8.3350  -14.8000 N   0  0  0  0  0  0  0  0  0  0  0  0
    2.1040    9.6710  -14.3280 C   0  0  0  0  0  0  0  0  0  0  0  0
    2.8400   10.4840  -14.9350 O   0  0  0  0  0  0  0  0  0  0  0  0
    1.3100   10.1150  -13.2090 C   0  0  0  0  0  0  0  0  0  0  0  0
   -0.0630    9.7190  -13.2080 N   0  0  0  0  0  0  0  0  0  0  0  0
   -1.1490   10.4930  -13.4710 C   0  0  0  0  0  0  0  0  0  0  0  0
   -2.2920    9.7490  -13.3680 C   0  0  0  0  0  0  0  0  0  0  0  0
   -1.8810    8.5130  -13.0400 N   0  0  0  0  0  0  0  0  0  0  0  0
   -0.5150    8.4920  -12.9410 C   0  0  0  0  0  0  0  0  0  0  0  0
    0.2550    7.3020  -12.5970 C   0  0  0  0  0  0  0  0  0  0  0  0
    0.3440    6.1910  -13.3390 N   0  0  0  0  0  0  0  0  0  0  0  0
    1.1250    5.3250  -12.7180 O   0  0  0  0  0  0  0  0  0  0  0  0
    1.5480    5.8260  -11.6000 N   0  0  0  0  0  0  0  0  0  0  0  0
    1.0270    7.0670  -11.4820 C   0  0  0  0  0  0  0  0  0  0  0  0
    1.2340    7.9670  -10.4100 N   0  0  0  0  0  4  0  0  0  0  0  0
   -3.5060   10.3610  -13.6000 C   0  0  0  0  0  0  0  0  0  0  0  0
   -3.5990   11.7030  -13.9320 C   0  0  0  0  0  0  0  0  0  0  0  0
   -2.4260   12.4300  -14.0290 C   0  0  0  0  0  0  0  0  0  0  0  0
   -1.2100   11.8200  -13.7970 C   0  0  0  0  0  0  0  0  0  0  0  0
    6.2680    7.9520  -13.1990 O   0  0  0  0  0  0  0  0  0  0  0  0
    3.3590    4.4530  -13.4840 H   0  0  0  0  0  0  0  0  0  0  0  0
    7.5450    3.6430  -13.1050 H   0  0  0  0  0  0  0  0  0  0  0  0
    3.1750    7.6250  -12.5840 H   0  0  0  0  0  0  0  0  0  0  0  0
    1.2720    8.0160  -15.3370 H   0  0  0  0  0  0  0  0  0  0  0  0
    1.7260    9.7450  -12.2190 H   0  0  0  0  0  0  0  0  0  0  0  0
    1.3910   11.2170  -13.1160 H   0  0  0  0  0  0  0  0  0  0  0  0
    0.7470    7.6820   -9.5490 H   0  0  0  0  0  0  0  0  0  0  0  0
    0.7990    8.8830  -10.7090 H   0  0  0  0  0  0  0  0  0  0  0  0
    2.2540    8.1600  -10.2310 H   0  0  0  0  0  0  0  0  0  0  0  0
   -4.4100    9.7600  -13.5160 H   0  0  0  0  0  0  0  0  0  0  0  0
   -4.5800   12.1590  -14.1100 H   0  0  0  0  0  0  0  0  0  0  0  0
   -2.4960   13.4800  -14.2890 H   0  0  0  0  0  0  0  0  0  0  0  0
   -0.2750   12.3710  -13.8670 H   0  0  0  0  0  0  0  0  0  0  0  0
  2  1  1  0  0  0  0
  3 30  1  0  0  0  0
  3  2  2  0  0  0  0
  4  3  1  0  0  0  0
  5  4  2  0  0  0  0
  5  6  1  0  0  0  0
  6  7  2  0  0  0  0
  7  2  1  0  0  0  0
  7 32  1  0  0  0  0
  8  6  1  0  0  0  0
  9  4  1  0  0  0  0
  9 33  1  0  0  0  0
 10  9  2  0  0  0  0
 11 10  1  0  0  0  0
 11 12  1  0  0  0  0
 12 14  1  0  0  0  0
 13 12  2  0  0  0  0
 14 15  1  0  0  0  0
 14 36  1  0  0  0  0
 14 35  1  0  0  0  0
 15 19  1  0  0  0  0
 16 17  1  0  0  0  0
 16 15  1  0  0  0  0
 17 18  1  0  0  0  0
 18 19  2  0  0  0  0
 19 20  1  0  0  0  0
 20 24  1  0  0  0  0
 21 22  1  0  0  0  0
 21 20  2  0  0  0  0
 22 23  1  0  0  0  0
 23 24  2  0  0  0  0
 24 25  1  0  0  0  0
 25 39  1  0  0  0  0
 25 37  1  0  0  0  0
 26 40  1  0  0  0  0
 26 17  2  0  0  0  0
 27 26  1  0  0  0  0
 28 27  2  0  0  0  0
 28 29  1  0  0  0  0
 29 16  2  0  0  0  0
 31  5  1  0  0  0  0
 34 11  1  0  0  0  0
 38 25  1  0  0  0  0
 41 27  1  0  0  0  0
 42 28  1  0  0  0  0
 43 29  1  0  0  0  0
M  END
>  <Pose>
1

>  <Score>
-7.04

$$$$
