
 OpenBabel03232203513D

 50 53  0  0  0  0  0  0  0  0999 V2000
   -2.1500   19.5150  -10.1020 B   0  0  0  0  0  0  0  0  0  0  0  0
   -2.1410   18.3780  -11.6220 C   0  0  0  0  0  0  0  0  0  0  0  0
   -3.1350   18.4800  -12.5710 C   0  0  0  0  0  0  0  0  0  0  0  0
   -3.1200   17.6070  -13.6850 C   0  0  0  0  0  0  0  0  0  0  0  0
   -2.1060   16.6960  -13.7580 C   0  0  0  0  0  0  0  0  0  0  0  0
   -1.0760   16.5560  -12.8160 C   0  0  0  0  0  0  0  0  0  0  0  0
   -1.1430   17.4340  -11.7560 C   0  0  0  0  0  0  0  0  0  0  0  0
   -0.0800   15.5560  -12.9890 C   0  0  0  0  0  0  0  0  0  0  0  0
   -0.0990   14.3970  -13.2180 N   0  0  0  0  0  0  0  0  0  0  0  0
   -0.2110   13.1930  -13.4580 N   0  0  0  0  0  0  0  0  0  0  0  0
   -0.3300   11.8680  -13.7230 C   0  0  0  0  0  0  0  0  0  0  0  0
    0.2010   11.0630  -14.4850 O   0  0  0  0  0  0  0  0  0  0  0  0
   -1.4140   11.2210  -12.8330 C   0  0  0  0  0  0  0  0  0  0  0  0
   -1.7250    9.9150  -13.2430 N   0  0  0  0  0  0  0  0  0  0  0  0
   -2.9980    9.6240  -13.7100 C   0  0  0  0  0  0  0  0  0  0  0  0
   -3.0210    8.3110  -14.0030 C   0  0  0  0  0  0  0  0  0  0  0  0
   -1.8200    7.8300  -13.7220 N   0  0  0  0  0  0  0  0  0  0  0  0
   -0.9910    8.8340  -13.2420 C   0  0  0  0  0  0  0  0  0  0  0  0
    0.3560    8.4340  -12.8790 C   0  0  0  0  0  0  0  0  0  0  0  0
    0.7170    8.1410  -11.5650 N   0  0  0  0  0  0  0  0  0  0  0  0
    1.9390    7.7940  -11.5050 O   0  0  0  0  0  0  0  0  0  0  0  0
    2.4670    7.8190  -12.6620 N   0  0  0  0  0  0  0  0  0  0  0  0
    1.5000    8.2180  -13.5580 C   0  0  0  0  0  0  0  0  0  0  0  0
    1.7630    8.3250  -14.9400 N   0  0  0  0  0  4  0  0  0  0  0  0
   -4.1480    7.6730  -14.4960 C   0  0  0  0  0  0  0  0  0  0  0  0
   -5.2630    8.4560  -14.6780 C   0  0  0  0  0  0  0  0  0  0  0  0
   -5.2940    9.8080  -14.3970 C   0  0  0  0  0  0  0  0  0  0  0  0
   -4.1320   10.3970  -13.9020 C   0  0  0  0  0  0  0  0  0  0  0  0
   -4.1300   17.7290  -14.6200 O   0  0  0  0  0  0  0  0  0  0  0  0
   -4.1210   17.0630  -15.8360 C   0  0  0  0  0  0  0  0  0  0  0  0
   -5.1010   15.9340  -15.9810 C   0  0  0  0  0  0  0  0  0  0  0  0
   -4.1540   19.3850  -12.5010 O   0  0  0  0  0  0  0  0  0  0  0  0
   -2.0660   16.0100  -14.5860 H   0  0  0  0  0  0  0  0  0  0  0  0
   -0.3510   17.3900  -10.9810 H   0  0  0  0  0  0  0  0  0  0  0  0
    1.0220   15.8670  -12.9090 H   0  0  0  0  0  0  0  0  0  0  0  0
    1.1500   13.0910  -13.7950 H   0  0  0  0  0  0  0  0  0  0  0  0
   -2.3440   11.8640  -13.0140 H   0  0  0  0  0  0  0  0  0  0  0  0
   -1.1000   11.3580  -11.8150 H   0  0  0  0  0  0  0  0  0  0  0  0
    1.5430    7.3630  -15.4010 H   0  0  0  0  0  0  0  0  0  0  0  0
    2.7710    8.4380  -15.1000 H   0  0  0  0  0  0  0  0  0  0  0  0
    1.1040    8.9450  -15.4040 H   0  0  0  0  0  0  0  0  0  0  0  0
   -4.0920    6.6120  -14.7130 H   0  0  0  0  0  0  0  0  0  0  0  0
   -6.1860    7.9860  -15.0710 H   0  0  0  0  0  0  0  0  0  0  0  0
   -6.1960   10.3770  -14.5540 H   0  0  0  0  0  0  0  0  0  0  0  0
   -4.0970   11.4450  -13.6700 H   0  0  0  0  0  0  0  0  0  0  0  0
   -4.2870   17.8130  -16.6860 H   0  0  0  0  0  0  0  0  0  0  0  0
   -3.0970   16.6420  -16.0770 H   0  0  0  0  0  0  0  0  0  0  0  0
   -4.5550   15.0270  -16.2800 H   0  0  0  0  0  0  0  0  0  0  0  0
   -5.6480   15.7850  -15.0580 H   0  0  0  0  0  0  0  0  0  0  0  0
   -5.7900   16.1450  -16.8560 H   0  0  0  0  0  0  0  0  0  0  0  0
  2  1  1  0  0  0  0
  3 32  1  0  0  0  0
  3  2  2  0  0  0  0
  4  3  1  0  0  0  0
  5  4  2  0  0  0  0
  5  6  1  0  0  0  0
  6  7  2  0  0  0  0
  7  2  1  0  0  0  0
  7 34  1  0  0  0  0
  8 35  1  0  0  0  0
  8  6  1  0  0  0  0
  9  8  1  0  0  0  0
 10  9  1  0  0  0  0
 11 10  1  0  0  0  0
 11 13  1  0  0  0  0
 12 11  2  0  0  0  0
 13 38  1  0  0  0  0
 14 18  1  0  0  0  0
 14 13  1  0  0  0  0
 15 14  1  0  0  0  0
 16 17  1  0  0  0  0
 16 15  2  0  0  0  0
 17 18  2  0  0  0  0
 18 19  1  0  0  0  0
 19 20  2  0  0  0  0
 20 21  1  0  0  0  0
 22 21  1  0  0  0  0
 23 19  1  0  0  0  0
 23 22  2  0  0  0  0
 24 23  1  0  0  0  0
 25 16  1  0  0  0  0
 26 25  2  0  0  0  0
 26 27  1  0  0  0  0
 27 28  2  0  0  0  0
 28 15  1  0  0  0  0
 28 45  1  0  0  0  0
 29  4  1  0  0  0  0
 30 29  1  0  0  0  0
 31 30  1  0  0  0  0
 31 49  1  0  0  0  0
 33  5  1  0  0  0  0
 36 10  1  0  0  0  0
 37 13  1  0  0  0  0
 39 24  1  0  0  0  0
 40 24  1  0  0  0  0
 41 24  1  0  0  0  0
 42 25  1  0  0  0  0
 43 26  1  0  0  0  0
 44 27  1  0  0  0  0
 46 30  1  0  0  0  0
 47 30  1  0  0  0  0
 48 31  1  0  0  0  0
 50 31  1  0  0  0  0
M  END
>  <Pose>
1

>  <Score>
-7.18

$$$$
