
 OpenBabel03232203513D

 56 59  0  0  0  0  0  0  0  0999 V2000
    3.1990    9.2990  -14.4330 B   0  0  0  0  0  0  0  0  0  0  0  0
    1.5780   10.2130  -14.0230 C   0  0  0  0  0  0  0  0  0  0  0  0
    0.3570    9.5500  -13.9850 C   0  0  0  0  0  0  0  0  0  0  0  0
   -0.8180   10.2040  -13.6900 C   0  0  0  0  0  0  0  0  0  0  0  0
   -0.7470   11.5520  -13.4320 C   0  0  0  0  0  0  0  0  0  0  0  0
    0.4530   12.2450  -13.4620 C   0  0  0  0  0  0  0  0  0  0  0  0
    1.6040   11.5510  -13.7610 C   0  0  0  0  0  0  0  0  0  0  0  0
    0.5590   13.6700  -13.1930 C   0  0  0  0  0  0  0  0  0  0  0  0
   -0.4710   14.3880  -12.9310 N   0  0  0  0  0  0  0  0  0  0  0  0
   -0.4630   15.7350  -12.6660 N   0  0  0  0  0  0  0  0  0  0  0  0
   -1.4380   16.6510  -13.1190 C   0  0  0  0  0  0  0  0  0  0  0  0
   -1.7590   16.6490  -14.3240 O   0  0  0  0  0  0  0  0  0  0  0  0
   -2.0790   17.5990  -12.2170 C   0  0  0  0  0  0  0  0  0  0  0  0
   -1.7040   17.9750  -10.9880 N   0  0  0  0  0  0  0  0  0  0  0  0
   -2.5560   18.8520  -10.5170 N   0  0  0  0  0  0  0  0  0  0  0  0
   -3.5310   19.0940  -11.4120 N   0  0  0  0  0  0  0  0  0  0  0  0
   -3.2560   18.3290  -12.4720 C   0  0  0  0  0  0  0  0  0  0  0  0
   -3.9730   18.2210  -13.7440 C   0  0  0  0  0  0  0  0  0  0  0  0
   -5.1850   17.4410  -13.7470 N   0  0  0  0  0  0  0  0  0  0  0  0
   -5.9310   17.9250  -14.9160 C   0  0  0  0  0  0  0  0  0  0  0  0
   -5.2510   17.7370  -16.2130 C   0  0  0  0  0  0  0  0  0  0  0  0
   -4.4700   16.5920  -16.2150 O   0  0  0  0  0  0  0  0  0  0  0  0
   -5.0780   15.6500  -15.4140 C   0  0  0  0  0  0  0  0  0  0  0  0
   -4.8560   16.0310  -13.9630 C   0  0  0  0  0  0  0  0  0  0  0  0
   -4.5920   20.0260  -11.1800 C   0  0  0  0  0  0  0  0  0  0  0  0
   -5.7110   20.2280  -11.8950 N   0  0  0  0  0  0  0  0  0  0  0  0
   -6.4190   21.1760  -11.3290 O   0  0  0  0  0  0  0  0  0  0  0  0
   -5.8120   21.6200  -10.2540 N   0  0  0  0  0  0  0  0  0  0  0  0
   -4.6690   20.9190  -10.1390 C   0  0  0  0  0  0  0  0  0  0  0  0
   -3.7370   21.1120   -9.0870 N   0  0  0  0  0  0  0  0  0  0  0  0
   -1.9880    9.4840  -13.6700 O   0  0  0  0  0  0  0  0  0  0  0  0
   -3.2820    9.9900  -13.6270 C   0  0  0  0  0  0  0  0  0  0  0  0
   -4.2400    9.3640  -14.5880 C   0  0  0  0  0  0  0  0  0  0  0  0
    0.3460    8.1850  -14.2560 O   0  0  0  0  0  0  0  0  0  0  0  0
   -1.6560   12.0830  -13.1990 H   0  0  0  0  0  0  0  0  0  0  0  0
    2.5600   12.0840  -13.7890 H   0  0  0  0  0  0  0  0  0  0  0  0
    1.5290   14.1470  -13.2120 H   0  0  0  0  0  0  0  0  0  0  0  0
    0.3380   16.1060  -12.0780 H   0  0  0  0  0  0  0  0  0  0  0  0
   -3.2940   17.7740  -14.5180 H   0  0  0  0  0  0  0  0  0  0  0  0
   -4.1830   19.2530  -14.1670 H   0  0  0  0  0  0  0  0  0  0  0  0
   -6.8950   17.4140  -14.9020 H   0  0  0  0  0  0  0  0  0  0  0  0
   -6.0310   19.0320  -14.7330 H   0  0  0  0  0  0  0  0  0  0  0  0
   -4.5250   18.5930  -16.3460 H   0  0  0  0  0  0  0  0  0  0  0  0
   -5.9250   17.7900  -17.0920 H   0  0  0  0  0  0  0  0  0  0  0  0
   -4.6510   14.6340  -15.5360 H   0  0  0  0  0  0  0  0  0  0  0  0
   -6.1650   15.6620  -15.6300 H   0  0  0  0  0  0  0  0  0  0  0  0
   -3.7960   15.8440  -13.7460 H   0  0  0  0  0  0  0  0  0  0  0  0
   -5.5490   15.4020  -13.3820 H   0  0  0  0  0  0  0  0  0  0  0  0
   -2.7060   21.0350   -9.2020 H   0  0  0  0  0  0  0  0  0  0  0  0
   -4.0640   21.3510   -8.1150 H   0  0  0  0  0  0  0  0  0  0  0  0
   -3.7150    9.9220  -12.5960 H   0  0  0  0  0  0  0  0  0  0  0  0
   -3.2230   11.0820  -13.8690 H   0  0  0  0  0  0  0  0  0  0  0  0
   -4.6590   10.1120  -15.3180 H   0  0  0  0  0  0  0  0  0  0  0  0
   -5.1070    8.8620  -14.0980 H   0  0  0  0  0  0  0  0  0  0  0  0
   -3.6930    8.6240  -15.2140 H   0  0  0  0  0  0  0  0  0  0  0  0
    0.4210    7.8610  -15.2130 H   0  0  0  0  0  0  0  0  0  0  0  0
  1  2  1  0  0  0  0
  2  3  2  0  0  0  0
  2  7  1  0  0  0  0
  3  4  1  0  0  0  0
  4 31  1  0  0  0  0
  4  5  2  0  0  0  0
  5 35  1  0  0  0  0
  6  5  1  0  0  0  0
  6  8  1  0  0  0  0
  7  6  2  0  0  0  0
  8  9  2  0  0  0  0
  9 10  1  0  0  0  0
 10 38  1  0  0  0  0
 11 10  1  0  0  0  0
 11 13  1  0  0  0  0
 12 11  2  0  0  0  0
 13 14  1  0  0  0  0
 14 15  2  0  0  0  0
 16 25  1  0  0  0  0
 16 15  1  0  0  0  0
 17 13  2  0  0  0  0
 17 16  1  0  0  0  0
 18 17  1  0  0  0  0
 19 18  1  0  0  0  0
 20 41  1  0  0  0  0
 20 42  1  0  0  0  0
 20 19  1  0  0  0  0
 21 20  1  0  0  0  0
 22 21  1  0  0  0  0
 22 23  1  0  0  0  0
 23 24  1  0  0  0  0
 24 19  1  0  0  0  0
 24 47  1  0  0  0  0
 24 48  1  0  0  0  0
 25 29  1  0  0  0  0
 26 27  1  0  0  0  0
 26 25  2  0  0  0  0
 27 28  1  0  0  0  0
 28 29  2  0  0  0  0
 29 30  1  0  0  0  0
 30 50  1  0  0  0  0
 31 32  1  0  0  0  0
 32 51  1  0  0  0  0
 33 54  1  0  0  0  0
 33 32  1  0  0  0  0
 34  3  1  0  0  0  0
 36  7  1  0  0  0  0
 37  8  1  0  0  0  0
 39 18  1  0  0  0  0
 40 18  1  0  0  0  0
 43 21  1  0  0  0  0
 44 21  1  0  0  0  0
 45 23  1  0  0  0  0
 46 23  1  0  0  0  0
 49 30  1  0  0  0  0
 52 32  1  0  0  0  0
 53 33  1  0  0  0  0
 55 33  1  0  0  0  0
 56 34  1  0  0  0  0
M  END
>  <Pose>
1

>  <Score>
-6.30

$$$$
