
 OpenBabel03232203513D

 58 61  0  0  0  0  0  0  0  0999 V2000
    9.2150    6.4570  -13.6740 B   0  0  0  0  0  0  0  0  0  0  0  0
    7.3490    6.0730  -13.4500 C   0  0  0  0  0  0  0  0  0  0  0  0
    6.9550    4.7950  -13.1650 C   0  0  0  0  0  0  0  0  0  0  0  0
    5.5970    4.5150  -13.0190 C   0  0  0  0  0  0  0  0  0  0  0  0
    4.6580    5.5250  -13.1680 C   0  0  0  0  0  0  0  0  0  0  0  0
    5.0380    6.8020  -13.4630 C   0  0  0  0  0  0  0  0  0  0  0  0
    6.3870    7.0480  -13.5960 C   0  0  0  0  0  0  0  0  0  0  0  0
    4.1180    7.8880  -13.8590 C   0  0  0  0  0  0  0  0  0  0  0  0
    4.1810    9.0310  -13.6650 N   0  0  0  0  0  0  0  0  0  0  0  0
    4.2310   10.3220  -13.4560 N   0  0  0  0  0  0  0  0  0  0  0  0
    2.8690   10.8990  -13.5240 C   0  0  0  0  0  0  0  0  0  0  0  0
    2.5700   12.1420  -13.1950 N   0  0  0  0  0  4  0  0  0  0  0  0
    1.2720   12.5470  -13.0880 C   0  0  0  0  0  0  0  0  0  0  0  0
    0.3370   11.6010  -13.3370 N   0  0  0  0  0  0  0  0  0  0  0  0
    0.5810   10.3210  -13.6770 C   0  0  0  0  0  0  0  0  0  0  0  0
    1.8880    9.9880  -13.7690 N   0  0  0  0  0  0  0  0  0  0  0  0
   -0.4240    9.3740  -13.7700 N   0  0  0  0  0  0  0  0  0  0  0  0
   -1.8110    9.4970  -13.5420 C   0  0  0  0  0  0  0  0  0  0  0  0
   -2.1490    8.5590  -12.3800 C   0  0  0  0  0  0  0  0  0  0  0  0
   -1.7100    7.2980  -12.7200 O   0  0  0  0  0  0  0  0  0  0  0  0
   -0.3560    7.1750  -12.9300 C   0  0  0  0  0  0  0  0  0  0  0  0
    0.0330    8.0130  -14.1820 C   0  0  0  0  0  0  0  0  0  0  0  0
    0.9100   13.8450  -12.6540 N   0  0  0  0  0  0  0  0  0  0  0  0
    1.9380   14.7340  -12.0890 C   0  0  0  0  0  0  0  0  0  0  0  0
    1.2950   15.3160  -10.8040 C   0  0  0  0  0  0  0  0  0  0  0  0
    0.2880   16.1180  -11.2610 O   0  0  0  0  0  0  0  0  0  0  0  0
   -0.7610   15.4340  -11.8080 C   0  0  0  0  0  0  0  0  0  0  0  0
   -0.4260   14.2980  -12.7170 C   0  0  0  0  0  0  0  0  0  0  0  0
    5.2950    3.2220  -12.7280 O   0  0  0  0  0  0  0  0  0  0  0  0
    5.3270    2.1020  -13.5400 C   0  0  0  0  0  0  0  0  0  0  0  0
    3.9420    1.6510  -13.9800 C   0  0  0  0  0  0  0  0  0  0  0  0
    7.9240    3.8240  -13.0310 O   0  0  0  0  0  0  0  0  0  0  0  0
    3.6120    5.3340  -13.0360 H   0  0  0  0  0  0  0  0  0  0  0  0
    6.7470    8.0370  -13.7940 H   0  0  0  0  0  0  0  0  0  0  0  0
    3.2180    7.5680  -14.4370 H   0  0  0  0  0  0  0  0  0  0  0  0
    4.9640   10.9730  -13.2560 H   0  0  0  0  0  0  0  0  0  0  0  0
   -2.2200   10.4900  -13.3580 H   0  0  0  0  0  0  0  0  0  0  0  0
   -2.3170    9.0330  -14.4600 H   0  0  0  0  0  0  0  0  0  0  0  0
   -3.2650    8.4920  -12.3350 H   0  0  0  0  0  0  0  0  0  0  0  0
   -1.7110    8.9690  -11.4660 H   0  0  0  0  0  0  0  0  0  0  0  0
   -0.1060    6.1550  -13.1760 H   0  0  0  0  0  0  0  0  0  0  0  0
    0.2760    7.4810  -12.0640 H   0  0  0  0  0  0  0  0  0  0  0  0
    1.0910    7.9970  -14.3110 H   0  0  0  0  0  0  0  0  0  0  0  0
   -0.5780    7.7200  -15.0250 H   0  0  0  0  0  0  0  0  0  0  0  0
    2.8170   14.1760  -11.7600 H   0  0  0  0  0  0  0  0  0  0  0  0
    2.2330   15.4990  -12.7810 H   0  0  0  0  0  0  0  0  0  0  0  0
    2.0510   15.8720  -10.2680 H   0  0  0  0  0  0  0  0  0  0  0  0
    0.9310   14.4250  -10.2300 H   0  0  0  0  0  0  0  0  0  0  0  0
   -1.3830   16.1740  -12.4010 H   0  0  0  0  0  0  0  0  0  0  0  0
   -1.4430   15.0950  -11.0020 H   0  0  0  0  0  0  0  0  0  0  0  0
   -0.6970   14.5420  -13.7760 H   0  0  0  0  0  0  0  0  0  0  0  0
   -1.0730   13.4170  -12.4050 H   0  0  0  0  0  0  0  0  0  0  0  0
    5.8850    2.4170  -14.4850 H   0  0  0  0  0  0  0  0  0  0  0  0
    5.8380    1.2590  -13.0900 H   0  0  0  0  0  0  0  0  0  0  0  0
    3.1380    2.1600  -13.4430 H   0  0  0  0  0  0  0  0  0  0  0  0
    3.8680    0.5420  -13.8430 H   0  0  0  0  0  0  0  0  0  0  0  0
    3.8200    1.8420  -15.0750 H   0  0  0  0  0  0  0  0  0  0  0  0
    8.6440    3.8450  -12.3500 H   0  0  0  0  0  0  0  0  0  0  0  0
  1  2  1  0  0  0  0
  2  3  1  0  0  0  0
  3 32  1  0  0  0  0
  3  4  2  0  0  0  0
  4 29  1  0  0  0  0
  5 33  1  0  0  0  0
  5  4  1  0  0  0  0
  6  5  2  0  0  0  0
  7  6  1  0  0  0  0
  7  2  2  0  0  0  0
  8  9  1  0  0  0  0
  8  6  1  0  0  0  0
  9 10  1  0  0  0  0
 10 36  1  0  0  0  0
 11 10  1  0  0  0  0
 11 12  2  0  0  0  0
 12 13  2  0  0  0  0
 13 23  1  0  0  0  0
 14 13  1  0  0  0  0
 15 14  2  0  0  0  0
 16 15  1  0  0  0  0
 16 11  1  0  0  0  0
 17 15  1  0  0  0  0
 17 18  1  0  0  0  0
 18 37  1  0  0  0  0
 18 19  1  0  0  0  0
 19 39  1  0  0  0  0
 19 40  1  0  0  0  0
 20 19  1  0  0  0  0
 21 20  1  0  0  0  0
 21 42  1  0  0  0  0
 22 17  1  0  0  0  0
 22 21  1  0  0  0  0
 23 24  1  0  0  0  0
 24 45  1  0  0  0  0
 24 25  1  0  0  0  0
 25 47  1  0  0  0  0
 25 48  1  0  0  0  0
 26 25  1  0  0  0  0
 27 26  1  0  0  0  0
 27 50  1  0  0  0  0
 28 23  1  0  0  0  0
 28 52  1  0  0  0  0
 28 27  1  0  0  0  0
 30 54  1  0  0  0  0
 30 29  1  0  0  0  0
 31 56  1  0  0  0  0
 31 30  1  0  0  0  0
 31 55  1  0  0  0  0
 32 58  1  0  0  0  0
 34  7  1  0  0  0  0
 35  8  1  0  0  0  0
 38 18  1  0  0  0  0
 41 21  1  0  0  0  0
 43 22  1  0  0  0  0
 44 22  1  0  0  0  0
 46 24  1  0  0  0  0
 49 27  1  0  0  0  0
 51 28  1  0  0  0  0
 53 30  1  0  0  0  0
 57 31  1  0  0  0  0
M  END
>  <Pose>
1

>  <Score>
-5.46

$$$$
