
 OpenBabel03232203513D

 64 67  0  0  1  0  0  0  0  0999 V2000
    3.7880   10.8130  -13.2670 B   0  0  0  0  0  0  0  0  0  0  0  0
    2.5800   12.1970  -12.7950 C   0  0  0  0  0  0  0  0  0  0  0  0
    2.9920   13.1700  -11.8740 C   0  0  0  0  0  0  0  0  0  0  0  0
    2.1080   14.1830  -11.5280 C   0  0  0  0  0  0  0  0  0  0  0  0
    0.8770   14.1940  -12.0930 C   0  0  0  0  0  0  0  0  0  0  0  0
    0.4710   13.2310  -13.0040 C   0  0  0  0  0  0  0  0  0  0  0  0
    1.3230   12.2170  -13.3660 C   0  0  0  0  0  0  0  0  0  0  0  0
   -0.9110   13.3680  -13.5330 C   0  0  1  0  0  0  0  0  0  0  0  0
   -1.7100   12.3320  -12.9140 N   0  0  0  0  0  0  0  0  0  0  0  0
   -2.5720   12.8570  -11.9460 C   0  0  0  0  0  0  0  0  0  0  0  0
   -3.2830   12.2050  -11.1660 O   0  0  0  0  0  0  0  0  0  0  0  0
   -2.4830   14.3160  -12.0180 C   0  0  0  0  0  0  0  0  0  0  0  0
   -3.1450   15.0740  -11.2620 O   0  0  0  0  0  0  0  0  0  0  0  0
   -1.5420   14.6550  -13.0630 C   0  0  0  0  0  0  0  0  0  0  0  0
   -1.2720   15.8650  -13.4710 C   0  0  0  0  0  0  0  0  0  0  0  0
   -0.2990   16.0620  -14.4380 O   0  0  0  0  0  0  0  0  0  0  0  0
   -1.9610   17.0210  -12.9520 C   0  0  0  0  0  0  0  0  0  0  0  0
   -1.4380   17.5270  -11.7550 C   0  0  0  0  0  0  0  0  0  0  0  0
   -1.9720   18.6460  -11.1640 C   0  0  0  0  0  0  0  0  0  0  0  0
   -3.0400   19.2900  -11.7440 C   0  0  0  0  0  0  0  0  0  0  0  0
   -3.5390   18.7710  -12.9240 C   0  0  0  0  0  0  0  0  0  0  0  0
   -3.0160   17.6510  -13.5330 C   0  0  0  0  0  0  0  0  0  0  0  0
   -3.3790   20.3930  -10.9330 O   0  0  0  0  0  0  0  0  0  0  0  0
   -2.7790   20.2120   -9.6550 C   0  0  2  0  0  0  0  0  0  0  0  0
   -1.5710   19.3370   -9.8960 C   0  0  0  0  0  0  0  0  0  0  0  0
   -3.6950   19.4750   -8.6960 C   0  0  0  0  0  0  0  0  0  0  0  0
   -1.5710   10.9430  -13.2990 C   0  0  0  0  0  0  0  0  0  0  0  0
   -2.8120   10.1620  -13.4080 C   0  0  0  0  0  0  0  0  0  0  0  0
   -3.6990   10.4190  -14.5690 C   0  0  0  0  0  0  0  0  0  0  0  0
   -4.4730    9.2760  -14.9890 N   0  0  0  0  0  4  0  0  0  0  0  0
   -5.7990    9.3390  -14.3580 C   0  0  0  0  0  0  0  0  0  0  0  0
   -3.8100    8.0940  -14.4680 C   0  0  0  0  0  0  0  0  0  0  0  0
    2.5140   15.1560  -10.6100 O   0  0  0  0  0  0  0  0  0  0  0  0
    1.6420   16.1080  -10.0630 C   0  0  0  0  0  0  0  0  0  0  0  0
    4.2420   13.1480  -11.3090 O   0  0  0  0  0  0  0  0  0  0  0  0
    0.2020   15.0090  -11.7970 H   0  0  0  0  0  0  0  0  0  0  0  0
    0.9870   11.4740  -14.0810 H   0  0  0  0  0  0  0  0  0  0  0  0
   -0.9490   13.2810  -14.6370 H   0  0  0  0  0  0  0  0  0  0  0  0
   -0.5800   17.0370  -11.2640 H   0  0  0  0  0  0  0  0  0  0  0  0
   -4.3930   19.2660  -13.4100 H   0  0  0  0  0  0  0  0  0  0  0  0
   -3.3980   17.2640  -14.4690 H   0  0  0  0  0  0  0  0  0  0  0  0
   -2.4410   21.1520   -9.1960 H   0  0  0  0  0  0  0  0  0  0  0  0
   -1.4270   18.5870   -9.0630 H   0  0  0  0  0  0  0  0  0  0  0  0
   -0.6300   19.8870   -9.9850 H   0  0  0  0  0  0  0  0  0  0  0  0
   -4.4830   18.9410   -9.2810 H   0  0  0  0  0  0  0  0  0  0  0  0
   -4.1220   20.1650   -7.9350 H   0  0  0  0  0  0  0  0  0  0  0  0
   -3.1200   18.7100   -8.1580 H   0  0  0  0  0  0  0  0  0  0  0  0
   -1.0380   10.9160  -14.2710 H   0  0  0  0  0  0  0  0  0  0  0  0
   -0.8390   10.4360  -12.5970 H   0  0  0  0  0  0  0  0  0  0  0  0
   -3.4250   10.3520  -12.4800 H   0  0  0  0  0  0  0  0  0  0  0  0
   -2.5940    9.0780  -13.3700 H   0  0  0  0  0  0  0  0  0  0  0  0
   -4.3780   11.2760  -14.4700 H   0  0  0  0  0  0  0  0  0  0  0  0
   -3.0320   10.6690  -15.4400 H   0  0  0  0  0  0  0  0  0  0  0  0
   -4.5620    9.1580  -16.0020 H   0  0  0  0  0  0  0  0  0  0  0  0
   -6.4170   10.1560  -14.8160 H   0  0  0  0  0  0  0  0  0  0  0  0
   -6.3600    8.3930  -14.4940 H   0  0  0  0  0  0  0  0  0  0  0  0
   -5.6560    9.5190  -13.2640 H   0  0  0  0  0  0  0  0  0  0  0  0
   -3.6060    7.3490  -15.2600 H   0  0  0  0  0  0  0  0  0  0  0  0
   -4.3950    7.6370  -13.6390 H   0  0  0  0  0  0  0  0  0  0  0  0
   -2.8090    8.3490  -14.0200 H   0  0  0  0  0  0  0  0  0  0  0  0
    1.1030   16.6950  -10.8500 H   0  0  0  0  0  0  0  0  0  0  0  0
    0.9090   15.5500   -9.4100 H   0  0  0  0  0  0  0  0  0  0  0  0
    2.2180   16.7830   -9.4210 H   0  0  0  0  0  0  0  0  0  0  0  0
    4.5940   13.9410  -10.8330 H   0  0  0  0  0  0  0  0  0  0  0  0
  1  2  1  0  0  0  0
  2  3  1  0  0  0  0
  3  4  2  0  0  0  0
  3 35  1  0  0  0  0
  4 33  1  0  0  0  0
  5 36  1  0  0  0  0
  5  4  1  0  0  0  0
  6  5  2  0  0  0  0
  7  6  1  0  0  0  0
  7  2  2  0  0  0  0
  8 38  1  6  0  0  0
  8 14  1  0  0  0  0
  8  6  1  0  0  0  0
  8  9  1  0  0  0  0
  9 10  1  0  0  0  0
 10 11  2  0  0  0  0
 12 10  1  0  0  0  0
 12 13  2  0  0  0  0
 14 12  1  0  0  0  0
 15 14  2  0  0  0  0
 15 17  1  0  0  0  0
 16 15  1  0  0  0  0
 17 18  1  0  0  0  0
 18 39  1  0  0  0  0
 18 19  2  0  0  0  0
 19 25  1  0  0  0  0
 20 19  1  0  0  0  0
 20 23  1  0  0  0  0
 21 20  2  0  0  0  0
 22 17  2  0  0  0  0
 22 21  1  0  0  0  0
 23 24  1  0  0  0  0
 24 42  1  1  0  0  0
 24 26  1  0  0  0  0
 25 24  1  0  0  0  0
 25 43  1  0  0  0  0
 26 47  1  0  0  0  0
 26 46  1  0  0  0  0
 27  9  1  0  0  0  0
 27 49  1  0  0  0  0
 28 51  1  0  0  0  0
 28 27  1  0  0  0  0
 28 50  1  0  0  0  0
 29 52  1  0  0  0  0
 29 28  1  0  0  0  0
 30 29  1  0  0  0  0
 30 32  1  0  0  0  0
 30 31  1  0  0  0  0
 31 57  1  0  0  0  0
 32 60  1  0  0  0  0
 32 59  1  0  0  0  0
 33 34  1  0  0  0  0
 34 63  1  0  0  0  0
 34 62  1  0  0  0  0
 35 64  1  0  0  0  0
 37  7  1  0  0  0  0
 40 21  1  0  0  0  0
 41 22  1  0  0  0  0
 44 25  1  0  0  0  0
 45 26  1  0  0  0  0
 48 27  1  0  0  0  0
 53 29  1  0  0  0  0
 54 30  1  0  0  0  0
 55 31  1  0  0  0  0
 56 31  1  0  0  0  0
 58 32  1  0  0  0  0
 61 34  1  0  0  0  0
M  END
>  <Pose>
1

>  <Score>
-4.46

$$$$
