
 OpenBabel03232203513D

 39 42  0  0  1  0  0  0  0  0999 V2000
    3.7770   12.8090  -12.0210 B   0  0  0  0  0  0  0  0  0  0  0  0
    1.9610   13.0920  -12.5060 C   0  0  0  0  0  0  0  0  0  0  0  0
    1.3830   14.3240  -12.3160 C   0  0  0  0  0  0  0  0  0  0  0  0
    0.0640   14.5010  -12.6770 C   0  0  0  0  0  0  0  0  0  0  0  0
   -0.7200   13.5070  -13.2220 C   0  0  0  0  0  0  0  0  0  0  0  0
   -0.1340   12.2740  -13.4100 C   0  0  0  0  0  0  0  0  0  0  0  0
    1.1820   12.0710  -13.0580 C   0  0  0  0  0  0  0  0  0  0  0  0
   -0.8750   11.1210  -13.9950 C   0  0  2  0  0  0  0  0  0  0  0  0
   -2.2290   11.2090  -13.6370 N   0  0  0  0  0  4  0  0  0  0  0  0
   -2.9140   10.0510  -13.2040 C   0  0  1  0  0  0  0  0  0  0  0  0
   -2.2890    8.7420  -13.6060 C   0  0  0  0  0  0  0  0  0  0  0  0
   -0.8230    8.7370  -13.3910 C   0  0  0  0  0  0  0  0  0  0  0  0
    0.0530    7.7540  -13.0180 C   0  0  0  0  0  0  0  0  0  0  0  0
    1.2920    8.3700  -12.9900 C   0  0  0  0  0  0  0  0  0  0  0  0
    1.1460    9.6760  -13.3380 N   0  0  0  0  0  0  0  0  0  0  0  0
   -0.1510    9.9050  -13.5850 C   0  0  0  0  0  0  0  0  0  0  0  0
    2.3690    7.5850  -12.6370 C   0  0  0  0  0  0  0  0  0  0  0  0
    2.2210    6.2500  -12.3250 C   0  0  0  0  0  0  0  0  0  0  0  0
    0.9850    5.6370  -12.3530 C   0  0  0  0  0  0  0  0  0  0  0  0
   -0.1080    6.4120  -12.7070 C   0  0  0  0  0  0  0  0  0  0  0  0
   -3.1070   10.0110  -11.7280 C   0  0  0  0  0  0  0  0  0  0  0  0
   -4.2630   10.2570  -11.2420 O   0  0  0  0  0  0  0  0  0  0  0  0
   -2.0350    9.7130  -10.9030 O   0  0  0  0  0  0  0  0  0  0  0  0
   -0.7160   16.2180  -12.4020 B   0  0  0  0  0  0  0  0  0  0  0  0
    2.1190   15.3920  -11.7630 O   0  0  0  0  0  0  0  0  0  0  0  0
   -1.7420   13.6170  -13.5090 H   0  0  0  0  0  0  0  0  0  0  0  0
    1.7120   11.1310  -13.1790 H   0  0  0  0  0  0  0  0  0  0  0  0
   -0.7350   11.2090  -15.1080 H   0  0  0  0  0  0  0  0  0  0  0  0
   -2.3990   11.9750  -12.9230 H   0  0  0  0  0  0  0  0  0  0  0  0
   -2.7620   11.5940  -14.4820 H   0  0  0  0  0  0  0  0  0  0  0  0
   -3.9660   10.0160  -13.6240 H   0  0  0  0  0  0  0  0  0  0  0  0
   -2.4770    8.4710  -14.6650 H   0  0  0  0  0  0  0  0  0  0  0  0
   -2.7190    7.9310  -12.9820 H   0  0  0  0  0  0  0  0  0  0  0  0
    1.9680   10.3180  -13.3780 H   0  0  0  0  0  0  0  0  0  0  0  0
    3.3450    8.0380  -12.6080 H   0  0  0  0  0  0  0  0  0  0  0  0
    3.0860    5.6270  -12.0450 H   0  0  0  0  0  0  0  0  0  0  0  0
    0.9080    4.5880  -12.1030 H   0  0  0  0  0  0  0  0  0  0  0  0
   -1.0880    5.9570  -12.7350 H   0  0  0  0  0  0  0  0  0  0  0  0
    1.9550   15.6230  -10.7930 H   0  0  0  0  0  0  0  0  0  0  0  0
  2  3  1  0  0  0  0
  2  1  1  0  0  0  0
  3 25  1  0  0  0  0
  4 24  1  0  0  0  0
  4  3  2  0  0  0  0
  5  4  1  0  0  0  0
  6  5  2  0  0  0  0
  6  7  1  0  0  0  0
  7  2  2  0  0  0  0
  8 28  1  6  0  0  0
  8  9  1  0  0  0  0
  8 16  1  0  0  0  0
  8  6  1  0  0  0  0
  9 10  1  0  0  0  0
  9 29  1  0  0  0  0
 10 31  1  6  0  0  0
 10 21  1  0  0  0  0
 11 12  1  0  0  0  0
 11 10  1  0  0  0  0
 11 33  1  0  0  0  0
 12 13  1  0  0  0  0
 13 14  2  0  0  0  0
 13 20  1  0  0  0  0
 14 17  1  0  0  0  0
 15 14  1  0  0  0  0
 16 12  2  0  0  0  0
 16 15  1  0  0  0  0
 17 35  1  0  0  0  0
 17 18  2  0  0  0  0
 18 36  1  0  0  0  0
 19 18  1  0  0  0  0
 19 37  1  0  0  0  0
 20 19  2  0  0  0  0
 21 22  2  0  0  0  0
 21 23  1  0  0  0  0
 25 39  1  0  0  0  0
 26  5  1  0  0  0  0
 27  7  1  0  0  0  0
 30  9  1  0  0  0  0
 32 11  1  0  0  0  0
 34 15  1  0  0  0  0
 38 20  1  0  0  0  0
M  END
>  <Pose>
1

>  <Score>
-4.11

$$$$
