
 OpenBabel03232203513D

 52 55  0  0  0  0  0  0  0  0999 V2000
   -3.9550   18.9710  -12.2580 B   0  0  0  0  0  0  0  0  0  0  0  0
   -2.3230   18.0560  -11.9210 C   0  0  0  0  0  0  0  0  0  0  0  0
   -1.5650   18.4480  -10.8290 C   0  0  0  0  0  0  0  0  0  0  0  0
   -0.3810   17.7710  -10.6090 C   0  0  0  0  0  0  0  0  0  0  0  0
    0.0220   16.7580  -11.4380 C   0  0  0  0  0  0  0  0  0  0  0  0
   -0.7240   16.3440  -12.5410 C   0  0  0  0  0  0  0  0  0  0  0  0
   -1.9010   17.0300  -12.7460 C   0  0  0  0  0  0  0  0  0  0  0  0
   -0.2510   15.2500  -13.3650 C   0  0  0  0  0  0  0  0  0  0  0  0
   -0.2560   14.0300  -12.9520 N   0  0  0  0  0  0  0  0  0  0  0  0
    0.1890   12.9540  -13.7020 N   0  0  0  0  0  0  0  0  0  0  0  0
   -0.5010   11.7100  -13.6600 C   0  0  0  0  0  0  0  0  0  0  0  0
    0.1410   10.6010  -13.3310 N   0  0  0  0  0  4  0  0  0  0  0  0
   -0.4360    9.3900  -13.2370 C   0  0  0  0  0  0  0  0  0  0  0  0
   -1.7590    9.3290  -13.5020 N   0  0  0  0  0  0  0  0  0  0  0  0
   -2.4740   10.4330  -13.8470 C   0  0  0  0  0  0  0  0  0  0  0  0
   -1.8220   11.6210  -13.9210 N   0  0  0  0  0  0  0  0  0  0  0  0
   -3.8570   10.3570  -14.1050 N   0  0  0  0  0  0  0  0  0  0  0  0
   -4.3770    9.5370  -15.1690 C   0  0  0  0  0  0  0  0  0  0  0  0
   -5.4420    8.6470  -14.5110 C   0  0  0  0  0  0  0  0  0  0  0  0
   -6.3340    9.4470  -13.8270 O   0  0  0  0  0  0  0  0  0  0  0  0
   -5.7260   10.0100  -12.7050 C   0  0  0  0  0  0  0  0  0  0  0  0
   -4.7870   11.0900  -13.2840 C   0  0  0  0  0  0  0  0  0  0  0  0
    0.3030    8.2130  -12.8710 N   0  0  0  0  0  0  0  0  0  0  0  0
    1.1350    8.1870  -11.7020 C   0  0  0  0  0  0  0  0  0  0  0  0
    1.6440    6.8640  -11.2780 C   0  0  0  0  0  0  0  0  0  0  0  0
    1.5640    5.8770  -12.2500 O   0  0  0  0  0  0  0  0  0  0  0  0
    0.3100    5.8250  -12.8410 C   0  0  0  0  0  0  0  0  0  0  0  0
    0.1880    7.0550  -13.7080 C   0  0  0  0  0  0  0  0  0  0  0  0
    1.2240   16.0780  -11.2100 O   0  0  0  0  0  0  0  0  0  0  0  0
   -1.9650   19.4780   -9.9800 O   0  0  0  0  0  0  0  0  0  0  0  0
    0.2050   18.0960   -9.7430 H   0  0  0  0  0  0  0  0  0  0  0  0
   -2.5000   16.7170  -13.6140 H   0  0  0  0  0  0  0  0  0  0  0  0
    0.1180   15.4530  -14.3580 H   0  0  0  0  0  0  0  0  0  0  0  0
    1.0230   13.0480  -14.2930 H   0  0  0  0  0  0  0  0  0  0  0  0
   -4.8600   10.1760  -15.9350 H   0  0  0  0  0  0  0  0  0  0  0  0
   -3.5800    8.8900  -15.6160 H   0  0  0  0  0  0  0  0  0  0  0  0
   -5.9210    8.0510  -15.3070 H   0  0  0  0  0  0  0  0  0  0  0  0
   -4.8850    7.9720  -13.8140 H   0  0  0  0  0  0  0  0  0  0  0  0
   -5.0380    9.2280  -12.2660 H   0  0  0  0  0  0  0  0  0  0  0  0
   -6.4370   10.4100  -11.9870 H   0  0  0  0  0  0  0  0  0  0  0  0
   -5.4390   11.6900  -13.9820 H   0  0  0  0  0  0  0  0  0  0  0  0
   -4.3250   11.6990  -12.5000 H   0  0  0  0  0  0  0  0  0  0  0  0
    1.9770    8.9080  -11.8910 H   0  0  0  0  0  0  0  0  0  0  0  0
    0.5130    8.6130  -10.8550 H   0  0  0  0  0  0  0  0  0  0  0  0
    1.1340    6.5210  -10.3420 H   0  0  0  0  0  0  0  0  0  0  0  0
    2.7280    6.9690  -11.0140 H   0  0  0  0  0  0  0  0  0  0  0  0
    0.2380    4.8880  -13.3990 H   0  0  0  0  0  0  0  0  0  0  0  0
   -0.5220    5.9040  -12.0910 H   0  0  0  0  0  0  0  0  0  0  0  0
   -0.8290    6.9810  -14.1770 H   0  0  0  0  0  0  0  0  0  0  0  0
    0.9260    7.0610  -14.5370 H   0  0  0  0  0  0  0  0  0  0  0  0
    1.5340   15.9590  -10.2500 H   0  0  0  0  0  0  0  0  0  0  0  0
   -1.4980   19.7040   -9.1150 H   0  0  0  0  0  0  0  0  0  0  0  0
  1  2  1  0  0  0  0
  2  3  1  0  0  0  0
  3  4  2  0  0  0  0
  3 30  1  0  0  0  0
  4 31  1  0  0  0  0
  5 29  1  0  0  0  0
  5  4  1  0  0  0  0
  6  5  2  0  0  0  0
  7  6  1  0  0  0  0
  7  2  2  0  0  0  0
  8  9  2  0  0  0  0
  8  6  1  0  0  0  0
 10 11  1  0  0  0  0
 10  9  1  0  0  0  0
 11 12  2  0  0  0  0
 12 13  2  0  0  0  0
 13 23  1  0  0  0  0
 14 13  1  0  0  0  0
 15 14  2  0  0  0  0
 16 15  1  0  0  0  0
 16 11  1  0  0  0  0
 17 15  1  0  0  0  0
 17 22  1  0  0  0  0
 18 19  1  0  0  0  0
 18 17  1  0  0  0  0
 19 20  1  0  0  0  0
 19 38  1  0  0  0  0
 20 21  1  0  0  0  0
 21 39  1  0  0  0  0
 21 40  1  0  0  0  0
 22 21  1  0  0  0  0
 22 42  1  0  0  0  0
 23 24  1  0  0  0  0
 24 25  1  0  0  0  0
 24 44  1  0  0  0  0
 25 46  1  0  0  0  0
 25 45  1  0  0  0  0
 26 25  1  0  0  0  0
 27 26  1  0  0  0  0
 27 48  1  0  0  0  0
 28 23  1  0  0  0  0
 28 27  1  0  0  0  0
 29 51  1  0  0  0  0
 30 52  1  0  0  0  0
 32  7  1  0  0  0  0
 33  8  1  0  0  0  0
 34 10  1  0  0  0  0
 35 18  1  0  0  0  0
 36 18  1  0  0  0  0
 37 19  1  0  0  0  0
 41 22  1  0  0  0  0
 43 24  1  0  0  0  0
 47 27  1  0  0  0  0
 49 28  1  0  0  0  0
 50 28  1  0  0  0  0
M  END
>  <Pose>
1

>  <Score>
-7.04

$$$$
