
 OpenBabel03232203513D

 52 55  0  0  0  0  0  0  0  0999 V2000
    0.1980    7.8080  -13.9960 B   0  0  0  0  0  0  0  0  0  0  0  0
    1.5330    9.1470  -13.7500 C   0  0  0  0  0  0  0  0  0  0  0  0
    2.8640    8.7960  -13.6200 C   0  0  0  0  0  0  0  0  0  0  0  0
    3.8150    9.7890  -13.4420 C   0  0  0  0  0  0  0  0  0  0  0  0
    3.4220   11.1080  -13.3950 C   0  0  0  0  0  0  0  0  0  0  0  0
    2.0770   11.4200  -13.5290 C   0  0  0  0  0  0  0  0  0  0  0  0
    1.1150   10.4560  -13.7070 C   0  0  0  0  0  0  0  0  0  0  0  0
   -0.2730   10.8270  -13.8340 C   0  0  0  0  0  0  0  0  0  0  0  0
   -1.2520   10.2220  -13.2460 N   0  0  0  0  0  0  0  0  0  0  0  0
   -2.5910   10.6620  -13.4320 N   0  0  0  0  0  0  0  0  0  0  0  0
   -3.5860    9.8160  -13.9650 C   0  0  0  0  0  0  0  0  0  0  0  0
   -4.8430   10.2580  -14.0550 N   0  0  0  0  0  4  0  0  0  0  0  0
   -5.8480    9.4890  -14.5520 C   0  0  0  0  0  0  0  0  0  0  0  0
   -5.5650    8.2440  -14.9660 N   0  0  0  0  0  0  0  0  0  0  0  0
   -4.3120    7.7700  -14.8890 C   0  0  0  0  0  0  0  0  0  0  0  0
   -3.3290    8.5730  -14.3840 N   0  0  0  0  0  0  0  0  0  0  0  0
   -4.0020    6.4480  -15.3290 N   0  0  0  0  0  0  0  0  0  0  0  0
   -4.9070    5.6330  -16.1030 C   0  0  0  0  0  0  0  0  0  0  0  0
   -4.9650    4.2240  -15.5540 C   0  0  0  0  0  0  0  0  0  0  0  0
   -4.1610    4.0560  -14.4360 O   0  0  0  0  0  0  0  0  0  0  0  0
   -2.8350    4.3880  -14.7730 C   0  0  0  0  0  0  0  0  0  0  0  0
   -2.7130    5.8850  -14.9810 C   0  0  0  0  0  0  0  0  0  0  0  0
   -7.1390   10.0540  -14.6060 N   0  0  0  0  0  0  0  0  0  0  0  0
   -7.7080   10.6270  -13.4160 C   0  0  0  0  0  0  0  0  0  0  0  0
   -8.0590   12.0740  -13.7930 C   0  0  0  0  0  0  0  0  0  0  0  0
   -9.0110   11.9730  -14.8070 O   0  0  0  0  0  0  0  0  0  0  0  0
   -8.4680   11.4770  -15.9880 C   0  0  0  0  0  0  0  0  0  0  0  0
   -7.9160   10.0750  -15.8210 C   0  0  0  0  0  0  0  0  0  0  0  0
    4.4040   12.0680  -13.2140 O   0  0  0  0  0  0  0  0  0  0  0  0
    3.2540    7.4700  -13.6670 O   0  0  0  0  0  0  0  0  0  0  0  0
    4.8520    9.4960  -13.3430 H   0  0  0  0  0  0  0  0  0  0  0  0
    1.8380   12.4740  -13.4830 H   0  0  0  0  0  0  0  0  0  0  0  0
   -0.5600   11.6720  -14.4600 H   0  0  0  0  0  0  0  0  0  0  0  0
   -2.8630   11.6330  -13.1720 H   0  0  0  0  0  0  0  0  0  0  0  0
   -4.4680    5.5580  -17.1410 H   0  0  0  0  0  0  0  0  0  0  0  0
   -5.9290    6.0550  -16.1670 H   0  0  0  0  0  0  0  0  0  0  0  0
   -4.6260    3.4680  -16.3090 H   0  0  0  0  0  0  0  0  0  0  0  0
   -6.0120    3.9710  -15.2330 H   0  0  0  0  0  0  0  0  0  0  0  0
   -2.2030    4.0600  -13.9170 H   0  0  0  0  0  0  0  0  0  0  0  0
   -2.5120    3.8380  -15.7030 H   0  0  0  0  0  0  0  0  0  0  0  0
   -2.0280    6.0930  -15.8170 H   0  0  0  0  0  0  0  0  0  0  0  0
   -2.3270    6.3490  -14.0270 H   0  0  0  0  0  0  0  0  0  0  0  0
   -6.9720   10.6140  -12.5840 H   0  0  0  0  0  0  0  0  0  0  0  0
   -8.6360   10.0650  -13.1590 H   0  0  0  0  0  0  0  0  0  0  0  0
   -8.4640   12.6460  -12.9630 H   0  0  0  0  0  0  0  0  0  0  0  0
   -7.1000   12.5040  -14.1950 H   0  0  0  0  0  0  0  0  0  0  0  0
   -7.7310   12.1560  -16.4480 H   0  0  0  0  0  0  0  0  0  0  0  0
   -9.3230   11.3760  -16.7000 H   0  0  0  0  0  0  0  0  0  0  0  0
   -8.7890    9.3840  -15.6820 H   0  0  0  0  0  0  0  0  0  0  0  0
   -7.3260    9.8150  -16.7140 H   0  0  0  0  0  0  0  0  0  0  0  0
    5.1530   11.9960  -12.5390 H   0  0  0  0  0  0  0  0  0  0  0  0
    2.7340    6.8390  -14.2630 H   0  0  0  0  0  0  0  0  0  0  0  0
  1  2  1  0  0  0  0
  2  7  2  0  0  0  0
  2  3  1  0  0  0  0
  3  4  2  0  0  0  0
  4  5  1  0  0  0  0
  4 31  1  0  0  0  0
  5 29  1  0  0  0  0
  6 32  1  0  0  0  0
  6  5  2  0  0  0  0
  7  6  1  0  0  0  0
  8  7  1  0  0  0  0
  8  9  2  0  0  0  0
 10  9  1  0  0  0  0
 10 34  1  0  0  0  0
 11 10  1  0  0  0  0
 12 11  2  0  0  0  0
 13 12  2  0  0  0  0
 14 15  2  0  0  0  0
 14 13  1  0  0  0  0
 15 16  1  0  0  0  0
 16 11  1  0  0  0  0
 17 22  1  0  0  0  0
 17 15  1  0  0  0  0
 18 19  1  0  0  0  0
 18 17  1  0  0  0  0
 19 38  1  0  0  0  0
 19 20  1  0  0  0  0
 21 20  1  0  0  0  0
 21 39  1  0  0  0  0
 22 21  1  0  0  0  0
 22 42  1  0  0  0  0
 23 13  1  0  0  0  0
 23 24  1  0  0  0  0
 24 44  1  0  0  0  0
 24 43  1  0  0  0  0
 25 24  1  0  0  0  0
 25 45  1  0  0  0  0
 26 25  1  0  0  0  0
 27 28  1  0  0  0  0
 27 26  1  0  0  0  0
 28 49  1  0  0  0  0
 28 23  1  0  0  0  0
 29 51  1  0  0  0  0
 30  3  1  0  0  0  0
 33  8  1  0  0  0  0
 35 18  1  0  0  0  0
 36 18  1  0  0  0  0
 37 19  1  0  0  0  0
 40 21  1  0  0  0  0
 41 22  1  0  0  0  0
 46 25  1  0  0  0  0
 47 27  1  0  0  0  0
 48 27  1  0  0  0  0
 50 28  1  0  0  0  0
 52 30  1  0  0  0  0
M  END
>  <Pose>
1

>  <Score>
-5.65

$$$$
