
 OpenBabel03232203513D

 46 49  0  0  1  0  0  0  0  0999 V2000
   -0.4550    5.8250  -13.5320 B   0  0  0  0  0  0  0  0  0  0  0  0
    0.2250    7.5930  -13.3210 C   0  0  0  0  0  0  0  0  0  0  0  0
   -0.6640    8.6590  -13.3890 C   0  0  0  0  0  0  0  0  0  0  0  0
   -0.1520    9.9180  -13.2330 C   0  0  0  0  0  0  0  0  0  0  0  0
    1.1780   10.2070  -13.0130 C   0  0  0  0  0  0  0  0  0  0  0  0
    2.0380    9.1080  -12.9510 C   0  0  0  0  0  0  0  0  0  0  0  0
    1.5690    7.8170  -13.1030 C   0  0  0  0  0  0  0  0  0  0  0  0
    1.6920   11.5220  -12.8550 N   0  0  0  0  0  0  0  0  0  0  0  0
    0.9010   12.7210  -12.9980 C   0  0  0  0  0  0  0  0  0  0  0  0
    1.5760   13.6580  -12.0200 C   0  0  1  0  0  0  0  0  0  0  0  0
    3.0390   13.4200  -12.3490 C   0  0  0  0  0  0  0  0  0  0  0  0
    3.0080   11.9470  -12.5480 C   0  0  0  0  0  0  0  0  0  0  0  0
    4.0070   11.2020  -12.4550 O   0  0  0  0  0  0  0  0  0  0  0  0
    1.1840   15.0660  -12.2350 C   0  0  0  0  0  0  0  0  0  0  0  0
    2.0230   15.9290  -12.5880 O   0  0  0  0  0  0  0  0  0  0  0  0
   -0.1620   15.4390  -12.0380 N   0  0  0  0  0  0  0  0  0  0  0  0
   -0.7770   16.4530  -12.8590 C   0  0  0  0  0  0  0  0  0  0  0  0
   -1.4740   17.4720  -12.0250 C   0  0  0  0  0  0  0  0  0  0  0  0
   -2.6640   18.0740  -12.2710 N   0  0  0  0  0  0  0  0  0  0  0  0
   -2.9450   18.9310  -11.2750 C   0  0  0  0  0  0  0  0  0  0  0  0
   -1.8990   18.8360  -10.4160 N   0  0  0  0  0  0  0  0  0  0  0  0
   -1.0170   17.9650  -10.8630 N   0  0  0  0  0  0  0  0  0  0  0  0
   -4.2570   19.6170  -11.5150 C   0  0  0  0  0  0  0  0  0  0  0  0
   -4.5120   19.3160  -12.9750 C   0  0  0  0  0  0  0  0  0  0  0  0
   -3.7080   18.0690  -13.2800 C   0  0  0  0  0  0  0  0  0  0  0  0
   -2.1070    8.3830  -13.6270 C   0  0  0  0  0  0  0  0  0  0  0  0
   -0.8660   10.7480  -13.2880 H   0  0  0  0  0  0  0  0  0  0  0  0
    3.0970    9.2160  -12.7830 H   0  0  0  0  0  0  0  0  0  0  0  0
    2.2200    6.9570  -13.0570 H   0  0  0  0  0  0  0  0  0  0  0  0
    1.0130   13.0650  -14.0530 H   0  0  0  0  0  0  0  0  0  0  0  0
   -0.1670   12.5610  -12.7430 H   0  0  0  0  0  0  0  0  0  0  0  0
    1.3550   13.2810  -11.0070 H   0  0  0  0  0  0  0  0  0  0  0  0
    3.6110   13.6990  -11.4400 H   0  0  0  0  0  0  0  0  0  0  0  0
    3.3490   13.9650  -13.2410 H   0  0  0  0  0  0  0  0  0  0  0  0
   -0.7260   14.9850  -11.2970 H   0  0  0  0  0  0  0  0  0  0  0  0
   -0.0510   16.9640  -13.5160 H   0  0  0  0  0  0  0  0  0  0  0  0
   -1.5330   15.9880  -13.5490 H   0  0  0  0  0  0  0  0  0  0  0  0
   -5.0190   19.1850  -10.8500 H   0  0  0  0  0  0  0  0  0  0  0  0
   -4.1600   20.7190  -11.4350 H   0  0  0  0  0  0  0  0  0  0  0  0
   -4.2290   20.1650  -13.6340 H   0  0  0  0  0  0  0  0  0  0  0  0
   -5.5970   19.1670  -13.1000 H   0  0  0  0  0  0  0  0  0  0  0  0
   -3.2800   18.0770  -14.2950 H   0  0  0  0  0  0  0  0  0  0  0  0
   -4.3880   17.1970  -13.1950 H   0  0  0  0  0  0  0  0  0  0  0  0
   -2.6530    9.3360  -13.7530 H   0  0  0  0  0  0  0  0  0  0  0  0
   -2.2530    7.6900  -14.4770 H   0  0  0  0  0  0  0  0  0  0  0  0
   -2.4900    7.9430  -12.6690 H   0  0  0  0  0  0  0  0  0  0  0  0
  1  2  1  0  0  0  0
  2  7  1  0  0  0  0
  3  2  2  0  0  0  0
  3  4  1  0  0  0  0
  4  5  2  0  0  0  0
  5  6  1  0  0  0  0
  5  8  1  0  0  0  0
  6 28  1  0  0  0  0
  7 29  1  0  0  0  0
  7  6  2  0  0  0  0
  8 12  1  0  0  0  0
  9  8  1  0  0  0  0
  9 31  1  0  0  0  0
  9 10  1  0  0  0  0
 10 32  1  1  0  0  0
 11 10  1  0  0  0  0
 11 33  1  0  0  0  0
 12 13  2  0  0  0  0
 12 11  1  0  0  0  0
 14 16  1  0  0  0  0
 14 10  1  0  0  0  0
 15 14  2  0  0  0  0
 16 35  1  0  0  0  0
 17 16  1  0  0  0  0
 17 18  1  0  0  0  0
 18 22  2  0  0  0  0
 19 18  1  0  0  0  0
 19 20  1  0  0  0  0
 20 21  2  0  0  0  0
 22 21  1  0  0  0  0
 23 39  1  0  0  0  0
 23 20  1  0  0  0  0
 23 38  1  0  0  0  0
 24 23  1  0  0  0  0
 25 43  1  0  0  0  0
 25 24  1  0  0  0  0
 25 19  1  0  0  0  0
 26  3  1  0  0  0  0
 26 46  1  0  0  0  0
 27  4  1  0  0  0  0
 30  9  1  0  0  0  0
 34 11  1  0  0  0  0
 36 17  1  0  0  0  0
 37 17  1  0  0  0  0
 40 24  1  0  0  0  0
 41 24  1  0  0  0  0
 42 25  1  0  0  0  0
 44 26  1  0  0  0  0
 45 26  1  0  0  0  0
M  END
>  <Pose>
1

>  <Score>
-7.71

$$$$
