
 OpenBabel03232203513D

 33 36  0  0  1  0  0  0  0  0999 V2000
    3.3970   11.2450  -12.6190 B   0  0  0  0  0  0  0  0  0  0  0  0
    1.7930   12.2750  -12.9010 C   0  0  0  0  0  0  0  0  0  0  0  0
    0.7200   11.6180  -13.4580 C   0  0  0  0  0  0  0  0  0  0  0  0
   -0.4250   12.3850  -13.6470 C   0  0  0  0  0  0  0  0  0  0  0  0
   -0.4860   13.7210  -13.3010 C   0  0  0  0  0  0  0  0  0  0  0  0
    0.6180   14.3520  -12.7400 C   0  0  0  0  0  0  0  0  0  0  0  0
    1.7500   13.6060  -12.5500 C   0  0  0  0  0  0  0  0  0  0  0  0
    0.7370   10.2470  -13.8270 N   0  0  0  0  0  0  0  0  0  0  0  0
   -0.1720    9.2140  -13.4830 C   0  0  0  0  0  0  0  0  0  0  0  0
   -1.2340    9.3940  -12.8600 O   0  0  0  0  0  0  0  0  0  0  0  0
    0.3080    7.8990  -13.9640 C   0  0  2  0  0  0  0  0  0  0  0  0
    0.6260    6.9500  -12.8610 C   0  0  1  0  0  0  0  0  0  0  0  0
    1.9480    6.5010  -13.1220 O   0  0  0  0  0  0  0  0  0  0  0  0
    2.5270    7.7900  -13.2480 C   0  0  1  0  0  0  0  0  0  0  0  0
    1.7200    8.2360  -14.4730 C   0  0  2  0  0  0  0  0  0  0  0  0
    1.7680    9.6950  -14.6530 C   0  0  0  0  0  0  0  0  0  0  0  0
    2.5400   10.3610  -15.3760 O   0  0  0  0  0  0  0  0  0  0  0  0
    2.0410    8.4280  -12.0060 C   0  0  0  0  0  0  0  0  0  0  0  0
    0.9340    7.7750  -11.6530 C   0  0  0  0  0  0  0  0  0  0  0  0
   -0.3160    5.8480  -12.6160 C   0  0  0  0  0  0  0  0  0  0  0  0
    0.2230    5.0280  -11.6070 O   0  0  0  0  0  0  0  0  0  0  0  0
   -1.2850   11.8890  -14.0850 H   0  0  0  0  0  0  0  0  0  0  0  0
   -1.3990   14.3100  -13.4590 H   0  0  0  0  0  0  0  0  0  0  0  0
    0.5370   15.4010  -12.4780 H   0  0  0  0  0  0  0  0  0  0  0  0
    2.6190   14.0690  -12.1170 H   0  0  0  0  0  0  0  0  0  0  0  0
   -0.3110    7.4760  -14.7630 H   0  0  0  0  0  0  0  0  0  0  0  0
    3.5880    7.7820  -13.3920 H   0  0  0  0  0  0  0  0  0  0  0  0
    2.0090    7.6380  -15.3340 H   0  0  0  0  0  0  0  0  0  0  0  0
    2.4380    9.2660  -11.4210 H   0  0  0  0  0  0  0  0  0  0  0  0
    0.3790    7.8170  -10.7270 H   0  0  0  0  0  0  0  0  0  0  0  0
   -0.4110    5.1710  -13.5060 H   0  0  0  0  0  0  0  0  0  0  0  0
   -1.3250    6.1910  -12.3610 H   0  0  0  0  0  0  0  0  0  0  0  0
   -0.4340    4.3050  -11.3820 H   0  0  0  0  0  0  0  0  0  0  0  0
  2  1  1  0  0  0  0
  2  7  1  0  0  0  0
  3  2  2  0  0  0  0
  4  3  1  0  0  0  0
  4  5  2  0  0  0  0
  5  6  1  0  0  0  0
  6  7  2  0  0  0  0
  6 24  1  0  0  0  0
  7 25  1  0  0  0  0
  8  9  1  0  0  0  0
  8  3  1  0  0  0  0
  9 10  2  0  0  0  0
 11 26  1  6  0  0  0
 11  9  1  0  0  0  0
 11 12  1  0  0  0  0
 12 20  1  1  0  0  0
 12 19  1  0  0  0  0
 13 12  1  0  0  0  0
 14 27  1  6  0  0  0
 14 13  1  0  0  0  0
 14 18  1  0  0  0  0
 15 28  1  6  0  0  0
 15 11  1  0  0  0  0
 15 14  1  0  0  0  0
 16 15  1  0  0  0  0
 16  8  1  0  0  0  0
 17 16  2  0  0  0  0
 18 19  2  0  0  0  0
 18 29  1  0  0  0  0
 19 30  1  0  0  0  0
 20 32  1  0  0  0  0
 20 21  1  0  0  0  0
 21 33  1  0  0  0  0
 22  4  1  0  0  0  0
 23  5  1  0  0  0  0
 31 20  1  0  0  0  0
M  END
>  <Pose>
1

>  <Score>
-5.21

$$$$
