
 OpenBabel03232203513D

 36 39  0  0  1  0  0  0  0  0999 V2000
   -2.8040   10.1830  -13.6170 B   0  0  0  0  0  0  0  0  0  0  0  0
   -2.2940    8.4050  -13.9780 C   0  0  0  0  0  0  0  0  0  0  0  0
   -0.9930    7.9690  -13.7960 C   0  0  0  0  0  0  0  0  0  0  0  0
   -0.7620    6.6340  -14.1040 C   0  0  0  0  0  0  0  0  0  0  0  0
   -1.7360    5.7800  -14.5570 C   0  0  0  0  0  0  0  0  0  0  0  0
   -3.0070    6.2280  -14.7300 C   0  0  0  0  0  0  0  0  0  0  0  0
   -3.2860    7.5370  -14.4400 C   0  0  0  0  0  0  0  0  0  0  0  0
    0.0390    8.8230  -13.3290 N   0  0  0  0  0  0  0  0  0  0  0  0
    0.0720   10.2970  -13.3860 C   0  0  0  0  0  0  0  0  0  0  0  0
    1.5060   10.5580  -13.4130 C   0  0  2  0  0  0  0  0  0  0  0  0
    2.1170   10.5120  -14.6770 O   0  0  0  0  0  0  0  0  0  0  0  0
    3.4500   10.6120  -14.1960 C   0  0  2  0  0  0  0  0  0  0  0  0
    3.4730    9.2980  -13.4020 C   0  0  1  0  0  0  0  0  0  0  0  0
    2.2080    9.4460  -12.6150 C   0  0  2  0  0  0  0  0  0  0  0  0
    1.2410    8.3660  -12.7190 C   0  0  0  0  0  0  0  0  0  0  0  0
    1.4160    7.1920  -12.3330 O   0  0  0  0  0  0  0  0  0  0  0  0
    3.3190    8.2250  -14.4350 C   0  0  0  0  0  0  0  0  0  0  0  0
    4.1540    7.3230  -14.5980 O   0  0  0  0  0  0  0  0  0  0  0  0
    2.1910    8.2440  -15.2450 O   0  0  0  0  0  0  0  0  0  0  0  0
    2.3450    7.9520  -16.6390 C   0  0  0  0  0  0  0  0  0  0  0  0
    3.3280   11.8000  -13.3010 C   0  0  0  0  0  0  0  0  0  0  0  0
    2.0350   11.8210  -12.9080 C   0  0  0  0  0  0  0  0  0  0  0  0
    0.2280    6.2170  -13.9880 H   0  0  0  0  0  0  0  0  0  0  0  0
   -1.5090    4.7470  -14.7850 H   0  0  0  0  0  0  0  0  0  0  0  0
   -3.7910    5.5630  -15.0890 H   0  0  0  0  0  0  0  0  0  0  0  0
   -4.2980    7.8890  -14.5780 H   0  0  0  0  0  0  0  0  0  0  0  0
   -0.4010   10.5770  -14.3470 H   0  0  0  0  0  0  0  0  0  0  0  0
   -0.4640   10.7610  -12.5510 H   0  0  0  0  0  0  0  0  0  0  0  0
    4.1890   10.6780  -14.9630 H   0  0  0  0  0  0  0  0  0  0  0  0
    4.3760    9.1870  -12.8150 H   0  0  0  0  0  0  0  0  0  0  0  0
    2.3810    9.7750  -11.5710 H   0  0  0  0  0  0  0  0  0  0  0  0
    1.3650    7.8700  -17.1340 H   0  0  0  0  0  0  0  0  0  0  0  0
    2.9030    7.0080  -16.7970 H   0  0  0  0  0  0  0  0  0  0  0  0
    2.8810    8.7960  -17.1440 H   0  0  0  0  0  0  0  0  0  0  0  0
    4.1240   12.4890  -13.0370 H   0  0  0  0  0  0  0  0  0  0  0  0
    1.5660   12.6170  -12.3510 H   0  0  0  0  0  0  0  0  0  0  0  0
  2  3  1  0  0  0  0
  2  1  1  0  0  0  0
  3  8  1  0  0  0  0
  4 23  1  0  0  0  0
  4  3  2  0  0  0  0
  5  4  1  0  0  0  0
  6  5  2  0  0  0  0
  6  7  1  0  0  0  0
  7  2  2  0  0  0  0
  8 15  1  0  0  0  0
  9  8  1  0  0  0  0
  9 28  1  0  0  0  0
 10 11  1  6  0  0  0
 10  9  1  0  0  0  0
 10 22  1  0  0  0  0
 10 14  1  0  0  0  0
 11 12  1  0  0  0  0
 12 29  1  6  0  0  0
 12 13  1  0  0  0  0
 12 21  1  0  0  0  0
 13 30  1  1  0  0  0
 13 14  1  0  0  0  0
 14 31  1  1  0  0  0
 15 14  1  0  0  0  0
 15 16  2  0  0  0  0
 17 13  1  0  0  0  0
 18 17  2  0  0  0  0
 19 17  1  0  0  0  0
 20 19  1  0  0  0  0
 21 35  1  0  0  0  0
 21 22  2  0  0  0  0
 22 36  1  0  0  0  0
 24  5  1  0  0  0  0
 25  6  1  0  0  0  0
 26  7  1  0  0  0  0
 27  9  1  0  0  0  0
 32 20  1  0  0  0  0
 33 20  1  0  0  0  0
 34 20  1  0  0  0  0
M  END
>  <Pose>
1

>  <Score>
-4.24

$$$$
