
 OpenBabel03232203513D

 35 38  0  0  0  0  0  0  0  0999 V2000
    3.0810   12.6820  -11.8180 B   0  0  0  0  0  0  0  0  0  0  0  0
    1.9560   14.1980  -12.0220 C   0  0  0  0  0  0  0  0  0  0  0  0
    0.8110   14.2740  -12.7720 C   0  0  0  0  0  0  0  0  0  0  0  0
    0.3440   15.5220  -12.6280 N   0  0  0  0  0  0  0  0  0  0  0  0
    1.1460   16.2000  -11.8300 N   0  0  0  0  0  0  0  0  0  0  0  0
    2.1690   15.4130  -11.4260 C   0  0  0  0  0  0  0  0  0  0  0  0
    3.2980   15.8130  -10.5110 C   0  0  0  0  0  0  0  0  0  0  0  0
   -0.8540   16.0280  -13.2560 C   0  0  0  0  0  0  0  0  0  0  0  0
   -1.4800   17.1260  -12.4410 C   0  0  0  0  0  0  0  0  0  0  0  0
   -0.9460   17.7580  -11.3800 N   0  0  0  0  0  0  0  0  0  0  0  0
   -1.8080   18.6720  -10.9290 N   0  0  0  0  0  0  0  0  0  0  0  0
   -2.9170   18.6420  -11.6960 C   0  0  0  0  0  0  0  0  0  0  0  0
   -2.6900   17.6860  -12.6160 N   0  0  0  0  0  0  0  0  0  0  0  0
   -3.9550   19.5090  -11.4140 C   0  0  0  0  0  0  0  0  0  0  0  0
   -3.9010   20.4100  -10.3700 C   0  0  0  0  0  0  0  0  0  0  0  0
   -5.0400   21.1290  -10.3190 N   0  0  0  0  0  0  0  0  0  0  0  0
   -5.8120   20.7060  -11.3020 N   0  0  0  0  0  0  0  0  0  0  0  0
   -5.1870   19.7130  -12.0000 C   0  0  0  0  0  0  0  0  0  0  0  0
   -5.3970   22.1790   -9.3790 C   0  0  0  0  0  0  0  0  0  0  0  0
   -2.7780   20.4080   -9.6300 N   0  0  0  0  0  0  0  0  0  0  0  0
   -1.7600   19.5520   -9.9130 C   0  0  0  0  0  0  0  0  0  0  0  0
    0.2330   13.1540  -13.5810 C   0  0  0  0  0  0  0  0  0  0  0  0
    4.2360   15.5530  -11.0210 H   0  0  0  0  0  0  0  0  0  0  0  0
    3.2550   15.2770   -9.5570 H   0  0  0  0  0  0  0  0  0  0  0  0
    3.2820   16.9160  -10.3950 H   0  0  0  0  0  0  0  0  0  0  0  0
   -1.5950   15.1930  -13.3970 H   0  0  0  0  0  0  0  0  0  0  0  0
   -0.6430   16.4300  -14.2600 H   0  0  0  0  0  0  0  0  0  0  0  0
   -5.5660   19.1800  -12.8470 H   0  0  0  0  0  0  0  0  0  0  0  0
   -5.1740   23.1940   -9.7840 H   0  0  0  0  0  0  0  0  0  0  0  0
   -6.4400   22.0900   -9.0230 H   0  0  0  0  0  0  0  0  0  0  0  0
   -4.7600   22.0830   -8.4550 H   0  0  0  0  0  0  0  0  0  0  0  0
   -0.8460   19.5510   -9.3100 H   0  0  0  0  0  0  0  0  0  0  0  0
   -0.5600   12.6980  -12.9790 H   0  0  0  0  0  0  0  0  0  0  0  0
    1.0170   12.4010  -13.7980 H   0  0  0  0  0  0  0  0  0  0  0  0
   -0.1190   13.5150  -14.5800 H   0  0  0  0  0  0  0  0  0  0  0  0
  2  1  1  0  0  0  0
  2  6  1  0  0  0  0
  3  4  1  0  0  0  0
  3  2  2  0  0  0  0
  4  5  1  0  0  0  0
  5  6  2  0  0  0  0
  6  7  1  0  0  0  0
  7 25  1  0  0  0  0
  7 24  1  0  0  0  0
  8  4  1  0  0  0  0
  8  9  1  0  0  0  0
  9 10  2  0  0  0  0
 10 11  1  0  0  0  0
 11 21  1  0  0  0  0
 12 14  1  0  0  0  0
 12 11  1  0  0  0  0
 13  9  1  0  0  0  0
 13 12  2  0  0  0  0
 14 15  2  0  0  0  0
 15 16  1  0  0  0  0
 15 20  1  0  0  0  0
 16 19  1  0  0  0  0
 17 16  1  0  0  0  0
 18 14  1  0  0  0  0
 18 17  2  0  0  0  0
 19 30  1  0  0  0  0
 19 31  1  0  0  0  0
 21 20  2  0  0  0  0
 21 32  1  0  0  0  0
 22 33  1  0  0  0  0
 22  3  1  0  0  0  0
 23  7  1  0  0  0  0
 26  8  1  0  0  0  0
 27  8  1  0  0  0  0
 28 18  1  0  0  0  0
 29 19  1  0  0  0  0
 34 22  1  0  0  0  0
 35 22  1  0  0  0  0
M  END
>  <Pose>
1

>  <Score>
-6.79

$$$$
