
 OpenBabel03232203513D

 48 51  0  0  0  0  0  0  0  0999 V2000
   -9.4760   11.5070  -16.6220 B   0  0  0  0  0  0  0  0  0  0  0  0
   -8.1880   10.9520  -15.3320 C   0  0  0  0  0  0  0  0  0  0  0  0
   -7.3950    9.8470  -15.4450 C   0  0  0  0  0  0  0  0  0  0  0  0
   -6.4690    9.4670  -14.4970 C   0  0  0  0  0  0  0  0  0  0  0  0
   -6.3550   10.2780  -13.3640 C   0  0  0  0  0  0  0  0  0  0  0  0
   -7.1240   11.3960  -13.1980 C   0  0  0  0  0  0  0  0  0  0  0  0
   -8.0410   11.7300  -14.1880 C   0  0  0  0  0  0  0  0  0  0  0  0
   -5.4310    9.9210  -12.4010 O   0  0  0  0  0  0  0  0  0  0  0  0
   -5.0020   10.8580  -11.4480 C   0  0  0  0  0  0  0  0  0  0  0  0
   -5.6240    8.2940  -14.6450 C   0  0  0  0  0  0  0  0  0  0  0  0
   -4.3440    8.2280  -14.4070 C   0  0  0  0  0  0  0  0  0  0  0  0
   -3.5720    9.2900  -13.9620 O   0  0  0  0  0  0  0  0  0  0  0  0
   -2.2470    8.9300  -13.7970 C   0  0  0  0  0  0  0  0  0  0  0  0
   -2.0620    7.6060  -14.1230 C   0  0  0  0  0  0  0  0  0  0  0  0
   -0.8080    7.0390  -14.0300 C   0  0  0  0  0  0  0  0  0  0  0  0
    0.2550    7.8100  -13.6090 C   0  0  0  0  0  0  0  0  0  0  0  0
    0.0380    9.1630  -13.2810 C   0  0  0  0  0  0  0  0  0  0  0  0
   -1.1900    9.7430  -13.3640 C   0  0  0  0  0  0  0  0  0  0  0  0
   -1.4740   11.1110  -13.0240 C   0  0  0  0  0  0  0  0  0  0  0  0
   -1.1720   12.1870  -13.8760 N   0  0  0  0  0  4  0  0  0  0  0  0
   -2.0480   13.3230  -13.7850 C   0  0  0  0  0  0  0  0  0  0  0  0
   -1.7250   14.2610  -12.6480 C   0  0  0  0  0  0  0  0  0  0  0  0
   -0.7160   13.7980  -11.8160 O   0  0  0  0  0  0  0  0  0  0  0  0
    0.4060   13.6270  -12.6200 C   0  0  0  0  0  0  0  0  0  0  0  0
    0.2220   12.6450  -13.7300 C   0  0  0  0  0  0  0  0  0  0  0  0
    1.2080    9.8210  -12.8700 O   0  0  0  0  0  0  0  0  0  0  0  0
   -3.3880    7.1220  -14.5200 C   0  0  0  0  0  0  0  0  0  0  0  0
   -3.6730    5.9630  -14.8940 O   0  0  0  0  0  0  0  0  0  0  0  0
   -7.5120    9.2390  -16.3460 H   0  0  0  0  0  0  0  0  0  0  0  0
   -7.0750   12.0620  -12.3290 H   0  0  0  0  0  0  0  0  0  0  0  0
   -8.6650   12.6270  -14.0660 H   0  0  0  0  0  0  0  0  0  0  0  0
   -3.9870   10.5540  -11.0440 H   0  0  0  0  0  0  0  0  0  0  0  0
   -5.6980   10.8380  -10.5720 H   0  0  0  0  0  0  0  0  0  0  0  0
   -4.8460   11.8770  -11.8610 H   0  0  0  0  0  0  0  0  0  0  0  0
   -6.1000    7.3630  -14.9940 H   0  0  0  0  0  0  0  0  0  0  0  0
   -0.6730    5.9900  -14.2890 H   0  0  0  0  0  0  0  0  0  0  0  0
    1.2560    7.4230  -13.5160 H   0  0  0  0  0  0  0  0  0  0  0  0
   -2.5730   11.2570  -12.7300 H   0  0  0  0  0  0  0  0  0  0  0  0
   -0.9820   11.3880  -12.0140 H   0  0  0  0  0  0  0  0  0  0  0  0
   -1.1930   11.8570  -14.8630 H   0  0  0  0  0  0  0  0  0  0  0  0
   -1.8740   13.9150  -14.7340 H   0  0  0  0  0  0  0  0  0  0  0  0
   -3.0980   13.0310  -13.7990 H   0  0  0  0  0  0  0  0  0  0  0  0
   -1.3880   15.2760  -13.0080 H   0  0  0  0  0  0  0  0  0  0  0  0
   -2.6450   14.4660  -12.0640 H   0  0  0  0  0  0  0  0  0  0  0  0
    1.2060   13.1960  -11.9460 H   0  0  0  0  0  0  0  0  0  0  0  0
    0.7810   14.6320  -12.9680 H   0  0  0  0  0  0  0  0  0  0  0  0
    0.8790   11.7550  -13.6440 H   0  0  0  0  0  0  0  0  0  0  0  0
    0.5290   13.1440  -14.6730 H   0  0  0  0  0  0  0  0  0  0  0  0
  1  2  1  0  0  0  0
  2  7  1  0  0  0  0
  3  2  2  0  0  0  0
  3  4  1  0  0  0  0
  4  5  2  0  0  0  0
  5  6  1  0  0  0  0
  5  8  1  0  0  0  0
  6 30  1  0  0  0  0
  7 31  1  0  0  0  0
  7  6  2  0  0  0  0
  8  9  1  0  0  0  0
  9 32  1  0  0  0  0
  9 33  1  0  0  0  0
 10  4  1  0  0  0  0
 10 11  2  0  0  0  0
 11 12  1  0  0  0  0
 12 13  1  0  0  0  0
 13 18  1  0  0  0  0
 14 15  1  0  0  0  0
 14 13  2  0  0  0  0
 15 16  2  0  0  0  0
 16 37  1  0  0  0  0
 16 17  1  0  0  0  0
 17 26  1  0  0  0  0
 18 17  2  0  0  0  0
 18 19  1  0  0  0  0
 19 38  1  0  0  0  0
 19 39  1  0  0  0  0
 20 21  1  0  0  0  0
 20 25  1  0  0  0  0
 20 19  1  0  0  0  0
 21 22  1  0  0  0  0
 22 44  1  0  0  0  0
 22 23  1  0  0  0  0
 24 45  1  0  0  0  0
 24 23  1  0  0  0  0
 25 47  1  0  0  0  0
 25 24  1  0  0  0  0
 27 11  1  0  0  0  0
 27 14  1  0  0  0  0
 28 27  2  0  0  0  0
 29  3  1  0  0  0  0
 34  9  1  0  0  0  0
 35 10  1  0  0  0  0
 36 15  1  0  0  0  0
 40 20  1  0  0  0  0
 41 21  1  0  0  0  0
 42 21  1  0  0  0  0
 43 22  1  0  0  0  0
 46 24  1  0  0  0  0
 48 25  1  0  0  0  0
M  END
>  <Pose>
1

>  <Score>
-5.05

$$$$
