
 OpenBabel03232203513D

 45 48  0  0  0  0  0  0  0  0999 V2000
    1.7410    6.0780  -12.1930 B   0  0  0  0  0  0  0  0  0  0  0  0
    2.0000    7.6400  -13.2550 C   0  0  0  0  0  0  0  0  0  0  0  0
    1.1860    8.7210  -13.0790 C   0  0  0  0  0  0  0  0  0  0  0  0
    1.2480    9.9000  -13.7580 C   0  0  0  0  0  0  0  0  0  0  0  0
    2.2840    9.9260  -14.7200 C   0  0  0  0  0  0  0  0  0  0  0  0
    3.1280    8.8630  -14.9310 C   0  0  0  0  0  0  0  0  0  0  0  0
    2.9900    7.6990  -14.1910 C   0  0  0  0  0  0  0  0  0  0  0  0
    2.4560   11.0700  -15.4800 O   0  0  0  0  0  0  0  0  0  0  0  0
    3.6820   11.5130  -15.9720 C   0  0  0  0  0  0  0  0  0  0  0  0
    0.4340   11.0730  -13.6080 C   0  0  0  0  0  0  0  0  0  0  0  0
    0.5160   12.2840  -13.1020 N   0  0  0  0  0  0  0  0  0  0  0  0
   -0.6640   12.9590  -13.2800 C   0  0  0  0  0  0  0  0  0  0  0  0
   -1.4920   12.1120  -13.9320 N   0  0  0  0  0  0  0  0  0  0  0  0
   -0.8640   11.0040  -14.1330 N   0  0  0  0  0  0  0  0  0  0  0  0
   -0.5630   14.1850  -12.7620 N   0  0  0  0  0  0  0  0  0  0  0  0
    0.6760   14.2990  -12.2580 C   0  0  0  0  0  0  0  0  0  0  0  0
    1.3780   13.1160  -12.4630 C   0  0  0  0  0  0  0  0  0  0  0  0
    2.6320   12.9560  -12.0880 N   0  0  0  0  0  0  0  0  0  0  0  0
    3.2300   14.0210  -11.4660 C   0  0  0  0  0  0  0  0  0  0  0  0
    4.4210   13.9770  -11.0650 O   0  0  0  0  0  0  0  0  0  0  0  0
    2.5790   15.1820  -11.2470 N   0  0  0  0  0  0  0  0  0  0  0  0
    1.3180   15.3470  -11.6280 C   0  0  0  0  0  0  0  0  0  0  0  0
    0.6580   16.4030  -11.4520 O   0  0  0  0  0  0  0  0  0  0  0  0
    3.5010   11.8380  -12.2980 C   0  0  0  0  0  0  0  0  0  0  0  0
   -1.5690   15.2060  -12.7340 C   0  0  0  0  0  0  0  0  0  0  0  0
   -1.2460   16.2610  -13.7710 C   0  0  0  0  0  0  0  0  0  0  0  0
   -1.5420   17.4990  -13.2360 O   0  0  0  0  0  0  0  0  0  0  0  0
   -2.9010   17.8220  -13.3960 C   0  0  0  0  0  0  0  0  0  0  0  0
    0.3940    8.6660  -12.3460 H   0  0  0  0  0  0  0  0  0  0  0  0
    3.9220    8.8620  -15.6570 H   0  0  0  0  0  0  0  0  0  0  0  0
    3.6430    6.8590  -14.3450 H   0  0  0  0  0  0  0  0  0  0  0  0
    4.3450   10.6920  -16.3150 H   0  0  0  0  0  0  0  0  0  0  0  0
    3.5690   12.1940  -16.8550 H   0  0  0  0  0  0  0  0  0  0  0  0
    4.1900   12.1120  -15.1840 H   0  0  0  0  0  0  0  0  0  0  0  0
    3.0470   15.9820  -10.7710 H   0  0  0  0  0  0  0  0  0  0  0  0
    3.4320   11.4160  -13.3110 H   0  0  0  0  0  0  0  0  0  0  0  0
    4.5750   12.2080  -12.1550 H   0  0  0  0  0  0  0  0  0  0  0  0
    3.3700   11.0770  -11.5370 H   0  0  0  0  0  0  0  0  0  0  0  0
   -1.7400   15.6290  -11.7280 H   0  0  0  0  0  0  0  0  0  0  0  0
   -2.5300   14.7280  -13.0880 H   0  0  0  0  0  0  0  0  0  0  0  0
   -1.8860   16.1420  -14.6810 H   0  0  0  0  0  0  0  0  0  0  0  0
   -0.1730   16.1560  -14.0260 H   0  0  0  0  0  0  0  0  0  0  0  0
   -3.1200   17.8310  -14.4860 H   0  0  0  0  0  0  0  0  0  0  0  0
   -3.0910   18.8400  -13.0300 H   0  0  0  0  0  0  0  0  0  0  0  0
   -3.5590   17.1120  -12.8930 H   0  0  0  0  0  0  0  0  0  0  0  0
  2  3  1  0  0  0  0
  2  1  1  0  0  0  0
  3 29  1  0  0  0  0
  4 10  1  0  0  0  0
  4  3  2  0  0  0  0
  5  4  1  0  0  0  0
  6  5  2  0  0  0  0
  6  7  1  0  0  0  0
  7  2  2  0  0  0  0
  8  5  1  0  0  0  0
  9  8  1  0  0  0  0
  9 34  1  0  0  0  0
 10 11  1  0  0  0  0
 11 17  1  0  0  0  0
 12 11  1  0  0  0  0
 12 15  1  0  0  0  0
 13 12  2  0  0  0  0
 14 13  1  0  0  0  0
 14 10  2  0  0  0  0
 15 25  1  0  0  0  0
 15 16  1  0  0  0  0
 16 22  1  0  0  0  0
 17 16  2  0  0  0  0
 17 18  1  0  0  0  0
 18 19  1  0  0  0  0
 19 21  1  0  0  0  0
 19 20  2  0  0  0  0
 21 35  1  0  0  0  0
 22 23  2  0  0  0  0
 22 21  1  0  0  0  0
 24 37  1  0  0  0  0
 24 18  1  0  0  0  0
 24 38  1  0  0  0  0
 25 39  1  0  0  0  0
 26 27  1  0  0  0  0
 26 25  1  0  0  0  0
 28 27  1  0  0  0  0
 28 44  1  0  0  0  0
 28 45  1  0  0  0  0
 30  6  1  0  0  0  0
 31  7  1  0  0  0  0
 32  9  1  0  0  0  0
 33  9  1  0  0  0  0
 36 24  1  0  0  0  0
 40 25  1  0  0  0  0
 41 26  1  0  0  0  0
 42 26  1  0  0  0  0
 43 28  1  0  0  0  0
M  END
>  <Pose>
1

>  <Score>
-4.96

$$$$
