
 OpenBabel03232203513D

 49 52  0  0  0  0  0  0  0  0999 V2000
    0.9500    7.3870  -11.9310 B   0  0  0  0  0  0  0  0  0  0  0  0
    2.0080    8.5960  -12.9350 C   0  0  0  0  0  0  0  0  0  0  0  0
    2.2610    9.8570  -12.4240 C   0  0  0  0  0  0  0  0  0  0  0  0
    3.0240   10.7850  -13.1070 C   0  0  0  0  0  0  0  0  0  0  0  0
    3.5420   10.4160  -14.3400 C   0  0  0  0  0  0  0  0  0  0  0  0
    3.2870    9.1620  -14.8420 C   0  0  0  0  0  0  0  0  0  0  0  0
    2.5290    8.2250  -14.1750 C   0  0  0  0  0  0  0  0  0  0  0  0
    3.3060   12.1180  -12.5960 C   0  0  0  0  0  0  0  0  0  0  0  0
    3.7590   12.9970  -13.3750 O   0  0  0  0  0  0  0  0  0  0  0  0
    3.0960   12.4880  -11.2480 N   0  0  0  0  0  0  0  0  0  0  0  0
    1.8510   13.0730  -10.7990 C   0  0  0  0  0  0  0  0  0  0  0  0
    1.5130   14.3000  -11.5680 C   0  0  0  0  0  0  0  0  0  0  0  0
    2.4710   15.0210  -11.9400 O   0  0  0  0  0  0  0  0  0  0  0  0
    0.2010   14.6810  -11.8900 N   0  0  0  0  0  0  0  0  0  0  0  0
   -0.2980   14.6740  -13.2430 C   0  0  0  0  0  0  0  0  0  0  0  0
   -0.6110   16.1100  -13.6020 C   0  0  0  0  0  0  0  0  0  0  0  0
   -1.4740   16.7270  -12.5280 C   0  0  0  0  0  0  0  0  0  0  0  0
   -0.7350   17.8200  -11.9320 N   0  0  0  0  0  0  0  0  0  0  0  0
   -1.4610   18.5880  -10.9830 C   0  0  0  0  0  0  0  0  0  0  0  0
   -2.8870   18.8700  -11.2880 C   0  0  0  0  0  0  0  0  0  0  0  0
   -3.3420   18.3890  -12.6100 C   0  0  0  0  0  0  0  0  0  0  0  0
   -4.3680   18.7740  -13.4290 N   0  0  0  0  0  0  0  0  0  0  0  0
   -4.3130   17.9830  -14.5080 C   0  0  0  0  0  0  0  0  0  0  0  0
   -3.2860   17.1270  -14.3770 N   0  0  0  0  0  0  0  0  0  0  0  0
   -2.6540   17.3520  -13.1980 C   0  0  0  0  0  0  0  0  0  0  0  0
   -1.9350   15.7670  -11.4790 C   0  0  0  0  0  0  0  0  0  0  0  0
   -0.7070   15.0990  -10.8530 C   0  0  0  0  0  0  0  0  0  0  0  0
    1.8460   10.1010  -11.4780 H   0  0  0  0  0  0  0  0  0  0  0  0
    4.1520   11.0850  -14.9430 H   0  0  0  0  0  0  0  0  0  0  0  0
    3.6840    8.8550  -15.8050 H   0  0  0  0  0  0  0  0  0  0  0  0
    2.3120    7.2460  -14.5340 H   0  0  0  0  0  0  0  0  0  0  0  0
    3.8600   12.3340  -10.5610 H   0  0  0  0  0  0  0  0  0  0  0  0
    1.9200   13.3800   -9.7350 H   0  0  0  0  0  0  0  0  0  0  0  0
    1.0780   12.2860  -10.8930 H   0  0  0  0  0  0  0  0  0  0  0  0
   -1.2410   14.0740  -13.3120 H   0  0  0  0  0  0  0  0  0  0  0  0
    0.4010   14.2070  -13.9590 H   0  0  0  0  0  0  0  0  0  0  0  0
   -1.0880   16.1890  -14.6020 H   0  0  0  0  0  0  0  0  0  0  0  0
    0.3860   16.6260  -13.6620 H   0  0  0  0  0  0  0  0  0  0  0  0
    0.1120   17.4190  -11.4490 H   0  0  0  0  0  0  0  0  0  0  0  0
   -0.9370   19.5860  -10.9080 H   0  0  0  0  0  0  0  0  0  0  0  0
   -1.3750   18.1790   -9.9400 H   0  0  0  0  0  0  0  0  0  0  0  0
   -3.1290   19.9730  -11.2390 H   0  0  0  0  0  0  0  0  0  0  0  0
   -3.5740   18.4320  -10.5090 H   0  0  0  0  0  0  0  0  0  0  0  0
   -5.0500   19.5550  -13.2060 H   0  0  0  0  0  0  0  0  0  0  0  0
   -4.9840   18.0260  -15.3500 H   0  0  0  0  0  0  0  0  0  0  0  0
   -2.6670   15.0430  -11.8350 H   0  0  0  0  0  0  0  0  0  0  0  0
   -2.4040   16.3510  -10.6670 H   0  0  0  0  0  0  0  0  0  0  0  0
   -1.0090   14.2070  -10.2650 H   0  0  0  0  0  0  0  0  0  0  0  0
   -0.2750   15.8240  -10.1580 H   0  0  0  0  0  0  0  0  0  0  0  0
  2  3  1  0  0  0  0
  2  1  1  0  0  0  0
  3 28  1  0  0  0  0
  4  8  1  0  0  0  0
  4  3  2  0  0  0  0
  5  4  1  0  0  0  0
  6  5  2  0  0  0  0
  6  7  1  0  0  0  0
  7  2  2  0  0  0  0
  8 10  1  0  0  0  0
  9  8  2  0  0  0  0
 10 11  1  0  0  0  0
 10 32  1  0  0  0  0
 11 33  1  0  0  0  0
 12 11  1  0  0  0  0
 13 12  2  0  0  0  0
 14 12  1  0  0  0  0
 14 27  1  0  0  0  0
 15 14  1  0  0  0  0
 16 15  1  0  0  0  0
 16 17  1  0  0  0  0
 17 18  1  0  0  0  0
 17 26  1  0  0  0  0
 18 39  1  0  0  0  0
 18 19  1  0  0  0  0
 19 40  1  0  0  0  0
 19 41  1  0  0  0  0
 20 42  1  0  0  0  0
 20 19  1  0  0  0  0
 20 43  1  0  0  0  0
 21 20  1  0  0  0  0
 22 44  1  0  0  0  0
 22 21  1  0  0  0  0
 23 24  2  0  0  0  0
 23 22  1  0  0  0  0
 24 25  1  0  0  0  0
 25 21  2  0  0  0  0
 25 17  1  0  0  0  0
 26 27  1  0  0  0  0
 26 47  1  0  0  0  0
 27 48  1  0  0  0  0
 27 49  1  0  0  0  0
 29  5  1  0  0  0  0
 30  6  1  0  0  0  0
 31  7  1  0  0  0  0
 34 11  1  0  0  0  0
 35 15  1  0  0  0  0
 36 15  1  0  0  0  0
 37 16  1  0  0  0  0
 38 16  1  0  0  0  0
 45 23  1  0  0  0  0
 46 26  1  0  0  0  0
M  END
>  <Pose>
1

>  <Score>
-7.06

$$$$
