
 OpenBabel03232203513D

 48 51  0  0  1  0  0  0  0  0999 V2000
    5.3680    4.2690  -13.2300 B   0  0  0  0  0  0  0  0  0  0  0  0
    4.0500    5.6540  -13.1480 C   0  0  0  0  0  0  0  0  0  0  0  0
    4.3220    6.8930  -13.6600 C   0  0  0  0  0  0  0  0  0  0  0  0
    3.3710    7.9050  -13.6050 C   0  0  0  0  0  0  0  0  0  0  0  0
    2.1710    7.6260  -13.0290 C   0  0  0  0  0  0  0  0  0  0  0  0
    1.9060    6.3670  -12.5130 C   0  0  0  0  0  0  0  0  0  0  0  0
    2.8470    5.3680  -12.5690 C   0  0  0  0  0  0  0  0  0  0  0  0
    3.6670    9.2210  -14.1450 C   0  0  0  0  0  0  0  0  0  0  0  0
    3.6760    9.3680  -15.4230 O   0  0  0  0  0  0  0  0  0  0  0  0
    3.9400   10.3290  -13.3180 N   0  0  0  0  0  0  0  0  0  0  0  0
    3.1870   11.5460  -13.5580 C   0  0  2  0  0  0  0  0  0  0  0  0
    3.0640   12.3810  -12.2980 C   0  0  0  0  0  0  0  0  0  0  0  0
    1.8660   13.1610  -12.5430 N   0  0  0  0  0  0  0  0  0  0  0  0
    1.1820   12.7020  -13.7350 C   0  0  1  0  0  0  0  0  0  0  0  0
    1.7460   11.2840  -13.8910 C   0  0  0  0  0  0  0  0  0  0  0  0
   -0.2560   12.6880  -13.4700 C   0  0  0  0  0  0  0  0  0  0  0  0
   -0.9420   11.6750  -13.6690 O   0  0  0  0  0  0  0  0  0  0  0  0
   -0.8510   13.8780  -12.9760 N   0  0  0  0  0  0  0  0  0  0  0  0
   -0.0500   14.8120  -12.2190 C   0  0  1  0  0  0  0  0  0  0  0  0
    1.2710   14.2610  -11.8390 C   0  0  0  0  0  0  0  0  0  0  0  0
    1.9010   14.7620  -10.8710 O   0  0  0  0  0  0  0  0  0  0  0  0
    0.0710   16.1590  -12.9000 C   0  0  0  0  0  0  0  0  0  0  0  0
   -1.1450   16.9810  -12.7810 C   0  0  0  0  0  0  0  0  0  0  0  0
   -2.0930   16.9550  -13.7880 C   0  0  0  0  0  0  0  0  0  0  0  0
   -3.2320   17.7200  -13.6840 C   0  0  0  0  0  0  0  0  0  0  0  0
   -3.4850   18.5370  -12.5990 C   0  0  0  0  0  0  0  0  0  0  0  0
   -2.5420   18.5660  -11.5940 C   0  0  0  0  0  0  0  0  0  0  0  0
   -1.3930   17.8040  -11.6810 C   0  0  0  0  0  0  0  0  0  0  0  0
    5.2770    7.1460  -14.1270 H   0  0  0  0  0  0  0  0  0  0  0  0
    1.4050    8.4010  -12.9680 H   0  0  0  0  0  0  0  0  0  0  0  0
    0.9550    6.1440  -12.0570 H   0  0  0  0  0  0  0  0  0  0  0  0
    2.6670    4.3690  -12.1720 H   0  0  0  0  0  0  0  0  0  0  0  0
    4.6480   10.2500  -12.5750 H   0  0  0  0  0  0  0  0  0  0  0  0
    3.6320   12.1770  -14.3250 H   0  0  0  0  0  0  0  0  0  0  0  0
    2.9110   11.7570  -11.3910 H   0  0  0  0  0  0  0  0  0  0  0  0
    3.9510   13.0350  -12.1490 H   0  0  0  0  0  0  0  0  0  0  0  0
    1.4260   13.3080  -14.6320 H   0  0  0  0  0  0  0  0  0  0  0  0
    1.5740   11.0090  -14.9430 H   0  0  0  0  0  0  0  0  0  0  0  0
    1.2300   10.6490  -13.1620 H   0  0  0  0  0  0  0  0  0  0  0  0
   -1.8570   14.1110  -13.1360 H   0  0  0  0  0  0  0  0  0  0  0  0
   -0.6470   15.0160  -11.2790 H   0  0  0  0  0  0  0  0  0  0  0  0
    0.9510   16.6820  -12.4800 H   0  0  0  0  0  0  0  0  0  0  0  0
    0.2450   15.9650  -13.9700 H   0  0  0  0  0  0  0  0  0  0  0  0
   -1.9890   16.3480  -14.6800 H   0  0  0  0  0  0  0  0  0  0  0  0
   -3.9780   17.7040  -14.4680 H   0  0  0  0  0  0  0  0  0  0  0  0
   -4.4020   19.1300  -12.5540 H   0  0  0  0  0  0  0  0  0  0  0  0
   -2.7420   19.2110  -10.7370 H   0  0  0  0  0  0  0  0  0  0  0  0
   -0.6720   17.8500  -10.8740 H   0  0  0  0  0  0  0  0  0  0  0  0
  1  2  1  0  0  0  0
  2  7  1  0  0  0  0
  3  4  1  0  0  0  0
  3  2  2  0  0  0  0
  4  5  2  0  0  0  0
  5 30  1  0  0  0  0
  5  6  1  0  0  0  0
  6 31  1  0  0  0  0
  7  6  2  0  0  0  0
  7 32  1  0  0  0  0
  8  4  1  0  0  0  0
  8 10  1  0  0  0  0
  9  8  2  0  0  0  0
 10 33  1  0  0  0  0
 11 34  1  6  0  0  0
 11 10  1  0  0  0  0
 11 12  1  0  0  0  0
 12 36  1  0  0  0  0
 12 35  1  0  0  0  0
 13 12  1  0  0  0  0
 13 20  1  0  0  0  0
 14 37  1  6  0  0  0
 14 16  1  0  0  0  0
 14 13  1  0  0  0  0
 15 14  1  0  0  0  0
 15 11  1  0  0  0  0
 15 39  1  0  0  0  0
 16 18  1  0  0  0  0
 17 16  2  0  0  0  0
 18 19  1  0  0  0  0
 19 20  1  0  0  0  0
 19 41  1  1  0  0  0
 20 21  2  0  0  0  0
 22 23  1  0  0  0  0
 22 42  1  0  0  0  0
 22 19  1  0  0  0  0
 23 28  1  0  0  0  0
 24 25  1  0  0  0  0
 24 23  2  0  0  0  0
 25 26  2  0  0  0  0
 26 46  1  0  0  0  0
 26 27  1  0  0  0  0
 27 47  1  0  0  0  0
 28 27  2  0  0  0  0
 28 48  1  0  0  0  0
 29  3  1  0  0  0  0
 38 15  1  0  0  0  0
 40 18  1  0  0  0  0
 43 22  1  0  0  0  0
 44 24  1  0  0  0  0
 45 25  1  0  0  0  0
M  END
>  <Pose>
1

>  <Score>
-6.72

$$$$
