
 OpenBabel03232203513D

 42 45  0  0  1  0  0  0  0  0999 V2000
   -4.8850   20.4690  -10.3810 B   0  0  0  0  0  0  0  0  0  0  0  0
   -3.8560   19.3080  -11.4790 C   0  0  0  0  0  0  0  0  0  0  0  0
   -2.6500   18.7890  -11.0770 C   0  0  0  0  0  0  0  0  0  0  0  0
   -1.8960   17.9670  -11.8790 C   0  0  0  0  0  0  0  0  0  0  0  0
   -2.3610   17.6470  -13.1290 C   0  0  0  0  0  0  0  0  0  0  0  0
   -3.5760   18.1500  -13.5760 C   0  0  0  0  0  0  0  0  0  0  0  0
   -4.3010   18.9660  -12.7530 C   0  0  0  0  0  0  0  0  0  0  0  0
   -0.5700   17.4150  -11.4050 C   0  0  0  0  0  0  0  0  0  0  0  0
   -0.1610   18.0370  -10.3770 O   0  0  0  0  0  0  0  0  0  0  0  0
    0.0050   16.3750  -12.0930 N   0  0  0  0  0  0  0  0  0  0  0  0
    0.5600   15.3650  -12.7530 C   0  0  2  0  0  0  0  0  0  0  0  0
   -0.2690   14.0310  -12.6570 C   0  0  0  0  0  0  0  0  0  0  0  0
    0.6410   13.0390  -13.1180 N   0  0  0  0  0  0  0  0  0  0  0  0
    2.0000   13.5460  -12.9990 C   0  0  1  0  0  0  0  0  0  0  0  0
    1.8770   14.7620  -12.1760 C   0  0  0  0  0  0  0  0  0  0  0  0
    2.8980   12.4860  -12.5130 C   0  0  0  0  0  0  0  0  0  0  0  0
    3.7820   12.7660  -11.6850 O   0  0  0  0  0  0  0  0  0  0  0  0
    2.7580   11.1610  -12.9830 N   0  0  0  0  0  0  0  0  0  0  0  0
    1.4480   10.6630  -13.3390 C   0  0  2  0  0  0  0  0  0  0  0  0
    1.6790    9.6860  -14.4740 C   0  0  0  0  0  0  0  0  0  0  0  0
    3.1580    9.6040  -14.6170 C   0  0  0  0  0  0  0  0  0  0  0  0
    3.6680   10.0480  -13.2370 C   0  0  0  0  0  0  0  0  0  0  0  0
    0.4920   11.7230  -13.6400 C   0  0  0  0  0  0  0  0  0  0  0  0
   -0.5140   11.4810  -14.3940 O   0  0  0  0  0  0  0  0  0  0  0  0
   -2.2600   19.0210  -10.0940 H   0  0  0  0  0  0  0  0  0  0  0  0
   -1.8230   17.0200  -13.8060 H   0  0  0  0  0  0  0  0  0  0  0  0
   -3.9200   17.8750  -14.5800 H   0  0  0  0  0  0  0  0  0  0  0  0
   -5.2590   19.3710  -13.0830 H   0  0  0  0  0  0  0  0  0  0  0  0
   -0.1240   15.5880  -10.9700 H   0  0  0  0  0  0  0  0  0  0  0  0
    0.7740   15.3870  -13.8590 H   0  0  0  0  0  0  0  0  0  0  0  0
   -0.5660   13.9640  -11.6130 H   0  0  0  0  0  0  0  0  0  0  0  0
   -1.1600   14.1730  -13.2880 H   0  0  0  0  0  0  0  0  0  0  0  0
    2.3880   13.8420  -14.0070 H   0  0  0  0  0  0  0  0  0  0  0  0
    2.6860   15.5060  -12.2980 H   0  0  0  0  0  0  0  0  0  0  0  0
    1.6620   14.5690  -11.1140 H   0  0  0  0  0  0  0  0  0  0  0  0
    1.0240   10.0240  -12.5040 H   0  0  0  0  0  0  0  0  0  0  0  0
    1.1910   10.0840  -15.4160 H   0  0  0  0  0  0  0  0  0  0  0  0
    1.2890    8.6730  -14.2630 H   0  0  0  0  0  0  0  0  0  0  0  0
    3.4760   10.3360  -15.3970 H   0  0  0  0  0  0  0  0  0  0  0  0
    3.5370    8.5940  -14.8770 H   0  0  0  0  0  0  0  0  0  0  0  0
    3.5560    9.2260  -12.5350 H   0  0  0  0  0  0  0  0  0  0  0  0
    4.7100   10.3260  -13.3500 H   0  0  0  0  0  0  0  0  0  0  0  0
  2  3  1  0  0  0  0
  2  1  1  0  0  0  0
  3 25  1  0  0  0  0
  4  8  1  0  0  0  0
  4  3  2  0  0  0  0
  5  4  1  0  0  0  0
  6  5  2  0  0  0  0
  6  7  1  0  0  0  0
  7  2  2  0  0  0  0
  8  9  2  0  0  0  0
 10  8  1  0  0  0  0
 10 29  1  0  0  0  0
 11 30  1  6  0  0  0
 11 12  1  0  0  0  0
 11 15  1  0  0  0  0
 11 10  1  0  0  0  0
 12 31  1  0  0  0  0
 13 14  1  0  0  0  0
 13 12  1  0  0  0  0
 14 33  1  6  0  0  0
 14 16  1  0  0  0  0
 14 15  1  0  0  0  0
 15 35  1  0  0  0  0
 16 17  2  0  0  0  0
 18 16  1  0  0  0  0
 19 18  1  0  0  0  0
 19 36  1  1  0  0  0
 20 38  1  0  0  0  0
 20 19  1  0  0  0  0
 21 20  1  0  0  0  0
 21 22  1  0  0  0  0
 22 18  1  0  0  0  0
 22 41  1  0  0  0  0
 23 19  1  0  0  0  0
 23 13  1  0  0  0  0
 24 23  2  0  0  0  0
 26  5  1  0  0  0  0
 27  6  1  0  0  0  0
 28  7  1  0  0  0  0
 32 12  1  0  0  0  0
 34 15  1  0  0  0  0
 37 20  1  0  0  0  0
 39 21  1  0  0  0  0
 40 21  1  0  0  0  0
 42 22  1  0  0  0  0
M  END
>  <Pose>
1

>  <Score>
-6.67

$$$$
