
 OpenBabel03232203513D

 35 38  0  0  1  0  0  0  0  0999 V2000
   -3.0380   17.6360  -13.4950 B   0  0  0  0  0  0  0  0  0  0  0  0
   -1.5100   16.8960  -12.6330 C   0  0  0  0  0  0  0  0  0  0  0  0
   -1.0900   15.6410  -13.0000 C   0  0  0  0  0  0  0  0  0  0  0  0
    0.0240   15.0580  -12.4020 C   0  0  0  0  0  0  0  0  0  0  0  0
    0.6840   15.7640  -11.4450 C   0  0  0  0  0  0  0  0  0  0  0  0
    0.2580   17.0220  -11.0820 C   0  0  0  0  0  0  0  0  0  0  0  0
   -0.8380   17.6190  -11.6560 C   0  0  0  0  0  0  0  0  0  0  0  0
    0.4270   13.7290  -12.8180 C   0  0  0  0  0  0  0  0  0  0  0  0
   -0.4660   12.9510  -13.1980 O   0  0  0  0  0  0  0  0  0  0  0  0
    1.7750   13.3320  -12.7970 N   0  0  0  0  0  0  0  0  0  0  0  0
    2.2450   12.0130  -12.9500 N   0  0  0  0  0  0  0  0  0  0  0  0
    3.6430   11.7010  -12.7990 C   0  0  0  0  0  0  0  0  0  0  0  0
    4.5970   12.4960  -12.5260 O   0  0  0  0  0  0  0  0  0  0  0  0
    3.8180   10.2770  -13.0120 C   0  0  1  0  0  0  0  0  0  0  0  0
    2.4260    9.6390  -12.8330 C   0  0  2  0  0  0  0  0  0  0  0  0
    2.3230    8.5840  -13.8850 C   0  0  2  0  0  0  0  0  0  0  0  0
    3.8010    8.3660  -14.2650 C   0  0  0  0  0  0  0  0  0  0  0  0
    4.0590    9.8760  -14.4610 C   0  0  1  0  0  0  0  0  0  0  0  0
    2.8740   10.2070  -15.3020 C   0  0  0  0  0  0  0  0  0  0  0  0
    1.9150    9.2820  -15.1590 C   0  0  0  0  0  0  0  0  0  0  0  0
    1.5750   10.8210  -13.2530 C   0  0  0  0  0  0  0  0  0  0  0  0
    0.4480   10.7150  -13.7880 O   0  0  0  0  0  0  0  0  0  0  0  0
   -1.6350   15.0970  -13.7690 H   0  0  0  0  0  0  0  0  0  0  0  0
    1.5420   15.3630  -10.9550 H   0  0  0  0  0  0  0  0  0  0  0  0
    0.7800   17.6040  -10.3110 H   0  0  0  0  0  0  0  0  0  0  0  0
   -1.2110   18.5880  -11.4130 H   0  0  0  0  0  0  0  0  0  0  0  0
    2.4790   14.1240  -12.6520 H   0  0  0  0  0  0  0  0  0  0  0  0
    4.5780    9.7950  -12.3940 H   0  0  0  0  0  0  0  0  0  0  0  0
    2.2250    9.3310  -11.8130 H   0  0  0  0  0  0  0  0  0  0  0  0
    1.7840    7.7020  -13.6490 H   0  0  0  0  0  0  0  0  0  0  0  0
    3.8930    7.8350  -15.2200 H   0  0  0  0  0  0  0  0  0  0  0  0
    4.3910    7.9520  -13.4490 H   0  0  0  0  0  0  0  0  0  0  0  0
    5.0180   10.0980  -14.8620 H   0  0  0  0  0  0  0  0  0  0  0  0
    2.7630   11.0760  -15.9580 H   0  0  0  0  0  0  0  0  0  0  0  0
    1.0590    9.0240  -15.7220 H   0  0  0  0  0  0  0  0  0  0  0  0
  1  2  1  0  0  0  0
  2  7  1  0  0  0  0
  3  2  2  0  0  0  0
  3  4  1  0  0  0  0
  4  5  2  0  0  0  0
  5  6  1  0  0  0  0
  5 24  1  0  0  0  0
  6 25  1  0  0  0  0
  7 26  1  0  0  0  0
  7  6  2  0  0  0  0
  8 10  1  0  0  0  0
  8  4  1  0  0  0  0
  9  8  2  0  0  0  0
 10 27  1  0  0  0  0
 11 12  1  0  0  0  0
 11 10  1  0  0  0  0
 12 13  2  0  0  0  0
 14 15  1  0  0  0  0
 14 12  1  0  0  0  0
 14 28  1  1  0  0  0
 15 29  1  1  0  0  0
 16 30  1  1  0  0  0
 16 15  1  0  0  0  0
 17 16  1  0  0  0  0
 17 32  1  0  0  0  0
 18 33  1  6  0  0  0
 18 17  1  0  0  0  0
 18 14  1  0  0  0  0
 19 20  1  0  0  0  0
 19 18  1  0  0  0  0
 20 16  1  0  0  0  0
 21 11  1  0  0  0  0
 21 15  1  0  0  0  0
 22 21  2  0  0  0  0
 23  3  1  0  0  0  0
 31 17  1  0  0  0  0
 34 19  1  0  0  0  0
 35 20  1  0  0  0  0
M  END
>  <Pose>
1

>  <Score>
-5.13

$$$$
