
 OpenBabel03232203513D

 63 66  0  0  1  0  0  0  0  0999 V2000
   -4.7260    9.5880  -14.2460 B   0  0  0  0  0  0  0  0  0  0  0  0
   -3.1480    8.5190  -14.1830 C   0  0  0  0  0  0  0  0  0  0  0  0
   -2.0930    8.9020  -13.3830 C   0  0  0  0  0  0  0  0  0  0  0  0
   -0.9230    8.1580  -13.3030 C   0  0  0  0  0  0  0  0  0  0  0  0
   -0.8880    7.0090  -14.0780 C   0  0  0  0  0  0  0  0  0  0  0  0
   -1.9380    6.6170  -14.8810 C   0  0  0  0  0  0  0  0  0  0  0  0
   -3.0890    7.3720  -14.9450 C   0  0  0  0  0  0  0  0  0  0  0  0
    0.2040    8.5710  -12.4320 C   0  0  2  0  0  0  0  0  0  0  0  0
    0.5080    9.9620  -12.7080 N   0  0  0  0  0  0  0  0  0  0  0  0
    1.2250    9.9770  -13.9330 C   0  0  0  0  0  0  0  0  0  0  0  0
    1.3080   10.9170  -14.7550 O   0  0  0  0  0  0  0  0  0  0  0  0
    1.8690    8.6510  -14.0680 C   0  0  0  0  0  0  0  0  0  0  0  0
    2.5970    8.2530  -15.0030 O   0  0  0  0  0  0  0  0  0  0  0  0
    1.4790    7.9070  -12.8790 C   0  0  0  0  0  0  0  0  0  0  0  0
    2.1440    6.9310  -12.3400 C   0  0  0  0  0  0  0  0  0  0  0  0
    1.6450    6.3670  -11.1480 O   0  0  0  0  0  0  0  0  0  0  0  0
    3.3730    6.3510  -12.8620 C   0  0  0  0  0  0  0  0  0  0  0  0
    3.6380    5.3210  -13.7010 C   0  0  0  0  0  0  0  0  0  0  0  0
    4.9730    5.2570  -13.8830 N   0  0  0  0  0  0  0  0  0  0  0  0
    5.6040    6.2120  -13.1880 C   0  0  0  0  0  0  0  0  0  0  0  0
    4.6240    6.9140  -12.5370 C   0  0  0  0  0  0  0  0  0  0  0  0
    4.8530    8.0820  -11.6340 C   0  0  0  0  0  0  0  0  0  0  0  0
    7.0590    6.4590  -13.1330 C   0  0  0  0  0  0  0  0  0  0  0  0
    7.5120    7.2100  -12.2570 O   0  0  0  0  0  0  0  0  0  0  0  0
    7.9100    5.8650  -14.0450 O   0  0  0  0  0  0  0  0  0  0  0  0
    9.0190    6.5150  -14.6200 C   0  0  0  0  0  0  0  0  0  0  0  0
    2.6630    4.3550  -14.3090 C   0  0  0  0  0  0  0  0  0  0  0  0
    0.1550   11.1270  -11.8920 C   0  0  0  0  0  0  0  0  0  0  0  0
   -0.5780   12.1650  -12.7130 C   0  0  0  0  0  0  0  0  0  0  0  0
   -0.1840   13.5080  -12.4360 N   0  0  0  0  0  4  0  0  0  0  0  0
   -0.4840   14.4450  -13.5120 C   0  0  0  0  0  0  0  0  0  0  0  0
   -0.4500   15.8310  -12.9280 C   0  0  0  0  0  0  0  0  0  0  0  0
    0.3280   15.8300  -11.7970 O   0  0  0  0  0  0  0  0  0  0  0  0
    1.5040   15.1100  -11.9130 C   0  0  0  0  0  0  0  0  0  0  0  0
    1.2510   13.6320  -12.2080 C   0  0  0  0  0  0  0  0  0  0  0  0
   -2.1410    9.8100  -12.7910 H   0  0  0  0  0  0  0  0  0  0  0  0
    0.0190    6.4090  -14.0310 H   0  0  0  0  0  0  0  0  0  0  0  0
   -1.8950    5.7120  -15.4840 H   0  0  0  0  0  0  0  0  0  0  0  0
   -3.9320    7.0690  -15.5820 H   0  0  0  0  0  0  0  0  0  0  0  0
    0.0070    8.3750  -11.3640 H   0  0  0  0  0  0  0  0  0  0  0  0
    5.4530    4.5380  -14.4980 H   0  0  0  0  0  0  0  0  0  0  0  0
    5.6300    7.8460  -10.8770 H   0  0  0  0  0  0  0  0  0  0  0  0
    3.9250    8.2900  -11.0760 H   0  0  0  0  0  0  0  0  0  0  0  0
    5.1890    8.9750  -12.1800 H   0  0  0  0  0  0  0  0  0  0  0  0
    9.5820    7.1350  -13.8860 H   0  0  0  0  0  0  0  0  0  0  0  0
    8.7220    7.1210  -15.5170 H   0  0  0  0  0  0  0  0  0  0  0  0
    9.6950    5.7050  -15.0010 H   0  0  0  0  0  0  0  0  0  0  0  0
    2.5160    4.5530  -15.3850 H   0  0  0  0  0  0  0  0  0  0  0  0
    1.7080    4.3860  -13.7670 H   0  0  0  0  0  0  0  0  0  0  0  0
    3.1500    3.3380  -14.1670 H   0  0  0  0  0  0  0  0  0  0  0  0
   -0.4880   10.8320  -11.0380 H   0  0  0  0  0  0  0  0  0  0  0  0
    1.0770   11.6250  -11.5180 H   0  0  0  0  0  0  0  0  0  0  0  0
   -1.6870   12.0190  -12.5430 H   0  0  0  0  0  0  0  0  0  0  0  0
   -0.4370   11.9870  -13.7930 H   0  0  0  0  0  0  0  0  0  0  0  0
   -0.6320   13.8230  -11.5570 H   0  0  0  0  0  0  0  0  0  0  0  0
    0.3810   14.3780  -14.2320 H   0  0  0  0  0  0  0  0  0  0  0  0
   -1.3850   14.2030  -14.0730 H   0  0  0  0  0  0  0  0  0  0  0  0
   -0.0860   16.5990  -13.6330 H   0  0  0  0  0  0  0  0  0  0  0  0
   -1.4820   16.1480  -12.6230 H   0  0  0  0  0  0  0  0  0  0  0  0
    1.9850   15.1450  -10.8940 H   0  0  0  0  0  0  0  0  0  0  0  0
    2.2270   15.5530  -12.6260 H   0  0  0  0  0  0  0  0  0  0  0  0
    1.6140   12.9820  -11.4110 H   0  0  0  0  0  0  0  0  0  0  0  0
    1.7780   13.4110  -13.1730 H   0  0  0  0  0  0  0  0  0  0  0  0
  1  2  1  0  0  0  0
  2  3  1  0  0  0  0
  3  4  2  0  0  0  0
  3 36  1  0  0  0  0
  4  8  1  0  0  0  0
  5 37  1  0  0  0  0
  5  4  1  0  0  0  0
  6  5  2  0  0  0  0
  7  6  1  0  0  0  0
  7  2  2  0  0  0  0
  8 40  1  1  0  0  0
  9  8  1  0  0  0  0
  9 28  1  0  0  0  0
 10  9  1  0  0  0  0
 11 10  2  0  0  0  0
 12 10  1  0  0  0  0
 12 14  1  0  0  0  0
 13 12  2  0  0  0  0
 14  8  1  0  0  0  0
 14 15  2  0  0  0  0
 15 16  1  0  0  0  0
 17 21  1  0  0  0  0
 17 15  1  0  0  0  0
 18 17  2  0  0  0  0
 19 18  1  0  0  0  0
 19 20  1  0  0  0  0
 20 23  1  0  0  0  0
 20 21  2  0  0  0  0
 21 22  1  0  0  0  0
 22 43  1  0  0  0  0
 22 42  1  0  0  0  0
 23 24  2  0  0  0  0
 25 23  1  0  0  0  0
 26 25  1  0  0  0  0
 26 45  1  0  0  0  0
 27 50  1  0  0  0  0
 27 49  1  0  0  0  0
 27 18  1  0  0  0  0
 28 52  1  0  0  0  0
 28 51  1  0  0  0  0
 29 53  1  0  0  0  0
 29 30  1  0  0  0  0
 29 28  1  0  0  0  0
 30 35  1  0  0  0  0
 30 55  1  0  0  0  0
 31 32  1  0  0  0  0
 31 30  1  0  0  0  0
 32 59  1  0  0  0  0
 32 33  1  0  0  0  0
 34 33  1  0  0  0  0
 34 60  1  0  0  0  0
 35 34  1  0  0  0  0
 35 62  1  0  0  0  0
 38  6  1  0  0  0  0
 39  7  1  0  0  0  0
 41 19  1  0  0  0  0
 44 22  1  0  0  0  0
 46 26  1  0  0  0  0
 47 26  1  0  0  0  0
 48 27  1  0  0  0  0
 54 29  1  0  0  0  0
 56 31  1  0  0  0  0
 57 31  1  0  0  0  0
 58 32  1  0  0  0  0
 61 34  1  0  0  0  0
 63 35  1  0  0  0  0
M  END
>  <Pose>
1

>  <Score>
-4.39

$$$$
