
 OpenBabel03232203513D

 63 66  0  0  1  0  0  0  0  0999 V2000
    3.6670   10.4210  -13.2070 B   0  0  0  0  0  0  0  0  0  0  0  0
    2.6690   11.9580  -12.6830 C   0  0  0  0  0  0  0  0  0  0  0  0
    1.4270   12.2180  -13.2510 C   0  0  0  0  0  0  0  0  0  0  0  0
    0.6920   13.3220  -12.8820 C   0  0  0  0  0  0  0  0  0  0  0  0
    1.2100   14.1770  -11.9350 C   0  0  0  0  0  0  0  0  0  0  0  0
    2.4430   13.9230  -11.3670 C   0  0  0  0  0  0  0  0  0  0  0  0
    3.1850   12.8190  -11.7290 C   0  0  0  0  0  0  0  0  0  0  0  0
   -0.6260   13.6180  -13.4710 C   0  0  1  0  0  0  0  0  0  0  0  0
   -1.6230   12.6090  -13.1730 N   0  0  0  0  0  0  0  0  0  0  0  0
   -2.3380   12.9430  -12.0030 C   0  0  0  0  0  0  0  0  0  0  0  0
   -3.0470   12.2400  -11.2380 O   0  0  0  0  0  0  0  0  0  0  0  0
   -2.1050   14.3940  -11.7910 C   0  0  0  0  0  0  0  0  0  0  0  0
   -2.5930   15.0390  -10.8430 O   0  0  0  0  0  0  0  0  0  0  0  0
   -1.2430   14.8490  -12.8670 C   0  0  0  0  0  0  0  0  0  0  0  0
   -1.0900   16.0890  -13.2550 C   0  0  0  0  0  0  0  0  0  0  0  0
   -0.2710   16.3650  -14.3630 O   0  0  0  0  0  0  0  0  0  0  0  0
   -1.7260   17.1900  -12.5830 C   0  0  0  0  0  0  0  0  0  0  0  0
   -2.9270   17.6590  -13.1370 C   0  0  0  0  0  0  0  0  0  0  0  0
   -3.5790   18.7280  -12.5880 C   0  0  0  0  0  0  0  0  0  0  0  0
   -3.0890   19.3930  -11.4700 C   0  0  0  0  0  0  0  0  0  0  0  0
   -1.9240   18.9220  -10.9510 C   0  0  0  0  0  0  0  0  0  0  0  0
   -1.2520   17.8450  -11.4920 C   0  0  0  0  0  0  0  0  0  0  0  0
   -3.8070   20.4630  -10.9770 O   0  0  0  0  0  0  0  0  0  0  0  0
   -4.0620   20.5890   -9.5860 C   0  0  0  0  0  0  0  0  0  0  0  0
   -4.8590   19.2160  -13.1930 C   0  0  0  0  0  0  0  0  0  0  0  0
   -1.8860   11.3960  -13.9640 C   0  0  0  0  0  0  0  0  0  0  0  0
   -1.8160   10.1830  -13.0770 C   0  0  0  0  0  0  0  0  0  0  0  0
   -0.4940    9.4950  -13.0520 C   0  0  0  0  0  0  0  0  0  0  0  0
   -0.5220    8.2060  -12.3940 N   0  0  0  0  0  4  0  0  0  0  0  0
   -1.1390    7.1910  -13.2250 C   0  0  0  0  0  0  0  0  0  0  0  0
   -0.1430    6.1260  -13.5970 C   0  0  0  0  0  0  0  0  0  0  0  0
    0.3010    5.5200  -12.4040 O   0  0  0  0  0  0  0  0  0  0  0  0
    0.9920    6.4390  -11.6170 C   0  0  0  0  0  0  0  0  0  0  0  0
    0.8670    7.8530  -12.0850 C   0  0  0  0  0  0  0  0  0  0  0  0
    1.0320   11.5490  -13.9870 H   0  0  0  0  0  0  0  0  0  0  0  0
    0.6810   15.0640  -11.6020 H   0  0  0  0  0  0  0  0  0  0  0  0
    2.8370   14.6010  -10.6240 H   0  0  0  0  0  0  0  0  0  0  0  0
    4.1500   12.6220  -11.2860 H   0  0  0  0  0  0  0  0  0  0  0  0
   -0.5870   13.6900  -14.5800 H   0  0  0  0  0  0  0  0  0  0  0  0
   -3.3420   17.1560  -14.0240 H   0  0  0  0  0  0  0  0  0  0  0  0
   -1.5080   19.4150  -10.0760 H   0  0  0  0  0  0  0  0  0  0  0  0
   -0.2940   17.5140  -11.0610 H   0  0  0  0  0  0  0  0  0  0  0  0
   -4.4330   21.5870   -9.3230 H   0  0  0  0  0  0  0  0  0  0  0  0
   -3.1620   20.3410   -8.9710 H   0  0  0  0  0  0  0  0  0  0  0  0
   -4.8490   19.8560   -9.2580 H   0  0  0  0  0  0  0  0  0  0  0  0
   -4.6080   19.4600  -14.2550 H   0  0  0  0  0  0  0  0  0  0  0  0
   -5.1870   20.1320  -12.7070 H   0  0  0  0  0  0  0  0  0  0  0  0
   -5.6580   18.4430  -13.1480 H   0  0  0  0  0  0  0  0  0  0  0  0
   -1.1680   11.3150  -14.7970 H   0  0  0  0  0  0  0  0  0  0  0  0
   -2.9430   11.4690  -14.3410 H   0  0  0  0  0  0  0  0  0  0  0  0
   -2.0530   10.4490  -12.0100 H   0  0  0  0  0  0  0  0  0  0  0  0
   -2.5720    9.4160  -13.3980 H   0  0  0  0  0  0  0  0  0  0  0  0
    0.2210   10.1890  -12.5390 H   0  0  0  0  0  0  0  0  0  0  0  0
   -0.0640    9.3310  -14.0600 H   0  0  0  0  0  0  0  0  0  0  0  0
   -1.0080    8.2220  -11.4730 H   0  0  0  0  0  0  0  0  0  0  0  0
   -1.5320    7.6250  -14.1670 H   0  0  0  0  0  0  0  0  0  0  0  0
   -1.9590    6.6610  -12.6570 H   0  0  0  0  0  0  0  0  0  0  0  0
   -0.6070    5.3350  -14.1880 H   0  0  0  0  0  0  0  0  0  0  0  0
    0.7220    6.5400  -14.1560 H   0  0  0  0  0  0  0  0  0  0  0  0
    0.6370    6.3940  -10.5660 H   0  0  0  0  0  0  0  0  0  0  0  0
    2.0780    6.1720  -11.6540 H   0  0  0  0  0  0  0  0  0  0  0  0
    1.1200    8.5020  -11.1950 H   0  0  0  0  0  0  0  0  0  0  0  0
    1.5530    8.1290  -12.9050 H   0  0  0  0  0  0  0  0  0  0  0  0
  1  2  1  0  0  0  0
  2  7  1  0  0  0  0
  3  4  1  0  0  0  0
  3  2  2  0  0  0  0
  4  5  2  0  0  0  0
  5 36  1  0  0  0  0
  5  6  1  0  0  0  0
  6 37  1  0  0  0  0
  7  6  2  0  0  0  0
  7 38  1  0  0  0  0
  8 39  1  6  0  0  0
  8  9  1  0  0  0  0
  8  4  1  0  0  0  0
  8 14  1  0  0  0  0
  9 10  1  0  0  0  0
 10 12  1  0  0  0  0
 10 11  2  0  0  0  0
 12 13  2  0  0  0  0
 14 12  1  0  0  0  0
 15 14  2  0  0  0  0
 15 17  1  0  0  0  0
 16 15  1  0  0  0  0
 17 22  1  0  0  0  0
 18 19  1  0  0  0  0
 18 17  2  0  0  0  0
 19 20  2  0  0  0  0
 20 23  1  0  0  0  0
 20 21  1  0  0  0  0
 21 41  1  0  0  0  0
 22 42  1  0  0  0  0
 22 21  2  0  0  0  0
 23 24  1  0  0  0  0
 24 43  1  0  0  0  0
 24 45  1  0  0  0  0
 24 44  1  0  0  0  0
 25 48  1  0  0  0  0
 25 47  1  0  0  0  0
 25 19  1  0  0  0  0
 26  9  1  0  0  0  0
 26 27  1  0  0  0  0
 27 28  1  0  0  0  0
 27 51  1  0  0  0  0
 28 53  1  0  0  0  0
 28 29  1  0  0  0  0
 29 34  1  0  0  0  0
 29 55  1  0  0  0  0
 30 57  1  0  0  0  0
 30 29  1  0  0  0  0
 31 30  1  0  0  0  0
 31 32  1  0  0  0  0
 32 33  1  0  0  0  0
 33 60  1  0  0  0  0
 34 33  1  0  0  0  0
 34 62  1  0  0  0  0
 35  3  1  0  0  0  0
 40 18  1  0  0  0  0
 46 25  1  0  0  0  0
 49 26  1  0  0  0  0
 50 26  1  0  0  0  0
 52 27  1  0  0  0  0
 54 28  1  0  0  0  0
 56 30  1  0  0  0  0
 58 31  1  0  0  0  0
 59 31  1  0  0  0  0
 61 33  1  0  0  0  0
 63 34  1  0  0  0  0
M  END
>  <Pose>
1

>  <Score>
-5.20

$$$$
