
 OpenBabel03232203513D

 56 59  0  0  1  0  0  0  0  0999 V2000
    7.3930    6.1110  -13.5970 B   0  0  0  0  0  0  0  0  0  0  0  0
    5.5210    6.0620  -13.2760 C   0  0  0  0  0  0  0  0  0  0  0  0
    4.7340    7.2060  -13.2510 C   0  0  0  0  0  0  0  0  0  0  0  0
    3.3790    7.1610  -13.0130 C   0  0  0  0  0  0  0  0  0  0  0  0
    2.8070    5.9430  -12.7970 C   0  0  0  0  0  0  0  0  0  0  0  0
    3.5910    4.7810  -12.8210 C   0  0  0  0  0  0  0  0  0  0  0  0
    4.9460    4.8280  -13.0580 C   0  0  0  0  0  0  0  0  0  0  0  0
    2.5830    8.4140  -13.0000 C   0  0  1  0  0  0  0  0  0  0  0  0
    3.1830    9.4140  -13.8670 N   0  0  0  0  0  0  0  0  0  0  0  0
    2.5610    9.2750  -15.1610 C   0  0  0  0  0  0  0  0  0  0  0  0
    3.0340    9.7250  -16.2340 O   0  0  0  0  0  0  0  0  0  0  0  0
    1.3310    8.5370  -14.9630 C   0  0  0  0  0  0  0  0  0  0  0  0
    0.4750    8.1890  -15.8350 O   0  0  0  0  0  0  0  0  0  0  0  0
    1.2220    8.2400  -13.5410 C   0  0  0  0  0  0  0  0  0  0  0  0
    0.1150    7.8590  -12.9200 C   0  0  0  0  0  0  0  0  0  0  0  0
    0.2920    7.5800  -11.5480 O   0  0  0  0  0  0  0  0  0  0  0  0
   -1.1880    7.7280  -13.5500 C   0  0  0  0  0  0  0  0  0  0  0  0
   -1.6440    6.6140  -14.2120 C   0  0  0  0  0  0  0  0  0  0  0  0
   -2.9080    6.5350  -14.7620 C   0  0  0  0  0  0  0  0  0  0  0  0
   -3.7800    7.5970  -14.6680 C   0  0  0  0  0  0  0  0  0  0  0  0
   -3.3380    8.7250  -14.0070 C   0  0  0  0  0  0  0  0  0  0  0  0
   -2.0720    8.7940  -13.4590 C   0  0  0  0  0  0  0  0  0  0  0  0
   -5.4020    7.5210  -15.3630 Cl  0  0  0  0  0  0  0  0  0  0  0  0
    4.2580   10.2850  -13.5150 C   0  0  0  0  0  0  0  0  0  0  0  0
    3.9790   11.4900  -12.7140 C   0  0  0  0  0  0  0  0  0  0  0  0
    2.7630   12.2970  -12.9800 C   0  0  0  0  0  0  0  0  0  0  0  0
    2.3510   13.2420  -11.9970 N   0  0  0  0  0  4  0  0  0  0  0  0
    3.2000   14.4060  -12.0160 C   0  0  0  0  0  0  0  0  0  0  0  0
    2.6740   15.5170  -12.9010 C   0  0  0  0  0  0  0  0  0  0  0  0
    1.4770   16.0160  -12.3820 O   0  0  0  0  0  0  0  0  0  0  0  0
    0.8320   15.0520  -11.6050 C   0  0  0  0  0  0  0  0  0  0  0  0
    0.9770   13.7370  -12.3200 C   0  0  0  0  0  0  0  0  0  0  0  0
    5.2090    8.1560  -13.4240 H   0  0  0  0  0  0  0  0  0  0  0  0
    1.7600    5.8610  -12.6090 H   0  0  0  0  0  0  0  0  0  0  0  0
    3.1460    3.8210  -12.6540 H   0  0  0  0  0  0  0  0  0  0  0  0
    5.5600    3.9240  -13.0780 H   0  0  0  0  0  0  0  0  0  0  0  0
    2.5910    8.8280  -11.9700 H   0  0  0  0  0  0  0  0  0  0  0  0
   -0.9900    5.7650  -14.3300 H   0  0  0  0  0  0  0  0  0  0  0  0
   -3.2640    5.6550  -15.2820 H   0  0  0  0  0  0  0  0  0  0  0  0
   -4.0380    9.5500  -13.9440 H   0  0  0  0  0  0  0  0  0  0  0  0
   -1.7360    9.6900  -12.9410 H   0  0  0  0  0  0  0  0  0  0  0  0
    4.7190   10.6170  -14.5050 H   0  0  0  0  0  0  0  0  0  0  0  0
    5.0560    9.6490  -12.9890 H   0  0  0  0  0  0  0  0  0  0  0  0
    4.8970   12.1920  -12.7080 H   0  0  0  0  0  0  0  0  0  0  0  0
    3.9130   11.1970  -11.6010 H   0  0  0  0  0  0  0  0  0  0  0  0
    1.8720   11.6360  -13.1790 H   0  0  0  0  0  0  0  0  0  0  0  0
    2.8820   12.8710  -13.9610 H   0  0  0  0  0  0  0  0  0  0  0  0
    2.2390   12.8330  -11.0730 H   0  0  0  0  0  0  0  0  0  0  0  0
    4.2160   14.1290  -12.3710 H   0  0  0  0  0  0  0  0  0  0  0  0
    3.3060   14.8090  -10.9940 H   0  0  0  0  0  0  0  0  0  0  0  0
    2.5630   15.1360  -13.9350 H   0  0  0  0  0  0  0  0  0  0  0  0
    3.4130   16.3200  -12.9130 H   0  0  0  0  0  0  0  0  0  0  0  0
    1.3210   15.0340  -10.6170 H   0  0  0  0  0  0  0  0  0  0  0  0
   -0.2310   15.3570  -11.4910 H   0  0  0  0  0  0  0  0  0  0  0  0
    0.9290   13.8700  -13.4200 H   0  0  0  0  0  0  0  0  0  0  0  0
    0.2480   13.0010  -11.9330 H   0  0  0  0  0  0  0  0  0  0  0  0
  1  2  1  0  0  0  0
  2  3  2  0  0  0  0
  2  7  1  0  0  0  0
  3  4  1  0  0  0  0
  4  8  1  0  0  0  0
  4  5  2  0  0  0  0
  5 34  1  0  0  0  0
  6  5  1  0  0  0  0
  6 35  1  0  0  0  0
  7  6  2  0  0  0  0
  8 37  1  1  0  0  0
  9 24  1  0  0  0  0
  9  8  1  0  0  0  0
 10 12  1  0  0  0  0
 10  9  1  0  0  0  0
 11 10  2  0  0  0  0
 12 14  1  0  0  0  0
 13 12  2  0  0  0  0
 14  8  1  0  0  0  0
 14 15  2  0  0  0  0
 15 16  1  0  0  0  0
 17 22  1  0  0  0  0
 17 15  1  0  0  0  0
 18 17  2  0  0  0  0
 19 20  2  0  0  0  0
 19 18  1  0  0  0  0
 20 21  1  0  0  0  0
 21 40  1  0  0  0  0
 21 22  2  0  0  0  0
 22 41  1  0  0  0  0
 23 20  1  0  0  0  0
 24 43  1  0  0  0  0
 24 25  1  0  0  0  0
 25 44  1  0  0  0  0
 25 45  1  0  0  0  0
 26 25  1  0  0  0  0
 26 27  1  0  0  0  0
 27 48  1  0  0  0  0
 28 27  1  0  0  0  0
 28 50  1  0  0  0  0
 29 30  1  0  0  0  0
 29 28  1  0  0  0  0
 30 31  1  0  0  0  0
 31 54  1  0  0  0  0
 31 53  1  0  0  0  0
 32 27  1  0  0  0  0
 32 56  1  0  0  0  0
 32 31  1  0  0  0  0
 33  3  1  0  0  0  0
 36  7  1  0  0  0  0
 38 18  1  0  0  0  0
 39 19  1  0  0  0  0
 42 24  1  0  0  0  0
 46 26  1  0  0  0  0
 47 26  1  0  0  0  0
 49 28  1  0  0  0  0
 51 29  1  0  0  0  0
 52 29  1  0  0  0  0
 55 32  1  0  0  0  0
M  END
>  <Pose>
1

>  <Score>
-6.23

$$$$
