
 OpenBabel03232203513D

 57 60  0  0  1  0  0  0  0  0999 V2000
   -1.6140    6.3180  -14.2050 B   0  0  0  0  0  0  0  0  0  0  0  0
    0.0600    6.9590  -13.5760 C   0  0  0  0  0  0  0  0  0  0  0  0
    0.7720    7.8810  -14.3440 C   0  0  0  0  0  0  0  0  0  0  0  0
    1.9680    8.3550  -13.9200 C   0  0  0  0  0  0  0  0  0  0  0  0
    2.4640    7.8920  -12.6960 C   0  0  0  0  0  0  0  0  0  0  0  0
    1.7650    6.9910  -11.9490 C   0  0  0  0  0  0  0  0  0  0  0  0
    0.5470    6.4970  -12.3610 C   0  0  0  0  0  0  0  0  0  0  0  0
    2.7800    9.3300  -14.6580 C   0  0  2  0  0  0  0  0  0  0  0  0
    4.1900    9.0070  -14.7440 N   0  0  0  0  0  0  0  0  0  0  0  0
    4.8410   10.2490  -15.0430 C   0  0  0  0  0  0  0  0  0  0  0  0
    5.9330   10.4160  -15.6150 O   0  0  0  0  0  0  0  0  0  0  0  0
    3.9750   11.3120  -14.5460 C   0  0  0  0  0  0  0  0  0  0  0  0
    4.1150   12.5710  -14.5780 O   0  0  0  0  0  0  0  0  0  0  0  0
    2.8200   10.6510  -13.9570 C   0  0  0  0  0  0  0  0  0  0  0  0
    2.0100   11.1680  -13.0540 C   0  0  0  0  0  0  0  0  0  0  0  0
    0.9210   10.3700  -12.6770 O   0  0  0  0  0  0  0  0  0  0  0  0
    2.1690   12.4750  -12.4330 C   0  0  0  0  0  0  0  0  0  0  0  0
    1.3320   13.5200  -12.5010 N   0  0  0  0  0  0  0  0  0  0  0  0
    1.7940   14.5580  -11.7570 C   0  0  0  0  0  0  0  0  0  0  0  0
    2.9630   14.1130  -11.2200 N   0  0  0  0  0  0  0  0  0  0  0  0
    3.2240   12.8730  -11.5990 C   0  0  0  0  0  0  0  0  0  0  0  0
    4.3560   11.9730  -11.2850 C   0  0  0  0  0  0  0  0  0  0  0  0
    1.1280   15.7700  -11.6610 C   0  0  0  0  0  0  0  0  0  0  0  0
   -0.0570   15.9570  -12.3420 C   0  0  0  0  0  0  0  0  0  0  0  0
   -0.5210   14.8900  -13.1020 C   0  0  0  0  0  0  0  0  0  0  0  0
    0.1590   13.7140  -13.1740 C   0  0  0  0  0  0  0  0  0  0  0  0
    4.8380    7.7030  -14.5820 C   0  0  0  0  0  0  0  0  0  0  0  0
    6.0390    7.7400  -13.7110 C   0  0  0  0  0  0  0  0  0  0  0  0
    7.0040    6.6290  -13.7930 C   0  0  0  0  0  0  0  0  0  0  0  0
    8.3810    6.9800  -13.8210 N   0  0  0  0  0  4  0  0  0  0  0  0
    9.0590    6.2440  -14.8610 C   0  0  0  0  0  0  0  0  0  0  0  0
    9.0140    6.5600  -12.5570 C   0  0  0  0  0  0  0  0  0  0  0  0
    0.3420    8.1880  -15.2670 H   0  0  0  0  0  0  0  0  0  0  0  0
    3.4180    8.2620  -12.3480 H   0  0  0  0  0  0  0  0  0  0  0  0
    2.1480    6.6240  -10.9890 H   0  0  0  0  0  0  0  0  0  0  0  0
   -0.0200    5.7700  -11.7630 H   0  0  0  0  0  0  0  0  0  0  0  0
    2.4190    9.4920  -15.6730 H   0  0  0  0  0  0  0  0  0  0  0  0
    5.1740   12.6170  -10.8880 H   0  0  0  0  0  0  0  0  0  0  0  0
    4.7680   11.5170  -12.2170 H   0  0  0  0  0  0  0  0  0  0  0  0
    4.1150   11.2060  -10.5320 H   0  0  0  0  0  0  0  0  0  0  0  0
    1.5390   16.5640  -11.0540 H   0  0  0  0  0  0  0  0  0  0  0  0
   -0.6250   16.8780  -12.3080 H   0  0  0  0  0  0  0  0  0  0  0  0
   -1.4610   15.0140  -13.6530 H   0  0  0  0  0  0  0  0  0  0  0  0
   -0.1860   12.8620  -13.7750 H   0  0  0  0  0  0  0  0  0  0  0  0
    4.0860    6.9400  -14.2850 H   0  0  0  0  0  0  0  0  0  0  0  0
    5.1820    7.3890  -15.5870 H   0  0  0  0  0  0  0  0  0  0  0  0
    6.5830    8.7160  -13.7820 H   0  0  0  0  0  0  0  0  0  0  0  0
    5.6500    7.7520  -12.6470 H   0  0  0  0  0  0  0  0  0  0  0  0
    6.8400    5.9840  -12.8860 H   0  0  0  0  0  0  0  0  0  0  0  0
    6.7350    5.9460  -14.6520 H   0  0  0  0  0  0  0  0  0  0  0  0
    8.5650    8.0060  -13.8630 H   0  0  0  0  0  0  0  0  0  0  0  0
    9.8640    5.5810  -14.4800 H   0  0  0  0  0  0  0  0  0  0  0  0
    8.3140    5.5930  -15.3590 H   0  0  0  0  0  0  0  0  0  0  0  0
    9.4730    6.8960  -15.6520 H   0  0  0  0  0  0  0  0  0  0  0  0
    8.5760    7.1220  -11.7010 H   0  0  0  0  0  0  0  0  0  0  0  0
    8.9030    5.4550  -12.4360 H   0  0  0  0  0  0  0  0  0  0  0  0
   10.0950    6.7920  -12.5550 H   0  0  0  0  0  0  0  0  0  0  0  0
  1  2  1  0  0  0  0
  2  7  1  0  0  0  0
  3  4  1  0  0  0  0
  3  2  2  0  0  0  0
  4  5  2  0  0  0  0
  5 34  1  0  0  0  0
  5  6  1  0  0  0  0
  6 35  1  0  0  0  0
  7  6  2  0  0  0  0
  7 36  1  0  0  0  0
  8 37  1  6  0  0  0
  8 14  1  0  0  0  0
  8  4  1  0  0  0  0
  9  8  1  0  0  0  0
  9 27  1  0  0  0  0
 10  9  1  0  0  0  0
 10 12  1  0  0  0  0
 11 10  2  0  0  0  0
 12 14  1  0  0  0  0
 13 12  2  0  0  0  0
 14 15  2  0  0  0  0
 15 16  1  0  0  0  0
 15 17  1  0  0  0  0
 17 21  2  0  0  0  0
 18 17  1  0  0  0  0
 18 19  1  0  0  0  0
 19 23  1  0  0  0  0
 19 20  2  0  0  0  0
 21 22  1  0  0  0  0
 21 20  1  0  0  0  0
 22 38  1  0  0  0  0
 22 40  1  0  0  0  0
 23 41  1  0  0  0  0
 24 42  1  0  0  0  0
 24 23  2  0  0  0  0
 25 24  1  0  0  0  0
 26 25  2  0  0  0  0
 26 18  1  0  0  0  0
 27 45  1  0  0  0  0
 27 28  1  0  0  0  0
 28 48  1  0  0  0  0
 29 28  1  0  0  0  0
 29 49  1  0  0  0  0
 30 29  1  0  0  0  0
 30 32  1  0  0  0  0
 31 52  1  0  0  0  0
 31 30  1  0  0  0  0
 32 57  1  0  0  0  0
 32 56  1  0  0  0  0
 32 55  1  0  0  0  0
 33  3  1  0  0  0  0
 39 22  1  0  0  0  0
 43 25  1  0  0  0  0
 44 26  1  0  0  0  0
 46 27  1  0  0  0  0
 47 28  1  0  0  0  0
 50 29  1  0  0  0  0
 51 30  1  0  0  0  0
 53 31  1  0  0  0  0
 54 31  1  0  0  0  0
M  END
>  <Pose>
1

>  <Score>
-4.91

$$$$
