
 OpenBabel03232203513D

 38 41  0  0  0  0  0  0  0  0999 V2000
    1.0600    6.8650  -11.8880 B   0  0  0  0  0  0  0  0  0  0  0  0
    2.0500    8.2060  -12.8130 C   0  0  0  0  0  0  0  0  0  0  0  0
    2.1170    9.5150  -12.3240 C   0  0  0  0  0  0  0  0  0  0  0  0
    2.8310   10.4790  -12.9930 C   0  0  0  0  0  0  0  0  0  0  0  0
    3.4760   10.1170  -14.1550 C   0  0  0  0  0  0  0  0  0  0  0  0
    3.4170    8.8110  -14.6540 C   0  0  0  0  0  0  0  0  0  0  0  0
    2.6990    7.8530  -13.9760 C   0  0  0  0  0  0  0  0  0  0  0  0
    2.9300   11.8340  -12.5340 N   0  0  0  0  0  0  0  0  0  0  0  0
    3.9710   12.4840  -12.0840 N   0  0  0  0  0  0  0  0  0  0  0  0
    3.6440   13.7240  -11.7600 N   0  0  0  0  0  0  0  0  0  0  0  0
    2.3230   13.8940  -12.0120 C   0  0  0  0  0  0  0  0  0  0  0  0
    1.8890   12.6830  -12.5030 C   0  0  0  0  0  0  0  0  0  0  0  0
    1.5210   15.0940  -11.8130 C   0  0  0  0  0  0  0  0  0  0  0  0
    2.1170   16.1790  -11.5980 O   0  0  0  0  0  0  0  0  0  0  0  0
    0.1110   15.0890  -11.8520 N   0  0  0  0  0  0  0  0  0  0  0  0
   -0.6830   15.8000  -12.8270 C   0  0  0  0  0  0  0  0  0  0  0  0
   -1.3960   16.9660  -12.1990 C   0  0  0  0  0  0  0  0  0  0  0  0
   -2.4670   17.6470  -12.6720 N   0  0  0  0  0  0  0  0  0  0  0  0
   -2.7960   18.6150  -11.8100 C   0  0  0  0  0  0  0  0  0  0  0  0
   -1.9080   18.5240  -10.7920 N   0  0  0  0  0  0  0  0  0  0  0  0
   -1.0680   17.5350  -11.0250 N   0  0  0  0  0  0  0  0  0  0  0  0
   -3.9870   19.3980  -12.3030 C   0  0  0  0  0  0  0  0  0  0  0  0
   -3.9920   19.0180  -13.7690 C   0  0  0  0  0  0  0  0  0  0  0  0
   -3.3520   17.6430  -13.8240 C   0  0  0  0  0  0  0  0  0  0  0  0
    1.6110    9.7960  -11.4140 H   0  0  0  0  0  0  0  0  0  0  0  0
    4.0380   10.8690  -14.6850 H   0  0  0  0  0  0  0  0  0  0  0  0
    3.9330    8.5330  -15.5770 H   0  0  0  0  0  0  0  0  0  0  0  0
    2.6500    6.8400  -14.3570 H   0  0  0  0  0  0  0  0  0  0  0  0
    0.8710   12.4650  -12.8090 H   0  0  0  0  0  0  0  0  0  0  0  0
   -0.3940   14.5330  -11.1250 H   0  0  0  0  0  0  0  0  0  0  0  0
   -0.0600   16.1330  -13.6770 H   0  0  0  0  0  0  0  0  0  0  0  0
   -1.5050   15.1160  -13.1940 H   0  0  0  0  0  0  0  0  0  0  0  0
   -3.8420   20.4670  -12.1310 H   0  0  0  0  0  0  0  0  0  0  0  0
   -4.9210   18.9910  -11.8390 H   0  0  0  0  0  0  0  0  0  0  0  0
   -5.0160   18.9010  -14.1730 H   0  0  0  0  0  0  0  0  0  0  0  0
   -3.3940   19.7840  -14.3040 H   0  0  0  0  0  0  0  0  0  0  0  0
   -4.1010   16.8370  -13.8090 H   0  0  0  0  0  0  0  0  0  0  0  0
   -2.8040   17.5740  -14.7860 H   0  0  0  0  0  0  0  0  0  0  0  0
  2  3  1  0  0  0  0
  2  1  1  0  0  0  0
  3 25  1  0  0  0  0
  4  8  1  0  0  0  0
  4  3  2  0  0  0  0
  5  4  1  0  0  0  0
  6  5  2  0  0  0  0
  6  7  1  0  0  0  0
  7  2  2  0  0  0  0
  8 12  1  0  0  0  0
  8  9  1  0  0  0  0
  9 10  2  0  0  0  0
 11 13  1  0  0  0  0
 11 10  1  0  0  0  0
 12 11  2  0  0  0  0
 13 14  2  0  0  0  0
 15 13  1  0  0  0  0
 15 30  1  0  0  0  0
 16 17  1  0  0  0  0
 16 15  1  0  0  0  0
 17 21  2  0  0  0  0
 18 17  1  0  0  0  0
 18 19  1  0  0  0  0
 19 20  2  0  0  0  0
 21 20  1  0  0  0  0
 22 33  1  0  0  0  0
 22 34  1  0  0  0  0
 22 19  1  0  0  0  0
 23 22  1  0  0  0  0
 24 37  1  0  0  0  0
 24 23  1  0  0  0  0
 24 18  1  0  0  0  0
 26  5  1  0  0  0  0
 27  6  1  0  0  0  0
 28  7  1  0  0  0  0
 29 12  1  0  0  0  0
 31 16  1  0  0  0  0
 32 16  1  0  0  0  0
 35 23  1  0  0  0  0
 36 23  1  0  0  0  0
 38 24  1  0  0  0  0
M  END
>  <Pose>
1

>  <Score>
-7.80

$$$$
