
 OpenBabel03232203513D

 37 40  0  0  1  0  0  0  0  0999 V2000
   -2.8750   19.7030  -10.2080 B   0  0  0  0  0  0  0  0  0  0  0  0
   -2.4000   18.4620  -11.5770 C   0  0  0  0  0  0  0  0  0  0  0  0
   -1.3890   17.5470  -11.4290 C   0  0  0  0  0  0  0  0  0  0  0  0
   -1.0230   16.6280  -12.4110 C   0  0  0  0  0  0  0  0  0  0  0  0
   -1.7590   16.6880  -13.5840 C   0  0  0  0  0  0  0  0  0  0  0  0
   -2.7740   17.6010  -13.7430 C   0  0  0  0  0  0  0  0  0  0  0  0
   -3.1250   18.5110  -12.7500 C   0  0  0  0  0  0  0  0  0  0  0  0
    0.0270   15.7040  -12.2170 N   0  0  0  0  0  0  0  0  0  0  0  0
    1.3480   15.9200  -11.6810 C   0  0  0  0  0  0  0  0  0  0  0  0
    1.9160   17.0480  -11.6520 O   0  0  0  0  0  0  0  0  0  0  0  0
    1.8840   14.6490  -11.1970 C   0  0  2  0  0  0  0  0  0  0  0  0
    3.2230   14.4150  -11.3500 O   0  0  0  0  0  0  0  0  0  0  0  0
    3.2560   13.0420  -11.5780 N   0  0  0  0  0  0  0  0  0  0  0  0
    2.1620   12.7080  -12.3990 C   0  0  0  0  0  0  0  0  0  0  0  0
    1.2770   13.6940  -12.1980 C   0  0  0  0  0  0  0  0  0  0  0  0
   -0.0040   14.3020  -12.5360 C   0  0  0  0  0  0  0  0  0  0  0  0
   -0.9790   13.6970  -13.0300 O   0  0  0  0  0  0  0  0  0  0  0  0
    1.9680   11.5400  -13.2450 C   0  0  0  0  0  0  0  0  0  0  0  0
    2.9110   10.5240  -13.4250 C   0  0  0  0  0  0  0  0  0  0  0  0
    2.3950    9.6160  -14.2300 N   0  0  0  0  0  0  0  0  0  0  0  0
    1.1690   10.0050  -14.5720 N   0  0  0  0  0  0  0  0  0  0  0  0
    0.8890   11.1600  -13.9930 C   0  0  0  0  0  0  0  0  0  0  0  0
    3.0390    8.3870  -14.6910 C   0  0  0  0  0  0  0  0  0  0  0  0
    4.2720   10.4810  -12.8400 C   0  0  0  0  0  0  0  0  0  0  0  0
   -0.8090   17.5030  -10.5130 H   0  0  0  0  0  0  0  0  0  0  0  0
   -1.5100   15.9910  -14.3780 H   0  0  0  0  0  0  0  0  0  0  0  0
   -3.3730   17.6720  -14.6610 H   0  0  0  0  0  0  0  0  0  0  0  0
   -3.9220   19.2230  -12.8870 H   0  0  0  0  0  0  0  0  0  0  0  0
    1.5220   14.4100  -10.1720 H   0  0  0  0  0  0  0  0  0  0  0  0
    3.9580   12.3870  -11.2120 H   0  0  0  0  0  0  0  0  0  0  0  0
   -0.0260   11.7150  -14.0860 H   0  0  0  0  0  0  0  0  0  0  0  0
    2.3720    7.5130  -14.4750 H   0  0  0  0  0  0  0  0  0  0  0  0
    3.3010    8.4160  -15.7620 H   0  0  0  0  0  0  0  0  0  0  0  0
    3.9790    8.2420  -14.1050 H   0  0  0  0  0  0  0  0  0  0  0  0
    4.5420   11.4610  -12.3770 H   0  0  0  0  0  0  0  0  0  0  0  0
    4.3020    9.6360  -12.1310 H   0  0  0  0  0  0  0  0  0  0  0  0
    4.9610   10.2700  -13.6760 H   0  0  0  0  0  0  0  0  0  0  0  0
  2  3  1  0  0  0  0
  2  1  1  0  0  0  0
  3 25  1  0  0  0  0
  4  8  1  0  0  0  0
  4  3  2  0  0  0  0
  5  4  1  0  0  0  0
  6  5  2  0  0  0  0
  6  7  1  0  0  0  0
  7  2  2  0  0  0  0
  8  9  1  0  0  0  0
  9 10  2  0  0  0  0
  9 11  1  0  0  0  0
 11 29  1  1  0  0  0
 12 11  1  0  0  0  0
 13 12  1  0  0  0  0
 13 30  1  0  0  0  0
 14 15  2  0  0  0  0
 14 13  1  0  0  0  0
 15 11  1  0  0  0  0
 16  8  1  0  0  0  0
 16 15  1  0  0  0  0
 17 16  2  0  0  0  0
 18 14  1  0  0  0  0
 19 18  2  0  0  0  0
 19 24  1  0  0  0  0
 20 19  1  0  0  0  0
 21 20  1  0  0  0  0
 21 22  2  0  0  0  0
 22 18  1  0  0  0  0
 23 32  1  0  0  0  0
 23 20  1  0  0  0  0
 23 34  1  0  0  0  0
 24 35  1  0  0  0  0
 24 36  1  0  0  0  0
 26  5  1  0  0  0  0
 27  6  1  0  0  0  0
 28  7  1  0  0  0  0
 31 22  1  0  0  0  0
 33 23  1  0  0  0  0
 37 24  1  0  0  0  0
M  END
>  <Pose>
1

>  <Score>
-6.22

$$$$
