
 OpenBabel03232203513D

 37 40  0  0  1  0  0  0  0  0999 V2000
   -3.4480   20.2230  -10.3770 B   0  0  0  0  0  0  0  0  0  0  0  0
   -2.9640   18.9310  -11.6870 C   0  0  0  0  0  0  0  0  0  0  0  0
   -1.8890   18.0640  -11.4640 C   0  0  0  0  0  0  0  0  0  0  0  0
   -1.5240   17.1220  -12.3990 C   0  0  0  0  0  0  0  0  0  0  0  0
   -2.2530   17.0640  -13.5600 C   0  0  0  0  0  0  0  0  0  0  0  0
   -3.3310   17.9310  -13.7880 C   0  0  0  0  0  0  0  0  0  0  0  0
   -3.6950   18.8740  -12.8510 C   0  0  0  0  0  0  0  0  0  0  0  0
   -0.4370   16.2540  -12.1450 N   0  0  0  0  0  0  0  0  0  0  0  0
    0.3100   16.1660  -10.9120 C   0  0  0  0  0  0  0  0  0  0  0  0
   -0.0580   16.4760   -9.7740 O   0  0  0  0  0  0  0  0  0  0  0  0
    1.6560   15.6140  -11.2420 C   0  0  1  0  0  0  0  0  0  0  0  0
    2.1800   14.7750  -10.2760 O   0  0  0  0  0  0  0  0  0  0  0  0
    2.9340   13.9140  -11.0370 N   0  0  0  0  0  0  0  0  0  0  0  0
    2.0870   13.5890  -12.1530 C   0  0  0  0  0  0  0  0  0  0  0  0
    1.2810   14.6100  -12.3140 C   0  0  0  0  0  0  0  0  0  0  0  0
    0.1780   15.2780  -13.0160 C   0  0  0  0  0  0  0  0  0  0  0  0
   -0.1340   15.0050  -14.1800 O   0  0  0  0  0  0  0  0  0  0  0  0
    2.0770   12.3950  -12.9540 C   0  0  0  0  0  0  0  0  0  0  0  0
    3.2400   11.6930  -13.2660 C   0  0  0  0  0  0  0  0  0  0  0  0
    2.9300   10.6170  -14.0110 N   0  0  0  0  0  0  0  0  0  0  0  0
    1.6160   10.6490  -14.1580 N   0  0  0  0  0  0  0  0  0  0  0  0
    1.0550   11.6900  -13.5470 C   0  0  0  0  0  0  0  0  0  0  0  0
   -0.4000   12.0550  -13.4840 C   0  0  0  0  0  0  0  0  0  0  0  0
    3.8700    9.6200  -14.5470 C   0  0  0  0  0  0  0  0  0  0  0  0
   -1.3530   18.1500  -10.5480 H   0  0  0  0  0  0  0  0  0  0  0  0
   -1.9910   16.3420  -14.3030 H   0  0  0  0  0  0  0  0  0  0  0  0
   -3.8900   17.8590  -14.7200 H   0  0  0  0  0  0  0  0  0  0  0  0
   -4.5370   19.5390  -13.0440 H   0  0  0  0  0  0  0  0  0  0  0  0
    2.3420   16.3810  -11.6180 H   0  0  0  0  0  0  0  0  0  0  0  0
    3.8850   13.5650  -10.8730 H   0  0  0  0  0  0  0  0  0  0  0  0
    4.2500   11.9600  -12.9620 H   0  0  0  0  0  0  0  0  0  0  0  0
   -0.7540   12.4820  -14.4240 H   0  0  0  0  0  0  0  0  0  0  0  0
   -0.5930   12.6540  -12.5960 H   0  0  0  0  0  0  0  0  0  0  0  0
   -0.9350   11.0780  -13.3530 H   0  0  0  0  0  0  0  0  0  0  0  0
    3.9280    8.8390  -13.7360 H   0  0  0  0  0  0  0  0  0  0  0  0
    4.8500   10.0700  -14.7290 H   0  0  0  0  0  0  0  0  0  0  0  0
    3.3990    9.1430  -15.4020 H   0  0  0  0  0  0  0  0  0  0  0  0
  2  3  1  0  0  0  0
  2  1  1  0  0  0  0
  3 25  1  0  0  0  0
  4  8  1  0  0  0  0
  4  3  2  0  0  0  0
  5  4  1  0  0  0  0
  6  5  2  0  0  0  0
  6  7  1  0  0  0  0
  7  2  2  0  0  0  0
  8  9  1  0  0  0  0
  9 10  2  0  0  0  0
 11 29  1  6  0  0  0
 11  9  1  0  0  0  0
 11 12  1  0  0  0  0
 13 30  1  0  0  0  0
 13 12  1  0  0  0  0
 14 13  1  0  0  0  0
 15 14  2  0  0  0  0
 15 11  1  0  0  0  0
 16 15  1  0  0  0  0
 16  8  1  0  0  0  0
 17 16  2  0  0  0  0
 18 14  1  0  0  0  0
 19 31  1  0  0  0  0
 19 18  2  0  0  0  0
 20 19  1  0  0  0  0
 21 20  1  0  0  0  0
 21 22  2  0  0  0  0
 22 23  1  0  0  0  0
 22 18  1  0  0  0  0
 23 34  1  0  0  0  0
 23 33  1  0  0  0  0
 24 20  1  0  0  0  0
 24 35  1  0  0  0  0
 26  5  1  0  0  0  0
 27  6  1  0  0  0  0
 28  7  1  0  0  0  0
 32 23  1  0  0  0  0
 36 24  1  0  0  0  0
 37 24  1  0  0  0  0
M  END
>  <Pose>
1

>  <Score>
-6.28

$$$$
