
 OpenBabel03232203513D

 45 48  0  0  1  0  0  0  0  0999 V2000
    0.3370    7.9410  -13.4120 B   0  0  0  0  0  0  0  0  0  0  0  0
    1.7260    9.2470  -13.5130 C   0  0  0  0  0  0  0  0  0  0  0  0
    1.6770   10.4150  -12.8020 C   0  0  0  0  0  0  0  0  0  0  0  0
    2.6860   11.3940  -12.8570 C   0  0  0  0  0  0  0  0  0  0  0  0
    3.7640   11.0800  -13.7090 C   0  0  0  0  0  0  0  0  0  0  0  0
    3.8160    9.9090  -14.4240 C   0  0  0  0  0  0  0  0  0  0  0  0
    2.7940    8.9860  -14.3280 C   0  0  0  0  0  0  0  0  0  0  0  0
    2.5800   12.4670  -12.1650 O   0  0  0  0  0  0  0  0  0  0  0  0
    2.3790   13.5320  -11.4590 C   0  0  0  0  0  0  0  0  0  0  0  0
    1.6980   14.6420  -12.2740 C   0  0  0  0  0  0  0  0  0  0  0  0
    0.3020   14.7070  -11.9630 N   0  0  0  0  0  0  0  0  0  0  0  0
   -0.6840   15.0670  -12.9220 C   0  0  0  0  0  0  0  0  0  0  0  0
   -1.5170   14.1390  -13.2150 O   0  0  0  0  0  0  0  0  0  0  0  0
   -0.7950   16.3900  -13.5690 C   0  0  0  0  0  0  0  0  0  0  0  0
   -1.7880   17.2570  -12.9970 N   0  0  0  0  0  0  0  0  0  0  0  0
   -1.6100   17.8790  -11.7140 C   0  0  0  0  0  0  0  0  0  0  0  0
   -0.7940   17.5630  -10.8120 O   0  0  0  0  0  0  0  0  0  0  0  0
   -2.5680   18.9800  -11.6180 C   0  0  1  0  0  0  0  0  0  0  0  0
   -3.3560   19.0050  -12.9430 C   0  0  2  0  0  0  0  0  0  0  0  0
   -4.7950   19.0490  -12.5680 C   0  0  2  0  0  0  0  0  0  0  0  0
   -4.7170   19.7650  -11.2030 C   0  0  0  0  0  0  0  0  0  0  0  0
   -3.6910   18.7610  -10.6420 C   0  0  1  0  0  0  0  0  0  0  0  0
   -4.3960   17.4880  -11.0160 C   0  0  0  0  0  0  0  0  0  0  0  0
   -5.1690   17.7000  -12.0770 C   0  0  0  0  0  0  0  0  0  0  0  0
   -3.0510   17.6750  -13.5320 C   0  0  0  0  0  0  0  0  0  0  0  0
   -3.7380   17.0210  -14.3360 O   0  0  0  0  0  0  0  0  0  0  0  0
    0.8250   10.6260  -12.1500 H   0  0  0  0  0  0  0  0  0  0  0  0
    4.5390   11.8190  -13.7590 H   0  0  0  0  0  0  0  0  0  0  0  0
    4.6450    9.6770  -15.0720 H   0  0  0  0  0  0  0  0  0  0  0  0
    2.8500    8.0720  -14.8950 H   0  0  0  0  0  0  0  0  0  0  0  0
    1.6340   13.3230  -10.6120 H   0  0  0  0  0  0  0  0  0  0  0  0
    3.2740   13.9950  -10.9280 H   0  0  0  0  0  0  0  0  0  0  0  0
    2.2250   15.6030  -12.1380 H   0  0  0  0  0  0  0  0  0  0  0  0
    1.8840   14.3420  -13.3470 H   0  0  0  0  0  0  0  0  0  0  0  0
   -0.0100   14.4820  -10.9950 H   0  0  0  0  0  0  0  0  0  0  0  0
   -1.1010   16.1840  -14.6390 H   0  0  0  0  0  0  0  0  0  0  0  0
    0.2160   16.8970  -13.6190 H   0  0  0  0  0  0  0  0  0  0  0  0
   -2.0960   19.9740  -11.4290 H   0  0  0  0  0  0  0  0  0  0  0  0
   -3.0180   19.8360  -13.5850 H   0  0  0  0  0  0  0  0  0  0  0  0
   -5.4730   19.5060  -13.2520 H   0  0  0  0  0  0  0  0  0  0  0  0
   -4.3060   20.7690  -11.2890 H   0  0  0  0  0  0  0  0  0  0  0  0
   -5.6660   19.6870  -10.6580 H   0  0  0  0  0  0  0  0  0  0  0  0
   -3.4750   18.8890   -9.6080 H   0  0  0  0  0  0  0  0  0  0  0  0
   -4.3240   16.5210  -10.5330 H   0  0  0  0  0  0  0  0  0  0  0  0
   -5.9270   17.0950  -12.5510 H   0  0  0  0  0  0  0  0  0  0  0  0
  2  1  1  0  0  0  0
  2  3  1  0  0  0  0
  3 27  1  0  0  0  0
  4  3  2  0  0  0  0
  4  8  1  0  0  0  0
  5  4  1  0  0  0  0
  6  7  1  0  0  0  0
  6  5  2  0  0  0  0
  7  2  2  0  0  0  0
  8  9  1  0  0  0  0
  9 32  1  0  0  0  0
  9 31  1  0  0  0  0
 10 33  1  0  0  0  0
 10 11  1  0  0  0  0
 10  9  1  0  0  0  0
 11 35  1  0  0  0  0
 12 11  1  0  0  0  0
 13 12  2  0  0  0  0
 14 15  1  0  0  0  0
 14 12  1  0  0  0  0
 15 16  1  0  0  0  0
 16 18  1  0  0  0  0
 16 17  2  0  0  0  0
 18 38  1  1  0  0  0
 18 22  1  0  0  0  0
 19 39  1  6  0  0  0
 19 20  1  0  0  0  0
 19 18  1  0  0  0  0
 20 40  1  6  0  0  0
 20 24  1  0  0  0  0
 20 21  1  0  0  0  0
 21 42  1  0  0  0  0
 21 22  1  0  0  0  0
 22 43  1  1  0  0  0
 23 22  1  0  0  0  0
 23 44  1  0  0  0  0
 24 23  2  0  0  0  0
 25 15  1  0  0  0  0
 25 19  1  0  0  0  0
 26 25  2  0  0  0  0
 28  5  1  0  0  0  0
 29  6  1  0  0  0  0
 30  7  1  0  0  0  0
 34 10  1  0  0  0  0
 36 14  1  0  0  0  0
 37 14  1  0  0  0  0
 41 21  1  0  0  0  0
 45 24  1  0  0  0  0
M  END
>  <Pose>
1

>  <Score>
-6.24

$$$$
