
 OpenBabel03232203513D

 50 53  0  0  0  0  0  0  0  0999 V2000
    5.8210    3.7230  -13.3890 B   0  0  0  0  0  0  0  0  0  0  0  0
    4.5060    5.0840  -13.2010 C   0  0  0  0  0  0  0  0  0  0  0  0
    3.2550    4.7800  -12.6860 C   0  0  0  0  0  0  0  0  0  0  0  0
    2.2770    5.7490  -12.5370 C   0  0  0  0  0  0  0  0  0  0  0  0
    2.5010    7.0560  -12.8940 C   0  0  0  0  0  0  0  0  0  0  0  0
    3.7530    7.3470  -13.4060 C   0  0  0  0  0  0  0  0  0  0  0  0
    4.7350    6.3940  -13.5590 C   0  0  0  0  0  0  0  0  0  0  0  0
    1.4730    8.0820  -12.7360 C   0  0  0  0  0  0  0  0  0  0  0  0
    1.1220    8.3980  -11.5880 O   0  0  0  0  0  0  0  0  0  0  0  0
    0.8560    8.7380  -13.9310 C   0  0  0  0  0  0  0  0  0  0  0  0
    0.3600   10.0570  -13.6580 N   0  0  0  0  0  0  0  0  0  0  0  0
    1.0810   11.1670  -13.4290 C   0  0  0  0  0  0  0  0  0  0  0  0
    0.2340   12.2340  -13.1980 C   0  0  0  0  0  0  0  0  0  0  0  0
   -1.0000   11.7240  -13.2950 N   0  0  0  0  0  0  0  0  0  0  0  0
   -0.9550   10.4080  -13.5720 C   0  0  0  0  0  0  0  0  0  0  0  0
   -2.0250    9.4990  -13.7470 N   0  0  0  0  0  0  0  0  0  0  0  0
   -3.3490   10.0100  -13.9030 C   0  0  0  0  0  0  0  0  0  0  0  0
   -4.3760    9.0790  -14.4310 C   0  0  0  0  0  0  0  0  0  0  0  0
   -4.1250    7.6840  -14.2160 N   0  0  0  0  0  0  0  0  0  0  0  0
   -2.7830    7.3940  -14.6840 C   0  0  0  0  0  0  0  0  0  0  0  0
   -1.7740    8.0910  -13.7710 C   0  0  0  0  0  0  0  0  0  0  0  0
   -4.3470    7.2600  -12.8630 C   0  0  0  0  0  0  0  0  0  0  0  0
    0.7380   13.4550  -12.9430 N   0  0  0  0  0  0  0  0  0  0  0  0
    2.0670   13.6550  -12.9100 C   0  0  0  0  0  0  0  0  0  0  0  0
    2.5800   14.7770  -12.6760 O   0  0  0  0  0  0  0  0  0  0  0  0
    2.9140   12.6120  -13.1360 N   0  0  0  0  0  0  0  0  0  0  0  0
    2.4580   11.3740  -13.3950 C   0  0  0  0  0  0  0  0  0  0  0  0
    3.2820   10.4250  -13.6030 O   0  0  0  0  0  0  0  0  0  0  0  0
   -0.1230   14.5930  -12.6980 C   0  0  0  0  0  0  0  0  0  0  0  0
    3.0740    3.7450  -12.4010 H   0  0  0  0  0  0  0  0  0  0  0  0
    1.2950    5.4770  -12.1260 H   0  0  0  0  0  0  0  0  0  0  0  0
    3.9510    8.3780  -13.6940 H   0  0  0  0  0  0  0  0  0  0  0  0
    5.7000    6.6470  -13.9620 H   0  0  0  0  0  0  0  0  0  0  0  0
    1.5700    8.7130  -14.7820 H   0  0  0  0  0  0  0  0  0  0  0  0
    0.0130    8.0920  -14.2410 H   0  0  0  0  0  0  0  0  0  0  0  0
   -3.6610   10.3610  -12.8830 H   0  0  0  0  0  0  0  0  0  0  0  0
   -3.3370   10.9170  -14.5550 H   0  0  0  0  0  0  0  0  0  0  0  0
   -4.5720    9.2430  -15.5190 H   0  0  0  0  0  0  0  0  0  0  0  0
   -5.3420    9.2900  -13.8770 H   0  0  0  0  0  0  0  0  0  0  0  0
   -2.6820    7.8950  -15.6770 H   0  0  0  0  0  0  0  0  0  0  0  0
   -2.5370    6.3430  -14.7760 H   0  0  0  0  0  0  0  0  0  0  0  0
   -1.7960    7.6310  -12.7510 H   0  0  0  0  0  0  0  0  0  0  0  0
   -0.7820    7.8240  -14.1910 H   0  0  0  0  0  0  0  0  0  0  0  0
   -4.1490    8.1290  -12.1710 H   0  0  0  0  0  0  0  0  0  0  0  0
   -3.7120    6.4030  -12.5670 H   0  0  0  0  0  0  0  0  0  0  0  0
   -5.4020    6.9800  -12.6720 H   0  0  0  0  0  0  0  0  0  0  0  0
    3.9410   12.8100  -13.1000 H   0  0  0  0  0  0  0  0  0  0  0  0
   -0.4950   14.9230  -13.6910 H   0  0  0  0  0  0  0  0  0  0  0  0
   -1.0020   14.2610  -12.1110 H   0  0  0  0  0  0  0  0  0  0  0  0
    0.4290   15.4120  -12.1960 H   0  0  0  0  0  0  0  0  0  0  0  0
  1  2  1  0  0  0  0
  2  3  1  0  0  0  0
  3  4  2  0  0  0  0
  3 30  1  0  0  0  0
  4 31  1  0  0  0  0
  5  8  1  0  0  0  0
  5  4  1  0  0  0  0
  6  5  2  0  0  0  0
  7  6  1  0  0  0  0
  7  2  2  0  0  0  0
  8  9  2  0  0  0  0
 10 11  1  0  0  0  0
 10  8  1  0  0  0  0
 11 15  1  0  0  0  0
 11 12  1  0  0  0  0
 12 27  1  0  0  0  0
 12 13  2  0  0  0  0
 13 23  1  0  0  0  0
 14 13  1  0  0  0  0
 15 14  2  0  0  0  0
 16 15  1  0  0  0  0
 17 16  1  0  0  0  0
 17 36  1  0  0  0  0
 18 19  1  0  0  0  0
 18 17  1  0  0  0  0
 18 39  1  0  0  0  0
 19 22  1  0  0  0  0
 20 19  1  0  0  0  0
 20 21  1  0  0  0  0
 21 16  1  0  0  0  0
 21 42  1  0  0  0  0
 22 46  1  0  0  0  0
 22 45  1  0  0  0  0
 22 44  1  0  0  0  0
 23 24  1  0  0  0  0
 23 29  1  0  0  0  0
 24 25  2  0  0  0  0
 26 47  1  0  0  0  0
 26 24  1  0  0  0  0
 27 26  1  0  0  0  0
 28 27  2  0  0  0  0
 29 50  1  0  0  0  0
 29 49  1  0  0  0  0
 32  6  1  0  0  0  0
 33  7  1  0  0  0  0
 34 10  1  0  0  0  0
 35 10  1  0  0  0  0
 37 17  1  0  0  0  0
 38 18  1  0  0  0  0
 40 20  1  0  0  0  0
 41 20  1  0  0  0  0
 43 21  1  0  0  0  0
 48 29  1  0  0  0  0
M  END
>  <Pose>
1

>  <Score>
-4.72

$$$$
