
 OpenBabel03232203513D

 41 44  0  0  1  0  0  0  0  0999 V2000
   -1.9910    5.9600  -14.0230 B   0  0  0  0  0  0  0  0  0  0  0  0
   -0.7360    7.3930  -13.9110 C   0  0  0  0  0  0  0  0  0  0  0  0
   -0.9910    8.5070  -13.1420 C   0  0  0  0  0  0  0  0  0  0  0  0
   -0.1170    9.5650  -13.0300 C   0  0  0  0  0  0  0  0  0  0  0  0
    1.0770    9.5440  -13.7030 C   0  0  0  0  0  0  0  0  0  0  0  0
    1.3450    8.4280  -14.4800 C   0  0  0  0  0  0  0  0  0  0  0  0
    0.4650    7.3750  -14.5860 C   0  0  0  0  0  0  0  0  0  0  0  0
    2.0320   10.6260  -13.6280 C   0  0  0  0  0  0  0  0  0  0  0  0
    2.6300   10.9730  -14.6980 O   0  0  0  0  0  0  0  0  0  0  0  0
    2.3800   11.3730  -12.4120 C   0  0  1  0  0  0  0  0  0  0  0  0
    3.4810   12.2920  -12.6500 N   0  0  0  0  0  0  0  0  0  0  0  0
    4.3620   12.5710  -13.6750 N   0  0  0  0  0  0  0  0  0  0  0  0
    5.1940   13.5520  -13.6530 C   0  0  0  0  0  0  0  0  0  0  0  0
    5.2430   14.4210  -12.5000 C   0  0  0  0  0  0  0  0  0  0  0  0
    4.4560   14.2040  -11.4720 C   0  0  0  0  0  0  0  0  0  0  0  0
    3.5210   13.0950  -11.4300 C   0  0  1  0  0  0  0  0  0  0  0  0
    2.0840   13.4480  -11.2700 C   0  0  2  0  0  0  0  0  0  0  0  0
    1.3000   12.3430  -11.9860 C   0  0  1  0  0  0  0  0  0  0  0  0
    0.6710   13.0290  -13.1130 C   0  0  0  0  0  0  0  0  0  0  0  0
    0.1470   12.4670  -14.1140 O   0  0  0  0  0  0  0  0  0  0  0  0
    0.7450   14.4250  -12.8980 N   0  0  0  0  0  0  0  0  0  0  0  0
    1.7110   14.7220  -11.8980 C   0  0  0  0  0  0  0  0  0  0  0  0
    2.1650   15.8530  -11.6010 O   0  0  0  0  0  0  0  0  0  0  0  0
   -0.0380   15.4270  -13.5820 C   0  0  0  0  0  0  0  0  0  0  0  0
   -0.9240   16.2210  -12.6710 C   0  0  0  0  0  0  0  0  0  0  0  0
   -1.9340    8.5670  -12.5850 H   0  0  0  0  0  0  0  0  0  0  0  0
   -0.3460   10.4380  -12.4060 H   0  0  0  0  0  0  0  0  0  0  0  0
    2.2960    8.3810  -15.0330 H   0  0  0  0  0  0  0  0  0  0  0  0
    0.7120    6.5260  -15.2010 H   0  0  0  0  0  0  0  0  0  0  0  0
    2.5680   10.6770  -11.5990 H   0  0  0  0  0  0  0  0  0  0  0  0
    5.8810   13.7620  -14.4860 H   0  0  0  0  0  0  0  0  0  0  0  0
    5.9470   15.2570  -12.5070 H   0  0  0  0  0  0  0  0  0  0  0  0
    4.5020   14.8740  -10.6210 H   0  0  0  0  0  0  0  0  0  0  0  0
    3.8640   12.3790  -10.6280 H   0  0  0  0  0  0  0  0  0  0  0  0
    1.8040   13.5180  -10.1960 H   0  0  0  0  0  0  0  0  0  0  0  0
    0.5980   11.9500  -11.2430 H   0  0  0  0  0  0  0  0  0  0  0  0
   -0.6770   14.9890  -14.3830 H   0  0  0  0  0  0  0  0  0  0  0  0
    0.6250   16.1650  -14.1100 H   0  0  0  0  0  0  0  0  0  0  0  0
   -1.2280   15.6520  -11.7650 H   0  0  0  0  0  0  0  0  0  0  0  0
   -0.4430   17.1940  -12.3990 H   0  0  0  0  0  0  0  0  0  0  0  0
   -1.8710   16.5010  -13.2000 H   0  0  0  0  0  0  0  0  0  0  0  0
  1  2  1  0  0  0  0
  2  3  1  0  0  0  0
  3  4  2  0  0  0  0
  3 26  1  0  0  0  0
  4 27  1  0  0  0  0
  5  8  1  0  0  0  0
  5  4  1  0  0  0  0
  6  5  2  0  0  0  0
  7  6  1  0  0  0  0
  7  2  2  0  0  0  0
  8 10  1  0  0  0  0
  9  8  2  0  0  0  0
 10 18  1  0  0  0  0
 10 30  1  1  0  0  0
 11 10  1  0  0  0  0
 11 16  1  0  0  0  0
 12 13  2  0  0  0  0
 12 11  1  0  0  0  0
 13 14  1  0  0  0  0
 14 15  2  0  0  0  0
 15 16  1  0  0  0  0
 15 33  1  0  0  0  0
 16 17  1  0  0  0  0
 16 34  1  1  0  0  0
 17 35  1  1  0  0  0
 18 17  1  0  0  0  0
 18 36  1  1  0  0  0
 19 21  1  0  0  0  0
 19 18  1  0  0  0  0
 20 19  2  0  0  0  0
 21 22  1  0  0  0  0
 22 23  2  0  0  0  0
 22 17  1  0  0  0  0
 24 21  1  0  0  0  0
 24 25  1  0  0  0  0
 25 40  1  0  0  0  0
 25 39  1  0  0  0  0
 28  6  1  0  0  0  0
 29  7  1  0  0  0  0
 31 13  1  0  0  0  0
 32 14  1  0  0  0  0
 37 24  1  0  0  0  0
 38 24  1  0  0  0  0
 41 25  1  0  0  0  0
M  END
>  <Pose>
1

>  <Score>
-3.92

$$$$
