
 OpenBabel03232203513D

 42 45  0  0  1  0  0  0  0  0999 V2000
    2.0660   14.7960  -11.2420 B   0  0  0  0  0  0  0  0  0  0  0  0
    2.2900   13.1680  -12.1930 C   0  0  0  0  0  0  0  0  0  0  0  0
    1.2710   12.7020  -13.0060 C   0  0  0  0  0  0  0  0  0  0  0  0
    1.3810   11.5280  -13.7170 C   0  0  0  0  0  0  0  0  0  0  0  0
    2.5280   10.7690  -13.6420 C   0  0  0  0  0  0  0  0  0  0  0  0
    3.5350   11.2210  -12.8430 C   0  0  0  0  0  0  0  0  0  0  0  0
    3.4410   12.4060  -12.1170 C   0  0  0  0  0  0  0  0  0  0  0  0
    2.6130    9.5150  -14.4170 C   0  0  0  0  0  0  0  0  0  0  0  0
    3.5800    9.3440  -15.1870 O   0  0  0  0  0  0  0  0  0  0  0  0
    1.6190    8.5100  -14.3020 N   0  0  0  0  0  0  0  0  0  0  0  0
    1.4120    7.8610  -13.0490 C   0  0  2  0  0  0  0  0  0  0  0  0
    0.8740    6.4560  -13.1830 C   0  0  0  0  0  0  0  0  0  0  0  0
   -0.5560    6.6660  -13.3170 N   0  0  0  0  0  0  0  0  0  0  0  0
   -0.9130    7.9170  -12.6760 C   0  0  1  0  0  0  0  0  0  0  0  0
    0.3470    8.6210  -12.2970 C   0  0  0  0  0  0  0  0  0  0  0  0
   -1.7320    8.6750  -13.6560 C   0  0  0  0  0  0  0  0  0  0  0  0
   -1.5620    9.8910  -13.9080 O   0  0  0  0  0  0  0  0  0  0  0  0
   -2.7700    8.0160  -14.3580 N   0  0  0  0  0  0  0  0  0  0  0  0
   -2.7470    6.5920  -14.6210 C   0  0  2  0  0  0  0  0  0  0  0  0
   -4.1050    6.1940  -14.1360 C   0  0  0  0  0  0  0  0  0  0  0  0
   -4.9660    7.3510  -14.6580 C   0  0  0  0  0  0  0  0  0  0  0  0
   -3.9920    8.5000  -14.9360 C   0  0  0  0  0  0  0  0  0  0  0  0
   -1.6200    5.9340  -13.9130 C   0  0  0  0  0  0  0  0  0  0  0  0
   -1.5850    4.6600  -13.8230 O   0  0  0  0  0  0  0  0  0  0  0  0
    0.3530   13.2570  -13.1010 H   0  0  0  0  0  0  0  0  0  0  0  0
    0.5680   11.1660  -14.3590 H   0  0  0  0  0  0  0  0  0  0  0  0
    4.4400   10.6800  -12.7460 H   0  0  0  0  0  0  0  0  0  0  0  0
    4.2480   12.7540  -11.4870 H   0  0  0  0  0  0  0  0  0  0  0  0
    1.0200    8.2190  -15.1150 H   0  0  0  0  0  0  0  0  0  0  0  0
    2.3540    7.8810  -12.4680 H   0  0  0  0  0  0  0  0  0  0  0  0
    1.1080    5.9070  -12.2600 H   0  0  0  0  0  0  0  0  0  0  0  0
    1.3290    5.9460  -14.0270 H   0  0  0  0  0  0  0  0  0  0  0  0
   -1.5610    7.7530  -11.7760 H   0  0  0  0  0  0  0  0  0  0  0  0
    0.3630    9.6940  -12.4870 H   0  0  0  0  0  0  0  0  0  0  0  0
    0.5570    8.4580  -11.2040 H   0  0  0  0  0  0  0  0  0  0  0  0
   -2.6730    6.3700  -15.7060 H   0  0  0  0  0  0  0  0  0  0  0  0
   -4.4050    5.2410  -14.5860 H   0  0  0  0  0  0  0  0  0  0  0  0
   -4.1400    6.1580  -13.0140 H   0  0  0  0  0  0  0  0  0  0  0  0
   -5.7310    7.6410  -13.9090 H   0  0  0  0  0  0  0  0  0  0  0  0
   -5.4460    7.0950  -15.6130 H   0  0  0  0  0  0  0  0  0  0  0  0
   -3.8970    8.6810  -16.0240 H   0  0  0  0  0  0  0  0  0  0  0  0
   -4.3600    9.4340  -14.4690 H   0  0  0  0  0  0  0  0  0  0  0  0
  2  7  1  0  0  0  0
  2  1  1  0  0  0  0
  3  2  2  0  0  0  0
  4  5  2  0  0  0  0
  4  3  1  0  0  0  0
  5  6  1  0  0  0  0
  6 27  1  0  0  0  0
  6  7  2  0  0  0  0
  7 28  1  0  0  0  0
  8 10  1  0  0  0  0
  8  5  1  0  0  0  0
  9  8  2  0  0  0  0
 10 11  1  0  0  0  0
 11 30  1  1  0  0  0
 11 15  1  0  0  0  0
 12 11  1  0  0  0  0
 12 31  1  0  0  0  0
 13 12  1  0  0  0  0
 13 14  1  0  0  0  0
 14 15  1  0  0  0  0
 14 33  1  1  0  0  0
 15 35  1  0  0  0  0
 16 14  1  0  0  0  0
 17 16  2  0  0  0  0
 18 16  1  0  0  0  0
 19 36  1  6  0  0  0
 19 18  1  0  0  0  0
 19 20  1  0  0  0  0
 19 23  1  0  0  0  0
 20 38  1  0  0  0  0
 21 20  1  0  0  0  0
 21 39  1  0  0  0  0
 22 21  1  0  0  0  0
 22 42  1  0  0  0  0
 22 18  1  0  0  0  0
 23 24  2  0  0  0  0
 23 13  1  0  0  0  0
 25  3  1  0  0  0  0
 26  4  1  0  0  0  0
 29 10  1  0  0  0  0
 32 12  1  0  0  0  0
 34 15  1  0  0  0  0
 37 20  1  0  0  0  0
 40 21  1  0  0  0  0
 41 22  1  0  0  0  0
M  END
>  <Pose>
1

>  <Score>
-5.55

$$$$
