
 OpenBabel03232203513D

 53 56  0  0  1  0  0  0  0  0999 V2000
    6.0610    2.9150  -13.7130 B   0  0  0  0  0  0  0  0  0  0  0  0
    4.7960    4.2790  -13.2490 C   0  0  0  0  0  0  0  0  0  0  0  0
    3.5350    3.9590  -12.7980 C   0  0  0  0  0  0  0  0  0  0  0  0
    2.6250    4.9500  -12.4650 C   0  0  0  0  0  0  0  0  0  0  0  0
    2.9400    6.2870  -12.5690 C   0  0  0  0  0  0  0  0  0  0  0  0
    4.2010    6.6040  -13.0190 C   0  0  0  0  0  0  0  0  0  0  0  0
    5.1240    5.6090  -13.3560 C   0  0  0  0  0  0  0  0  0  0  0  0
    1.9930    7.3210  -12.1910 C   0  0  0  0  0  0  0  0  0  0  0  0
    1.7140    8.3890  -12.9130 C   0  0  0  0  0  0  0  0  0  0  0  0
    0.7760    9.5140  -12.6350 C   0  0  1  0  0  0  0  0  0  0  0  0
    1.4550   10.6670  -13.2500 N   0  0  0  0  0  0  0  0  0  0  0  0
    2.0860   10.1420  -14.4020 C   0  0  0  0  0  0  0  0  0  0  0  0
    2.4240   10.8090  -15.3880 O   0  0  0  0  0  0  0  0  0  0  0  0
    2.2650    8.7050  -14.2280 C   0  0  0  0  0  0  0  0  0  0  0  0
    2.7720    7.8470  -14.9920 O   0  0  0  0  0  0  0  0  0  0  0  0
    1.3970   11.9720  -12.7000 C   0  0  0  0  0  0  0  0  0  0  0  0
    0.3060   12.8700  -13.1150 C   0  0  0  0  0  0  0  0  0  0  0  0
   -0.0050   13.9470  -12.2250 N   0  0  0  0  0  4  0  0  0  0  0  0
   -0.6950   15.0490  -12.7990 C   0  0  0  0  0  0  0  0  0  0  0  0
    0.2670   16.2080  -12.9400 C   0  0  0  0  0  0  0  0  0  0  0  0
    1.5320   15.7990  -13.3540 O   0  0  0  0  0  0  0  0  0  0  0  0
    2.1840   15.0450  -12.3970 C   0  0  0  0  0  0  0  0  0  0  0  0
    1.1440   14.4270  -11.4900 C   0  0  0  0  0  0  0  0  0  0  0  0
   -0.5800    9.3080  -13.1500 C   0  0  0  0  0  0  0  0  0  0  0  0
   -1.0110    8.0360  -13.5480 C   0  0  0  0  0  0  0  0  0  0  0  0
   -2.2560    7.7780  -14.0330 C   0  0  0  0  0  0  0  0  0  0  0  0
   -3.1730    8.8050  -14.1550 C   0  0  0  0  0  0  0  0  0  0  0  0
   -2.7820   10.0570  -13.7750 C   0  0  0  0  0  0  0  0  0  0  0  0
   -1.5030   10.3210  -13.2760 C   0  0  0  0  0  0  0  0  0  0  0  0
    1.3220    7.1770  -10.9610 O   0  0  0  0  0  0  0  0  0  0  0  0
    3.2730    2.9170  -12.7110 H   0  0  0  0  0  0  0  0  0  0  0  0
    1.6280    4.7170  -12.1100 H   0  0  0  0  0  0  0  0  0  0  0  0
    4.5720    7.6130  -13.1260 H   0  0  0  0  0  0  0  0  0  0  0  0
    6.1170    5.8680  -13.7110 H   0  0  0  0  0  0  0  0  0  0  0  0
    0.7050    9.6510  -11.5360 H   0  0  0  0  0  0  0  0  0  0  0  0
    1.4060   11.8630  -11.5800 H   0  0  0  0  0  0  0  0  0  0  0  0
    2.4030   12.4520  -12.9000 H   0  0  0  0  0  0  0  0  0  0  0  0
   -0.6320   12.2340  -13.1560 H   0  0  0  0  0  0  0  0  0  0  0  0
    0.3990   13.2850  -14.1300 H   0  0  0  0  0  0  0  0  0  0  0  0
   -0.6520   13.5180  -11.4930 H   0  0  0  0  0  0  0  0  0  0  0  0
   -1.2050   14.8150  -13.7570 H   0  0  0  0  0  0  0  0  0  0  0  0
   -1.5050   15.3990  -12.0960 H   0  0  0  0  0  0  0  0  0  0  0  0
    0.2880   16.7300  -11.9590 H   0  0  0  0  0  0  0  0  0  0  0  0
   -0.1830   16.9160  -13.6700 H   0  0  0  0  0  0  0  0  0  0  0  0
    2.8510   15.6840  -11.7850 H   0  0  0  0  0  0  0  0  0  0  0  0
    2.8330   14.2790  -12.8700 H   0  0  0  0  0  0  0  0  0  0  0  0
    1.5940   13.6060  -10.8600 H   0  0  0  0  0  0  0  0  0  0  0  0
    0.8580   15.2060  -10.7560 H   0  0  0  0  0  0  0  0  0  0  0  0
   -0.3080    7.2130  -13.4620 H   0  0  0  0  0  0  0  0  0  0  0  0
   -2.5450    6.7810  -14.3280 H   0  0  0  0  0  0  0  0  0  0  0  0
   -4.1640    8.5910  -14.5420 H   0  0  0  0  0  0  0  0  0  0  0  0
   -3.4550   10.8900  -13.8470 H   0  0  0  0  0  0  0  0  0  0  0  0
   -1.2590   11.3160  -12.9980 H   0  0  0  0  0  0  0  0  0  0  0  0
  1  2  1  0  0  0  0
  2  3  1  0  0  0  0
  3 31  1  0  0  0  0
  3  4  2  0  0  0  0
  4 32  1  0  0  0  0
  5  4  1  0  0  0  0
  5  8  1  0  0  0  0
  6  5  2  0  0  0  0
  7  2  2  0  0  0  0
  7  6  1  0  0  0  0
  8 30  1  0  0  0  0
  9 10  1  0  0  0  0
  9  8  2  0  0  0  0
 10 35  1  1  0  0  0
 11 16  1  0  0  0  0
 11 10  1  0  0  0  0
 12 14  1  0  0  0  0
 12 11  1  0  0  0  0
 13 12  2  0  0  0  0
 14  9  1  0  0  0  0
 15 14  2  0  0  0  0
 16 36  1  0  0  0  0
 17 16  1  0  0  0  0
 17 18  1  0  0  0  0
 18 40  1  0  0  0  0
 18 23  1  0  0  0  0
 19 18  1  0  0  0  0
 19 42  1  0  0  0  0
 20 19  1  0  0  0  0
 20 43  1  0  0  0  0
 21 20  1  0  0  0  0
 21 22  1  0  0  0  0
 22 45  1  0  0  0  0
 22 23  1  0  0  0  0
 23 47  1  0  0  0  0
 23 48  1  0  0  0  0
 24 10  1  0  0  0  0
 25 49  1  0  0  0  0
 25 24  2  0  0  0  0
 26 25  1  0  0  0  0
 27 26  2  0  0  0  0
 27 28  1  0  0  0  0
 28 29  2  0  0  0  0
 29 24  1  0  0  0  0
 29 53  1  0  0  0  0
 33  6  1  0  0  0  0
 34  7  1  0  0  0  0
 37 16  1  0  0  0  0
 38 17  1  0  0  0  0
 39 17  1  0  0  0  0
 41 19  1  0  0  0  0
 44 20  1  0  0  0  0
 46 22  1  0  0  0  0
 50 26  1  0  0  0  0
 51 27  1  0  0  0  0
 52 28  1  0  0  0  0
M  END
>  <Pose>
1

>  <Score>
-5.28

$$$$
