
 OpenBabel03232203513D

 44 47  0  0  0  0  0  0  0  0999 V2000
   -7.3360   10.5630  -15.0840 B   0  0  0  0  0  0  0  0  0  0  0  0
   -5.7390    9.5510  -14.7400 C   0  0  0  0  0  0  0  0  0  0  0  0
   -5.5100    8.3490  -15.3700 C   0  0  0  0  0  0  0  0  0  0  0  0
   -4.3630    7.6200  -15.1210 C   0  0  0  0  0  0  0  0  0  0  0  0
   -3.3950    8.0590  -14.2330 C   0  0  0  0  0  0  0  0  0  0  0  0
   -3.6270    9.2630  -13.6060 C   0  0  0  0  0  0  0  0  0  0  0  0
   -4.7850   10.0050  -13.8530 C   0  0  0  0  0  0  0  0  0  0  0  0
   -2.1940    7.2650  -13.9980 C   0  0  0  0  0  0  0  0  0  0  0  0
   -1.0320    7.8810  -13.7530 C   0  0  0  0  0  0  0  0  0  0  0  0
   -0.8930    9.2590  -13.7070 O   0  0  0  0  0  0  0  0  0  0  0  0
    0.4190    9.6340  -13.4340 C   0  0  0  0  0  0  0  0  0  0  0  0
    1.1610    8.5000  -13.2970 C   0  0  0  0  0  0  0  0  0  0  0  0
    2.5100    8.5860  -13.0200 C   0  0  0  0  0  0  0  0  0  0  0  0
    3.0510    9.8390  -12.8940 C   0  0  0  0  0  0  0  0  0  0  0  0
    2.2900   11.0060  -13.0330 C   0  0  0  0  0  0  0  0  0  0  0  0
    0.9470   10.9410  -13.3100 C   0  0  0  0  0  0  0  0  0  0  0  0
    0.0250   12.0700  -13.4850 C   0  0  0  0  0  0  0  0  0  0  0  0
    0.5110   13.3760  -13.2630 N   0  0  0  0  0  4  0  0  0  0  0  0
    0.8530   14.0570  -14.4950 C   0  0  0  0  0  0  0  0  0  0  0  0
   -0.3830   14.7330  -15.0590 C   0  0  0  0  0  0  0  0  0  0  0  0
   -0.5960   15.9000  -14.3420 O   0  0  0  0  0  0  0  0  0  0  0  0
   -0.2220   15.6630  -13.0150 C   0  0  0  0  0  0  0  0  0  0  0  0
   -0.5220   14.2210  -12.6390 C   0  0  0  0  0  0  0  0  0  0  0  0
    2.9190   12.2440  -12.8890 O   0  0  0  0  0  0  0  0  0  0  0  0
    0.2760    7.3430  -13.4940 C   0  0  0  0  0  0  0  0  0  0  0  0
    0.5630    6.1190  -13.4510 O   0  0  0  0  0  0  0  0  0  0  0  0
   -6.2740    8.0120  -16.0620 H   0  0  0  0  0  0  0  0  0  0  0  0
   -4.1910    6.6690  -15.6220 H   0  0  0  0  0  0  0  0  0  0  0  0
   -2.9090    9.6490  -12.9110 H   0  0  0  0  0  0  0  0  0  0  0  0
   -4.9800   10.9520  -13.3650 H   0  0  0  0  0  0  0  0  0  0  0  0
   -2.1780    6.1760  -14.0070 H   0  0  0  0  0  0  0  0  0  0  0  0
    3.1150    7.6930  -12.9070 H   0  0  0  0  0  0  0  0  0  0  0  0
    4.0990    9.9390  -12.6760 H   0  0  0  0  0  0  0  0  0  0  0  0
   -0.9130   11.8590  -12.9200 H   0  0  0  0  0  0  0  0  0  0  0  0
   -0.2950   12.0300  -14.5730 H   0  0  0  0  0  0  0  0  0  0  0  0
    1.3000   13.3930  -12.5840 H   0  0  0  0  0  0  0  0  0  0  0  0
    1.7000   14.7610  -14.4000 H   0  0  0  0  0  0  0  0  0  0  0  0
    1.1460   13.2980  -15.2500 H   0  0  0  0  0  0  0  0  0  0  0  0
   -1.2330   14.0300  -14.9770 H   0  0  0  0  0  0  0  0  0  0  0  0
   -0.1560   14.9300  -16.1390 H   0  0  0  0  0  0  0  0  0  0  0  0
   -0.7940   16.3780  -12.3950 H   0  0  0  0  0  0  0  0  0  0  0  0
    0.8600   15.8900  -12.8510 H   0  0  0  0  0  0  0  0  0  0  0  0
   -0.4440   14.1370  -11.5340 H   0  0  0  0  0  0  0  0  0  0  0  0
   -1.5320   13.9710  -12.9630 H   0  0  0  0  0  0  0  0  0  0  0  0
  1  2  1  0  0  0  0
  2  7  1  0  0  0  0
  3  4  1  0  0  0  0
  3  2  2  0  0  0  0
  4  5  2  0  0  0  0
  5  8  1  0  0  0  0
  5  6  1  0  0  0  0
  6 29  1  0  0  0  0
  7  6  2  0  0  0  0
  7 30  1  0  0  0  0
  8  9  2  0  0  0  0
  9 10  1  0  0  0  0
  9 25  1  0  0  0  0
 10 11  1  0  0  0  0
 11 16  2  0  0  0  0
 11 12  1  0  0  0  0
 12 13  2  0  0  0  0
 13 32  1  0  0  0  0
 13 14  1  0  0  0  0
 14 33  1  0  0  0  0
 15 14  2  0  0  0  0
 15 24  1  0  0  0  0
 16 15  1  0  0  0  0
 17 16  1  0  0  0  0
 17 18  1  0  0  0  0
 17 34  1  0  0  0  0
 18 23  1  0  0  0  0
 18 36  1  0  0  0  0
 19 37  1  0  0  0  0
 19 18  1  0  0  0  0
 20 39  1  0  0  0  0
 20 19  1  0  0  0  0
 20 21  1  0  0  0  0
 21 22  1  0  0  0  0
 22 42  1  0  0  0  0
 22 23  1  0  0  0  0
 22 41  1  0  0  0  0
 23 43  1  0  0  0  0
 25 26  2  0  0  0  0
 25 12  1  0  0  0  0
 27  3  1  0  0  0  0
 28  4  1  0  0  0  0
 31  8  1  0  0  0  0
 35 17  1  0  0  0  0
 38 19  1  0  0  0  0
 40 20  1  0  0  0  0
 44 23  1  0  0  0  0
M  END
>  <Pose>
1

>  <Score>
-5.14

$$$$
