
 OpenBabel03232203513D

 57 60  0  0  0  0  0  0  0  0999 V2000
   -0.9120    4.3500  -14.1800 B   0  0  0  0  0  0  0  0  0  0  0  0
   -0.5570    6.2070  -13.8910 C   0  0  0  0  0  0  0  0  0  0  0  0
   -0.7000    7.0700  -14.9380 C   0  0  0  0  0  0  0  0  0  0  0  0
   -0.4440    8.4100  -14.7440 C   0  0  0  0  0  0  0  0  0  0  0  0
   -0.0430    8.9430  -13.5220 C   0  0  0  0  0  0  0  0  0  0  0  0
    0.0920    8.0550  -12.4870 C   0  0  0  0  0  0  0  0  0  0  0  0
   -0.1630    6.6850  -12.6590 C   0  0  0  0  0  0  0  0  0  0  0  0
    0.2370   10.3400  -13.3250 C   0  0  0  0  0  0  0  0  0  0  0  0
   -0.7300   11.2890  -13.5540 C   0  0  0  0  0  0  0  0  0  0  0  0
   -0.5120   12.5820  -13.4130 O   0  0  0  0  0  0  0  0  0  0  0  0
    0.6550   13.0450  -13.0430 C   0  0  0  0  0  0  0  0  0  0  0  0
    1.6460   12.1620  -12.8020 C   0  0  0  0  0  0  0  0  0  0  0  0
    2.8870   12.6190  -12.4140 C   0  0  0  0  0  0  0  0  0  0  0  0
    3.0750   13.9710  -12.2840 C   0  0  0  0  0  0  0  0  0  0  0  0
    2.0330   14.8830  -12.5380 C   0  0  0  0  0  0  0  0  0  0  0  0
    0.7970   14.4550  -12.9220 C   0  0  0  0  0  0  0  0  0  0  0  0
   -0.3680   15.2600  -13.1960 C   0  0  0  0  0  0  0  0  0  0  0  0
   -1.0820   15.9530  -12.2030 N   0  0  0  0  0  4  0  0  0  0  0  0
   -2.4800   15.7180  -12.2740 C   0  0  0  0  0  0  0  0  0  0  0  0
   -3.4110   16.7540  -11.7800 C   0  0  0  0  0  0  0  0  0  0  0  0
   -2.8390   18.0260  -11.6770 N   0  0  0  0  0  0  0  0  0  0  0  0
   -1.5640   18.1440  -11.1170 C   0  0  0  0  0  0  0  0  0  0  0  0
   -0.5950   17.2160  -11.7790 C   0  0  0  0  0  0  0  0  0  0  0  0
   -3.5280   19.1570  -12.1350 C   0  0  0  0  0  0  0  0  0  0  0  0
    2.4070   16.2040  -12.3570 O   0  0  0  0  0  0  0  0  0  0  0  0
    1.4950   10.7950  -12.9270 C   0  0  0  0  0  0  0  0  0  0  0  0
    2.4050    9.9880  -12.7050 O   0  0  0  0  0  0  0  0  0  0  0  0
   -2.0640   10.8310  -13.9730 C   0  0  0  0  0  0  0  0  0  0  0  0
   -2.5870   11.3800  -14.9750 O   0  0  0  0  0  0  0  0  0  0  0  0
   -2.7600    9.8500  -13.3370 O   0  0  0  0  0  0  0  0  0  0  0  0
   -4.1300    9.6580  -13.5990 C   0  0  0  0  0  0  0  0  0  0  0  0
   -4.2870    8.5460  -14.5980 C   0  0  0  0  0  0  0  0  0  0  0  0
   -1.0130    6.6700  -15.9110 H   0  0  0  0  0  0  0  0  0  0  0  0
   -0.5560    9.0780  -15.5610 H   0  0  0  0  0  0  0  0  0  0  0  0
    0.3970    8.3570  -11.4970 H   0  0  0  0  0  0  0  0  0  0  0  0
   -0.0530    5.9920  -11.8450 H   0  0  0  0  0  0  0  0  0  0  0  0
    3.6760   11.8940  -12.2210 H   0  0  0  0  0  0  0  0  0  0  0  0
    4.0380   14.3400  -11.9790 H   0  0  0  0  0  0  0  0  0  0  0  0
   -1.1480   14.6290  -13.7800 H   0  0  0  0  0  0  0  0  0  0  0  0
   -0.1080   16.0250  -14.0050 H   0  0  0  0  0  0  0  0  0  0  0  0
   -0.8200   15.3260  -11.2900 H   0  0  0  0  0  0  0  0  0  0  0  0
   -2.7530   15.4680  -13.3390 H   0  0  0  0  0  0  0  0  0  0  0  0
   -2.7620   14.7320  -11.7520 H   0  0  0  0  0  0  0  0  0  0  0  0
   -3.8890   16.4590  -10.7870 H   0  0  0  0  0  0  0  0  0  0  0  0
   -4.3280   16.8490  -12.4470 H   0  0  0  0  0  0  0  0  0  0  0  0
   -1.5280   17.9720  -10.0060 H   0  0  0  0  0  0  0  0  0  0  0  0
   -1.2080   19.2010  -11.2360 H   0  0  0  0  0  0  0  0  0  0  0  0
   -0.0700   17.7330  -12.6060 H   0  0  0  0  0  0  0  0  0  0  0  0
    0.2510   17.0980  -11.0120 H   0  0  0  0  0  0  0  0  0  0  0  0
   -2.8250   19.8280  -12.6730 H   0  0  0  0  0  0  0  0  0  0  0  0
   -4.2660   18.8410  -12.9290 H   0  0  0  0  0  0  0  0  0  0  0  0
   -4.1400   19.7030  -11.3900 H   0  0  0  0  0  0  0  0  0  0  0  0
   -4.7070    9.4560  -12.6600 H   0  0  0  0  0  0  0  0  0  0  0  0
   -4.5930   10.6120  -13.9910 H   0  0  0  0  0  0  0  0  0  0  0  0
   -5.0390    8.8090  -15.3900 H   0  0  0  0  0  0  0  0  0  0  0  0
   -3.2950    8.2870  -15.0070 H   0  0  0  0  0  0  0  0  0  0  0  0
   -4.6490    7.6580  -14.0160 H   0  0  0  0  0  0  0  0  0  0  0  0
  1  2  1  0  0  0  0
  2  7  1  0  0  0  0
  3  4  1  0  0  0  0
  3  2  2  0  0  0  0
  4  5  2  0  0  0  0
  5  8  1  0  0  0  0
  5  6  1  0  0  0  0
  6 35  1  0  0  0  0
  7  6  2  0  0  0  0
  7 36  1  0  0  0  0
  8 26  1  0  0  0  0
  9 10  1  0  0  0  0
  9  8  2  0  0  0  0
 10 11  1  0  0  0  0
 11 16  2  0  0  0  0
 11 12  1  0  0  0  0
 12 13  2  0  0  0  0
 13 14  1  0  0  0  0
 13 37  1  0  0  0  0
 14 38  1  0  0  0  0
 15 25  1  0  0  0  0
 15 14  2  0  0  0  0
 16 15  1  0  0  0  0
 17 16  1  0  0  0  0
 17 18  1  0  0  0  0
 18 23  1  0  0  0  0
 18 41  1  0  0  0  0
 19 18  1  0  0  0  0
 19 20  1  0  0  0  0
 19 43  1  0  0  0  0
 20 21  1  0  0  0  0
 20 44  1  0  0  0  0
 21 22  1  0  0  0  0
 22 46  1  0  0  0  0
 23 22  1  0  0  0  0
 23 49  1  0  0  0  0
 24 21  1  0  0  0  0
 24 52  1  0  0  0  0
 26 12  1  0  0  0  0
 26 27  2  0  0  0  0
 28  9  1  0  0  0  0
 28 30  1  0  0  0  0
 29 28  2  0  0  0  0
 31 30  1  0  0  0  0
 31 53  1  0  0  0  0
 32 57  1  0  0  0  0
 32 31  1  0  0  0  0
 33  3  1  0  0  0  0
 34  4  1  0  0  0  0
 39 17  1  0  0  0  0
 40 17  1  0  0  0  0
 42 19  1  0  0  0  0
 45 20  1  0  0  0  0
 47 22  1  0  0  0  0
 48 23  1  0  0  0  0
 50 24  1  0  0  0  0
 51 24  1  0  0  0  0
 54 31  1  0  0  0  0
 55 32  1  0  0  0  0
 56 32  1  0  0  0  0
M  END
>  <Pose>
1

>  <Score>
-5.21

$$$$
