
 OpenBabel03232203513D

 58 62  0  0  1  0  0  0  0  0999 V2000
    6.4240    6.3260  -13.3500 B   0  0  0  0  0  0  0  0  0  0  0  0
    4.6320    7.0160  -13.5010 C   0  0  0  0  0  0  0  0  0  0  0  0
    3.5620    6.3400  -12.9990 C   0  0  0  0  0  0  0  0  0  0  0  0
    2.2940    6.8340  -13.1080 C   0  0  0  0  0  0  0  0  0  0  0  0
    2.0270    8.0360  -13.7310 C   0  0  0  0  0  0  0  0  0  0  0  0
    3.0890    8.7090  -14.2310 C   0  0  0  0  0  0  0  0  0  0  0  0
    4.4110    8.2110  -14.1250 C   0  0  0  0  0  0  0  0  0  0  0  0
    0.6540    8.4830  -13.8140 C   0  0  0  0  0  0  0  0  0  0  0  0
   -0.4100    7.6200  -14.1280 C   0  0  0  0  0  0  0  0  0  0  0  0
   -1.5160    8.3530  -14.1020 N   0  0  0  0  0  0  0  0  0  0  0  0
   -2.8630    8.2020  -14.2880 C   0  0  0  0  0  0  0  0  0  0  0  0
   -3.3990    9.4470  -14.0770 C   0  0  0  0  0  0  0  0  0  0  0  0
   -2.3980   10.2640  -13.7840 N   0  0  0  0  0  0  0  0  0  0  0  0
   -1.2110    9.5920  -13.7970 C   0  0  1  0  0  0  0  0  0  0  0  0
    0.1380    9.7010  -13.6130 N   0  0  0  0  0  0  0  0  0  0  0  0
    0.7420   10.9480  -13.2550 C   0  0  0  0  0  0  0  0  0  0  0  0
    0.3340   11.5570  -11.9750 C   0  0  0  0  0  0  0  0  0  0  0  0
   -0.9350   12.3280  -11.9190 C   0  0  0  0  0  0  0  0  0  0  0  0
   -0.7010   13.7510  -11.8090 N   0  0  0  0  0  4  0  0  0  0  0  0
    0.5620   14.1600  -12.3490 C   0  0  0  0  0  0  0  0  0  0  0  0
    0.5670   15.5170  -12.9960 C   0  0  0  0  0  0  0  0  0  0  0  0
    1.8040   15.5490  -13.9060 C   0  0  0  0  0  0  0  0  0  0  0  0
    3.0200   15.3970  -13.0590 C   0  0  0  0  0  0  0  0  0  0  0  0
    2.9810   14.1910  -12.1490 C   0  0  0  0  0  0  0  0  0  0  0  0
    1.6890   14.1810  -11.3240 C   0  0  0  0  0  0  0  0  0  0  0  0
   -4.7740    9.6760  -14.1820 C   0  0  0  0  0  0  0  0  0  0  0  0
   -5.6150    8.6340  -14.5070 C   0  0  0  0  0  0  0  0  0  0  0  0
   -5.0530    7.3950  -14.7140 C   0  0  0  0  0  0  0  0  0  0  0  0
   -3.6870    7.1590  -14.6100 C   0  0  0  0  0  0  0  0  0  0  0  0
    3.7250    5.3750  -12.4930 H   0  0  0  0  0  0  0  0  0  0  0  0
    1.4680    6.2340  -12.6750 H   0  0  0  0  0  0  0  0  0  0  0  0
    3.0470    9.6330  -14.7350 H   0  0  0  0  0  0  0  0  0  0  0  0
    5.2500    8.7530  -14.5260 H   0  0  0  0  0  0  0  0  0  0  0  0
   -0.3440    6.5590  -14.3520 H   0  0  0  0  0  0  0  0  0  0  0  0
   -2.5360   11.2700  -13.5690 H   0  0  0  0  0  0  0  0  0  0  0  0
    0.7450   11.6610  -14.0740 H   0  0  0  0  0  0  0  0  0  0  0  0
    1.8730   10.7120  -13.0960 H   0  0  0  0  0  0  0  0  0  0  0  0
    0.1680   10.6740  -11.2680 H   0  0  0  0  0  0  0  0  0  0  0  0
    1.1670   12.1030  -11.4330 H   0  0  0  0  0  0  0  0  0  0  0  0
   -1.5950   12.0420  -11.0740 H   0  0  0  0  0  0  0  0  0  0  0  0
   -1.4430   12.1770  -12.9130 H   0  0  0  0  0  0  0  0  0  0  0  0
   -1.4610   14.3600  -12.0990 H   0  0  0  0  0  0  0  0  0  0  0  0
   -0.6180   13.9400  -10.7440 H   0  0  0  0  0  0  0  0  0  0  0  0
    0.9230   13.4320  -13.1360 H   0  0  0  0  0  0  0  0  0  0  0  0
   -0.3380   15.7580  -13.5520 H   0  0  0  0  0  0  0  0  0  0  0  0
    0.7800   16.2900  -12.2030 H   0  0  0  0  0  0  0  0  0  0  0  0
    1.7180   14.7210  -14.6550 H   0  0  0  0  0  0  0  0  0  0  0  0
    1.8550   16.5310  -14.4080 H   0  0  0  0  0  0  0  0  0  0  0  0
    3.8930   15.2660  -13.7290 H   0  0  0  0  0  0  0  0  0  0  0  0
    3.1670   16.3170  -12.4660 H   0  0  0  0  0  0  0  0  0  0  0  0
    3.8350   14.2770  -11.4580 H   0  0  0  0  0  0  0  0  0  0  0  0
    3.0180   13.2910  -12.7640 H   0  0  0  0  0  0  0  0  0  0  0  0
    1.6470   15.1240  -10.7240 H   0  0  0  0  0  0  0  0  0  0  0  0
    1.6530   13.2630  -10.7400 H   0  0  0  0  0  0  0  0  0  0  0  0
   -5.2030   10.6480  -14.0190 H   0  0  0  0  0  0  0  0  0  0  0  0
   -6.7020    8.7740  -14.5990 H   0  0  0  0  0  0  0  0  0  0  0  0
   -5.7080    6.5820  -14.9660 H   0  0  0  0  0  0  0  0  0  0  0  0
   -3.2510    6.1940  -14.7710 H   0  0  0  0  0  0  0  0  0  0  0  0
  2  1  1  0  0  0  0
  2  3  1  0  0  0  0
  3 30  1  0  0  0  0
  4  3  2  0  0  0  0
  4 31  1  0  0  0  0
  5  4  1  0  0  0  0
  6  7  1  0  0  0  0
  6  5  2  0  0  0  0
  7  2  2  0  0  0  0
  8  5  1  0  0  0  0
  8 15  1  0  0  0  0
  9 10  1  0  0  0  0
  9  8  2  0  0  0  0
 11 10  1  0  0  0  0
 11 12  1  0  0  0  0
 12 13  1  0  0  0  0
 13 35  1  0  0  0  0
 14 10  1  1  0  0  0
 14 13  1  0  0  0  0
 14 15  1  0  0  0  0
 15 16  1  0  0  0  0
 16 37  1  0  0  0  0
 16 17  1  0  0  0  0
 17 18  1  0  0  0  0
 17 39  1  0  0  0  0
 17 38  1  0  0  0  0
 18 19  1  0  0  0  0
 18 40  1  0  0  0  0
 19 43  1  0  0  0  0
 20 19  1  0  0  0  0
 20 25  1  0  0  0  0
 21 20  1  0  0  0  0
 21 46  1  0  0  0  0
 22 23  1  0  0  0  0
 22 21  1  0  0  0  0
 23 50  1  0  0  0  0
 23 24  1  0  0  0  0
 24 51  1  0  0  0  0
 24 25  1  0  0  0  0
 25 54  1  0  0  0  0
 25 53  1  0  0  0  0
 26 12  2  0  0  0  0
 26 55  1  0  0  0  0
 27 26  1  0  0  0  0
 28 29  1  0  0  0  0
 28 27  2  0  0  0  0
 29 11  2  0  0  0  0
 32  6  1  0  0  0  0
 33  7  1  0  0  0  0
 34  9  1  0  0  0  0
 36 16  1  0  0  0  0
 41 18  1  0  0  0  0
 42 19  1  0  0  0  0
 44 20  1  0  0  0  0
 45 21  1  0  0  0  0
 47 22  1  0  0  0  0
 48 22  1  0  0  0  0
 49 23  1  0  0  0  0
 52 24  1  0  0  0  0
 56 27  1  0  0  0  0
 57 28  1  0  0  0  0
 58 29  1  0  0  0  0
M  END
>  <Pose>
1

>  <Score>
-4.76

$$$$
