
 OpenBabel03232203513D

 61 64  0  0  1  0  0  0  0  0999 V2000
    6.8560    5.5700  -13.2990 B   0  0  0  0  0  0  0  0  0  0  0  0
    5.1130    6.3670  -13.3870 C   0  0  0  0  0  0  0  0  0  0  0  0
    4.8760    7.4570  -14.1850 C   0  0  0  0  0  0  0  0  0  0  0  0
    3.6000    8.0390  -14.2480 C   0  0  0  0  0  0  0  0  0  0  0  0
    2.5400    7.5730  -13.5380 C   0  0  0  0  0  0  0  0  0  0  0  0
    2.8030    6.4630  -12.7340 C   0  0  0  0  0  0  0  0  0  0  0  0
    4.0590    5.8820  -12.6660 C   0  0  0  0  0  0  0  0  0  0  0  0
    1.1960    8.1500  -13.5140 C   0  0  0  0  0  0  0  0  0  0  0  0
    0.0750    7.5320  -14.0980 C   0  0  0  0  0  0  0  0  0  0  0  0
   -1.0290    8.2600  -13.8970 N   0  0  0  0  0  0  0  0  0  0  0  0
   -2.3630    8.3180  -14.1280 C   0  0  0  0  0  0  0  0  0  0  0  0
   -2.8030    9.4800  -13.5420 C   0  0  0  0  0  0  0  0  0  0  0  0
   -1.7300   10.0950  -12.9710 N   0  0  0  0  0  0  0  0  0  0  0  0
   -0.6480    9.3280  -13.2020 C   0  0  1  0  0  0  0  0  0  0  0  0
    0.7110    9.2650  -12.9650 N   0  0  0  0  0  0  0  0  0  0  0  0
    1.4200   10.2770  -12.2100 C   0  0  0  0  0  0  0  0  0  0  0  0
    2.7380   10.6890  -12.8220 C   0  0  0  0  0  0  0  0  0  0  0  0
    3.0370   12.1420  -12.5510 C   0  0  0  0  0  0  0  0  0  0  0  0
    2.5280   12.6420  -11.3030 N   0  0  0  0  0  0  0  0  0  0  0  0
    1.1110   12.3150  -11.2920 C   0  0  0  0  0  0  0  0  0  0  0  0
    0.2230   13.4180  -10.8550 C   0  0  0  0  0  0  0  0  0  0  0  0
    0.5010   14.7130  -11.4140 N   0  0  0  0  0  4  0  0  0  0  0  0
    1.8560   14.8510  -11.9070 C   0  0  0  0  0  0  0  0  0  0  0  0
    2.7690   14.0190  -11.0300 C   0  0  0  0  0  0  0  0  0  0  0  0
   -0.5150   15.1360  -12.3250 C   0  0  0  0  0  0  0  0  0  0  0  0
   -0.6090   16.6040  -12.5650 C   0  0  0  0  0  0  0  0  0  0  0  0
   -1.1050   17.3210  -11.4780 O   0  0  0  0  0  0  0  0  0  0  0  0
   -4.1450    9.7830  -13.6320 C   0  0  0  0  0  0  0  0  0  0  0  0
   -5.0410    8.9510  -14.2920 C   0  0  0  0  0  0  0  0  0  0  0  0
   -4.6000    7.7910  -14.8770 C   0  0  0  0  0  0  0  0  0  0  0  0
   -3.2370    7.4840  -14.7850 C   0  0  0  0  0  0  0  0  0  0  0  0
    5.6840    7.8700  -14.7710 H   0  0  0  0  0  0  0  0  0  0  0  0
    3.5180    8.8670  -14.9090 H   0  0  0  0  0  0  0  0  0  0  0  0
    1.9880    6.0670  -12.1530 H   0  0  0  0  0  0  0  0  0  0  0  0
    4.2140    5.0290  -12.0300 H   0  0  0  0  0  0  0  0  0  0  0  0
    0.1160    6.5840  -14.6450 H   0  0  0  0  0  0  0  0  0  0  0  0
   -1.7740   11.0000  -12.4550 H   0  0  0  0  0  0  0  0  0  0  0  0
    0.7900   11.2470  -12.2500 H   0  0  0  0  0  0  0  0  0  0  0  0
    1.5150   10.0910  -11.1590 H   0  0  0  0  0  0  0  0  0  0  0  0
    3.5170   10.1170  -12.2360 H   0  0  0  0  0  0  0  0  0  0  0  0
    2.8810   10.4050  -13.8590 H   0  0  0  0  0  0  0  0  0  0  0  0
    2.6120   12.7850  -13.3500 H   0  0  0  0  0  0  0  0  0  0  0  0
    4.1530   12.2960  -12.6330 H   0  0  0  0  0  0  0  0  0  0  0  0
    0.7520   11.8650  -12.2330 H   0  0  0  0  0  0  0  0  0  0  0  0
    1.0140   11.4910  -10.5260 H   0  0  0  0  0  0  0  0  0  0  0  0
    0.1800   13.4320   -9.7260 H   0  0  0  0  0  0  0  0  0  0  0  0
   -0.8270   13.1200  -11.1490 H   0  0  0  0  0  0  0  0  0  0  0  0
    0.4480   15.3970  -10.5950 H   0  0  0  0  0  0  0  0  0  0  0  0
    2.1790   15.9140  -11.7980 H   0  0  0  0  0  0  0  0  0  0  0  0
    2.0050   14.5490  -12.9390 H   0  0  0  0  0  0  0  0  0  0  0  0
    2.5650   14.2150   -9.9440 H   0  0  0  0  0  0  0  0  0  0  0  0
    3.7940   14.3300  -11.2090 H   0  0  0  0  0  0  0  0  0  0  0  0
   -1.5490   14.7950  -12.0310 H   0  0  0  0  0  0  0  0  0  0  0  0
   -0.3440   14.6440  -13.3220 H   0  0  0  0  0  0  0  0  0  0  0  0
    0.4540   16.9680  -12.6920 H   0  0  0  0  0  0  0  0  0  0  0  0
   -1.1140   16.8740  -13.5110 H   0  0  0  0  0  0  0  0  0  0  0  0
   -1.1960   16.7320  -10.7080 H   0  0  0  0  0  0  0  0  0  0  0  0
   -4.5310   10.6860  -13.1850 H   0  0  0  0  0  0  0  0  0  0  0  0
   -6.0870    9.1820  -14.3660 H   0  0  0  0  0  0  0  0  0  0  0  0
   -5.2930    7.1410  -15.3910 H   0  0  0  0  0  0  0  0  0  0  0  0
   -2.8710    6.5780  -15.2380 H   0  0  0  0  0  0  0  0  0  0  0  0
  2  1  1  0  0  0  0
  2  7  1  0  0  0  0
  3  2  2  0  0  0  0
  4  3  1  0  0  0  0
  4  5  2  0  0  0  0
  5  8  1  0  0  0  0
  5  6  1  0  0  0  0
  6  7  2  0  0  0  0
  6 34  1  0  0  0  0
  7 35  1  0  0  0  0
  8 15  1  0  0  0  0
  9 10  1  0  0  0  0
  9  8  2  0  0  0  0
 11 10  1  0  0  0  0
 11 12  1  0  0  0  0
 12 13  1  0  0  0  0
 13 37  1  0  0  0  0
 14 10  1  1  0  0  0
 14 13  1  0  0  0  0
 14 15  1  0  0  0  0
 15 16  1  0  0  0  0
 16 39  1  0  0  0  0
 17 18  1  0  0  0  0
 17 40  1  0  0  0  0
 17 16  1  0  0  0  0
 18 19  1  0  0  0  0
 19 20  1  0  0  0  0
 19 24  1  0  0  0  0
 20 45  1  0  0  0  0
 21 46  1  0  0  0  0
 22 21  1  0  0  0  0
 22 48  1  0  0  0  0
 23 49  1  0  0  0  0
 23 22  1  0  0  0  0
 23 24  1  0  0  0  0
 24 51  1  0  0  0  0
 25 53  1  0  0  0  0
 25 22  1  0  0  0  0
 26 25  1  0  0  0  0
 26 27  1  0  0  0  0
 27 57  1  0  0  0  0
 28 12  2  0  0  0  0
 28 58  1  0  0  0  0
 29 28  1  0  0  0  0
 30 31  1  0  0  0  0
 30 29  2  0  0  0  0
 31 11  2  0  0  0  0
 32  3  1  0  0  0  0
 33  4  1  0  0  0  0
 36  9  1  0  0  0  0
 38 16  1  0  0  0  0
 41 17  1  0  0  0  0
 42 18  1  0  0  0  0
 43 18  1  0  0  0  0
 44 20  1  0  0  0  0
 47 21  1  0  0  0  0
 50 23  1  0  0  0  0
 52 24  1  0  0  0  0
 54 25  1  0  0  0  0
 55 26  1  0  0  0  0
 56 26  1  0  0  0  0
 59 29  1  0  0  0  0
 60 30  1  0  0  0  0
 61 31  1  0  0  0  0
M  END
>  <Pose>
1

>  <Score>
-5.79

$$$$
