
 OpenBabel03232203513D

 63 66  0  0  1  0  0  0  0  0999 V2000
   -3.6930    7.1690  -14.6840 B   0  0  0  0  0  0  0  0  0  0  0  0
   -1.9060    7.6210  -14.1440 C   0  0  0  0  0  0  0  0  0  0  0  0
   -0.8380    6.9600  -14.7090 C   0  0  0  0  0  0  0  0  0  0  0  0
    0.4730    7.2720  -14.3350 C   0  0  0  0  0  0  0  0  0  0  0  0
    0.7310    8.2440  -13.3930 C   0  0  0  0  0  0  0  0  0  0  0  0
   -0.3640    8.8810  -12.8530 C   0  0  0  0  0  0  0  0  0  0  0  0
   -1.6580    8.5870  -13.2090 C   0  0  0  0  0  0  0  0  0  0  0  0
    2.1060    8.5700  -13.0040 C   0  0  2  0  0  0  0  0  0  0  0  0
    2.6540    9.6840  -13.7280 N   0  0  0  0  0  0  0  0  0  0  0  0
    3.8660    9.3320  -14.3670 C   0  0  0  0  0  0  0  0  0  0  0  0
    4.6280   10.0670  -15.0680 O   0  0  0  0  0  0  0  0  0  0  0  0
    4.1520    7.9040  -14.0990 C   0  0  0  0  0  0  0  0  0  0  0  0
    5.1520    7.2790  -14.5180 O   0  0  0  0  0  0  0  0  0  0  0  0
    3.0540    7.4400  -13.2780 C   0  0  0  0  0  0  0  0  0  0  0  0
    2.9740    6.2090  -12.8220 C   0  0  0  0  0  0  0  0  0  0  0  0
    1.8900    5.8930  -11.9760 O   0  0  0  0  0  0  0  0  0  0  0  0
    3.8900    5.1340  -13.1100 C   0  0  0  0  0  0  0  0  0  0  0  0
    5.2290    5.1430  -12.9370 C   0  0  0  0  0  0  0  0  0  0  0  0
    5.9870    4.0270  -13.2220 C   0  0  0  0  0  0  0  0  0  0  0  0
    5.4490    2.8490  -13.6930 C   0  0  0  0  0  0  0  0  0  0  0  0
    4.0780    2.8660  -13.8630 C   0  0  0  0  0  0  0  0  0  0  0  0
    3.2980    3.9560  -13.5900 C   0  0  0  0  0  0  0  0  0  0  0  0
    6.2190    1.7280  -13.9790 O   0  0  0  0  0  0  0  0  0  0  0  0
    7.2500    1.8030  -14.9520 C   0  0  0  0  0  0  0  0  0  0  0  0
    7.4710    4.0860  -13.0110 C   0  0  0  0  0  0  0  0  0  0  0  0
    2.0290   10.9940  -13.7750 C   0  0  0  0  0  0  0  0  0  0  0  0
    2.8840   12.0840  -13.1900 C   0  0  0  0  0  0  0  0  0  0  0  0
    2.2780   12.6590  -11.9460 C   0  0  0  0  0  0  0  0  0  0  0  0
    1.5850   13.8940  -12.1730 N   0  0  0  0  0  4  0  0  0  0  0  0
    1.5690   14.7640  -11.0140 C   0  0  0  0  0  0  0  0  0  0  0  0
    1.0220   16.1160  -11.4860 C   0  0  0  0  0  0  0  0  0  0  0  0
    0.4930   16.0120  -12.7640 O   0  0  0  0  0  0  0  0  0  0  0  0
   -0.4510   14.9630  -12.8180 C   0  0  0  0  0  0  0  0  0  0  0  0
    0.2650   13.6250  -12.6680 C   0  0  0  0  0  0  0  0  0  0  0  0
   -1.0250    6.1960  -15.4500 H   0  0  0  0  0  0  0  0  0  0  0  0
    1.3130    6.7570  -14.7750 H   0  0  0  0  0  0  0  0  0  0  0  0
   -0.1440    9.6560  -12.1000 H   0  0  0  0  0  0  0  0  0  0  0  0
   -2.4740    9.1130  -12.7570 H   0  0  0  0  0  0  0  0  0  0  0  0
    2.1110    8.8480  -11.9320 H   0  0  0  0  0  0  0  0  0  0  0  0
    5.6960    6.0690  -12.5850 H   0  0  0  0  0  0  0  0  0  0  0  0
    3.6520    1.9220  -14.2420 H   0  0  0  0  0  0  0  0  0  0  0  0
    2.2250    3.8940  -13.7480 H   0  0  0  0  0  0  0  0  0  0  0  0
    7.9620    2.6060  -14.6240 H   0  0  0  0  0  0  0  0  0  0  0  0
    7.8200    0.8780  -15.0360 H   0  0  0  0  0  0  0  0  0  0  0  0
    6.8300    2.1670  -15.9320 H   0  0  0  0  0  0  0  0  0  0  0  0
    7.8670    5.1070  -13.1880 H   0  0  0  0  0  0  0  0  0  0  0  0
    7.9270    3.3320  -13.6760 H   0  0  0  0  0  0  0  0  0  0  0  0
    7.6370    3.7360  -11.9650 H   0  0  0  0  0  0  0  0  0  0  0  0
    1.0750   10.9590  -13.1940 H   0  0  0  0  0  0  0  0  0  0  0  0
    1.7740   11.2890  -14.8140 H   0  0  0  0  0  0  0  0  0  0  0  0
    3.0300   12.8670  -13.9710 H   0  0  0  0  0  0  0  0  0  0  0  0
    3.8520   11.6220  -12.9180 H   0  0  0  0  0  0  0  0  0  0  0  0
    1.5420   11.9690  -11.4860 H   0  0  0  0  0  0  0  0  0  0  0  0
    3.0800   12.8140  -11.1970 H   0  0  0  0  0  0  0  0  0  0  0  0
    2.0980   14.4320  -12.9330 H   0  0  0  0  0  0  0  0  0  0  0  0
    2.5930   14.9340  -10.6790 H   0  0  0  0  0  0  0  0  0  0  0  0
    0.8800   14.3930  -10.2470 H   0  0  0  0  0  0  0  0  0  0  0  0
    0.2850   16.5220  -10.7810 H   0  0  0  0  0  0  0  0  0  0  0  0
    1.8520   16.8710  -11.5610 H   0  0  0  0  0  0  0  0  0  0  0  0
   -0.8810   15.0260  -13.8490 H   0  0  0  0  0  0  0  0  0  0  0  0
   -1.2670   15.0950  -12.1040 H   0  0  0  0  0  0  0  0  0  0  0  0
   -0.2520   12.9760  -11.9260 H   0  0  0  0  0  0  0  0  0  0  0  0
    0.3780   13.1410  -13.6650 H   0  0  0  0  0  0  0  0  0  0  0  0
  1  2  1  0  0  0  0
  2  7  1  0  0  0  0
  3  4  1  0  0  0  0
  3  2  2  0  0  0  0
  4  5  2  0  0  0  0
  5  8  1  0  0  0  0
  5  6  1  0  0  0  0
  6 37  1  0  0  0  0
  7  6  2  0  0  0  0
  7 38  1  0  0  0  0
  8 39  1  1  0  0  0
  9  8  1  0  0  0  0
 10 12  1  0  0  0  0
 10  9  1  0  0  0  0
 11 10  2  0  0  0  0
 12 14  1  0  0  0  0
 13 12  2  0  0  0  0
 14  8  1  0  0  0  0
 14 15  2  0  0  0  0
 15 16  1  0  0  0  0
 17 18  1  0  0  0  0
 17 15  1  0  0  0  0
 18 40  1  0  0  0  0
 19 25  1  0  0  0  0
 19 18  2  0  0  0  0
 20 19  1  0  0  0  0
 21 20  2  0  0  0  0
 21 22  1  0  0  0  0
 22 17  2  0  0  0  0
 23 20  1  0  0  0  0
 24 43  1  0  0  0  0
 24 23  1  0  0  0  0
 25 48  1  0  0  0  0
 26  9  1  0  0  0  0
 26 49  1  0  0  0  0
 26 27  1  0  0  0  0
 27 52  1  0  0  0  0
 27 28  1  0  0  0  0
 28 53  1  0  0  0  0
 28 54  1  0  0  0  0
 29 28  1  0  0  0  0
 29 30  1  0  0  0  0
 30 56  1  0  0  0  0
 30 57  1  0  0  0  0
 31 30  1  0  0  0  0
 31 58  1  0  0  0  0
 32 31  1  0  0  0  0
 33 32  1  0  0  0  0
 33 34  1  0  0  0  0
 33 61  1  0  0  0  0
 34 29  1  0  0  0  0
 34 62  1  0  0  0  0
 35  3  1  0  0  0  0
 36  4  1  0  0  0  0
 41 21  1  0  0  0  0
 42 22  1  0  0  0  0
 44 24  1  0  0  0  0
 45 24  1  0  0  0  0
 46 25  1  0  0  0  0
 47 25  1  0  0  0  0
 50 26  1  0  0  0  0
 51 27  1  0  0  0  0
 55 29  1  0  0  0  0
 59 31  1  0  0  0  0
 60 33  1  0  0  0  0
 63 34  1  0  0  0  0
M  END
>  <Pose>
1

>  <Score>
-6.31

$$$$
