
 OpenBabel03232203513D

 56 59  0  0  1  0  0  0  0  0999 V2000
   -1.7200    5.4300  -13.8970 B   0  0  0  0  0  0  0  0  0  0  0  0
   -0.6140    6.9790  -13.6910 C   0  0  0  0  0  0  0  0  0  0  0  0
   -0.6090    7.7170  -12.5270 C   0  0  0  0  0  0  0  0  0  0  0  0
    0.1870    8.8190  -12.4030 C   0  0  0  0  0  0  0  0  0  0  0  0
    1.0320    9.2550  -13.4350 C   0  0  0  0  0  0  0  0  0  0  0  0
    1.0240    8.5280  -14.5720 C   0  0  0  0  0  0  0  0  0  0  0  0
    0.2120    7.4020  -14.7050 C   0  0  0  0  0  0  0  0  0  0  0  0
    1.8190   10.4020  -13.1880 C   0  0  1  0  0  0  0  0  0  0  0  0
    3.0920   10.7030  -13.6840 N   0  0  0  0  0  0  0  0  0  0  0  0
    3.4960   11.8880  -12.8980 C   0  0  0  0  0  0  0  0  0  0  0  0
    4.6680   12.2220  -12.5710 O   0  0  0  0  0  0  0  0  0  0  0  0
    2.2340   12.5710  -12.5970 C   0  0  0  0  0  0  0  0  0  0  0  0
    2.0590   13.6490  -11.9510 O   0  0  0  0  0  0  0  0  0  0  0  0
    1.1770   11.7450  -13.2110 C   0  0  0  0  0  0  0  0  0  0  0  0
    0.0180   12.1450  -13.6860 C   0  0  0  0  0  0  0  0  0  0  0  0
   -0.8400   11.2420  -14.3010 O   0  0  0  0  0  0  0  0  0  0  0  0
   -0.4440   13.5210  -13.5960 C   0  0  0  0  0  0  0  0  0  0  0  0
    0.2030   14.6170  -14.0730 C   0  0  0  0  0  0  0  0  0  0  0  0
   -0.3710   15.8760  -13.9620 C   0  0  0  0  0  0  0  0  0  0  0  0
   -1.6020   16.0310  -13.3660 C   0  0  0  0  0  0  0  0  0  0  0  0
   -2.2880   14.9480  -12.8700 C   0  0  0  0  0  0  0  0  0  0  0  0
   -1.6950   13.7000  -12.9930 C   0  0  0  0  0  0  0  0  0  0  0  0
   -2.2510   17.3690  -13.2280 C   0  0  0  0  0  0  0  0  0  0  0  0
    4.0380   10.1710  -14.6540 C   0  0  0  0  0  0  0  0  0  0  0  0
    5.1870    9.4140  -14.0400 C   0  0  0  0  0  0  0  0  0  0  0  0
    5.0050    8.0000  -14.0260 N   0  0  0  0  0  4  0  0  0  0  0  0
    4.0910    7.6210  -12.9650 C   0  0  0  0  0  0  0  0  0  0  0  0
    3.8920    6.1290  -13.0110 C   0  0  0  0  0  0  0  0  0  0  0  0
    5.1090    5.5570  -12.6080 O   0  0  0  0  0  0  0  0  0  0  0  0
    6.0570    5.8820  -13.5510 C   0  0  0  0  0  0  0  0  0  0  0  0
    6.2890    7.3660  -13.6640 C   0  0  0  0  0  0  0  0  0  0  0  0
   -1.2700    7.3720  -11.7290 H   0  0  0  0  0  0  0  0  0  0  0  0
    0.1550    9.3770  -11.4520 H   0  0  0  0  0  0  0  0  0  0  0  0
    1.6200    8.7230  -15.4550 H   0  0  0  0  0  0  0  0  0  0  0  0
    0.1950    6.8070  -15.6170 H   0  0  0  0  0  0  0  0  0  0  0  0
    2.0430   10.3080  -12.0150 H   0  0  0  0  0  0  0  0  0  0  0  0
    1.1940   14.5010  -14.5170 H   0  0  0  0  0  0  0  0  0  0  0  0
    0.1550   16.7390  -14.3470 H   0  0  0  0  0  0  0  0  0  0  0  0
   -3.2690   15.0490  -12.3910 H   0  0  0  0  0  0  0  0  0  0  0  0
   -2.1990   12.8120  -12.6150 H   0  0  0  0  0  0  0  0  0  0  0  0
   -2.3250   17.6880  -12.1700 H   0  0  0  0  0  0  0  0  0  0  0  0
   -1.6410   18.1370  -13.7810 H   0  0  0  0  0  0  0  0  0  0  0  0
   -3.2580   17.3790  -13.6930 H   0  0  0  0  0  0  0  0  0  0  0  0
    3.4930    9.4090  -15.2830 H   0  0  0  0  0  0  0  0  0  0  0  0
    4.4550   10.9450  -15.2910 H   0  0  0  0  0  0  0  0  0  0  0  0
    6.1310    9.6150  -14.6470 H   0  0  0  0  0  0  0  0  0  0  0  0
    5.3930    9.8030  -13.0020 H   0  0  0  0  0  0  0  0  0  0  0  0
    4.7000    7.6190  -14.9330 H   0  0  0  0  0  0  0  0  0  0  0  0
    3.1140    8.1040  -13.0000 H   0  0  0  0  0  0  0  0  0  0  0  0
    4.5450    7.9050  -11.9890 H   0  0  0  0  0  0  0  0  0  0  0  0
    3.6240    5.7840  -14.0170 H   0  0  0  0  0  0  0  0  0  0  0  0
    3.1040    5.8140  -12.3010 H   0  0  0  0  0  0  0  0  0  0  0  0
    7.0200    5.4090  -13.2210 H   0  0  0  0  0  0  0  0  0  0  0  0
    5.7810    5.4680  -14.5270 H   0  0  0  0  0  0  0  0  0  0  0  0
    6.5750    7.7960  -12.6880 H   0  0  0  0  0  0  0  0  0  0  0  0
    7.0660    7.5450  -14.4110 H   0  0  0  0  0  0  0  0  0  0  0  0
  1  2  1  0  0  0  0
  2  3  1  0  0  0  0
  3  4  2  0  0  0  0
  3 32  1  0  0  0  0
  4 33  1  0  0  0  0
  5  8  1  0  0  0  0
  5  4  1  0  0  0  0
  6  5  2  0  0  0  0
  7  6  1  0  0  0  0
  7  2  2  0  0  0  0
  8 36  1  1  0  0  0
  9  8  1  0  0  0  0
  9 10  1  0  0  0  0
 10 12  1  0  0  0  0
 10 11  2  0  0  0  0
 12 13  2  0  0  0  0
 14  8  1  0  0  0  0
 14 12  1  0  0  0  0
 15 17  1  0  0  0  0
 15 14  2  0  0  0  0
 16 15  1  0  0  0  0
 17 22  1  0  0  0  0
 18 19  1  0  0  0  0
 18 17  2  0  0  0  0
 19 20  2  0  0  0  0
 20 23  1  0  0  0  0
 20 21  1  0  0  0  0
 21 39  1  0  0  0  0
 22 21  2  0  0  0  0
 22 40  1  0  0  0  0
 23 41  1  0  0  0  0
 24 25  1  0  0  0  0
 24  9  1  0  0  0  0
 25 26  1  0  0  0  0
 25 47  1  0  0  0  0
 26 31  1  0  0  0  0
 26 27  1  0  0  0  0
 27 50  1  0  0  0  0
 28 27  1  0  0  0  0
 28 29  1  0  0  0  0
 28 52  1  0  0  0  0
 30 53  1  0  0  0  0
 30 29  1  0  0  0  0
 31 30  1  0  0  0  0
 31 55  1  0  0  0  0
 34  6  1  0  0  0  0
 35  7  1  0  0  0  0
 37 18  1  0  0  0  0
 38 19  1  0  0  0  0
 42 23  1  0  0  0  0
 43 23  1  0  0  0  0
 44 24  1  0  0  0  0
 45 24  1  0  0  0  0
 46 25  1  0  0  0  0
 48 26  1  0  0  0  0
 49 27  1  0  0  0  0
 51 28  1  0  0  0  0
 54 30  1  0  0  0  0
 56 31  1  0  0  0  0
M  END
>  <Pose>
1

>  <Score>
-4.24

$$$$
