
 OpenBabel03232203513D

 53 56  0  0  1  0  0  0  0  0999 V2000
    3.5540   13.5070  -15.1730 B   0  0  0  0  0  0  0  0  0  0  0  0
    3.0310   11.7960  -14.5270 C   0  0  0  0  0  0  0  0  0  0  0  0
    2.7330   10.7380  -15.3540 C   0  0  0  0  0  0  0  0  0  0  0  0
    2.3510    9.4900  -14.8400 C   0  0  0  0  0  0  0  0  0  0  0  0
    2.2610    9.2840  -13.4920 C   0  0  0  0  0  0  0  0  0  0  0  0
    2.5650   10.3630  -12.6880 C   0  0  0  0  0  0  0  0  0  0  0  0
    2.9420   11.5930  -13.1750 C   0  0  0  0  0  0  0  0  0  0  0  0
    1.8660    8.0530  -12.9220 C   0  0  1  0  0  0  0  0  0  0  0  0
    0.6560    7.3980  -13.2590 N   0  0  0  0  0  0  0  0  0  0  0  0
    0.7070    6.1700  -12.4710 C   0  0  0  0  0  0  0  0  0  0  0  0
   -0.2860    5.5240  -12.0380 O   0  0  0  0  0  0  0  0  0  0  0  0
    2.1260    5.8640  -12.3030 C   0  0  0  0  0  0  0  0  0  0  0  0
    2.6490    4.8930  -11.6980 O   0  0  0  0  0  0  0  0  0  0  0  0
    2.8490    6.9320  -12.9970 C   0  0  0  0  0  0  0  0  0  0  0  0
    4.0390    6.8640  -13.5680 C   0  0  0  0  0  0  0  0  0  0  0  0
    4.5540    7.9590  -14.2430 O   0  0  0  0  0  0  0  0  0  0  0  0
    4.8840    5.6790  -13.5310 C   0  0  0  0  0  0  0  0  0  0  0  0
    6.2160    5.9240  -13.1720 C   0  0  0  0  0  0  0  0  0  0  0  0
    7.1370    4.9090  -13.0510 C   0  0  0  0  0  0  0  0  0  0  0  0
    6.7150    3.6060  -13.2960 C   0  0  0  0  0  0  0  0  0  0  0  0
    5.4040    3.3730  -13.6470 C   0  0  0  0  0  0  0  0  0  0  0  0
    4.4890    4.3980  -13.7650 C   0  0  0  0  0  0  0  0  0  0  0  0
    7.8950    2.3240  -13.1400 Cl  0  0  0  0  0  0  0  0  0  0  0  0
   -0.4860    7.7470  -14.1090 C   0  0  0  0  0  0  0  0  0  0  0  0
   -1.4160    8.7570  -13.5110 C   0  0  0  0  0  0  0  0  0  0  0  0
   -2.1410    9.5120  -14.5090 N   0  0  0  0  0  4  0  0  0  0  0  0
   -3.3070   10.1630  -13.9810 C   0  0  0  0  0  0  0  0  0  0  0  0
   -4.4150    9.2220  -13.6100 C   0  0  0  0  0  0  0  0  0  0  0  0
   -4.7400    8.3550  -14.6550 O   0  0  0  0  0  0  0  0  0  0  0  0
   -3.5770    7.6200  -14.9290 C   0  0  0  0  0  0  0  0  0  0  0  0
   -2.5810    8.5840  -15.5360 C   0  0  0  0  0  0  0  0  0  0  0  0
    2.8050   10.9050  -16.4080 H   0  0  0  0  0  0  0  0  0  0  0  0
    2.1610    8.7500  -15.5960 H   0  0  0  0  0  0  0  0  0  0  0  0
    2.5220   10.2940  -11.5890 H   0  0  0  0  0  0  0  0  0  0  0  0
    3.1750   12.4180  -12.5100 H   0  0  0  0  0  0  0  0  0  0  0  0
    1.7830    8.2240  -11.7840 H   0  0  0  0  0  0  0  0  0  0  0  0
    6.5680    6.9270  -12.9770 H   0  0  0  0  0  0  0  0  0  0  0  0
    8.1580    5.1380  -12.7720 H   0  0  0  0  0  0  0  0  0  0  0  0
    5.1100    2.3530  -13.8300 H   0  0  0  0  0  0  0  0  0  0  0  0
    3.4540    4.1890  -14.0140 H   0  0  0  0  0  0  0  0  0  0  0  0
   -1.0960    6.8030  -14.2350 H   0  0  0  0  0  0  0  0  0  0  0  0
   -0.1540    8.1370  -15.0850 H   0  0  0  0  0  0  0  0  0  0  0  0
   -0.7600    9.5100  -12.9970 H   0  0  0  0  0  0  0  0  0  0  0  0
   -2.0940    8.3990  -12.7320 H   0  0  0  0  0  0  0  0  0  0  0  0
   -1.5510   10.2270  -14.9760 H   0  0  0  0  0  0  0  0  0  0  0  0
   -3.1090   10.8300  -13.1360 H   0  0  0  0  0  0  0  0  0  0  0  0
   -3.7060   10.8140  -14.8090 H   0  0  0  0  0  0  0  0  0  0  0  0
   -4.2050    8.6650  -12.6720 H   0  0  0  0  0  0  0  0  0  0  0  0
   -5.3280    9.8430  -13.4350 H   0  0  0  0  0  0  0  0  0  0  0  0
   -3.7780    6.7870  -15.6330 H   0  0  0  0  0  0  0  0  0  0  0  0
   -3.2460    7.1820  -13.9860 H   0  0  0  0  0  0  0  0  0  0  0  0
   -1.7150    8.0400  -15.9880 H   0  0  0  0  0  0  0  0  0  0  0  0
   -3.1340    9.1450  -16.3330 H   0  0  0  0  0  0  0  0  0  0  0  0
  1  2  1  0  0  0  0
  2  7  1  0  0  0  0
  3  4  1  0  0  0  0
  3  2  2  0  0  0  0
  4  5  2  0  0  0  0
  5  8  1  0  0  0  0
  5  6  1  0  0  0  0
  6 34  1  0  0  0  0
  7  6  2  0  0  0  0
  7 35  1  0  0  0  0
  8 36  1  1  0  0  0
  9  8  1  0  0  0  0
  9 10  1  0  0  0  0
 10 12  1  0  0  0  0
 10 11  2  0  0  0  0
 12 13  2  0  0  0  0
 14  8  1  0  0  0  0
 14 12  1  0  0  0  0
 15 17  1  0  0  0  0
 15 14  2  0  0  0  0
 16 15  1  0  0  0  0
 17 18  1  0  0  0  0
 18 19  2  0  0  0  0
 18 37  1  0  0  0  0
 19 38  1  0  0  0  0
 20 23  1  0  0  0  0
 20 19  1  0  0  0  0
 21 20  2  0  0  0  0
 22 21  1  0  0  0  0
 22 17  2  0  0  0  0
 24 25  1  0  0  0  0
 24  9  1  0  0  0  0
 25 43  1  0  0  0  0
 25 44  1  0  0  0  0
 26 27  1  0  0  0  0
 26 25  1  0  0  0  0
 27 28  1  0  0  0  0
 27 46  1  0  0  0  0
 28 49  1  0  0  0  0
 28 48  1  0  0  0  0
 29 28  1  0  0  0  0
 30 29  1  0  0  0  0
 30 51  1  0  0  0  0
 31 30  1  0  0  0  0
 31 26  1  0  0  0  0
 32  3  1  0  0  0  0
 33  4  1  0  0  0  0
 39 21  1  0  0  0  0
 40 22  1  0  0  0  0
 41 24  1  0  0  0  0
 42 24  1  0  0  0  0
 45 26  1  0  0  0  0
 47 27  1  0  0  0  0
 50 30  1  0  0  0  0
 52 31  1  0  0  0  0
 53 31  1  0  0  0  0
M  END
>  <Pose>
1

>  <Score>
-3.59

$$$$
