
 OpenBabel03232203513D

 55 58  0  0  1  0  0  0  0  0999 V2000
    5.2070    5.5080  -13.2740 B   0  0  0  0  0  0  0  0  0  0  0  0
    3.5420    6.4340  -13.1480 C   0  0  0  0  0  0  0  0  0  0  0  0
    3.3240    7.6410  -13.7750 C   0  0  0  0  0  0  0  0  0  0  0  0
    2.1130    8.3000  -13.6730 C   0  0  0  0  0  0  0  0  0  0  0  0
    1.0760    7.8050  -12.9570 C   0  0  0  0  0  0  0  0  0  0  0  0
    1.3110    6.5730  -12.3230 C   0  0  0  0  0  0  0  0  0  0  0  0
    2.5080    5.9000  -12.4110 C   0  0  0  0  0  0  0  0  0  0  0  0
   -0.2250    8.4120  -12.7600 C   0  0  1  0  0  0  0  0  0  0  0  0
   -0.3330    9.8330  -12.8460 N   0  0  0  0  0  0  0  0  0  0  0  0
   -1.7350   10.1020  -13.1090 C   0  0  0  0  0  0  0  0  0  0  0  0
   -2.3020   11.2050  -12.8960 O   0  0  0  0  0  0  0  0  0  0  0  0
   -2.3260    8.8920  -13.6460 C   0  0  0  0  0  0  0  0  0  0  0  0
   -3.5290    8.7100  -14.0090 O   0  0  0  0  0  0  0  0  0  0  0  0
   -1.2650    7.9060  -13.6940 C   0  0  0  0  0  0  0  0  0  0  0  0
   -1.2490    6.8200  -14.4460 C   0  0  0  0  0  0  0  0  0  0  0  0
   -0.0810    6.0230  -14.3640 O   0  0  0  0  0  0  0  0  0  0  0  0
   -2.3320    6.4080  -15.3170 C   0  0  0  0  0  0  0  0  0  0  0  0
   -2.4000    7.0510  -16.5600 C   0  0  0  0  0  0  0  0  0  0  0  0
   -3.3520    6.7280  -17.5040 C   0  0  0  0  0  0  0  0  0  0  0  0
   -4.2530    5.7650  -17.2350 N   0  0  0  0  0  0  0  0  0  0  0  0
   -4.2100    5.1290  -16.0460 C   0  0  0  0  0  0  0  0  0  0  0  0
   -3.2530    5.4460  -15.0850 C   0  0  0  0  0  0  0  0  0  0  0  0
    0.6440   10.9060  -12.6480 C   0  0  0  0  0  0  0  0  0  0  0  0
    0.5110   12.0640  -13.5760 C   0  0  0  0  0  0  0  0  0  0  0  0
   -0.6720   12.9500  -13.2140 C   0  0  0  0  0  0  0  0  0  0  0  0
   -0.2980   13.9530  -12.2440 N   0  0  0  0  0  4  0  0  0  0  0  0
    1.0840   13.8420  -11.8350 C   0  0  0  0  0  0  0  0  0  0  0  0
    1.4530   15.1720  -11.1730 C   0  0  0  0  0  0  0  0  0  0  0  0
    1.6280   16.1280  -12.1730 O   0  0  0  0  0  0  0  0  0  0  0  0
    0.6720   15.9990  -13.1800 C   0  0  0  0  0  0  0  0  0  0  0  0
   -0.5690   15.2880  -12.6800 C   0  0  0  0  0  0  0  0  0  0  0  0
    4.1410    8.0510  -14.3500 H   0  0  0  0  0  0  0  0  0  0  0  0
    1.9760    9.2520  -14.2030 H   0  0  0  0  0  0  0  0  0  0  0  0
    0.5360    6.1040  -11.7300 H   0  0  0  0  0  0  0  0  0  0  0  0
    2.6470    4.9390  -11.8990 H   0  0  0  0  0  0  0  0  0  0  0  0
   -0.6230    8.1440  -11.7420 H   0  0  0  0  0  0  0  0  0  0  0  0
   -1.6980    7.8300  -16.8210 H   0  0  0  0  0  0  0  0  0  0  0  0
   -3.4120    7.2180  -18.4650 H   0  0  0  0  0  0  0  0  0  0  0  0
   -4.9370    4.3500  -15.8250 H   0  0  0  0  0  0  0  0  0  0  0  0
   -3.2480    4.8850  -14.1670 H   0  0  0  0  0  0  0  0  0  0  0  0
    1.6430   10.4590  -12.7850 H   0  0  0  0  0  0  0  0  0  0  0  0
    0.6140   11.2960  -11.6100 H   0  0  0  0  0  0  0  0  0  0  0  0
    1.4530   12.7020  -13.5650 H   0  0  0  0  0  0  0  0  0  0  0  0
    0.3740   11.7380  -14.6100 H   0  0  0  0  0  0  0  0  0  0  0  0
   -0.9990   13.4670  -14.1170 H   0  0  0  0  0  0  0  0  0  0  0  0
   -1.4330   12.3010  -12.7540 H   0  0  0  0  0  0  0  0  0  0  0  0
   -0.8810   13.7720  -11.3920 H   0  0  0  0  0  0  0  0  0  0  0  0
    1.2620   13.0630  -11.0800 H   0  0  0  0  0  0  0  0  0  0  0  0
    1.7490   13.6790  -12.6940 H   0  0  0  0  0  0  0  0  0  0  0  0
    2.3200   15.0670  -10.5240 H   0  0  0  0  0  0  0  0  0  0  0  0
    0.5710   15.4710  -10.5750 H   0  0  0  0  0  0  0  0  0  0  0  0
    0.3440   16.9970  -13.5320 H   0  0  0  0  0  0  0  0  0  0  0  0
    1.1000   15.4200  -14.0300 H   0  0  0  0  0  0  0  0  0  0  0  0
   -1.3000   15.2720  -13.4850 H   0  0  0  0  0  0  0  0  0  0  0  0
   -0.9850   15.9310  -11.8620 H   0  0  0  0  0  0  0  0  0  0  0  0
  1  2  1  0  0  0  0
  2  7  1  0  0  0  0
  3  4  1  0  0  0  0
  3  2  2  0  0  0  0
  4  5  2  0  0  0  0
  5  8  1  0  0  0  0
  5  6  1  0  0  0  0
  6 34  1  0  0  0  0
  7  6  2  0  0  0  0
  7 35  1  0  0  0  0
  8 36  1  1  0  0  0
  9  8  1  0  0  0  0
  9 23  1  0  0  0  0
 10 11  2  0  0  0  0
 10  9  1  0  0  0  0
 12 10  1  0  0  0  0
 13 12  2  0  0  0  0
 14 12  1  0  0  0  0
 14  8  1  0  0  0  0
 15 16  1  0  0  0  0
 15 14  2  0  0  0  0
 17 22  1  0  0  0  0
 17 15  1  0  0  0  0
 18 17  2  0  0  0  0
 19 20  2  0  0  0  0
 19 18  1  0  0  0  0
 20 21  1  0  0  0  0
 21 39  1  0  0  0  0
 21 22  2  0  0  0  0
 22 40  1  0  0  0  0
 23 42  1  0  0  0  0
 24 43  1  0  0  0  0
 24 25  1  0  0  0  0
 24 23  1  0  0  0  0
 25 46  1  0  0  0  0
 25 26  1  0  0  0  0
 26 27  1  0  0  0  0
 26 47  1  0  0  0  0
 27 28  1  0  0  0  0
 27 48  1  0  0  0  0
 28 51  1  0  0  0  0
 28 50  1  0  0  0  0
 29 28  1  0  0  0  0
 30 31  1  0  0  0  0
 30 29  1  0  0  0  0
 31 26  1  0  0  0  0
 31 55  1  0  0  0  0
 32  3  1  0  0  0  0
 33  4  1  0  0  0  0
 37 18  1  0  0  0  0
 38 19  1  0  0  0  0
 41 23  1  0  0  0  0
 44 24  1  0  0  0  0
 45 25  1  0  0  0  0
 49 27  1  0  0  0  0
 52 30  1  0  0  0  0
 53 30  1  0  0  0  0
 54 31  1  0  0  0  0
M  END
>  <Pose>
1

>  <Score>
-3.38

$$$$
