
 OpenBabel03232203513D

 54 57  0  0  1  0  0  0  0  0999 V2000
   -3.9860   19.2230  -11.7420 B   0  0  0  0  0  0  0  0  0  0  0  0
   -2.5420   18.0780  -12.2510 C   0  0  0  0  0  0  0  0  0  0  0  0
   -1.6280   17.7120  -11.3050 C   0  0  0  0  0  0  0  0  0  0  0  0
   -0.5840   16.8890  -11.6580 C   0  0  0  0  0  0  0  0  0  0  0  0
   -0.3850   16.3910  -12.9260 C   0  0  0  0  0  0  0  0  0  0  0  0
   -1.3380   16.7840  -13.8670 C   0  0  0  0  0  0  0  0  0  0  0  0
   -2.3870   17.6060  -13.5320 C   0  0  0  0  0  0  0  0  0  0  0  0
    0.7570   15.5020  -13.2700 C   0  0  1  0  0  0  0  0  0  0  0  0
    1.9310   15.8050  -12.4990 N   0  0  0  0  0  0  0  0  0  0  0  0
    2.0750   14.7860  -11.5250 C   0  0  0  0  0  0  0  0  0  0  0  0
    2.8700   14.8140  -10.5430 O   0  0  0  0  0  0  0  0  0  0  0  0
    1.1540   13.6900  -11.8360 C   0  0  0  0  0  0  0  0  0  0  0  0
    0.9990   12.6160  -11.2050 O   0  0  0  0  0  0  0  0  0  0  0  0
    0.4360   14.0780  -13.0380 C   0  0  0  0  0  0  0  0  0  0  0  0
   -0.3040   13.2760  -13.7870 C   0  0  0  0  0  0  0  0  0  0  0  0
   -0.8580   13.8240  -14.9600 O   0  0  0  0  0  0  0  0  0  0  0  0
   -0.6080   11.8930  -13.5170 C   0  0  0  0  0  0  0  0  0  0  0  0
    0.1280   10.7750  -13.5310 N   0  0  0  0  0  0  0  0  0  0  0  0
   -0.6270    9.7000  -13.2440 C   0  0  0  0  0  0  0  0  0  0  0  0
   -1.8790   10.1440  -13.0400 N   0  0  0  0  0  0  0  0  0  0  0  0
   -1.9040   11.4680  -13.1980 C   0  0  0  0  0  0  0  0  0  0  0  0
   -3.1130   12.3270  -13.0520 C   0  0  0  0  0  0  0  0  0  0  0  0
   -0.1250    8.4050  -13.1700 C   0  0  0  0  0  0  0  0  0  0  0  0
    1.2100    8.2150  -13.4010 C   0  0  0  0  0  0  0  0  0  0  0  0
    1.9890    9.3180  -13.6950 C   0  0  0  0  0  0  0  0  0  0  0  0
    1.4450   10.5800  -13.7580 C   0  0  0  0  0  0  0  0  0  0  0  0
    2.8330   16.9640  -12.6810 C   0  0  0  0  0  0  0  0  0  0  0  0
    2.2700   18.1730  -11.9640 C   0  0  0  0  0  0  0  0  0  0  0  0
    3.2700   19.0560  -11.4740 N   0  0  0  0  0  4  0  0  0  0  0  0
    2.7210   20.4110  -11.5080 C   0  0  0  0  0  0  0  0  0  0  0  0
    3.7300   18.7820  -10.1480 C   0  0  0  0  0  0  0  0  0  0  0  0
   -1.7030   18.0600  -10.2640 H   0  0  0  0  0  0  0  0  0  0  0  0
    0.1180   16.6230  -10.8820 H   0  0  0  0  0  0  0  0  0  0  0  0
   -1.2540   16.4370  -14.8870 H   0  0  0  0  0  0  0  0  0  0  0  0
   -3.1170   17.9030  -14.2720 H   0  0  0  0  0  0  0  0  0  0  0  0
    0.9900   15.7120  -14.3390 H   0  0  0  0  0  0  0  0  0  0  0  0
   -3.0550   12.9520  -12.1330 H   0  0  0  0  0  0  0  0  0  0  0  0
   -3.1210   12.9950  -13.9540 H   0  0  0  0  0  0  0  0  0  0  0  0
   -4.0110   11.7120  -13.0960 H   0  0  0  0  0  0  0  0  0  0  0  0
   -0.8180    7.5980  -12.9320 H   0  0  0  0  0  0  0  0  0  0  0  0
    1.6050    7.2080  -13.3450 H   0  0  0  0  0  0  0  0  0  0  0  0
    3.0580    9.1960  -13.8830 H   0  0  0  0  0  0  0  0  0  0  0  0
    2.0320   11.4630  -13.9860 H   0  0  0  0  0  0  0  0  0  0  0  0
    2.9700   17.1740  -13.7580 H   0  0  0  0  0  0  0  0  0  0  0  0
    3.7910   16.6660  -12.2370 H   0  0  0  0  0  0  0  0  0  0  0  0
    1.6390   17.7730  -11.1280 H   0  0  0  0  0  0  0  0  0  0  0  0
    1.5410   18.6690  -12.6600 H   0  0  0  0  0  0  0  0  0  0  0  0
    4.1230   19.0760  -12.1010 H   0  0  0  0  0  0  0  0  0  0  0  0
    1.8940   20.5210  -10.7930 H   0  0  0  0  0  0  0  0  0  0  0  0
    3.5370   21.1650  -11.3210 H   0  0  0  0  0  0  0  0  0  0  0  0
    2.3170   20.6670  -12.5110 H   0  0  0  0  0  0  0  0  0  0  0  0
    3.9850   19.7580   -9.6660 H   0  0  0  0  0  0  0  0  0  0  0  0
    2.9600   18.3150   -9.5000 H   0  0  0  0  0  0  0  0  0  0  0  0
    4.6890   18.2060  -10.1550 H   0  0  0  0  0  0  0  0  0  0  0  0
  2  1  1  0  0  0  0
  2  3  1  0  0  0  0
  3 32  1  0  0  0  0
  4  3  2  0  0  0  0
  4 33  1  0  0  0  0
  5  4  1  0  0  0  0
  6  7  1  0  0  0  0
  6  5  2  0  0  0  0
  7  2  2  0  0  0  0
  8 36  1  6  0  0  0
  8 14  1  0  0  0  0
  8  5  1  0  0  0  0
  8  9  1  0  0  0  0
  9 10  1  0  0  0  0
 10 11  2  0  0  0  0
 12 10  1  0  0  0  0
 12 13  2  0  0  0  0
 14 12  1  0  0  0  0
 15 17  1  0  0  0  0
 15 14  2  0  0  0  0
 16 15  1  0  0  0  0
 17 21  2  0  0  0  0
 18 17  1  0  0  0  0
 18 19  1  0  0  0  0
 19 23  1  0  0  0  0
 19 20  2  0  0  0  0
 21 22  1  0  0  0  0
 21 20  1  0  0  0  0
 22 37  1  0  0  0  0
 23 40  1  0  0  0  0
 24 41  1  0  0  0  0
 24 23  2  0  0  0  0
 25 24  1  0  0  0  0
 26 25  2  0  0  0  0
 26 18  1  0  0  0  0
 27  9  1  0  0  0  0
 27 45  1  0  0  0  0
 27 28  1  0  0  0  0
 28 29  1  0  0  0  0
 28 46  1  0  0  0  0
 29 31  1  0  0  0  0
 30 29  1  0  0  0  0
 30 50  1  0  0  0  0
 30 49  1  0  0  0  0
 31 52  1  0  0  0  0
 31 53  1  0  0  0  0
 34  6  1  0  0  0  0
 35  7  1  0  0  0  0
 38 22  1  0  0  0  0
 39 22  1  0  0  0  0
 42 25  1  0  0  0  0
 43 26  1  0  0  0  0
 44 27  1  0  0  0  0
 47 28  1  0  0  0  0
 48 29  1  0  0  0  0
 51 30  1  0  0  0  0
 54 31  1  0  0  0  0
M  END
>  <Pose>
1

>  <Score>
-3.70

$$$$
