
 OpenBabel03232203513D

 44 47  0  0  1  0  0  0  0  0999 V2000
  -11.7030   13.9050  -16.8540 B   0  0  0  0  0  0  0  0  0  0  0  0
  -10.2310   12.8190  -16.3010 C   0  0  0  0  0  0  0  0  0  0  0  0
   -9.6170   12.9940  -15.0890 C   0  0  0  0  0  0  0  0  0  0  0  0
   -8.5360   12.1920  -14.6970 C   0  0  0  0  0  0  0  0  0  0  0  0
   -8.0250   11.1910  -15.4840 C   0  0  0  0  0  0  0  0  0  0  0  0
   -8.6810   11.0380  -16.7220 C   0  0  0  0  0  0  0  0  0  0  0  0
   -9.7340   11.8170  -17.1110 C   0  0  0  0  0  0  0  0  0  0  0  0
   -6.9400   10.3590  -15.1970 N   0  0  0  0  0  0  0  0  0  0  0  0
   -6.3660   10.1690  -13.9340 C   0  0  0  0  0  0  0  0  0  0  0  0
   -7.1370   10.1340  -12.8940 O   0  0  0  0  0  0  0  0  0  0  0  0
   -4.9510    9.9970  -13.6060 C   0  0  0  0  0  0  0  0  0  0  0  0
   -4.3780    8.8630  -14.3500 N   0  0  0  0  0  0  0  0  0  0  0  0
   -3.2190    8.3050  -14.0130 N   0  0  0  0  0  0  0  0  0  0  0  0
   -2.6840    7.2750  -14.7300 C   0  0  0  0  0  0  0  0  0  0  0  0
   -3.3430    6.8100  -15.8030 N   0  0  0  0  0  0  0  0  0  0  0  0
   -2.6220    5.7090  -16.4020 C   0  0  0  0  0  0  0  0  0  0  0  0
   -1.3790    5.5070  -15.5880 C   0  0  0  0  0  0  0  0  0  0  0  0
   -1.4640    6.5570  -14.5900 N   0  0  0  0  0  0  0  0  0  0  0  0
   -0.4460    6.7910  -13.6360 C   0  0  0  0  0  0  0  0  0  0  0  0
    0.0270    8.0350  -13.3150 C   0  0  0  0  0  0  0  0  0  0  0  0
    1.0360    8.2290  -12.3890 C   0  0  0  0  0  0  0  0  0  0  0  0
    1.5990    7.1380  -11.7540 C   0  0  0  0  0  0  0  0  0  0  0  0
    1.1430    5.8940  -12.0580 C   0  0  0  0  0  0  0  0  0  0  0  0
    0.1380    5.7090  -12.9830 C   0  0  0  0  0  0  0  0  0  0  0  0
   -4.5150    7.3320  -16.1910 C   0  0  0  0  0  0  0  0  0  0  0  0
   -5.1290    6.8960  -17.1930 O   0  0  0  0  0  0  0  0  0  0  0  0
   -5.0100    8.3730  -15.4310 C   0  0  1  0  0  0  0  0  0  0  0  0
   -6.1060    8.8950  -15.7550 O   0  0  0  0  0  0  0  0  0  0  0  0
   -9.9800   13.7680  -14.4280 H   0  0  0  0  0  0  0  0  0  0  0  0
   -8.0870   12.3570  -13.7210 H   0  0  0  0  0  0  0  0  0  0  0  0
   -8.3130   10.2600  -17.3780 H   0  0  0  0  0  0  0  0  0  0  0  0
  -10.2320   11.6900  -18.0760 H   0  0  0  0  0  0  0  0  0  0  0  0
   -6.5010    9.8220  -15.9980 H   0  0  0  0  0  0  0  0  0  0  0  0
   -4.7830    9.7520  -12.5290 H   0  0  0  0  0  0  0  0  0  0  0  0
   -4.3740   10.8980  -13.8750 H   0  0  0  0  0  0  0  0  0  0  0  0
   -3.2500    4.8010  -16.2490 H   0  0  0  0  0  0  0  0  0  0  0  0
   -2.4120    5.8720  -17.4850 H   0  0  0  0  0  0  0  0  0  0  0  0
   -0.5210    5.7280  -16.2760 H   0  0  0  0  0  0  0  0  0  0  0  0
   -1.2860    4.5010  -15.1300 H   0  0  0  0  0  0  0  0  0  0  0  0
   -0.4050    8.8750  -13.8030 H   0  0  0  0  0  0  0  0  0  0  0  0
    1.3930    9.2260  -12.1580 H   0  0  0  0  0  0  0  0  0  0  0  0
    2.4000    7.3000  -11.0210 H   0  0  0  0  0  0  0  0  0  0  0  0
    1.5640    5.0290  -11.5790 H   0  0  0  0  0  0  0  0  0  0  0  0
   -0.2080    4.7340  -13.2140 H   0  0  0  0  0  0  0  0  0  0  0  0
  1  2  1  0  0  0  0
  2  3  1  0  0  0  0
  3  4  2  0  0  0  0
  3 29  1  0  0  0  0
  4 30  1  0  0  0  0
  5  8  1  0  0  0  0
  5  4  1  0  0  0  0
  6  5  2  0  0  0  0
  7  6  1  0  0  0  0
  7  2  2  0  0  0  0
  8  9  1  0  0  0  0
  9 11  1  0  0  0  0
  9 10  2  0  0  0  0
 11 34  1  0  0  0  0
 12 13  1  0  0  0  0
 12 11  1  0  0  0  0
 14 18  1  0  0  0  0
 14 13  2  0  0  0  0
 15 14  1  0  0  0  0
 16 36  1  0  0  0  0
 16 15  1  0  0  0  0
 16 17  1  0  0  0  0
 17 39  1  0  0  0  0
 17 18  1  0  0  0  0
 18 19  1  0  0  0  0
 19 20  2  0  0  0  0
 19 24  1  0  0  0  0
 20 21  1  0  0  0  0
 21 41  1  0  0  0  0
 21 22  2  0  0  0  0
 22 42  1  0  0  0  0
 23 22  1  0  0  0  0
 23 43  1  0  0  0  0
 24 23  2  0  0  0  0
 25 15  1  0  0  0  0
 25 27  1  0  0  0  0
 26 25  2  0  0  0  0
 27 28  1  1  0  0  0
 27 12  1  0  0  0  0
 31  6  1  0  0  0  0
 32  7  1  0  0  0  0
 33 28  1  0  0  0  0
 35 11  1  0  0  0  0
 37 16  1  0  0  0  0
 38 17  1  0  0  0  0
 40 20  1  0  0  0  0
 44 24  1  0  0  0  0
M  END
>  <Pose>
1

>  <Score>
-6.39

$$$$
