
 OpenBabel03232203513D

 47 50  0  0  1  0  0  0  0  0999 V2000
   -5.2880   20.8200  -10.9630 B   0  0  0  0  0  0  0  0  0  0  0  0
   -4.0270   19.4660  -11.4750 C   0  0  0  0  0  0  0  0  0  0  0  0
   -2.9840   19.1230  -10.6520 C   0  0  0  0  0  0  0  0  0  0  0  0
   -2.0900   18.1780  -11.0020 C   0  0  0  0  0  0  0  0  0  0  0  0
   -2.1810   17.4850  -12.2510 C   0  0  0  0  0  0  0  0  0  0  0  0
   -3.2420   17.8590  -13.0470 C   0  0  0  0  0  0  0  0  0  0  0  0
   -4.1530   18.8220  -12.6870 C   0  0  0  0  0  0  0  0  0  0  0  0
   -1.1710   16.5990  -12.5320 N   0  0  0  0  0  0  0  0  0  0  0  0
   -0.1990   15.7450  -12.8010 C   0  0  0  0  0  0  0  0  0  0  0  0
    0.6060   15.6710  -13.8130 O   0  0  0  0  0  0  0  0  0  0  0  0
    0.1140   14.6030  -11.8110 C   0  0  2  0  0  0  0  0  0  0  0  0
    0.8970   15.2450  -10.7050 C   0  0  0  0  0  0  0  0  0  0  0  0
    2.3550   15.1690  -10.8650 C   0  0  0  0  0  0  0  0  0  0  0  0
    3.0510   16.1040  -10.3850 O   0  0  0  0  0  0  0  0  0  0  0  0
    2.9420   14.0720  -11.5420 N   0  0  0  0  0  0  0  0  0  0  0  0
    2.1440   13.2280  -12.3450 C   0  0  0  0  0  0  0  0  0  0  0  0
    2.7310   12.1660  -12.9790 N   0  0  0  0  0  0  0  0  0  0  0  0
    2.0340   11.3200  -13.7420 C   0  0  0  0  0  0  0  0  0  0  0  0
    0.7210   11.5420  -13.8760 N   0  0  0  0  0  0  0  0  0  0  0  0
    0.0870   12.5870  -13.2670 C   0  0  0  0  0  0  0  0  0  0  0  0
    0.7840   13.4750  -12.4720 C   0  0  0  0  0  0  0  0  0  0  0  0
   -1.3110   12.7870  -13.4500 N   0  0  0  0  0  0  0  0  0  0  0  0
    2.6770   10.2070  -14.4040 N   0  0  0  0  0  0  0  0  0  0  0  0
    4.0140    9.9110  -14.0230 C   0  0  0  0  0  0  0  0  0  0  0  0
    4.4670    8.5260  -14.3850 C   0  0  0  0  0  0  0  0  0  0  0  0
    3.4500    7.7630  -14.9470 O   0  0  0  0  0  0  0  0  0  0  0  0
    2.8230    8.4260  -15.9930 C   0  0  0  0  0  0  0  0  0  0  0  0
    1.9190    9.4730  -15.3970 C   0  0  0  0  0  0  0  0  0  0  0  0
   -2.8880   19.6440   -9.6900 H   0  0  0  0  0  0  0  0  0  0  0  0
   -1.2540   17.9050  -10.3530 H   0  0  0  0  0  0  0  0  0  0  0  0
   -3.3710   17.3730  -14.0320 H   0  0  0  0  0  0  0  0  0  0  0  0
   -4.9870   19.0920  -13.3440 H   0  0  0  0  0  0  0  0  0  0  0  0
   -1.4630   15.9140  -11.3920 H   0  0  0  0  0  0  0  0  0  0  0  0
   -0.8880   14.2960  -11.3720 H   0  0  0  0  0  0  0  0  0  0  0  0
    0.5930   14.7510   -9.7410 H   0  0  0  0  0  0  0  0  0  0  0  0
    0.5950   16.3230  -10.6450 H   0  0  0  0  0  0  0  0  0  0  0  0
    3.9790   13.8590  -11.4650 H   0  0  0  0  0  0  0  0  0  0  0  0
   -1.8550   12.3160  -14.1790 H   0  0  0  0  0  0  0  0  0  0  0  0
   -1.8080   13.4570  -12.8100 H   0  0  0  0  0  0  0  0  0  0  0  0
    4.6670   10.6490  -14.5720 H   0  0  0  0  0  0  0  0  0  0  0  0
    4.1380   10.1540  -12.9360 H   0  0  0  0  0  0  0  0  0  0  0  0
    5.3370    8.5430  -15.0880 H   0  0  0  0  0  0  0  0  0  0  0  0
    4.8040    8.0100  -13.4700 H   0  0  0  0  0  0  0  0  0  0  0  0
    2.2230    7.6360  -16.5320 H   0  0  0  0  0  0  0  0  0  0  0  0
    3.5650    8.8550  -16.6930 H   0  0  0  0  0  0  0  0  0  0  0  0
    1.4990   10.1550  -16.1700 H   0  0  0  0  0  0  0  0  0  0  0  0
    1.0390    8.9460  -14.9410 H   0  0  0  0  0  0  0  0  0  0  0  0
  2  1  1  0  0  0  0
  2  3  1  0  0  0  0
  3 29  1  0  0  0  0
  4  3  2  0  0  0  0
  4 30  1  0  0  0  0
  5  4  1  0  0  0  0
  6  7  1  0  0  0  0
  6  5  2  0  0  0  0
  7  2  2  0  0  0  0
  8  5  1  0  0  0  0
  8 33  1  0  0  0  0
  9  8  1  0  0  0  0
  9 11  1  0  0  0  0
 10  9  2  0  0  0  0
 11 34  1  1  0  0  0
 11 12  1  0  0  0  0
 12 36  1  0  0  0  0
 12 35  1  0  0  0  0
 13 12  1  0  0  0  0
 13 14  2  0  0  0  0
 15 37  1  0  0  0  0
 15 13  1  0  0  0  0
 16 15  1  0  0  0  0
 17 16  1  0  0  0  0
 18 17  2  0  0  0  0
 19 18  1  0  0  0  0
 19 20  2  0  0  0  0
 20 21  1  0  0  0  0
 21 16  2  0  0  0  0
 21 11  1  0  0  0  0
 22 20  1  0  0  0  0
 22 39  1  0  0  0  0
 23 24  1  0  0  0  0
 23 18  1  0  0  0  0
 24 41  1  0  0  0  0
 25 24  1  0  0  0  0
 25 43  1  0  0  0  0
 26 25  1  0  0  0  0
 27 28  1  0  0  0  0
 27 26  1  0  0  0  0
 28 47  1  0  0  0  0
 28 23  1  0  0  0  0
 31  6  1  0  0  0  0
 32  7  1  0  0  0  0
 38 22  1  0  0  0  0
 40 24  1  0  0  0  0
 42 25  1  0  0  0  0
 44 27  1  0  0  0  0
 45 27  1  0  0  0  0
 46 28  1  0  0  0  0
M  END
>  <Pose>
1

>  <Score>
-6.60

$$$$
