
 OpenBabel03232203513D

 52 55  0  0  1  0  0  0  0  0999 V2000
   -5.5240   21.3910  -10.1680 B   0  0  0  0  0  0  0  0  0  0  0  0
   -4.2020   20.1460  -10.7020 C   0  0  0  0  0  0  0  0  0  0  0  0
   -4.4180   19.3480  -11.8120 C   0  0  0  0  0  0  0  0  0  0  0  0
   -3.5230   18.4340  -12.2580 C   0  0  0  0  0  0  0  0  0  0  0  0
   -2.2940   18.3000  -11.5340 C   0  0  0  0  0  0  0  0  0  0  0  0
   -2.1110   19.1080  -10.4370 C   0  0  0  0  0  0  0  0  0  0  0  0
   -3.0350   20.0310  -10.0020 C   0  0  0  0  0  0  0  0  0  0  0  0
   -1.4110   17.4070  -12.0870 N   0  0  0  0  0  0  0  0  0  0  0  0
   -0.5440   16.5300  -12.6290 C   0  0  0  0  0  0  0  0  0  0  0  0
   -0.4120   16.2000  -13.8860 O   0  0  0  0  0  0  0  0  0  0  0  0
    0.4470   15.7800  -11.8110 C   0  0  2  0  0  0  0  0  0  0  0  0
    1.5890   16.6300  -11.2870 C   0  0  0  0  0  0  0  0  0  0  0  0
    2.2760   15.8570  -10.2080 C   0  0  0  0  0  0  0  0  0  0  0  0
    2.5220   16.3710   -9.1320 O   0  0  0  0  0  0  0  0  0  0  0  0
    2.6150   14.5300  -10.5090 N   0  0  0  0  0  0  0  0  0  0  0  0
    1.9500   13.8290  -11.5410 C   0  0  0  0  0  0  0  0  0  0  0  0
    2.3320   12.5880  -11.9060 N   0  0  0  0  0  0  0  0  0  0  0  0
    1.8240   11.8920  -12.9240 C   0  0  0  0  0  0  0  0  0  0  0  0
    0.8450   12.5250  -13.6210 N   0  0  0  0  0  0  0  0  0  0  0  0
    0.4080   13.7720  -13.3090 C   0  0  0  0  0  0  0  0  0  0  0  0
    0.9250   14.4800  -12.2670 C   0  0  0  0  0  0  0  0  0  0  0  0
   -0.5980   14.3500  -14.0790 O   0  0  0  0  0  0  0  0  0  0  0  0
    2.2080   10.5720  -13.2540 N   0  0  0  0  0  0  0  0  0  0  0  0
    2.4600    9.4940  -12.3330 C   0  0  0  0  0  0  0  0  0  0  0  0
    1.9130    8.2060  -12.9420 C   0  0  0  0  0  0  0  0  0  0  0  0
    0.7430    8.4580  -13.8460 C   0  0  2  0  0  0  0  0  0  0  0  0
    1.1070    9.3560  -14.9760 C   0  0  0  0  0  0  0  0  0  0  0  0
    2.3580   10.2110  -14.6690 C   0  0  0  0  0  0  0  0  0  0  0  0
   -0.4480    8.9250  -13.0970 C   0  0  0  0  0  0  0  0  0  0  0  0
   -0.9200    8.1630  -12.2280 O   0  0  0  0  0  0  0  0  0  0  0  0
   -1.0750   10.1710  -13.3130 N   0  0  0  0  0  0  0  0  0  0  0  0
   -5.3700   19.4530  -12.3670 H   0  0  0  0  0  0  0  0  0  0  0  0
   -3.7030   17.8060  -13.1310 H   0  0  0  0  0  0  0  0  0  0  0  0
   -1.1780   19.0420   -9.8740 H   0  0  0  0  0  0  0  0  0  0  0  0
   -2.8660   20.6580   -9.1340 H   0  0  0  0  0  0  0  0  0  0  0  0
   -1.9990   16.4120  -11.3950 H   0  0  0  0  0  0  0  0  0  0  0  0
   -0.1660   15.6170  -10.8240 H   0  0  0  0  0  0  0  0  0  0  0  0
    1.2330   17.5730  -10.8290 H   0  0  0  0  0  0  0  0  0  0  0  0
    2.3130   16.8710  -12.0690 H   0  0  0  0  0  0  0  0  0  0  0  0
    3.3710   14.0010   -9.9960 H   0  0  0  0  0  0  0  0  0  0  0  0
   -1.4160   14.7900  -13.6640 H   0  0  0  0  0  0  0  0  0  0  0  0
    1.9510    9.6550  -11.3670 H   0  0  0  0  0  0  0  0  0  0  0  0
    3.5220    9.3090  -12.1000 H   0  0  0  0  0  0  0  0  0  0  0  0
    2.7270    7.6320  -13.4120 H   0  0  0  0  0  0  0  0  0  0  0  0
    1.5640    7.5650  -12.0970 H   0  0  0  0  0  0  0  0  0  0  0  0
    0.4530    7.4710  -14.2990 H   0  0  0  0  0  0  0  0  0  0  0  0
    0.2680   10.0800  -15.1830 H   0  0  0  0  0  0  0  0  0  0  0  0
    1.2850    8.8320  -15.9310 H   0  0  0  0  0  0  0  0  0  0  0  0
    3.2470    9.6050  -14.8410 H   0  0  0  0  0  0  0  0  0  0  0  0
    2.2730   11.1040  -15.3160 H   0  0  0  0  0  0  0  0  0  0  0  0
   -1.5320   10.4200  -14.2100 H   0  0  0  0  0  0  0  0  0  0  0  0
   -1.0800   10.8680  -12.5400 H   0  0  0  0  0  0  0  0  0  0  0  0
  2  1  1  0  0  0  0
  2  7  1  0  0  0  0
  3  2  2  0  0  0  0
  4  3  1  0  0  0  0
  4  5  2  0  0  0  0
  5  6  1  0  0  0  0
  6  7  2  0  0  0  0
  6 34  1  0  0  0  0
  7 35  1  0  0  0  0
  8  5  1  0  0  0  0
  8 36  1  0  0  0  0
  9  8  1  0  0  0  0
  9 11  1  0  0  0  0
 10  9  2  0  0  0  0
 11 12  1  0  0  0  0
 11 37  1  1  0  0  0
 12 38  1  0  0  0  0
 12 13  1  0  0  0  0
 13 14  2  0  0  0  0
 15 13  1  0  0  0  0
 15 40  1  0  0  0  0
 16 15  1  0  0  0  0
 17 16  1  0  0  0  0
 18 17  2  0  0  0  0
 19 20  2  0  0  0  0
 19 18  1  0  0  0  0
 20 21  1  0  0  0  0
 21 11  1  0  0  0  0
 21 16  2  0  0  0  0
 22 41  1  0  0  0  0
 22 20  1  0  0  0  0
 23 18  1  0  0  0  0
 23 24  1  0  0  0  0
 24 43  1  0  0  0  0
 24 42  1  0  0  0  0
 25 24  1  0  0  0  0
 25 45  1  0  0  0  0
 26 46  1  6  0  0  0
 26 29  1  0  0  0  0
 26 25  1  0  0  0  0
 27 28  1  0  0  0  0
 27 26  1  0  0  0  0
 28 23  1  0  0  0  0
 29 30  2  0  0  0  0
 31 29  1  0  0  0  0
 31 52  1  0  0  0  0
 32  3  1  0  0  0  0
 33  4  1  0  0  0  0
 39 12  1  0  0  0  0
 44 25  1  0  0  0  0
 47 27  1  0  0  0  0
 48 27  1  0  0  0  0
 49 28  1  0  0  0  0
 50 28  1  0  0  0  0
 51 31  1  0  0  0  0
M  END
>  <Pose>
1

>  <Score>
-6.71

$$$$
