
 OpenBabel03232203513D

 42 45  0  0  0  0  0  0  0  0999 V2000
   -4.9950    8.1120  -15.0760 B   0  0  0  0  0  0  0  0  0  0  0  0
   -3.2410    7.6400  -14.4780 C   0  0  0  0  0  0  0  0  0  0  0  0
   -2.6980    6.4140  -14.8030 C   0  0  0  0  0  0  0  0  0  0  0  0
   -1.4300    6.0900  -14.3630 C   0  0  0  0  0  0  0  0  0  0  0  0
   -0.6560    6.9420  -13.5980 C   0  0  0  0  0  0  0  0  0  0  0  0
   -1.2140    8.1680  -13.2820 C   0  0  0  0  0  0  0  0  0  0  0  0
   -2.4800    8.5060  -13.7150 C   0  0  0  0  0  0  0  0  0  0  0  0
    0.6550    6.5830  -13.1550 N   0  0  0  0  0  0  0  0  0  0  0  0
    0.9990    5.4250  -12.6480 N   0  0  0  0  0  0  0  0  0  0  0  0
    2.3050    5.3740  -12.3190 C   0  0  0  0  0  0  0  0  0  0  0  0
    2.8210    6.5980  -12.6470 C   0  0  0  0  0  0  0  0  0  0  0  0
    1.7760    7.3330  -13.1660 C   0  0  0  0  0  0  0  0  0  0  0  0
    1.8490    8.6940  -13.6490 N   0  0  0  0  0  0  0  0  0  0  0  0
    1.4410    9.8020  -13.0500 C   0  0  0  0  0  0  0  0  0  0  0  0
    1.6890   10.8990  -13.8430 C   0  0  0  0  0  0  0  0  0  0  0  0
    2.2800   10.4000  -14.9790 C   0  0  0  0  0  0  0  0  0  0  0  0
    2.3710    9.0330  -14.8390 C   0  0  0  0  0  0  0  0  0  0  0  0
    4.2100    7.0010  -12.4660 C   0  0  0  0  0  0  0  0  0  0  0  0
    4.4280    7.8890  -11.6070 O   0  0  0  0  0  0  0  0  0  0  0  0
    5.2840    6.4490  -13.1980 N   0  0  0  0  0  0  0  0  0  0  0  0
    6.4570    7.2540  -13.4380 C   0  0  0  0  0  0  0  0  0  0  0  0
    7.5990    6.6470  -12.6790 C   0  0  0  0  0  0  0  0  0  0  0  0
    7.3650    5.2430  -12.3620 N   0  0  0  0  0  0  0  0  0  0  0  0
    6.4670    4.4280  -13.1060 C   0  0  0  0  0  0  0  0  0  0  0  0
    6.6710    3.1930  -13.1950 O   0  0  0  0  0  0  0  0  0  0  0  0
    5.3170    5.1110  -13.7440 C   0  0  0  0  0  0  0  0  0  0  0  0
   -3.2900    5.7140  -15.4090 H   0  0  0  0  0  0  0  0  0  0  0  0
   -1.0270    5.1230  -14.6300 H   0  0  0  0  0  0  0  0  0  0  0  0
   -0.6060    8.8410  -12.6800 H   0  0  0  0  0  0  0  0  0  0  0  0
   -2.9050    9.4580  -13.4640 H   0  0  0  0  0  0  0  0  0  0  0  0
    2.8010    4.5030  -11.8800 H   0  0  0  0  0  0  0  0  0  0  0  0
    0.9750    9.8520  -12.0700 H   0  0  0  0  0  0  0  0  0  0  0  0
    1.4630   11.9520  -13.6180 H   0  0  0  0  0  0  0  0  0  0  0  0
    2.6140   10.9790  -15.8310 H   0  0  0  0  0  0  0  0  0  0  0  0
    2.7990    8.3430  -15.5860 H   0  0  0  0  0  0  0  0  0  0  0  0
    6.3020    8.3240  -13.2460 H   0  0  0  0  0  0  0  0  0  0  0  0
    6.7200    7.1660  -14.5330 H   0  0  0  0  0  0  0  0  0  0  0  0
    7.7880    7.2220  -11.7510 H   0  0  0  0  0  0  0  0  0  0  0  0
    8.5540    6.6700  -13.2650 H   0  0  0  0  0  0  0  0  0  0  0  0
    7.8980    4.8330  -11.5370 H   0  0  0  0  0  0  0  0  0  0  0  0
    5.4950    5.1910  -14.8350 H   0  0  0  0  0  0  0  0  0  0  0  0
    4.3670    4.5690  -13.6190 H   0  0  0  0  0  0  0  0  0  0  0  0
  1  2  1  0  0  0  0
  2  7  1  0  0  0  0
  3  2  2  0  0  0  0
  3  4  1  0  0  0  0
  4  5  2  0  0  0  0
  5  6  1  0  0  0  0
  5  8  1  0  0  0  0
  6 29  1  0  0  0  0
  7 30  1  0  0  0  0
  7  6  2  0  0  0  0
  8  9  1  0  0  0  0
  9 10  2  0  0  0  0
 10 31  1  0  0  0  0
 11 18  1  0  0  0  0
 11 10  1  0  0  0  0
 12  8  1  0  0  0  0
 12 11  2  0  0  0  0
 13 12  1  0  0  0  0
 13 14  1  0  0  0  0
 14 32  1  0  0  0  0
 15 33  1  0  0  0  0
 15 14  2  0  0  0  0
 16 17  2  0  0  0  0
 16 15  1  0  0  0  0
 17 13  1  0  0  0  0
 18 19  2  0  0  0  0
 20 18  1  0  0  0  0
 21 36  1  0  0  0  0
 21 20  1  0  0  0  0
 21 22  1  0  0  0  0
 22 23  1  0  0  0  0
 22 38  1  0  0  0  0
 23 40  1  0  0  0  0
 24 23  1  0  0  0  0
 25 24  2  0  0  0  0
 26 42  1  0  0  0  0
 26 20  1  0  0  0  0
 26 24  1  0  0  0  0
 27  3  1  0  0  0  0
 28  4  1  0  0  0  0
 34 16  1  0  0  0  0
 35 17  1  0  0  0  0
 37 21  1  0  0  0  0
 39 22  1  0  0  0  0
 41 26  1  0  0  0  0
M  END
>  <Pose>
1

>  <Score>
-5.40

$$$$
