
 OpenBabel03232203513D

 47 50  0  0  1  0  0  0  0  0999 V2000
   -4.4670   20.9850   -9.9160 B   0  0  0  0  0  0  0  0  0  0  0  0
   -3.3930   19.7030  -10.8490 C   0  0  0  0  0  0  0  0  0  0  0  0
   -3.7930   19.1830  -12.0620 C   0  0  0  0  0  0  0  0  0  0  0  0
   -3.0280   18.2540  -12.7520 C   0  0  0  0  0  0  0  0  0  0  0  0
   -1.8250   17.8170  -12.2390 C   0  0  0  0  0  0  0  0  0  0  0  0
   -1.4310   18.3430  -11.0250 C   0  0  0  0  0  0  0  0  0  0  0  0
   -2.1900   19.2660  -10.3360 C   0  0  0  0  0  0  0  0  0  0  0  0
   -1.0430   16.8590  -12.9570 N   0  0  0  0  0  0  0  0  0  0  0  0
   -1.0790   16.5760  -14.2470 N   0  0  0  0  0  0  0  0  0  0  0  0
   -0.2080   15.6320  -14.5600 N   0  0  0  0  0  0  0  0  0  0  0  0
    0.4500   15.2570  -13.4300 C   0  0  0  0  0  0  0  0  0  0  0  0
   -0.1000   16.0510  -12.4400 C   0  0  0  0  0  0  0  0  0  0  0  0
    0.3720   15.8890  -11.1990 N   0  0  0  0  0  0  0  0  0  0  0  0
    1.3390   14.9910  -10.9410 C   0  0  0  0  0  0  0  0  0  0  0  0
    1.8830   14.2110  -11.9030 N   0  0  0  0  0  0  0  0  0  0  0  0
    1.4390   14.3420  -13.1590 C   0  0  0  0  0  0  0  0  0  0  0  0
    1.9400   13.6230  -14.0520 O   0  0  0  0  0  0  0  0  0  0  0  0
    2.9220   13.2720  -11.5270 C   0  0  0  0  0  0  0  0  0  0  0  0
    3.4360   12.5500  -12.7470 C   0  0  0  0  0  0  0  0  0  0  0  0
    4.1900   13.1360  -13.5690 O   0  0  0  0  0  0  0  0  0  0  0  0
    3.0830   11.2020  -12.9930 N   0  0  0  0  0  0  0  0  0  0  0  0
    4.0760   10.2220  -13.3640 C   0  0  0  0  0  0  0  0  0  0  0  0
    3.4950    9.4200  -14.5160 C   0  0  2  0  0  0  0  0  0  0  0  0
    2.2770    8.8580  -14.2350 O   0  0  0  0  0  0  0  0  0  0  0  0
    1.7060    9.2740  -13.0570 C   0  0  1  0  0  0  0  0  0  0  0  0
    1.7070   10.7780  -12.8800 C   0  0  0  0  0  0  0  0  0  0  0  0
    0.3190    8.7420  -12.8440 C   0  0  0  0  0  0  0  0  0  0  0  0
    4.4740    8.2680  -14.7670 C   0  0  0  0  0  0  0  0  0  0  0  0
   -4.7300   19.5190  -12.4680 H   0  0  0  0  0  0  0  0  0  0  0  0
   -3.3500   17.8520  -13.7000 H   0  0  0  0  0  0  0  0  0  0  0  0
   -0.4960   18.0190  -10.6000 H   0  0  0  0  0  0  0  0  0  0  0  0
   -1.8760   19.6800   -9.3770 H   0  0  0  0  0  0  0  0  0  0  0  0
    1.7060   14.8820   -9.9120 H   0  0  0  0  0  0  0  0  0  0  0  0
    3.7860   13.7850  -11.0630 H   0  0  0  0  0  0  0  0  0  0  0  0
    2.5130   12.4800  -10.8670 H   0  0  0  0  0  0  0  0  0  0  0  0
    4.3480    9.5600  -12.5150 H   0  0  0  0  0  0  0  0  0  0  0  0
    4.9720   10.7690  -13.6960 H   0  0  0  0  0  0  0  0  0  0  0  0
    3.4950   10.0790  -15.4150 H   0  0  0  0  0  0  0  0  0  0  0  0
    2.3420    8.8730  -12.2150 H   0  0  0  0  0  0  0  0  0  0  0  0
    1.2790   10.9920  -11.8840 H   0  0  0  0  0  0  0  0  0  0  0  0
    1.1280   11.2980  -13.6620 H   0  0  0  0  0  0  0  0  0  0  0  0
    0.1490    8.5630  -11.7610 H   0  0  0  0  0  0  0  0  0  0  0  0
   -0.4690    9.4620  -13.1740 H   0  0  0  0  0  0  0  0  0  0  0  0
    0.1870    7.7510  -13.3460 H   0  0  0  0  0  0  0  0  0  0  0  0
    5.4840    8.6730  -14.5770 H   0  0  0  0  0  0  0  0  0  0  0  0
    4.3010    7.4310  -14.0840 H   0  0  0  0  0  0  0  0  0  0  0  0
    4.4360    7.9620  -15.8460 H   0  0  0  0  0  0  0  0  0  0  0  0
  2  7  1  0  0  0  0
  2  1  1  0  0  0  0
  3  2  2  0  0  0  0
  4  5  2  0  0  0  0
  4  3  1  0  0  0  0
  5  6  1  0  0  0  0
  6 31  1  0  0  0  0
  6  7  2  0  0  0  0
  7 32  1  0  0  0  0
  8 12  1  0  0  0  0
  8  5  1  0  0  0  0
  9  8  1  0  0  0  0
 10  9  2  0  0  0  0
 10 11  1  0  0  0  0
 11 16  1  0  0  0  0
 11 12  2  0  0  0  0
 12 13  1  0  0  0  0
 13 14  2  0  0  0  0
 14 33  1  0  0  0  0
 15 18  1  0  0  0  0
 15 14  1  0  0  0  0
 16 15  1  0  0  0  0
 17 16  2  0  0  0  0
 18 34  1  0  0  0  0
 18 35  1  0  0  0  0
 19 18  1  0  0  0  0
 20 19  2  0  0  0  0
 21 26  1  0  0  0  0
 21 19  1  0  0  0  0
 22 21  1  0  0  0  0
 22 36  1  0  0  0  0
 23 38  1  6  0  0  0
 23 24  1  0  0  0  0
 23 22  1  0  0  0  0
 24 25  1  0  0  0  0
 25 26  1  0  0  0  0
 25 27  1  0  0  0  0
 25 39  1  1  0  0  0
 26 40  1  0  0  0  0
 27 42  1  0  0  0  0
 28 45  1  0  0  0  0
 28 23  1  0  0  0  0
 28 46  1  0  0  0  0
 29  3  1  0  0  0  0
 30  4  1  0  0  0  0
 37 22  1  0  0  0  0
 41 26  1  0  0  0  0
 43 27  1  0  0  0  0
 44 27  1  0  0  0  0
 47 28  1  0  0  0  0
M  END
>  <Pose>
1

>  <Score>
-6.41

$$$$
