
 OpenBabel03232203513D

 47 50  0  0  1  0  0  0  0  0999 V2000
   -3.7570   19.1040  -12.5710 B   0  0  0  0  0  0  0  0  0  0  0  0
   -2.3210   17.8460  -12.4220 C   0  0  0  0  0  0  0  0  0  0  0  0
   -1.4700   17.8520  -11.3510 C   0  0  0  0  0  0  0  0  0  0  0  0
   -0.4220   16.9310  -11.2480 C   0  0  0  0  0  0  0  0  0  0  0  0
   -0.2060   15.9880  -12.2100 C   0  0  0  0  0  0  0  0  0  0  0  0
   -1.0530   15.9780  -13.2810 C   0  0  0  0  0  0  0  0  0  0  0  0
   -2.1060   16.8990  -13.3950 C   0  0  0  0  0  0  0  0  0  0  0  0
    0.8620   15.0430  -12.1090 N   0  0  0  0  0  0  0  0  0  0  0  0
    0.8090   13.6640  -11.7620 C   0  0  0  0  0  0  0  0  0  0  0  0
   -0.2130   13.0620  -11.3700 O   0  0  0  0  0  0  0  0  0  0  0  0
    2.1230   13.0240  -11.9200 C   0  0  2  0  0  0  0  0  0  0  0  0
    3.0720   14.2110  -11.8060 C   0  0  0  0  0  0  0  0  0  0  0  0
    2.2500   15.3340  -12.3590 C   0  0  0  0  0  0  0  0  0  0  0  0
    2.7870   16.3070  -12.9210 O   0  0  0  0  0  0  0  0  0  0  0  0
    2.3270   12.3380  -13.1760 N   0  0  0  0  0  4  0  0  0  0  0  0
    3.4910   11.4840  -13.1560 C   0  0  0  0  0  0  0  0  0  0  0  0
    3.1910   10.0270  -12.8830 C   0  0  0  0  0  0  0  0  0  0  0  0
    2.0070    9.5950  -13.5820 N   0  0  0  0  0  0  0  0  0  0  0  0
    1.5120   10.5370  -14.5570 C   0  0  0  0  0  0  0  0  0  0  0  0
    1.1440   11.7790  -13.7230 C   0  0  0  0  0  0  0  0  0  0  0  0
    1.3590    8.3790  -13.3420 C   0  0  0  0  0  0  0  0  0  0  0  0
    0.4620    7.7680  -14.1950 C   0  0  0  0  0  0  0  0  0  0  0  0
   -0.1710    6.5720  -13.8970 C   0  0  0  0  0  0  0  0  0  0  0  0
    0.0800    5.9400  -12.7090 C   0  0  0  0  0  0  0  0  0  0  0  0
    0.9680    6.5070  -11.8170 C   0  0  0  0  0  0  0  0  0  0  0  0
    1.5880    7.7020  -12.1380 C   0  0  0  0  0  0  0  0  0  0  0  0
   -0.5240    4.7350  -12.3470 O   0  0  0  0  0  0  0  0  0  0  0  0
   -1.6200   18.5810  -10.5850 H   0  0  0  0  0  0  0  0  0  0  0  0
    0.1840   17.0130  -10.3810 H   0  0  0  0  0  0  0  0  0  0  0  0
   -0.9820   15.2940  -14.0900 H   0  0  0  0  0  0  0  0  0  0  0  0
   -2.7720   16.8840  -14.2440 H   0  0  0  0  0  0  0  0  0  0  0  0
    2.3870   12.3660  -11.0590 H   0  0  0  0  0  0  0  0  0  0  0  0
    3.3650   14.3930  -10.7590 H   0  0  0  0  0  0  0  0  0  0  0  0
    3.9550   14.0150  -12.4390 H   0  0  0  0  0  0  0  0  0  0  0  0
    2.6110   13.1290  -13.8480 H   0  0  0  0  0  0  0  0  0  0  0  0
    4.1660   11.8430  -12.3490 H   0  0  0  0  0  0  0  0  0  0  0  0
    4.0720   11.5450  -14.1030 H   0  0  0  0  0  0  0  0  0  0  0  0
    4.0550    9.4450  -13.3180 H   0  0  0  0  0  0  0  0  0  0  0  0
    3.2070    9.8810  -11.8130 H   0  0  0  0  0  0  0  0  0  0  0  0
    2.3500   10.8280  -15.2240 H   0  0  0  0  0  0  0  0  0  0  0  0
    0.6720   10.2220  -15.1540 H   0  0  0  0  0  0  0  0  0  0  0  0
    0.4720   11.4710  -12.8860 H   0  0  0  0  0  0  0  0  0  0  0  0
    0.6200   12.5180  -14.3430 H   0  0  0  0  0  0  0  0  0  0  0  0
    0.2560    8.2640  -15.1590 H   0  0  0  0  0  0  0  0  0  0  0  0
   -0.8480    6.1610  -14.6020 H   0  0  0  0  0  0  0  0  0  0  0  0
    1.1870    6.0330  -10.8660 H   0  0  0  0  0  0  0  0  0  0  0  0
    2.2920    8.1710  -11.4520 H   0  0  0  0  0  0  0  0  0  0  0  0
  1  2  1  0  0  0  0
  2  3  1  0  0  0  0
  3  4  2  0  0  0  0
  3 28  1  0  0  0  0
  4 29  1  0  0  0  0
  5  8  1  0  0  0  0
  5  4  1  0  0  0  0
  6  5  2  0  0  0  0
  7  6  1  0  0  0  0
  7  2  2  0  0  0  0
  8  9  1  0  0  0  0
  9 10  2  0  0  0  0
 11 12  1  0  0  0  0
 11  9  1  0  0  0  0
 11 32  1  1  0  0  0
 12 33  1  0  0  0  0
 13  8  1  0  0  0  0
 13 12  1  0  0  0  0
 14 13  2  0  0  0  0
 15 16  1  0  0  0  0
 15 11  1  0  0  0  0
 16 17  1  0  0  0  0
 16 36  1  0  0  0  0
 17 39  1  0  0  0  0
 18 21  1  0  0  0  0
 18 17  1  0  0  0  0
 19 20  1  0  0  0  0
 19 18  1  0  0  0  0
 20 15  1  0  0  0  0
 20 42  1  0  0  0  0
 21 26  1  0  0  0  0
 22 23  1  0  0  0  0
 22 21  2  0  0  0  0
 23 24  2  0  0  0  0
 24 27  1  0  0  0  0
 24 25  1  0  0  0  0
 25 46  1  0  0  0  0
 26 25  2  0  0  0  0
 26 47  1  0  0  0  0
 30  6  1  0  0  0  0
 31  7  1  0  0  0  0
 34 12  1  0  0  0  0
 35 15  1  0  0  0  0
 37 16  1  0  0  0  0
 38 17  1  0  0  0  0
 40 19  1  0  0  0  0
 41 19  1  0  0  0  0
 43 20  1  0  0  0  0
 44 22  1  0  0  0  0
 45 23  1  0  0  0  0
M  END
>  <Pose>
1

>  <Score>
-4.83

$$$$
