
 OpenBabel03232203513D

 56 59  0  0  1  0  0  0  0  0999 V2000
   -5.9250    9.8110  -14.5780 B   0  0  0  0  0  0  0  0  0  0  0  0
   -4.2000    9.0220  -14.3400 C   0  0  0  0  0  0  0  0  0  0  0  0
   -3.8840    7.7850  -14.8520 C   0  0  0  0  0  0  0  0  0  0  0  0
   -2.6180    7.2140  -14.6730 C   0  0  0  0  0  0  0  0  0  0  0  0
   -1.6430    7.8750  -13.9740 C   0  0  0  0  0  0  0  0  0  0  0  0
   -1.9700    9.1120  -13.4650 C   0  0  0  0  0  0  0  0  0  0  0  0
   -3.2190    9.6880  -13.6360 C   0  0  0  0  0  0  0  0  0  0  0  0
   -0.3570    7.2750  -13.8010 N   0  0  0  0  0  0  0  0  0  0  0  0
    0.8550    7.6380  -14.4710 C   0  0  0  0  0  0  0  0  0  0  0  0
    0.9770    8.1830  -15.5940 O   0  0  0  0  0  0  0  0  0  0  0  0
    1.9890    7.2520  -13.5910 C   0  0  2  0  0  0  0  0  0  0  0  0
    1.4170    6.3560  -12.5140 C   0  0  0  0  0  0  0  0  0  0  0  0
    0.0000    6.2010  -12.9410 C   0  0  0  0  0  0  0  0  0  0  0  0
   -0.7930    5.2540  -12.5980 O   0  0  0  0  0  0  0  0  0  0  0  0
    2.6240    8.4070  -13.1030 N   0  0  2  0  0  0  0  0  0  0  0  0
    2.0130    9.1510  -12.0760 C   0  0  0  0  0  0  0  0  0  0  0  0
    2.8380   10.4220  -11.8350 C   0  0  0  0  0  0  0  0  0  0  0  0
    2.7630   11.3560  -13.0220 C   0  0  1  0  0  0  0  0  0  0  0  0
    2.8420   10.5760  -14.2720 C   0  0  0  0  0  0  0  0  0  0  0  0
    3.3560    9.1780  -14.0360 C   0  0  0  0  0  0  0  0  0  0  0  0
    1.6430   12.1880  -12.8630 N   0  0  0  0  0  0  0  0  0  0  0  0
    0.3820   11.7050  -13.2400 C   0  0  0  0  0  0  0  0  0  0  0  0
   -0.2020   12.7190  -14.2390 C   0  0  0  0  0  0  0  0  0  0  0  0
   -0.4140   13.9950  -13.4510 C   0  0  0  0  0  0  0  0  0  0  0  0
    0.3320   14.0270  -12.1590 C   0  0  0  0  0  0  0  0  0  0  0  0
    1.7440   13.4320  -12.2700 C   0  0  0  0  0  0  0  0  0  0  0  0
    3.9930   12.2210  -12.9270 C   0  0  0  0  0  0  0  0  0  0  0  0
    4.4970   12.7190  -13.9780 O   0  0  0  0  0  0  0  0  0  0  0  0
    4.6320   12.5150  -11.6990 N   0  0  0  0  0  0  0  0  0  0  0  0
   -4.6520    7.2750  -15.3970 H   0  0  0  0  0  0  0  0  0  0  0  0
   -2.4450    6.2350  -15.1060 H   0  0  0  0  0  0  0  0  0  0  0  0
   -1.2270    9.6560  -12.9090 H   0  0  0  0  0  0  0  0  0  0  0  0
   -3.4560   10.6700  -13.2230 H   0  0  0  0  0  0  0  0  0  0  0  0
    2.6560    6.6030  -14.2220 H   0  0  0  0  0  0  0  0  0  0  0  0
    1.3910    6.8380  -11.5150 H   0  0  0  0  0  0  0  0  0  0  0  0
    1.8730    5.3590  -12.5150 H   0  0  0  0  0  0  0  0  0  0  0  0
    0.9880    9.4680  -12.3950 H   0  0  0  0  0  0  0  0  0  0  0  0
    1.9820    8.6500  -11.0750 H   0  0  0  0  0  0  0  0  0  0  0  0
    3.8990   10.0560  -11.8010 H   0  0  0  0  0  0  0  0  0  0  0  0
    2.5730   10.8850  -10.8870 H   0  0  0  0  0  0  0  0  0  0  0  0
    3.6210   11.0560  -14.9410 H   0  0  0  0  0  0  0  0  0  0  0  0
    1.9310   10.5970  -14.8990 H   0  0  0  0  0  0  0  0  0  0  0  0
    3.5140    8.6460  -15.0200 H   0  0  0  0  0  0  0  0  0  0  0  0
    4.4140    9.2440  -13.6310 H   0  0  0  0  0  0  0  0  0  0  0  0
    0.4560   10.7330  -13.7320 H   0  0  0  0  0  0  0  0  0  0  0  0
   -0.2900   11.7000  -12.3570 H   0  0  0  0  0  0  0  0  0  0  0  0
    0.5460   12.9340  -15.0450 H   0  0  0  0  0  0  0  0  0  0  0  0
   -1.1330   12.3140  -14.6660 H   0  0  0  0  0  0  0  0  0  0  0  0
   -0.2510   14.8980  -14.0750 H   0  0  0  0  0  0  0  0  0  0  0  0
   -1.5150   14.0140  -13.2110 H   0  0  0  0  0  0  0  0  0  0  0  0
    0.4780   15.1050  -11.8740 H   0  0  0  0  0  0  0  0  0  0  0  0
   -0.2130   13.5370  -11.3140 H   0  0  0  0  0  0  0  0  0  0  0  0
    2.1800   13.5020  -11.2670 H   0  0  0  0  0  0  0  0  0  0  0  0
    2.3230   14.1360  -12.9120 H   0  0  0  0  0  0  0  0  0  0  0  0
    5.5920   12.1900  -11.5340 H   0  0  0  0  0  0  0  0  0  0  0  0
    4.1440   13.0570  -10.9600 H   0  0  0  0  0  0  0  0  0  0  0  0
  1  2  1  0  0  0  0
  2  7  1  0  0  0  0
  3  4  1  0  0  0  0
  3  2  2  0  0  0  0
  4  5  2  0  0  0  0
  5  8  1  0  0  0  0
  5  6  1  0  0  0  0
  6 32  1  0  0  0  0
  7  6  2  0  0  0  0
  7 33  1  0  0  0  0
  8 13  1  0  0  0  0
  9  8  1  0  0  0  0
  9 11  1  0  0  0  0
 10  9  2  0  0  0  0
 11 34  1  6  0  0  0
 11 15  1  0  0  0  0
 11 12  1  0  0  0  0
 12 35  1  0  0  0  0
 13 14  2  0  0  0  0
 13 12  1  0  0  0  0
 15 20  1  6  0  0  0
 15 16  1  0  0  0  0
 16 17  1  0  0  0  0
 16 38  1  0  0  0  0
 17 39  1  0  0  0  0
 17 40  1  0  0  0  0
 18 27  1  1  0  0  0
 18 21  1  0  0  0  0
 18 17  1  0  0  0  0
 19 20  1  0  0  0  0
 19 18  1  0  0  0  0
 20 44  1  0  0  0  0
 21 26  1  0  0  0  0
 22 21  1  0  0  0  0
 22 46  1  0  0  0  0
 23 24  1  0  0  0  0
 23 22  1  0  0  0  0
 24 50  1  0  0  0  0
 24 25  1  0  0  0  0
 25 51  1  0  0  0  0
 25 52  1  0  0  0  0
 26 25  1  0  0  0  0
 26 53  1  0  0  0  0
 27 29  1  0  0  0  0
 28 27  2  0  0  0  0
 29 55  1  0  0  0  0
 29 56  1  0  0  0  0
 30  3  1  0  0  0  0
 31  4  1  0  0  0  0
 36 12  1  0  0  0  0
 37 16  1  0  0  0  0
 41 19  1  0  0  0  0
 42 19  1  0  0  0  0
 43 20  1  0  0  0  0
 45 22  1  0  0  0  0
 47 23  1  0  0  0  0
 48 23  1  0  0  0  0
 49 24  1  0  0  0  0
 54 26  1  0  0  0  0
M  END
>  <Pose>
1

>  <Score>
-4.56

$$$$
