
 OpenBabel03232203513D

 49 52  0  0  0  0  0  0  0  0999 V2000
   -6.8870   23.0200   -8.7370 B   0  0  0  0  0  0  0  0  0  0  0  0
   -5.7240   21.8010   -9.6470 C   0  0  0  0  0  0  0  0  0  0  0  0
   -4.4340   21.5750   -9.2070 C   0  0  0  0  0  0  0  0  0  0  0  0
   -3.5940   20.6870   -9.8720 C   0  0  0  0  0  0  0  0  0  0  0  0
   -4.0130   20.0020  -10.9930 C   0  0  0  0  0  0  0  0  0  0  0  0
   -5.3000   20.2320  -11.4280 C   0  0  0  0  0  0  0  0  0  0  0  0
   -6.1350   21.1110  -10.7700 C   0  0  0  0  0  0  0  0  0  0  0  0
   -3.1820   19.0880  -11.6980 N   0  0  0  0  0  0  0  0  0  0  0  0
   -2.1230   18.3780  -11.2730 C   0  0  0  0  0  0  0  0  0  0  0  0
   -1.6990   18.4410  -10.0910 O   0  0  0  0  0  0  0  0  0  0  0  0
   -1.5990   17.6030  -12.2940 C   0  0  0  0  0  0  0  0  0  0  0  0
   -2.3530   17.8460  -13.3580 C   0  0  0  0  0  0  0  0  0  0  0  0
   -1.8440   17.0950  -14.3470 N   0  0  0  0  0  0  0  0  0  0  0  0
   -0.8070   16.4110  -13.8980 N   0  0  0  0  0  0  0  0  0  0  0  0
   -0.6400   16.7090  -12.6370 N   0  0  0  0  0  0  0  0  0  0  0  0
    0.3700   16.2040  -11.7380 C   0  0  0  0  0  0  0  0  0  0  0  0
    1.1260   15.0870  -12.4200 C   0  0  0  0  0  0  0  0  0  0  0  0
    2.3490   15.2260  -12.6430 O   0  0  0  0  0  0  0  0  0  0  0  0
    0.4580   13.9120  -12.7950 N   0  0  0  0  0  0  0  0  0  0  0  0
    1.0590   12.6600  -13.0290 C   0  0  0  0  0  0  0  0  0  0  0  0
    2.3450   12.3100  -12.7050 C   0  0  0  0  0  0  0  0  0  0  0  0
    2.8810   11.0680  -12.9770 C   0  0  0  0  0  0  0  0  0  0  0  0
    2.0780   10.1400  -13.6060 C   0  0  0  0  0  0  0  0  0  0  0  0
    0.7730   10.4530  -13.9500 C   0  0  0  0  0  0  0  0  0  0  0  0
    0.2630   11.6910  -13.6710 C   0  0  0  0  0  0  0  0  0  0  0  0
    2.5990    8.8810  -13.8900 O   0  0  0  0  0  0  0  0  0  0  0  0
    3.5440    8.7440  -14.9340 C   0  0  0  0  0  0  0  0  0  0  0  0
    4.1910   10.7420  -12.6350 O   0  0  0  0  0  0  0  0  0  0  0  0
    5.0840   11.8210  -12.3280 C   0  0  0  0  0  0  0  0  0  0  0  0
   -3.3260   18.7570  -13.0010 C   0  0  0  0  0  0  0  0  0  0  0  0
   -4.2270   19.2180  -13.7770 O   0  0  0  0  0  0  0  0  0  0  0  0
   -4.1110   22.1190   -8.3200 H   0  0  0  0  0  0  0  0  0  0  0  0
   -2.5910   20.5170   -9.5210 H   0  0  0  0  0  0  0  0  0  0  0  0
   -5.6240   19.6880  -12.3130 H   0  0  0  0  0  0  0  0  0  0  0  0
   -7.1510   21.2730  -11.1390 H   0  0  0  0  0  0  0  0  0  0  0  0
   -2.1860   17.0350  -15.3260 H   0  0  0  0  0  0  0  0  0  0  0  0
   -0.1990   15.7320  -14.4440 H   0  0  0  0  0  0  0  0  0  0  0  0
   -0.0600   15.7830  -10.7990 H   0  0  0  0  0  0  0  0  0  0  0  0
    1.1170   16.9760  -11.4960 H   0  0  0  0  0  0  0  0  0  0  0  0
   -0.6060   13.9800  -12.9070 H   0  0  0  0  0  0  0  0  0  0  0  0
    2.9930   13.0160  -12.2030 H   0  0  0  0  0  0  0  0  0  0  0  0
    0.1660    9.6940  -14.4480 H   0  0  0  0  0  0  0  0  0  0  0  0
   -0.7790   11.9270  -13.9510 H   0  0  0  0  0  0  0  0  0  0  0  0
    4.3600    9.4730  -14.7140 H   0  0  0  0  0  0  0  0  0  0  0  0
    3.0750    9.0110  -15.8900 H   0  0  0  0  0  0  0  0  0  0  0  0
    3.9500    7.7060  -14.9200 H   0  0  0  0  0  0  0  0  0  0  0  0
    4.7400   12.3470  -11.3960 H   0  0  0  0  0  0  0  0  0  0  0  0
    6.1160   11.4430  -12.1800 H   0  0  0  0  0  0  0  0  0  0  0  0
    5.0950   12.5610  -13.1550 H   0  0  0  0  0  0  0  0  0  0  0  0
  2  3  1  0  0  0  0
  2  1  1  0  0  0  0
  3 32  1  0  0  0  0
  4 33  1  0  0  0  0
  4  3  2  0  0  0  0
  5  4  1  0  0  0  0
  6  5  2  0  0  0  0
  6  7  1  0  0  0  0
  7  2  2  0  0  0  0
  8  9  1  0  0  0  0
  8  5  1  0  0  0  0
  9 10  2  0  0  0  0
 11  9  1  0  0  0  0
 12 30  1  0  0  0  0
 12 11  2  0  0  0  0
 13 14  1  0  0  0  0
 13 12  1  0  0  0  0
 14 15  1  0  0  0  0
 15 11  1  0  0  0  0
 15 16  1  0  0  0  0
 16 39  1  0  0  0  0
 16 38  1  0  0  0  0
 17 16  1  0  0  0  0
 18 17  2  0  0  0  0
 19 17  1  0  0  0  0
 20 19  1  0  0  0  0
 20 21  1  0  0  0  0
 21 41  1  0  0  0  0
 22 21  2  0  0  0  0
 22 28  1  0  0  0  0
 23 22  1  0  0  0  0
 24 25  1  0  0  0  0
 24 23  2  0  0  0  0
 25 20  2  0  0  0  0
 26 23  1  0  0  0  0
 27 46  1  0  0  0  0
 27 44  1  0  0  0  0
 27 26  1  0  0  0  0
 28 29  1  0  0  0  0
 29 48  1  0  0  0  0
 29 47  1  0  0  0  0
 30  8  1  0  0  0  0
 31 30  2  0  0  0  0
 34  6  1  0  0  0  0
 35  7  1  0  0  0  0
 36 13  1  0  0  0  0
 37 14  1  0  0  0  0
 40 19  1  0  0  0  0
 42 24  1  0  0  0  0
 43 25  1  0  0  0  0
 45 27  1  0  0  0  0
 49 29  1  0  0  0  0
M  END
>  <Pose>
1

>  <Score>
-7.22

$$$$
