
 OpenBabel03232203513D

 48 51  0  0  0  0  0  0  0  0999 V2000
    4.0570    6.8280  -15.6190 B   0  0  0  0  0  0  0  0  0  0  0  0
    3.4340    8.4350  -14.8000 C   0  0  0  0  0  0  0  0  0  0  0  0
    2.1620    8.5490  -14.2800 C   0  0  0  0  0  0  0  0  0  0  0  0
    1.7270    9.7240  -13.6850 C   0  0  0  0  0  0  0  0  0  0  0  0
    2.5390   10.8350  -13.5820 C   0  0  0  0  0  0  0  0  0  0  0  0
    3.8150   10.7240  -14.1040 C   0  0  0  0  0  0  0  0  0  0  0  0
    4.2490    9.5560  -14.6960 C   0  0  0  0  0  0  0  0  0  0  0  0
    2.1320   12.0570  -12.9750 N   0  0  0  0  0  0  0  0  0  0  0  0
    0.9750   12.7480  -13.1810 C   0  0  0  0  0  0  0  0  0  0  0  0
    0.0730   12.3760  -13.9680 O   0  0  0  0  0  0  0  0  0  0  0  0
    0.9420   13.8930  -12.4140 C   0  0  0  0  0  0  0  0  0  0  0  0
    2.0800   13.9070  -11.7350 C   0  0  0  0  0  0  0  0  0  0  0  0
    2.0770   15.0170  -10.9760 N   0  0  0  0  0  0  0  0  0  0  0  0
    0.9420   15.6640  -11.2010 N   0  0  0  0  0  0  0  0  0  0  0  0
    0.2190   14.9990  -12.0820 N   0  0  0  0  0  0  0  0  0  0  0  0
   -1.0650   15.3450  -12.6170 C   0  0  0  0  0  0  0  0  0  0  0  0
   -1.3460   16.8290  -12.5920 C   0  0  0  0  0  0  0  0  0  0  0  0
   -1.2560   17.4150  -13.6930 O   0  0  0  0  0  0  0  0  0  0  0  0
   -1.6860   17.4940  -11.4160 N   0  0  0  0  0  0  0  0  0  0  0  0
   -2.6140   18.5260  -11.1950 C   0  0  0  0  0  0  0  0  0  0  0  0
   -2.4810   19.3600  -10.0850 C   0  0  0  0  0  0  0  0  0  0  0  0
   -3.3720   20.3650   -9.8220 C   0  0  0  0  0  0  0  0  0  0  0  0
   -4.4570   20.5850  -10.6720 C   0  0  0  0  0  0  0  0  0  0  0  0
   -4.5600   19.7480  -11.7570 C   0  0  0  0  0  0  0  0  0  0  0  0
   -3.6660   18.7380  -12.0270 C   0  0  0  0  0  0  0  0  0  0  0  0
   -5.3300   21.6040  -10.3680 O   0  0  0  0  0  0  0  0  0  0  0  0
   -6.0860   21.7360   -9.2080 C   0  0  0  0  0  0  0  0  0  0  0  0
   -7.3180   22.5600   -9.3650 C   0  0  0  0  0  0  0  0  0  0  0  0
    2.8060   12.7880  -12.0750 C   0  0  0  0  0  0  0  0  0  0  0  0
    3.9490   12.4590  -11.6270 O   0  0  0  0  0  0  0  0  0  0  0  0
    1.5210    7.6740  -14.3600 H   0  0  0  0  0  0  0  0  0  0  0  0
    0.7320    9.8110  -13.2790 H   0  0  0  0  0  0  0  0  0  0  0  0
    4.4500   11.5990  -14.0220 H   0  0  0  0  0  0  0  0  0  0  0  0
    5.2490    9.4950  -15.0940 H   0  0  0  0  0  0  0  0  0  0  0  0
    2.8090   15.3400  -10.3200 H   0  0  0  0  0  0  0  0  0  0  0  0
    0.6660   16.5770  -10.7350 H   0  0  0  0  0  0  0  0  0  0  0  0
   -1.1370   15.0160  -13.6890 H   0  0  0  0  0  0  0  0  0  0  0  0
   -1.9120   14.8790  -12.0450 H   0  0  0  0  0  0  0  0  0  0  0  0
   -1.1530   17.1700  -10.5340 H   0  0  0  0  0  0  0  0  0  0  0  0
   -1.6540   19.2090   -9.4160 H   0  0  0  0  0  0  0  0  0  0  0  0
   -3.2390   21.0040   -8.9390 H   0  0  0  0  0  0  0  0  0  0  0  0
   -5.3810   19.8800  -12.4400 H   0  0  0  0  0  0  0  0  0  0  0  0
   -3.8050   18.1080  -12.9160 H   0  0  0  0  0  0  0  0  0  0  0  0
   -6.4210   20.7010   -8.8960 H   0  0  0  0  0  0  0  0  0  0  0  0
   -5.4870   22.1420   -8.3650 H   0  0  0  0  0  0  0  0  0  0  0  0
   -8.2720   22.0070   -9.2520 H   0  0  0  0  0  0  0  0  0  0  0  0
   -7.3530   23.3610   -8.5900 H   0  0  0  0  0  0  0  0  0  0  0  0
   -7.3760   23.1060  -10.3440 H   0  0  0  0  0  0  0  0  0  0  0  0
  1  2  1  0  0  0  0
  2  7  2  0  0  0  0
  2  3  1  0  0  0  0
  3  4  2  0  0  0  0
  4  5  1  0  0  0  0
  4 32  1  0  0  0  0
  5  8  1  0  0  0  0
  6 33  1  0  0  0  0
  6  5  2  0  0  0  0
  7  6  1  0  0  0  0
  8 29  1  0  0  0  0
  9  8  1  0  0  0  0
  9 11  1  0  0  0  0
 10  9  2  0  0  0  0
 11 15  1  0  0  0  0
 11 12  2  0  0  0  0
 12 13  1  0  0  0  0
 13 35  1  0  0  0  0
 14 13  1  0  0  0  0
 14 36  1  0  0  0  0
 15 14  1  0  0  0  0
 16 17  1  0  0  0  0
 16 15  1  0  0  0  0
 16 38  1  0  0  0  0
 17 19  1  0  0  0  0
 18 17  2  0  0  0  0
 19 20  1  0  0  0  0
 19 39  1  0  0  0  0
 20 21  1  0  0  0  0
 21 22  2  0  0  0  0
 21 40  1  0  0  0  0
 22 41  1  0  0  0  0
 23 26  1  0  0  0  0
 23 22  1  0  0  0  0
 24 23  2  0  0  0  0
 25 24  1  0  0  0  0
 25 20  2  0  0  0  0
 26 27  1  0  0  0  0
 27 44  1  0  0  0  0
 27 45  1  0  0  0  0
 28 46  1  0  0  0  0
 28 27  1  0  0  0  0
 28 47  1  0  0  0  0
 29 12  1  0  0  0  0
 29 30  2  0  0  0  0
 31  3  1  0  0  0  0
 34  7  1  0  0  0  0
 37 16  1  0  0  0  0
 42 24  1  0  0  0  0
 43 25  1  0  0  0  0
 48 28  1  0  0  0  0
M  END
>  <Pose>
1

>  <Score>
-8.22

$$$$
