
 OpenBabel03232203513D

 36 39  0  0  0  0  0  0  0  0999 V2000
   -3.7620   19.2190  -12.9670 B   0  0  0  0  0  0  0  0  0  0  0  0
   -2.3740   17.9070  -12.8370 C   0  0  0  0  0  0  0  0  0  0  0  0
   -2.1140   17.0230  -13.8630 C   0  0  0  0  0  0  0  0  0  0  0  0
   -1.1020   16.0740  -13.7540 C   0  0  0  0  0  0  0  0  0  0  0  0
   -0.3260   15.9870  -12.6170 C   0  0  0  0  0  0  0  0  0  0  0  0
   -0.5970   16.8770  -11.5990 C   0  0  0  0  0  0  0  0  0  0  0  0
   -1.6000   17.8230  -11.6980 C   0  0  0  0  0  0  0  0  0  0  0  0
    0.7240   15.0220  -12.4740 N   0  0  0  0  0  0  0  0  0  0  0  0
    0.6180   13.6930  -12.6950 C   0  0  0  0  0  0  0  0  0  0  0  0
   -0.4150   13.0490  -13.0670 O   0  0  0  0  0  0  0  0  0  0  0  0
    1.8240   13.0570  -12.4610 C   0  0  0  0  0  0  0  0  0  0  0  0
    2.6620   14.0290  -12.0950 C   0  0  0  0  0  0  0  0  0  0  0  0
    3.8450   13.4100  -11.8660 N   0  0  0  0  0  0  0  0  0  0  0  0
    3.6930   12.1160  -12.0940 N   0  0  0  0  0  0  0  0  0  0  0  0
    2.4490   11.8670  -12.4650 N   0  0  0  0  0  0  0  0  0  0  0  0
    1.8920   10.5900  -12.8010 C   0  0  0  0  0  0  0  0  0  0  0  0
    2.1750    9.4690  -12.0470 C   0  0  0  0  0  0  0  0  0  0  0  0
    1.6500    8.2190  -12.3460 C   0  0  0  0  0  0  0  0  0  0  0  0
    0.8130    8.0640  -13.4310 C   0  0  0  0  0  0  0  0  0  0  0  0
    0.5290    9.1810  -14.1860 C   0  0  0  0  0  0  0  0  0  0  0  0
    1.0540   10.4280  -13.8840 C   0  0  0  0  0  0  0  0  0  0  0  0
    0.2590    6.7930  -13.7630 N   0  0  0  0  0  0  0  0  0  0  0  0
    0.6020    5.7470  -13.1810 O   0  0  0  0  0  0  0  0  0  0  0  0
   -0.6740    6.7130  -14.7480 O   0  0  0  0  0  0  0  0  0  0  0  0
    1.9970   15.2370  -12.0990 C   0  0  0  0  0  0  0  0  0  0  0  0
    2.4490   16.3730  -11.8130 O   0  0  0  0  0  0  0  0  0  0  0  0
   -2.7320   17.1010  -14.7560 H   0  0  0  0  0  0  0  0  0  0  0  0
   -0.8990   15.3910  -14.5460 H   0  0  0  0  0  0  0  0  0  0  0  0
    0.0090   16.8210  -10.6930 H   0  0  0  0  0  0  0  0  0  0  0  0
   -1.8040   18.5230  -10.8810 H   0  0  0  0  0  0  0  0  0  0  0  0
    4.7240   13.9020  -11.5570 H   0  0  0  0  0  0  0  0  0  0  0  0
    4.4230   11.3610  -12.0060 H   0  0  0  0  0  0  0  0  0  0  0  0
    2.8270    9.5690  -11.1950 H   0  0  0  0  0  0  0  0  0  0  0  0
    1.8860    7.3390  -11.7350 H   0  0  0  0  0  0  0  0  0  0  0  0
   -0.1290    9.0410  -15.0310 H   0  0  0  0  0  0  0  0  0  0  0  0
    0.8240   11.2970  -14.4820 H   0  0  0  0  0  0  0  0  0  0  0  0
  1  2  1  0  0  0  0
  2  7  1  0  0  0  0
  3  4  1  0  0  0  0
  3  2  2  0  0  0  0
  4  5  2  0  0  0  0
  5  8  1  0  0  0  0
  5  6  1  0  0  0  0
  6 29  1  0  0  0  0
  7  6  2  0  0  0  0
  7 30  1  0  0  0  0
  8 25  1  0  0  0  0
  9  8  1  0  0  0  0
  9 11  1  0  0  0  0
 10  9  2  0  0  0  0
 11 12  2  0  0  0  0
 12 13  1  0  0  0  0
 13 31  1  0  0  0  0
 14 32  1  0  0  0  0
 14 13  1  0  0  0  0
 15 11  1  0  0  0  0
 15 14  1  0  0  0  0
 16 15  1  0  0  0  0
 16 17  1  0  0  0  0
 17 33  1  0  0  0  0
 18 17  2  0  0  0  0
 18 34  1  0  0  0  0
 19 18  1  0  0  0  0
 20 21  1  0  0  0  0
 20 19  2  0  0  0  0
 21 16  2  0  0  0  0
 22 19  1  0  0  0  0
 22 23  2  0  0  0  0
 24 22  2  0  0  0  0
 25 12  1  0  0  0  0
 25 26  2  0  0  0  0
 27  3  1  0  0  0  0
 28  4  1  0  0  0  0
 35 20  1  0  0  0  0
 36 21  1  0  0  0  0
M  END
>  <Pose>
1

>  <Score>
-6.84

$$$$
