
 OpenBabel03232203513D

 38 42  0  0  1  0  0  0  0  0999 V2000
    1.1460   15.8040  -11.5270 B   0  0  0  0  0  0  0  0  0  0  0  0
    1.3140   14.0600  -12.2520 C   0  0  0  0  0  0  0  0  0  0  0  0
    2.3850   13.2780  -11.8940 C   0  0  0  0  0  0  0  0  0  0  0  0
    2.4820   12.0150  -12.4350 C   0  0  0  0  0  0  0  0  0  0  0  0
    1.5460   11.5210  -13.3170 C   0  0  0  0  0  0  0  0  0  0  0  0
    0.4630   12.3100  -13.6800 C   0  0  0  0  0  0  0  0  0  0  0  0
    0.3680   13.5890  -13.1280 C   0  0  0  0  0  0  0  0  0  0  0  0
    1.6570   10.2040  -13.8710 N   0  0  0  0  0  0  0  0  0  0  0  0
    0.5490    9.3260  -13.9960 C   0  0  0  0  0  0  0  0  0  0  0  0
   -0.6490    9.6970  -13.9730 O   0  0  0  0  0  0  0  0  0  0  0  0
    1.0470    7.9340  -14.1560 C   0  0  2  0  0  0  0  0  0  0  0  0
    1.1110    7.2020  -12.8510 C   0  0  1  0  0  0  0  0  0  0  0  0
    2.2100    6.3470  -13.0910 O   0  0  0  0  0  0  0  0  0  0  0  0
    3.1670    7.3650  -13.3310 C   0  0  1  0  0  0  0  0  0  0  0  0
    2.5360    8.0890  -14.4690 C   0  0  2  0  0  0  0  0  0  0  0  0
    2.8200    9.5470  -14.3750 C   0  0  0  0  0  0  0  0  0  0  0  0
    3.8890   10.0770  -14.6870 O   0  0  0  0  0  0  0  0  0  0  0  0
    2.9780    8.1700  -12.0960 C   0  0  0  0  0  0  0  0  0  0  0  0
    1.6740    8.1120  -11.8420 C   0  0  0  0  0  0  0  0  0  0  0  0
   -0.1070    6.4750  -12.4710 C   0  0  0  0  0  0  0  0  0  0  0  0
   -0.2830    5.2940  -13.1380 O   0  0  0  0  0  0  0  0  0  0  0  0
   -1.3480    5.4240  -13.9940 C   0  0  0  0  0  0  0  0  0  0  0  0
   -1.8650    6.8140  -13.8160 C   0  0  0  0  0  0  0  0  0  0  0  0
   -1.2430    7.2440  -12.6490 O   0  0  0  0  0  0  0  0  0  0  0  0
    3.1560   13.6220  -11.1980 H   0  0  0  0  0  0  0  0  0  0  0  0
    3.3270   11.3630  -12.1690 H   0  0  0  0  0  0  0  0  0  0  0  0
   -0.2610   11.9100  -14.3690 H   0  0  0  0  0  0  0  0  0  0  0  0
   -0.4740   14.2030  -13.4110 H   0  0  0  0  0  0  0  0  0  0  0  0
    0.4950    7.4130  -14.9380 H   0  0  0  0  0  0  0  0  0  0  0  0
    4.1630    6.9880  -13.4870 H   0  0  0  0  0  0  0  0  0  0  0  0
    2.7760    7.6950  -15.4570 H   0  0  0  0  0  0  0  0  0  0  0  0
    3.7850    8.6670  -11.5750 H   0  0  0  0  0  0  0  0  0  0  0  0
    1.2240    8.6710  -11.0280 H   0  0  0  0  0  0  0  0  0  0  0  0
   -0.0420    6.2530  -11.3720 H   0  0  0  0  0  0  0  0  0  0  0  0
   -2.1580    4.6930  -13.8060 H   0  0  0  0  0  0  0  0  0  0  0  0
   -0.9570    5.3290  -15.0400 H   0  0  0  0  0  0  0  0  0  0  0  0
   -2.9870    6.8090  -13.6930 H   0  0  0  0  0  0  0  0  0  0  0  0
   -1.5820    7.5020  -14.6520 H   0  0  0  0  0  0  0  0  0  0  0  0
  2  3  1  0  0  0  0
  2  1  1  0  0  0  0
  3 25  1  0  0  0  0
  4 26  1  0  0  0  0
  4  3  2  0  0  0  0
  5  4  1  0  0  0  0
  6  5  2  0  0  0  0
  6  7  1  0  0  0  0
  7  2  2  0  0  0  0
  8  5  1  0  0  0  0
  9 10  2  0  0  0  0
  9  8  1  0  0  0  0
 11 29  1  6  0  0  0
 11  9  1  0  0  0  0
 11 12  1  0  0  0  0
 12 20  1  1  0  0  0
 12 19  1  0  0  0  0
 13 12  1  0  0  0  0
 14 30  1  6  0  0  0
 14 13  1  0  0  0  0
 14 18  1  0  0  0  0
 15 31  1  6  0  0  0
 15 16  1  0  0  0  0
 15 11  1  0  0  0  0
 15 14  1  0  0  0  0
 16  8  1  0  0  0  0
 17 16  2  0  0  0  0
 18 19  2  0  0  0  0
 18 32  1  0  0  0  0
 19 33  1  0  0  0  0
 20 34  1  0  0  0  0
 21 20  1  0  0  0  0
 22 23  1  0  0  0  0
 22 35  1  0  0  0  0
 22 21  1  0  0  0  0
 23 37  1  0  0  0  0
 23 24  1  0  0  0  0
 24 20  1  0  0  0  0
 27  6  1  0  0  0  0
 28  7  1  0  0  0  0
 36 22  1  0  0  0  0
 38 23  1  0  0  0  0
M  END
>  <Pose>
1

>  <Score>
-4.23

$$$$
