
 OpenBabel03232203513D

 45 48  0  0  1  0  0  0  0  0999 V2000
   -4.6600    8.8480  -14.0090 B   0  0  0  0  0  0  0  0  0  0  0  0
   -2.8830    9.5060  -13.7870 C   0  0  0  0  0  0  0  0  0  0  0  0
   -2.6000   10.7950  -14.1500 C   0  0  0  0  0  0  0  0  0  0  0  0
   -1.3080   11.2810  -13.9920 C   0  0  0  0  0  0  0  0  0  0  0  0
   -0.2970   10.5020  -13.4770 C   0  0  0  0  0  0  0  0  0  0  0  0
   -0.6040    9.2080  -13.1170 C   0  0  0  0  0  0  0  0  0  0  0  0
   -1.8840    8.7000  -13.2660 C   0  0  0  0  0  0  0  0  0  0  0  0
    0.9910   11.0840  -13.3480 N   0  0  0  0  0  0  0  0  0  0  0  0
    2.1410   10.4450  -13.9350 C   0  0  0  0  0  0  0  0  0  0  0  0
    1.9950    9.3610  -14.5640 O   0  0  0  0  0  0  0  0  0  0  0  0
    3.3860   11.0830  -13.7670 N   0  0  0  0  0  0  0  0  0  0  0  0
    3.5560   12.1720  -13.1390 C   0  0  0  0  0  0  0  0  0  0  0  0
    2.4960   12.9690  -12.4730 C   0  0  1  0  0  0  0  0  0  0  0  0
    2.8910   13.1710  -11.0510 C   0  0  0  0  0  0  0  0  0  0  0  0
    2.4130   14.3410  -10.4080 N   0  0  0  0  0  4  0  0  0  0  0  0
    1.4190   15.0630  -11.0980 C   0  0  0  0  0  0  0  0  0  0  0  0
    1.4140   15.1030  -12.4980 C   0  0  0  0  0  0  0  0  0  0  0  0
    0.4420   15.8080  -13.1500 C   0  0  0  0  0  0  0  0  0  0  0  0
   -0.5590   16.5000  -12.5080 C   0  0  0  0  0  0  0  0  0  0  0  0
   -0.5510   16.4580  -11.1300 C   0  0  0  0  0  0  0  0  0  0  0  0
    0.4240   15.7510  -10.4380 C   0  0  0  0  0  0  0  0  0  0  0  0
   -1.5980   17.2530  -13.2500 C   0  0  0  0  0  0  0  0  0  0  0  0
    2.5110   14.3420  -13.1510 C   0  0  0  0  0  0  0  0  0  0  0  0
    3.5060   15.2380   -9.9970 C   0  0  0  0  0  0  0  0  0  0  0  0
    1.1860   12.3050  -12.6440 C   0  0  0  0  0  0  0  0  0  0  0  0
    0.1290   12.8170  -12.1480 O   0  0  0  0  0  0  0  0  0  0  0  0
    4.8610   12.7010  -13.0490 O   0  0  0  0  0  0  0  0  0  0  0  0
   -3.4020   11.4000  -14.5540 H   0  0  0  0  0  0  0  0  0  0  0  0
   -1.1510   12.3110  -14.2980 H   0  0  0  0  0  0  0  0  0  0  0  0
    0.1670    8.5660  -12.7070 H   0  0  0  0  0  0  0  0  0  0  0  0
   -2.1560    7.6930  -12.9930 H   0  0  0  0  0  0  0  0  0  0  0  0
    2.6410   12.2370  -10.4950 H   0  0  0  0  0  0  0  0  0  0  0  0
    4.0210   13.2140  -11.0260 H   0  0  0  0  0  0  0  0  0  0  0  0
    1.9730   14.0410   -9.4870 H   0  0  0  0  0  0  0  0  0  0  0  0
    0.4710   15.8140  -14.2400 H   0  0  0  0  0  0  0  0  0  0  0  0
   -1.3220   16.9920  -10.5850 H   0  0  0  0  0  0  0  0  0  0  0  0
    0.4100   15.7330   -9.3610 H   0  0  0  0  0  0  0  0  0  0  0  0
   -2.0750   18.0340  -12.6650 H   0  0  0  0  0  0  0  0  0  0  0  0
   -1.1550   17.5970  -14.2050 H   0  0  0  0  0  0  0  0  0  0  0  0
   -2.3830   16.4920  -13.5310 H   0  0  0  0  0  0  0  0  0  0  0  0
    2.3750   14.2550  -14.2380 H   0  0  0  0  0  0  0  0  0  0  0  0
    3.4700   14.8100  -12.8650 H   0  0  0  0  0  0  0  0  0  0  0  0
    3.7460   15.9730  -10.7850 H   0  0  0  0  0  0  0  0  0  0  0  0
    4.3760   14.6240   -9.7050 H   0  0  0  0  0  0  0  0  0  0  0  0
    3.1670   15.8130   -9.1100 H   0  0  0  0  0  0  0  0  0  0  0  0
  1  2  1  0  0  0  0
  2  7  1  0  0  0  0
  3  4  1  0  0  0  0
  3  2  2  0  0  0  0
  4  5  2  0  0  0  0
  5  8  1  0  0  0  0
  5  6  1  0  0  0  0
  6 30  1  0  0  0  0
  7  6  2  0  0  0  0
  7 31  1  0  0  0  0
  8 25  1  0  0  0  0
  9 11  1  0  0  0  0
  9  8  1  0  0  0  0
 10  9  2  0  0  0  0
 11 12  1  0  0  0  0
 12 27  2  0  0  0  0
 13 12  1  6  0  0  0
 13 14  1  0  0  0  0
 14 33  1  0  0  0  0
 14 32  1  0  0  0  0
 14 15  1  0  0  0  0
 15 24  1  0  0  0  0
 15 34  1  0  0  0  0
 16 21  1  0  0  0  0
 16 15  1  0  0  0  0
 17 16  2  0  0  0  0
 18 19  2  0  0  0  0
 18 17  1  0  0  0  0
 19 20  1  0  0  0  0
 20 36  1  0  0  0  0
 20 21  2  0  0  0  0
 21 37  1  0  0  0  0
 22 38  1  0  0  0  0
 22 19  1  0  0  0  0
 23 42  1  0  0  0  0
 23 17  1  0  0  0  0
 23 13  1  0  0  0  0
 24 44  1  0  0  0  0
 24 45  1  0  0  0  0
 25 13  1  0  0  0  0
 25 26  2  0  0  0  0
 28  3  1  0  0  0  0
 29  4  1  0  0  0  0
 35 18  1  0  0  0  0
 39 22  1  0  0  0  0
 40 22  1  0  0  0  0
 41 23  1  0  0  0  0
 43 24  1  0  0  0  0
M  END
>  <Pose>
1

>  <Score>
-3.81

$$$$
