
 OpenBabel03232203513D

 50 53  0  0  0  0  0  0  0  0999 V2000
   -5.3370    8.6120  -15.1670 B   0  0  0  0  0  0  0  0  0  0  0  0
   -3.7310    9.5260  -14.6690 C   0  0  0  0  0  0  0  0  0  0  0  0
   -3.1230    9.2790  -13.4490 C   0  0  0  0  0  0  0  0  0  0  0  0
   -1.9640    9.9430  -13.0990 C   0  0  0  0  0  0  0  0  0  0  0  0
   -1.3700   10.8680  -13.9340 C   0  0  0  0  0  0  0  0  0  0  0  0
   -1.9630   11.1260  -15.1520 C   0  0  0  0  0  0  0  0  0  0  0  0
   -3.1210   10.4520  -15.4860 C   0  0  0  0  0  0  0  0  0  0  0  0
   -0.1970   11.5170  -13.5350 N   0  0  0  0  0  0  0  0  0  0  0  0
    1.0540   10.8320  -13.6170 C   0  0  0  0  0  0  0  0  0  0  0  0
    1.0410    9.6380  -14.0590 O   0  0  0  0  0  0  0  0  0  0  0  0
    2.2430   11.4870  -13.2120 N   0  0  0  0  0  0  0  0  0  0  0  0
    2.2810   12.8210  -12.7140 C   0  0  0  0  0  0  0  0  0  0  0  0
    3.3570   13.3790  -12.3610 O   0  0  0  0  0  0  0  0  0  0  0  0
    1.0090   13.5580  -12.6170 C   0  0  0  0  0  0  0  0  0  0  0  0
    0.9790   14.8010  -12.1610 C   0  0  0  0  0  0  0  0  0  0  0  0
   -0.2630   15.4860  -12.0780 N   0  0  0  0  0  0  0  0  0  0  0  0
   -0.5270   16.7330  -12.6190 N   0  0  0  0  0  0  0  0  0  0  0  0
   -1.4510   17.6700  -12.0770 C   0  0  0  0  0  0  0  0  0  0  0  0
   -2.6440   17.9670  -12.6030 N   0  0  0  0  0  0  0  0  0  0  0  0
   -3.2550   18.8860  -11.8370 C   0  0  0  0  0  0  0  0  0  0  0  0
   -2.4010   19.1750  -10.7820 C   0  0  0  0  0  0  0  0  0  0  0  0
   -1.3270   18.4130  -10.9770 N   0  0  0  0  0  0  0  0  0  0  0  0
   -2.7310   20.0690   -9.8320 N   0  0  0  0  0  0  0  0  0  0  0  0
   -3.9080   20.6890   -9.9110 C   0  0  0  0  0  0  0  0  0  0  0  0
   -4.2580   21.5390   -9.0350 O   0  0  0  0  0  0  0  0  0  0  0  0
   -4.7920   20.4530  -10.9180 N   0  0  0  0  0  0  0  0  0  0  0  0
   -4.4510   19.5520  -11.8690 C   0  0  0  0  0  0  0  0  0  0  0  0
   -5.2590   19.3330  -12.7950 O   0  0  0  0  0  0  0  0  0  0  0  0
   -6.0540   21.1480  -10.9580 C   0  0  0  0  0  0  0  0  0  0  0  0
   -1.7970   20.3160   -8.7730 C   0  0  0  0  0  0  0  0  0  0  0  0
   -3.2800   17.4370  -13.8140 C   0  0  0  0  0  0  0  0  0  0  0  0
   -0.1960   12.8560  -13.0420 C   0  0  0  0  0  0  0  0  0  0  0  0
   -1.3060   13.4450  -12.9770 O   0  0  0  0  0  0  0  0  0  0  0  0
   -3.6060    8.5500  -12.8130 H   0  0  0  0  0  0  0  0  0  0  0  0
   -1.5540    9.6860  -12.1170 H   0  0  0  0  0  0  0  0  0  0  0  0
   -1.5380   11.8520  -15.8620 H   0  0  0  0  0  0  0  0  0  0  0  0
   -3.5550   10.6820  -16.4490 H   0  0  0  0  0  0  0  0  0  0  0  0
    3.1380   10.9500  -13.2880 H   0  0  0  0  0  0  0  0  0  0  0  0
    1.8620   15.3130  -11.8480 H   0  0  0  0  0  0  0  0  0  0  0  0
   -1.0270   14.9750  -11.5580 H   0  0  0  0  0  0  0  0  0  0  0  0
    0.0230   16.9640  -13.4970 H   0  0  0  0  0  0  0  0  0  0  0  0
   -6.1990   21.6830   -9.9970 H   0  0  0  0  0  0  0  0  0  0  0  0
   -6.9080   20.4390  -11.0400 H   0  0  0  0  0  0  0  0  0  0  0  0
   -6.0680   21.8500  -11.8100 H   0  0  0  0  0  0  0  0  0  0  0  0
   -1.1770   21.2180   -8.9460 H   0  0  0  0  0  0  0  0  0  0  0  0
   -2.3640   20.3960   -7.8230 H   0  0  0  0  0  0  0  0  0  0  0  0
   -1.1050   19.4560   -8.6600 H   0  0  0  0  0  0  0  0  0  0  0  0
   -3.9700   16.6030  -13.4940 H   0  0  0  0  0  0  0  0  0  0  0  0
   -3.8980   18.1850  -14.3110 H   0  0  0  0  0  0  0  0  0  0  0  0
   -2.5100   16.9780  -14.4630 H   0  0  0  0  0  0  0  0  0  0  0  0
  1  2  1  0  0  0  0
  2  3  1  0  0  0  0
  3  4  2  0  0  0  0
  3 34  1  0  0  0  0
  4 35  1  0  0  0  0
  5  8  1  0  0  0  0
  5  4  1  0  0  0  0
  6  5  2  0  0  0  0
  7  6  1  0  0  0  0
  7  2  2  0  0  0  0
  8 32  1  0  0  0  0
  9  8  1  0  0  0  0
  9 11  1  0  0  0  0
 10  9  2  0  0  0  0
 11 12  1  0  0  0  0
 12 14  1  0  0  0  0
 12 13  2  0  0  0  0
 14 15  2  0  0  0  0
 15 16  1  0  0  0  0
 15 39  1  0  0  0  0
 16 40  1  0  0  0  0
 17 16  1  0  0  0  0
 17 18  1  0  0  0  0
 18 22  2  0  0  0  0
 19 18  1  0  0  0  0
 19 20  1  0  0  0  0
 20 21  2  0  0  0  0
 21 23  1  0  0  0  0
 22 21  1  0  0  0  0
 23 30  1  0  0  0  0
 24 23  1  0  0  0  0
 24 25  2  0  0  0  0
 26 24  1  0  0  0  0
 27 20  1  0  0  0  0
 27 26  1  0  0  0  0
 28 27  2  0  0  0  0
 29 26  1  0  0  0  0
 29 42  1  0  0  0  0
 30 47  1  0  0  0  0
 30 46  1  0  0  0  0
 31 48  1  0  0  0  0
 31 19  1  0  0  0  0
 32 33  2  0  0  0  0
 32 14  1  0  0  0  0
 36  6  1  0  0  0  0
 37  7  1  0  0  0  0
 38 11  1  0  0  0  0
 41 17  1  0  0  0  0
 43 29  1  0  0  0  0
 44 29  1  0  0  0  0
 45 30  1  0  0  0  0
 49 31  1  0  0  0  0
 50 31  1  0  0  0  0
M  END
>  <Pose>
1

>  <Score>
-8.30

$$$$
