
 OpenBabel03232203513D

 44 47  0  0  0  0  0  0  0  0999 V2000
   -3.7500   19.2110  -13.3840 B   0  0  0  0  0  0  0  0  0  0  0  0
   -2.4300   17.8960  -13.0920 C   0  0  0  0  0  0  0  0  0  0  0  0
   -2.0310   17.0210  -14.0810 C   0  0  0  0  0  0  0  0  0  0  0  0
   -1.0520   16.0560  -13.8400 C   0  0  0  0  0  0  0  0  0  0  0  0
   -0.4660   15.9680  -12.5980 C   0  0  0  0  0  0  0  0  0  0  0  0
   -0.8890   16.8570  -11.6370 C   0  0  0  0  0  0  0  0  0  0  0  0
   -1.8470   17.8130  -11.8440 C   0  0  0  0  0  0  0  0  0  0  0  0
    0.5300   15.0260  -12.2570 N   0  0  0  0  0  0  0  0  0  0  0  0
    1.6600   15.4510  -11.4550 C   0  0  0  0  0  0  0  0  0  0  0  0
    2.6720   14.3520  -11.2310 C   0  0  0  0  0  0  0  0  0  0  0  0
    2.8790   13.6560  -12.5850 C   0  0  0  0  0  0  0  0  0  0  0  0
    1.6500   12.9470  -12.8310 N   0  0  0  0  0  0  0  0  0  0  0  0
    0.4970   13.6620  -12.6570 C   0  0  0  0  0  0  0  0  0  0  0  0
   -0.5450   12.8580  -12.9230 N   0  0  0  0  0  0  0  0  0  0  0  0
   -0.0250   11.6510  -13.2610 C   0  0  0  0  0  0  0  0  0  0  0  0
    1.3590   11.6980  -13.2060 C   0  0  0  0  0  0  0  0  0  0  0  0
    2.1150   10.5830  -13.5080 C   0  0  0  0  0  0  0  0  0  0  0  0
    3.3880   10.6680  -13.4460 O   0  0  0  0  0  0  0  0  0  0  0  0
    1.4960    9.4420  -13.8600 N   0  0  0  0  0  0  0  0  0  0  0  0
    0.1530    9.4240  -13.9060 C   0  0  0  0  0  0  0  0  0  0  0  0
   -0.3870    8.3350  -14.2410 O   0  0  0  0  0  0  0  0  0  0  0  0
   -0.5970   10.4870  -13.6180 N   0  0  0  0  0  0  0  0  0  0  0  0
   -2.0500   10.4310  -13.6770 C   0  0  0  0  0  0  0  0  0  0  0  0
    2.2830    8.2640  -14.1810 C   0  0  0  0  0  0  0  0  0  0  0  0
    2.3920    7.4130  -12.9510 C   0  0  0  0  0  0  0  0  0  0  0  0
    3.1550    6.4200  -12.9290 O   0  0  0  0  0  0  0  0  0  0  0  0
    1.6430    7.7030  -11.7870 N   0  0  0  0  0  0  0  0  0  0  0  0
   -2.4780   17.0710  -15.0680 H   0  0  0  0  0  0  0  0  0  0  0  0
   -0.7680   15.3930  -14.6440 H   0  0  0  0  0  0  0  0  0  0  0  0
   -0.4510   16.8290  -10.6270 H   0  0  0  0  0  0  0  0  0  0  0  0
   -2.1360   18.4840  -11.0490 H   0  0  0  0  0  0  0  0  0  0  0  0
    2.2100   16.2670  -12.0070 H   0  0  0  0  0  0  0  0  0  0  0  0
    1.3340   15.9020  -10.4880 H   0  0  0  0  0  0  0  0  0  0  0  0
    2.2650   13.6050  -10.4950 H   0  0  0  0  0  0  0  0  0  0  0  0
    3.6180   14.7740  -10.9040 H   0  0  0  0  0  0  0  0  0  0  0  0
    3.7640   13.0190  -12.5880 H   0  0  0  0  0  0  0  0  0  0  0  0
    2.9360   14.4990  -13.3300 H   0  0  0  0  0  0  0  0  0  0  0  0
   -2.5020   11.2660  -13.1440 H   0  0  0  0  0  0  0  0  0  0  0  0
   -2.3840   10.3050  -14.7210 H   0  0  0  0  0  0  0  0  0  0  0  0
   -2.3300    9.4780  -13.1450 H   0  0  0  0  0  0  0  0  0  0  0  0
    3.2830    8.5540  -14.5380 H   0  0  0  0  0  0  0  0  0  0  0  0
    1.7510    7.6870  -14.9510 H   0  0  0  0  0  0  0  0  0  0  0  0
    0.6100    7.5560  -11.7290 H   0  0  0  0  0  0  0  0  0  0  0  0
    2.1030    8.0830  -10.9230 H   0  0  0  0  0  0  0  0  0  0  0  0
  1  2  1  0  0  0  0
  2  7  1  0  0  0  0
  3  4  1  0  0  0  0
  3  2  2  0  0  0  0
  4  5  2  0  0  0  0
  5  8  1  0  0  0  0
  5  6  1  0  0  0  0
  6 30  1  0  0  0  0
  7  6  2  0  0  0  0
  7 31  1  0  0  0  0
  8  9  1  0  0  0  0
  9 10  1  0  0  0  0
  9 33  1  0  0  0  0
 10 35  1  0  0  0  0
 10 34  1  0  0  0  0
 11 10  1  0  0  0  0
 12 13  1  0  0  0  0
 12 11  1  0  0  0  0
 13  8  1  0  0  0  0
 14 13  2  0  0  0  0
 15 16  2  0  0  0  0
 15 14  1  0  0  0  0
 16 12  1  0  0  0  0
 17 18  2  0  0  0  0
 17 16  1  0  0  0  0
 19 17  1  0  0  0  0
 20 19  1  0  0  0  0
 20 22  1  0  0  0  0
 21 20  2  0  0  0  0
 22 15  1  0  0  0  0
 23 22  1  0  0  0  0
 23 40  1  0  0  0  0
 23 38  1  0  0  0  0
 24 19  1  0  0  0  0
 24 25  1  0  0  0  0
 25 26  2  0  0  0  0
 25 27  1  0  0  0  0
 27 43  1  0  0  0  0
 27 44  1  0  0  0  0
 28  3  1  0  0  0  0
 29  4  1  0  0  0  0
 32  9  1  0  0  0  0
 36 11  1  0  0  0  0
 37 11  1  0  0  0  0
 39 23  1  0  0  0  0
 41 24  1  0  0  0  0
 42 24  1  0  0  0  0
M  END
>  <Pose>
1

>  <Score>
-6.48

$$$$
