
 OpenBabel03232203513D

 47 51  0  0  1  0  0  0  0  0999 V2000
   -4.6740   19.4060  -12.3580 B   0  0  0  0  0  0  0  0  0  0  0  0
   -3.1180   18.2780  -12.2700 C   0  0  0  0  0  0  0  0  0  0  0  0
   -2.7150   17.5270  -13.3320 C   0  0  0  0  0  0  0  0  0  0  0  0
   -1.5820   16.7230  -13.2300 C   0  0  0  0  0  0  0  0  0  0  0  0
   -0.8420   16.6600  -12.0670 C   0  0  0  0  0  0  0  0  0  0  0  0
   -1.2800   17.4330  -11.0140 C   0  0  0  0  0  0  0  0  0  0  0  0
   -2.3950   18.2360  -11.0890 C   0  0  0  0  0  0  0  0  0  0  0  0
    0.3100   15.8280  -11.9970 N   0  0  0  0  0  0  0  0  0  0  0  0
    1.5020   16.1280  -11.4940 N   0  0  0  0  0  0  0  0  0  0  0  0
    2.3380   15.0800  -11.6060 C   0  0  0  0  0  0  0  0  0  0  0  0
    3.6030   15.0360  -11.2070 C   0  0  0  0  0  0  0  0  0  0  0  0
    1.6610   14.0420  -12.2140 C   0  0  0  0  0  0  0  0  0  0  0  0
    2.1070   12.8210  -12.5200 C   0  0  0  0  0  0  0  0  0  0  0  0
    1.2040   11.9210  -13.1500 N   0  0  0  0  0  4  0  0  0  0  0  0
    1.5260   10.5390  -13.3650 C   0  0  2  0  0  0  0  0  0  0  0  0
    2.6370   10.1060  -12.4630 C   0  0  0  0  0  0  0  0  0  0  0  0
    2.8660    8.6790  -12.6420 N   0  0  1  0  0  0  0  0  0  0  0  0
    1.6310    7.9850  -12.2960 C   0  0  0  0  0  0  0  0  0  0  0  0
    0.5550    8.3310  -13.1930 N   0  0  2  0  0  0  0  0  0  0  0  0
    0.9720    8.0900  -14.5710 C   0  0  0  0  0  0  0  0  0  0  0  0
    2.1700    8.8270  -14.9050 N   0  0  2  0  0  0  0  0  0  0  0  0
    3.2330    8.4270  -14.0120 C   0  0  0  0  0  0  0  0  0  0  0  0
    1.9340   10.2470  -14.7890 C   0  0  0  0  0  0  0  0  0  0  0  0
    0.2580    9.7340  -13.0650 C   0  0  0  0  0  0  0  0  0  0  0  0
    0.3930   14.5560  -12.4410 C   0  0  0  0  0  0  0  0  0  0  0  0
   -0.5340   13.9120  -12.9830 O   0  0  0  0  0  0  0  0  0  0  0  0
   -3.2780   17.5620  -14.2480 H   0  0  0  0  0  0  0  0  0  0  0  0
   -1.2660   16.1290  -14.0750 H   0  0  0  0  0  0  0  0  0  0  0  0
   -0.7130   17.3960  -10.0970 H   0  0  0  0  0  0  0  0  0  0  0  0
   -2.7470   18.8490  -10.2620 H   0  0  0  0  0  0  0  0  0  0  0  0
    1.7530   17.0440  -11.0710 H   0  0  0  0  0  0  0  0  0  0  0  0
    4.0500   15.9020  -10.7390 H   0  0  0  0  0  0  0  0  0  0  0  0
    4.2270   14.1720  -11.3210 H   0  0  0  0  0  0  0  0  0  0  0  0
    3.1240   12.5670  -12.2790 H   0  0  0  0  0  0  0  0  0  0  0  0
    0.2920   12.2890  -13.4570 H   0  0  0  0  0  0  0  0  0  0  0  0
    2.3990   10.3580  -11.4250 H   0  0  0  0  0  0  0  0  0  0  0  0
    3.5520   10.6650  -12.7640 H   0  0  0  0  0  0  0  0  0  0  0  0
    1.3550    8.2720  -11.2730 H   0  0  0  0  0  0  0  0  0  0  0  0
    1.8040    6.8880  -12.3910 H   0  0  0  0  0  0  0  0  0  0  0  0
    0.1330    8.2980  -15.2420 H   0  0  0  0  0  0  0  0  0  0  0  0
    1.1960    7.0040  -14.6340 H   0  0  0  0  0  0  0  0  0  0  0  0
    4.1550    9.0310  -14.2120 H   0  0  0  0  0  0  0  0  0  0  0  0
    3.4490    7.3510  -14.1150 H   0  0  0  0  0  0  0  0  0  0  0  0
    2.8740   10.7870  -15.0190 H   0  0  0  0  0  0  0  0  0  0  0  0
    1.1560   10.5580  -15.5190 H   0  0  0  0  0  0  0  0  0  0  0  0
    0.0020    9.9650  -12.0100 H   0  0  0  0  0  0  0  0  0  0  0  0
   -0.5200   10.0580  -13.7850 H   0  0  0  0  0  0  0  0  0  0  0  0
  1  2  1  0  0  0  0
  2  7  1  0  0  0  0
  3  4  1  0  0  0  0
  3  2  2  0  0  0  0
  4  5  2  0  0  0  0
  5  8  1  0  0  0  0
  5  6  1  0  0  0  0
  6 29  1  0  0  0  0
  7  6  2  0  0  0  0
  7 30  1  0  0  0  0
  8  9  1  0  0  0  0
  9 31  1  0  0  0  0
 10  9  1  0  0  0  0
 10 11  1  0  0  0  0
 11 32  1  0  0  0  0
 12 10  2  0  0  0  0
 13 34  1  0  0  0  0
 13 12  1  0  0  0  0
 14 13  2  0  0  0  0
 15 14  1  1  0  0  0
 15 24  1  0  0  0  0
 15 16  1  0  0  0  0
 16 36  1  0  0  0  0
 17 22  1  6  0  0  0
 17 16  1  0  0  0  0
 17 18  1  0  0  0  0
 18 38  1  0  0  0  0
 19 20  1  6  0  0  0
 19 24  1  0  0  0  0
 19 18  1  0  0  0  0
 21 23  1  1  0  0  0
 21 20  1  0  0  0  0
 21 22  1  0  0  0  0
 23 15  1  0  0  0  0
 24 46  1  0  0  0  0
 25 12  1  0  0  0  0
 25  8  1  0  0  0  0
 26 25  2  0  0  0  0
 27  3  1  0  0  0  0
 28  4  1  0  0  0  0
 33 11  1  0  0  0  0
 35 14  1  0  0  0  0
 37 16  1  0  0  0  0
 39 18  1  0  0  0  0
 40 20  1  0  0  0  0
 41 20  1  0  0  0  0
 42 22  1  0  0  0  0
 43 22  1  0  0  0  0
 44 23  1  0  0  0  0
 45 23  1  0  0  0  0
 47 24  1  0  0  0  0
M  END
>  <Pose>
1

>  <Score>
-6.03

$$$$
