
 OpenBabel03232203513D

 49 52  0  0  1  0  0  0  0  0999 V2000
   -6.2490   21.9190   -9.7760 B   0  0  0  0  0  0  0  0  0  0  0  0
   -5.0340   20.5840  -10.4320 C   0  0  0  0  0  0  0  0  0  0  0  0
   -5.3230   19.9130  -11.6000 C   0  0  0  0  0  0  0  0  0  0  0  0
   -4.4380   18.9420  -12.0760 C   0  0  0  0  0  0  0  0  0  0  0  0
   -3.2810   18.6450  -11.3970 C   0  0  0  0  0  0  0  0  0  0  0  0
   -3.0100   19.3250  -10.2360 C   0  0  0  0  0  0  0  0  0  0  0  0
   -3.8710   20.2830   -9.7540 C   0  0  0  0  0  0  0  0  0  0  0  0
   -2.4150   17.6860  -11.8750 O   0  0  0  0  0  0  0  0  0  0  0  0
   -1.7370   17.9040  -13.0790 C   0  0  0  0  0  0  0  0  0  0  0  0
   -1.3270   16.6570  -13.7500 C   0  0  0  0  0  0  0  0  0  0  0  0
   -1.0300   16.6700  -14.9570 O   0  0  0  0  0  0  0  0  0  0  0  0
   -1.2710   15.4550  -13.0160 N   0  0  0  0  0  0  0  0  0  0  0  0
   -0.0430   14.8610  -12.6030 C   0  0  0  0  0  0  0  0  0  0  0  0
    0.2740   13.5990  -12.9470 N   0  0  0  0  0  0  0  0  0  0  0  0
    1.4240   13.0810  -12.5490 C   0  0  0  0  0  0  0  0  0  0  0  0
    1.9540   11.8690  -12.7610 N   0  0  0  0  0  0  0  0  0  0  0  0
    3.1490   11.8770  -12.1280 C   0  0  0  0  0  0  0  0  0  0  0  0
    3.3510   13.0610  -11.5400 N   0  0  0  0  0  0  0  0  0  0  0  0
    2.3000   13.8500  -11.7740 C   0  0  0  0  0  0  0  0  0  0  0  0
    1.9820   15.1470  -11.4160 C   0  0  0  0  0  0  0  0  0  0  0  0
    0.8080   15.6160  -11.8460 N   0  0  0  0  0  0  0  0  0  0  0  0
    2.8870   15.8630  -10.6470 O   0  0  0  0  0  0  0  0  0  0  0  0
    1.4670   10.7500  -13.4720 C   0  0  2  0  0  0  0  0  0  0  0  0
    0.9300    9.7800  -12.6150 O   0  0  0  0  0  0  0  0  0  0  0  0
    1.9750    8.8690  -12.4920 C   0  0  2  0  0  0  0  0  0  0  0  0
    2.3060    8.6350  -13.9580 C   0  0  1  0  0  0  0  0  0  0  0  0
    2.3780   10.0890  -14.4180 C   0  0  1  0  0  0  0  0  0  0  0  0
    1.9250   10.1930  -15.7530 O   0  0  0  0  0  0  0  0  0  0  0  0
    3.4680    7.9440  -14.1550 O   0  0  0  0  0  0  0  0  0  0  0  0
    1.5590    7.6060  -11.7960 C   0  0  0  0  0  0  0  0  0  0  0  0
    1.3370    7.7580  -10.4540 O   0  0  0  0  0  0  0  0  0  0  0  0
   -6.2300   20.1520  -12.1240 H   0  0  0  0  0  0  0  0  0  0  0  0
   -4.7310   18.4600  -12.9930 H   0  0  0  0  0  0  0  0  0  0  0  0
   -2.1100   19.1440   -9.6400 H   0  0  0  0  0  0  0  0  0  0  0  0
   -3.6790   20.8330   -8.8390 H   0  0  0  0  0  0  0  0  0  0  0  0
   -0.7910   18.4590  -12.8320 H   0  0  0  0  0  0  0  0  0  0  0  0
   -2.2890   18.5760  -13.7680 H   0  0  0  0  0  0  0  0  0  0  0  0
   -2.1640   14.9490  -12.7480 H   0  0  0  0  0  0  0  0  0  0  0  0
    3.8730   11.0510  -12.0810 H   0  0  0  0  0  0  0  0  0  0  0  0
    3.1680   15.4210   -9.7650 H   0  0  0  0  0  0  0  0  0  0  0  0
    0.5640   11.0900  -14.0680 H   0  0  0  0  0  0  0  0  0  0  0  0
    2.8830    9.3190  -12.0440 H   0  0  0  0  0  0  0  0  0  0  0  0
    1.4400    8.1700  -14.4750 H   0  0  0  0  0  0  0  0  0  0  0  0
    3.4120   10.3850  -14.4250 H   0  0  0  0  0  0  0  0  0  0  0  0
    2.7400   10.3380  -16.2960 H   0  0  0  0  0  0  0  0  0  0  0  0
    3.5480    7.5540  -15.0840 H   0  0  0  0  0  0  0  0  0  0  0  0
    2.3070    6.8290  -12.0530 H   0  0  0  0  0  0  0  0  0  0  0  0
    0.6040    7.2740  -12.2770 H   0  0  0  0  0  0  0  0  0  0  0  0
    0.4570    8.2010  -10.3290 H   0  0  0  0  0  0  0  0  0  0  0  0
  2  1  1  0  0  0  0
  2  7  1  0  0  0  0
  3  2  2  0  0  0  0
  4  3  1  0  0  0  0
  4  5  2  0  0  0  0
  5  6  1  0  0  0  0
  6  7  2  0  0  0  0
  6 34  1  0  0  0  0
  7 35  1  0  0  0  0
  8  5  1  0  0  0  0
  9 36  1  0  0  0  0
  9  8  1  0  0  0  0
 10  9  1  0  0  0  0
 10 12  1  0  0  0  0
 11 10  2  0  0  0  0
 12 38  1  0  0  0  0
 12 13  1  0  0  0  0
 13 21  1  0  0  0  0
 14 13  2  0  0  0  0
 14 15  1  0  0  0  0
 15 19  2  0  0  0  0
 16 15  1  0  0  0  0
 16 17  1  0  0  0  0
 17 39  1  0  0  0  0
 17 18  2  0  0  0  0
 19 18  1  0  0  0  0
 19 20  1  0  0  0  0
 20 22  1  0  0  0  0
 21 20  2  0  0  0  0
 22 40  1  0  0  0  0
 23 41  1  6  0  0  0
 23 16  1  0  0  0  0
 23 24  1  0  0  0  0
 24 25  1  0  0  0  0
 25 42  1  1  0  0  0
 25 30  1  0  0  0  0
 26 43  1  6  0  0  0
 26 25  1  0  0  0  0
 27 44  1  1  0  0  0
 27 26  1  0  0  0  0
 27 23  1  0  0  0  0
 28 27  1  0  0  0  0
 29 26  1  0  0  0  0
 30 31  1  0  0  0  0
 31 49  1  0  0  0  0
 32  3  1  0  0  0  0
 33  4  1  0  0  0  0
 37  9  1  0  0  0  0
 45 28  1  0  0  0  0
 46 29  1  0  0  0  0
 47 30  1  0  0  0  0
 48 30  1  0  0  0  0
M  END
>  <Pose>
1

>  <Score>
-7.70

$$$$
