
 OpenBabel03232203513D

 39 43  0  0  1  0  0  0  0  0999 V2000
   -4.2410   17.5490  -14.7230 B   0  0  0  0  0  0  0  0  0  0  0  0
   -3.6970   18.2990  -13.0490 C   0  0  0  0  0  0  0  0  0  0  0  0
   -4.5110   19.2040  -12.3930 C   0  0  0  0  0  0  0  0  0  0  0  0
   -4.1300   19.7580  -11.1880 C   0  0  0  0  0  0  0  0  0  0  0  0
   -2.9430   19.4800  -10.5530 C   0  0  0  0  0  0  0  0  0  0  0  0
   -2.1410   18.5860  -11.2080 C   0  0  0  0  0  0  0  0  0  0  0  0
   -2.4750   17.9920  -12.4270 C   0  0  0  0  0  0  0  0  0  0  0  0
   -1.5300   17.1560  -13.1690 C   0  0  0  0  0  0  0  0  0  0  0  0
   -0.7450   16.2060  -12.4990 N   0  0  2  0  0  4  0  0  0  0  0  0
    0.2150   15.8130  -13.5920 C   0  0  0  0  0  0  0  0  0  0  0  0
    0.9550   14.6520  -13.3330 N   0  0  2  0  0  0  0  0  0  0  0  0
    0.0070   13.5820  -13.0720 C   0  0  0  0  0  0  0  0  0  0  0  0
   -0.6990   13.9240  -11.8630 N   0  0  2  0  0  0  0  0  0  0  0  0
   -1.5400   15.0620  -12.0550 C   0  0  0  0  0  0  0  0  0  0  0  0
    0.1830   14.1900  -10.7210 C   0  0  0  0  0  0  0  0  0  0  0  0
    0.9770   15.3590  -11.0620 N   0  0  2  0  0  0  0  0  0  0  0  0
    0.1200   16.5140  -11.4030 C   0  0  0  0  0  0  0  0  0  0  0  0
    1.8040   14.9600  -12.1760 C   0  0  0  0  0  0  0  0  0  0  0  0
   -2.9600   20.2500   -9.4000 O   0  0  0  0  0  0  0  0  0  0  0  0
   -3.7880   21.4170   -9.6620 C   0  0  0  0  0  0  0  0  0  0  0  0
   -4.8370   20.7010  -10.3800 O   0  0  0  0  0  0  0  0  0  0  0  0
   -5.4140   19.4210  -12.9100 H   0  0  0  0  0  0  0  0  0  0  0  0
   -1.1590   18.3330  -10.7120 H   0  0  0  0  0  0  0  0  0  0  0  0
   -0.7510   17.8900  -13.6300 H   0  0  0  0  0  0  0  0  0  0  0  0
   -2.0770   16.8130  -14.0840 H   0  0  0  0  0  0  0  0  0  0  0  0
    0.9010   16.7140  -13.6020 H   0  0  0  0  0  0  0  0  0  0  0  0
   -0.2780   15.7940  -14.5580 H   0  0  0  0  0  0  0  0  0  0  0  0
    0.4370   12.5760  -13.0460 H   0  0  0  0  0  0  0  0  0  0  0  0
   -0.7510   13.6680  -13.9070 H   0  0  0  0  0  0  0  0  0  0  0  0
   -2.3590   14.7860  -12.6870 H   0  0  0  0  0  0  0  0  0  0  0  0
   -1.8680   15.3770  -11.0150 H   0  0  0  0  0  0  0  0  0  0  0  0
   -0.4410   14.2910   -9.8430 H   0  0  0  0  0  0  0  0  0  0  0  0
    0.8880   13.3380  -10.6880 H   0  0  0  0  0  0  0  0  0  0  0  0
    0.8150   17.3740  -11.5620 H   0  0  0  0  0  0  0  0  0  0  0  0
   -0.5020   16.7040  -10.4840 H   0  0  0  0  0  0  0  0  0  0  0  0
    2.5200   15.7040  -12.4860 H   0  0  0  0  0  0  0  0  0  0  0  0
    2.2570   13.9890  -11.8770 H   0  0  0  0  0  0  0  0  0  0  0  0
   -3.3560   22.0560  -10.4860 H   0  0  0  0  0  0  0  0  0  0  0  0
   -4.1290   21.9140   -8.7830 H   0  0  0  0  0  0  0  0  0  0  0  0
  1  2  1  0  0  0  0
  2  7  2  0  0  0  0
  2  3  1  0  0  0  0
  3  4  2  0  0  0  0
  4  5  1  0  0  0  0
  4 21  1  0  0  0  0
  5 19  1  0  0  0  0
  6 23  1  0  0  0  0
  6  5  2  0  0  0  0
  7  6  1  0  0  0  0
  8  7  1  0  0  0  0
  9  8  1  6  0  0  0
  9 14  1  0  0  0  0
  9 17  1  0  0  0  0
 10  9  1  0  0  0  0
 11 10  1  1  0  0  0
 11 12  1  0  0  0  0
 11 18  1  0  0  0  0
 12 28  1  0  0  0  0
 13 12  1  6  0  0  0
 13 15  1  0  0  0  0
 14 13  1  0  0  0  0
 14 31  1  0  0  0  0
 15 33  1  0  0  0  0
 15 32  1  0  0  0  0
 16 18  1  6  0  0  0
 16 15  1  0  0  0  0
 17 16  1  0  0  0  0
 17 35  1  0  0  0  0
 18 37  1  0  0  0  0
 20 19  1  0  0  0  0
 20 39  1  0  0  0  0
 21 20  1  0  0  0  0
 22  3  1  0  0  0  0
 24  8  1  0  0  0  0
 25  8  1  0  0  0  0
 26 10  1  0  0  0  0
 27 10  1  0  0  0  0
 29 12  1  0  0  0  0
 30 14  1  0  0  0  0
 34 17  1  0  0  0  0
 36 18  1  0  0  0  0
 38 20  1  0  0  0  0
M  END
>  <Pose>
1

>  <Score>
-4.77

$$$$
