
 OpenBabel03232203513D

 41 44  0  0  0  0  0  0  0  0999 V2000
   -4.3220   17.4840  -14.4430 B   0  0  0  0  0  0  0  0  0  0  0  0
   -3.9230   18.4940  -12.8660 C   0  0  0  0  0  0  0  0  0  0  0  0
   -4.8270   19.3780  -12.3290 C   0  0  0  0  0  0  0  0  0  0  0  0
   -4.5220   20.0970  -11.1920 C   0  0  0  0  0  0  0  0  0  0  0  0
   -3.2920   19.9200  -10.5950 C   0  0  0  0  0  0  0  0  0  0  0  0
   -2.3810   19.0200  -11.1460 C   0  0  0  0  0  0  0  0  0  0  0  0
   -2.6660   18.2940  -12.2800 C   0  0  0  0  0  0  0  0  0  0  0  0
   -1.7270   17.3130  -12.8490 C   0  0  0  0  0  0  0  0  0  0  0  0
   -0.7870   16.8260  -11.9390 O   0  0  0  0  0  0  0  0  0  0  0  0
    0.0140   15.7220  -12.1720 C   0  0  0  0  0  0  0  0  0  0  0  0
    1.1070   15.4470  -11.3370 C   0  0  0  0  0  0  0  0  0  0  0  0
    1.9330   14.3620  -11.5200 C   0  0  0  0  0  0  0  0  0  0  0  0
    1.7110   13.4810  -12.5560 C   0  0  0  0  0  0  0  0  0  0  0  0
    0.6400   13.7340  -13.3860 C   0  0  0  0  0  0  0  0  0  0  0  0
   -0.1990   14.8350  -13.2030 C   0  0  0  0  0  0  0  0  0  0  0  0
    2.5820   12.3210  -12.7630 C   0  0  0  0  0  0  0  0  0  0  0  0
    2.2890   11.1410  -13.3330 N   0  0  0  0  0  0  0  0  0  0  0  0
    3.3830   10.3730  -13.3140 N   0  0  0  0  0  0  0  0  0  0  0  0
    4.3620   11.0540  -12.7370 N   0  0  0  0  0  0  0  0  0  0  0  0
    3.8720   12.2360  -12.4040 N   0  0  0  0  0  0  0  0  0  0  0  0
    3.5400    9.0230  -13.8160 C   0  0  0  0  0  0  0  0  0  0  0  0
    2.7640    8.8490  -15.0630 C   0  0  0  0  0  0  0  0  0  0  0  0
    3.2410    9.2350  -16.1420 O   0  0  0  0  0  0  0  0  0  0  0  0
    1.4890    8.2450  -15.0050 N   0  0  0  0  0  0  0  0  0  0  0  0
   -3.2560   20.7520   -9.4930 O   0  0  0  0  0  0  0  0  0  0  0  0
   -4.5530   21.2380   -9.1980 C   0  0  0  0  0  0  0  0  0  0  0  0
   -5.2120   21.0430  -10.4310 O   0  0  0  0  0  0  0  0  0  0  0  0
   -5.8130   19.5280  -12.7970 H   0  0  0  0  0  0  0  0  0  0  0  0
   -1.4400   18.9200  -10.6140 H   0  0  0  0  0  0  0  0  0  0  0  0
   -2.2450   16.4810  -13.3720 H   0  0  0  0  0  0  0  0  0  0  0  0
   -1.1590   17.8510  -13.6470 H   0  0  0  0  0  0  0  0  0  0  0  0
    1.2530   16.1640  -10.5290 H   0  0  0  0  0  0  0  0  0  0  0  0
    2.7680   14.1780  -10.8580 H   0  0  0  0  0  0  0  0  0  0  0  0
    0.4720   13.0430  -14.1930 H   0  0  0  0  0  0  0  0  0  0  0  0
   -1.0350   14.9850  -13.8830 H   0  0  0  0  0  0  0  0  0  0  0  0
    4.6130    8.8360  -14.0180 H   0  0  0  0  0  0  0  0  0  0  0  0
    3.2020    8.3270  -13.0210 H   0  0  0  0  0  0  0  0  0  0  0  0
    1.2260    7.4100  -15.5980 H   0  0  0  0  0  0  0  0  0  0  0  0
    0.7640    8.6210  -14.3580 H   0  0  0  0  0  0  0  0  0  0  0  0
   -4.9750   20.6130   -8.3880 H   0  0  0  0  0  0  0  0  0  0  0  0
   -4.5000   22.2950   -8.8880 H   0  0  0  0  0  0  0  0  0  0  0  0
  1  2  1  0  0  0  0
  2  3  2  0  0  0  0
  2  7  1  0  0  0  0
  3  4  1  0  0  0  0
  4  5  2  0  0  0  0
  4 27  1  0  0  0  0
  5 25  1  0  0  0  0
  6 29  1  0  0  0  0
  6  5  1  0  0  0  0
  7  6  2  0  0  0  0
  8  7  1  0  0  0  0
  8  9  1  0  0  0  0
 10  9  1  0  0  0  0
 10 11  1  0  0  0  0
 11 32  1  0  0  0  0
 12 11  2  0  0  0  0
 12 33  1  0  0  0  0
 13 12  1  0  0  0  0
 14 15  1  0  0  0  0
 14 13  2  0  0  0  0
 15 10  2  0  0  0  0
 16 13  1  0  0  0  0
 16 20  1  0  0  0  0
 17 18  1  0  0  0  0
 17 16  2  0  0  0  0
 18 19  1  0  0  0  0
 19 20  2  0  0  0  0
 21 18  1  0  0  0  0
 21 37  1  0  0  0  0
 22 24  1  0  0  0  0
 22 21  1  0  0  0  0
 23 22  2  0  0  0  0
 24 39  1  0  0  0  0
 25 26  1  0  0  0  0
 26 41  1  0  0  0  0
 26 40  1  0  0  0  0
 27 26  1  0  0  0  0
 28  3  1  0  0  0  0
 30  8  1  0  0  0  0
 31  8  1  0  0  0  0
 34 14  1  0  0  0  0
 35 15  1  0  0  0  0
 36 21  1  0  0  0  0
 38 24  1  0  0  0  0
M  END
>  <Pose>
1

>  <Score>
-7.78

$$$$
