
 OpenBabel03232203513D

 44 47  0  0  1  0  0  0  0  0999 V2000
   -8.0760   13.0390  -12.8110 B   0  0  0  0  0  0  0  0  0  0  0  0
   -8.9240   12.6870  -14.4680 C   0  0  0  0  0  0  0  0  0  0  0  0
  -10.0740   13.3700  -14.8190 C   0  0  0  0  0  0  0  0  0  0  0  0
  -10.7340   13.1430  -16.0280 C   0  0  0  0  0  0  0  0  0  0  0  0
  -10.1940   12.1930  -16.8910 C   0  0  0  0  0  0  0  0  0  0  0  0
   -9.0460   11.5240  -16.5200 C   0  0  0  0  0  0  0  0  0  0  0  0
   -8.3830   11.7450  -15.3150 C   0  0  0  0  0  0  0  0  0  0  0  0
   -7.1820   11.0080  -14.9760 C   0  0  0  0  0  0  0  0  0  0  0  0
   -7.0760   10.3720  -13.8880 N   0  0  0  0  0  0  0  0  0  0  0  0
   -6.0040    9.6330  -13.4290 N   0  0  0  0  0  0  0  0  0  0  0  0
   -5.1350    8.9310  -14.2930 C   0  0  1  0  0  0  0  0  0  0  0  0
   -3.9220    8.6270  -13.8030 N   0  0  0  0  0  0  0  0  0  0  0  0
   -2.9960    7.9270  -14.5130 C   0  0  0  0  0  0  0  0  0  0  0  0
   -3.3640    7.5540  -15.7380 N   0  0  0  0  0  0  0  0  0  0  0  0
   -4.5490    7.8230  -16.2810 C   0  0  0  0  0  0  0  0  0  0  0  0
   -5.4420    8.5290  -15.5260 N   0  0  0  0  0  0  0  0  0  0  0  0
   -4.9000    7.4210  -17.5590 O   0  0  0  0  0  0  0  0  0  0  0  0
   -6.1660    7.7240  -18.0810 C   0  0  0  0  0  0  0  0  0  0  0  0
   -1.7540    7.6620  -13.9330 N   0  0  0  0  0  0  0  0  0  0  0  0
   -1.2400    8.4730  -12.8550 C   0  0  0  0  0  0  0  0  0  0  0  0
   -0.1070    7.7720  -12.1370 C   0  0  0  0  0  0  0  0  0  0  0  0
   -0.2030    6.4210  -12.0590 O   0  0  0  0  0  0  0  0  0  0  0  0
   -0.7010    5.7270  -13.1180 C   0  0  0  0  0  0  0  0  0  0  0  0
   -0.9420    6.5570  -14.3750 C   0  0  0  0  0  0  0  0  0  0  0  0
  -11.0170   12.1560  -17.9950 O   0  0  0  0  0  0  0  0  0  0  0  0
  -12.1800   12.9310  -17.7870 C   0  0  0  0  0  0  0  0  0  0  0  0
  -11.8700   13.6600  -16.6280 O   0  0  0  0  0  0  0  0  0  0  0  0
  -10.4940   14.1180  -14.1330 H   0  0  0  0  0  0  0  0  0  0  0  0
   -8.6620   10.7830  -17.2410 H   0  0  0  0  0  0  0  0  0  0  0  0
   -6.3570   11.0010  -15.6610 H   0  0  0  0  0  0  0  0  0  0  0  0
   -5.8290    9.5910  -12.4020 H   0  0  0  0  0  0  0  0  0  0  0  0
   -6.7650    6.7740  -18.0710 H   0  0  0  0  0  0  0  0  0  0  0  0
   -6.1170    8.0270  -19.1580 H   0  0  0  0  0  0  0  0  0  0  0  0
   -6.6550    8.5510  -17.5260 H   0  0  0  0  0  0  0  0  0  0  0  0
   -1.9930    8.8440  -12.1490 H   0  0  0  0  0  0  0  0  0  0  0  0
   -0.7760    9.3910  -13.3340 H   0  0  0  0  0  0  0  0  0  0  0  0
    0.9030    8.0590  -12.5490 H   0  0  0  0  0  0  0  0  0  0  0  0
   -0.1050    8.1850  -11.0840 H   0  0  0  0  0  0  0  0  0  0  0  0
   -0.1300    4.7950  -13.3420 H   0  0  0  0  0  0  0  0  0  0  0  0
   -1.7340    5.3750  -12.8200 H   0  0  0  0  0  0  0  0  0  0  0  0
    0.0360    7.0060  -14.6860 H   0  0  0  0  0  0  0  0  0  0  0  0
   -1.3830    5.9200  -15.1360 H   0  0  0  0  0  0  0  0  0  0  0  0
  -13.1050   12.3250  -17.6940 H   0  0  0  0  0  0  0  0  0  0  0  0
  -12.2430   13.6350  -18.6520 H   0  0  0  0  0  0  0  0  0  0  0  0
  2  1  1  0  0  0  0
  3  2  1  0  0  0  0
  3 28  1  0  0  0  0
  4  3  2  0  0  0  0
  5  6  2  0  0  0  0
  5  4  1  0  0  0  0
  6  7  1  0  0  0  0
  7  8  1  0  0  0  0
  7  2  2  0  0  0  0
  8  9  2  0  0  0  0
  9 10  1  0  0  0  0
 10 31  1  0  0  0  0
 11 12  1  0  0  0  0
 11 10  1  1  0  0  0
 13 19  1  0  0  0  0
 13 12  2  0  0  0  0
 14 13  1  0  0  0  0
 15 14  2  0  0  0  0
 15 16  2  0  0  0  0
 16 11  1  0  0  0  0
 17 15  1  0  0  0  0
 18 32  1  0  0  0  0
 18 17  1  0  0  0  0
 18 34  1  0  0  0  0
 19 20  1  0  0  0  0
 20 35  1  0  0  0  0
 20 21  1  0  0  0  0
 21 22  1  0  0  0  0
 21 38  1  0  0  0  0
 23 40  1  0  0  0  0
 23 22  1  0  0  0  0
 24 19  1  0  0  0  0
 24 23  1  0  0  0  0
 25 26  1  0  0  0  0
 25  5  1  0  0  0  0
 26 43  1  0  0  0  0
 26 27  1  0  0  0  0
 27  4  1  0  0  0  0
 29  6  1  0  0  0  0
 30  8  1  0  0  0  0
 33 18  1  0  0  0  0
 36 20  1  0  0  0  0
 37 21  1  0  0  0  0
 39 23  1  0  0  0  0
 41 24  1  0  0  0  0
 42 24  1  0  0  0  0
 44 26  1  0  0  0  0
M  END
>  <Pose>
1

>  <Score>
-6.48

$$$$
