
 OpenBabel03232203513D

 44 47  0  0  0  0  0  0  0  0999 V2000
   -6.5600   10.6160  -14.1220 B   0  0  0  0  0  0  0  0  0  0  0  0
   -5.1350    9.3610  -14.2990 C   0  0  0  0  0  0  0  0  0  0  0  0
   -3.9330    9.5690  -13.6440 C   0  0  0  0  0  0  0  0  0  0  0  0
   -2.8790    8.6740  -13.7540 C   0  0  0  0  0  0  0  0  0  0  0  0
   -3.1010    7.5680  -14.5520 C   0  0  0  0  0  0  0  0  0  0  0  0
   -4.2820    7.3370  -15.2140 C   0  0  0  0  0  0  0  0  0  0  0  0
   -5.3100    8.2390  -15.0870 C   0  0  0  0  0  0  0  0  0  0  0  0
   -2.0530    6.6730  -14.6660 C   0  0  0  0  0  0  0  0  0  0  0  0
   -2.1910    5.6310  -15.3880 O   0  0  0  0  0  0  0  0  0  0  0  0
   -0.8780    6.9310  -13.9910 C   0  0  0  0  0  0  0  0  0  0  0  0
   -0.7190    8.0510  -13.2090 C   0  0  0  0  0  0  0  0  0  0  0  0
   -1.7400    8.8670  -13.1350 O   0  0  0  0  0  0  0  0  0  0  0  0
    0.5510    8.2820  -12.5100 C   0  0  0  0  0  0  0  0  0  0  0  0
    0.8110    7.5620  -11.5030 O   0  0  0  0  0  0  0  0  0  0  0  0
    1.4770    9.2640  -12.9140 N   0  0  0  0  0  0  0  0  0  0  0  0
    1.4910    9.6830  -14.2930 C   0  0  0  0  0  0  0  0  0  0  0  0
    1.3380   11.1800  -14.4550 C   0  0  0  0  0  0  0  0  0  0  0  0
    1.9110   11.8150  -13.3270 N   0  0  0  0  0  0  0  0  0  0  0  0
    3.0130   11.1100  -12.8000 C   0  0  0  0  0  0  0  0  0  0  0  0
    2.4340    9.9010  -12.0420 C   0  0  0  0  0  0  0  0  0  0  0  0
    1.0310   12.4330  -12.4190 C   0  0  0  0  0  0  0  0  0  0  0  0
    1.5120   13.6730  -11.8150 C   0  0  0  0  0  0  0  0  0  0  0  0
    2.5620   13.7790  -10.9850 N   0  0  0  0  0  0  0  0  0  0  0  0
    2.6720   15.0190  -10.6660 O   0  0  0  0  0  0  0  0  0  0  0  0
    1.7480   15.7450  -11.2440 N   0  0  0  0  0  0  0  0  0  0  0  0
    0.9810   14.9210  -11.9910 C   0  0  0  0  0  0  0  0  0  0  0  0
   -0.1960   15.3030  -12.8270 C   0  0  0  0  0  0  0  0  0  0  0  0
   -3.8180   10.4450  -13.0360 H   0  0  0  0  0  0  0  0  0  0  0  0
   -4.3820    6.4490  -15.8220 H   0  0  0  0  0  0  0  0  0  0  0  0
   -6.2540    8.0680  -15.6070 H   0  0  0  0  0  0  0  0  0  0  0  0
   -0.0640    6.2170  -14.0900 H   0  0  0  0  0  0  0  0  0  0  0  0
    0.7130    9.1350  -14.8910 H   0  0  0  0  0  0  0  0  0  0  0  0
    2.4870    9.3960  -14.7460 H   0  0  0  0  0  0  0  0  0  0  0  0
    0.2540   11.4350  -14.5890 H   0  0  0  0  0  0  0  0  0  0  0  0
    1.8520   11.5030  -15.4070 H   0  0  0  0  0  0  0  0  0  0  0  0
    3.6090   10.6930  -13.6360 H   0  0  0  0  0  0  0  0  0  0  0  0
    3.6560   11.6570  -12.1090 H   0  0  0  0  0  0  0  0  0  0  0  0
    3.2430    9.1890  -11.7810 H   0  0  0  0  0  0  0  0  0  0  0  0
    1.9900   10.2300  -11.0830 H   0  0  0  0  0  0  0  0  0  0  0  0
    0.7560   11.7130  -11.6210 H   0  0  0  0  0  0  0  0  0  0  0  0
    0.0640   12.6530  -12.9550 H   0  0  0  0  0  0  0  0  0  0  0  0
   -0.3170   14.5880  -13.6850 H   0  0  0  0  0  0  0  0  0  0  0  0
   -1.0920   15.2500  -12.2030 H   0  0  0  0  0  0  0  0  0  0  0  0
   -0.0290   16.2980  -13.2930 H   0  0  0  0  0  0  0  0  0  0  0  0
  2  1  1  0  0  0  0
  2  3  1  0  0  0  0
  3 28  1  0  0  0  0
  4  3  2  0  0  0  0
  4 12  1  0  0  0  0
  5  4  1  0  0  0  0
  6  7  1  0  0  0  0
  6  5  2  0  0  0  0
  7  2  2  0  0  0  0
  8  5  1  0  0  0  0
  8 10  1  0  0  0  0
  9  8  2  0  0  0  0
 10 11  2  0  0  0  0
 11 12  1  0  0  0  0
 11 13  1  0  0  0  0
 13 14  2  0  0  0  0
 15 13  1  0  0  0  0
 15 20  1  0  0  0  0
 16 15  1  0  0  0  0
 17 16  1  0  0  0  0
 17 18  1  0  0  0  0
 18 19  1  0  0  0  0
 18 21  1  0  0  0  0
 19 37  1  0  0  0  0
 19 20  1  0  0  0  0
 20 38  1  0  0  0  0
 20 39  1  0  0  0  0
 21 22  1  0  0  0  0
 21 40  1  0  0  0  0
 22 23  2  0  0  0  0
 23 24  1  0  0  0  0
 25 24  1  0  0  0  0
 26 22  1  0  0  0  0
 26 25  2  0  0  0  0
 27 43  1  0  0  0  0
 27 26  1  0  0  0  0
 29  6  1  0  0  0  0
 30  7  1  0  0  0  0
 31 10  1  0  0  0  0
 32 16  1  0  0  0  0
 33 16  1  0  0  0  0
 34 17  1  0  0  0  0
 35 17  1  0  0  0  0
 36 19  1  0  0  0  0
 41 21  1  0  0  0  0
 42 27  1  0  0  0  0
 44 27  1  0  0  0  0
M  END
>  <Pose>
1

>  <Score>
-6.16

$$$$
