
 OpenBabel03232203513D

 49 52  0  0  0  0  0  0  0  0999 V2000
   -6.4030   21.6590  -10.1870 B   0  0  0  0  0  0  0  0  0  0  0  0
   -4.8870   20.5690  -10.5770 C   0  0  0  0  0  0  0  0  0  0  0  0
   -4.8700   19.8400  -11.7490 C   0  0  0  0  0  0  0  0  0  0  0  0
   -3.7950   19.0360  -12.0790 C   0  0  0  0  0  0  0  0  0  0  0  0
   -2.7360   18.9850  -11.1930 C   0  0  0  0  0  0  0  0  0  0  0  0
   -2.7640   19.7170  -10.0240 C   0  0  0  0  0  0  0  0  0  0  0  0
   -3.8330   20.5230   -9.6880 C   0  0  0  0  0  0  0  0  0  0  0  0
   -1.7480   18.0840  -11.7600 C   0  0  0  0  0  0  0  0  0  0  0  0
   -0.6400   17.8060  -11.1980 O   0  0  0  0  0  0  0  0  0  0  0  0
   -2.2450   17.6030  -13.0000 N   0  0  0  0  0  0  0  0  0  0  0  0
   -3.5100   18.1690  -13.2330 C   0  0  0  0  0  0  0  0  0  0  0  0
   -4.2730   17.9910  -14.2220 O   0  0  0  0  0  0  0  0  0  0  0  0
   -1.5140   16.6780  -13.8380 C   0  0  0  0  0  0  0  0  0  0  0  0
   -1.5230   15.2830  -13.3340 C   0  0  0  0  0  0  0  0  0  0  0  0
   -0.1480   14.6890  -13.4520 C   0  0  0  0  0  0  0  0  0  0  0  0
   -0.1290   13.2140  -13.5860 C   0  0  0  0  0  0  0  0  0  0  0  0
   -1.1670   12.5120  -13.6980 O   0  0  0  0  0  0  0  0  0  0  0  0
    1.1210   12.4980  -13.5960 N   0  0  0  0  0  0  0  0  0  0  0  0
    1.9450   12.4280  -12.4110 C   0  0  0  0  0  0  0  0  0  0  0  0
    2.4940   11.0650  -12.1460 C   0  0  0  0  0  0  0  0  0  0  0  0
    2.1140   10.0710  -13.1210 N   0  0  0  0  0  0  0  0  0  0  0  0
    1.8230   10.3500  -14.5020 C   0  0  0  0  0  0  0  0  0  0  0  0
    1.6110   11.8180  -14.7800 C   0  0  0  0  0  0  0  0  0  0  0  0
    2.0230    8.7120  -12.6840 C   0  0  0  0  0  0  0  0  0  0  0  0
    1.3840    8.3760  -11.5310 N   0  0  0  0  0  0  0  0  0  0  0  0
    1.2760    7.1230  -11.0880 C   0  0  0  0  0  0  0  0  0  0  0  0
    1.8420    6.1000  -11.8340 C   0  0  0  0  0  0  0  0  0  0  0  0
    2.4860    6.4000  -12.9880 N   0  0  0  0  0  0  0  0  0  0  0  0
    2.5740    7.6750  -13.4010 C   0  0  0  0  0  0  0  0  0  0  0  0
   -5.6840   19.8550  -12.4720 H   0  0  0  0  0  0  0  0  0  0  0  0
   -1.9090   19.6440   -9.3600 H   0  0  0  0  0  0  0  0  0  0  0  0
   -3.8210   21.0810   -8.7640 H   0  0  0  0  0  0  0  0  0  0  0  0
   -0.4790   17.0450  -13.9100 H   0  0  0  0  0  0  0  0  0  0  0  0
   -2.0120   16.7030  -14.8530 H   0  0  0  0  0  0  0  0  0  0  0  0
   -2.2950   14.6410  -13.7920 H   0  0  0  0  0  0  0  0  0  0  0  0
   -1.7770   15.2640  -12.2310 H   0  0  0  0  0  0  0  0  0  0  0  0
    0.4210   15.1230  -14.3070 H   0  0  0  0  0  0  0  0  0  0  0  0
    0.4460   14.9430  -12.5480 H   0  0  0  0  0  0  0  0  0  0  0  0
    1.4080   12.8500  -11.5400 H   0  0  0  0  0  0  0  0  0  0  0  0
    2.8050   13.1330  -12.5930 H   0  0  0  0  0  0  0  0  0  0  0  0
    3.6210   11.0760  -12.1360 H   0  0  0  0  0  0  0  0  0  0  0  0
    2.2050   10.7130  -11.1300 H   0  0  0  0  0  0  0  0  0  0  0  0
    2.6490    9.9950  -15.1220 H   0  0  0  0  0  0  0  0  0  0  0  0
    0.8470    9.8420  -14.7280 H   0  0  0  0  0  0  0  0  0  0  0  0
    0.9560   11.9880  -15.6570 H   0  0  0  0  0  0  0  0  0  0  0  0
    2.6260   12.2690  -14.9860 H   0  0  0  0  0  0  0  0  0  0  0  0
    0.7640    6.8750  -10.1680 H   0  0  0  0  0  0  0  0  0  0  0  0
    1.7750    5.0850  -11.5090 H   0  0  0  0  0  0  0  0  0  0  0  0
    3.0930    7.8770  -14.3240 H   0  0  0  0  0  0  0  0  0  0  0  0
  2  1  1  0  0  0  0
  2  7  1  0  0  0  0
  3  2  2  0  0  0  0
  4  3  1  0  0  0  0
  4  5  2  0  0  0  0
  5  6  1  0  0  0  0
  6  7  2  0  0  0  0
  6 31  1  0  0  0  0
  7 32  1  0  0  0  0
  8  9  2  0  0  0  0
  8  5  1  0  0  0  0
 10  8  1  0  0  0  0
 11 10  1  0  0  0  0
 11  4  1  0  0  0  0
 12 11  2  0  0  0  0
 13 14  1  0  0  0  0
 13 10  1  0  0  0  0
 14 36  1  0  0  0  0
 15 14  1  0  0  0  0
 15 38  1  0  0  0  0
 16 15  1  0  0  0  0
 17 16  2  0  0  0  0
 18 16  1  0  0  0  0
 18 19  1  0  0  0  0
 19 20  1  0  0  0  0
 19 39  1  0  0  0  0
 20 41  1  0  0  0  0
 20 42  1  0  0  0  0
 21 24  1  0  0  0  0
 21 20  1  0  0  0  0
 22 21  1  0  0  0  0
 23 22  1  0  0  0  0
 23 18  1  0  0  0  0
 24 25  1  0  0  0  0
 25 26  2  0  0  0  0
 26 47  1  0  0  0  0
 27 48  1  0  0  0  0
 27 26  1  0  0  0  0
 28 27  2  0  0  0  0
 29 28  1  0  0  0  0
 29 24  2  0  0  0  0
 30  3  1  0  0  0  0
 33 13  1  0  0  0  0
 34 13  1  0  0  0  0
 35 14  1  0  0  0  0
 37 15  1  0  0  0  0
 40 19  1  0  0  0  0
 43 22  1  0  0  0  0
 44 22  1  0  0  0  0
 45 23  1  0  0  0  0
 46 23  1  0  0  0  0
 49 29  1  0  0  0  0
M  END
>  <Pose>
1

>  <Score>
-7.10

$$$$
