
 OpenBabel03232203513D

 44 47  0  0  0  0  0  0  0  0999 V2000
   -3.6680   11.9530  -13.4330 B   0  0  0  0  0  0  0  0  0  0  0  0
   -2.0310   10.9880  -13.4380 C   0  0  0  0  0  0  0  0  0  0  0  0
   -0.7960   11.6310  -13.2870 C   0  0  0  0  0  0  0  0  0  0  0  0
    0.3940   10.9360  -13.2900 C   0  0  0  0  0  0  0  0  0  0  0  0
    0.3710    9.5460  -13.4480 C   0  0  0  0  0  0  0  0  0  0  0  0
   -0.8580    8.9200  -13.5960 C   0  0  0  0  0  0  0  0  0  0  0  0
   -2.0350    9.6300  -13.5910 C   0  0  0  0  0  0  0  0  0  0  0  0
    1.6930    9.0200  -13.4230 N   0  0  0  0  0  0  0  0  0  0  0  0
    2.5710   10.1200  -13.2440 C   0  0  0  0  0  0  0  0  0  0  0  0
    3.8300   10.1450  -13.1600 O   0  0  0  0  0  0  0  0  0  0  0  0
    1.7790   11.3650  -13.1530 C   0  0  0  0  0  0  0  0  0  0  0  0
    2.2290   12.5620  -12.9890 N   0  0  0  0  0  0  0  0  0  0  0  0
    1.3850   13.6730  -12.9180 N   0  0  0  0  0  0  0  0  0  0  0  0
    1.8450   14.9570  -12.5390 C   0  0  0  0  0  0  0  0  0  0  0  0
    2.8280   15.4530  -13.1360 O   0  0  0  0  0  0  0  0  0  0  0  0
    1.1840   15.6880  -11.4670 C   0  0  0  0  0  0  0  0  0  0  0  0
   -0.0130   16.3810  -11.9060 N   0  0  0  0  0  0  0  0  0  0  0  0
   -0.6190   16.2670  -13.0750 N   0  0  0  0  0  0  0  0  0  0  0  0
   -1.6830   17.0510  -13.1200 N   0  0  0  0  0  0  0  0  0  0  0  0
   -1.7720   17.6970  -11.9450 C   0  0  0  0  0  0  0  0  0  0  0  0
   -0.7310   17.2610  -11.2230 N   0  0  0  0  0  0  0  0  0  0  0  0
   -2.8070   18.6610  -11.5840 C   0  0  0  0  0  0  0  0  0  0  0  0
   -2.5900   19.5570  -10.5600 C   0  0  0  0  0  0  0  0  0  0  0  0
   -3.5780   20.4810  -10.2120 C   0  0  0  0  0  0  0  0  0  0  0  0
   -4.7860   20.5280  -10.8690 C   0  0  0  0  0  0  0  0  0  0  0  0
   -5.0070   19.6290  -11.8980 C   0  0  0  0  0  0  0  0  0  0  0  0
   -4.0190   18.7140  -12.2370 C   0  0  0  0  0  0  0  0  0  0  0  0
    2.1460    7.6490  -13.5490 C   0  0  0  0  0  0  0  0  0  0  0  0
    1.4590    6.7970  -12.5900 C   0  0  0  0  0  0  0  0  0  0  0  0
    0.8770    6.1020  -11.7990 C   0  0  0  0  0  0  0  0  0  0  0  0
   -0.8170   12.7090  -13.1670 H   0  0  0  0  0  0  0  0  0  0  0  0
   -0.9240    7.8490  -13.7210 H   0  0  0  0  0  0  0  0  0  0  0  0
   -3.0070    9.1370  -13.7090 H   0  0  0  0  0  0  0  0  0  0  0  0
    0.3780   13.5410  -13.1450 H   0  0  0  0  0  0  0  0  0  0  0  0
    1.8780   16.4120  -10.9990 H   0  0  0  0  0  0  0  0  0  0  0  0
    0.9180   14.9590  -10.6640 H   0  0  0  0  0  0  0  0  0  0  0  0
   -1.6420   19.5390  -10.0230 H   0  0  0  0  0  0  0  0  0  0  0  0
   -3.4080   21.1910   -9.4020 H   0  0  0  0  0  0  0  0  0  0  0  0
   -5.5460   21.2620  -10.5780 H   0  0  0  0  0  0  0  0  0  0  0  0
   -5.9570   19.6610  -12.4220 H   0  0  0  0  0  0  0  0  0  0  0  0
   -4.1780   18.0030  -13.0440 H   0  0  0  0  0  0  0  0  0  0  0  0
    1.9580    7.2410  -14.5720 H   0  0  0  0  0  0  0  0  0  0  0  0
    3.2550    7.6380  -13.4190 H   0  0  0  0  0  0  0  0  0  0  0  0
    0.3550    5.4910  -11.0820 H   0  0  0  0  0  0  0  0  0  0  0  0
  2  1  1  0  0  0  0
  2  3  1  0  0  0  0
  3 31  1  0  0  0  0
  4  3  2  0  0  0  0
  4 11  1  0  0  0  0
  5  8  1  0  0  0  0
  5  4  1  0  0  0  0
  6  7  1  0  0  0  0
  6  5  2  0  0  0  0
  7  2  2  0  0  0  0
  8  9  1  0  0  0  0
  9 10  2  0  0  0  0
  9 11  1  0  0  0  0
 11 12  2  0  0  0  0
 12 13  1  0  0  0  0
 13 14  1  0  0  0  0
 14 16  1  0  0  0  0
 15 14  2  0  0  0  0
 16 35  1  0  0  0  0
 16 36  1  0  0  0  0
 17 16  1  0  0  0  0
 17 21  1  0  0  0  0
 18 17  1  0  0  0  0
 19 18  1  0  0  0  0
 19 20  2  0  0  0  0
 20 22  1  0  0  0  0
 20 21  1  0  0  0  0
 22 23  1  0  0  0  0
 23 24  2  0  0  0  0
 23 37  1  0  0  0  0
 24 38  1  0  0  0  0
 25 39  1  0  0  0  0
 25 24  1  0  0  0  0
 26 25  2  0  0  0  0
 27 26  1  0  0  0  0
 27 22  2  0  0  0  0
 28  8  1  0  0  0  0
 28 43  1  0  0  0  0
 28 29  1  0  0  0  0
 29 30  3  0  0  0  0
 30 44  1  0  0  0  0
 32  6  1  0  0  0  0
 33  7  1  0  0  0  0
 34 13  1  0  0  0  0
 40 26  1  0  0  0  0
 41 27  1  0  0  0  0
 42 28  1  0  0  0  0
M  END
>  <Pose>
1

>  <Score>
-7.12

$$$$
