
 OpenBabel03232203513D

 58 61  0  0  0  0  0  0  0  0999 V2000
   -4.4410   16.9530  -15.7500 B   0  0  0  0  0  0  0  0  0  0  0  0
   -4.1080   17.9240  -14.1400 C   0  0  0  0  0  0  0  0  0  0  0  0
   -2.9270   17.7440  -13.4040 C   0  0  0  0  0  0  0  0  0  0  0  0
   -2.7930   18.4980  -12.2740 C   0  0  0  0  0  0  0  0  0  0  0  0
   -3.7350   19.4010  -11.8290 C   0  0  0  0  0  0  0  0  0  0  0  0
   -4.8950   19.5710  -12.5490 C   0  0  0  0  0  0  0  0  0  0  0  0
   -5.0680   18.8190  -13.7200 C   0  0  0  0  0  0  0  0  0  0  0  0
   -3.3290   20.0430  -10.6270 N   0  0  0  0  0  0  0  0  0  0  0  0
   -2.0310   19.4850  -10.2930 C   0  0  0  0  0  0  0  0  0  0  0  0
   -1.3410   19.8130   -9.3060 O   0  0  0  0  0  0  0  0  0  0  0  0
   -1.7250   18.5180  -11.3240 C   0  0  0  0  0  0  0  0  0  0  0  0
   -0.7690   17.6720  -11.3610 N   0  0  0  0  0  0  0  0  0  0  0  0
   -0.2940   16.7500  -11.8940 N   0  0  0  0  0  0  0  0  0  0  0  0
    0.2760   15.6200  -12.5240 C   0  0  0  0  0  0  0  0  0  0  0  0
    0.1050   15.1140  -13.6100 O   0  0  0  0  0  0  0  0  0  0  0  0
    1.2890   14.9590  -11.5610 C   0  0  0  0  0  0  0  0  0  0  0  0
    2.2370   14.3190  -12.4410 O   0  0  0  0  0  0  0  0  0  0  0  0
    2.0100   12.9270  -12.6380 N   0  0  0  0  0  0  0  0  0  0  0  0
    2.9390   12.1520  -13.0410 C   0  0  0  0  0  0  0  0  0  0  0  0
    2.6790   10.7460  -13.2490 C   0  0  0  0  0  0  0  0  0  0  0  0
    2.6930   10.1110  -14.4460 C   0  0  0  0  0  0  0  0  0  0  0  0
    2.3350    8.7390  -14.4380 C   0  0  0  0  0  0  0  0  0  0  0  0
    1.9990    8.0040  -13.3800 C   0  0  0  0  0  0  0  0  0  0  0  0
    2.0040    8.6810  -12.2080 C   0  0  0  0  0  0  0  0  0  0  0  0
    2.3010    9.9770  -12.0150 C   0  0  0  0  0  0  0  0  0  0  0  0
    1.6730    6.6500  -13.5180 O   0  0  0  0  0  0  0  0  0  0  0  0
    1.2400    5.8890  -12.3960 C   0  0  0  0  0  0  0  0  0  0  0  0
   -3.9410   21.0900   -9.8250 C   0  0  0  0  0  0  0  0  0  0  0  0
   -5.2090   20.7470   -9.4030 N   0  0  0  0  0  0  0  0  0  0  0  0
   -5.2890   20.5720   -8.0100 C   0  0  0  0  0  0  0  0  0  0  0  0
   -6.5460   21.2630   -7.4770 C   0  0  0  0  0  0  0  0  0  0  0  0
   -6.4410   22.5780   -8.0080 O   0  0  0  0  0  0  0  0  0  0  0  0
   -6.7860   22.5500   -9.3660 C   0  0  0  0  0  0  0  0  0  0  0  0
   -6.2930   21.3320  -10.0830 C   0  0  0  0  0  0  0  0  0  0  0  0
   -2.2540   17.0770  -13.8040 H   0  0  0  0  0  0  0  0  0  0  0  0
   -5.6780   20.2690  -12.2670 H   0  0  0  0  0  0  0  0  0  0  0  0
   -5.9790   18.9340  -14.2650 H   0  0  0  0  0  0  0  0  0  0  0  0
   -0.5700   15.9060  -10.8260 H   0  0  0  0  0  0  0  0  0  0  0  0
    1.8900   15.9460  -11.3230 H   0  0  0  0  0  0  0  0  0  0  0  0
    0.9510   14.5320  -10.7190 H   0  0  0  0  0  0  0  0  0  0  0  0
    3.9460   12.5220  -13.2210 H   0  0  0  0  0  0  0  0  0  0  0  0
    2.9560   10.6060  -15.3490 H   0  0  0  0  0  0  0  0  0  0  0  0
    2.3660    8.2590  -15.4350 H   0  0  0  0  0  0  0  0  0  0  0  0
    1.7140    8.0580  -11.3190 H   0  0  0  0  0  0  0  0  0  0  0  0
    2.3320   10.5430  -11.1320 H   0  0  0  0  0  0  0  0  0  0  0  0
    0.1660    6.1160  -12.1630 H   0  0  0  0  0  0  0  0  0  0  0  0
    1.2450    4.8020  -12.7260 H   0  0  0  0  0  0  0  0  0  0  0  0
    1.8950    5.9770  -11.5120 H   0  0  0  0  0  0  0  0  0  0  0  0
   -3.8710   22.0000  -10.4570 H   0  0  0  0  0  0  0  0  0  0  0  0
   -3.2090   21.2990   -8.9900 H   0  0  0  0  0  0  0  0  0  0  0  0
   -5.2700   19.4990   -7.7030 H   0  0  0  0  0  0  0  0  0  0  0  0
   -4.4090   21.0280   -7.5290 H   0  0  0  0  0  0  0  0  0  0  0  0
   -6.4450   21.3210   -6.4000 H   0  0  0  0  0  0  0  0  0  0  0  0
   -7.4630   20.7820   -7.8030 H   0  0  0  0  0  0  0  0  0  0  0  0
   -6.4240   23.4560   -9.8680 H   0  0  0  0  0  0  0  0  0  0  0  0
   -7.9030   22.5510   -9.4020 H   0  0  0  0  0  0  0  0  0  0  0  0
   -7.1650   20.5680  -10.1750 H   0  0  0  0  0  0  0  0  0  0  0  0
   -6.0440   21.5700  -11.1210 H   0  0  0  0  0  0  0  0  0  0  0  0
  1  2  1  0  0  0  0
  2  7  2  0  0  0  0
  2  3  1  0  0  0  0
  3  4  2  0  0  0  0
  4  5  1  0  0  0  0
  4 11  1  0  0  0  0
  5  8  1  0  0  0  0
  6 36  1  0  0  0  0
  6  5  2  0  0  0  0
  7  6  1  0  0  0  0
  8  9  1  0  0  0  0
  8 28  1  0  0  0  0
  9 10  2  0  0  0  0
 11  9  1  0  0  0  0
 12 11  2  0  0  0  0
 13 12  1  0  0  0  0
 13 38  1  0  0  0  0
 14 13  1  0  0  0  0
 14 16  1  0  0  0  0
 15 14  2  0  0  0  0
 16 39  1  0  0  0  0
 16 40  1  0  0  0  0
 17 16  1  0  0  0  0
 18 17  1  0  0  0  0
 19 18  2  0  0  0  0
 20 19  1  0  0  0  0
 20 25  1  0  0  0  0
 21 22  1  0  0  0  0
 21 20  2  0  0  0  0
 22 23  2  0  0  0  0
 23 24  1  0  0  0  0
 24 25  2  0  0  0  0
 24 44  1  0  0  0  0
 25 45  1  0  0  0  0
 26 23  1  0  0  0  0
 26 27  1  0  0  0  0
 27 46  1  0  0  0  0
 27 48  1  0  0  0  0
 28 29  1  0  0  0  0
 28 50  1  0  0  0  0
 29 30  1  0  0  0  0
 30 51  1  0  0  0  0
 30 52  1  0  0  0  0
 30 31  1  0  0  0  0
 31 53  1  0  0  0  0
 32 31  1  0  0  0  0
 33 32  1  0  0  0  0
 34 29  1  0  0  0  0
 34 33  1  0  0  0  0
 35  3  1  0  0  0  0
 37  7  1  0  0  0  0
 41 19  1  0  0  0  0
 42 21  1  0  0  0  0
 43 22  1  0  0  0  0
 47 27  1  0  0  0  0
 49 28  1  0  0  0  0
 54 31  1  0  0  0  0
 55 33  1  0  0  0  0
 56 33  1  0  0  0  0
 57 34  1  0  0  0  0
 58 34  1  0  0  0  0
M  END
>  <Pose>
1

>  <Score>
-7.38

$$$$
