
 OpenBabel03232203513D

 59 62  0  0  0  0  0  0  0  0999 V2000
    5.4960    9.5850  -15.1300 B   0  0  0  0  0  0  0  0  0  0  0  0
    3.6440    9.3340  -14.6810 C   0  0  0  0  0  0  0  0  0  0  0  0
    2.8390   10.3930  -14.3310 C   0  0  0  0  0  0  0  0  0  0  0  0
    1.4960   10.2620  -13.9980 C   0  0  0  0  0  0  0  0  0  0  0  0
    0.9330    8.9820  -14.0210 C   0  0  0  0  0  0  0  0  0  0  0  0
    1.7400    7.9190  -14.3720 C   0  0  0  0  0  0  0  0  0  0  0  0
    3.0830    8.0740  -14.7020 C   0  0  0  0  0  0  0  0  0  0  0  0
   -0.4520    9.0490  -13.6540 N   0  0  0  0  0  0  0  0  0  0  0  0
   -0.7400   10.4170  -13.3980 C   0  0  0  0  0  0  0  0  0  0  0  0
   -1.8530   10.8700  -13.0500 O   0  0  0  0  0  0  0  0  0  0  0  0
    0.4620   11.2020  -13.6060 C   0  0  0  0  0  0  0  0  0  0  0  0
    0.5960   12.4730  -13.4730 N   0  0  0  0  0  0  0  0  0  0  0  0
   -0.4450   13.3120  -13.0920 N   0  0  0  0  0  0  0  0  0  0  0  0
   -0.1700   14.6400  -12.7070 C   0  0  0  0  0  0  0  0  0  0  0  0
    0.5860   14.9060  -11.7100 O   0  0  0  0  0  0  0  0  0  0  0  0
   -0.7200   15.8250  -13.4120 C   0  0  0  0  0  0  0  0  0  0  0  0
   -0.9900   16.8700  -12.4780 O   0  0  0  0  0  0  0  0  0  0  0  0
   -2.1450   17.6240  -12.6020 C   0  0  0  0  0  0  0  0  0  0  0  0
   -2.4770   18.5460  -11.6320 C   0  0  0  0  0  0  0  0  0  0  0  0
   -3.6390   19.3010  -11.7640 C   0  0  0  0  0  0  0  0  0  0  0  0
   -4.4640   19.1330  -12.8590 C   0  0  0  0  0  0  0  0  0  0  0  0
   -4.1220   18.2170  -13.8100 C   0  0  0  0  0  0  0  0  0  0  0  0
   -2.9650   17.4670  -13.6780 C   0  0  0  0  0  0  0  0  0  0  0  0
   -1.6800   18.7370  -10.5320 O   0  0  0  0  0  0  0  0  0  0  0  0
   -1.9470   19.7770   -9.6270 C   0  0  0  0  0  0  0  0  0  0  0  0
   -1.3470    7.9070  -13.5760 C   0  0  0  0  0  0  0  0  0  0  0  0
   -2.6180    8.1010  -14.1730 N   0  0  0  0  0  0  0  0  0  0  0  0
   -3.2850    6.9250  -14.6150 C   0  0  0  0  0  0  0  0  0  0  0  0
   -4.6100    7.2440  -15.3150 C   0  0  0  0  0  0  0  0  0  0  0  0
   -4.6100    8.6550  -15.5780 N   0  0  0  0  0  0  0  0  0  0  0  0
   -4.6550    9.4480  -14.3890 C   0  0  0  0  0  0  0  0  0  0  0  0
   -3.4640    9.0640  -13.5300 C   0  0  0  0  0  0  0  0  0  0  0  0
   -5.5350    9.0560  -16.5980 C   0  0  0  0  0  0  0  0  0  0  0  0
    3.2820   11.3890  -14.3150 H   0  0  0  0  0  0  0  0  0  0  0  0
    1.3450    6.8970  -14.4060 H   0  0  0  0  0  0  0  0  0  0  0  0
    3.7190    7.2480  -14.9770 H   0  0  0  0  0  0  0  0  0  0  0  0
   -1.4110   12.9560  -13.0930 H   0  0  0  0  0  0  0  0  0  0  0  0
   -0.0350   16.2320  -14.1740 H   0  0  0  0  0  0  0  0  0  0  0  0
   -1.6600   15.5700  -13.9320 H   0  0  0  0  0  0  0  0  0  0  0  0
   -3.8900   20.0260  -10.9900 H   0  0  0  0  0  0  0  0  0  0  0  0
   -5.3800   19.7110  -12.9870 H   0  0  0  0  0  0  0  0  0  0  0  0
   -4.7470   18.0760  -14.6610 H   0  0  0  0  0  0  0  0  0  0  0  0
   -2.7460   16.7590  -14.4600 H   0  0  0  0  0  0  0  0  0  0  0  0
   -2.0020   20.7710  -10.1230 H   0  0  0  0  0  0  0  0  0  0  0  0
   -2.9720   19.6060   -9.2040 H   0  0  0  0  0  0  0  0  0  0  0  0
   -1.1760   19.7340   -8.8290 H   0  0  0  0  0  0  0  0  0  0  0  0
   -0.8510    6.9810  -13.9550 H   0  0  0  0  0  0  0  0  0  0  0  0
   -1.5110    7.7140  -12.4830 H   0  0  0  0  0  0  0  0  0  0  0  0
   -2.6600    6.4330  -15.3890 H   0  0  0  0  0  0  0  0  0  0  0  0
   -3.4510    6.1750  -13.8130 H   0  0  0  0  0  0  0  0  0  0  0  0
   -4.7200    6.6980  -16.2630 H   0  0  0  0  0  0  0  0  0  0  0  0
   -5.4220    6.9170  -14.6370 H   0  0  0  0  0  0  0  0  0  0  0  0
   -5.5830    9.3360  -13.7980 H   0  0  0  0  0  0  0  0  0  0  0  0
   -4.6030   10.5190  -14.7100 H   0  0  0  0  0  0  0  0  0  0  0  0
   -3.8250    8.6250  -12.5610 H   0  0  0  0  0  0  0  0  0  0  0  0
   -2.8800    9.9890  -13.3590 H   0  0  0  0  0  0  0  0  0  0  0  0
   -5.0860    9.8480  -17.2570 H   0  0  0  0  0  0  0  0  0  0  0  0
   -6.5020    9.4210  -16.2050 H   0  0  0  0  0  0  0  0  0  0  0  0
   -5.6900    8.1740  -17.2700 H   0  0  0  0  0  0  0  0  0  0  0  0
  1  2  1  0  0  0  0
  2  3  1  0  0  0  0
  3 34  1  0  0  0  0
  3  4  2  0  0  0  0
  4 11  1  0  0  0  0
  5  4  1  0  0  0  0
  5  8  1  0  0  0  0
  6  5  2  0  0  0  0
  7  2  2  0  0  0  0
  7  6  1  0  0  0  0
  8 26  1  0  0  0  0
  8  9  1  0  0  0  0
  9 10  2  0  0  0  0
 11 12  2  0  0  0  0
 11  9  1  0  0  0  0
 12 13  1  0  0  0  0
 13 14  1  0  0  0  0
 14 15  2  0  0  0  0
 16 14  1  0  0  0  0
 16 17  1  0  0  0  0
 18 17  1  0  0  0  0
 18 19  1  0  0  0  0
 19 24  1  0  0  0  0
 20 19  2  0  0  0  0
 20 40  1  0  0  0  0
 21 20  1  0  0  0  0
 22 23  1  0  0  0  0
 22 21  2  0  0  0  0
 23 18  2  0  0  0  0
 24 25  1  0  0  0  0
 25 45  1  0  0  0  0
 25 46  1  0  0  0  0
 26 48  1  0  0  0  0
 27 26  1  0  0  0  0
 27 32  1  0  0  0  0
 28 27  1  0  0  0  0
 28 50  1  0  0  0  0
 29 52  1  0  0  0  0
 29 28  1  0  0  0  0
 30 29  1  0  0  0  0
 30 31  1  0  0  0  0
 31 53  1  0  0  0  0
 31 32  1  0  0  0  0
 32 56  1  0  0  0  0
 32 55  1  0  0  0  0
 33 58  1  0  0  0  0
 33 30  1  0  0  0  0
 35  6  1  0  0  0  0
 36  7  1  0  0  0  0
 37 13  1  0  0  0  0
 38 16  1  0  0  0  0
 39 16  1  0  0  0  0
 41 21  1  0  0  0  0
 42 22  1  0  0  0  0
 43 23  1  0  0  0  0
 44 25  1  0  0  0  0
 47 26  1  0  0  0  0
 49 28  1  0  0  0  0
 51 29  1  0  0  0  0
 54 31  1  0  0  0  0
 57 33  1  0  0  0  0
 59 33  1  0  0  0  0
M  END
>  <Pose>
1

>  <Score>
-6.86

$$$$
