
 OpenBabel03232203513D

 45 48  0  0  1  0  0  0  0  0999 V2000
    2.5900    8.8480  -19.0770 B   0  0  0  0  0  0  0  0  0  0  0  0
    2.9730    9.3550  -17.2600 C   0  0  0  0  0  0  0  0  0  0  0  0
    2.2870    8.8740  -16.1830 C   0  0  0  0  0  0  0  0  0  0  0  0
    2.5710    9.2840  -14.9060 C   0  0  0  0  0  0  0  0  0  0  0  0
    3.5740   10.1980  -14.7500 C   0  0  0  0  0  0  0  0  0  0  0  0
    4.2960   10.7060  -15.8380 C   0  0  0  0  0  0  0  0  0  0  0  0
    4.0000   10.2870  -17.1190 C   0  0  0  0  0  0  0  0  0  0  0  0
    3.7320   10.5610  -13.3930 N   0  0  0  0  0  0  0  0  0  0  0  0
    2.7870    9.8490  -12.6580 C   0  0  0  0  0  0  0  0  0  0  0  0
    2.6450    9.9560  -11.4120 O   0  0  0  0  0  0  0  0  0  0  0  0
    1.9960    8.9610  -13.5880 C   0  0  2  0  0  0  0  0  0  0  0  0
    2.2150    7.6120  -13.0900 C   0  0  0  0  0  0  0  0  0  0  0  0
    1.1820    6.9010  -12.5590 C   0  0  0  0  0  0  0  0  0  0  0  0
    1.6930    5.6980  -12.1770 N   0  0  0  0  0  0  0  0  0  0  0  0
    2.9710    5.6620  -12.4530 N   0  0  0  0  0  0  0  0  0  0  0  0
    3.3740    6.8210  -13.0250 C   0  0  0  0  0  0  0  0  0  0  0  0
    4.7560    7.1100  -13.4820 C   0  0  0  0  0  0  0  0  0  0  0  0
    5.6480    5.9470  -13.2830 C   0  0  0  0  0  0  0  0  0  0  0  0
    5.6970    4.9310  -14.0230 O   0  0  0  0  0  0  0  0  0  0  0  0
    6.4940    5.9790  -12.1970 O   0  0  0  0  0  0  0  0  0  0  0  0
    7.8740    5.7250  -12.2110 C   0  0  0  0  0  0  0  0  0  0  0  0
    8.6270    7.0130  -12.4460 C   0  0  0  0  0  0  0  0  0  0  0  0
   -0.1290    7.4120  -12.4670 O   0  0  0  0  0  0  0  0  0  0  0  0
   -0.3310    8.6930  -12.9430 C   0  0  0  0  0  0  0  0  0  0  0  0
    0.6210    9.4200  -13.4580 C   0  0  0  0  0  0  0  0  0  0  0  0
    0.3070   10.7720  -13.9290 C   0  0  0  0  0  0  0  0  0  0  0  0
    0.0810   11.8330  -14.2960 N   0  0  0  0  0  0  0  0  0  0  0  0
   -1.6750    9.2200  -12.8480 N   0  0  0  0  0  0  0  0  0  0  0  0
    4.7210   11.5180  -12.8540 C   0  0  0  0  0  0  0  0  0  0  0  0
    1.5110    8.1630  -16.3410 H   0  0  0  0  0  0  0  0  0  0  0  0
    5.0930   11.4260  -15.7290 H   0  0  0  0  0  0  0  0  0  0  0  0
    4.5480   10.6690  -17.9680 H   0  0  0  0  0  0  0  0  0  0  0  0
    3.6420    4.8600  -12.2740 H   0  0  0  0  0  0  0  0  0  0  0  0
    4.8000    7.3660  -14.5550 H   0  0  0  0  0  0  0  0  0  0  0  0
    5.1680    8.0060  -12.9520 H   0  0  0  0  0  0  0  0  0  0  0  0
    8.1310    5.0650  -13.1010 H   0  0  0  0  0  0  0  0  0  0  0  0
    8.1870    5.2000  -11.2990 H   0  0  0  0  0  0  0  0  0  0  0  0
    7.8740    7.8180  -12.6930 H   0  0  0  0  0  0  0  0  0  0  0  0
    9.3010    6.9540  -13.2990 H   0  0  0  0  0  0  0  0  0  0  0  0
    9.1230    7.3760  -11.5150 H   0  0  0  0  0  0  0  0  0  0  0  0
   -2.1300    9.7660  -13.6010 H   0  0  0  0  0  0  0  0  0  0  0  0
   -2.2020    9.0360  -11.9790 H   0  0  0  0  0  0  0  0  0  0  0  0
    5.7200   11.0090  -12.8170 H   0  0  0  0  0  0  0  0  0  0  0  0
    4.7500   12.4330  -13.4780 H   0  0  0  0  0  0  0  0  0  0  0  0
    4.4440   11.7520  -11.8170 H   0  0  0  0  0  0  0  0  0  0  0  0
  1  2  1  0  0  0  0
  2  7  2  0  0  0  0
  2  3  1  0  0  0  0
  3  4  2  0  0  0  0
  4  5  1  0  0  0  0
  5  8  1  0  0  0  0
  6 31  1  0  0  0  0
  6  5  2  0  0  0  0
  7  6  1  0  0  0  0
  8 29  1  0  0  0  0
  8  9  1  0  0  0  0
  9 10  2  0  0  0  0
 11  4  1  6  0  0  0
 11 25  1  0  0  0  0
 11 12  1  0  0  0  0
 11  9  1  0  0  0  0
 12 16  2  0  0  0  0
 12 13  1  0  0  0  0
 13 23  1  0  0  0  0
 13 14  2  0  0  0  0
 15 33  1  0  0  0  0
 15 14  1  0  0  0  0
 16 15  1  0  0  0  0
 17 18  1  0  0  0  0
 17 16  1  0  0  0  0
 17 35  1  0  0  0  0
 18 20  1  0  0  0  0
 19 18  2  0  0  0  0
 21 20  1  0  0  0  0
 21 37  1  0  0  0  0
 22 21  1  0  0  0  0
 22 40  1  0  0  0  0
 24 28  1  0  0  0  0
 24 23  1  0  0  0  0
 25 24  2  0  0  0  0
 26 25  1  0  0  0  0
 27 26  3  0  0  0  0
 28 42  1  0  0  0  0
 29 43  1  0  0  0  0
 29 45  1  0  0  0  0
 30  3  1  0  0  0  0
 32  7  1  0  0  0  0
 34 17  1  0  0  0  0
 36 21  1  0  0  0  0
 38 22  1  0  0  0  0
 39 22  1  0  0  0  0
 41 28  1  0  0  0  0
 44 29  1  0  0  0  0
M  END
>  <Pose>
1

>  <Score>
-3.43

$$$$
