
 OpenBabel03232203513D

 41 44  0  0  1  0  0  0  0  0999 V2000
   -3.5070   12.0710  -13.1760 B   0  0  0  0  0  0  0  0  0  0  0  0
   -3.0750   10.2790  -13.6330 C   0  0  0  0  0  0  0  0  0  0  0  0
   -1.8630    9.7010  -13.3400 C   0  0  0  0  0  0  0  0  0  0  0  0
   -1.6230    8.3790  -13.7110 C   0  0  0  0  0  0  0  0  0  0  0  0
   -2.5350    7.6120  -14.3550 C   0  0  0  0  0  0  0  0  0  0  0  0
   -3.7680    8.1990  -14.6530 C   0  0  0  0  0  0  0  0  0  0  0  0
   -4.0220    9.5040  -14.2950 C   0  0  0  0  0  0  0  0  0  0  0  0
   -2.0490    6.3090  -14.6170 N   0  0  0  0  0  0  0  0  0  0  0  0
   -0.7380    6.2360  -14.1060 C   0  0  0  0  0  0  0  0  0  0  0  0
    0.0220    5.2300  -14.1500 O   0  0  0  0  0  0  0  0  0  0  0  0
   -0.3920    7.5510  -13.4980 C   0  0  1  0  0  0  0  0  0  0  0  0
    0.7530    8.1670  -14.2150 C   0  0  0  0  0  0  0  0  0  0  0  0
    1.8080    8.5780  -13.6090 C   0  0  0  0  0  0  0  0  0  0  0  0
    1.9770    8.4770  -12.1680 N   0  0  0  0  0  0  0  0  0  0  0  0
    0.8950    7.8930  -11.4740 C   0  0  0  0  0  0  0  0  0  0  0  0
   -0.1860    7.4690  -12.0690 C   0  0  0  0  0  0  0  0  0  0  0  0
   -1.2200    6.8870  -11.2220 C   0  0  0  0  0  0  0  0  0  0  0  0
   -2.0290    6.4280  -10.5310 N   0  0  0  0  0  0  0  0  0  0  0  0
    1.0080    7.7660  -10.0300 N   0  0  0  0  0  0  0  0  0  0  0  0
    2.7550    9.1390  -14.6220 C   0  0  0  0  0  0  0  0  0  0  0  0
    2.1190    8.9970  -15.8370 O   0  0  0  0  0  0  0  0  0  0  0  0
    0.8960    8.4160  -15.6860 C   0  0  0  0  0  0  0  0  0  0  0  0
    0.0200    8.1200  -16.5530 O   0  0  0  0  0  0  0  0  0  0  0  0
    4.0850    8.4130  -14.5460 C   0  0  0  0  0  0  0  0  0  0  0  0
    2.9820   10.6200  -14.3800 C   0  0  0  0  0  0  0  0  0  0  0  0
   -2.7480    5.2070  -15.2940 C   0  0  0  0  0  0  0  0  0  0  0  0
   -1.1270   10.2990  -12.8280 H   0  0  0  0  0  0  0  0  0  0  0  0
   -4.4960    7.5830  -15.1690 H   0  0  0  0  0  0  0  0  0  0  0  0
   -4.9920    9.9200  -14.5450 H   0  0  0  0  0  0  0  0  0  0  0  0
    2.8490    8.8240  -11.7310 H   0  0  0  0  0  0  0  0  0  0  0  0
    0.1740    7.4070   -9.5230 H   0  0  0  0  0  0  0  0  0  0  0  0
    1.8730    8.0210   -9.5330 H   0  0  0  0  0  0  0  0  0  0  0  0
    4.1810    7.6360  -15.3450 H   0  0  0  0  0  0  0  0  0  0  0  0
    4.8990    9.1590  -14.5990 H   0  0  0  0  0  0  0  0  0  0  0  0
    4.1310    7.9240  -13.5600 H   0  0  0  0  0  0  0  0  0  0  0  0
    2.1890   11.1970  -14.8940 H   0  0  0  0  0  0  0  0  0  0  0  0
    3.9790   10.9270  -14.7460 H   0  0  0  0  0  0  0  0  0  0  0  0
    2.9450   10.8650  -13.3000 H   0  0  0  0  0  0  0  0  0  0  0  0
   -2.9290    4.3970  -14.5360 H   0  0  0  0  0  0  0  0  0  0  0  0
   -3.7530    5.5480  -15.6290 H   0  0  0  0  0  0  0  0  0  0  0  0
   -2.1770    4.8160  -16.1360 H   0  0  0  0  0  0  0  0  0  0  0  0
  2  3  1  0  0  0  0
  2  1  1  0  0  0  0
  3 27  1  0  0  0  0
  4 11  1  0  0  0  0
  4  3  2  0  0  0  0
  5  4  1  0  0  0  0
  6  5  2  0  0  0  0
  6  7  1  0  0  0  0
  7  2  2  0  0  0  0
  8  5  1  0  0  0  0
  8  9  1  0  0  0  0
  9 11  1  0  0  0  0
 10  9  2  0  0  0  0
 11 12  1  6  0  0  0
 11 16  1  0  0  0  0
 12 13  2  0  0  0  0
 13 14  1  0  0  0  0
 14 30  1  0  0  0  0
 14 15  1  0  0  0  0
 15 19  1  0  0  0  0
 16 15  2  0  0  0  0
 16 17  1  0  0  0  0
 17 18  3  0  0  0  0
 19 32  1  0  0  0  0
 19 31  1  0  0  0  0
 20 24  1  0  0  0  0
 20 25  1  0  0  0  0
 20 13  1  0  0  0  0
 21 22  1  0  0  0  0
 21 20  1  0  0  0  0
 22 12  1  0  0  0  0
 23 22  2  0  0  0  0
 24 35  1  0  0  0  0
 25 38  1  0  0  0  0
 26  8  1  0  0  0  0
 26 39  1  0  0  0  0
 28  6  1  0  0  0  0
 29  7  1  0  0  0  0
 33 24  1  0  0  0  0
 34 24  1  0  0  0  0
 36 25  1  0  0  0  0
 37 25  1  0  0  0  0
 40 26  1  0  0  0  0
 41 26  1  0  0  0  0
M  END
>  <Pose>
1

>  <Score>
-3.33

$$$$
