
 OpenBabel03232203513D

 39 42  0  0  1  0  0  0  0  0999 V2000
    3.1310    8.8490  -17.7820 B   0  0  0  0  0  0  0  0  0  0  0  0
    2.9450    8.9240  -15.8890 C   0  0  0  0  0  0  0  0  0  0  0  0
    1.7070    8.7320  -15.3150 C   0  0  0  0  0  0  0  0  0  0  0  0
    1.5440    8.7820  -13.9270 C   0  0  0  0  0  0  0  0  0  0  0  0
    2.6450    9.0250  -13.1710 C   0  0  0  0  0  0  0  0  0  0  0  0
    3.9110    9.2220  -13.7600 C   0  0  0  0  0  0  0  0  0  0  0  0
    4.0630    9.1710  -15.1270 C   0  0  0  0  0  0  0  0  0  0  0  0
    2.2690    9.0360  -11.7990 N   0  0  0  0  0  0  0  0  0  0  0  0
    0.8890    8.7920  -11.6830 C   0  0  0  0  0  0  0  0  0  0  0  0
    0.2060    8.7290  -10.6300 O   0  0  0  0  0  0  0  0  0  0  0  0
    0.3400    8.6140  -13.0600 C   0  0  1  0  0  0  0  0  0  0  0  0
   -0.6740    9.6320  -13.3570 C   0  0  0  0  0  0  0  0  0  0  0  0
   -1.9240    9.2960  -13.7650 C   0  0  0  0  0  0  0  0  0  0  0  0
   -2.2780    7.9520  -13.9120 O   0  0  0  0  0  0  0  0  0  0  0  0
   -1.3620    6.9540  -13.6440 C   0  0  0  0  0  0  0  0  0  0  0  0
   -0.1590    7.2490  -13.2520 C   0  0  0  0  0  0  0  0  0  0  0  0
    0.7500    6.1240  -12.9900 C   0  0  0  0  0  0  0  0  0  0  0  0
    1.4590    5.2540  -12.7940 N   0  0  0  0  0  0  0  0  0  0  0  0
   -1.7980    5.5960  -13.8180 N   0  0  0  0  0  0  0  0  0  0  0  0
   -2.8560   10.3010  -14.0380 C   0  0  0  0  0  0  0  0  0  0  0  0
   -4.0030    9.9780  -14.4120 O   0  0  0  0  0  0  0  0  0  0  0  0
   -2.4920   11.6180  -13.8880 C   0  0  0  0  0  0  0  0  0  0  0  0
   -1.2090   11.9010  -13.4710 C   0  0  0  0  0  0  0  0  0  0  0  0
   -0.3910   10.9310  -13.2350 O   0  0  0  0  0  0  0  0  0  0  0  0
   -0.7840   13.3440  -13.2990 C   0  0  0  0  0  0  0  0  0  0  0  0
   -0.6630   13.6230  -11.9380 O   0  0  0  0  0  0  0  0  0  0  0  0
    3.2290    9.2740  -10.7040 C   0  0  0  0  0  0  0  0  0  0  0  0
    0.8070    8.5360  -15.8870 H   0  0  0  0  0  0  0  0  0  0  0  0
    4.7890    9.4170  -13.1450 H   0  0  0  0  0  0  0  0  0  0  0  0
    5.0450    9.3230  -15.5830 H   0  0  0  0  0  0  0  0  0  0  0  0
   -2.7840    5.4200  -14.0050 H   0  0  0  0  0  0  0  0  0  0  0  0
   -1.1060    4.8520  -13.7470 H   0  0  0  0  0  0  0  0  0  0  0  0
   -3.1620   12.4420  -14.0810 H   0  0  0  0  0  0  0  0  0  0  0  0
    0.1600   13.5450  -13.8040 H   0  0  0  0  0  0  0  0  0  0  0  0
   -1.6030   14.0210  -13.6710 H   0  0  0  0  0  0  0  0  0  0  0  0
   -1.2160   14.4320  -11.7190 H   0  0  0  0  0  0  0  0  0  0  0  0
    4.2640    9.1210  -11.0640 H   0  0  0  0  0  0  0  0  0  0  0  0
    3.1050   10.3150  -10.3660 H   0  0  0  0  0  0  0  0  0  0  0  0
    3.0440    8.5270   -9.8890 H   0  0  0  0  0  0  0  0  0  0  0  0
  1  2  1  0  0  0  0
  2  3  2  0  0  0  0
  2  7  1  0  0  0  0
  3  4  1  0  0  0  0
  4  5  2  0  0  0  0
  5  8  1  0  0  0  0
  6  5  1  0  0  0  0
  6 29  1  0  0  0  0
  7  6  2  0  0  0  0
  8  9  1  0  0  0  0
  8 27  1  0  0  0  0
  9 10  2  0  0  0  0
 11  4  1  6  0  0  0
 11  9  1  0  0  0  0
 12 24  1  0  0  0  0
 12 11  1  0  0  0  0
 13 12  2  0  0  0  0
 14 13  1  0  0  0  0
 14 15  1  0  0  0  0
 15 16  2  0  0  0  0
 16 11  1  0  0  0  0
 16 17  1  0  0  0  0
 17 18  3  0  0  0  0
 19 32  1  0  0  0  0
 19 15  1  0  0  0  0
 20 22  1  0  0  0  0
 20 13  1  0  0  0  0
 21 20  2  0  0  0  0
 22 23  2  0  0  0  0
 23 25  1  0  0  0  0
 23 24  1  0  0  0  0
 25 26  1  0  0  0  0
 26 36  1  0  0  0  0
 27 38  1  0  0  0  0
 27 39  1  0  0  0  0
 28  3  1  0  0  0  0
 30  7  1  0  0  0  0
 31 19  1  0  0  0  0
 33 22  1  0  0  0  0
 34 25  1  0  0  0  0
 35 25  1  0  0  0  0
 37 27  1  0  0  0  0
M  END
>  <Pose>
1

>  <Score>
-3.73

$$$$
