
 OpenBabel03232203513D

 41 44  0  0  0  0  0  0  0  0999 V2000
   -2.9150    6.0350  -14.6800 B   0  0  0  0  0  0  0  0  0  0  0  0
   -1.3500    6.7350  -13.8650 C   0  0  0  0  0  0  0  0  0  0  0  0
   -1.0050    8.0520  -13.9730 C   0  0  0  0  0  0  0  0  0  0  0  0
    0.1350    8.5470  -13.3790 C   0  0  0  0  0  0  0  0  0  0  0  0
    0.9780    7.7640  -12.6570 C   0  0  0  0  0  0  0  0  0  0  0  0
    0.6320    6.4140  -12.5410 C   0  0  0  0  0  0  0  0  0  0  0  0
   -0.5020    5.9150  -13.1300 C   0  0  0  0  0  0  0  0  0  0  0  0
    2.0740    8.4970  -12.1520 N   0  0  0  0  0  0  0  0  0  0  0  0
    1.9550    9.8590  -12.5690 C   0  0  0  0  0  0  0  0  0  0  0  0
    2.6810   10.8340  -12.3600 O   0  0  0  0  0  0  0  0  0  0  0  0
    0.6960    9.9040  -13.3710 C   0  0  0  0  0  0  0  0  0  0  0  0
    0.3170   10.9270  -13.8500 N   0  0  0  0  0  0  0  0  0  0  0  0
    0.6400   12.2310  -13.9730 N   0  0  0  0  0  0  0  0  0  0  0  0
    0.1470   13.1780  -13.0570 C   0  0  0  0  0  0  0  0  0  0  0  0
   -0.9620   12.9260  -12.4650 O   0  0  0  0  0  0  0  0  0  0  0  0
    0.7620   14.4520  -12.6720 C   0  0  0  0  0  0  0  0  0  0  0  0
   -0.1230   15.4540  -12.1490 N   0  0  0  0  0  0  0  0  0  0  0  0
   -0.7540   16.4070  -12.9960 C   0  0  0  0  0  0  0  0  0  0  0  0
   -0.3530   16.4170  -14.2250 O   0  0  0  0  0  0  0  0  0  0  0  0
   -1.7710   17.3400  -12.6170 C   0  0  0  0  0  0  0  0  0  0  0  0
   -1.8750   17.9570  -11.3790 C   0  0  0  0  0  0  0  0  0  0  0  0
   -2.8600   18.8380  -11.0870 C   0  0  0  0  0  0  0  0  0  0  0  0
   -3.8210   19.1690  -12.0210 C   0  0  0  0  0  0  0  0  0  0  0  0
   -3.7610   18.5850  -13.2470 C   0  0  0  0  0  0  0  0  0  0  0  0
   -2.7460   17.6720  -13.5690 C   0  0  0  0  0  0  0  0  0  0  0  0
   -4.6980   20.1020  -11.4450 O   0  0  0  0  0  0  0  0  0  0  0  0
   -3.8260   20.8130  -10.5330 C   0  0  0  0  0  0  0  0  0  0  0  0
   -3.2100   19.6220   -9.9250 O   0  0  0  0  0  0  0  0  0  0  0  0
   -1.6280    8.7160  -14.5260 H   0  0  0  0  0  0  0  0  0  0  0  0
    1.2740    5.7840  -11.9860 H   0  0  0  0  0  0  0  0  0  0  0  0
   -0.8110    4.8840  -13.0630 H   0  0  0  0  0  0  0  0  0  0  0  0
    2.8680    8.1390  -11.5690 H   0  0  0  0  0  0  0  0  0  0  0  0
    1.2660   12.5560  -14.7600 H   0  0  0  0  0  0  0  0  0  0  0  0
    1.4990   14.2240  -11.8540 H   0  0  0  0  0  0  0  0  0  0  0  0
    1.3390   14.8670  -13.5280 H   0  0  0  0  0  0  0  0  0  0  0  0
   -0.3240   15.5370  -11.1410 H   0  0  0  0  0  0  0  0  0  0  0  0
   -1.1290   17.7110  -10.6020 H   0  0  0  0  0  0  0  0  0  0  0  0
   -4.5280   18.8410  -14.0000 H   0  0  0  0  0  0  0  0  0  0  0  0
   -2.6890   17.2180  -14.5060 H   0  0  0  0  0  0  0  0  0  0  0  0
   -4.3080   21.4360   -9.8230 H   0  0  0  0  0  0  0  0  0  0  0  0
   -3.0620   21.3360  -11.1110 H   0  0  0  0  0  0  0  0  0  0  0  0
  1  2  1  0  0  0  0
  2  7  1  0  0  0  0
  3  2  2  0  0  0  0
  3  4  1  0  0  0  0
  4 11  1  0  0  0  0
  4  5  2  0  0  0  0
  5  6  1  0  0  0  0
  5  8  1  0  0  0  0
  6 30  1  0  0  0  0
  7 31  1  0  0  0  0
  7  6  2  0  0  0  0
  8 32  1  0  0  0  0
  9 10  2  0  0  0  0
  9  8  1  0  0  0  0
 11  9  1  0  0  0  0
 12 11  2  0  0  0  0
 13 12  1  0  0  0  0
 13 14  1  0  0  0  0
 14 16  1  0  0  0  0
 14 15  2  0  0  0  0
 16 17  1  0  0  0  0
 16 34  1  0  0  0  0
 17 36  1  0  0  0  0
 18 20  1  0  0  0  0
 18 17  1  0  0  0  0
 19 18  2  0  0  0  0
 20 21  1  0  0  0  0
 21 22  2  0  0  0  0
 21 37  1  0  0  0  0
 22 28  1  0  0  0  0
 23 26  1  0  0  0  0
 23 22  1  0  0  0  0
 24 23  2  0  0  0  0
 25 24  1  0  0  0  0
 25 20  2  0  0  0  0
 26 27  1  0  0  0  0
 27 28  1  0  0  0  0
 27 40  1  0  0  0  0
 29  3  1  0  0  0  0
 33 13  1  0  0  0  0
 35 16  1  0  0  0  0
 38 24  1  0  0  0  0
 39 25  1  0  0  0  0
 41 27  1  0  0  0  0
M  END
>  <Pose>
1

>  <Score>
-8.46

$$$$
