
 OpenBabel03232203513D

 51 56  0  0  1  0  0  0  0  0999 V2000
   -3.4210    6.4220  -15.5730 B   0  0  0  0  0  0  0  0  0  0  0  0
   -1.7420    6.5550  -14.6790 C   0  0  0  0  0  0  0  0  0  0  0  0
   -0.7900    7.5050  -15.0310 C   0  0  0  0  0  0  0  0  0  0  0  0
    0.4140    7.5940  -14.3840 C   0  0  0  0  0  0  0  0  0  0  0  0
    0.6500    6.6950  -13.3560 C   0  0  0  0  0  0  0  0  0  0  0  0
   -0.2890    5.7500  -13.0010 C   0  0  0  0  0  0  0  0  0  0  0  0
   -1.4950    5.6690  -13.6590 C   0  0  0  0  0  0  0  0  0  0  0  0
    1.9420    6.9260  -12.7880 N   0  0  0  0  0  0  0  0  0  0  0  0
    2.5500    8.0020  -13.4700 C   0  0  0  0  0  0  0  0  0  0  0  0
    3.6760    8.4490  -13.2080 O   0  0  0  0  0  0  0  0  0  0  0  0
    1.5930    8.4470  -14.5060 C   0  0  1  0  0  0  0  0  0  0  0  0
    2.2780    8.4000  -15.7620 N   0  0  2  0  0  0  0  0  0  0  0  0
    3.1490    9.5730  -15.7360 C   0  0  2  0  0  0  0  0  0  0  0  0
    2.4270   10.6170  -14.9500 C   0  0  1  0  0  0  0  0  0  0  0  0
    1.2460    9.9100  -14.3800 C   0  0  2  0  0  0  0  0  0  0  0  0
    1.1590   10.3730  -12.9990 C   0  0  0  0  0  0  0  0  0  0  0  0
    0.2260   10.1410  -12.1970 O   0  0  0  0  0  0  0  0  0  0  0  0
    2.3000   11.1330  -12.6890 N   0  0  0  0  0  0  0  0  0  0  0  0
    3.2280   11.1110  -13.7840 C   0  0  0  0  0  0  0  0  0  0  0  0
    4.4440   11.4250  -13.7970 O   0  0  0  0  0  0  0  0  0  0  0  0
    2.5340   11.8400  -11.4690 C   0  0  0  0  0  0  0  0  0  0  0  0
    2.2770   13.3020  -11.5230 C   0  0  2  0  0  0  0  0  0  0  0  0
    1.0170   13.6330  -12.0090 O   0  0  0  0  0  0  0  0  0  0  0  0
    1.0890   15.0070  -12.1960 C   0  0  0  0  0  0  0  0  0  0  0  0
    2.4660   15.3420  -12.6760 C   0  0  0  0  0  0  0  0  0  0  0  0
    3.2740   14.1040  -12.2870 C   0  0  0  0  0  0  0  0  0  0  0  0
    3.2410   10.0440  -17.1800 C   0  0  0  0  0  0  0  0  0  0  0  0
    2.4230    9.0620  -17.9920 C   0  0  0  0  0  0  0  0  0  0  0  0
    1.4310    8.5840  -16.9220 C   0  0  0  0  0  0  0  0  0  0  0  0
   -1.0730    8.1660  -15.8520 H   0  0  0  0  0  0  0  0  0  0  0  0
   -0.1200    5.0270  -12.1890 H   0  0  0  0  0  0  0  0  0  0  0  0
   -2.2420    4.9080  -13.3670 H   0  0  0  0  0  0  0  0  0  0  0  0
    2.3560    6.3660  -11.9850 H   0  0  0  0  0  0  0  0  0  0  0  0
    4.1420    9.3200  -15.3350 H   0  0  0  0  0  0  0  0  0  0  0  0
    2.1400   11.4950  -15.5890 H   0  0  0  0  0  0  0  0  0  0  0  0
    0.3190   10.0800  -14.9630 H   0  0  0  0  0  0  0  0  0  0  0  0
    1.8660   11.4050  -10.6940 H   0  0  0  0  0  0  0  0  0  0  0  0
    3.5700   11.6960  -11.0750 H   0  0  0  0  0  0  0  0  0  0  0  0
    2.2960   13.6780  -10.4620 H   0  0  0  0  0  0  0  0  0  0  0  0
    0.3790   15.2530  -13.0360 H   0  0  0  0  0  0  0  0  0  0  0  0
    0.7720   15.5810  -11.3020 H   0  0  0  0  0  0  0  0  0  0  0  0
    2.8920   16.2450  -12.1910 H   0  0  0  0  0  0  0  0  0  0  0  0
    2.5050   15.4070  -13.7830 H   0  0  0  0  0  0  0  0  0  0  0  0
    3.7190   13.6150  -13.1510 H   0  0  0  0  0  0  0  0  0  0  0  0
    4.1300   14.4180  -11.6200 H   0  0  0  0  0  0  0  0  0  0  0  0
    4.2750   10.1420  -17.5280 H   0  0  0  0  0  0  0  0  0  0  0  0
    2.7660   11.0490  -17.3150 H   0  0  0  0  0  0  0  0  0  0  0  0
    3.0020    8.2230  -18.3820 H   0  0  0  0  0  0  0  0  0  0  0  0
    1.8540    9.5240  -18.7980 H   0  0  0  0  0  0  0  0  0  0  0  0
    0.9510    7.6690  -17.2690 H   0  0  0  0  0  0  0  0  0  0  0  0
    0.7030    9.3980  -16.8310 H   0  0  0  0  0  0  0  0  0  0  0  0
  1  2  1  0  0  0  0
  2  7  1  0  0  0  0
  3  2  2  0  0  0  0
  3  4  1  0  0  0  0
  4  5  2  0  0  0  0
  5  6  1  0  0  0  0
  5  8  1  0  0  0  0
  6 31  1  0  0  0  0
  7 32  1  0  0  0  0
  7  6  2  0  0  0  0
  8 33  1  0  0  0  0
  9 10  2  0  0  0  0
  9  8  1  0  0  0  0
 11  4  1  6  0  0  0
 11 15  1  0  0  0  0
 11  9  1  0  0  0  0
 12 29  1  6  0  0  0
 12 13  1  0  0  0  0
 12 11  1  0  0  0  0
 13 34  1  1  0  0  0
 13 14  1  0  0  0  0
 14 35  1  6  0  0  0
 14 15  1  0  0  0  0
 14 19  1  0  0  0  0
 15 36  1  6  0  0  0
 15 16  1  0  0  0  0
 16 18  1  0  0  0  0
 16 17  2  0  0  0  0
 18 21  1  0  0  0  0
 19 18  1  0  0  0  0
 20 19  2  0  0  0  0
 21 38  1  0  0  0  0
 21 37  1  0  0  0  0
 22 21  1  0  0  0  0
 22 39  1  1  0  0  0
 23 22  1  0  0  0  0
 24 23  1  0  0  0  0
 24 41  1  0  0  0  0
 25 26  1  0  0  0  0
 25 24  1  0  0  0  0
 25 42  1  0  0  0  0
 26 45  1  0  0  0  0
 26 22  1  0  0  0  0
 27 13  1  0  0  0  0
 28 27  1  0  0  0  0
 28 29  1  0  0  0  0
 29 51  1  0  0  0  0
 30  3  1  0  0  0  0
 40 24  1  0  0  0  0
 43 25  1  0  0  0  0
 44 26  1  0  0  0  0
 46 27  1  0  0  0  0
 47 27  1  0  0  0  0
 48 28  1  0  0  0  0
 49 28  1  0  0  0  0
 50 29  1  0  0  0  0
M  END
>  <Pose>
1

>  <Score>
-3.61

$$$$
