
 OpenBabel03232203513D

 41 44  0  0  1  0  0  0  0  0999 V2000
    0.6170    7.8100   -8.0030 B   0  0  0  0  0  0  0  0  0  0  0  0
    1.0730    7.5850   -9.8410 C   0  0  0  0  0  0  0  0  0  0  0  0
    0.9970    8.6950  -10.6470 C   0  0  0  0  0  0  0  0  0  0  0  0
    1.3220    8.5800  -12.0020 C   0  0  0  0  0  0  0  0  0  0  0  0
    1.7050    7.3740  -12.4920 C   0  0  0  0  0  0  0  0  0  0  0  0
    1.7910    6.2250  -11.6840 C   0  0  0  0  0  0  0  0  0  0  0  0
    1.4650    6.3670  -10.3560 C   0  0  0  0  0  0  0  0  0  0  0  0
    1.9850    7.4620  -13.8770 N   0  0  0  0  0  0  0  0  0  0  0  0
    1.7640    8.7840  -14.2690 C   0  0  0  0  0  0  0  0  0  0  0  0
    1.8970    9.2780  -15.4550 O   0  0  0  0  0  0  0  0  0  0  0  0
    1.3370    9.5670  -13.0710 C   0  0  2  0  0  0  0  0  0  0  0  0
    2.2770   10.6500  -12.9480 C   0  0  0  0  0  0  0  0  0  0  0  0
    1.9050   11.9270  -13.1470 C   0  0  0  0  0  0  0  0  0  0  0  0
    3.0220   12.7030  -12.9550 N   0  0  0  0  0  0  0  0  0  0  0  0
    4.0310   11.9140  -12.6510 N   0  0  0  0  0  0  0  0  0  0  0  0
    3.6500   10.6360  -12.6270 C   0  0  0  0  0  0  0  0  0  0  0  0
    4.4690    9.4260  -12.3300 C   0  0  0  0  0  0  0  0  0  0  0  0
    0.5930   12.3060  -13.4860 O   0  0  0  0  0  0  0  0  0  0  0  0
   -0.3290   11.2750  -13.6090 C   0  0  0  0  0  0  0  0  0  0  0  0
   -0.0270   10.0250  -13.4290 C   0  0  0  0  0  0  0  0  0  0  0  0
   -1.0940    8.9950  -13.5860 C   0  0  0  0  0  0  0  0  0  0  0  0
   -2.1540    9.3350  -14.1410 O   0  0  0  0  0  0  0  0  0  0  0  0
   -0.9590    7.7040  -13.1530 O   0  0  0  0  0  0  0  0  0  0  0  0
   -1.0040    6.5690  -13.9840 C   0  0  0  0  0  0  0  0  0  0  0  0
   -2.3980    6.5260  -14.6190 C   0  0  0  0  0  0  0  0  0  0  0  0
   -1.6980   11.5850  -13.9550 N   0  0  0  0  0  0  0  0  0  0  0  0
    0.6870    9.6700  -10.2520 H   0  0  0  0  0  0  0  0  0  0  0  0
    2.0950    5.2740  -12.0780 H   0  0  0  0  0  0  0  0  0  0  0  0
    1.5140    5.5150   -9.6900 H   0  0  0  0  0  0  0  0  0  0  0  0
    2.3040    6.6900  -14.5300 H   0  0  0  0  0  0  0  0  0  0  0  0
    3.0610   13.7440  -13.0390 H   0  0  0  0  0  0  0  0  0  0  0  0
    5.4790    9.7260  -11.9860 H   0  0  0  0  0  0  0  0  0  0  0  0
    4.6040    8.8900  -13.2910 H   0  0  0  0  0  0  0  0  0  0  0  0
    4.0360    8.8040  -11.5300 H   0  0  0  0  0  0  0  0  0  0  0  0
   -0.7770    5.6390  -13.4540 H   0  0  0  0  0  0  0  0  0  0  0  0
   -0.2880    6.7110  -14.8220 H   0  0  0  0  0  0  0  0  0  0  0  0
   -2.7830    7.5520  -14.7840 H   0  0  0  0  0  0  0  0  0  0  0  0
   -2.3830    6.0050  -15.5940 H   0  0  0  0  0  0  0  0  0  0  0  0
   -3.0720    5.9380  -13.9510 H   0  0  0  0  0  0  0  0  0  0  0  0
   -1.9710   11.5260  -14.9390 H   0  0  0  0  0  0  0  0  0  0  0  0
   -2.3510   11.8520  -13.2180 H   0  0  0  0  0  0  0  0  0  0  0  0
  2  1  1  0  0  0  0
  3 27  1  0  0  0  0
  3  2  2  0  0  0  0
  4  3  1  0  0  0  0
  5  4  2  0  0  0  0
  5  6  1  0  0  0  0
  6  7  2  0  0  0  0
  7  2  1  0  0  0  0
  7 29  1  0  0  0  0
  8  5  1  0  0  0  0
  9  8  1  0  0  0  0
 10  9  2  0  0  0  0
 11  9  1  6  0  0  0
 11 12  1  0  0  0  0
 11  4  1  0  0  0  0
 12 16  1  0  0  0  0
 13 14  1  0  0  0  0
 13 12  2  0  0  0  0
 14 15  1  0  0  0  0
 15 16  2  0  0  0  0
 16 17  1  0  0  0  0
 17 32  1  0  0  0  0
 17 34  1  0  0  0  0
 18 13  1  0  0  0  0
 19 18  1  0  0  0  0
 19 20  2  0  0  0  0
 20 11  1  0  0  0  0
 21 20  1  0  0  0  0
 21 23  1  0  0  0  0
 22 21  2  0  0  0  0
 24 35  1  0  0  0  0
 24 23  1  0  0  0  0
 25 24  1  0  0  0  0
 25 39  1  0  0  0  0
 26 19  1  0  0  0  0
 26 41  1  0  0  0  0
 28  6  1  0  0  0  0
 30  8  1  0  0  0  0
 31 14  1  0  0  0  0
 33 17  1  0  0  0  0
 36 24  1  0  0  0  0
 37 25  1  0  0  0  0
 38 25  1  0  0  0  0
 40 26  1  0  0  0  0
M  END
>  <Pose>
1

>  <Score>
-3.11

$$$$
