
 OpenBabel03232203513D

 38 41  0  0  1  0  0  0  0  0999 V2000
    0.5410    7.1130   -9.4290 B   0  0  0  0  0  0  0  0  0  0  0  0
    0.7620    7.3800  -11.2970 C   0  0  0  0  0  0  0  0  0  0  0  0
    1.6060    8.3700  -11.8110 C   0  0  0  0  0  0  0  0  0  0  0  0
    1.7600    8.5550  -13.1590 C   0  0  0  0  0  0  0  0  0  0  0  0
    1.0720    7.7580  -14.0260 C   0  0  0  0  0  0  0  0  0  0  0  0
    0.2140    6.7520  -13.5600 C   0  0  0  0  0  0  0  0  0  0  0  0
    0.0800    6.5890  -12.2020 C   0  0  0  0  0  0  0  0  0  0  0  0
    1.3630    8.1040  -15.3700 N   0  0  0  0  0  0  0  0  0  0  0  0
    2.2770    9.1720  -15.3400 C   0  0  0  0  0  0  0  0  0  0  0  0
    2.7920    9.7780  -16.3160 O   0  0  0  0  0  0  0  0  0  0  0  0
    2.5740    9.5110  -13.9310 C   0  0  1  0  0  0  0  0  0  0  0  0
    2.1440   10.9210  -13.6560 C   0  0  0  0  0  0  0  0  0  0  0  0
    2.9120   11.8700  -13.1890 C   0  0  0  0  0  0  0  0  0  0  0  0
    4.2650   11.5610  -12.9140 N   0  0  0  0  0  0  0  0  0  0  0  0
    4.7630   10.2520  -13.1440 C   0  0  0  0  0  0  0  0  0  0  0  0
    3.9960    9.2990  -13.6110 C   0  0  0  0  0  0  0  0  0  0  0  0
    4.5890    7.9740  -13.8200 C   0  0  0  0  0  0  0  0  0  0  0  0
    5.0480    6.9230  -13.9670 N   0  0  0  0  0  0  0  0  0  0  0  0
    6.1570    9.9590  -12.8540 N   0  0  0  0  0  0  0  0  0  0  0  0
    2.1060   13.1080  -13.0610 C   0  0  0  0  0  0  0  0  0  0  0  0
    0.8050   12.7990  -13.4920 O   0  0  0  0  0  0  0  0  0  0  0  0
    0.7930   11.4690  -13.8640 C   0  0  0  0  0  0  0  0  0  0  0  0
   -0.2280   10.8400  -14.3090 O   0  0  0  0  0  0  0  0  0  0  0  0
    2.6240   14.1940  -14.0070 C   0  0  0  0  0  0  0  0  0  0  0  0
    2.1130   13.6210  -11.6280 C   0  0  0  0  0  0  0  0  0  0  0  0
    2.1270    8.9750  -11.0790 H   0  0  0  0  0  0  0  0  0  0  0  0
   -0.3430    6.1050  -14.2120 H   0  0  0  0  0  0  0  0  0  0  0  0
   -0.5860    5.8080  -11.8380 H   0  0  0  0  0  0  0  0  0  0  0  0
    0.9520    7.6270  -16.2320 H   0  0  0  0  0  0  0  0  0  0  0  0
    4.9300   12.2850  -12.5370 H   0  0  0  0  0  0  0  0  0  0  0  0
    6.9210   10.0970  -13.5360 H   0  0  0  0  0  0  0  0  0  0  0  0
    6.3850    9.5950  -11.9140 H   0  0  0  0  0  0  0  0  0  0  0  0
    1.7710   14.8880  -14.1600 H   0  0  0  0  0  0  0  0  0  0  0  0
    3.4350   14.7720  -13.5540 H   0  0  0  0  0  0  0  0  0  0  0  0
    2.8650   13.7480  -14.9770 H   0  0  0  0  0  0  0  0  0  0  0  0
    2.6510   14.5950  -11.5570 H   0  0  0  0  0  0  0  0  0  0  0  0
    1.0380   13.7600  -11.3330 H   0  0  0  0  0  0  0  0  0  0  0  0
    2.5470   12.8610  -10.9610 H   0  0  0  0  0  0  0  0  0  0  0  0
  2  1  1  0  0  0  0
  3  2  1  0  0  0  0
  3 26  1  0  0  0  0
  4  3  2  0  0  0  0
  5  6  2  0  0  0  0
  5  4  1  0  0  0  0
  6  7  1  0  0  0  0
  7 28  1  0  0  0  0
  7  2  2  0  0  0  0
  8  9  1  0  0  0  0
  8  5  1  0  0  0  0
 10  9  2  0  0  0  0
 11  9  1  6  0  0  0
 11 12  1  0  0  0  0
 11 16  1  0  0  0  0
 11  4  1  0  0  0  0
 12 13  2  0  0  0  0
 13 20  1  0  0  0  0
 13 14  1  0  0  0  0
 14 30  1  0  0  0  0
 15 14  1  0  0  0  0
 15 19  1  0  0  0  0
 16 15  2  0  0  0  0
 17 16  1  0  0  0  0
 18 17  3  0  0  0  0
 19 32  1  0  0  0  0
 20 25  1  0  0  0  0
 21 20  1  0  0  0  0
 22 12  1  0  0  0  0
 22 21  1  0  0  0  0
 23 22  2  0  0  0  0
 24 34  1  0  0  0  0
 24 20  1  0  0  0  0
 25 36  1  0  0  0  0
 25 37  1  0  0  0  0
 25 38  1  0  0  0  0
 27  6  1  0  0  0  0
 29  8  1  0  0  0  0
 31 19  1  0  0  0  0
 33 24  1  0  0  0  0
 35 24  1  0  0  0  0
M  END
>  <Pose>
1

>  <Score>
-2.89

$$$$
