
 OpenBabel03232203513D

 53 57  0  0  1  0  0  0  0  0999 V2000
   -2.2330   10.5600  -13.7840 B   0  0  0  0  0  0  0  0  0  0  0  0
   -0.7660    9.3760  -13.4760 C   0  0  0  0  0  0  0  0  0  0  0  0
    0.4770    9.5740  -14.0340 C   0  0  0  0  0  0  0  0  0  0  0  0
    1.5490    8.6980  -13.8090 C   0  0  0  0  0  0  0  0  0  0  0  0
    1.3180    7.6150  -12.9970 C   0  0  0  0  0  0  0  0  0  0  0  0
    0.0680    7.4090  -12.4300 C   0  0  0  0  0  0  0  0  0  0  0  0
   -0.9780    8.2760  -12.6590 C   0  0  0  0  0  0  0  0  0  0  0  0
    2.4790    6.8160  -12.8740 N   0  0  0  0  0  0  0  0  0  0  0  0
    3.4930    7.4220  -13.6450 C   0  0  0  0  0  0  0  0  0  0  0  0
    4.6560    6.9390  -13.7380 O   0  0  0  0  0  0  0  0  0  0  0  0
    2.9380    8.6420  -14.2680 C   0  0  1  0  0  0  0  0  0  0  0  0
    3.0030    8.5460  -15.7290 N   0  0  0  0  0  0  0  0  0  0  0  0
    3.2110    9.8970  -16.1980 C   0  0  1  0  0  0  0  0  0  0  0  0
    3.8710   10.6630  -15.1200 C   0  0  2  0  0  0  0  0  0  0  0  0
    3.8120    9.7780  -13.8890 C   0  0  1  0  0  0  0  0  0  0  0  0
    3.3710   10.6470  -12.8030 C   0  0  0  0  0  0  0  0  0  0  0  0
    3.0700   10.2910  -11.6370 O   0  0  0  0  0  0  0  0  0  0  0  0
    3.3220   12.0180  -13.2530 N   0  0  0  0  0  0  0  0  0  0  0  0
    3.1930   11.9000  -14.6850 C   0  0  0  0  0  0  0  0  0  0  0  0
    2.6060   12.7160  -15.4120 O   0  0  0  0  0  0  0  0  0  0  0  0
    3.4110   13.2240  -12.4930 C   0  0  0  0  0  0  0  0  0  0  0  0
    2.3010   13.4710  -11.5140 C   0  0  0  0  0  0  0  0  0  0  0  0
    1.2500   14.3890  -11.9830 C   0  0  0  0  0  0  0  0  0  0  0  0
    0.4710   14.0310  -13.0770 C   0  0  0  0  0  0  0  0  0  0  0  0
   -0.5160   14.8550  -13.5030 C   0  0  0  0  0  0  0  0  0  0  0  0
   -0.7930   16.0460  -12.8970 C   0  0  0  0  0  0  0  0  0  0  0  0
   -0.0110   16.3940  -11.8060 C   0  0  0  0  0  0  0  0  0  0  0  0
    0.9910   15.5810  -11.3590 C   0  0  0  0  0  0  0  0  0  0  0  0
    3.9790    9.8870  -17.4990 C   0  0  1  0  0  0  0  0  0  0  0  0
    3.1000    9.8470  -18.5650 O   0  0  0  0  0  0  0  0  0  0  0  0
    4.9560   11.0340  -17.5980 C   0  0  0  0  0  0  0  0  0  0  0  0
    0.6140   10.4390  -14.6640 H   0  0  0  0  0  0  0  0  0  0  0  0
   -0.1270    6.5540  -11.7840 H   0  0  0  0  0  0  0  0  0  0  0  0
   -1.9670    8.1310  -12.2210 H   0  0  0  0  0  0  0  0  0  0  0  0
    2.5670    5.9290  -12.3070 H   0  0  0  0  0  0  0  0  0  0  0  0
    2.1270    8.1350  -16.1250 H   0  0  0  0  0  0  0  0  0  0  0  0
    2.2200   10.3340  -16.4180 H   0  0  0  0  0  0  0  0  0  0  0  0
    4.9230   10.9510  -15.3450 H   0  0  0  0  0  0  0  0  0  0  0  0
    4.8600    9.4690  -13.6560 H   0  0  0  0  0  0  0  0  0  0  0  0
    4.4040   13.1870  -11.9480 H   0  0  0  0  0  0  0  0  0  0  0  0
    3.4460   14.1130  -13.1780 H   0  0  0  0  0  0  0  0  0  0  0  0
    2.7100   13.8660  -10.5470 H   0  0  0  0  0  0  0  0  0  0  0  0
    1.8590   12.4740  -11.2160 H   0  0  0  0  0  0  0  0  0  0  0  0
    0.6610   13.0860  -13.5900 H   0  0  0  0  0  0  0  0  0  0  0  0
   -1.1040   14.5250  -14.3740 H   0  0  0  0  0  0  0  0  0  0  0  0
   -1.5760   16.7070  -13.2270 H   0  0  0  0  0  0  0  0  0  0  0  0
   -0.2330   17.3440  -11.3180 H   0  0  0  0  0  0  0  0  0  0  0  0
    1.5980   15.8470  -10.5150 H   0  0  0  0  0  0  0  0  0  0  0  0
    4.5780    8.9490  -17.5100 H   0  0  0  0  0  0  0  0  0  0  0  0
    2.9540    8.9410  -18.8960 H   0  0  0  0  0  0  0  0  0  0  0  0
    5.8970   10.8420  -17.0650 H   0  0  0  0  0  0  0  0  0  0  0  0
    4.5310   11.9920  -17.2800 H   0  0  0  0  0  0  0  0  0  0  0  0
    5.2200   11.1410  -18.6800 H   0  0  0  0  0  0  0  0  0  0  0  0
  1  2  1  0  0  0  0
  2  7  1  0  0  0  0
  3  4  1  0  0  0  0
  3  2  2  0  0  0  0
  4  5  2  0  0  0  0
  5  8  1  0  0  0  0
  5  6  1  0  0  0  0
  6 33  1  0  0  0  0
  7  6  2  0  0  0  0
  7 34  1  0  0  0  0
  8 35  1  0  0  0  0
  9  8  1  0  0  0  0
 10  9  2  0  0  0  0
 11 15  1  0  0  0  0
 11  4  1  1  0  0  0
 11  9  1  0  0  0  0
 12 11  1  0  0  0  0
 13 37  1  6  0  0  0
 13 12  1  0  0  0  0
 13 14  1  0  0  0  0
 14 38  1  6  0  0  0
 14 19  1  0  0  0  0
 14 15  1  0  0  0  0
 15 39  1  1  0  0  0
 15 16  1  0  0  0  0
 16 17  2  0  0  0  0
 18 16  1  0  0  0  0
 18 21  1  0  0  0  0
 19 18  1  0  0  0  0
 20 19  2  0  0  0  0
 21 40  1  0  0  0  0
 21 22  1  0  0  0  0
 22 43  1  0  0  0  0
 22 42  1  0  0  0  0
 23 22  1  0  0  0  0
 23 28  1  0  0  0  0
 24 23  2  0  0  0  0
 25 24  1  0  0  0  0
 25 26  2  0  0  0  0
 26 27  1  0  0  0  0
 27 28  2  0  0  0  0
 27 47  1  0  0  0  0
 28 48  1  0  0  0  0
 29 49  1  6  0  0  0
 29 13  1  0  0  0  0
 30 29  1  0  0  0  0
 31 29  1  0  0  0  0
 31 52  1  0  0  0  0
 31 51  1  0  0  0  0
 32  3  1  0  0  0  0
 36 12  1  0  0  0  0
 41 21  1  0  0  0  0
 44 24  1  0  0  0  0
 45 25  1  0  0  0  0
 46 26  1  0  0  0  0
 50 30  1  0  0  0  0
 53 31  1  0  0  0  0
M  END
>  <Pose>
1

>  <Score>
-3.91

$$$$
