
 OpenBabel03232203513D

 45 48  0  0  1  0  0  0  0  0999 V2000
   -2.2510    7.3520   -8.5810 B   0  0  0  0  0  0  0  0  0  0  0  0
   -0.7700    6.9840   -9.7300 C   0  0  0  0  0  0  0  0  0  0  0  0
   -0.4510    7.7900  -10.7940 C   0  0  0  0  0  0  0  0  0  0  0  0
    0.6300    7.5500  -11.6600 C   0  0  0  0  0  0  0  0  0  0  0  0
    1.3880    6.4480  -11.4030 C   0  0  0  0  0  0  0  0  0  0  0  0
    1.0750    5.6090  -10.3170 C   0  0  0  0  0  0  0  0  0  0  0  0
    0.0100    5.8710   -9.4880 C   0  0  0  0  0  0  0  0  0  0  0  0
    2.4470    6.3330  -12.3440 N   0  0  0  0  0  0  0  0  0  0  0  0
    2.3390    7.4230  -13.2300 C   0  0  0  0  0  0  0  0  0  0  0  0
    3.1290    7.6700  -14.2130 O   0  0  0  0  0  0  0  0  0  0  0  0
    1.1660    8.2200  -12.8260 C   0  0  2  0  0  0  0  0  0  0  0  0
    1.7490    9.5200  -12.4460 N   0  0  0  0  0  0  0  0  0  0  0  0
    1.5480   10.4400  -13.5220 C   0  0  2  0  0  0  0  0  0  0  0  0
    0.3140    9.9620  -14.1930 C   0  0  1  0  0  0  0  0  0  0  0  0
    0.2240    8.4810  -13.9430 C   0  0  2  0  0  0  0  0  0  0  0  0
   -1.1860    8.2570  -13.7180 C   0  0  0  0  0  0  0  0  0  0  0  0
   -1.7540    7.1250  -13.7310 O   0  0  0  0  0  0  0  0  0  0  0  0
   -1.8250    9.5040  -13.4850 N   0  0  0  0  0  0  0  0  0  0  0  0
   -0.8610   10.5470  -13.4720 C   0  0  0  0  0  0  0  0  0  0  0  0
   -1.0270   11.6710  -12.9580 O   0  0  0  0  0  0  0  0  0  0  0  0
   -3.2630    9.6310  -13.2920 C   0  0  0  0  0  0  0  0  0  0  0  0
   -4.0120    9.5560  -14.5880 C   0  0  0  0  0  0  0  0  0  0  0  0
   -4.9750    8.4020  -14.6510 C   0  0  0  0  0  0  0  0  0  0  0  0
   -4.4710    7.4760  -15.7630 C   0  0  0  0  0  0  0  0  0  0  0  0
    2.7220   10.5790  -14.4620 C   0  0  0  0  0  0  0  0  0  0  0  0
   -1.0710    8.6480  -10.9580 H   0  0  0  0  0  0  0  0  0  0  0  0
    1.7120    4.7330  -10.1480 H   0  0  0  0  0  0  0  0  0  0  0  0
   -0.2470    5.2350   -8.6440 H   0  0  0  0  0  0  0  0  0  0  0  0
    3.1900    5.5760  -12.3890 H   0  0  0  0  0  0  0  0  0  0  0  0
    1.3350    9.8650  -11.5520 H   0  0  0  0  0  0  0  0  0  0  0  0
    1.3220   11.4560  -13.0590 H   0  0  0  0  0  0  0  0  0  0  0  0
    0.2720   10.2070  -15.2780 H   0  0  0  0  0  0  0  0  0  0  0  0
    0.6230    7.9110  -14.8360 H   0  0  0  0  0  0  0  0  0  0  0  0
   -3.6320    8.8190  -12.6420 H   0  0  0  0  0  0  0  0  0  0  0  0
   -3.4700   10.6040  -12.7840 H   0  0  0  0  0  0  0  0  0  0  0  0
   -3.2770    9.4200  -15.3960 H   0  0  0  0  0  0  0  0  0  0  0  0
   -4.5960   10.4950  -14.7010 H   0  0  0  0  0  0  0  0  0  0  0  0
   -6.0110    8.7440  -14.8820 H   0  0  0  0  0  0  0  0  0  0  0  0
   -4.9950    7.8570  -13.7050 H   0  0  0  0  0  0  0  0  0  0  0  0
   -5.2940    6.8510  -16.1570 H   0  0  0  0  0  0  0  0  0  0  0  0
   -3.9630    8.0740  -16.5390 H   0  0  0  0  0  0  0  0  0  0  0  0
   -3.6640    6.8500  -15.2820 H   0  0  0  0  0  0  0  0  0  0  0  0
    2.8260   11.6670  -14.7610 H   0  0  0  0  0  0  0  0  0  0  0  0
    3.6360   10.3410  -13.9240 H   0  0  0  0  0  0  0  0  0  0  0  0
    2.5640   10.0570  -15.4200 H   0  0  0  0  0  0  0  0  0  0  0  0
  2  7  1  0  0  0  0
  2  1  1  0  0  0  0
  3  2  2  0  0  0  0
  4  5  2  0  0  0  0
  4  3  1  0  0  0  0
  5  6  1  0  0  0  0
  6 27  1  0  0  0  0
  6  7  2  0  0  0  0
  7 28  1  0  0  0  0
  8  5  1  0  0  0  0
  9  8  1  0  0  0  0
 10  9  2  0  0  0  0
 11  9  1  6  0  0  0
 11 12  1  0  0  0  0
 11  4  1  0  0  0  0
 12 30  1  0  0  0  0
 13 31  1  1  0  0  0
 13 12  1  0  0  0  0
 14 32  1  6  0  0  0
 14 15  1  0  0  0  0
 14 13  1  0  0  0  0
 14 19  1  0  0  0  0
 15 33  1  6  0  0  0
 15 16  1  0  0  0  0
 15 11  1  0  0  0  0
 16 18  1  0  0  0  0
 17 16  2  0  0  0  0
 18 19  1  0  0  0  0
 18 21  1  0  0  0  0
 19 20  2  0  0  0  0
 21 35  1  0  0  0  0
 21 34  1  0  0  0  0
 22 21  1  0  0  0  0
 23 22  1  0  0  0  0
 23 39  1  0  0  0  0
 24 42  1  0  0  0  0
 24 23  1  0  0  0  0
 25 44  1  0  0  0  0
 25 13  1  0  0  0  0
 26  3  1  0  0  0  0
 29  8  1  0  0  0  0
 36 22  1  0  0  0  0
 37 22  1  0  0  0  0
 38 23  1  0  0  0  0
 40 24  1  0  0  0  0
 41 24  1  0  0  0  0
 43 25  1  0  0  0  0
 45 25  1  0  0  0  0
M  END
>  <Pose>
1

>  <Score>
-2.94

$$$$
