
 OpenBabel03232203513D

 47 50  0  0  1  0  0  0  0  0999 V2000
    1.7180   14.6240  -10.6250 B   0  0  0  0  0  0  0  0  0  0  0  0
    2.4770   13.2960  -11.7640 C   0  0  0  0  0  0  0  0  0  0  0  0
    1.8800   12.0770  -11.9930 C   0  0  0  0  0  0  0  0  0  0  0  0
    2.4400   11.1100  -12.8270 C   0  0  0  0  0  0  0  0  0  0  0  0
    3.6350   11.3740  -13.4480 C   0  0  0  0  0  0  0  0  0  0  0  0
    4.2610   12.5920  -13.2370 C   0  0  0  0  0  0  0  0  0  0  0  0
    3.6760   13.5450  -12.3950 C   0  0  0  0  0  0  0  0  0  0  0  0
    4.0260   10.2600  -14.2560 N   0  0  0  0  0  0  0  0  0  0  0  0
    3.0330    9.2550  -14.1350 C   0  0  0  0  0  0  0  0  0  0  0  0
    3.0870    8.1640  -14.7340 O   0  0  0  0  0  0  0  0  0  0  0  0
    2.0070    9.7400  -13.2260 C   0  0  2  0  0  0  0  0  0  0  0  0
    0.7540    9.7970  -13.9780 N   0  0  0  0  0  0  0  0  0  0  0  0
   -0.2660    9.3800  -13.0630 C   0  0  2  0  0  0  0  0  0  0  0  0
    0.3890    8.3180  -12.2580 C   0  0  2  0  0  0  0  0  0  0  0  0
    1.7650    8.8920  -12.0140 C   0  0  1  0  0  0  0  0  0  0  0  0
    2.6300    7.7290  -11.8690 C   0  0  0  0  0  0  0  0  0  0  0  0
    3.7710    7.7220  -11.3600 O   0  0  0  0  0  0  0  0  0  0  0  0
    1.9440    6.6070  -12.4110 N   0  0  0  0  0  0  0  0  0  0  0  0
    0.7030    7.0690  -12.9950 C   0  0  0  0  0  0  0  0  0  0  0  0
    0.1250    6.4600  -13.9100 O   0  0  0  0  0  0  0  0  0  0  0  0
    2.4320    5.2590  -12.3630 C   0  0  0  0  0  0  0  0  0  0  0  0
    3.7980    5.0530  -12.9260 C   0  0  0  0  0  0  0  0  0  0  0  0
    4.0290    3.7530  -13.3450 O   0  0  0  0  0  0  0  0  0  0  0  0
    5.3890    3.4930  -13.4910 C   0  0  0  0  0  0  0  0  0  0  0  0
   -1.5440    8.9870  -13.7230 C   0  0  0  0  0  0  0  0  0  0  0  0
   -2.3770   10.1750  -13.9420 C   0  0  0  0  0  0  0  0  0  0  0  0
   -1.9660   11.3060  -13.5570 O   0  0  0  0  0  0  0  0  0  0  0  0
   -3.6450   10.0700  -14.5860 N   0  0  0  0  0  0  0  0  0  0  0  0
    0.9370   11.9020  -11.4860 H   0  0  0  0  0  0  0  0  0  0  0  0
    5.2010   12.7860  -13.7320 H   0  0  0  0  0  0  0  0  0  0  0  0
    4.1810   14.4900  -12.2420 H   0  0  0  0  0  0  0  0  0  0  0  0
    4.9120   10.2220  -14.8330 H   0  0  0  0  0  0  0  0  0  0  0  0
    0.7740    9.1120  -14.7710 H   0  0  0  0  0  0  0  0  0  0  0  0
   -0.5240   10.2060  -12.3450 H   0  0  0  0  0  0  0  0  0  0  0  0
   -0.1420    8.1020  -11.3030 H   0  0  0  0  0  0  0  0  0  0  0  0
    1.6810    9.5020  -11.0850 H   0  0  0  0  0  0  0  0  0  0  0  0
    1.7460    4.6110  -12.9550 H   0  0  0  0  0  0  0  0  0  0  0  0
    2.4720    4.8970  -11.3000 H   0  0  0  0  0  0  0  0  0  0  0  0
    4.6070    5.3810  -12.2340 H   0  0  0  0  0  0  0  0  0  0  0  0
    3.8890    5.7010  -13.8220 H   0  0  0  0  0  0  0  0  0  0  0  0
    5.4630    2.4210  -13.8310 H   0  0  0  0  0  0  0  0  0  0  0  0
    5.8670    4.0890  -14.2730 H   0  0  0  0  0  0  0  0  0  0  0  0
    5.9250    3.5180  -12.5150 H   0  0  0  0  0  0  0  0  0  0  0  0
   -1.4360    8.3960  -14.6440 H   0  0  0  0  0  0  0  0  0  0  0  0
   -2.0990    8.3290  -13.0040 H   0  0  0  0  0  0  0  0  0  0  0  0
   -3.8720   10.6780  -15.4000 H   0  0  0  0  0  0  0  0  0  0  0  0
   -4.3420    9.3810  -14.2360 H   0  0  0  0  0  0  0  0  0  0  0  0
  2  1  1  0  0  0  0
  3  2  1  0  0  0  0
  3 29  1  0  0  0  0
  4  3  2  0  0  0  0
  5  6  2  0  0  0  0
  5  4  1  0  0  0  0
  6  7  1  0  0  0  0
  7 31  1  0  0  0  0
  7  2  2  0  0  0  0
  8  9  1  0  0  0  0
  8  5  1  0  0  0  0
 10  9  2  0  0  0  0
 11  9  1  6  0  0  0
 11  4  1  0  0  0  0
 11 15  1  0  0  0  0
 12 11  1  0  0  0  0
 12 13  1  0  0  0  0
 13 34  1  1  0  0  0
 13 14  1  0  0  0  0
 14 15  1  0  0  0  0
 14 35  1  1  0  0  0
 15 16  1  0  0  0  0
 15 36  1  1  0  0  0
 16 17  2  0  0  0  0
 18 21  1  0  0  0  0
 18 16  1  0  0  0  0
 19 18  1  0  0  0  0
 19 14  1  0  0  0  0
 20 19  2  0  0  0  0
 21 38  1  0  0  0  0
 22 21  1  0  0  0  0
 22 39  1  0  0  0  0
 23 22  1  0  0  0  0
 24 23  1  0  0  0  0
 24 43  1  0  0  0  0
 25 13  1  0  0  0  0
 25 45  1  0  0  0  0
 26 25  1  0  0  0  0
 26 27  2  0  0  0  0
 28 47  1  0  0  0  0
 28 26  1  0  0  0  0
 30  6  1  0  0  0  0
 32  8  1  0  0  0  0
 33 12  1  0  0  0  0
 37 21  1  0  0  0  0
 40 22  1  0  0  0  0
 41 24  1  0  0  0  0
 42 24  1  0  0  0  0
 44 25  1  0  0  0  0
 46 28  1  0  0  0  0
M  END
>  <Pose>
1

>  <Score>
-5.50

$$$$
