
 OpenBabel03232203513D

 37 40  0  0  0  0  0  0  0  0999 V2000
    2.0750   15.2030  -12.3850 B   0  0  0  0  0  0  0  0  0  0  0  0
    1.0550   13.6210  -12.7640 C   0  0  0  0  0  0  0  0  0  0  0  0
    1.6890   12.4170  -12.9820 C   0  0  0  0  0  0  0  0  0  0  0  0
    0.9520   11.2840  -13.2540 C   0  0  0  0  0  0  0  0  0  0  0  0
   -0.4290   11.2870  -13.3220 C   0  0  0  0  0  0  0  0  0  0  0  0
   -1.0530   12.5120  -13.1000 C   0  0  0  0  0  0  0  0  0  0  0  0
   -0.3230   13.6500  -12.8260 C   0  0  0  0  0  0  0  0  0  0  0  0
   -1.3240   10.2320  -13.5860 N   0  0  0  0  0  0  0  0  0  0  0  0
   -2.6010   10.4140  -13.8790 N   0  0  0  0  0  0  0  0  0  0  0  0
   -3.1460    9.2220  -14.0650 N   0  0  0  0  0  0  0  0  0  0  0  0
   -2.2220    8.3070  -13.8900 N   0  0  0  0  0  0  0  0  0  0  0  0
   -1.0470    8.9120  -13.5840 C   0  0  0  0  0  0  0  0  0  0  0  0
    0.1570    8.1180  -13.3350 C   0  0  0  0  0  0  0  0  0  0  0  0
    1.4030    8.7380  -13.6280 N   0  0  0  0  0  0  0  0  0  0  0  0
    1.7820   10.0950  -13.4600 C   0  0  0  0  0  0  0  0  0  0  0  0
    3.0080   10.3850  -13.4820 O   0  0  0  0  0  0  0  0  0  0  0  0
    0.2360    7.6570  -11.8710 C   0  0  0  0  0  0  0  0  0  0  0  0
    0.8960    6.3030  -11.8250 C   0  0  0  0  0  0  0  0  0  0  0  0
   -0.0890    5.3260  -12.2300 N   0  0  0  0  0  0  0  0  0  0  0  0
   -0.7280    5.7750  -13.4380 C   0  0  0  0  0  0  0  0  0  0  0  0
    0.0560    6.8410  -14.1630 C   0  0  0  0  0  0  0  0  0  0  0  0
   -1.0450    5.1830  -11.1330 C   0  0  0  0  0  0  0  0  0  0  0  0
    2.7700   12.3250  -12.9480 H   0  0  0  0  0  0  0  0  0  0  0  0
   -2.1330   12.5220  -13.1510 H   0  0  0  0  0  0  0  0  0  0  0  0
   -0.8330   14.5840  -12.6580 H   0  0  0  0  0  0  0  0  0  0  0  0
    2.1340    8.1080  -14.0170 H   0  0  0  0  0  0  0  0  0  0  0  0
    0.9030    8.3500  -11.2890 H   0  0  0  0  0  0  0  0  0  0  0  0
   -0.7470    7.6980  -11.4100 H   0  0  0  0  0  0  0  0  0  0  0  0
    1.7270    6.2970  -12.5490 H   0  0  0  0  0  0  0  0  0  0  0  0
    1.3060    6.0960  -10.8350 H   0  0  0  0  0  0  0  0  0  0  0  0
   -1.7520    6.0780  -13.2030 H   0  0  0  0  0  0  0  0  0  0  0  0
   -0.7910    4.9050  -14.1210 H   0  0  0  0  0  0  0  0  0  0  0  0
    1.0240    6.4520  -14.4730 H   0  0  0  0  0  0  0  0  0  0  0  0
   -0.5170    7.0960  -15.0800 H   0  0  0  0  0  0  0  0  0  0  0  0
   -2.0320    5.5150  -11.5260 H   0  0  0  0  0  0  0  0  0  0  0  0
   -1.0880    4.1400  -10.7530 H   0  0  0  0  0  0  0  0  0  0  0  0
   -0.7600    5.8200  -10.2610 H   0  0  0  0  0  0  0  0  0  0  0  0
  2  1  1  0  0  0  0
  3 23  1  0  0  0  0
  3  2  2  0  0  0  0
  4  3  1  0  0  0  0
  5  4  2  0  0  0  0
  5  6  1  0  0  0  0
  6  7  2  0  0  0  0
  7  2  1  0  0  0  0
  7 25  1  0  0  0  0
  8 12  1  0  0  0  0
  8  5  1  0  0  0  0
  9  8  1  0  0  0  0
 10 11  1  0  0  0  0
 10  9  2  0  0  0  0
 11 12  2  0  0  0  0
 12 13  1  0  0  0  0
 13 17  1  0  0  0  0
 14 15  1  0  0  0  0
 14 13  1  0  0  0  0
 15  4  1  0  0  0  0
 16 15  2  0  0  0  0
 17 18  1  0  0  0  0
 17 28  1  0  0  0  0
 17 27  1  0  0  0  0
 18 30  1  0  0  0  0
 19 18  1  0  0  0  0
 19 22  1  0  0  0  0
 20 31  1  0  0  0  0
 20 19  1  0  0  0  0
 21 20  1  0  0  0  0
 21 13  1  0  0  0  0
 22 36  1  0  0  0  0
 22 37  1  0  0  0  0
 24  6  1  0  0  0  0
 26 14  1  0  0  0  0
 29 18  1  0  0  0  0
 32 20  1  0  0  0  0
 33 21  1  0  0  0  0
 34 21  1  0  0  0  0
 35 22  1  0  0  0  0
M  END
>  <Pose>
1

>  <Score>
-4.92

$$$$
