
 OpenBabel03232203513D

 44 47  0  0  0  0  0  0  0  0999 V2000
   -3.1820   18.3070  -13.5120 B   0  0  0  0  0  0  0  0  0  0  0  0
   -1.7700   17.2690  -12.7910 C   0  0  0  0  0  0  0  0  0  0  0  0
   -1.4590   16.0210  -13.2980 C   0  0  0  0  0  0  0  0  0  0  0  0
   -0.4310   15.2340  -12.8120 C   0  0  0  0  0  0  0  0  0  0  0  0
    0.3160   15.7340  -11.7650 C   0  0  0  0  0  0  0  0  0  0  0  0
    0.0510   16.9790  -11.2150 C   0  0  0  0  0  0  0  0  0  0  0  0
   -0.9810   17.7290  -11.7270 C   0  0  0  0  0  0  0  0  0  0  0  0
    1.3140   14.9950  -11.2760 O   0  0  0  0  0  0  0  0  0  0  0  0
    1.6190   13.8320  -11.7320 C   0  0  0  0  0  0  0  0  0  0  0  0
    2.5680   13.1230  -11.2740 O   0  0  0  0  0  0  0  0  0  0  0  0
    0.9100   13.2760  -12.7760 C   0  0  0  0  0  0  0  0  0  0  0  0
   -0.1320   13.9940  -13.3180 C   0  0  0  0  0  0  0  0  0  0  0  0
    1.2320   11.9390  -13.2730 C   0  0  0  0  0  0  0  0  0  0  0  0
    2.5350   11.5880  -13.5860 C   0  0  0  0  0  0  0  0  0  0  0  0
    2.8310   10.3060  -13.9990 C   0  0  0  0  0  0  0  0  0  0  0  0
    4.0500   10.0600  -14.2660 O   0  0  0  0  0  0  0  0  0  0  0  0
    1.8990    9.4100  -14.1040 O   0  0  0  0  0  0  0  0  0  0  0  0
    0.6780    9.6680  -13.8320 C   0  0  0  0  0  0  0  0  0  0  0  0
    0.2870   10.9510  -13.4020 C   0  0  0  0  0  0  0  0  0  0  0  0
   -1.0260   11.2010  -13.1300 C   0  0  0  0  0  0  0  0  0  0  0  0
   -1.9380   10.1510  -13.2880 C   0  0  0  0  0  0  0  0  0  0  0  0
   -1.5220    8.9040  -13.7080 C   0  0  0  0  0  0  0  0  0  0  0  0
   -0.2060    8.6180  -13.9930 C   0  0  0  0  0  0  0  0  0  0  0  0
    0.1640    7.2690  -14.3270 C   0  0  0  0  0  0  0  0  0  0  0  0
    0.2460    6.2180  -13.3970 N   0  0  0  0  0  4  0  0  0  0  0  0
    0.6790    6.5410  -12.0650 C   0  0  0  0  0  0  0  0  0  0  0  0
   -0.9650    5.3580  -13.4100 C   0  0  0  0  0  0  0  0  0  0  0  0
   -2.5220    7.9140  -13.8300 O   0  0  0  0  0  0  0  0  0  0  0  0
   -2.0320   15.6060  -14.1410 H   0  0  0  0  0  0  0  0  0  0  0  0
    0.6700   17.3030  -10.3930 H   0  0  0  0  0  0  0  0  0  0  0  0
   -1.2460   18.7090  -11.3470 H   0  0  0  0  0  0  0  0  0  0  0  0
   -0.7590   13.5980  -14.1450 H   0  0  0  0  0  0  0  0  0  0  0  0
    3.3020   12.3560  -13.5060 H   0  0  0  0  0  0  0  0  0  0  0  0
   -1.3610   12.1850  -12.8280 H   0  0  0  0  0  0  0  0  0  0  0  0
   -2.9690   10.3790  -13.0560 H   0  0  0  0  0  0  0  0  0  0  0  0
    1.2220    7.3430  -14.7890 H   0  0  0  0  0  0  0  0  0  0  0  0
   -0.4170    6.9100  -15.2240 H   0  0  0  0  0  0  0  0  0  0  0  0
    1.0010    5.5590  -13.7430 H   0  0  0  0  0  0  0  0  0  0  0  0
   -0.1600    6.6520  -11.3290 H   0  0  0  0  0  0  0  0  0  0  0  0
    1.3820    7.4030  -12.0030 H   0  0  0  0  0  0  0  0  0  0  0  0
    1.2820    5.6950  -11.5870 H   0  0  0  0  0  0  0  0  0  0  0  0
   -1.7300    5.7660  -14.1210 H   0  0  0  0  0  0  0  0  0  0  0  0
   -0.7600    4.3470  -13.8510 H   0  0  0  0  0  0  0  0  0  0  0  0
   -1.3230    5.1770  -12.3930 H   0  0  0  0  0  0  0  0  0  0  0  0
  1  2  1  0  0  0  0
  2  7  1  0  0  0  0
  3  4  1  0  0  0  0
  3  2  2  0  0  0  0
  4  5  2  0  0  0  0
  5  8  1  0  0  0  0
  5  6  1  0  0  0  0
  6 30  1  0  0  0  0
  7 31  1  0  0  0  0
  7  6  2  0  0  0  0
  9  8  1  0  0  0  0
  9 10  2  0  0  0  0
 11  9  1  0  0  0  0
 12  4  1  0  0  0  0
 12 11  2  0  0  0  0
 13 11  1  0  0  0  0
 14 33  1  0  0  0  0
 14 13  2  0  0  0  0
 15 14  1  0  0  0  0
 16 15  2  0  0  0  0
 17 15  1  0  0  0  0
 17 18  1  0  0  0  0
 18 19  1  0  0  0  0
 19 13  1  0  0  0  0
 19 20  2  0  0  0  0
 20 34  1  0  0  0  0
 21 20  1  0  0  0  0
 21 35  1  0  0  0  0
 22 21  2  0  0  0  0
 23 18  2  0  0  0  0
 23 22  1  0  0  0  0
 24 23  1  0  0  0  0
 24 25  1  0  0  0  0
 25 26  1  0  0  0  0
 26 40  1  0  0  0  0
 26 41  1  0  0  0  0
 26 39  1  0  0  0  0
 27 25  1  0  0  0  0
 27 44  1  0  0  0  0
 28 22  1  0  0  0  0
 29  3  1  0  0  0  0
 32 12  1  0  0  0  0
 36 24  1  0  0  0  0
 37 24  1  0  0  0  0
 38 25  1  0  0  0  0
 42 27  1  0  0  0  0
 43 27  1  0  0  0  0
M  END
>  <Pose>
1

>  <Score>
-5.45

$$$$
