
 OpenBabel03232203513D

 54 57  0  0  0  0  0  0  0  0999 V2000
   -1.8740    5.3490  -14.0670 B   0  0  0  0  0  0  0  0  0  0  0  0
   -1.9130    7.2490  -13.8590 C   0  0  0  0  0  0  0  0  0  0  0  0
   -0.7650    8.0190  -13.9270 C   0  0  0  0  0  0  0  0  0  0  0  0
   -0.7600    9.3890  -13.7810 C   0  0  0  0  0  0  0  0  0  0  0  0
   -1.9490   10.0580  -13.5530 C   0  0  0  0  0  0  0  0  0  0  0  0
   -1.9660   11.4050  -13.3980 N   0  0  0  0  0  0  0  0  0  0  0  0
   -0.8500   12.1500  -13.4580 C   0  0  0  0  0  0  0  0  0  0  0  0
    0.3080   11.5020  -13.6810 N   0  0  0  0  0  0  0  0  0  0  0  0
    0.3780   10.1600  -13.8420 C   0  0  0  0  0  0  0  0  0  0  0  0
    1.6580    9.5090  -14.0780 C   0  0  0  0  0  0  0  0  0  0  0  0
    2.1360    8.5090  -13.2450 C   0  0  0  0  0  0  0  0  0  0  0  0
    3.3600    7.8970  -13.4480 C   0  0  0  0  0  0  0  0  0  0  0  0
    4.1200    8.3220  -14.5430 C   0  0  0  0  0  0  0  0  0  0  0  0
    3.6740    9.3130  -15.3920 C   0  0  0  0  0  0  0  0  0  0  0  0
    2.4660    9.8880  -15.1530 C   0  0  0  0  0  0  0  0  0  0  0  0
    1.1610    7.9950  -11.8770 Cl  0  0  0  0  0  0  0  0  0  0  0  0
   -0.9050   13.5630  -13.2910 N   0  0  0  0  0  4  0  0  0  0  0  0
   -2.2480   13.9950  -12.9760 C   0  0  0  0  0  0  0  0  0  0  0  0
   -2.1780   15.3650  -12.3770 C   0  0  0  0  0  0  0  0  0  0  0  0
   -0.8700   15.9240  -12.6520 N   0  0  0  0  0  0  0  0  0  0  0  0
   -0.3480   15.7630  -13.9970 C   0  0  0  0  0  0  0  0  0  0  0  0
   -0.4670   14.3020  -14.4470 C   0  0  0  0  0  0  0  0  0  0  0  0
   -0.1810   16.5840  -11.6210 C   0  0  0  0  0  0  0  0  0  0  0  0
   -0.7560   17.5450  -11.0530 O   0  0  0  0  0  0  0  0  0  0  0  0
    1.1650   16.1930  -11.1980 C   0  0  0  0  0  0  0  0  0  0  0  0
    1.4870   14.8230  -11.7220 C   0  0  0  0  0  0  0  0  0  0  0  0
    2.8740   14.3610  -11.3310 C   0  0  0  0  0  0  0  0  0  0  0  0
    3.2690   13.0970  -11.9830 C   0  0  0  0  0  0  0  0  0  0  0  0
    4.1840   13.1500  -12.8380 O   0  0  0  0  0  0  0  0  0  0  0  0
    2.6350   11.9110  -11.6420 O   0  0  0  0  0  0  0  0  0  0  0  0
   -3.0970    9.3000  -13.4840 C   0  0  0  0  0  0  0  0  0  0  0  0
   -3.0960    7.9180  -13.6320 C   0  0  0  0  0  0  0  0  0  0  0  0
    0.1550    7.4790  -14.0950 H   0  0  0  0  0  0  0  0  0  0  0  0
    3.7300    7.1130  -12.7930 H   0  0  0  0  0  0  0  0  0  0  0  0
    5.0880    7.8340  -14.6990 H   0  0  0  0  0  0  0  0  0  0  0  0
    4.2780    9.6360  -16.2470 H   0  0  0  0  0  0  0  0  0  0  0  0
    2.1140   10.6680  -15.8110 H   0  0  0  0  0  0  0  0  0  0  0  0
   -0.2700   13.8030  -12.5010 H   0  0  0  0  0  0  0  0  0  0  0  0
   -2.6710   13.2500  -12.2710 H   0  0  0  0  0  0  0  0  0  0  0  0
   -2.8380   13.9520  -13.9160 H   0  0  0  0  0  0  0  0  0  0  0  0
   -2.3610   15.2660  -11.2870 H   0  0  0  0  0  0  0  0  0  0  0  0
   -2.9780   16.0150  -12.7910 H   0  0  0  0  0  0  0  0  0  0  0  0
   -1.0130   16.3490  -14.6650 H   0  0  0  0  0  0  0  0  0  0  0  0
    0.6640   16.1540  -14.1220 H   0  0  0  0  0  0  0  0  0  0  0  0
   -1.1320   14.1940  -15.3110 H   0  0  0  0  0  0  0  0  0  0  0  0
    0.5400   13.9920  -14.7560 H   0  0  0  0  0  0  0  0  0  0  0  0
    1.9610   16.8780  -11.6090 H   0  0  0  0  0  0  0  0  0  0  0  0
    1.2950   16.2520  -10.0980 H   0  0  0  0  0  0  0  0  0  0  0  0
    0.7840   14.0540  -11.3110 H   0  0  0  0  0  0  0  0  0  0  0  0
    1.3920   14.7690  -12.8160 H   0  0  0  0  0  0  0  0  0  0  0  0
    2.8690   14.1980  -10.2360 H   0  0  0  0  0  0  0  0  0  0  0  0
    3.6040   15.1850  -11.5390 H   0  0  0  0  0  0  0  0  0  0  0  0
   -4.0300    9.8210  -13.3060 H   0  0  0  0  0  0  0  0  0  0  0  0
   -3.9890    7.3160  -13.5810 H   0  0  0  0  0  0  0  0  0  0  0  0
  1  2  1  0  0  0  0
  2 32  1  0  0  0  0
  3  2  2  0  0  0  0
  3  4  1  0  0  0  0
  4  5  2  0  0  0  0
  5 31  1  0  0  0  0
  5  6  1  0  0  0  0
  7  6  2  0  0  0  0
  7 17  1  0  0  0  0
  8  7  1  0  0  0  0
  9  4  1  0  0  0  0
  9  8  2  0  0  0  0
 10  9  1  0  0  0  0
 10 11  1  0  0  0  0
 11 16  1  0  0  0  0
 12 11  2  0  0  0  0
 12 34  1  0  0  0  0
 13 12  1  0  0  0  0
 14 15  1  0  0  0  0
 14 13  2  0  0  0  0
 15 10  2  0  0  0  0
 17 18  1  0  0  0  0
 17 38  1  0  0  0  0
 18 19  1  0  0  0  0
 18 39  1  0  0  0  0
 19 41  1  0  0  0  0
 20 19  1  0  0  0  0
 20 23  1  0  0  0  0
 21 20  1  0  0  0  0
 22 21  1  0  0  0  0
 22 17  1  0  0  0  0
 23 25  1  0  0  0  0
 23 24  2  0  0  0  0
 25 48  1  0  0  0  0
 26 27  1  0  0  0  0
 26 49  1  0  0  0  0
 26 25  1  0  0  0  0
 27 51  1  0  0  0  0
 28 30  1  0  0  0  0
 28 27  1  0  0  0  0
 29 28  2  0  0  0  0
 31 53  1  0  0  0  0
 32 54  1  0  0  0  0
 32 31  2  0  0  0  0
 33  3  1  0  0  0  0
 35 13  1  0  0  0  0
 36 14  1  0  0  0  0
 37 15  1  0  0  0  0
 40 18  1  0  0  0  0
 42 19  1  0  0  0  0
 43 21  1  0  0  0  0
 44 21  1  0  0  0  0
 45 22  1  0  0  0  0
 46 22  1  0  0  0  0
 47 25  1  0  0  0  0
 50 26  1  0  0  0  0
 52 27  1  0  0  0  0
M  END
>  <Pose>
1

>  <Score>
-4.57

$$$$
