
 OpenBabel03232203513D

 50 53  0  0  0  0  0  0  0  0999 V2000
   -4.4700   20.5340  -10.3580 B   0  0  0  0  0  0  0  0  0  0  0  0
   -3.5830   19.2700  -11.4960 C   0  0  0  0  0  0  0  0  0  0  0  0
   -2.4510   18.6070  -11.0990 C   0  0  0  0  0  0  0  0  0  0  0  0
   -1.8100   17.6880  -11.9340 C   0  0  0  0  0  0  0  0  0  0  0  0
   -2.3160   17.4350  -13.1790 C   0  0  0  0  0  0  0  0  0  0  0  0
   -1.5140   16.5080  -13.7900 N   0  0  0  0  0  0  0  0  0  0  0  0
   -0.5040   16.1450  -12.9950 C   0  0  0  0  0  0  0  0  0  0  0  0
   -0.7000   16.9020  -11.8130 C   0  0  0  0  0  0  0  0  0  0  0  0
    0.5970   15.2210  -13.1840 C   0  0  0  0  0  0  0  0  0  0  0  0
    1.7780   15.7050  -13.3710 O   0  0  0  0  0  0  0  0  0  0  0  0
    0.5060   13.8290  -13.1840 N   0  0  0  0  0  0  0  0  0  0  0  0
   -0.1620   13.0160  -14.1640 C   0  0  0  0  0  0  0  0  0  0  0  0
   -0.0060   11.5170  -13.8760 C   0  0  0  0  0  0  0  0  0  0  0  0
    1.3960   11.2410  -13.6060 N   0  0  0  0  0  0  0  0  0  0  0  0
    2.1630   12.1440  -12.7450 C   0  0  0  0  0  0  0  0  0  0  0  0
    1.1360   13.0610  -12.0760 C   0  0  0  0  0  0  0  0  0  0  0  0
    2.0400   10.1150  -14.1630 C   0  0  0  0  0  0  0  0  0  0  0  0
    2.2890   10.1470  -15.3920 O   0  0  0  0  0  0  0  0  0  0  0  0
    2.3840    8.9910  -13.3060 C   0  0  0  0  0  0  0  0  0  0  0  0
    1.8290    7.7190  -13.7120 N   0  0  0  0  0  0  0  0  0  0  0  0
    0.3920    7.8810  -13.9470 C   0  0  0  0  0  0  0  0  0  0  0  0
   -0.3970    7.4660  -12.7540 C   0  0  0  0  0  0  0  0  0  0  0  0
    0.2770    7.7930  -11.5790 O   0  0  0  0  0  0  0  0  0  0  0  0
    1.4120    6.9960  -11.4080 C   0  0  0  0  0  0  0  0  0  0  0  0
    2.0530    6.6670  -12.7370 C   0  0  0  0  0  0  0  0  0  0  0  0
   -3.4580   18.0980  -13.5880 C   0  0  0  0  0  0  0  0  0  0  0  0
   -4.0870   19.0090  -12.7510 C   0  0  0  0  0  0  0  0  0  0  0  0
   -2.0290   18.7870  -10.1190 H   0  0  0  0  0  0  0  0  0  0  0  0
   -1.7240   16.1730  -14.7420 H   0  0  0  0  0  0  0  0  0  0  0  0
   -0.0650   16.8580  -10.9520 H   0  0  0  0  0  0  0  0  0  0  0  0
    0.3260   13.2370  -15.1520 H   0  0  0  0  0  0  0  0  0  0  0  0
   -1.2470   13.1990  -14.1490 H   0  0  0  0  0  0  0  0  0  0  0  0
   -0.6050   11.2200  -12.9960 H   0  0  0  0  0  0  0  0  0  0  0  0
   -0.3460   10.9750  -14.7550 H   0  0  0  0  0  0  0  0  0  0  0  0
    2.6980   11.5810  -11.9490 H   0  0  0  0  0  0  0  0  0  0  0  0
    2.8620   12.7790  -13.3000 H   0  0  0  0  0  0  0  0  0  0  0  0
    0.3720   12.4840  -11.5370 H   0  0  0  0  0  0  0  0  0  0  0  0
    1.6320   13.7430  -11.3860 H   0  0  0  0  0  0  0  0  0  0  0  0
    1.9500    9.2010  -12.2890 H   0  0  0  0  0  0  0  0  0  0  0  0
    3.4750    8.8650  -13.1440 H   0  0  0  0  0  0  0  0  0  0  0  0
    0.1830    8.9580  -14.1520 H   0  0  0  0  0  0  0  0  0  0  0  0
    0.1290    7.3000  -14.8530 H   0  0  0  0  0  0  0  0  0  0  0  0
   -1.3460    8.0500  -12.7550 H   0  0  0  0  0  0  0  0  0  0  0  0
   -0.6330    6.3740  -12.7400 H   0  0  0  0  0  0  0  0  0  0  0  0
    2.0750    7.4830  -10.6900 H   0  0  0  0  0  0  0  0  0  0  0  0
    1.0720    6.0420  -10.9580 H   0  0  0  0  0  0  0  0  0  0  0  0
    3.1010    6.4520  -12.5980 H   0  0  0  0  0  0  0  0  0  0  0  0
    1.5440    5.7640  -13.1350 H   0  0  0  0  0  0  0  0  0  0  0  0
   -3.8610   17.8940  -14.5830 H   0  0  0  0  0  0  0  0  0  0  0  0
   -4.9930   19.5370  -13.0710 H   0  0  0  0  0  0  0  0  0  0  0  0
  2  3  1  0  0  0  0
  2  1  1  0  0  0  0
  3 28  1  0  0  0  0
  4  8  1  0  0  0  0
  4  3  2  0  0  0  0
  5  4  1  0  0  0  0
  6  5  1  0  0  0  0
  6  7  1  0  0  0  0
  7  8  2  0  0  0  0
  8 30  1  0  0  0  0
  9 11  1  0  0  0  0
  9  7  1  0  0  0  0
 10  9  2  0  0  0  0
 11 16  1  0  0  0  0
 12 32  1  0  0  0  0
 12 13  1  0  0  0  0
 12 11  1  0  0  0  0
 13 14  1  0  0  0  0
 13 33  1  0  0  0  0
 14 15  1  0  0  0  0
 15 16  1  0  0  0  0
 15 35  1  0  0  0  0
 16 37  1  0  0  0  0
 16 38  1  0  0  0  0
 17 14  1  0  0  0  0
 17 19  1  0  0  0  0
 18 17  2  0  0  0  0
 19 40  1  0  0  0  0
 19 39  1  0  0  0  0
 20 19  1  0  0  0  0
 20 25  1  0  0  0  0
 21 20  1  0  0  0  0
 21 22  1  0  0  0  0
 22 44  1  0  0  0  0
 22 23  1  0  0  0  0
 23 24  1  0  0  0  0
 24 46  1  0  0  0  0
 24 45  1  0  0  0  0
 25 47  1  0  0  0  0
 25 24  1  0  0  0  0
 26  5  2  0  0  0  0
 26 27  1  0  0  0  0
 27  2  2  0  0  0  0
 29  6  1  0  0  0  0
 31 12  1  0  0  0  0
 34 13  1  0  0  0  0
 36 15  1  0  0  0  0
 41 21  1  0  0  0  0
 42 21  1  0  0  0  0
 43 22  1  0  0  0  0
 48 25  1  0  0  0  0
 49 26  1  0  0  0  0
 50 27  1  0  0  0  0
M  END
>  <Pose>
1

>  <Score>
-6.92

$$$$
