
 OpenBabel03232203513D

 58 61  0  0  0  0  0  0  0  0999 V2000
   -3.7880   18.0230  -13.5430 B   0  0  0  0  0  0  0  0  0  0  0  0
   -3.5530   18.9530  -11.8750 C   0  0  0  0  0  0  0  0  0  0  0  0
   -4.3190   19.9760  -11.3860 C   0  0  0  0  0  0  0  0  0  0  0  0
   -3.8030   20.3230  -10.2020 N   0  0  0  0  0  0  0  0  0  0  0  0
   -2.7680   19.5660   -9.9500 N   0  0  0  0  0  0  0  0  0  0  0  0
   -2.5380   18.6710  -10.9560 C   0  0  0  0  0  0  0  0  0  0  0  0
   -1.5060   17.6710  -11.0630 C   0  0  0  0  0  0  0  0  0  0  0  0
   -1.3150   16.9570  -10.0130 O   0  0  0  0  0  0  0  0  0  0  0  0
   -0.7240   17.4130  -12.1570 N   0  0  0  0  0  0  0  0  0  0  0  0
    0.5110   18.0610  -12.4750 C   0  0  0  0  0  0  0  0  0  0  0  0
    1.6310   17.0990  -12.2500 C   0  0  0  0  0  0  0  0  0  0  0  0
    1.1900   15.7210  -12.4090 N   0  0  0  0  0  0  0  0  0  0  0  0
    0.0330   15.3470  -13.1520 C   0  0  0  0  0  0  0  0  0  0  0  0
   -1.0900   16.3790  -13.1460 C   0  0  0  0  0  0  0  0  0  0  0  0
    1.9990   14.7740  -11.6930 C   0  0  0  0  0  0  0  0  0  0  0  0
    2.5040   15.1750  -10.5620 O   0  0  0  0  0  0  0  0  0  0  0  0
    2.2800   13.4500  -12.1260 C   0  0  0  0  0  0  0  0  0  0  0  0
    3.4980   12.8210  -11.9030 N   0  0  0  0  0  0  0  0  0  0  0  0
    3.4960   11.6530  -12.4560 N   0  0  0  0  0  0  0  0  0  0  0  0
    2.3410   11.4080  -13.0660 C   0  0  0  0  0  0  0  0  0  0  0  0
    1.5640   12.5650  -12.8530 C   0  0  0  0  0  0  0  0  0  0  0  0
    1.9060   10.2250  -13.7860 C   0  0  0  0  0  0  0  0  0  0  0  0
    2.1780   10.1890  -15.0390 O   0  0  0  0  0  0  0  0  0  0  0  0
    1.2280    9.1490  -13.2340 N   0  0  0  0  0  0  0  0  0  0  0  0
    1.8750    8.4140  -12.1420 C   0  0  0  0  0  0  0  0  0  0  0  0
    1.8660    6.9590  -12.5620 C   0  0  0  0  0  0  0  0  0  0  0  0
    0.5100    6.5840  -12.5720 O   0  0  0  0  0  0  0  0  0  0  0  0
   -0.1260    7.1610  -13.6360 C   0  0  0  0  0  0  0  0  0  0  0  0
   -0.0530    8.6830  -13.6640 C   0  0  0  0  0  0  0  0  0  0  0  0
    4.6060   13.3780  -11.1620 C   0  0  0  0  0  0  0  0  0  0  0  0
   -4.3740   21.3960   -9.3990 C   0  0  0  0  0  0  0  0  0  0  0  0
   -5.8480   21.5870   -9.6380 C   0  0  0  0  0  0  0  0  0  0  0  0
   -5.1820   20.4120  -11.8880 H   0  0  0  0  0  0  0  0  0  0  0  0
    0.5140   18.2800  -13.5880 H   0  0  0  0  0  0  0  0  0  0  0  0
    0.7340   18.9800  -11.9090 H   0  0  0  0  0  0  0  0  0  0  0  0
    2.0390   17.1780  -11.2030 H   0  0  0  0  0  0  0  0  0  0  0  0
    2.4310   17.3440  -12.9890 H   0  0  0  0  0  0  0  0  0  0  0  0
   -0.4360   14.5000  -12.5470 H   0  0  0  0  0  0  0  0  0  0  0  0
    0.1880   14.9810  -14.1630 H   0  0  0  0  0  0  0  0  0  0  0  0
   -2.0720   15.9780  -12.9310 H   0  0  0  0  0  0  0  0  0  0  0  0
   -1.0790   16.8760  -14.1260 H   0  0  0  0  0  0  0  0  0  0  0  0
    0.5810   12.6660  -13.2610 H   0  0  0  0  0  0  0  0  0  0  0  0
    1.2320    8.5790  -11.2510 H   0  0  0  0  0  0  0  0  0  0  0  0
    2.8970    8.7490  -11.9540 H   0  0  0  0  0  0  0  0  0  0  0  0
    2.2600    6.8790  -13.5850 H   0  0  0  0  0  0  0  0  0  0  0  0
    2.4190    6.3400  -11.8210 H   0  0  0  0  0  0  0  0  0  0  0  0
    0.3290    6.7890  -14.5790 H   0  0  0  0  0  0  0  0  0  0  0  0
   -1.1800    6.8350  -13.6560 H   0  0  0  0  0  0  0  0  0  0  0  0
   -0.2160    8.9720  -14.7190 H   0  0  0  0  0  0  0  0  0  0  0  0
   -0.8420    9.0840  -13.0150 H   0  0  0  0  0  0  0  0  0  0  0  0
    5.1540   14.1300  -11.7310 H   0  0  0  0  0  0  0  0  0  0  0  0
    4.2570   13.7790  -10.1820 H   0  0  0  0  0  0  0  0  0  0  0  0
    5.3160   12.5670  -10.9110 H   0  0  0  0  0  0  0  0  0  0  0  0
   -4.2040   21.2170   -8.3130 H   0  0  0  0  0  0  0  0  0  0  0  0
   -3.8640   22.3610   -9.6310 H   0  0  0  0  0  0  0  0  0  0  0  0
   -6.3500   20.6050   -9.7830 H   0  0  0  0  0  0  0  0  0  0  0  0
   -6.2850   22.0380   -8.7220 H   0  0  0  0  0  0  0  0  0  0  0  0
   -6.0040   22.2910  -10.4760 H   0  0  0  0  0  0  0  0  0  0  0  0
  1  2  1  0  0  0  0
  2  3  2  0  0  0  0
  2  6  1  0  0  0  0
  3  4  1  0  0  0  0
  4  5  1  0  0  0  0
  4 31  1  0  0  0  0
  6  5  2  0  0  0  0
  7  6  1  0  0  0  0
  7  8  2  0  0  0  0
  9  7  1  0  0  0  0
 10 11  1  0  0  0  0
 10  9  1  0  0  0  0
 10 35  1  0  0  0  0
 11 36  1  0  0  0  0
 12 11  1  0  0  0  0
 12 15  1  0  0  0  0
 13 14  1  0  0  0  0
 13 38  1  0  0  0  0
 13 12  1  0  0  0  0
 14 40  1  0  0  0  0
 14  9  1  0  0  0  0
 15 16  2  0  0  0  0
 17 18  1  0  0  0  0
 17 15  1  0  0  0  0
 18 30  1  0  0  0  0
 19 18  1  0  0  0  0
 20 21  1  0  0  0  0
 20 19  2  0  0  0  0
 21 17  2  0  0  0  0
 22 24  1  0  0  0  0
 22 20  1  0  0  0  0
 23 22  2  0  0  0  0
 24 25  1  0  0  0  0
 25 44  1  0  0  0  0
 25 43  1  0  0  0  0
 26 25  1  0  0  0  0
 26 46  1  0  0  0  0
 27 26  1  0  0  0  0
 28 27  1  0  0  0  0
 29 28  1  0  0  0  0
 29 24  1  0  0  0  0
 29 50  1  0  0  0  0
 30 53  1  0  0  0  0
 30 52  1  0  0  0  0
 31 54  1  0  0  0  0
 32 31  1  0  0  0  0
 32 57  1  0  0  0  0
 33  3  1  0  0  0  0
 34 10  1  0  0  0  0
 37 11  1  0  0  0  0
 39 13  1  0  0  0  0
 41 14  1  0  0  0  0
 42 21  1  0  0  0  0
 45 26  1  0  0  0  0
 47 28  1  0  0  0  0
 48 28  1  0  0  0  0
 49 29  1  0  0  0  0
 51 30  1  0  0  0  0
 55 31  1  0  0  0  0
 56 32  1  0  0  0  0
 58 32  1  0  0  0  0
M  END
>  <Pose>
1

>  <Score>
-6.68

$$$$
