
 OpenBabel03232203513D

 33 37  0  0  0  0  0  0  0  0999 V2000
    1.8470    8.6970  -14.9460 B   0  0  0  0  0  0  0  0  0  0  0  0
    2.7180    9.9220  -13.7980 C   0  0  0  0  0  0  0  0  0  0  0  0
    2.1160   10.7810  -12.9010 C   0  0  0  0  0  0  0  0  0  0  0  0
    3.0800   11.4810  -12.2790 N   0  0  0  0  0  0  0  0  0  0  0  0
    4.2500   11.0930  -12.7540 N   0  0  0  0  0  0  0  0  0  0  0  0
    4.0740   10.1330  -13.6910 C   0  0  0  0  0  0  0  0  0  0  0  0
    2.8820   12.4920  -11.2610 C   0  0  0  0  0  0  0  0  0  0  0  0
    2.3750   13.7400  -11.8370 N   0  0  0  0  0  0  0  0  0  0  0  0
    1.1870   14.2650  -11.5960 N   0  0  0  0  0  0  0  0  0  0  0  0
    1.0180   15.4130  -12.2740 C   0  0  0  0  0  0  0  0  0  0  0  0
    2.1900   15.5990  -12.9780 C   0  0  0  0  0  0  0  0  0  0  0  0
    3.0390   14.5340  -12.6940 C   0  0  0  0  0  0  0  0  0  0  0  0
   -0.1470   16.2970  -12.2810 C   0  0  0  0  0  0  0  0  0  0  0  0
   -1.1570   16.2730  -13.1650 N   0  0  0  0  0  0  0  0  0  0  0  0
   -2.0480   17.2200  -12.8700 N   0  0  0  0  0  0  0  0  0  0  0  0
   -1.5970   17.8730  -11.7610 C   0  0  0  0  0  0  0  0  0  0  0  0
   -0.4320   17.2890  -11.4220 N   0  0  0  0  0  0  0  0  0  0  0  0
   -2.3550   18.9080  -11.2560 C   0  0  0  0  0  0  0  0  0  0  0  0
   -3.5500   19.3050  -11.8290 C   0  0  0  0  0  0  0  0  0  0  0  0
   -4.0590   20.3290  -11.1230 N   0  0  0  0  0  0  0  0  0  0  0  0
   -3.2160   20.5770  -10.1340 N   0  0  0  0  0  0  0  0  0  0  0  0
   -2.1650   19.7320  -10.1800 C   0  0  0  0  0  0  0  0  0  0  0  0
   -3.9550   18.6330  -12.9190 N   0  0  0  0  0  0  0  0  0  0  0  0
   -3.2120   17.6260  -13.4080 C   0  0  0  0  0  0  0  0  0  0  0  0
    1.0600   10.8480  -12.7540 H   0  0  0  0  0  0  0  0  0  0  0  0
    4.8260    9.6210  -14.2560 H   0  0  0  0  0  0  0  0  0  0  0  0
    3.8230   12.7240  -10.7130 H   0  0  0  0  0  0  0  0  0  0  0  0
    2.1640   12.1280  -10.4710 H   0  0  0  0  0  0  0  0  0  0  0  0
    2.3860   16.4340  -13.6300 H   0  0  0  0  0  0  0  0  0  0  0  0
    4.0360   14.3570  -13.0710 H   0  0  0  0  0  0  0  0  0  0  0  0
   -4.9450   20.8500  -11.2980 H   0  0  0  0  0  0  0  0  0  0  0  0
   -1.3050   19.6820   -9.5070 H   0  0  0  0  0  0  0  0  0  0  0  0
   -3.5720   17.1090  -14.2860 H   0  0  0  0  0  0  0  0  0  0  0  0
  1  2  1  0  0  0  0
  2  6  1  0  0  0  0
  2  3  2  0  0  0  0
  3 25  1  0  0  0  0
  3  4  1  0  0  0  0
  4  7  1  0  0  0  0
  5  4  1  0  0  0  0
  6  5  2  0  0  0  0
  7 27  1  0  0  0  0
  7 28  1  0  0  0  0
  8  9  1  0  0  0  0
  8  7  1  0  0  0  0
 10  9  2  0  0  0  0
 11 12  2  0  0  0  0
 11 10  1  0  0  0  0
 12  8  1  0  0  0  0
 13 10  1  0  0  0  0
 13 17  1  0  0  0  0
 14 15  1  0  0  0  0
 14 13  2  0  0  0  0
 15 16  1  0  0  0  0
 16 17  2  0  0  0  0
 16 18  1  0  0  0  0
 18 22  1  0  0  0  0
 19 18  2  0  0  0  0
 19 20  1  0  0  0  0
 20 21  1  0  0  0  0
 22 21  2  0  0  0  0
 22 32  1  0  0  0  0
 23 19  1  0  0  0  0
 24 23  2  0  0  0  0
 24 15  1  0  0  0  0
 26  6  1  0  0  0  0
 29 11  1  0  0  0  0
 30 12  1  0  0  0  0
 31 20  1  0  0  0  0
 33 24  1  0  0  0  0
M  END
>  <Pose>
1

>  <Score>
-7.72

$$$$
