
 OpenBabel03232203513D

 42 45  0  0  0  0  0  0  0  0999 V2000
    4.5320    7.0190  -13.4970 B   0  0  0  0  0  0  0  0  0  0  0  0
    3.4720    8.5220  -14.0670 C   0  0  0  0  0  0  0  0  0  0  0  0
    3.0160    9.5650  -13.2910 C   0  0  0  0  0  0  0  0  0  0  0  0
    2.3100   10.4160  -14.0580 N   0  0  0  0  0  0  0  0  0  0  0  0
    2.3240    9.9220  -15.2780 N   0  0  0  0  0  0  0  0  0  0  0  0
    3.0100    8.7820  -15.3380 C   0  0  0  0  0  0  0  0  0  0  0  0
    1.6610   11.6210  -13.6790 C   0  0  0  0  0  0  0  0  0  0  0  0
    2.2410   12.4750  -12.7730 C   0  0  0  0  0  0  0  0  0  0  0  0
    1.6370   13.6430  -12.3890 C   0  0  0  0  0  0  0  0  0  0  0  0
    0.3850   14.0550  -12.8910 C   0  0  0  0  0  0  0  0  0  0  0  0
   -0.1850   13.1900  -13.7960 C   0  0  0  0  0  0  0  0  0  0  0  0
    0.4450   11.9960  -14.1820 C   0  0  0  0  0  0  0  0  0  0  0  0
   -0.2030   15.2810  -12.4030 C   0  0  0  0  0  0  0  0  0  0  0  0
    0.5880   15.9960  -11.6690 O   0  0  0  0  0  0  0  0  0  0  0  0
   -1.4710   15.8000  -12.6010 N   0  0  0  0  0  0  0  0  0  0  0  0
   -2.6930   15.6360  -11.8610 C   0  0  0  0  0  0  0  0  0  0  0  0
   -2.8600   16.8710  -10.9970 C   0  0  0  0  0  0  0  0  0  0  0  0
   -2.3960   18.1050  -11.7440 C   0  0  0  0  0  0  0  0  0  0  0  0
   -3.3110   19.1750  -11.4120 N   0  0  0  0  0  0  0  0  0  0  0  0
   -2.8700   19.7650  -10.1990 C   0  0  0  0  0  0  0  0  0  0  0  0
   -3.5410   20.4760   -9.3820 O   0  0  0  0  0  0  0  0  0  0  0  0
   -1.4870   19.4100  -10.0480 N   0  0  0  0  0  0  0  0  0  0  0  0
   -1.1240   18.6030  -11.1890 C   0  0  0  0  0  0  0  0  0  0  0  0
    0.0510   18.4110  -11.5700 O   0  0  0  0  0  0  0  0  0  0  0  0
   -2.3860   17.9340  -13.2290 C   0  0  0  0  0  0  0  0  0  0  0  0
   -1.6480   16.7460  -13.7470 C   0  0  0  0  0  0  0  0  0  0  0  0
    3.1980    9.6780  -12.2300 H   0  0  0  0  0  0  0  0  0  0  0  0
    3.2070    8.1290  -16.1990 H   0  0  0  0  0  0  0  0  0  0  0  0
    3.2140   12.1620  -12.3790 H   0  0  0  0  0  0  0  0  0  0  0  0
    2.1250   14.2850  -11.6790 H   0  0  0  0  0  0  0  0  0  0  0  0
   -1.1530   13.4170  -14.2060 H   0  0  0  0  0  0  0  0  0  0  0  0
   -0.0390   11.3430  -14.8980 H   0  0  0  0  0  0  0  0  0  0  0  0
   -3.5570   15.7670  -12.6300 H   0  0  0  0  0  0  0  0  0  0  0  0
   -2.8910   14.6910  -11.4010 H   0  0  0  0  0  0  0  0  0  0  0  0
   -3.8940   16.9790  -10.6720 H   0  0  0  0  0  0  0  0  0  0  0  0
   -2.2160   16.7510  -10.1110 H   0  0  0  0  0  0  0  0  0  0  0  0
   -4.1510   19.4890  -11.9350 H   0  0  0  0  0  0  0  0  0  0  0  0
   -0.8230   19.6580   -9.2820 H   0  0  0  0  0  0  0  0  0  0  0  0
   -1.8600   18.8450  -13.6410 H   0  0  0  0  0  0  0  0  0  0  0  0
   -3.4150   18.0010  -13.6540 H   0  0  0  0  0  0  0  0  0  0  0  0
   -2.2950   16.1900  -14.4560 H   0  0  0  0  0  0  0  0  0  0  0  0
   -0.6930   16.9520  -14.2320 H   0  0  0  0  0  0  0  0  0  0  0  0
  2  1  1  0  0  0  0
  2  3  2  0  0  0  0
  3 27  1  0  0  0  0
  4  7  1  0  0  0  0
  4  3  1  0  0  0  0
  5  4  1  0  0  0  0
  6  5  2  0  0  0  0
  6  2  1  0  0  0  0
  7  8  1  0  0  0  0
  8  9  2  0  0  0  0
  8 29  1  0  0  0  0
  9 30  1  0  0  0  0
 10 13  1  0  0  0  0
 10  9  1  0  0  0  0
 11 10  2  0  0  0  0
 12 11  1  0  0  0  0
 12  7  2  0  0  0  0
 13 14  2  0  0  0  0
 15 13  1  0  0  0  0
 15 16  1  0  0  0  0
 16 34  1  0  0  0  0
 16 17  1  0  0  0  0
 17 35  1  0  0  0  0
 17 36  1  0  0  0  0
 18 19  1  0  0  0  0
 18 23  1  0  0  0  0
 18 17  1  0  0  0  0
 19 20  1  0  0  0  0
 20 22  1  0  0  0  0
 20 21  2  0  0  0  0
 22 38  1  0  0  0  0
 23 22  1  0  0  0  0
 24 23  2  0  0  0  0
 25 18  1  0  0  0  0
 26 25  1  0  0  0  0
 26 15  1  0  0  0  0
 28  6  1  0  0  0  0
 31 11  1  0  0  0  0
 32 12  1  0  0  0  0
 33 16  1  0  0  0  0
 37 19  1  0  0  0  0
 39 25  1  0  0  0  0
 40 25  1  0  0  0  0
 41 26  1  0  0  0  0
 42 26  1  0  0  0  0
M  END
>  <Pose>
1

>  <Score>
-5.51

$$$$
