
 OpenBabel03232203513D

 38 41  0  0  0  0  0  0  0  0999 V2000
   -4.4060   19.7940  -11.5800 B   0  0  0  0  0  0  0  0  0  0  0  0
   -2.9180   18.6020  -11.7390 C   0  0  0  0  0  0  0  0  0  0  0  0
   -2.7650   17.8210  -12.8620 C   0  0  0  0  0  0  0  0  0  0  0  0
   -1.7260   17.0020  -12.9520 N   0  0  0  0  0  0  0  0  0  0  0  0
   -0.7700   16.8580  -12.0090 C   0  0  0  0  0  0  0  0  0  0  0  0
   -0.9280   17.6350  -10.8970 N   0  0  0  0  0  0  0  0  0  0  0  0
   -1.9620   18.4840  -10.7530 C   0  0  0  0  0  0  0  0  0  0  0  0
    0.3180   15.9860  -12.1250 N   0  0  0  0  0  0  0  0  0  0  0  0
    0.9860   15.0460  -11.2730 C   0  0  0  0  0  0  0  0  0  0  0  0
    1.1780   14.2210  -12.5300 C   0  0  0  0  0  0  0  0  0  0  0  0
    1.2720   15.6190  -13.1330 C   0  0  0  0  0  0  0  0  0  0  0  0
    2.4380   13.4170  -12.5960 C   0  0  0  0  0  0  0  0  0  0  0  0
    2.0810   12.0600  -12.9170 N   0  0  0  0  0  0  0  0  0  0  0  0
    0.7410   11.6910  -13.0290 N   0  0  0  0  0  0  0  0  0  0  0  0
    0.3400   10.3640  -13.3440 C   0  0  0  0  0  0  0  0  0  0  0  0
   -0.9420   10.0690  -13.4390 C   0  0  0  0  0  0  0  0  0  0  0  0
   -2.3940   10.3360  -13.4070 C   0  0  0  0  0  0  0  0  0  0  0  0
   -1.9610    8.9810  -13.7110 C   0  0  0  0  0  0  0  0  0  0  0  0
    1.3350    9.3320  -13.5620 C   0  0  0  0  0  0  0  0  0  0  0  0
    2.6130    9.6590  -13.4590 C   0  0  0  0  0  0  0  0  0  0  0  0
    3.0400   11.0360  -13.1340 C   0  0  0  0  0  0  0  0  0  0  0  0
    4.2630   11.3210  -13.0420 O   0  0  0  0  0  0  0  0  0  0  0  0
   -3.5250   17.9250  -13.6290 H   0  0  0  0  0  0  0  0  0  0  0  0
   -2.0970   19.1060   -9.8770 H   0  0  0  0  0  0  0  0  0  0  0  0
    2.0050   15.3750  -10.9210 H   0  0  0  0  0  0  0  0  0  0  0  0
    0.3770   14.5670  -10.4890 H   0  0  0  0  0  0  0  0  0  0  0  0
    0.2490   13.7100  -12.8020 H   0  0  0  0  0  0  0  0  0  0  0  0
    2.2940   16.0330  -12.9970 H   0  0  0  0  0  0  0  0  0  0  0  0
    0.9350   15.6960  -14.1800 H   0  0  0  0  0  0  0  0  0  0  0  0
    2.9650   13.4450  -11.6160 H   0  0  0  0  0  0  0  0  0  0  0  0
    3.1250   13.7800  -13.3580 H   0  0  0  0  0  0  0  0  0  0  0  0
    0.0190   12.4520  -12.8680 H   0  0  0  0  0  0  0  0  0  0  0  0
   -2.8800   10.4990  -12.4150 H   0  0  0  0  0  0  0  0  0  0  0  0
   -2.8640   10.9310  -14.2070 H   0  0  0  0  0  0  0  0  0  0  0  0
   -2.0620    8.1960  -12.9200 H   0  0  0  0  0  0  0  0  0  0  0  0
   -1.9530    8.5960  -14.7570 H   0  0  0  0  0  0  0  0  0  0  0  0
    1.0410    8.2930  -13.8070 H   0  0  0  0  0  0  0  0  0  0  0  0
    3.3410    8.8800  -13.6240 H   0  0  0  0  0  0  0  0  0  0  0  0
  2  1  1  0  0  0  0
  2  7  1  0  0  0  0
  3  2  2  0  0  0  0
  4  3  1  0  0  0  0
  4  5  2  0  0  0  0
  5  6  1  0  0  0  0
  6  7  2  0  0  0  0
  7 24  1  0  0  0  0
  8  5  1  0  0  0  0
  8  9  1  0  0  0  0
  9 25  1  0  0  0  0
  9 26  1  0  0  0  0
 10  9  1  0  0  0  0
 11 28  1  0  0  0  0
 11 10  1  0  0  0  0
 11  8  1  0  0  0  0
 12 10  1  0  0  0  0
 12 30  1  0  0  0  0
 13 12  1  0  0  0  0
 14 13  1  0  0  0  0
 14 32  1  0  0  0  0
 15 14  1  0  0  0  0
 16 17  1  0  0  0  0
 16 15  2  0  0  0  0
 17 33  1  0  0  0  0
 18 16  1  0  0  0  0
 18 17  1  0  0  0  0
 18 35  1  0  0  0  0
 19 20  2  0  0  0  0
 19 15  1  0  0  0  0
 20 21  1  0  0  0  0
 21 22  2  0  0  0  0
 21 13  1  0  0  0  0
 23  3  1  0  0  0  0
 27 10  1  0  0  0  0
 29 11  1  0  0  0  0
 31 12  1  0  0  0  0
 34 17  1  0  0  0  0
 36 18  1  0  0  0  0
 37 19  1  0  0  0  0
 38 20  1  0  0  0  0
M  END
>  <Pose>
1

>  <Score>
-5.83

$$$$
