
 OpenBabel03232203513D

 43 46  0  0  0  0  0  0  0  0999 V2000
   -2.7610   19.3250  -10.4160 B   0  0  0  0  0  0  0  0  0  0  0  0
   -2.3100   18.2000  -11.8920 C   0  0  0  0  0  0  0  0  0  0  0  0
   -2.9430   18.3410  -13.0860 C   0  0  0  0  0  0  0  0  0  0  0  0
   -2.6390   17.5640  -14.1250 N   0  0  0  0  0  0  0  0  0  0  0  0
   -1.6930   16.6230  -13.9960 C   0  0  0  0  0  0  0  0  0  0  0  0
   -1.0130   16.4340  -12.7980 C   0  0  0  0  0  0  0  0  0  0  0  0
   -1.3210   17.2330  -11.7210 C   0  0  0  0  0  0  0  0  0  0  0  0
   -0.0050   15.4020  -12.7500 C   0  0  0  0  0  0  0  0  0  0  0  0
    1.1910   15.6710  -12.9540 O   0  0  0  0  0  0  0  0  0  0  0  0
   -0.3710   14.0010  -12.4590 N   0  0  0  0  0  0  0  0  0  0  0  0
   -0.2150   13.1040  -13.5180 C   0  0  0  0  0  0  0  0  0  0  0  0
    0.1890   11.7190  -13.4000 C   0  0  0  0  0  0  0  0  0  0  0  0
    1.6020   11.6050  -13.1460 C   0  0  0  0  0  0  0  0  0  0  0  0
    2.1650   10.3890  -13.0170 C   0  0  0  0  0  0  0  0  0  0  0  0
    1.3960    9.2160  -13.1280 C   0  0  0  0  0  0  0  0  0  0  0  0
    0.0470    9.3070  -13.3680 C   0  0  0  0  0  0  0  0  0  0  0  0
   -0.5520   10.5700  -13.5010 C   0  0  0  0  0  0  0  0  0  0  0  0
   -2.0240   10.6880  -13.6670 C   0  0  0  0  0  0  0  0  0  0  0  0
   -2.7870    9.4310  -13.2630 C   0  0  0  0  0  0  0  0  0  0  0  0
   -2.1790    8.2390  -13.8060 N   0  0  0  0  0  0  0  0  0  0  0  0
   -0.7790    8.1130  -13.5230 C   0  0  0  0  0  0  0  0  0  0  0  0
   -0.3340    6.9510  -13.4230 O   0  0  0  0  0  0  0  0  0  0  0  0
   -2.9210    7.2590  -14.5690 C   0  0  0  0  0  0  0  0  0  0  0  0
    2.0330    8.0400  -12.9880 O   0  0  0  0  0  0  0  0  0  0  0  0
    3.5340   10.5900  -12.7770 O   0  0  0  0  0  0  0  0  0  0  0  0
    3.8680   11.9420  -13.0090 C   0  0  0  0  0  0  0  0  0  0  0  0
    2.6020   12.5710  -12.9910 O   0  0  0  0  0  0  0  0  0  0  0  0
   -3.7300   19.0940  -13.2580 H   0  0  0  0  0  0  0  0  0  0  0  0
   -1.4180   15.9710  -14.8220 H   0  0  0  0  0  0  0  0  0  0  0  0
   -0.8100   17.1150  -10.7810 H   0  0  0  0  0  0  0  0  0  0  0  0
   -0.7320   13.9020  -11.4990 H   0  0  0  0  0  0  0  0  0  0  0  0
   -1.2220   13.1350  -14.1170 H   0  0  0  0  0  0  0  0  0  0  0  0
    0.4410   13.6280  -14.3340 H   0  0  0  0  0  0  0  0  0  0  0  0
   -2.3380   10.9140  -14.6910 H   0  0  0  0  0  0  0  0  0  0  0  0
   -2.4380   11.4530  -12.9670 H   0  0  0  0  0  0  0  0  0  0  0  0
   -3.8240    9.5800  -13.6560 H   0  0  0  0  0  0  0  0  0  0  0  0
   -2.7830    9.4050  -12.1510 H   0  0  0  0  0  0  0  0  0  0  0  0
   -3.0650    7.6960  -15.5880 H   0  0  0  0  0  0  0  0  0  0  0  0
   -3.9210    7.1070  -14.1260 H   0  0  0  0  0  0  0  0  0  0  0  0
   -2.3250    6.3440  -14.6770 H   0  0  0  0  0  0  0  0  0  0  0  0
    2.7300    7.7570  -12.3890 H   0  0  0  0  0  0  0  0  0  0  0  0
    4.5430   12.3440  -12.2250 H   0  0  0  0  0  0  0  0  0  0  0  0
    4.3580   11.9950  -13.9940 H   0  0  0  0  0  0  0  0  0  0  0  0
  2  7  1  0  0  0  0
  2  1  1  0  0  0  0
  3  2  2  0  0  0  0
  4  5  2  0  0  0  0
  4  3  1  0  0  0  0
  5  6  1  0  0  0  0
  6  8  1  0  0  0  0
  6  7  2  0  0  0  0
  7 30  1  0  0  0  0
  8 10  1  0  0  0  0
  9  8  2  0  0  0  0
 10 31  1  0  0  0  0
 11 12  1  0  0  0  0
 11 10  1  0  0  0  0
 12 13  1  0  0  0  0
 13 14  2  0  0  0  0
 13 27  1  0  0  0  0
 14 25  1  0  0  0  0
 15 14  1  0  0  0  0
 15 24  1  0  0  0  0
 16 15  2  0  0  0  0
 17 12  2  0  0  0  0
 17 16  1  0  0  0  0
 18 17  1  0  0  0  0
 18 19  1  0  0  0  0
 18 35  1  0  0  0  0
 19 37  1  0  0  0  0
 20 21  1  0  0  0  0
 20 19  1  0  0  0  0
 21 22  2  0  0  0  0
 21 16  1  0  0  0  0
 23 39  1  0  0  0  0
 23 20  1  0  0  0  0
 24 41  1  0  0  0  0
 26 27  1  0  0  0  0
 26 25  1  0  0  0  0
 26 42  1  0  0  0  0
 28  3  1  0  0  0  0
 29  5  1  0  0  0  0
 32 11  1  0  0  0  0
 33 11  1  0  0  0  0
 34 18  1  0  0  0  0
 36 19  1  0  0  0  0
 38 23  1  0  0  0  0
 40 23  1  0  0  0  0
 43 26  1  0  0  0  0
M  END
>  <Pose>
1

>  <Score>
-7.65

$$$$
