
 OpenBabel03232203513D

 40 43  0  0  1  0  0  0  0  0999 V2000
   -4.6840   20.4010  -10.9290 B   0  0  0  0  0  0  0  0  0  0  0  0
   -3.7310   19.0970  -11.9360 C   0  0  0  0  0  0  0  0  0  0  0  0
   -4.2320   18.6890  -13.1490 C   0  0  0  0  0  0  0  0  0  0  0  0
   -3.5650   17.7610  -13.8810 N   0  0  0  0  0  0  0  0  0  0  0  0
   -2.4200   17.2270  -13.4410 C   0  0  0  0  0  0  0  0  0  0  0  0
   -1.8370   17.5830  -12.2170 C   0  0  0  0  0  0  0  0  0  0  0  0
   -2.5430   18.5280  -11.5060 C   0  0  0  0  0  0  0  0  0  0  0  0
   -0.5910   16.9860  -11.8000 C   0  0  0  0  0  0  0  0  0  0  0  0
    0.0570   17.6420  -10.9030 O   0  0  0  0  0  0  0  0  0  0  0  0
   -0.0200   15.7850  -12.2610 N   0  0  0  0  0  0  0  0  0  0  0  0
    1.2670   15.1950  -12.4570 C   0  0  0  0  0  0  0  0  0  0  0  0
    0.5910   13.8250  -12.2680 C   0  0  0  0  0  0  0  0  0  0  0  0
   -0.5900   14.5370  -12.8090 C   0  0  0  0  0  0  0  0  0  0  0  0
    1.1930   12.8140  -13.0920 N   0  0  0  0  0  0  0  0  0  0  0  0
    0.8390   12.4270  -14.4330 C   0  0  0  0  0  0  0  0  0  0  0  0
    0.2650   13.1600  -15.2560 O   0  0  0  0  0  0  0  0  0  0  0  0
    1.3090   11.0060  -14.5780 C   0  0  1  0  0  0  0  0  0  0  0  0
    2.6160   11.0810  -13.8240 C   0  0  2  0  0  0  0  0  0  0  0  0
    3.0670    9.7190  -13.3750 C   0  0  0  0  0  0  0  0  0  0  0  0
    2.0280    9.1140  -12.4990 C   0  0  0  0  0  0  0  0  0  0  0  0
    0.7650    9.3380  -12.8010 C   0  0  0  0  0  0  0  0  0  0  0  0
    0.2820   10.1380  -13.9340 C   0  0  0  0  0  0  0  0  0  0  0  0
    2.2870   11.9890  -12.7080 C   0  0  0  0  0  0  0  0  0  0  0  0
    2.9060   11.9890  -11.6160 O   0  0  0  0  0  0  0  0  0  0  0  0
   -5.1600   19.1250  -13.4980 H   0  0  0  0  0  0  0  0  0  0  0  0
   -1.9260   16.4930  -14.0550 H   0  0  0  0  0  0  0  0  0  0  0  0
   -2.1740   18.8670  -10.5710 H   0  0  0  0  0  0  0  0  0  0  0  0
    2.0150   15.2790  -11.6400 H   0  0  0  0  0  0  0  0  0  0  0  0
    1.7000   15.3320  -13.4800 H   0  0  0  0  0  0  0  0  0  0  0  0
    0.4800   13.5890  -11.2040 H   0  0  0  0  0  0  0  0  0  0  0  0
   -0.6380   14.6530  -13.9100 H   0  0  0  0  0  0  0  0  0  0  0  0
   -1.5770   14.2990  -12.3740 H   0  0  0  0  0  0  0  0  0  0  0  0
    1.4700   10.7520  -15.6450 H   0  0  0  0  0  0  0  0  0  0  0  0
    3.3860   11.4950  -14.5060 H   0  0  0  0  0  0  0  0  0  0  0  0
    4.0430    9.8150  -12.8830 H   0  0  0  0  0  0  0  0  0  0  0  0
    3.1520    9.0900  -14.2890 H   0  0  0  0  0  0  0  0  0  0  0  0
    2.3550    8.5120  -11.6470 H   0  0  0  0  0  0  0  0  0  0  0  0
    0.0060    8.8880  -12.1490 H   0  0  0  0  0  0  0  0  0  0  0  0
   -0.6080   10.7250  -13.5660 H   0  0  0  0  0  0  0  0  0  0  0  0
   -0.1450    9.4320  -14.6770 H   0  0  0  0  0  0  0  0  0  0  0  0
  2  7  1  0  0  0  0
  2  1  1  0  0  0  0
  3  2  2  0  0  0  0
  4  5  2  0  0  0  0
  4  3  1  0  0  0  0
  5  6  1  0  0  0  0
  6  8  1  0  0  0  0
  6  7  2  0  0  0  0
  7 27  1  0  0  0  0
  8  9  2  0  0  0  0
 10  8  1  0  0  0  0
 11 12  1  0  0  0  0
 11 10  1  0  0  0  0
 11 28  1  0  0  0  0
 12 30  1  0  0  0  0
 13 32  1  0  0  0  0
 13 12  1  0  0  0  0
 13 10  1  0  0  0  0
 14 23  1  0  0  0  0
 14 12  1  0  0  0  0
 15 14  1  0  0  0  0
 16 15  2  0  0  0  0
 17 33  1  6  0  0  0
 17 15  1  0  0  0  0
 17 22  1  0  0  0  0
 17 18  1  0  0  0  0
 18 34  1  6  0  0  0
 18 19  1  0  0  0  0
 18 23  1  0  0  0  0
 19 35  1  0  0  0  0
 19 20  1  0  0  0  0
 20 37  1  0  0  0  0
 21 20  2  0  0  0  0
 21 38  1  0  0  0  0
 22 39  1  0  0  0  0
 22 21  1  0  0  0  0
 23 24  2  0  0  0  0
 25  3  1  0  0  0  0
 26  5  1  0  0  0  0
 29 11  1  0  0  0  0
 31 13  1  0  0  0  0
 36 19  1  0  0  0  0
 40 22  1  0  0  0  0
M  END
>  <Pose>
1

>  <Score>
-4.66

$$$$
