
 OpenBabel03232203513D

 37 40  0  0  1  0  0  0  0  0999 V2000
    1.2630    7.5950  -11.4790 B   0  0  0  0  0  0  0  0  0  0  0  0
    1.6500    9.0170  -12.7120 C   0  0  0  0  0  0  0  0  0  0  0  0
    1.6890    8.7270  -14.0570 C   0  0  0  0  0  0  0  0  0  0  0  0
    1.9600    9.7330  -14.8950 N   0  0  0  0  0  0  0  0  0  0  0  0
    2.1930   11.0060  -14.4590 C   0  0  0  0  0  0  0  0  0  0  0  0
    2.1670   11.3560  -13.1330 C   0  0  0  0  0  0  0  0  0  0  0  0
    1.8810   10.2910  -12.2590 C   0  0  0  0  0  0  0  0  0  0  0  0
    2.4100   12.6680  -12.5860 C   0  0  0  0  0  0  0  0  0  0  0  0
    3.5680   12.9200  -12.1300 O   0  0  0  0  0  0  0  0  0  0  0  0
    1.4350   13.6730  -12.5320 N   0  0  0  0  0  0  0  0  0  0  0  0
    1.1950   14.9620  -11.9410 C   0  0  0  0  0  0  0  0  0  0  0  0
   -0.2560   14.9730  -12.4000 C   0  0  0  0  0  0  0  0  0  0  0  0
    0.1190   13.7600  -13.1950 C   0  0  0  0  0  0  0  0  0  0  0  0
   -0.6790   16.0820  -13.1300 O   0  0  0  0  0  0  0  0  0  0  0  0
   -1.4800   17.1050  -12.6640 C   0  0  2  0  0  0  0  0  0  0  0  0
   -1.1610   17.7320  -11.5350 C   0  0  0  0  0  0  0  0  0  0  0  0
   -1.9650   18.8190  -10.9920 C   0  0  0  0  0  0  0  0  0  0  0  0
   -1.6180   19.4210   -9.8680 C   0  0  0  0  0  0  0  0  0  0  0  0
   -3.1280   19.2000  -11.7150 N   0  0  0  0  0  0  0  0  0  0  0  0
   -3.4480   18.5040  -12.9300 C   0  0  0  0  0  0  0  0  0  0  0  0
   -2.6650   17.5110  -13.3770 N   0  0  0  0  0  0  0  0  0  0  0  0
   -3.1840   17.0330  -14.5130 N   0  0  0  0  0  0  0  0  0  0  0  0
   -4.2930   17.7370  -14.7650 C   0  0  0  0  0  0  0  0  0  0  0  0
   -4.4580   18.6410  -13.7950 N   0  0  0  0  0  0  0  0  0  0  0  0
    1.5060    7.7080  -14.4310 H   0  0  0  0  0  0  0  0  0  0  0  0
    2.4020   11.7920  -15.1810 H   0  0  0  0  0  0  0  0  0  0  0  0
    1.8460   10.5020  -11.2000 H   0  0  0  0  0  0  0  0  0  0  0  0
    1.2200   14.9690  -10.8200 H   0  0  0  0  0  0  0  0  0  0  0  0
    1.8270   15.7270  -12.4080 H   0  0  0  0  0  0  0  0  0  0  0  0
   -0.9640   14.7700  -11.5550 H   0  0  0  0  0  0  0  0  0  0  0  0
    0.2890   13.9290  -14.2560 H   0  0  0  0  0  0  0  0  0  0  0  0
   -0.5210   12.8900  -13.0030 H   0  0  0  0  0  0  0  0  0  0  0  0
   -0.2560   17.3970  -11.0050 H   0  0  0  0  0  0  0  0  0  0  0  0
   -2.2320   20.2150   -9.5000 H   0  0  0  0  0  0  0  0  0  0  0  0
   -0.7490   19.1330   -9.3320 H   0  0  0  0  0  0  0  0  0  0  0  0
   -3.7060   19.9700  -11.3400 H   0  0  0  0  0  0  0  0  0  0  0  0
   -4.9790   17.6230  -15.6140 H   0  0  0  0  0  0  0  0  0  0  0  0
  2  7  1  0  0  0  0
  2  1  1  0  0  0  0
  3  2  2  0  0  0  0
  4  5  2  0  0  0  0
  4  3  1  0  0  0  0
  5  6  1  0  0  0  0
  6  8  1  0  0  0  0
  6  7  2  0  0  0  0
  7 27  1  0  0  0  0
  8 10  1  0  0  0  0
  8  9  2  0  0  0  0
 10 11  1  0  0  0  0
 11 28  1  0  0  0  0
 12 11  1  0  0  0  0
 12 30  1  0  0  0  0
 13 32  1  0  0  0  0
 13 10  1  0  0  0  0
 13 12  1  0  0  0  0
 14 12  1  0  0  0  0
 15 14  1  1  0  0  0
 15 16  1  0  0  0  0
 16 33  1  0  0  0  0
 16 17  2  0  0  0  0
 17 18  1  0  0  0  0
 18 34  1  0  0  0  0
 18 35  1  0  0  0  0
 19 36  1  0  0  0  0
 19 17  1  0  0  0  0
 20 19  1  0  0  0  0
 21 20  1  0  0  0  0
 21 15  1  0  0  0  0
 22 21  1  0  0  0  0
 23 22  2  0  0  0  0
 23 24  1  0  0  0  0
 24 20  2  0  0  0  0
 25  3  1  0  0  0  0
 26  5  1  0  0  0  0
 29 11  1  0  0  0  0
 31 13  1  0  0  0  0
 37 23  1  0  0  0  0
M  END
>  <Pose>
1

>  <Score>
-7.30

$$$$
