
 OpenBabel03232203513D

 45 40  0  0  1  0  0  0  0  0999 V2000
   -1.5540   17.3120  -12.3030 B   0  0  0  0  0  0  0  0  0  0  0  0
   -2.6870   18.7080  -11.6730 C   0  0  0  0  0  0  0  0  0  0  0  0
   -2.4650   19.3460  -10.4710 C   0  0  0  0  0  0  0  0  0  0  0  0
   -3.2600   20.3320  -10.0200 N   0  0  0  0  0  0  0  0  0  0  0  0
   -4.3080   20.7070  -10.7690 C   0  0  0  0  0  0  0  0  0  0  0  0
   -4.5980   20.1210  -11.9800 C   0  0  0  0  0  0  0  0  0  0  0  0
   -3.7720   19.1180  -12.4160 C   0  0  0  0  0  0  0  0  0  0  0  0
   -5.7410   20.5410  -12.7820 C   0  0  0  0  0  0  0  0  0  0  0  0
   -5.9000   20.0640  -13.9320 O   0  0  0  0  0  0  0  0  0  0  0  0
   -6.6230   21.4620  -12.2380 O   0  0  0  0  0  0  0  0  0  0  0  0
   -5.6970   21.0250   -9.6280 N   0  0  0  0  0  0  0  0  0  0  0  0
   -4.9250   22.2040   -9.1930 C   0  0  0  0  0  0  0  0  0  0  0  0
   -4.0350   21.8000   -8.0640 C   0  0  0  0  0  0  0  0  0  0  0  0
   -3.0800   20.7390   -8.5400 C   0  0  0  0  0  0  0  0  0  0  0  0
   -3.4570   20.1020   -9.8130 C   0  0  0  0  0  0  0  0  0  0  0  0
   -4.7210   20.2370  -10.3400 C   0  0  2  0  0  0  0  0  0  0  0  0
   -4.9970   19.6340  -11.4950 N   0  0  0  0  0  0  0  0  0  0  0  0
   -4.1030   18.8930  -12.1830 C   0  0  0  0  0  0  0  0  0  0  0  0
   -2.8260   18.7360  -11.6850 C   0  0  0  0  0  0  0  0  0  0  0  0
   -2.4960   19.3420  -10.4930 C   0  0  0  0  0  0  0  0  0  0  0  0
   -1.1780   19.1780   -9.9820 N   0  0  0  0  0  0  0  0  0  0  0  0
   -1.8990   17.9700  -12.3940 C   0  0  2  0  0  0  0  0  0  0  0  0
   -2.2090   17.3560  -13.5870 C   0  0  0  0  0  0  0  0  0  0  0  0
   -3.4880   17.5160  -14.0810 C   0  0  0  0  0  0  0  0  0  0  0  0
   -4.4100   18.2770  -13.3770 C   0  0  0  0  0  0  0  0  0  0  0  0
   -6.7220   21.5270  -10.5200 C   0  0  0  0  0  0  0  0  0  0  0  0
   -1.5980   19.0090   -9.8900 H   0  0  0  0  0  0  0  0  0  0  0  0
   -4.9420   21.5000  -10.3990 H   0  0  0  0  0  0  0  0  0  0  0  0
   -3.9300   18.6050  -13.3570 H   0  0  0  0  0  0  0  0  0  0  0  0
   -6.0850   20.5220   -8.8130 H   0  0  0  0  0  0  0  0  0  0  0  0
   -5.5940   23.0130   -8.8520 H   0  0  0  0  0  0  0  0  0  0  0  0
   -4.3180   22.5030  -10.0780 H   0  0  0  0  0  0  0  0  0  0  0  0
   -3.5050   22.6950   -7.6700 H   0  0  0  0  0  0  0  0  0  0  0  0
   -4.7040   21.4090   -7.2430 H   0  0  0  0  0  0  0  0  0  0  0  0
   -2.0720   21.2190   -8.5910 H   0  0  0  0  0  0  0  0  0  0  0  0
   -2.9960   19.9930   -7.7080 H   0  0  0  0  0  0  0  0  0  0  0  0
   -0.7180   20.0250   -9.5830 H   0  0  0  0  0  0  0  0  0  0  0  0
   -0.6520   18.2920   -9.9790 H   0  0  0  0  0  0  0  0  0  0  0  0
   -0.9050   17.8460  -12.0090 H   0  0  0  0  0  0  0  0  0  0  0  0
   -1.4570   16.7680  -14.1070 H   0  0  0  0  0  0  0  0  0  0  0  0
   -3.7160   17.0270  -15.0180 H   0  0  0  0  0  0  0  0  0  0  0  0
   -5.4060   18.3820  -13.7930 H   0  0  0  0  0  0  0  0  0  0  0  0
   -6.2270   21.8800  -11.4460 H   0  0  0  0  0  0  0  0  0  0  0  0
   -7.4650   20.7130  -10.7290 H   0  0  0  0  0  0  0  0  0  0  0  0
   -7.1980   22.3860  -10.0050 H   0  0  0  0  0  0  0  0  0  0  0  0
  1 39  1  0  0  0  0
  2 20  2  0  0  0  0
  5 28  1  0  0  0  0
  5 16  1  0  0  0  0
  5  4  1  0  0  0  0
  6 17  1  0  0  0  0
  7 18  1  0  0  0  0
  7 19  1  0  0  0  0
  8 10  1  0  0  0  0
  8 17  1  0  0  0  0
  9  8  2  0  0  0  0
 10 43  1  0  0  0  0
 11 30  1  0  0  0  0
 12 31  1  0  0  0  0
 12 13  1  0  0  0  0
 13 33  1  0  0  0  0
 13 34  1  0  0  0  0
 14 13  1  0  0  0  0
 14 36  1  0  0  0  0
 15 14  1  0  0  0  0
 16 15  1  1  0  0  0
 17 16  1  0  0  0  0
 18  6  1  0  0  0  0
 20  4  1  0  0  0  0
 21 38  1  0  0  0  0
 21 27  1  0  0  0  0
 21 37  1  0  0  0  0
 22  1  1  0  0  0  0
 22  2  1  1  0  0  0
 23 22  1  0  0  0  0
 24 23  2  0  0  0  0
 25 29  1  0  0  0  0
 26 45  1  0  0  0  0
 26 11  1  0  0  0  0
 32 12  1  0  0  0  0
 35 14  1  0  0  0  0
 40 23  1  0  0  0  0
 41 24  1  0  0  0  0
 42 25  1  0  0  0  0
 44 26  1  0  0  0  0
M  END
>  <Pose>
1

>  <Score>
-5.87

$$$$
