
 OpenBabel03232203513D

 44 47  0  0  1  0  0  0  0  0999 V2000
    5.9050   11.3660  -11.7880 B   0  0  0  0  0  0  0  0  0  0  0  0
    4.1720   11.3860  -12.6010 C   0  0  0  0  0  0  0  0  0  0  0  0
    3.2620   12.3900  -12.3430 C   0  0  0  0  0  0  0  0  0  0  0  0
    2.0070   12.4160  -12.9270 C   0  0  0  0  0  0  0  0  0  0  0  0
    1.7070   11.3810  -13.7860 C   0  0  0  0  0  0  0  0  0  0  0  0
    2.5880   10.3620  -14.0670 C   0  0  0  0  0  0  0  0  0  0  0  0
    3.8410   10.3500  -13.4750 C   0  0  0  0  0  0  0  0  0  0  0  0
    2.1100    8.9550  -15.2700 B   0  0  0  0  0  0  0  0  0  0  0  0
    1.2500   13.5800  -12.4890 C   0  0  0  0  0  0  0  0  0  0  0  0
    0.0670   13.9590  -12.7960 N   0  0  0  0  0  0  0  0  0  0  0  0
   -0.5150   15.1200  -12.2770 N   0  0  0  0  0  0  0  0  0  0  0  0
   -0.9650   16.1010  -13.1880 C   0  0  0  0  0  0  0  0  0  0  0  0
   -1.0580   15.8400  -14.4050 O   0  0  0  0  0  0  0  0  0  0  0  0
   -1.3480   17.4820  -12.7530 C   0  0  0  0  0  0  0  0  0  0  0  0
   -1.4520   17.5860  -11.3240 N   0  0  0  0  0  0  0  0  0  0  0  0
   -2.2570   18.5630  -10.6780 C   0  0  0  0  0  0  0  0  0  0  0  0
   -2.5540   18.3870   -9.4760 O   0  0  0  0  0  0  0  0  0  0  0  0
   -2.7690   19.7900  -11.3580 C   0  0  2  0  0  0  0  0  0  0  0  0
   -3.1430   20.7770  -10.4420 O   0  0  0  0  0  0  0  0  0  0  0  0
   -4.4550   21.1720  -10.1880 C   0  0  0  0  0  0  0  0  0  0  0  0
   -5.3940   20.8510  -11.1320 C   0  0  0  0  0  0  0  0  0  0  0  0
   -6.7160   21.2350  -10.9050 C   0  0  0  0  0  0  0  0  0  0  0  0
   -7.1020   21.9200   -9.7760 C   0  0  0  0  0  0  0  0  0  0  0  0
   -6.1270   22.2270   -8.8460 C   0  0  0  0  0  0  0  0  0  0  0  0
   -4.8230   21.8500   -9.0650 C   0  0  0  0  0  0  0  0  0  0  0  0
   -5.0200   20.1700  -12.2580 O   0  0  0  0  0  0  0  0  0  0  0  0
   -3.8040   19.4850  -12.3830 C   0  0  0  0  0  0  0  0  0  0  0  0
    2.1340   14.3030  -11.5680 C   0  0  0  0  0  0  0  0  0  0  0  0
    1.8150   15.3730  -10.9840 O   0  0  0  0  0  0  0  0  0  0  0  0
    3.3270   13.5470  -11.5160 N   0  0  0  0  0  0  0  0  0  0  0  0
    0.7420   11.3580  -14.2640 H   0  0  0  0  0  0  0  0  0  0  0  0
    4.5390    9.5720  -13.6800 H   0  0  0  0  0  0  0  0  0  0  0  0
   -0.5840   15.1990  -11.2400 H   0  0  0  0  0  0  0  0  0  0  0  0
   -0.5200   18.1410  -13.0950 H   0  0  0  0  0  0  0  0  0  0  0  0
   -2.2700   17.8250  -13.2730 H   0  0  0  0  0  0  0  0  0  0  0  0
   -0.9320   16.9330  -10.6920 H   0  0  0  0  0  0  0  0  0  0  0  0
   -1.8640   20.2030  -11.8930 H   0  0  0  0  0  0  0  0  0  0  0  0
   -7.4400   20.9700  -11.6650 H   0  0  0  0  0  0  0  0  0  0  0  0
   -8.1360   22.1980   -9.6380 H   0  0  0  0  0  0  0  0  0  0  0  0
   -6.4440   22.7760   -7.9430 H   0  0  0  0  0  0  0  0  0  0  0  0
   -4.0790   22.1040   -8.3220 H   0  0  0  0  0  0  0  0  0  0  0  0
   -3.3960   19.6800  -13.4230 H   0  0  0  0  0  0  0  0  0  0  0  0
   -4.0400   18.3960  -12.3570 H   0  0  0  0  0  0  0  0  0  0  0  0
    4.1520   13.8010  -10.9460 H   0  0  0  0  0  0  0  0  0  0  0  0
  2  3  1  0  0  0  0
  2  1  1  0  0  0  0
  3 30  1  0  0  0  0
  4  9  1  0  0  0  0
  4  3  2  0  0  0  0
  5  4  1  0  0  0  0
  6  5  2  0  0  0  0
  6  7  1  0  0  0  0
  7  2  2  0  0  0  0
  8  6  1  0  0  0  0
  9 28  1  0  0  0  0
 10  9  2  0  0  0  0
 10 11  1  0  0  0  0
 11 33  1  0  0  0  0
 12 14  1  0  0  0  0
 12 11  1  0  0  0  0
 13 12  2  0  0  0  0
 14 15  1  0  0  0  0
 15 36  1  0  0  0  0
 15 16  1  0  0  0  0
 16 17  2  0  0  0  0
 18 37  1  6  0  0  0
 18 16  1  0  0  0  0
 18 19  1  0  0  0  0
 19 20  1  0  0  0  0
 20 25  1  0  0  0  0
 21 22  1  0  0  0  0
 21 20  2  0  0  0  0
 22 23  2  0  0  0  0
 23 39  1  0  0  0  0
 23 24  1  0  0  0  0
 24 40  1  0  0  0  0
 25 24  2  0  0  0  0
 25 41  1  0  0  0  0
 26 21  1  0  0  0  0
 27 43  1  0  0  0  0
 27 26  1  0  0  0  0
 27 18  1  0  0  0  0
 28 30  1  0  0  0  0
 28 29  2  0  0  0  0
 30 44  1  0  0  0  0
 31  5  1  0  0  0  0
 32  7  1  0  0  0  0
 34 14  1  0  0  0  0
 35 14  1  0  0  0  0
 38 22  1  0  0  0  0
 42 27  1  0  0  0  0
M  END
>  <Pose>
1

>  <Score>
-7.53

$$$$
