
 OpenBabel03232203513D

 31 34  0  0  0  0  0  0  0  0999 V2000
   -0.8170   11.9580  -13.7370 B   0  0  0  0  0  0  0  0  0  0  0  0
    0.1270   13.5020  -13.0920 C   0  0  0  0  0  0  0  0  0  0  0  0
    1.4360   13.3280  -12.6980 C   0  0  0  0  0  0  0  0  0  0  0  0
    2.1120   14.4310  -12.2380 C   0  0  0  0  0  0  0  0  0  0  0  0
    1.4780   15.6740  -12.1770 C   0  0  0  0  0  0  0  0  0  0  0  0
    0.1730   15.8580  -12.5680 C   0  0  0  0  0  0  0  0  0  0  0  0
   -0.5050   14.7280  -13.0350 C   0  0  0  0  0  0  0  0  0  0  0  0
   -0.5250   17.1680  -12.5170 C   0  0  0  0  0  0  0  0  0  0  0  0
   -1.0780   17.3660  -11.2000 N   0  0  0  0  0  0  0  0  0  0  0  0
   -2.0420   18.4190  -11.0140 C   0  0  0  0  0  0  0  0  0  0  0  0
   -1.9230   19.2970  -10.0090 N   0  0  0  0  0  0  0  0  0  0  0  0
   -2.8280   20.2780   -9.8420 C   0  0  0  0  0  0  0  0  0  0  0  0
   -3.9130   20.4140  -10.7040 C   0  0  0  0  0  0  0  0  0  0  0  0
   -4.0240   19.5380  -11.7020 N   0  0  0  0  0  0  0  0  0  0  0  0
   -3.1120   18.5460  -11.8720 C   0  0  0  0  0  0  0  0  0  0  0  0
   -3.4840   17.8300  -12.9460 N   0  0  0  0  0  0  0  0  0  0  0  0
   -4.5950   18.3340  -13.4570 N   0  0  0  0  0  0  0  0  0  0  0  0
   -4.9210   19.3780  -12.6910 C   0  0  0  0  0  0  0  0  0  0  0  0
    3.3970   13.9960  -11.9080 O   0  0  0  0  0  0  0  0  0  0  0  0
    3.3170   12.5810  -11.6770 C   0  0  0  0  0  0  0  0  0  0  0  0
    2.3150   12.2390  -12.6450 O   0  0  0  0  0  0  0  0  0  0  0  0
    2.0420   16.5060  -11.8080 H   0  0  0  0  0  0  0  0  0  0  0  0
   -1.5300   14.8050  -13.3560 H   0  0  0  0  0  0  0  0  0  0  0  0
   -1.3920   17.1320  -13.2320 H   0  0  0  0  0  0  0  0  0  0  0  0
    0.1390   18.0030  -12.8240 H   0  0  0  0  0  0  0  0  0  0  0  0
   -0.8030   16.7770  -10.3960 H   0  0  0  0  0  0  0  0  0  0  0  0
   -2.7560   20.9950   -9.0440 H   0  0  0  0  0  0  0  0  0  0  0  0
   -4.6320   21.1970  -10.5670 H   0  0  0  0  0  0  0  0  0  0  0  0
   -5.8010   19.9930  -12.8750 H   0  0  0  0  0  0  0  0  0  0  0  0
    4.2640   12.0740  -11.8560 H   0  0  0  0  0  0  0  0  0  0  0  0
    2.8760   12.4080  -10.6770 H   0  0  0  0  0  0  0  0  0  0  0  0
  1  2  1  0  0  0  0
  2  7  2  0  0  0  0
  2  3  1  0  0  0  0
  3 21  1  0  0  0  0
  3  4  2  0  0  0  0
  4  5  1  0  0  0  0
  4 19  1  0  0  0  0
  5 22  1  0  0  0  0
  6  8  1  0  0  0  0
  6  5  2  0  0  0  0
  7  6  1  0  0  0  0
  8  9  1  0  0  0  0
  9 10  1  0  0  0  0
  9 26  1  0  0  0  0
 10 11  2  0  0  0  0
 11 12  1  0  0  0  0
 12 27  1  0  0  0  0
 13 28  1  0  0  0  0
 13 12  2  0  0  0  0
 14 13  1  0  0  0  0
 15 14  1  0  0  0  0
 15 10  1  0  0  0  0
 16 15  2  0  0  0  0
 17 16  1  0  0  0  0
 17 18  2  0  0  0  0
 18 14  1  0  0  0  0
 19 20  1  0  0  0  0
 20 31  1  0  0  0  0
 21 20  1  0  0  0  0
 23  7  1  0  0  0  0
 24  8  1  0  0  0  0
 25  8  1  0  0  0  0
 29 18  1  0  0  0  0
 30 20  1  0  0  0  0
M  END
>  <Pose>
1

>  <Score>
-6.86

$$$$
