
 OpenBabel03232203513D

 56 59  0  0  1  0  0  0  0  0999 V2000
    0.8280    6.8970   -9.9920 B   0  0  0  0  0  0  0  0  0  0  0  0
    0.4250    7.0310  -11.8430 C   0  0  0  0  0  0  0  0  0  0  0  0
    1.0970    7.9820  -12.6220 C   0  0  0  0  0  0  0  0  0  0  0  0
    0.8570    8.1180  -13.9550 C   0  0  0  0  0  0  0  0  0  0  0  0
   -0.0810    7.2900  -14.5460 C   0  0  0  0  0  0  0  0  0  0  0  0
   -0.7530    6.3440  -13.7810 C   0  0  0  0  0  0  0  0  0  0  0  0
   -0.5070    6.2070  -12.4340 C   0  0  0  0  0  0  0  0  0  0  0  0
   -1.7710    5.4330  -14.3790 C   0  0  0  0  0  0  0  0  0  0  0  0
    1.6140    9.1070  -14.7700 C   0  0  1  0  0  0  0  0  0  0  0  0
    2.0600   10.3430  -14.0750 C   0  0  0  0  0  0  0  0  0  0  0  0
    1.9150   10.2020  -12.5410 C   0  0  0  0  0  0  0  0  0  0  0  0
    2.0490    8.8560  -12.1160 O   0  0  0  0  0  0  0  0  0  0  0  0
    1.1840   11.5430  -14.3820 C   0  0  0  0  0  0  0  0  0  0  0  0
    1.0010   12.4550  -13.2730 N   0  0  0  0  0  4  0  0  0  0  0  0
   -0.3440   13.0280  -13.3290 C   0  0  0  0  0  0  0  0  0  0  0  0
   -0.3150   14.3200  -12.6000 C   0  0  0  0  0  0  0  0  0  0  0  0
    1.1330   14.5580  -12.3370 C   0  0  0  0  0  0  0  0  0  0  0  0
    1.7860   13.6700  -13.4050 C   0  0  0  0  0  0  0  0  0  0  0  0
    3.5040   10.6130  -14.2650 C   0  0  0  0  0  0  0  0  0  0  0  0
    4.2750   11.6450  -13.7970 N   0  0  0  0  0  4  0  0  0  0  0  0
    3.9780   11.8990  -12.3690 C   0  0  0  0  0  0  0  0  0  0  0  0
    5.2480   12.3240  -11.7420 C   0  0  0  0  0  0  0  0  0  0  0  0
    6.3400   11.7770  -12.5790 C   0  0  0  0  0  0  0  0  0  0  0  0
    5.6710   11.5840  -13.9390 C   0  0  0  0  0  0  0  0  0  0  0  0
    2.6870    8.3230  -15.2780 O   0  0  0  0  0  0  0  0  0  0  0  0
   -0.3230    7.3410  -15.5850 H   0  0  0  0  0  0  0  0  0  0  0  0
   -1.0070    5.4860  -11.8090 H   0  0  0  0  0  0  0  0  0  0  0  0
   -2.2130    5.8620  -15.2970 H   0  0  0  0  0  0  0  0  0  0  0  0
   -1.2690    4.4490  -14.5780 H   0  0  0  0  0  0  0  0  0  0  0  0
   -2.5650    5.1940  -13.6180 H   0  0  0  0  0  0  0  0  0  0  0  0
    1.0000    9.3240  -15.6930 H   0  0  0  0  0  0  0  0  0  0  0  0
    1.0310   10.7110  -12.1600 H   0  0  0  0  0  0  0  0  0  0  0  0
    2.7840   10.7470  -12.0810 H   0  0  0  0  0  0  0  0  0  0  0  0
    1.7240   12.1650  -15.1680 H   0  0  0  0  0  0  0  0  0  0  0  0
    0.2240   11.3530  -14.8240 H   0  0  0  0  0  0  0  0  0  0  0  0
    1.2090   12.0680  -12.3410 H   0  0  0  0  0  0  0  0  0  0  0  0
   -1.1130   12.3730  -12.9330 H   0  0  0  0  0  0  0  0  0  0  0  0
   -0.5580   13.1820  -14.4160 H   0  0  0  0  0  0  0  0  0  0  0  0
   -0.9500   14.3010  -11.7020 H   0  0  0  0  0  0  0  0  0  0  0  0
   -0.7330   15.1420  -13.2500 H   0  0  0  0  0  0  0  0  0  0  0  0
    1.3910   14.1280  -11.3320 H   0  0  0  0  0  0  0  0  0  0  0  0
    1.4580   15.6000  -12.4410 H   0  0  0  0  0  0  0  0  0  0  0  0
    1.6120   14.1520  -14.3930 H   0  0  0  0  0  0  0  0  0  0  0  0
    2.8460   13.5630  -13.1980 H   0  0  0  0  0  0  0  0  0  0  0  0
    4.0950    9.6370  -13.9770 H   0  0  0  0  0  0  0  0  0  0  0  0
    3.7430   10.5510  -15.4080 H   0  0  0  0  0  0  0  0  0  0  0  0
    3.9300   12.6210  -14.2050 H   0  0  0  0  0  0  0  0  0  0  0  0
    3.2550   12.7470  -12.2430 H   0  0  0  0  0  0  0  0  0  0  0  0
    3.5090   11.0520  -11.8720 H   0  0  0  0  0  0  0  0  0  0  0  0
    5.3490   13.4330  -11.6960 H   0  0  0  0  0  0  0  0  0  0  0  0
    5.3630   11.9160  -10.7030 H   0  0  0  0  0  0  0  0  0  0  0  0
    7.1800   12.4790  -12.7150 H   0  0  0  0  0  0  0  0  0  0  0  0
    6.7650   10.8180  -12.1970 H   0  0  0  0  0  0  0  0  0  0  0  0
    6.1170   10.6790  -14.3360 H   0  0  0  0  0  0  0  0  0  0  0  0
    6.0540   12.4120  -14.6330 H   0  0  0  0  0  0  0  0  0  0  0  0
    2.4130    7.8120  -16.0590 H   0  0  0  0  0  0  0  0  0  0  0  0
  2  1  1  0  0  0  0
  3 12  1  0  0  0  0
  3  2  2  0  0  0  0
  4  3  1  0  0  0  0
  5  4  2  0  0  0  0
  5  6  1  0  0  0  0
  6  7  2  0  0  0  0
  7  2  1  0  0  0  0
  7 27  1  0  0  0  0
  8  6  1  0  0  0  0
  8 30  1  0  0  0  0
  9 31  1  6  0  0  0
  9 10  1  0  0  0  0
  9  4  1  0  0  0  0
 10 11  1  0  0  0  0
 11 32  1  0  0  0  0
 11 12  1  0  0  0  0
 11 33  1  0  0  0  0
 13 10  1  0  0  0  0
 13 14  1  0  0  0  0
 14 36  1  0  0  0  0
 15 14  1  0  0  0  0
 15 37  1  0  0  0  0
 15 16  1  0  0  0  0
 16 17  1  0  0  0  0
 16 39  1  0  0  0  0
 17 41  1  0  0  0  0
 18 14  1  0  0  0  0
 18 44  1  0  0  0  0
 18 17  1  0  0  0  0
 19 10  1  0  0  0  0
 19 45  1  0  0  0  0
 19 20  1  0  0  0  0
 20 21  1  0  0  0  0
 21 48  1  0  0  0  0
 21 49  1  0  0  0  0
 21 22  1  0  0  0  0
 22 50  1  0  0  0  0
 22 51  1  0  0  0  0
 23 53  1  0  0  0  0
 23 22  1  0  0  0  0
 24 20  1  0  0  0  0
 24 23  1  0  0  0  0
 25  9  1  0  0  0  0
 26  5  1  0  0  0  0
 28  8  1  0  0  0  0
 29  8  1  0  0  0  0
 34 13  1  0  0  0  0
 35 13  1  0  0  0  0
 38 15  1  0  0  0  0
 40 16  1  0  0  0  0
 42 17  1  0  0  0  0
 43 18  1  0  0  0  0
 46 19  1  0  0  0  0
 47 20  1  0  0  0  0
 52 23  1  0  0  0  0
 54 24  1  0  0  0  0
 55 24  1  0  0  0  0
 56 25  1  0  0  0  0
M  END
>  <Pose>
1

>  <Score>
-2.18

$$$$
