
 OpenBabel03162216103D

 43 46  0  0  0  0  0  0  0  0999 V2000
    2.7080   12.9170  -13.9040 B   0  0  0  0  0  0  0  0  0  0  0  0
    1.6300   11.3880  -13.5480 C   0  0  0  0  0  0  0  0  0  0  0  0
    0.2710   11.3850  -13.7100 N   0  0  0  0  0  0  0  0  0  0  0  0
   -0.1110   10.1400  -13.3620 C   0  0  0  0  0  0  0  0  0  0  0  0
    0.9810    9.3740  -12.9870 C   0  0  0  0  0  0  0  0  0  0  0  0
    2.0490   10.1900  -13.1180 N   0  0  0  0  0  0  0  0  0  0  0  0
    0.9050    8.0900  -12.5960 N   0  0  0  0  0  0  0  0  0  0  0  0
   -0.3220    7.5390  -12.5780 C   0  0  0  0  0  0  0  0  0  0  0  0
   -0.4470    6.3220  -12.2130 O   0  0  0  0  0  0  0  0  0  0  0  0
   -1.4090    8.2460  -12.9350 N   0  0  0  0  0  0  0  0  0  0  0  0
   -1.3360    9.5470  -13.3320 C   0  0  0  0  0  0  0  0  0  0  0  0
   -2.3550   10.1890  -13.6630 O   0  0  0  0  0  0  0  0  0  0  0  0
    2.0510    7.2980  -12.2050 C   0  0  0  0  0  0  0  0  0  0  0  0
   -0.5090   12.5120  -14.1780 C   0  0  0  0  0  0  0  0  0  0  0  0
   -0.4840   13.6940  -13.2540 C   0  0  0  0  0  0  0  0  0  0  0  0
   -0.6500   15.0230  -13.9340 C   0  0  0  0  0  0  0  0  0  0  0  0
   -0.8500   16.0700  -12.9400 N   0  0  0  0  0  0  0  0  0  0  0  0
   -1.8750   16.9470  -12.8390 C   0  0  0  0  0  0  0  0  0  0  0  0
   -1.6890   17.7750  -11.7570 C   0  0  0  0  0  0  0  0  0  0  0  0
   -0.5280   17.3850  -11.1990 N   0  0  0  0  0  0  0  0  0  0  0  0
   -0.0290   16.3570  -11.9180 C   0  0  0  0  0  0  0  0  0  0  0  0
    1.5960   15.4100  -11.5840 B   0  0  0  0  0  0  0  0  0  0  0  0
   -2.5490   18.7490  -11.4060 N   0  0  0  0  0  0  0  0  0  0  0  0
   -3.6480   18.8950  -12.1860 C   0  0  0  0  0  0  0  0  0  0  0  0
   -4.4620   19.8120  -11.8580 O   0  0  0  0  0  0  0  0  0  0  0  0
   -3.8690   18.1040  -13.2570 N   0  0  0  0  0  0  0  0  0  0  0  0
   -3.0010   17.1300  -13.5980 C   0  0  0  0  0  0  0  0  0  0  0  0
   -3.1770   16.3780  -14.5880 O   0  0  0  0  0  0  0  0  0  0  0  0
   -2.3090   19.6050  -10.2470 C   0  0  0  0  0  0  0  0  0  0  0  0
   -2.3670    7.8340  -12.9270 H   0  0  0  0  0  0  0  0  0  0  0  0
    2.9350    7.9360  -11.9940 H   0  0  0  0  0  0  0  0  0  0  0  0
    1.8090    6.8080  -11.2190 H   0  0  0  0  0  0  0  0  0  0  0  0
    2.3420    6.5550  -12.9730 H   0  0  0  0  0  0  0  0  0  0  0  0
   -1.5440   12.1840  -14.4220 H   0  0  0  0  0  0  0  0  0  0  0  0
   -0.0180   12.8600  -15.1330 H   0  0  0  0  0  0  0  0  0  0  0  0
    0.4100   13.6840  -12.5920 H   0  0  0  0  0  0  0  0  0  0  0  0
   -1.3620   13.5940  -12.5480 H   0  0  0  0  0  0  0  0  0  0  0  0
    0.3260   15.2900  -14.4380 H   0  0  0  0  0  0  0  0  0  0  0  0
   -1.4630   15.0220  -14.6570 H   0  0  0  0  0  0  0  0  0  0  0  0
   -4.7300   18.2610  -13.8170 H   0  0  0  0  0  0  0  0  0  0  0  0
   -2.3480   19.0210   -9.3040 H   0  0  0  0  0  0  0  0  0  0  0  0
   -1.3150   20.0900  -10.3000 H   0  0  0  0  0  0  0  0  0  0  0  0
   -3.1300   20.3390  -10.2150 H   0  0  0  0  0  0  0  0  0  0  0  0
  1  2  1  0  0  0  0
  2  6  2  0  0  0  0
  3  2  1  0  0  0  0
  3  4  1  0  0  0  0
  4 11  1  0  0  0  0
  4  5  2  0  0  0  0
  5  7  1  0  0  0  0
  6  5  1  0  0  0  0
  7  8  1  0  0  0  0
  7 13  1  0  0  0  0
  8  9  2  0  0  0  0
 10 30  1  0  0  0  0
 10  8  1  0  0  0  0
 11 10  1  0  0  0  0
 12 11  2  0  0  0  0
 13 31  1  0  0  0  0
 13 32  1  0  0  0  0
 14  3  1  0  0  0  0
 14 15  1  0  0  0  0
 15 36  1  0  0  0  0
 15 37  1  0  0  0  0
 16 15  1  0  0  0  0
 16 17  1  0  0  0  0
 17 18  1  0  0  0  0
 17 21  1  0  0  0  0
 18 19  2  0  0  0  0
 19 23  1  0  0  0  0
 19 20  1  0  0  0  0
 21 22  1  0  0  0  0
 21 20  2  0  0  0  0
 23 29  1  0  0  0  0
 24 25  2  0  0  0  0
 24 23  1  0  0  0  0
 26 24  1  0  0  0  0
 27 26  1  0  0  0  0
 27 18  1  0  0  0  0
 28 27  2  0  0  0  0
 29 43  1  0  0  0  0
 29 41  1  0  0  0  0
 33 13  1  0  0  0  0
 34 14  1  0  0  0  0
 35 14  1  0  0  0  0
 38 16  1  0  0  0  0
 39 16  1  0  0  0  0
 40 26  1  0  0  0  0
 42 29  1  0  0  0  0
M  END
>  <Pose>
1

>  <Score>
-7.19

$$$$
