
 OpenBabel03232203513D

 40 44  0  0  0  0  0  0  0  0999 V2000
    1.7880   15.7290  -11.3990 B   0  0  0  0  0  0  0  0  0  0  0  0
    1.4550   14.0460  -12.2380 C   0  0  0  0  0  0  0  0  0  0  0  0
    0.2570   13.7160  -12.7770 N   0  0  0  0  0  0  0  0  0  0  0  0
    0.4010   12.4640  -13.2710 C   0  0  0  0  0  0  0  0  0  0  0  0
    1.6960   12.0060  -13.0410 C   0  0  0  0  0  0  0  0  0  0  0  0
    2.3100   13.0240  -12.3970 N   0  0  0  0  0  0  0  0  0  0  0  0
    2.0830   10.7840  -13.4490 N   0  0  0  0  0  0  0  0  0  0  0  0
    1.2250    9.9740  -14.0930 C   0  0  0  0  0  0  0  0  0  0  0  0
    1.5830    8.8170  -14.4820 O   0  0  0  0  0  0  0  0  0  0  0  0
   -0.0380   10.3650  -14.3450 N   0  0  0  0  0  0  0  0  0  0  0  0
   -0.4340   11.5970  -13.9340 C   0  0  0  0  0  0  0  0  0  0  0  0
   -1.6130   12.0020  -14.1550 O   0  0  0  0  0  0  0  0  0  0  0  0
    3.4250   10.3020  -13.2130 C   0  0  0  0  0  0  0  0  0  0  0  0
   -0.8890   14.5580  -12.8080 C   0  0  0  0  0  0  0  0  0  0  0  0
   -0.6750   15.9790  -13.1890 C   0  0  0  0  0  0  0  0  0  0  0  0
   -1.2630   16.9900  -12.3820 N   0  0  0  0  0  0  0  0  0  0  0  0
   -2.4040   17.6620  -12.6070 C   0  0  0  0  0  0  0  0  0  0  0  0
   -2.6060   18.5620  -11.5820 C   0  0  0  0  0  0  0  0  0  0  0  0
   -1.5510   18.3890  -10.7590 N   0  0  0  0  0  0  0  0  0  0  0  0
   -0.7270   17.4510  -11.2140 C   0  0  0  0  0  0  0  0  0  0  0  0
    0.9110   16.8370  -10.4070 B   0  0  0  0  0  0  0  0  0  0  0  0
   -3.6840   19.3450  -11.5780 N   0  0  0  0  0  0  0  0  0  0  0  0
   -4.5800   19.2700  -12.5650 C   0  0  0  0  0  0  0  0  0  0  0  0
   -5.6210   20.0080  -12.5900 O   0  0  0  0  0  0  0  0  0  0  0  0
   -4.4560   18.4190  -13.5990 N   0  0  0  0  0  0  0  0  0  0  0  0
   -3.3720   17.6320  -13.5990 C   0  0  0  0  0  0  0  0  0  0  0  0
   -3.2490   16.8350  -14.5550 O   0  0  0  0  0  0  0  0  0  0  0  0
   -3.9070   20.2930  -10.5120 C   0  0  0  0  0  0  0  0  0  0  0  0
   -0.7200    9.7530  -14.8420 H   0  0  0  0  0  0  0  0  0  0  0  0
    3.9190   10.1300  -14.2040 H   0  0  0  0  0  0  0  0  0  0  0  0
    3.3460    9.3800  -12.6180 H   0  0  0  0  0  0  0  0  0  0  0  0
    3.9890   11.0570  -12.6120 H   0  0  0  0  0  0  0  0  0  0  0  0
   -1.4910   14.4590  -11.8730 H   0  0  0  0  0  0  0  0  0  0  0  0
   -1.5970   14.1410  -13.5950 H   0  0  0  0  0  0  0  0  0  0  0  0
   -0.9320   16.0860  -14.2770 H   0  0  0  0  0  0  0  0  0  0  0  0
    0.4480   16.1440  -13.1510 H   0  0  0  0  0  0  0  0  0  0  0  0
   -5.1810   18.3840  -14.3600 H   0  0  0  0  0  0  0  0  0  0  0  0
   -3.4000   19.8940   -9.6130 H   0  0  0  0  0  0  0  0  0  0  0  0
   -3.5530   21.3030  -10.7310 H   0  0  0  0  0  0  0  0  0  0  0  0
   -4.9910   20.3580  -10.2420 H   0  0  0  0  0  0  0  0  0  0  0  0
  1 21  1  0  0  0  0
  2  1  1  0  0  0  0
  3  2  1  0  0  0  0
  4  5  2  0  0  0  0
  4  3  1  0  0  0  0
  5  6  1  0  0  0  0
  6  2  2  0  0  0  0
  7 13  1  0  0  0  0
  7  5  1  0  0  0  0
  8  7  1  0  0  0  0
  9  8  2  0  0  0  0
 10  8  1  0  0  0  0
 10 11  1  0  0  0  0
 11  4  1  0  0  0  0
 12 11  2  0  0  0  0
 13 31  1  0  0  0  0
 13 32  1  0  0  0  0
 14  3  1  0  0  0  0
 14 33  1  0  0  0  0
 15 36  1  0  0  0  0
 15 14  1  0  0  0  0
 15 16  1  0  0  0  0
 16 20  1  0  0  0  0
 17 16  1  0  0  0  0
 17 18  2  0  0  0  0
 18 22  1  0  0  0  0
 18 19  1  0  0  0  0
 20 19  2  0  0  0  0
 20 21  1  0  0  0  0
 22 28  1  0  0  0  0
 23 22  1  0  0  0  0
 24 23  2  0  0  0  0
 25 26  1  0  0  0  0
 25 23  1  0  0  0  0
 26 17  1  0  0  0  0
 27 26  2  0  0  0  0
 28 40  1  0  0  0  0
 28 38  1  0  0  0  0
 29 10  1  0  0  0  0
 30 13  1  0  0  0  0
 34 14  1  0  0  0  0
 35 15  1  0  0  0  0
 37 25  1  0  0  0  0
 39 28  1  0  0  0  0
M  END
>  <Pose>
1

>  <Score>
-7.12

$$$$
