
 OpenBabel03232203513D

 37 40  0  0  1  0  0  0  0  0999 V2000
    2.8600    9.2290  -13.7980 B   0  0  0  0  0  0  0  0  0  0  0  0
    1.3480   10.3810  -13.7080 C   0  0  0  0  0  0  0  0  0  0  0  0
    1.3190   11.7140  -13.9270 N   0  0  0  0  0  0  0  0  0  0  0  0
    0.1030   12.1940  -13.8110 N   0  0  0  0  0  0  0  0  0  0  0  0
   -0.6860   11.1480  -13.5080 C   0  0  0  0  0  0  0  0  0  0  0  0
   -2.0030   11.0590  -13.2960 N   0  0  0  0  0  0  0  0  0  0  0  0
   -2.5920    9.8820  -13.0180 C   0  0  0  0  0  0  0  0  0  0  0  0
   -1.8670    8.7520  -12.9430 N   0  0  0  0  0  0  0  0  0  0  0  0
   -0.5140    8.7640  -13.1470 C   0  0  0  0  0  0  0  0  0  0  0  0
    0.0660    9.9690  -13.4300 C   0  0  0  0  0  0  0  0  0  0  0  0
    0.2170    7.5370  -12.9960 N   0  0  0  0  0  0  0  0  0  0  0  0
   -0.1630    6.3400  -13.6780 C   0  0  1  0  0  0  0  0  0  0  0  0
    0.1710    5.1060  -12.9320 C   0  0  0  0  0  0  0  0  0  0  0  0
    0.9580    5.2380  -11.8210 O   0  0  0  0  0  0  0  0  0  0  0  0
    1.9400    6.2130  -11.9620 C   0  0  0  0  0  0  0  0  0  0  0  0
    1.3620    7.5800  -12.1400 C   0  0  0  0  0  0  0  0  0  0  0  0
   -1.5700    6.3950  -14.1360 C   0  0  0  0  0  0  0  0  0  0  0  0
   -2.1250    7.3750  -14.8500 N   0  0  0  0  0  0  0  0  0  0  0  0
   -3.4260    7.0180  -15.0460 C   0  0  0  0  0  0  0  0  0  0  0  0
   -3.5930    5.8320  -14.4350 N   0  0  0  0  0  0  0  0  0  0  0  0
   -2.4630    5.4790  -13.8960 O   0  0  0  0  0  0  0  0  0  0  0  0
   -4.4630    7.7770  -15.7830 C   0  0  0  0  0  0  0  0  0  0  0  0
   -0.2900   13.5810  -13.9810 C   0  0  0  0  0  0  0  0  0  0  0  0
   -3.6760    9.8920  -12.8580 H   0  0  0  0  0  0  0  0  0  0  0  0
    0.5210    6.3130  -14.6110 H   0  0  0  0  0  0  0  0  0  0  0  0
    0.5650    4.2870  -13.6100 H   0  0  0  0  0  0  0  0  0  0  0  0
   -0.8090    4.6640  -12.5750 H   0  0  0  0  0  0  0  0  0  0  0  0
    2.5280    6.2100  -11.0190 H   0  0  0  0  0  0  0  0  0  0  0  0
    2.6700    5.9490  -12.7680 H   0  0  0  0  0  0  0  0  0  0  0  0
    1.1560    8.0880  -11.1670 H   0  0  0  0  0  0  0  0  0  0  0  0
    2.1020    8.2670  -12.6550 H   0  0  0  0  0  0  0  0  0  0  0  0
   -4.2440    8.8770  -15.6680 H   0  0  0  0  0  0  0  0  0  0  0  0
   -5.4760    7.6080  -15.3750 H   0  0  0  0  0  0  0  0  0  0  0  0
   -4.4530    7.5490  -16.8770 H   0  0  0  0  0  0  0  0  0  0  0  0
    0.6070   14.2260  -13.9100 H   0  0  0  0  0  0  0  0  0  0  0  0
   -0.9980   13.8620  -13.1610 H   0  0  0  0  0  0  0  0  0  0  0  0
   -0.7330   13.7670  -14.9920 H   0  0  0  0  0  0  0  0  0  0  0  0
  1  2  1  0  0  0  0
  2 10  1  0  0  0  0
  3  4  1  0  0  0  0
  3  2  2  0  0  0  0
  4  5  1  0  0  0  0
  5 10  2  0  0  0  0
  5  6  1  0  0  0  0
  6  7  2  0  0  0  0
  7  8  1  0  0  0  0
  7 24  1  0  0  0  0
  9 11  1  0  0  0  0
  9  8  2  0  0  0  0
 10  9  1  0  0  0  0
 11 16  1  0  0  0  0
 12 25  1  6  0  0  0
 12 11  1  0  0  0  0
 12 13  1  0  0  0  0
 13 27  1  0  0  0  0
 13 14  1  0  0  0  0
 15 14  1  0  0  0  0
 15 28  1  0  0  0  0
 16 15  1  0  0  0  0
 16 30  1  0  0  0  0
 17 21  1  0  0  0  0
 17 12  1  0  0  0  0
 18 17  2  0  0  0  0
 19 18  1  0  0  0  0
 19 20  2  0  0  0  0
 20 21  1  0  0  0  0
 22 32  1  0  0  0  0
 22 33  1  0  0  0  0
 22 19  1  0  0  0  0
 23 35  1  0  0  0  0
 23  4  1  0  0  0  0
 23 36  1  0  0  0  0
 26 13  1  0  0  0  0
 29 15  1  0  0  0  0
 31 16  1  0  0  0  0
 34 22  1  0  0  0  0
 37 23  1  0  0  0  0
M  END
>  <Pose>
1

>  <Score>
-4.82

$$$$
