
 OpenBabel03232203513D

 35 38  0  0  0  0  0  0  0  0999 V2000
   -4.1910   17.7530  -14.3850 B   0  0  0  0  0  0  0  0  0  0  0  0
   -4.1880   18.8210  -12.8090 C   0  0  0  0  0  0  0  0  0  0  0  0
   -5.2250   19.5860  -12.3590 N   0  0  0  0  0  0  0  0  0  0  0  0
   -4.8660   20.1610  -11.2350 N   0  0  0  0  0  0  0  0  0  0  0  0
   -3.6120   19.8020  -10.9180 C   0  0  0  0  0  0  0  0  0  0  0  0
   -2.7930   20.0900   -9.8940 N   0  0  0  0  0  0  0  0  0  0  0  0
   -1.5680   19.5800   -9.8080 C   0  0  0  0  0  0  0  0  0  0  0  0
   -1.1260   18.7600  -10.7570 N   0  0  0  0  0  0  0  0  0  0  0  0
   -1.8800   18.3990  -11.8480 C   0  0  0  0  0  0  0  0  0  0  0  0
   -3.1420   18.9340  -11.9180 C   0  0  0  0  0  0  0  0  0  0  0  0
   -1.3590   17.5680  -12.8390 N   0  0  0  0  0  0  0  0  0  0  0  0
   -0.2490   17.9890  -13.6650 C   0  0  0  0  0  0  0  0  0  0  0  0
    0.9870   17.1810  -13.2160 C   0  0  0  0  0  0  0  0  0  0  0  0
    0.5710   15.8030  -12.8770 C   0  0  0  0  0  0  0  0  0  0  0  0
    1.3810   14.7630  -12.5700 N   0  0  0  0  0  0  0  0  0  0  0  0
    0.6030   13.6950  -12.3290 C   0  0  0  0  0  0  0  0  0  0  0  0
   -0.6810   14.0190  -12.4710 N   0  0  0  0  0  0  0  0  0  0  0  0
   -0.7030   15.3270  -12.8110 C   0  0  0  0  0  0  0  0  0  0  0  0
   -1.8400   16.2350  -13.0980 C   0  0  0  0  0  0  0  0  0  0  0  0
    2.8200   14.7440  -12.5000 C   0  0  0  0  0  0  0  0  0  0  0  0
   -5.6540   21.0710  -10.3910 C   0  0  0  0  0  0  0  0  0  0  0  0
   -0.9420   19.8280   -8.9800 H   0  0  0  0  0  0  0  0  0  0  0  0
    0.0200   19.0470  -13.5580 H   0  0  0  0  0  0  0  0  0  0  0  0
   -0.4240   17.7860  -14.7490 H   0  0  0  0  0  0  0  0  0  0  0  0
    1.4660   17.6530  -12.3380 H   0  0  0  0  0  0  0  0  0  0  0  0
    1.7020   17.2330  -14.0560 H   0  0  0  0  0  0  0  0  0  0  0  0
    0.9350   12.6830  -12.0510 H   0  0  0  0  0  0  0  0  0  0  0  0
   -2.7500   15.9810  -12.5200 H   0  0  0  0  0  0  0  0  0  0  0  0
   -2.0310   16.1390  -14.2070 H   0  0  0  0  0  0  0  0  0  0  0  0
    3.1780   14.1790  -11.6120 H   0  0  0  0  0  0  0  0  0  0  0  0
    3.2330   14.2070  -13.3870 H   0  0  0  0  0  0  0  0  0  0  0  0
    3.2310   15.7780  -12.4190 H   0  0  0  0  0  0  0  0  0  0  0  0
   -5.6980   20.6760   -9.3570 H   0  0  0  0  0  0  0  0  0  0  0  0
   -6.6590   21.1920  -10.8330 H   0  0  0  0  0  0  0  0  0  0  0  0
   -5.1760   22.0770  -10.3920 H   0  0  0  0  0  0  0  0  0  0  0  0
  1  2  1  0  0  0  0
  2  3  2  0  0  0  0
  2 10  1  0  0  0  0
  3  4  1  0  0  0  0
  4  5  1  0  0  0  0
  4 21  1  0  0  0  0
  5  6  1  0  0  0  0
  6  7  2  0  0  0  0
  7 22  1  0  0  0  0
  8  7  1  0  0  0  0
  9  8  2  0  0  0  0
 10  9  1  0  0  0  0
 10  5  2  0  0  0  0
 11  9  1  0  0  0  0
 12 23  1  0  0  0  0
 12 13  1  0  0  0  0
 12 11  1  0  0  0  0
 13 14  1  0  0  0  0
 13 25  1  0  0  0  0
 14 18  2  0  0  0  0
 14 15  1  0  0  0  0
 15 20  1  0  0  0  0
 15 16  1  0  0  0  0
 16 27  1  0  0  0  0
 17 16  2  0  0  0  0
 18 17  1  0  0  0  0
 19 11  1  0  0  0  0
 19 18  1  0  0  0  0
 19 28  1  0  0  0  0
 20 32  1  0  0  0  0
 20 30  1  0  0  0  0
 21 33  1  0  0  0  0
 24 12  1  0  0  0  0
 26 13  1  0  0  0  0
 29 19  1  0  0  0  0
 31 20  1  0  0  0  0
 34 21  1  0  0  0  0
 35 21  1  0  0  0  0
M  END
>  <Pose>
1

>  <Score>
-5.86

$$$$
