
 OpenBabel03232203513D

 53 56  0  0  1  0  0  0  0  0999 V2000
   -6.9490    8.6480  -16.0850 B   0  0  0  0  0  0  0  0  0  0  0  0
   -7.9550   10.2510  -15.9780 C   0  0  0  0  0  0  0  0  0  0  0  0
   -8.7730   10.7890  -16.9010 N   0  0  0  0  0  0  0  0  0  0  0  0
   -9.2900   11.9170  -16.4940 N   0  0  0  0  0  0  0  0  0  0  0  0
   -8.8110   12.1560  -15.2580 C   0  0  0  0  0  0  0  0  0  0  0  0
   -8.9920   13.1580  -14.3800 N   0  0  0  0  0  0  0  0  0  0  0  0
   -8.3880   13.1850  -13.1890 C   0  0  0  0  0  0  0  0  0  0  0  0
   -7.5780   12.1900  -12.8510 N   0  0  0  0  0  0  0  0  0  0  0  0
   -7.3310   11.1370  -13.6660 C   0  0  0  0  0  0  0  0  0  0  0  0
   -7.9610   11.1120  -14.9050 C   0  0  0  0  0  0  0  0  0  0  0  0
   -6.4980   10.0860  -13.2650 N   0  0  0  0  0  0  0  0  0  0  0  0
   -6.0370    9.9630  -11.9120 C   0  0  0  0  0  0  0  0  0  0  0  0
   -4.5510   10.3260  -11.9640 C   0  0  0  0  0  0  0  0  0  0  0  0
   -4.0280   10.1950  -13.3280 N   0  0  0  0  0  0  0  0  0  0  0  0
   -4.5380    8.9600  -13.9300 C   0  0  0  0  0  0  0  0  0  0  0  0
   -6.0280    9.0850  -14.1920 C   0  0  0  0  0  0  0  0  0  0  0  0
   -2.5830   10.0780  -13.2050 C   0  0  2  0  0  0  0  0  0  0  0  0
   -1.9660   11.1010  -14.1970 C   0  0  0  0  0  0  0  0  0  0  0  0
   -2.1230    8.7300  -13.5790 C   0  0  0  0  0  0  0  0  0  0  0  0
   -3.0200    8.0360  -14.2180 O   0  0  0  0  0  0  0  0  0  0  0  0
   -0.8800    8.1250  -13.3330 N   0  0  0  0  0  0  0  0  0  0  0  0
   -0.6020    6.9070  -12.6340 C   0  0  0  0  0  0  0  0  0  0  0  0
    0.5480    6.9990  -11.6520 C   0  0  0  0  0  0  0  0  0  0  0  0
    1.6570    7.8950  -12.0830 C   0  0  0  0  0  0  0  0  0  0  0  0
    1.1530    9.1940  -12.6740 C   0  0  0  0  0  0  0  0  0  0  0  0
    0.3160    8.8150  -13.8680 C   0  0  0  0  0  0  0  0  0  0  0  0
  -10.2140   12.8150  -17.1710 C   0  0  0  0  0  0  0  0  0  0  0  0
   -8.5620   14.0320  -12.4870 H   0  0  0  0  0  0  0  0  0  0  0  0
   -6.0000    8.8520  -11.6770 H   0  0  0  0  0  0  0  0  0  0  0  0
   -6.5720   10.5410  -11.1630 H   0  0  0  0  0  0  0  0  0  0  0  0
   -4.4820   11.4010  -11.7120 H   0  0  0  0  0  0  0  0  0  0  0  0
   -3.9510    9.7720  -11.2210 H   0  0  0  0  0  0  0  0  0  0  0  0
   -4.0360    8.8460  -14.9020 H   0  0  0  0  0  0  0  0  0  0  0  0
   -4.3770    8.0930  -13.2820 H   0  0  0  0  0  0  0  0  0  0  0  0
   -6.2370    9.2830  -15.2370 H   0  0  0  0  0  0  0  0  0  0  0  0
   -6.5360    8.1200  -13.8920 H   0  0  0  0  0  0  0  0  0  0  0  0
   -2.2520   10.3200  -12.1930 H   0  0  0  0  0  0  0  0  0  0  0  0
   -2.6590   11.2600  -15.0450 H   0  0  0  0  0  0  0  0  0  0  0  0
   -1.0290   10.6990  -14.6150 H   0  0  0  0  0  0  0  0  0  0  0  0
   -1.7500   12.0450  -13.6800 H   0  0  0  0  0  0  0  0  0  0  0  0
   -0.2870    6.1710  -13.4450 H   0  0  0  0  0  0  0  0  0  0  0  0
   -1.4360    6.4510  -12.1150 H   0  0  0  0  0  0  0  0  0  0  0  0
    0.9740    5.9620  -11.5790 H   0  0  0  0  0  0  0  0  0  0  0  0
    0.1790    7.2330  -10.6460 H   0  0  0  0  0  0  0  0  0  0  0  0
    2.3040    7.3770  -12.8120 H   0  0  0  0  0  0  0  0  0  0  0  0
    2.2740    8.1420  -11.2060 H   0  0  0  0  0  0  0  0  0  0  0  0
    0.5520    9.7310  -11.9000 H   0  0  0  0  0  0  0  0  0  0  0  0
    2.0300    9.7960  -12.9620 H   0  0  0  0  0  0  0  0  0  0  0  0
    0.0470    9.6750  -14.4880 H   0  0  0  0  0  0  0  0  0  0  0  0
    0.8910    8.0920  -14.4750 H   0  0  0  0  0  0  0  0  0  0  0  0
   -9.7230   13.7930  -17.4120 H   0  0  0  0  0  0  0  0  0  0  0  0
  -11.0310   13.0360  -16.4640 H   0  0  0  0  0  0  0  0  0  0  0  0
  -10.5450   12.3950  -18.1330 H   0  0  0  0  0  0  0  0  0  0  0  0
  1  2  1  0  0  0  0
  2 10  1  0  0  0  0
  3  4  1  0  0  0  0
  3  2  2  0  0  0  0
  4  5  1  0  0  0  0
  5 10  2  0  0  0  0
  5  6  1  0  0  0  0
  6  7  2  0  0  0  0
  7  8  1  0  0  0  0
  7 28  1  0  0  0  0
  9 11  1  0  0  0  0
  9  8  2  0  0  0  0
 10  9  1  0  0  0  0
 11 12  1  0  0  0  0
 12 29  1  0  0  0  0
 12 30  1  0  0  0  0
 13 12  1  0  0  0  0
 13 31  1  0  0  0  0
 13 32  1  0  0  0  0
 14 17  1  0  0  0  0
 14 13  1  0  0  0  0
 15 14  1  0  0  0  0
 15 34  1  0  0  0  0
 16 15  1  0  0  0  0
 16 36  1  0  0  0  0
 16 11  1  0  0  0  0
 17 37  1  1  0  0  0
 18 40  1  0  0  0  0
 18 17  1  0  0  0  0
 19 21  1  0  0  0  0
 19 17  1  0  0  0  0
 20 19  2  0  0  0  0
 21 22  1  0  0  0  0
 22 42  1  0  0  0  0
 22 23  1  0  0  0  0
 23 43  1  0  0  0  0
 23 44  1  0  0  0  0
 24 23  1  0  0  0  0
 24 46  1  0  0  0  0
 25 24  1  0  0  0  0
 25 47  1  0  0  0  0
 26 21  1  0  0  0  0
 26 25  1  0  0  0  0
 27  4  1  0  0  0  0
 27 52  1  0  0  0  0
 33 15  1  0  0  0  0
 35 16  1  0  0  0  0
 38 18  1  0  0  0  0
 39 18  1  0  0  0  0
 41 22  1  0  0  0  0
 45 24  1  0  0  0  0
 48 25  1  0  0  0  0
 49 26  1  0  0  0  0
 50 26  1  0  0  0  0
 51 27  1  0  0  0  0
 53 27  1  0  0  0  0
M  END
>  <Pose>
1

>  <Score>
-4.23

$$$$
