
 OpenBabel03232203513D

 49 52  0  0  0  0  0  0  0  0999 V2000
   -2.3330   18.6150  -11.3500 B   0  0  0  0  0  0  0  0  0  0  0  0
   -1.1170   17.2060  -11.8380 C   0  0  0  0  0  0  0  0  0  0  0  0
   -0.0730   16.7720  -11.1980 O   0  0  0  0  0  0  0  0  0  0  0  0
    0.5200   15.8050  -11.8170 C   0  0  0  0  0  0  0  0  0  0  0  0
   -0.1890   15.5490  -12.9960 C   0  0  0  0  0  0  0  0  0  0  0  0
   -1.2280   16.4560  -12.9870 C   0  0  0  0  0  0  0  0  0  0  0  0
    1.7010   15.0990  -11.3870 C   0  0  0  0  0  0  0  0  0  0  0  0
    2.0380   15.1620  -10.1680 O   0  0  0  0  0  0  0  0  0  0  0  0
    2.5160   14.3290  -12.2600 N   0  0  0  0  0  0  0  0  0  0  0  0
    2.5300   12.9000  -12.2380 C   0  0  0  0  0  0  0  0  0  0  0  0
    3.6360   12.3010  -13.0510 C   0  0  0  0  0  0  0  0  0  0  0  0
    3.6010   10.8300  -13.0800 C   0  0  0  0  0  0  0  0  0  0  0  0
    4.6290   10.2250  -12.6270 O   0  0  0  0  0  0  0  0  0  0  0  0
    2.4950   10.0900  -13.5800 N   0  0  0  0  0  0  0  0  0  0  0  0
    2.3860    9.8440  -14.9920 C   0  0  0  0  0  0  0  0  0  0  0  0
    1.7480    8.5330  -15.3360 C   0  0  0  0  0  0  0  0  0  0  0  0
    0.8500    8.0010  -14.2580 C   0  0  0  0  0  0  0  0  0  0  0  0
   -0.1960    7.2000  -14.8170 N   0  0  0  0  0  0  0  0  0  0  0  0
   -1.1220    6.6890  -13.8640 C   0  0  0  0  0  0  0  0  0  0  0  0
   -0.5170    6.1350  -12.6170 C   0  0  0  0  0  0  0  0  0  0  0  0
    0.9660    6.2250  -12.5970 C   0  0  0  0  0  0  0  0  0  0  0  0
    1.8850    5.5510  -11.9040 N   0  0  0  0  0  0  0  0  0  0  0  0
    3.1040    5.9970  -12.2350 C   0  0  0  0  0  0  0  0  0  0  0  0
    2.9760    6.9690  -13.1480 N   0  0  0  0  0  0  0  0  0  0  0  0
    1.6650    7.1140  -13.3750 C   0  0  0  0  0  0  0  0  0  0  0  0
    0.3300    9.1420  -13.3980 C   0  0  0  0  0  0  0  0  0  0  0  0
    1.5240    9.6190  -12.5980 C   0  0  0  0  0  0  0  0  0  0  0  0
    0.0280   14.8160  -13.7400 H   0  0  0  0  0  0  0  0  0  0  0  0
   -2.0150   16.5790  -13.7450 H   0  0  0  0  0  0  0  0  0  0  0  0
    3.1200   14.8370  -12.9340 H   0  0  0  0  0  0  0  0  0  0  0  0
    2.5350   12.4920  -11.2100 H   0  0  0  0  0  0  0  0  0  0  0  0
    1.5440   12.5630  -12.6740 H   0  0  0  0  0  0  0  0  0  0  0  0
    3.4870   12.6500  -14.1110 H   0  0  0  0  0  0  0  0  0  0  0  0
    4.6100   12.7190  -12.7310 H   0  0  0  0  0  0  0  0  0  0  0  0
    3.3970    9.9390  -15.4360 H   0  0  0  0  0  0  0  0  0  0  0  0
    1.7660   10.6570  -15.4270 H   0  0  0  0  0  0  0  0  0  0  0  0
    2.5570    7.7920  -15.5010 H   0  0  0  0  0  0  0  0  0  0  0  0
    1.1740    8.5730  -16.2870 H   0  0  0  0  0  0  0  0  0  0  0  0
   -0.7150    7.7820  -15.5100 H   0  0  0  0  0  0  0  0  0  0  0  0
   -1.6730    5.8390  -14.3630 H   0  0  0  0  0  0  0  0  0  0  0  0
   -1.9210    7.4280  -13.6190 H   0  0  0  0  0  0  0  0  0  0  0  0
   -0.9130    6.7000  -11.7300 H   0  0  0  0  0  0  0  0  0  0  0  0
   -0.7860    5.0750  -12.4280 H   0  0  0  0  0  0  0  0  0  0  0  0
    4.0760    5.6700  -11.8630 H   0  0  0  0  0  0  0  0  0  0  0  0
    3.7660    7.5240  -13.6100 H   0  0  0  0  0  0  0  0  0  0  0  0
   -0.5110    8.8320  -12.7590 H   0  0  0  0  0  0  0  0  0  0  0  0
    0.0330   10.0170  -14.0450 H   0  0  0  0  0  0  0  0  0  0  0  0
    2.0020    8.8170  -12.0170 H   0  0  0  0  0  0  0  0  0  0  0  0
    1.1600   10.4560  -11.9690 H   0  0  0  0  0  0  0  0  0  0  0  0
  2  1  1  0  0  0  0
  2  3  1  0  0  0  0
  4  7  1  0  0  0  0
  4  3  1  0  0  0  0
  5  6  1  0  0  0  0
  5  4  2  0  0  0  0
  6  2  2  0  0  0  0
  7  8  2  0  0  0  0
  9 10  1  0  0  0  0
  9  7  1  0  0  0  0
 10 31  1  0  0  0  0
 11 34  1  0  0  0  0
 11 10  1  0  0  0  0
 12 11  1  0  0  0  0
 12 13  2  0  0  0  0
 14 12  1  0  0  0  0
 14 27  1  0  0  0  0
 15 14  1  0  0  0  0
 16 15  1  0  0  0  0
 16 17  1  0  0  0  0
 17 26  1  0  0  0  0
 17 25  1  0  0  0  0
 18 17  1  0  0  0  0
 18 19  1  0  0  0  0
 19 41  1  0  0  0  0
 19 20  1  0  0  0  0
 20 21  1  0  0  0  0
 20 43  1  0  0  0  0
 20 42  1  0  0  0  0
 21 22  1  0  0  0  0
 23 22  2  0  0  0  0
 23 44  1  0  0  0  0
 24 23  1  0  0  0  0
 25 24  1  0  0  0  0
 25 21  2  0  0  0  0
 26 46  1  0  0  0  0
 26 27  1  0  0  0  0
 27 48  1  0  0  0  0
 27 49  1  0  0  0  0
 28  5  1  0  0  0  0
 29  6  1  0  0  0  0
 30  9  1  0  0  0  0
 32 10  1  0  0  0  0
 33 11  1  0  0  0  0
 35 15  1  0  0  0  0
 36 15  1  0  0  0  0
 37 16  1  0  0  0  0
 38 16  1  0  0  0  0
 39 18  1  0  0  0  0
 40 19  1  0  0  0  0
 45 24  1  0  0  0  0
 47 26  1  0  0  0  0
M  END
>  <Pose>
1

>  <Score>
-7.41

$$$$
