
 OpenBabel03232203513D

 49 52  0  0  0  0  0  0  0  0999 V2000
   -5.5240   21.2760   -9.6270 B   0  0  0  0  0  0  0  0  0  0  0  0
   -4.5160   20.0630  -10.7460 C   0  0  0  0  0  0  0  0  0  0  0  0
   -3.4870   19.3620  -10.4320 O   0  0  0  0  0  0  0  0  0  0  0  0
   -3.0570   18.6520  -11.4300 C   0  0  0  0  0  0  0  0  0  0  0  0
   -3.8840   18.9120  -12.4980 C   0  0  0  0  0  0  0  0  0  0  0  0
   -4.8190   19.8160  -12.0630 C   0  0  0  0  0  0  0  0  0  0  0  0
   -1.9100   17.7270  -11.4670 C   0  0  0  0  0  0  0  0  0  0  0  0
   -1.0290   17.8370  -10.6010 O   0  0  0  0  0  0  0  0  0  0  0  0
   -1.7980   16.7260  -12.4630 N   0  0  0  0  0  0  0  0  0  0  0  0
   -2.5890   15.5160  -12.3600 C   0  0  0  0  0  0  0  0  0  0  0  0
   -1.7290   14.2790  -12.2740 C   0  0  0  0  0  0  0  0  0  0  0  0
   -0.4890   14.5830  -13.0060 N   0  0  0  0  0  0  0  0  0  0  0  0
   -0.6270   15.4080  -14.1570 C   0  0  0  0  0  0  0  0  0  0  0  0
   -0.9250   16.8190  -13.6170 C   0  0  0  0  0  0  0  0  0  0  0  0
    0.7080   14.0270  -12.4930 C   0  0  0  0  0  0  0  0  0  0  0  0
    1.1510   12.8010  -12.8890 N   0  0  0  0  0  0  0  0  0  0  0  0
    2.2820   12.2610  -12.4100 C   0  0  0  0  0  0  0  0  0  0  0  0
    3.0230   12.9350  -11.5030 N   0  0  0  0  0  0  0  0  0  0  0  0
    2.6650   14.1500  -11.0550 C   0  0  0  0  0  0  0  0  0  0  0  0
    1.4770   14.6840  -11.5760 C   0  0  0  0  0  0  0  0  0  0  0  0
    3.4660   14.9100  -10.0570 C   0  0  0  0  0  0  0  0  0  0  0  0
    2.7010   10.9820  -12.8550 N   0  0  0  0  0  0  0  0  0  0  0  0
    2.0780    9.7530  -12.4280 C   0  0  0  0  0  0  0  0  0  0  0  0
    1.6860    8.9340  -13.6220 C   0  0  0  0  0  0  0  0  0  0  0  0
    2.2120    9.4230  -14.8160 O   0  0  0  0  0  0  0  0  0  0  0  0
    3.5710    9.6940  -14.6810 C   0  0  0  0  0  0  0  0  0  0  0  0
    3.8060   10.8850  -13.7840 C   0  0  0  0  0  0  0  0  0  0  0  0
   -3.8120   18.4810  -13.5110 H   0  0  0  0  0  0  0  0  0  0  0  0
   -5.6320   20.2390  -12.6590 H   0  0  0  0  0  0  0  0  0  0  0  0
   -3.3140   15.4180  -13.1920 H   0  0  0  0  0  0  0  0  0  0  0  0
   -3.2000   15.5310  -11.4100 H   0  0  0  0  0  0  0  0  0  0  0  0
   -1.4910   13.9950  -11.2500 H   0  0  0  0  0  0  0  0  0  0  0  0
   -2.1890   13.4260  -12.8540 H   0  0  0  0  0  0  0  0  0  0  0  0
    0.2930   15.4270  -14.7450 H   0  0  0  0  0  0  0  0  0  0  0  0
   -1.5080   15.0830  -14.7660 H   0  0  0  0  0  0  0  0  0  0  0  0
    0.0490   17.2550  -13.4190 H   0  0  0  0  0  0  0  0  0  0  0  0
   -1.4410   17.4400  -14.3750 H   0  0  0  0  0  0  0  0  0  0  0  0
    1.2120   15.6550  -11.2010 H   0  0  0  0  0  0  0  0  0  0  0  0
    2.8690   15.0920   -9.1410 H   0  0  0  0  0  0  0  0  0  0  0  0
    4.4020   14.3800   -9.8890 H   0  0  0  0  0  0  0  0  0  0  0  0
    3.6960   15.8980  -10.5200 H   0  0  0  0  0  0  0  0  0  0  0  0
    1.1480    9.9630  -11.8330 H   0  0  0  0  0  0  0  0  0  0  0  0
    2.7800    9.1670  -11.7800 H   0  0  0  0  0  0  0  0  0  0  0  0
    2.0720    7.8830  -13.5080 H   0  0  0  0  0  0  0  0  0  0  0  0
    0.5840    8.8670  -13.7210 H   0  0  0  0  0  0  0  0  0  0  0  0
    3.9980    9.9020  -15.6770 H   0  0  0  0  0  0  0  0  0  0  0  0
    4.1000    8.7840  -14.2880 H   0  0  0  0  0  0  0  0  0  0  0  0
    3.9130   11.8050  -14.4040 H   0  0  0  0  0  0  0  0  0  0  0  0
    4.7520   10.7040  -13.2130 H   0  0  0  0  0  0  0  0  0  0  0  0
  2  3  1  0  0  0  0
  2  1  1  0  0  0  0
  4  3  1  0  0  0  0
  5  6  1  0  0  0  0
  5  4  2  0  0  0  0
  6  2  2  0  0  0  0
  7  4  1  0  0  0  0
  7  8  2  0  0  0  0
  9 10  1  0  0  0  0
  9  7  1  0  0  0  0
 10 11  1  0  0  0  0
 10 31  1  0  0  0  0
 11 32  1  0  0  0  0
 12 15  1  0  0  0  0
 12 11  1  0  0  0  0
 13 14  1  0  0  0  0
 13 12  1  0  0  0  0
 14 36  1  0  0  0  0
 14  9  1  0  0  0  0
 15 20  2  0  0  0  0
 16 15  1  0  0  0  0
 16 17  2  0  0  0  0
 17 18  1  0  0  0  0
 18 19  2  0  0  0  0
 19 21  1  0  0  0  0
 20 38  1  0  0  0  0
 20 19  1  0  0  0  0
 21 40  1  0  0  0  0
 21 39  1  0  0  0  0
 22 23  1  0  0  0  0
 22 17  1  0  0  0  0
 23 42  1  0  0  0  0
 23 43  1  0  0  0  0
 24 44  1  0  0  0  0
 24 23  1  0  0  0  0
 25 26  1  0  0  0  0
 25 24  1  0  0  0  0
 26 47  1  0  0  0  0
 26 27  1  0  0  0  0
 27 49  1  0  0  0  0
 27 22  1  0  0  0  0
 28  5  1  0  0  0  0
 29  6  1  0  0  0  0
 30 10  1  0  0  0  0
 33 11  1  0  0  0  0
 34 13  1  0  0  0  0
 35 13  1  0  0  0  0
 37 14  1  0  0  0  0
 41 21  1  0  0  0  0
 45 24  1  0  0  0  0
 46 26  1  0  0  0  0
 48 27  1  0  0  0  0
M  END
>  <Pose>
1

>  <Score>
-5.92

$$$$
