
 OpenBabel03232203513D

 53 56  0  0  0  0  0  0  0  0999 V2000
   -6.1670   21.4990   -9.9730 B   0  0  0  0  0  0  0  0  0  0  0  0
   -4.9780   20.3050  -10.8750 C   0  0  0  0  0  0  0  0  0  0  0  0
   -3.8770   19.7990  -10.3800 O   0  0  0  0  0  0  0  0  0  0  0  0
   -3.2660   19.0120  -11.2290 C   0  0  0  0  0  0  0  0  0  0  0  0
   -4.0330   19.0040  -12.3700 C   0  0  0  0  0  0  0  0  0  0  0  0
   -5.1160   19.8180  -12.1570 C   0  0  0  0  0  0  0  0  0  0  0  0
   -2.0000   18.2760  -11.0030 C   0  0  0  0  0  0  0  0  0  0  0  0
   -1.1470   18.7450  -10.2360 O   0  0  0  0  0  0  0  0  0  0  0  0
   -1.7840   17.0420  -11.6700 N   0  0  0  0  0  0  0  0  0  0  0  0
   -1.8580   15.7790  -10.9410 C   0  0  0  0  0  0  0  0  0  0  0  0
   -1.5210   14.6170  -11.8740 C   0  0  0  0  0  0  0  0  0  0  0  0
   -0.2840   14.9540  -12.5490 N   0  0  0  0  0  0  0  0  0  0  0  0
   -0.2240   16.1690  -13.3150 C   0  0  0  0  0  0  0  0  0  0  0  0
   -1.4830   16.9650  -13.0860 C   0  0  0  0  0  0  0  0  0  0  0  0
    0.8670   14.1030  -12.4670 C   0  0  0  0  0  0  0  0  0  0  0  0
    1.9820   14.4870  -11.8300 N   0  0  0  0  0  0  0  0  0  0  0  0
    3.0410   13.6720  -11.7700 C   0  0  0  0  0  0  0  0  0  0  0  0
    3.0300   12.4520  -12.3420 N   0  0  0  0  0  0  0  0  0  0  0  0
    1.9440   12.0050  -12.9970 C   0  0  0  0  0  0  0  0  0  0  0  0
    0.8630   12.8600  -13.0460 C   0  0  0  0  0  0  0  0  0  0  0  0
    1.8830   10.7320  -13.6140 N   0  0  0  0  0  0  0  0  0  0  0  0
    0.8180    9.8080  -13.2830 C   0  0  0  0  0  0  0  0  0  0  0  0
    0.8500    8.6970  -14.3110 C   0  0  0  0  0  0  0  0  0  0  0  0
    2.1160    8.0210  -14.2220 N   0  0  0  0  0  0  0  0  0  0  0  0
    3.2580    8.8800  -14.1850 C   0  0  0  0  0  0  0  0  0  0  0  0
    2.8590   10.2830  -14.5890 C   0  0  0  0  0  0  0  0  0  0  0  0
    2.0750    7.0330  -13.1750 C   0  0  0  0  0  0  0  0  0  0  0  0
    4.2700   14.1060  -11.0610 C   0  0  0  0  0  0  0  0  0  0  0  0
   -3.8310   18.4610  -13.2780 H   0  0  0  0  0  0  0  0  0  0  0  0
   -5.9410   20.0500  -12.8520 H   0  0  0  0  0  0  0  0  0  0  0  0
   -2.8550   15.6360  -10.4970 H   0  0  0  0  0  0  0  0  0  0  0  0
   -1.1190   15.8050  -10.1110 H   0  0  0  0  0  0  0  0  0  0  0  0
   -1.4020   13.6950  -11.3030 H   0  0  0  0  0  0  0  0  0  0  0  0
   -2.3500   14.5550  -12.6140 H   0  0  0  0  0  0  0  0  0  0  0  0
    0.6860   16.7570  -13.0420 H   0  0  0  0  0  0  0  0  0  0  0  0
   -0.1950   15.9020  -14.4080 H   0  0  0  0  0  0  0  0  0  0  0  0
   -1.4230   17.9540  -13.5580 H   0  0  0  0  0  0  0  0  0  0  0  0
   -2.3200   16.3990  -13.5640 H   0  0  0  0  0  0  0  0  0  0  0  0
   -0.0350   12.5460  -13.5610 H   0  0  0  0  0  0  0  0  0  0  0  0
    0.9810    9.3960  -12.2780 H   0  0  0  0  0  0  0  0  0  0  0  0
   -0.1350   10.3750  -13.3180 H   0  0  0  0  0  0  0  0  0  0  0  0
    0.0410    7.9930  -14.0460 H   0  0  0  0  0  0  0  0  0  0  0  0
    0.6590    9.1130  -15.3140 H   0  0  0  0  0  0  0  0  0  0  0  0
    4.0460    8.5220  -14.8780 H   0  0  0  0  0  0  0  0  0  0  0  0
    3.6980    8.9260  -13.1760 H   0  0  0  0  0  0  0  0  0  0  0  0
    2.3420   10.2360  -15.5790 H   0  0  0  0  0  0  0  0  0  0  0  0
    3.7250   10.9720  -14.6090 H   0  0  0  0  0  0  0  0  0  0  0  0
    1.0640    6.8710  -12.7930 H   0  0  0  0  0  0  0  0  0  0  0  0
    2.4510    6.0660  -13.6010 H   0  0  0  0  0  0  0  0  0  0  0  0
    2.7520    7.3380  -12.3480 H   0  0  0  0  0  0  0  0  0  0  0  0
    4.7160   13.2260  -10.5540 H   0  0  0  0  0  0  0  0  0  0  0  0
    4.9960   14.5290  -11.7850 H   0  0  0  0  0  0  0  0  0  0  0  0
    4.0080   14.8260  -10.2660 H   0  0  0  0  0  0  0  0  0  0  0  0
  2  3  1  0  0  0  0
  2  1  1  0  0  0  0
  4  7  1  0  0  0  0
  4  3  1  0  0  0  0
  5  6  1  0  0  0  0
  5  4  2  0  0  0  0
  6  2  2  0  0  0  0
  7  8  2  0  0  0  0
  9  7  1  0  0  0  0
  9 10  1  0  0  0  0
 10 31  1  0  0  0  0
 10 32  1  0  0  0  0
 11 33  1  0  0  0  0
 11 10  1  0  0  0  0
 12 15  1  0  0  0  0
 12 11  1  0  0  0  0
 13 14  1  0  0  0  0
 13 35  1  0  0  0  0
 13 12  1  0  0  0  0
 14  9  1  0  0  0  0
 15 16  1  0  0  0  0
 16 17  2  0  0  0  0
 17 28  1  0  0  0  0
 18 17  1  0  0  0  0
 19 18  2  0  0  0  0
 20 19  1  0  0  0  0
 20 15  2  0  0  0  0
 21 22  1  0  0  0  0
 21 19  1  0  0  0  0
 22 40  1  0  0  0  0
 23 24  1  0  0  0  0
 23 42  1  0  0  0  0
 23 22  1  0  0  0  0
 24 25  1  0  0  0  0
 24 27  1  0  0  0  0
 25 45  1  0  0  0  0
 26 25  1  0  0  0  0
 26 21  1  0  0  0  0
 27 48  1  0  0  0  0
 27 50  1  0  0  0  0
 28 51  1  0  0  0  0
 28 53  1  0  0  0  0
 29  5  1  0  0  0  0
 30  6  1  0  0  0  0
 34 11  1  0  0  0  0
 36 13  1  0  0  0  0
 37 14  1  0  0  0  0
 38 14  1  0  0  0  0
 39 20  1  0  0  0  0
 41 22  1  0  0  0  0
 43 23  1  0  0  0  0
 44 25  1  0  0  0  0
 46 26  1  0  0  0  0
 47 26  1  0  0  0  0
 49 27  1  0  0  0  0
 52 28  1  0  0  0  0
M  END
>  <Pose>
1

>  <Score>
-6.01

$$$$
