
 OpenBabel03232203513D

 43 46  0  0  0  0  0  0  0  0999 V2000
   -1.8330    5.4250  -14.0280 B   0  0  0  0  0  0  0  0  0  0  0  0
   -0.3130    6.3450  -13.3640 C   0  0  0  0  0  0  0  0  0  0  0  0
    0.1730    7.4910  -13.7340 O   0  0  0  0  0  0  0  0  0  0  0  0
    1.2410    7.8230  -13.0530 C   0  0  0  0  0  0  0  0  0  0  0  0
    1.4700    6.7950  -12.1560 C   0  0  0  0  0  0  0  0  0  0  0  0
    0.4850    5.8350  -12.3380 C   0  0  0  0  0  0  0  0  0  0  0  0
    2.0490    9.0280  -13.1890 C   0  0  0  0  0  0  0  0  0  0  0  0
    2.9740    9.3010  -14.1370 N   0  0  0  0  0  0  0  0  0  0  0  0
    3.4830   10.4810  -13.9220 O   0  0  0  0  0  0  0  0  0  0  0  0
    2.9390   11.0230  -12.8630 C   0  0  0  0  0  0  0  0  0  0  0  0
    2.0560   10.1250  -12.4120 N   0  0  0  0  0  0  0  0  0  0  0  0
    3.2950   12.3440  -12.3580 C   0  0  0  0  0  0  0  0  0  0  0  0
    4.4650   12.5510  -11.8880 O   0  0  0  0  0  0  0  0  0  0  0  0
    2.3740   13.4290  -12.3690 N   0  0  0  0  0  0  0  0  0  0  0  0
    2.2600   14.3280  -11.2720 C   0  0  0  0  0  0  0  0  0  0  0  0
    1.8750   15.7300  -11.6950 C   0  0  0  0  0  0  0  0  0  0  0  0
    0.5150   16.0510  -11.2880 N   0  0  0  0  0  0  0  0  0  0  0  0
   -0.4230   16.4170  -12.2690 C   0  0  0  0  0  0  0  0  0  0  0  0
   -0.2430   15.8860  -13.4230 O   0  0  0  0  0  0  0  0  0  0  0  0
   -1.5480   17.3060  -12.1330 C   0  0  0  0  0  0  0  0  0  0  0  0
   -1.5850   18.1720  -11.0410 C   0  0  0  0  0  0  0  0  0  0  0  0
   -2.6400   19.0370  -10.8930 C   0  0  0  0  0  0  0  0  0  0  0  0
   -3.6490   19.0510  -11.8050 C   0  0  0  0  0  0  0  0  0  0  0  0
   -4.7210   19.9340  -11.6490 C   0  0  0  0  0  0  0  0  0  0  0  0
   -4.7930   20.8030  -10.5880 C   0  0  0  0  0  0  0  0  0  0  0  0
   -3.7730   20.7820   -9.6710 C   0  0  0  0  0  0  0  0  0  0  0  0
   -2.7090   19.9190   -9.8100 C   0  0  0  0  0  0  0  0  0  0  0  0
   -3.5850   18.2310  -12.8140 O   0  0  0  0  0  0  0  0  0  0  0  0
   -2.5950   17.3700  -13.0180 C   0  0  0  0  0  0  0  0  0  0  0  0
   -2.6560   16.6350  -14.0310 O   0  0  0  0  0  0  0  0  0  0  0  0
    2.2760    6.7870  -11.4660 H   0  0  0  0  0  0  0  0  0  0  0  0
    0.3710    4.9010  -11.7950 H   0  0  0  0  0  0  0  0  0  0  0  0
    1.7730   13.5600  -13.2030 H   0  0  0  0  0  0  0  0  0  0  0  0
    3.2780   14.4130  -10.8000 H   0  0  0  0  0  0  0  0  0  0  0  0
    1.5930   13.9400  -10.4790 H   0  0  0  0  0  0  0  0  0  0  0  0
    2.5410   16.4290  -11.1460 H   0  0  0  0  0  0  0  0  0  0  0  0
    2.0410   15.8860  -12.7770 H   0  0  0  0  0  0  0  0  0  0  0  0
    0.2210   16.0130  -10.2960 H   0  0  0  0  0  0  0  0  0  0  0  0
   -0.7840   18.1740  -10.2980 H   0  0  0  0  0  0  0  0  0  0  0  0
   -5.5030   19.9200  -12.3900 H   0  0  0  0  0  0  0  0  0  0  0  0
   -5.6370   21.4670  -10.5050 H   0  0  0  0  0  0  0  0  0  0  0  0
   -3.8200   21.4590   -8.8340 H   0  0  0  0  0  0  0  0  0  0  0  0
   -1.9030   19.8960   -9.0950 H   0  0  0  0  0  0  0  0  0  0  0  0
  1  2  1  0  0  0  0
  2  6  2  0  0  0  0
  3  2  1  0  0  0  0
  3  4  1  0  0  0  0
  4  5  2  0  0  0  0
  5 31  1  0  0  0  0
  6  5  1  0  0  0  0
  6 32  1  0  0  0  0
  7  4  1  0  0  0  0
  7 11  1  0  0  0  0
  8  9  1  0  0  0  0
  8  7  2  0  0  0  0
  9 10  1  0  0  0  0
 10 11  2  0  0  0  0
 10 12  1  0  0  0  0
 12 13  2  0  0  0  0
 14 12  1  0  0  0  0
 14 15  1  0  0  0  0
 15 34  1  0  0  0  0
 15 35  1  0  0  0  0
 16 17  1  0  0  0  0
 16 15  1  0  0  0  0
 16 36  1  0  0  0  0
 17 38  1  0  0  0  0
 18 20  1  0  0  0  0
 18 17  1  0  0  0  0
 19 18  2  0  0  0  0
 20 21  2  0  0  0  0
 21 22  1  0  0  0  0
 21 39  1  0  0  0  0
 22 27  1  0  0  0  0
 23 24  1  0  0  0  0
 23 22  2  0  0  0  0
 24 25  2  0  0  0  0
 25 41  1  0  0  0  0
 25 26  1  0  0  0  0
 26 42  1  0  0  0  0
 27 26  2  0  0  0  0
 27 43  1  0  0  0  0
 28 23  1  0  0  0  0
 29 28  1  0  0  0  0
 29 20  1  0  0  0  0
 30 29  2  0  0  0  0
 33 14  1  0  0  0  0
 37 16  1  0  0  0  0
 40 24  1  0  0  0  0
M  END
>  <Pose>
1

>  <Score>
-8.58

$$$$
