
 OpenBabel03232203513D

 43 46  0  0  0  0  0  0  0  0999 V2000
   -1.6620   18.3690  -11.3640 B   0  0  0  0  0  0  0  0  0  0  0  0
   -0.9290   16.8570  -12.2160 C   0  0  0  0  0  0  0  0  0  0  0  0
    0.0840   16.0990  -11.6200 C   0  0  0  0  0  0  0  0  0  0  0  0
    0.5850   15.0090  -12.2790 C   0  0  0  0  0  0  0  0  0  0  0  0
    0.0380   14.7210  -13.5330 C   0  0  0  0  0  0  0  0  0  0  0  0
   -0.9000   15.4530  -14.0440 O   0  0  0  0  0  0  0  0  0  0  0  0
   -1.3940   16.4840  -13.4530 C   0  0  0  0  0  0  0  0  0  0  0  0
   -2.3020   17.1330  -14.0330 O   0  0  0  0  0  0  0  0  0  0  0  0
    1.6340   14.1610  -11.7470 C   0  0  0  0  0  0  0  0  0  0  0  0
    2.1520   14.6490  -10.6360 O   0  0  0  0  0  0  0  0  0  0  0  0
    2.1760   12.9600  -12.1820 N   0  0  0  0  0  0  0  0  0  0  0  0
    1.3030   11.7600  -12.2420 C   0  0  0  0  0  0  0  0  0  0  0  0
    1.3410   11.2040  -13.6450 C   0  0  0  0  0  0  0  0  0  0  0  0
    2.6710   10.9000  -14.0000 N   0  0  0  0  0  0  0  0  0  0  0  0
    3.5930   11.2220  -12.9650 C   0  0  0  0  0  0  0  0  0  0  0  0
    3.5060   12.7220  -12.5930 C   0  0  0  0  0  0  0  0  0  0  0  0
    2.8980    9.6030  -14.5510 C   0  0  0  0  0  0  0  0  0  0  0  0
    1.9650    8.5500  -14.1110 C   0  0  0  0  0  0  0  0  0  0  0  0
    0.8590    8.1600  -14.7940 C   0  0  0  0  0  0  0  0  0  0  0  0
    0.0460    7.1700  -14.3000 C   0  0  0  0  0  0  0  0  0  0  0  0
    0.3540    6.5740  -13.1070 C   0  0  0  0  0  0  0  0  0  0  0  0
    1.4710    6.9530  -12.3970 C   0  0  0  0  0  0  0  0  0  0  0  0
    2.2570    7.9340  -12.9080 C   0  0  0  0  0  0  0  0  0  0  0  0
   -0.5980    5.6140  -12.8100 O   0  0  0  0  0  0  0  0  0  0  0  0
   -1.7060    5.8810  -13.6570 C   0  0  0  0  0  0  0  0  0  0  0  0
   -1.1340    6.5630  -14.7570 O   0  0  0  0  0  0  0  0  0  0  0  0
    0.4110   16.4270  -10.6620 H   0  0  0  0  0  0  0  0  0  0  0  0
    0.3990   13.8490  -14.1220 H   0  0  0  0  0  0  0  0  0  0  0  0
    0.2680   12.0880  -11.9850 H   0  0  0  0  0  0  0  0  0  0  0  0
    1.6470   11.0150  -11.5280 H   0  0  0  0  0  0  0  0  0  0  0  0
    0.6880   10.2760  -13.6680 H   0  0  0  0  0  0  0  0  0  0  0  0
    0.8120   11.8860  -14.3610 H   0  0  0  0  0  0  0  0  0  0  0  0
    3.5250   10.6670  -12.0350 H   0  0  0  0  0  0  0  0  0  0  0  0
    4.6200   11.0570  -13.3970 H   0  0  0  0  0  0  0  0  0  0  0  0
    3.8700   13.2830  -13.4650 H   0  0  0  0  0  0  0  0  0  0  0  0
    4.2320   12.9010  -11.7510 H   0  0  0  0  0  0  0  0  0  0  0  0
    2.7550    9.6970  -15.6690 H   0  0  0  0  0  0  0  0  0  0  0  0
    3.9330    9.2400  -14.4300 H   0  0  0  0  0  0  0  0  0  0  0  0
    0.6000    8.6120  -15.7330 H   0  0  0  0  0  0  0  0  0  0  0  0
    1.7050    6.4770  -11.4590 H   0  0  0  0  0  0  0  0  0  0  0  0
    3.1350    8.2210  -12.3370 H   0  0  0  0  0  0  0  0  0  0  0  0
   -2.4980    6.4430  -13.1650 H   0  0  0  0  0  0  0  0  0  0  0  0
   -2.1410    4.9420  -14.0630 H   0  0  0  0  0  0  0  0  0  0  0  0
  2  3  2  0  0  0  0
  2  1  1  0  0  0  0
  3 27  1  0  0  0  0
  4  9  1  0  0  0  0
  4  3  1  0  0  0  0
  5  4  2  0  0  0  0
  6  5  1  0  0  0  0
  6  7  1  0  0  0  0
  7  2  1  0  0  0  0
  8  7  2  0  0  0  0
  9 10  2  0  0  0  0
 11  9  1  0  0  0  0
 12 11  1  0  0  0  0
 12 29  1  0  0  0  0
 12 30  1  0  0  0  0
 13 12  1  0  0  0  0
 14 13  1  0  0  0  0
 14 15  1  0  0  0  0
 15 16  1  0  0  0  0
 15 33  1  0  0  0  0
 16 11  1  0  0  0  0
 16 36  1  0  0  0  0
 17 38  1  0  0  0  0
 17 18  1  0  0  0  0
 17 14  1  0  0  0  0
 18 23  1  0  0  0  0
 19 20  1  0  0  0  0
 19 18  2  0  0  0  0
 20 21  2  0  0  0  0
 21 24  1  0  0  0  0
 21 22  1  0  0  0  0
 22 40  1  0  0  0  0
 23 22  2  0  0  0  0
 23 41  1  0  0  0  0
 25 42  1  0  0  0  0
 25 24  1  0  0  0  0
 26 20  1  0  0  0  0
 26 25  1  0  0  0  0
 28  5  1  0  0  0  0
 31 13  1  0  0  0  0
 32 13  1  0  0  0  0
 34 15  1  0  0  0  0
 35 16  1  0  0  0  0
 37 17  1  0  0  0  0
 39 19  1  0  0  0  0
 43 25  1  0  0  0  0
M  END
>  <Pose>
1

>  <Score>
-5.84

$$$$
