
 OpenBabel03232203513D

 63 66  0  0  1  0  0  0  0  0999 V2000
    3.9950    8.9530  -14.4910 B   0  0  0  0  0  0  0  0  0  0  0  0
    2.3630    8.5140  -13.6170 C   0  0  0  0  0  0  0  0  0  0  0  0
    1.3480    9.4370  -13.6280 C   0  0  0  0  0  0  0  0  0  0  0  0
    0.1580    9.2230  -13.0390 N   0  0  0  0  0  0  0  0  0  0  0  0
    0.0300    8.0090  -12.4240 C   0  0  0  0  0  0  0  0  0  0  0  0
   -1.0620    7.7330  -11.8460 O   0  0  0  0  0  0  0  0  0  0  0  0
    0.9890    7.0970  -12.3930 N   0  0  0  0  0  0  0  0  0  0  0  0
    2.1780    7.3110  -12.9820 C   0  0  0  0  0  0  0  0  0  0  0  0
    3.1110    6.4710  -12.9770 O   0  0  0  0  0  0  0  0  0  0  0  0
   -0.9170   10.1620  -13.0340 C   0  0  2  0  0  0  0  0  0  0  0  0
   -1.1050   10.8490  -14.3930 C   0  0  2  0  0  0  0  0  0  0  0  0
   -0.1900   12.0210  -14.4790 C   0  0  0  0  0  0  0  0  0  0  0  0
   -0.5790   13.0170  -13.4090 C   0  0  0  0  0  0  0  0  0  0  0  0
   -1.3340   12.4470  -12.4000 O   0  0  0  0  0  0  0  0  0  0  0  0
   -0.8560   11.2140  -11.9770 C   0  0  0  0  0  0  0  0  0  0  0  0
    0.6620   13.6820  -12.9360 C   0  0  0  0  0  0  0  0  0  0  0  0
    0.2780   14.7240  -11.8750 C   0  0  0  0  0  0  0  0  0  0  0  0
   -0.4610   15.7540  -12.5270 N   0  0  0  0  0  0  0  0  0  0  0  0
   -0.8390   15.4460  -13.9470 C   0  0  0  0  0  0  0  0  0  0  0  0
   -1.4320   14.0810  -14.0650 C   0  0  0  0  0  0  0  0  0  0  0  0
   -0.8460   16.9620  -11.9780 C   0  0  0  0  0  0  0  0  0  0  0  0
   -0.0030   17.4790  -11.1090 O   0  0  0  0  0  0  0  0  0  0  0  0
   -2.0060   17.7530  -12.1910 C   0  0  0  0  0  0  0  0  0  0  0  0
   -2.3470   18.7670  -11.2770 C   0  0  0  0  0  0  0  0  0  0  0  0
   -3.4160   19.5990  -11.3790 C   0  0  0  0  0  0  0  0  0  0  0  0
   -4.2470   19.4190  -12.5040 C   0  0  0  0  0  0  0  0  0  0  0  0
   -3.9400   18.4510  -13.3970 C   0  0  0  0  0  0  0  0  0  0  0  0
   -2.8250   17.6050  -13.2630 C   0  0  0  0  0  0  0  0  0  0  0  0
   -3.7160   20.5680  -10.4690 O   0  0  0  0  0  0  0  0  0  0  0  0
   -4.8580   20.8560   -9.7810 C   0  0  0  0  0  0  0  0  0  0  0  0
   -6.0390   21.0540  -10.6680 C   0  0  0  0  0  0  0  0  0  0  0  0
   -7.1180   21.6900   -9.9120 N   0  0  0  0  0  0  0  0  0  0  0  0
   -2.4170   11.3280  -14.4120 O   0  0  0  0  0  0  0  0  0  0  0  0
   -0.9580    9.8750  -15.5170 C   0  0  0  0  0  0  0  0  0  0  0  0
    1.4980   10.3630  -14.1200 H   0  0  0  0  0  0  0  0  0  0  0  0
    0.8620    6.1800  -11.9160 H   0  0  0  0  0  0  0  0  0  0  0  0
   -1.8710    9.5650  -12.9080 H   0  0  0  0  0  0  0  0  0  0  0  0
    0.8860   11.7670  -14.4470 H   0  0  0  0  0  0  0  0  0  0  0  0
   -0.3420   12.4740  -15.5040 H   0  0  0  0  0  0  0  0  0  0  0  0
    0.1160   11.3740  -11.5150 H   0  0  0  0  0  0  0  0  0  0  0  0
   -1.5440   10.9090  -11.1320 H   0  0  0  0  0  0  0  0  0  0  0  0
    1.1380   14.2200  -13.7630 H   0  0  0  0  0  0  0  0  0  0  0  0
    1.4210   12.9860  -12.5250 H   0  0  0  0  0  0  0  0  0  0  0  0
    1.2760   15.0930  -11.4910 H   0  0  0  0  0  0  0  0  0  0  0  0
   -0.2570   14.1630  -11.0940 H   0  0  0  0  0  0  0  0  0  0  0  0
    0.0050   15.6090  -14.6170 H   0  0  0  0  0  0  0  0  0  0  0  0
   -1.5980   16.2160  -14.2180 H   0  0  0  0  0  0  0  0  0  0  0  0
   -2.4530   14.1400  -13.5870 H   0  0  0  0  0  0  0  0  0  0  0  0
   -1.6000   13.8590  -15.1450 H   0  0  0  0  0  0  0  0  0  0  0  0
   -1.6850   18.8950  -10.4470 H   0  0  0  0  0  0  0  0  0  0  0  0
   -5.0910   20.0860  -12.5720 H   0  0  0  0  0  0  0  0  0  0  0  0
   -4.5940   18.3260  -14.2630 H   0  0  0  0  0  0  0  0  0  0  0  0
   -2.7120   16.9040  -14.0510 H   0  0  0  0  0  0  0  0  0  0  0  0
   -4.7180   21.8400   -9.2230 H   0  0  0  0  0  0  0  0  0  0  0  0
   -5.0840   20.0580   -9.0120 H   0  0  0  0  0  0  0  0  0  0  0  0
   -5.9070   21.6380  -11.5670 H   0  0  0  0  0  0  0  0  0  0  0  0
   -6.4630   20.0380  -10.9250 H   0  0  0  0  0  0  0  0  0  0  0  0
   -8.0490   21.3990  -10.2440 H   0  0  0  0  0  0  0  0  0  0  0  0
   -6.9880   22.7000   -9.8030 H   0  0  0  0  0  0  0  0  0  0  0  0
   -2.8330   11.2790  -15.3090 H   0  0  0  0  0  0  0  0  0  0  0  0
   -0.0850    9.2130  -15.4360 H   0  0  0  0  0  0  0  0  0  0  0  0
   -1.9100    9.3010  -15.5940 H   0  0  0  0  0  0  0  0  0  0  0  0
   -0.8820   10.4610  -16.4600 H   0  0  0  0  0  0  0  0  0  0  0  0
  1  2  1  0  0  0  0
  2  8  1  0  0  0  0
  3  2  2  0  0  0  0
  3  4  1  0  0  0  0
  4 10  1  0  0  0  0
  4  5  1  0  0  0  0
  5  7  1  0  0  0  0
  5  6  2  0  0  0  0
  7 36  1  0  0  0  0
  8  9  2  0  0  0  0
  8  7  1  0  0  0  0
 10 37  1  1  0  0  0
 10 15  1  0  0  0  0
 11 33  1  6  0  0  0
 11 10  1  0  0  0  0
 12 38  1  0  0  0  0
 12 11  1  0  0  0  0
 12 13  1  0  0  0  0
 13 16  1  0  0  0  0
 13 14  1  0  0  0  0
 14 15  1  0  0  0  0
 15 40  1  0  0  0  0
 15 41  1  0  0  0  0
 16 43  1  0  0  0  0
 16 17  1  0  0  0  0
 17 44  1  0  0  0  0
 17 45  1  0  0  0  0
 18 21  1  0  0  0  0
 18 17  1  0  0  0  0
 19 18  1  0  0  0  0
 20 19  1  0  0  0  0
 20 48  1  0  0  0  0
 20 13  1  0  0  0  0
 21 22  2  0  0  0  0
 23 21  1  0  0  0  0
 23 24  1  0  0  0  0
 24 50  1  0  0  0  0
 25 24  2  0  0  0  0
 25 29  1  0  0  0  0
 26 25  1  0  0  0  0
 27 28  1  0  0  0  0
 27 26  2  0  0  0  0
 28 23  2  0  0  0  0
 29 30  1  0  0  0  0
 30 54  1  0  0  0  0
 30 55  1  0  0  0  0
 31 32  1  0  0  0  0
 31 30  1  0  0  0  0
 32 59  1  0  0  0  0
 34 61  1  0  0  0  0
 34 11  1  0  0  0  0
 35  3  1  0  0  0  0
 39 12  1  0  0  0  0
 42 16  1  0  0  0  0
 46 19  1  0  0  0  0
 47 19  1  0  0  0  0
 49 20  1  0  0  0  0
 51 26  1  0  0  0  0
 52 27  1  0  0  0  0
 53 28  1  0  0  0  0
 56 31  1  0  0  0  0
 57 31  1  0  0  0  0
 58 32  1  0  0  0  0
 60 33  1  0  0  0  0
 62 34  1  0  0  0  0
 63 34  1  0  0  0  0
M  END
>  <Pose>
1

>  <Score>
-5.82

$$$$
