
 OpenBabel03232203513D

 63 64  0  0  1  0  0  0  0  0999 V2000
   -3.2180    6.6620  -15.5720 B   0  0  0  0  0  0  0  0  0  0  0  0
   -1.5300    6.8790  -14.6800 C   0  0  0  0  0  0  0  0  0  0  0  0
   -0.7700    8.0050  -14.8970 C   0  0  0  0  0  0  0  0  0  0  0  0
    0.3990    8.1700  -14.2880 N   0  0  0  0  0  0  0  0  0  0  0  0
    0.8620    7.2450  -13.4510 C   0  0  0  0  0  0  0  0  0  0  0  0
    1.9790    7.3660  -12.8470 O   0  0  0  0  0  0  0  0  0  0  0  0
    0.1360    6.1390  -13.2270 N   0  0  0  0  0  0  0  0  0  0  0  0
   -1.0540    5.9160  -13.8140 C   0  0  0  0  0  0  0  0  0  0  0  0
   -1.7160    4.8620  -13.5820 O   0  0  0  0  0  0  0  0  0  0  0  0
    1.1720    9.3710  -14.5320 C   0  0  1  0  0  0  0  0  0  0  0  0
    0.4970   10.6260  -14.1460 C   0  0  1  0  0  0  0  0  0  0  0  0
    1.4550   11.7560  -13.7530 C   0  0  0  0  0  0  0  0  0  0  0  0
    2.4010   11.2970  -12.6710 C   0  0  0  0  0  0  0  0  0  0  0  0
    2.5200    9.9210  -12.6430 O   0  0  0  0  0  0  0  0  0  0  0  0
    2.5130    9.3040  -13.8560 C   0  0  0  0  0  0  0  0  0  0  0  0
    1.8830   11.8420  -11.3520 C   0  0  0  0  0  0  0  0  0  0  0  0
    2.5790   13.1300  -11.0040 C   0  0  0  0  0  0  0  0  0  0  0  0
    2.7410   13.9080  -12.2060 N   0  0  0  0  0  0  0  0  0  0  0  0
    3.6790   13.3750  -13.1830 C   0  0  0  0  0  0  0  0  0  0  0  0
    3.7630   11.8820  -12.9620 C   0  0  0  0  0  0  0  0  0  0  0  0
    2.0460   15.1050  -12.3910 C   0  0  0  0  0  0  0  0  0  0  0  0
    2.7560   16.0960  -12.7980 O   0  0  0  0  0  0  0  0  0  0  0  0
    0.6310   15.3970  -12.1870 C   0  0  0  0  0  0  0  0  0  0  0  0
    0.4310   16.5720  -11.3380 N   0  0  0  0  0  0  0  0  0  0  0  0
   -0.1640   15.6570  -13.4470 C   0  0  0  0  0  0  0  0  0  0  0  0
   -1.2070   16.6840  -13.0740 C   0  0  0  0  0  0  0  0  0  0  0  0
   -2.1840   17.0320  -13.9690 C   0  0  0  0  0  0  0  0  0  0  0  0
   -3.1250   17.9820  -13.5840 C   0  0  0  0  0  0  0  0  0  0  0  0
   -3.0950   18.5710  -12.3410 C   0  0  0  0  0  0  0  0  0  0  0  0
   -2.0950   18.1940  -11.4660 C   0  0  0  0  0  0  0  0  0  0  0  0
   -1.1470   17.2550  -11.8190 C   0  0  0  0  0  0  0  0  0  0  0  0
   -4.0550   19.5090  -12.0130 O   0  0  0  0  0  0  0  0  0  0  0  0
   -0.1470   11.1250  -15.3080 O   0  0  0  0  0  0  0  0  0  0  0  0
   -0.5770   10.4930  -13.1150 C   0  0  0  0  0  0  0  0  0  0  0  0
   -1.1910    8.7360  -15.5920 H   0  0  0  0  0  0  0  0  0  0  0  0
    0.5070    5.3990  -12.5580 H   0  0  0  0  0  0  0  0  0  0  0  0
    1.3770    9.3550  -15.6500 H   0  0  0  0  0  0  0  0  0  0  0  0
    2.0390   12.0950  -14.6160 H   0  0  0  0  0  0  0  0  0  0  0  0
    0.8630   12.5970  -13.3770 H   0  0  0  0  0  0  0  0  0  0  0  0
    2.8710    8.2530  -13.7440 H   0  0  0  0  0  0  0  0  0  0  0  0
    3.2540    9.8380  -14.5240 H   0  0  0  0  0  0  0  0  0  0  0  0
    0.7980   12.0190  -11.3770 H   0  0  0  0  0  0  0  0  0  0  0  0
    2.0980   11.1440  -10.5130 H   0  0  0  0  0  0  0  0  0  0  0  0
    2.0520   13.6600  -10.1830 H   0  0  0  0  0  0  0  0  0  0  0  0
    3.5700   12.8560  -10.5580 H   0  0  0  0  0  0  0  0  0  0  0  0
    3.4010   13.5580  -14.2170 H   0  0  0  0  0  0  0  0  0  0  0  0
    4.6830   13.8000  -13.0080 H   0  0  0  0  0  0  0  0  0  0  0  0
    4.4860   11.6190  -12.1610 H   0  0  0  0  0  0  0  0  0  0  0  0
    4.1860   11.4630  -13.8920 H   0  0  0  0  0  0  0  0  0  0  0  0
    0.1580   14.5390  -11.6680 H   0  0  0  0  0  0  0  0  0  0  0  0
   -0.3370   16.4130  -10.6510 H   0  0  0  0  0  0  0  0  0  0  0  0
    0.1210   17.3710  -11.9450 H   0  0  0  0  0  0  0  0  0  0  0  0
    0.4240   16.0830  -14.2560 H   0  0  0  0  0  0  0  0  0  0  0  0
   -0.6840   14.7760  -13.8190 H   0  0  0  0  0  0  0  0  0  0  0  0
   -2.1950   16.5630  -14.9350 H   0  0  0  0  0  0  0  0  0  0  0  0
   -3.8950   18.2580  -14.2870 H   0  0  0  0  0  0  0  0  0  0  0  0
   -2.0590   18.6440  -10.4990 H   0  0  0  0  0  0  0  0  0  0  0  0
   -0.3600   16.9520  -11.1410 H   0  0  0  0  0  0  0  0  0  0  0  0
   -4.5630   20.0680  -12.6980 H   0  0  0  0  0  0  0  0  0  0  0  0
   -0.0680   12.1050  -15.3750 H   0  0  0  0  0  0  0  0  0  0  0  0
   -0.2720   10.0480  -12.1660 H   0  0  0  0  0  0  0  0  0  0  0  0
   -0.9800   11.5030  -12.9010 H   0  0  0  0  0  0  0  0  0  0  0  0
   -1.4470    9.9400  -13.5790 H   0  0  0  0  0  0  0  0  0  0  0  0
  1  2  1  0  0  0  0
  2  8  1  0  0  0  0
  3  2  2  0  0  0  0
  3  4  1  0  0  0  0
  4  5  1  0  0  0  0
  5  7  1  0  0  0  0
  5  6  2  0  0  0  0
  7 36  1  0  0  0  0
  8  9  2  0  0  0  0
  8  7  1  0  0  0  0
 10 37  1  6  0  0  0
 10  4  1  0  0  0  0
 10 11  1  0  0  0  0
 10 15  1  0  0  0  0
 11 33  1  6  0  0  0
 11 12  1  0  0  0  0
 11 34  1  0  0  0  0
 12 39  1  0  0  0  0
 12 13  1  0  0  0  0
 13 14  1  0  0  0  0
 13 16  1  0  0  0  0
 15 40  1  0  0  0  0
 15 14  1  0  0  0  0
 16 17  1  0  0  0  0
 16 43  1  0  0  0  0
 17 45  1  0  0  0  0
 17 44  1  0  0  0  0
 18 17  1  0  0  0  0
 19 47  1  0  0  0  0
 19 20  1  0  0  0  0
 19 18  1  0  0  0  0
 20 13  1  0  0  0  0
 20 48  1  0  0  0  0
 21 18  1  0  0  0  0
 21 23  1  0  0  0  0
 22 21  2  0  0  0  0
 23 50  1  0  0  0  0
 24 58  1  0  0  0  0
 25 26  1  0  0  0  0
 25 23  1  0  0  0  0
 26 31  1  0  0  0  0
 27 28  1  0  0  0  0
 27 26  2  0  0  0  0
 28 29  2  0  0  0  0
 29 32  1  0  0  0  0
 29 30  1  0  0  0  0
 30 57  1  0  0  0  0
 31 30  2  0  0  0  0
 34 62  1  0  0  0  0
 34 61  1  0  0  0  0
 35  3  1  0  0  0  0
 38 12  1  0  0  0  0
 41 15  1  0  0  0  0
 42 16  1  0  0  0  0
 46 19  1  0  0  0  0
 49 20  1  0  0  0  0
 52 31  1  0  0  0  0
 53 25  1  0  0  0  0
 54 25  1  0  0  0  0
 55 27  1  0  0  0  0
 56 28  1  0  0  0  0
 59 32  1  0  0  0  0
 60 33  1  0  0  0  0
 63 34  1  0  0  0  0
M  END
>  <Pose>
1

>  <Score>
-5.59

$$$$
