
 OpenBabel03232203513D

 41 44  0  0  1  0  0  0  0  0999 V2000
   -4.9670   20.9700   -9.9650 B   0  0  0  0  0  0  0  0  0  0  0  0
   -4.0740   19.6960  -11.0820 C   0  0  0  0  0  0  0  0  0  0  0  0
   -2.8730   19.1240  -10.7250 C   0  0  0  0  0  0  0  0  0  0  0  0
   -2.2360   18.2170  -11.5170 N   0  0  0  0  0  0  0  0  0  0  0  0
   -2.8030   17.8700  -12.6870 C   0  0  0  0  0  0  0  0  0  0  0  0
   -2.0100   16.9720  -13.2950 N   0  0  0  0  0  0  0  0  0  0  0  0
   -0.9300   16.7350  -12.5270 C   0  0  0  0  0  0  0  0  0  0  0  0
   -1.0860   17.5260  -11.4080 C   0  0  0  0  0  0  0  0  0  0  0  0
    0.2010   15.8160  -12.8120 C   0  0  0  0  0  0  0  0  0  0  0  0
    0.0180   14.5410  -12.1550 N   0  0  0  0  0  0  0  0  0  0  0  0
    0.8890   13.4790  -12.4440 C   0  0  0  0  0  0  0  0  0  0  0  0
    0.8720   12.9480  -13.5740 O   0  0  0  0  0  0  0  0  0  0  0  0
    1.8310   12.9830  -11.4240 C   0  0  1  0  0  0  0  0  0  0  0  0
    1.6600   11.4980  -11.2240 C   0  0  0  0  0  0  0  0  0  0  0  0
    1.9350   10.8650  -12.5000 N   0  0  0  0  0  0  0  0  0  0  0  0
    2.8940   11.3570  -13.3020 C   0  0  0  0  0  0  0  0  0  0  0  0
    2.9220   10.5760  -14.4010 N   0  0  0  0  0  0  0  0  0  0  0  0
    2.0260    9.6400  -14.2920 N   0  0  0  0  0  0  0  0  0  0  0  0
    1.4060    9.8080  -13.1170 C   0  0  0  0  0  0  0  0  0  0  0  0
    0.3060    8.9100  -12.6490 C   0  0  0  0  0  0  0  0  0  0  0  0
    3.7270   12.5290  -12.9920 C   0  0  0  0  0  0  0  0  0  0  0  0
    3.2410   13.3220  -11.8310 C   0  0  0  0  0  0  0  0  0  0  0  0
   -4.0170   18.4300  -13.0760 C   0  0  0  0  0  0  0  0  0  0  0  0
   -4.6600   19.3440  -12.2790 C   0  0  0  0  0  0  0  0  0  0  0  0
   -2.4290   19.4060   -9.7960 H   0  0  0  0  0  0  0  0  0  0  0  0
   -0.4400   17.6320  -10.5480 H   0  0  0  0  0  0  0  0  0  0  0  0
    0.3120   15.7080  -13.9180 H   0  0  0  0  0  0  0  0  0  0  0  0
    1.1590   16.2840  -12.4540 H   0  0  0  0  0  0  0  0  0  0  0  0
   -0.7490   14.3970  -11.4710 H   0  0  0  0  0  0  0  0  0  0  0  0
    1.6330   13.5390  -10.4780 H   0  0  0  0  0  0  0  0  0  0  0  0
    2.4060   11.1530  -10.4680 H   0  0  0  0  0  0  0  0  0  0  0  0
    0.6290   11.3050  -10.8660 H   0  0  0  0  0  0  0  0  0  0  0  0
   -0.2760    9.4060  -11.8670 H   0  0  0  0  0  0  0  0  0  0  0  0
   -0.3920    8.6770  -13.4990 H   0  0  0  0  0  0  0  0  0  0  0  0
    0.7520    7.9520  -12.3160 H   0  0  0  0  0  0  0  0  0  0  0  0
    4.7760   12.1950  -12.7580 H   0  0  0  0  0  0  0  0  0  0  0  0
    3.8140   13.1410  -13.9130 H   0  0  0  0  0  0  0  0  0  0  0  0
    3.2550   14.4130  -12.0990 H   0  0  0  0  0  0  0  0  0  0  0  0
    3.8960   13.2130  -10.9390 H   0  0  0  0  0  0  0  0  0  0  0  0
   -4.4210   18.1090  -14.0270 H   0  0  0  0  0  0  0  0  0  0  0  0
   -5.6040   19.7530  -12.6250 H   0  0  0  0  0  0  0  0  0  0  0  0
  2  3  2  0  0  0  0
  2  1  1  0  0  0  0
  3 25  1  0  0  0  0
  4  8  1  0  0  0  0
  4  3  1  0  0  0  0
  5  4  1  0  0  0  0
  6  5  2  0  0  0  0
  6  7  1  0  0  0  0
  7  8  2  0  0  0  0
  8 26  1  0  0  0  0
  9  7  1  0  0  0  0
  9 28  1  0  0  0  0
  9 10  1  0  0  0  0
 10 29  1  0  0  0  0
 11 10  1  0  0  0  0
 11 13  1  0  0  0  0
 12 11  2  0  0  0  0
 13 14  1  0  0  0  0
 13 30  1  1  0  0  0
 14 32  1  0  0  0  0
 14 31  1  0  0  0  0
 15 14  1  0  0  0  0
 16 21  1  0  0  0  0
 16 15  1  0  0  0  0
 17 18  1  0  0  0  0
 17 16  2  0  0  0  0
 18 19  2  0  0  0  0
 19 20  1  0  0  0  0
 19 15  1  0  0  0  0
 20 35  1  0  0  0  0
 20 33  1  0  0  0  0
 21 36  1  0  0  0  0
 21 22  1  0  0  0  0
 22 13  1  0  0  0  0
 22 39  1  0  0  0  0
 23  5  1  0  0  0  0
 23 24  2  0  0  0  0
 24  2  1  0  0  0  0
 27  9  1  0  0  0  0
 34 20  1  0  0  0  0
 37 21  1  0  0  0  0
 38 22  1  0  0  0  0
 40 23  1  0  0  0  0
 41 24  1  0  0  0  0
M  END
>  <Pose>
1

>  <Score>
-5.89

$$$$
