
 OpenBabel03232203513D

 37 40  0  0  1  0  0  0  0  0999 V2000
   -6.4170   21.7800   -9.9480 B   0  0  0  0  0  0  0  0  0  0  0  0
   -4.8680   20.7120  -10.3400 C   0  0  0  0  0  0  0  0  0  0  0  0
   -4.8210   19.8880  -11.4420 C   0  0  0  0  0  0  0  0  0  0  0  0
   -3.7340   19.1270  -11.7320 N   0  0  0  0  0  0  0  0  0  0  0  0
   -3.4430   18.2750  -12.7020 N   0  0  0  0  0  0  0  0  0  0  0  0
   -2.2150   17.7570  -12.5590 C   0  0  0  0  0  0  0  0  0  0  0  0
   -1.7300   18.3580  -11.3970 C   0  0  0  0  0  0  0  0  0  0  0  0
   -2.6880   19.2110  -10.8890 C   0  0  0  0  0  0  0  0  0  0  0  0
   -2.7230   20.0220   -9.7990 N   0  0  0  0  0  0  0  0  0  0  0  0
   -3.7850   20.7820   -9.4920 C   0  0  0  0  0  0  0  0  0  0  0  0
   -1.4950   16.7860  -13.3950 C   0  0  0  0  0  0  0  0  0  0  0  0
   -1.6810   16.7920  -14.6420 O   0  0  0  0  0  0  0  0  0  0  0  0
   -0.5900   15.8360  -12.8580 N   0  0  0  0  0  0  0  0  0  0  0  0
    0.3330   16.2210  -11.8540 C   0  0  0  0  0  0  0  0  0  0  0  0
    1.5730   15.4070  -11.8320 C   0  0  2  0  0  0  0  0  0  0  0  0
    1.6460   14.3470  -12.7960 N   0  0  2  0  0  0  0  0  0  0  0  0
    0.4190   13.5740  -12.8310 C   0  0  0  0  0  0  0  0  0  0  0  0
   -0.6560   14.4960  -13.3740 C   0  0  0  0  0  0  0  0  0  0  0  0
    2.8020   13.6050  -12.3960 C   0  0  0  0  0  0  0  0  0  0  0  0
    2.7900   13.6240  -10.8880 C   0  0  0  0  0  0  0  0  0  0  0  0
    1.7590   14.6670  -10.5180 C   0  0  0  0  0  0  0  0  0  0  0  0
   -5.6830   19.8510  -12.0900 H   0  0  0  0  0  0  0  0  0  0  0  0
   -0.7460   18.1470  -11.0050 H   0  0  0  0  0  0  0  0  0  0  0  0
   -3.8030   21.4320   -8.6130 H   0  0  0  0  0  0  0  0  0  0  0  0
   -0.1630   16.1800  -10.8540 H   0  0  0  0  0  0  0  0  0  0  0  0
    0.5900   17.3190  -11.9760 H   0  0  0  0  0  0  0  0  0  0  0  0
    2.4650   16.0540  -11.9970 H   0  0  0  0  0  0  0  0  0  0  0  0
    0.5690   12.7560  -13.5600 H   0  0  0  0  0  0  0  0  0  0  0  0
    0.1560   13.1200  -11.8670 H   0  0  0  0  0  0  0  0  0  0  0  0
   -1.6640   14.0860  -13.1570 H   0  0  0  0  0  0  0  0  0  0  0  0
   -0.5750   14.5070  -14.5070 H   0  0  0  0  0  0  0  0  0  0  0  0
    3.6990   14.1720  -12.7760 H   0  0  0  0  0  0  0  0  0  0  0  0
    2.8260   12.5740  -12.8000 H   0  0  0  0  0  0  0  0  0  0  0  0
    2.5310   12.6140  -10.5100 H   0  0  0  0  0  0  0  0  0  0  0  0
    3.7910   13.8760  -10.4780 H   0  0  0  0  0  0  0  0  0  0  0  0
    2.1000   15.3480   -9.7260 H   0  0  0  0  0  0  0  0  0  0  0  0
    0.7940   14.2020  -10.2430 H   0  0  0  0  0  0  0  0  0  0  0  0
  2  1  1  0  0  0  0
  2 10  1  0  0  0  0
  3  2  2  0  0  0  0
  4  3  1  0  0  0  0
  4  8  1  0  0  0  0
  5  6  2  0  0  0  0
  5  4  1  0  0  0  0
  6  7  1  0  0  0  0
  7 23  1  0  0  0  0
  7  8  2  0  0  0  0
  8  9  1  0  0  0  0
  9 10  2  0  0  0  0
 10 24  1  0  0  0  0
 11 13  1  0  0  0  0
 11  6  1  0  0  0  0
 12 11  2  0  0  0  0
 13 14  1  0  0  0  0
 14 15  1  0  0  0  0
 14 25  1  0  0  0  0
 15 27  1  6  0  0  0
 15 21  1  0  0  0  0
 16 17  1  1  0  0  0
 16 19  1  0  0  0  0
 16 15  1  0  0  0  0
 17 29  1  0  0  0  0
 18 30  1  0  0  0  0
 18 13  1  0  0  0  0
 18 17  1  0  0  0  0
 19 20  1  0  0  0  0
 20 21  1  0  0  0  0
 20 34  1  0  0  0  0
 20 35  1  0  0  0  0
 21 37  1  0  0  0  0
 21 36  1  0  0  0  0
 22  3  1  0  0  0  0
 26 14  1  0  0  0  0
 28 17  1  0  0  0  0
 31 18  1  0  0  0  0
 32 19  1  0  0  0  0
 33 19  1  0  0  0  0
M  END
>  <Pose>
1

>  <Score>
-6.70

$$$$
