
 OpenBabel03232203513D

 39 42  0  0  0  0  0  0  0  0999 V2000
    2.4840    9.0330  -15.5300 B   0  0  0  0  0  0  0  0  0  0  0  0
    2.2910   10.5130  -14.3470 C   0  0  0  0  0  0  0  0  0  0  0  0
    3.3360   10.9390  -13.5890 C   0  0  0  0  0  0  0  0  0  0  0  0
    3.2080   11.9700  -12.7630 N   0  0  0  0  0  0  0  0  0  0  0  0
    4.0740   12.5570  -11.9350 N   0  0  0  0  0  0  0  0  0  0  0  0
    3.4410   13.5690  -11.3180 C   0  0  0  0  0  0  0  0  0  0  0  0
    2.1400   13.6290  -11.7610 C   0  0  0  0  0  0  0  0  0  0  0  0
    2.0200   12.5950  -12.6830 C   0  0  0  0  0  0  0  0  0  0  0  0
    0.9790   12.1870  -13.4250 N   0  0  0  0  0  0  0  0  0  0  0  0
    1.0850   11.1520  -14.2630 C   0  0  0  0  0  0  0  0  0  0  0  0
    1.0910   14.5430  -11.3830 C   0  0  0  0  0  0  0  0  0  0  0  0
    1.2180   15.1750  -10.2950 O   0  0  0  0  0  0  0  0  0  0  0  0
   -0.0490   14.7300  -12.2060 N   0  0  0  0  0  0  0  0  0  0  0  0
   -1.3600   14.3870  -11.6330 C   0  0  0  0  0  0  0  0  0  0  0  0
   -2.3420   15.2670  -12.4070 C   0  0  0  0  0  0  0  0  0  0  0  0
   -1.6800   16.5240  -12.5900 N   0  0  0  0  0  0  0  0  0  0  0  0
   -0.7660   16.5160  -13.7700 C   0  0  0  0  0  0  0  0  0  0  0  0
    0.0570   15.2410  -13.5640 C   0  0  0  0  0  0  0  0  0  0  0  0
   -1.7590   17.6650  -11.8080 C   0  0  0  0  0  0  0  0  0  0  0  0
   -0.7240   17.9500  -11.0740 O   0  0  0  0  0  0  0  0  0  0  0  0
   -2.8430   18.6230  -11.6680 C   0  0  0  0  0  0  0  0  0  0  0  0
   -3.0940   19.3280  -10.5560 O   0  0  0  0  0  0  0  0  0  0  0  0
   -4.1140   20.1040  -10.6960 C   0  0  0  0  0  0  0  0  0  0  0  0
   -4.6270   19.9610  -11.9610 C   0  0  0  0  0  0  0  0  0  0  0  0
   -3.8090   19.0180  -12.5620 C   0  0  0  0  0  0  0  0  0  0  0  0
    4.3010   10.4280  -13.6550 H   0  0  0  0  0  0  0  0  0  0  0  0
    3.9110   14.2180  -10.5880 H   0  0  0  0  0  0  0  0  0  0  0  0
    0.2660   10.8000  -14.8740 H   0  0  0  0  0  0  0  0  0  0  0  0
   -1.3940   14.7130  -10.5910 H   0  0  0  0  0  0  0  0  0  0  0  0
   -1.5750   13.3320  -11.8150 H   0  0  0  0  0  0  0  0  0  0  0  0
   -3.3510   15.2680  -12.0410 H   0  0  0  0  0  0  0  0  0  0  0  0
   -2.4390   14.7540  -13.4370 H   0  0  0  0  0  0  0  0  0  0  0  0
   -0.1500   17.4180  -13.7930 H   0  0  0  0  0  0  0  0  0  0  0  0
   -1.4460   16.4220  -14.6410 H   0  0  0  0  0  0  0  0  0  0  0  0
   -0.2370   14.4560  -14.2790 H   0  0  0  0  0  0  0  0  0  0  0  0
    1.1140   15.5180  -13.7270 H   0  0  0  0  0  0  0  0  0  0  0  0
   -4.5360   20.7890   -9.9430 H   0  0  0  0  0  0  0  0  0  0  0  0
   -5.4850   20.4650  -12.4100 H   0  0  0  0  0  0  0  0  0  0  0  0
   -3.9700   18.6790  -13.5750 H   0  0  0  0  0  0  0  0  0  0  0  0
  1  2  1  0  0  0  0
  2 10  1  0  0  0  0
  2  3  2  0  0  0  0
  3  4  1  0  0  0  0
  4  8  1  0  0  0  0
  4  5  1  0  0  0  0
  5  6  2  0  0  0  0
  6 27  1  0  0  0  0
  7 11  1  0  0  0  0
  7  6  1  0  0  0  0
  8  7  2  0  0  0  0
  9  8  1  0  0  0  0
 10  9  2  0  0  0  0
 11 12  2  0  0  0  0
 13 14  1  0  0  0  0
 13 11  1  0  0  0  0
 14 29  1  0  0  0  0
 15 31  1  0  0  0  0
 15 14  1  0  0  0  0
 16 15  1  0  0  0  0
 16 19  1  0  0  0  0
 17 18  1  0  0  0  0
 17 16  1  0  0  0  0
 18 13  1  0  0  0  0
 19 21  1  0  0  0  0
 19 20  2  0  0  0  0
 21 22  1  0  0  0  0
 23 22  1  0  0  0  0
 23 37  1  0  0  0  0
 24 23  2  0  0  0  0
 25 24  1  0  0  0  0
 25 21  2  0  0  0  0
 26  3  1  0  0  0  0
 28 10  1  0  0  0  0
 30 14  1  0  0  0  0
 32 15  1  0  0  0  0
 33 17  1  0  0  0  0
 34 17  1  0  0  0  0
 35 18  1  0  0  0  0
 36 18  1  0  0  0  0
 38 24  1  0  0  0  0
 39 25  1  0  0  0  0
M  END
>  <Pose>
1

>  <Score>
-6.23

$$$$
