
 OpenBabel03232203513D

 40 43  0  0  0  0  0  0  0  0999 V2000
   -4.9730   21.2160   -9.9940 B   0  0  0  0  0  0  0  0  0  0  0  0
   -3.6370   19.9650  -10.5670 C   0  0  0  0  0  0  0  0  0  0  0  0
   -3.7870   19.2220  -11.7170 C   0  0  0  0  0  0  0  0  0  0  0  0
   -2.8700   18.3310  -12.1520 N   0  0  0  0  0  0  0  0  0  0  0  0
   -1.7300   18.1100  -11.4750 C   0  0  0  0  0  0  0  0  0  0  0  0
   -0.8060   17.2270  -11.8930 N   0  0  0  0  0  0  0  0  0  0  0  0
   -0.9490   16.4950  -13.0230 C   0  0  0  0  0  0  0  0  0  0  0  0
   -2.1110   16.7050  -13.7340 C   0  0  0  0  0  0  0  0  0  0  0  0
   -3.0560   17.6230  -13.2860 C   0  0  0  0  0  0  0  0  0  0  0  0
   -4.1060   17.8210  -13.9180 O   0  0  0  0  0  0  0  0  0  0  0  0
    0.0910   15.5290  -13.4640 C   0  0  0  0  0  0  0  0  0  0  0  0
    1.2450   15.5400  -12.6650 O   0  0  0  0  0  0  0  0  0  0  0  0
    1.3220   15.0930  -11.3620 C   0  0  0  0  0  0  0  0  0  0  0  0
    0.5100   15.5170  -10.5160 O   0  0  0  0  0  0  0  0  0  0  0  0
    2.3760   14.1140  -11.0080 C   0  0  0  0  0  0  0  0  0  0  0  0
    2.3150   12.9600  -11.8580 N   0  0  0  0  0  0  0  0  0  0  0  0
    1.1690   12.1840  -12.1280 C   0  0  0  0  0  0  0  0  0  0  0  0
   -0.0070   12.3220  -11.7020 O   0  0  0  0  0  0  0  0  0  0  0  0
    1.5560   11.0950  -13.0510 C   0  0  0  0  0  0  0  0  0  0  0  0
    2.8920   11.2310  -13.3150 C   0  0  0  0  0  0  0  0  0  0  0  0
    3.5500   10.3680  -14.1430 C   0  0  0  0  0  0  0  0  0  0  0  0
    2.8410    9.3430  -14.7190 C   0  0  0  0  0  0  0  0  0  0  0  0
    1.4920    9.2050  -14.4540 C   0  0  0  0  0  0  0  0  0  0  0  0
    0.8190   10.0700  -13.6190 C   0  0  0  0  0  0  0  0  0  0  0  0
    3.3880   12.3950  -12.5760 C   0  0  0  0  0  0  0  0  0  0  0  0
    4.5900   12.7990  -12.6020 O   0  0  0  0  0  0  0  0  0  0  0  0
   -1.5490   18.8490  -10.3030 C   0  0  0  0  0  0  0  0  0  0  0  0
   -2.4780   19.7600   -9.8500 C   0  0  0  0  0  0  0  0  0  0  0  0
   -4.7050   19.3820  -12.2870 H   0  0  0  0  0  0  0  0  0  0  0  0
   -2.2920   16.1490  -14.6610 H   0  0  0  0  0  0  0  0  0  0  0  0
   -0.3040   14.4940  -13.4810 H   0  0  0  0  0  0  0  0  0  0  0  0
    0.4190   15.7450  -14.5190 H   0  0  0  0  0  0  0  0  0  0  0  0
    2.1240   13.7730   -9.9640 H   0  0  0  0  0  0  0  0  0  0  0  0
    3.3850   14.5810  -10.9910 H   0  0  0  0  0  0  0  0  0  0  0  0
    4.6000   10.4860  -14.3420 H   0  0  0  0  0  0  0  0  0  0  0  0
    3.3810    8.6730  -15.3700 H   0  0  0  0  0  0  0  0  0  0  0  0
    0.9880    8.3780  -14.9360 H   0  0  0  0  0  0  0  0  0  0  0  0
   -0.2320    9.9690  -13.4080 H   0  0  0  0  0  0  0  0  0  0  0  0
   -0.6330   18.6650   -9.7670 H   0  0  0  0  0  0  0  0  0  0  0  0
   -2.3330   20.3290   -8.9420 H   0  0  0  0  0  0  0  0  0  0  0  0
  2  1  1  0  0  0  0
  2 28  2  0  0  0  0
  3  2  1  0  0  0  0
  4  3  1  0  0  0  0
  4  5  1  0  0  0  0
  5 27  2  0  0  0  0
  6  5  1  0  0  0  0
  7  6  2  0  0  0  0
  8  9  1  0  0  0  0
  8  7  1  0  0  0  0
  9  4  1  0  0  0  0
 10  9  2  0  0  0  0
 11  7  1  0  0  0  0
 11 12  1  0  0  0  0
 12 13  1  0  0  0  0
 13 15  1  0  0  0  0
 13 14  2  0  0  0  0
 15 34  1  0  0  0  0
 15 33  1  0  0  0  0
 16 15  1  0  0  0  0
 17 16  1  0  0  0  0
 17 18  2  0  0  0  0
 19 17  1  0  0  0  0
 20 19  1  0  0  0  0
 20 25  1  0  0  0  0
 21 20  2  0  0  0  0
 22 23  2  0  0  0  0
 22 21  1  0  0  0  0
 23 24  1  0  0  0  0
 24 38  1  0  0  0  0
 24 19  2  0  0  0  0
 25 16  1  0  0  0  0
 26 25  2  0  0  0  0
 27 28  1  0  0  0  0
 27 39  1  0  0  0  0
 28 40  1  0  0  0  0
 29  3  1  0  0  0  0
 30  8  1  0  0  0  0
 31 11  1  0  0  0  0
 32 11  1  0  0  0  0
 35 21  1  0  0  0  0
 36 22  1  0  0  0  0
 37 23  1  0  0  0  0
M  END
>  <Pose>
1

>  <Score>
-6.49

$$$$
