
 OpenBabel03232203513D

 45 48  0  0  0  0  0  0  0  0999 V2000
   -5.7260   21.6090   -9.8850 B   0  0  0  0  0  0  0  0  0  0  0  0
   -4.3190   20.4210  -10.3940 C   0  0  0  0  0  0  0  0  0  0  0  0
   -4.4580   19.6730  -11.5420 C   0  0  0  0  0  0  0  0  0  0  0  0
   -3.4710   18.8360  -11.9030 N   0  0  0  0  0  0  0  0  0  0  0  0
   -2.3450   18.7100  -11.1720 C   0  0  0  0  0  0  0  0  0  0  0  0
   -1.3610   17.8610  -11.5540 N   0  0  0  0  0  0  0  0  0  0  0  0
   -1.4550   17.1110  -12.6660 C   0  0  0  0  0  0  0  0  0  0  0  0
   -2.5960   17.2270  -13.4250 C   0  0  0  0  0  0  0  0  0  0  0  0
   -3.6110   18.1040  -13.0300 C   0  0  0  0  0  0  0  0  0  0  0  0
   -4.6460   18.2160  -13.7090 O   0  0  0  0  0  0  0  0  0  0  0  0
   -0.3700   16.1840  -13.0750 C   0  0  0  0  0  0  0  0  0  0  0  0
    0.3580   15.8030  -11.9220 O   0  0  0  0  0  0  0  0  0  0  0  0
    1.6780   15.4210  -11.9640 C   0  0  0  0  0  0  0  0  0  0  0  0
    2.5380   16.2830  -12.2820 O   0  0  0  0  0  0  0  0  0  0  0  0
    2.1670   14.0510  -11.6600 C   0  0  0  0  0  0  0  0  0  0  0  0
    1.6800   13.0740  -12.5880 N   0  0  0  0  0  0  0  0  0  0  0  0
    0.4510   13.1270  -13.3100 C   0  0  0  0  0  0  0  0  0  0  0  0
   -0.3980   14.0610  -13.2300 O   0  0  0  0  0  0  0  0  0  0  0  0
    0.3620   11.9580  -14.1170 N   0  0  0  0  0  0  0  0  0  0  0  0
    1.4590   11.0820  -13.7890 C   0  0  0  0  0  0  0  0  0  0  0  0
    1.0230    9.8540  -13.0360 C   0  0  0  0  0  0  0  0  0  0  0  0
    2.1640    8.9060  -13.2360 C   0  0  0  0  0  0  0  0  0  0  0  0
    3.0040    9.4250  -14.3660 C   0  0  0  0  0  0  0  0  0  0  0  0
    2.1550   10.5170  -14.9800 C   0  0  0  0  0  0  0  0  0  0  0  0
    2.3590   11.8680  -12.9470 C   0  0  0  0  0  0  0  0  0  0  0  0
    3.5220   11.5880  -12.5750 O   0  0  0  0  0  0  0  0  0  0  0  0
   -2.1980   19.4570  -10.0190 C   0  0  0  0  0  0  0  0  0  0  0  0
   -3.1820   20.3280   -9.6060 C   0  0  0  0  0  0  0  0  0  0  0  0
   -5.3450   19.7400  -12.1620 H   0  0  0  0  0  0  0  0  0  0  0  0
   -2.6980   16.6350  -14.3260 H   0  0  0  0  0  0  0  0  0  0  0  0
   -0.8150   15.2780  -13.5280 H   0  0  0  0  0  0  0  0  0  0  0  0
    0.2940   16.6880  -13.8130 H   0  0  0  0  0  0  0  0  0  0  0  0
    3.2780   14.0510  -11.5930 H   0  0  0  0  0  0  0  0  0  0  0  0
    1.8030   13.8210  -10.6240 H   0  0  0  0  0  0  0  0  0  0  0  0
   -0.3830   11.7960  -14.8160 H   0  0  0  0  0  0  0  0  0  0  0  0
    0.9660   10.1430  -11.9470 H   0  0  0  0  0  0  0  0  0  0  0  0
    0.0590    9.4530  -13.3550 H   0  0  0  0  0  0  0  0  0  0  0  0
    1.7450    7.9110  -13.5550 H   0  0  0  0  0  0  0  0  0  0  0  0
    2.7410    8.7790  -12.2910 H   0  0  0  0  0  0  0  0  0  0  0  0
    3.2300    8.6320  -15.1140 H   0  0  0  0  0  0  0  0  0  0  0  0
    3.9930    9.8260  -14.0300 H   0  0  0  0  0  0  0  0  0  0  0  0
    2.7710   11.2470  -15.5400 H   0  0  0  0  0  0  0  0  0  0  0  0
    1.4230   10.0300  -15.6680 H   0  0  0  0  0  0  0  0  0  0  0  0
   -1.2880   19.3350   -9.4550 H   0  0  0  0  0  0  0  0  0  0  0  0
   -3.0850   20.9210   -8.7090 H   0  0  0  0  0  0  0  0  0  0  0  0
  2  1  1  0  0  0  0
  2 28  2  0  0  0  0
  3  2  1  0  0  0  0
  4  3  1  0  0  0  0
  4  5  1  0  0  0  0
  5 27  2  0  0  0  0
  6  5  1  0  0  0  0
  7  6  2  0  0  0  0
  8  9  1  0  0  0  0
  8  7  1  0  0  0  0
  9  4  1  0  0  0  0
 10  9  2  0  0  0  0
 11  7  1  0  0  0  0
 11 12  1  0  0  0  0
 13 12  1  0  0  0  0
 13 15  1  0  0  0  0
 14 13  2  0  0  0  0
 15 33  1  0  0  0  0
 15 34  1  0  0  0  0
 16 15  1  0  0  0  0
 17 18  2  0  0  0  0
 17 16  1  0  0  0  0
 19 20  1  0  0  0  0
 19 17  1  0  0  0  0
 20 21  1  0  0  0  0
 20 25  1  0  0  0  0
 21 36  1  0  0  0  0
 22 21  1  0  0  0  0
 22 39  1  0  0  0  0
 23 41  1  0  0  0  0
 23 22  1  0  0  0  0
 24 23  1  0  0  0  0
 24 20  1  0  0  0  0
 25 16  1  0  0  0  0
 25 26  2  0  0  0  0
 27 28  1  0  0  0  0
 27 44  1  0  0  0  0
 28 45  1  0  0  0  0
 29  3  1  0  0  0  0
 30  8  1  0  0  0  0
 31 11  1  0  0  0  0
 32 11  1  0  0  0  0
 35 19  1  0  0  0  0
 37 21  1  0  0  0  0
 38 22  1  0  0  0  0
 40 23  1  0  0  0  0
 42 24  1  0  0  0  0
 43 24  1  0  0  0  0
M  END
>  <Pose>
1

>  <Score>
-7.10

$$$$
