
 OpenBabel03232203513D

 47 50  0  0  0  0  0  0  0  0999 V2000
    2.8630   13.8440  -11.3030 B   0  0  0  0  0  0  0  0  0  0  0  0
    1.2370   14.6470  -11.8700 C   0  0  0  0  0  0  0  0  0  0  0  0
    0.7640   15.8060  -11.3620 C   0  0  0  0  0  0  0  0  0  0  0  0
   -0.3320   16.4210  -11.8160 N   0  0  0  0  0  0  0  0  0  0  0  0
   -0.9980   15.8630  -12.8270 C   0  0  0  0  0  0  0  0  0  0  0  0
   -2.1230   16.4680  -13.3020 N   0  0  0  0  0  0  0  0  0  0  0  0
   -2.6020   17.6000  -12.8040 C   0  0  0  0  0  0  0  0  0  0  0  0
   -1.9320   18.1960  -11.7600 C   0  0  0  0  0  0  0  0  0  0  0  0
   -2.3850   19.3720  -11.1950 C   0  0  0  0  0  0  0  0  0  0  0  0
   -3.5360   20.0180  -11.6450 C   0  0  0  0  0  0  0  0  0  0  0  0
   -4.1990   19.4120  -12.6910 C   0  0  0  0  0  0  0  0  0  0  0  0
   -3.7480   18.2340  -13.2610 C   0  0  0  0  0  0  0  0  0  0  0  0
   -0.7860   17.5650  -11.2920 C   0  0  0  0  0  0  0  0  0  0  0  0
   -0.1680   18.0950  -10.3420 O   0  0  0  0  0  0  0  0  0  0  0  0
   -0.5450   14.7020  -13.3530 N   0  0  0  0  0  0  0  0  0  0  0  0
    0.5300   14.0330  -12.9570 C   0  0  0  0  0  0  0  0  0  0  0  0
    0.9830   12.8180  -13.3630 N   0  0  0  0  0  0  0  0  0  0  0  0
    1.4280   11.6200  -13.7630 C   0  0  0  0  0  0  0  0  0  0  0  0
    0.5420   10.5370  -13.8160 C   0  0  0  0  0  0  0  0  0  0  0  0
    1.0020    9.2720  -13.9850 C   0  0  0  0  0  0  0  0  0  0  0  0
    2.3480    9.0310  -14.1140 C   0  0  0  0  0  0  0  0  0  0  0  0
    3.2710   10.0530  -14.0780 C   0  0  0  0  0  0  0  0  0  0  0  0
    2.7800   11.3260  -13.9020 C   0  0  0  0  0  0  0  0  0  0  0  0
   -0.9130   10.7280  -13.8420 C   0  0  0  0  0  0  0  0  0  0  0  0
   -1.3930   11.4220  -14.7740 O   0  0  0  0  0  0  0  0  0  0  0  0
   -1.7970   10.2210  -12.9340 O   0  0  0  0  0  0  0  0  0  0  0  0
   -2.7450    9.2230  -13.2600 C   0  0  0  0  0  0  0  0  0  0  0  0
   -3.8490    9.8110  -14.1450 C   0  0  0  0  0  0  0  0  0  0  0  0
   -4.5360    8.6810  -14.8730 C   0  0  0  0  0  0  0  0  0  0  0  0
    1.2910   16.2800  -10.5350 H   0  0  0  0  0  0  0  0  0  0  0  0
   -1.8180   19.7840  -10.3880 H   0  0  0  0  0  0  0  0  0  0  0  0
   -3.8750   20.9420  -11.1860 H   0  0  0  0  0  0  0  0  0  0  0  0
   -5.1020   19.8880  -13.0680 H   0  0  0  0  0  0  0  0  0  0  0  0
   -4.2590   17.7480  -14.0780 H   0  0  0  0  0  0  0  0  0  0  0  0
   -1.1670   14.3600  -14.1560 H   0  0  0  0  0  0  0  0  0  0  0  0
   -0.2450   12.2450  -13.1770 H   0  0  0  0  0  0  0  0  0  0  0  0
    0.3360    8.3950  -14.0290 H   0  0  0  0  0  0  0  0  0  0  0  0
    2.6820    8.0110  -14.2400 H   0  0  0  0  0  0  0  0  0  0  0  0
    4.3120    9.8000  -14.1850 H   0  0  0  0  0  0  0  0  0  0  0  0
    3.5240   12.1120  -13.8730 H   0  0  0  0  0  0  0  0  0  0  0  0
   -2.3290    8.3730  -13.8270 H   0  0  0  0  0  0  0  0  0  0  0  0
   -3.2430    8.8150  -12.3530 H   0  0  0  0  0  0  0  0  0  0  0  0
   -4.6030   10.3450  -13.5350 H   0  0  0  0  0  0  0  0  0  0  0  0
   -3.4080   10.4890  -14.9130 H   0  0  0  0  0  0  0  0  0  0  0  0
   -4.1280    8.5840  -15.8940 H   0  0  0  0  0  0  0  0  0  0  0  0
   -4.3790    7.7060  -14.3390 H   0  0  0  0  0  0  0  0  0  0  0  0
   -5.6230    8.8830  -14.9730 H   0  0  0  0  0  0  0  0  0  0  0  0
  2  3  1  0  0  0  0
  2  1  1  0  0  0  0
  3 30  1  0  0  0  0
  4  3  1  0  0  0  0
  4 13  1  0  0  0  0
  5  4  1  0  0  0  0
  6  5  2  0  0  0  0
  6  7  1  0  0  0  0
  7  8  1  0  0  0  0
  8 13  1  0  0  0  0
  8  9  2  0  0  0  0
  9 31  1  0  0  0  0
 10  9  1  0  0  0  0
 10 32  1  0  0  0  0
 11 10  2  0  0  0  0
 12  7  2  0  0  0  0
 12 11  1  0  0  0  0
 13 14  2  0  0  0  0
 15 16  1  0  0  0  0
 15  5  1  0  0  0  0
 16  2  2  0  0  0  0
 17 36  1  0  0  0  0
 17 16  1  0  0  0  0
 18 17  1  0  0  0  0
 19 18  1  0  0  0  0
 20 19  2  0  0  0  0
 21 22  2  0  0  0  0
 21 20  1  0  0  0  0
 22 23  1  0  0  0  0
 23 40  1  0  0  0  0
 23 18  2  0  0  0  0
 24 19  1  0  0  0  0
 24 26  1  0  0  0  0
 25 24  2  0  0  0  0
 27 26  1  0  0  0  0
 27 42  1  0  0  0  0
 28 43  1  0  0  0  0
 28 27  1  0  0  0  0
 29 46  1  0  0  0  0
 29 28  1  0  0  0  0
 33 11  1  0  0  0  0
 34 12  1  0  0  0  0
 35 15  1  0  0  0  0
 37 20  1  0  0  0  0
 38 21  1  0  0  0  0
 39 22  1  0  0  0  0
 41 27  1  0  0  0  0
 44 28  1  0  0  0  0
 45 29  1  0  0  0  0
 47 29  1  0  0  0  0
M  END
>  <Pose>
1

>  <Score>
-6.86

$$$$
