
 OpenBabel03232203513D

 53 56  0  0  1  0  0  0  0  0999 V2000
   -1.1130    6.6370  -11.0260 B   0  0  0  0  0  0  0  0  0  0  0  0
    0.2850    7.2200  -12.1620 C   0  0  0  0  0  0  0  0  0  0  0  0
    1.5610    6.7230  -11.9800 C   0  0  0  0  0  0  0  0  0  0  0  0
    2.5910    7.1290  -12.8010 C   0  0  0  0  0  0  0  0  0  0  0  0
    2.3670    8.0340  -13.8130 C   0  0  0  0  0  0  0  0  0  0  0  0
    1.1080    8.5230  -13.9900 C   0  0  0  0  0  0  0  0  0  0  0  0
    0.0460    8.1240  -13.1670 C   0  0  0  0  0  0  0  0  0  0  0  0
    3.4490    8.5090  -14.7210 C   0  0  2  0  0  0  0  0  0  0  0  0
    3.2330    9.9040  -15.0970 N   0  0  0  0  0  4  0  0  0  0  0  0
    2.6530    9.9640  -16.3410 C   0  0  0  0  0  0  0  0  0  0  0  0
    2.5760   10.9640  -17.1840 C   0  0  0  0  0  0  0  0  0  0  0  0
    1.9750   11.1420  -18.5370 C   0  0  0  0  0  0  0  0  0  0  0  0
    1.4730    9.8760  -19.1560 C   0  0  0  0  0  0  0  0  0  0  0  0
    0.4480    9.1950  -18.2810 C   0  0  0  0  0  0  0  0  0  0  0  0
    1.1160    8.1230  -17.4420 C   0  0  0  0  0  0  0  0  0  0  0  0
    2.2040    8.6290  -16.6680 N   0  0  0  0  0  0  0  0  0  0  0  0
    3.1580    7.7110  -16.0320 C   0  0  0  0  0  0  0  0  0  0  0  0
    2.9780   10.7740  -14.0700 C   0  0  0  0  0  0  0  0  0  0  0  0
    1.7730   11.3470  -13.7940 C   0  0  0  0  0  0  0  0  0  0  0  0
    1.6100   12.3640  -12.8380 C   0  0  0  0  0  0  0  0  0  0  0  0
    2.6820   12.8330  -12.1250 C   0  0  0  0  0  0  0  0  0  0  0  0
    3.9120   12.2530  -12.3980 C   0  0  0  0  0  0  0  0  0  0  0  0
    4.0670   11.2570  -13.3380 C   0  0  0  0  0  0  0  0  0  0  0  0
    2.5430   13.8420  -11.1860 O   0  0  0  0  0  0  0  0  0  0  0  0
    1.5620   14.8480  -11.2150 C   0  0  0  0  0  0  0  0  0  0  0  0
    1.7720   15.5940  -12.5460 C   0  0  0  0  0  0  0  0  0  0  0  0
    4.7120    8.2380  -14.3590 O   0  0  0  0  0  0  0  0  0  0  0  0
    1.7980    6.0090  -11.2080 H   0  0  0  0  0  0  0  0  0  0  0  0
    3.5790    6.6980  -12.6150 H   0  0  0  0  0  0  0  0  0  0  0  0
    0.9220    9.2310  -14.7730 H   0  0  0  0  0  0  0  0  0  0  0  0
   -0.9590    8.5010  -13.3020 H   0  0  0  0  0  0  0  0  0  0  0  0
    4.3120   10.1700  -15.3510 H   0  0  0  0  0  0  0  0  0  0  0  0
    3.0890   11.8760  -16.8850 H   0  0  0  0  0  0  0  0  0  0  0  0
    2.7290   11.5840  -19.2100 H   0  0  0  0  0  0  0  0  0  0  0  0
    1.0810   11.8130  -18.4160 H   0  0  0  0  0  0  0  0  0  0  0  0
    2.2570    9.2180  -19.5110 H   0  0  0  0  0  0  0  0  0  0  0  0
    0.9050   10.2000  -20.0790 H   0  0  0  0  0  0  0  0  0  0  0  0
   -0.0970    9.9210  -17.6900 H   0  0  0  0  0  0  0  0  0  0  0  0
   -0.2920    8.6500  -18.9430 H   0  0  0  0  0  0  0  0  0  0  0  0
    0.3740    7.5140  -16.9040 H   0  0  0  0  0  0  0  0  0  0  0  0
    1.5760    7.4220  -18.2040 H   0  0  0  0  0  0  0  0  0  0  0  0
    4.0470    7.6090  -16.6480 H   0  0  0  0  0  0  0  0  0  0  0  0
    2.6500    6.7800  -15.8070 H   0  0  0  0  0  0  0  0  0  0  0  0
    0.8670   11.0310  -14.2710 H   0  0  0  0  0  0  0  0  0  0  0  0
    0.6290   12.7730  -12.6830 H   0  0  0  0  0  0  0  0  0  0  0  0
    4.8190   12.5690  -11.8630 H   0  0  0  0  0  0  0  0  0  0  0  0
    5.0840   10.8700  -13.5070 H   0  0  0  0  0  0  0  0  0  0  0  0
    1.7320   15.5920  -10.3680 H   0  0  0  0  0  0  0  0  0  0  0  0
    0.5490   14.4570  -11.0920 H   0  0  0  0  0  0  0  0  0  0  0  0
    0.9080   15.2810  -13.1600 H   0  0  0  0  0  0  0  0  0  0  0  0
    2.6930   15.2500  -13.0490 H   0  0  0  0  0  0  0  0  0  0  0  0
    1.8600   16.6810  -12.4080 H   0  0  0  0  0  0  0  0  0  0  0  0
    5.3990    8.0930  -15.0260 H   0  0  0  0  0  0  0  0  0  0  0  0
  2  3  1  0  0  0  0
  2  1  1  0  0  0  0
  3 28  1  0  0  0  0
  4 29  1  0  0  0  0
  4  3  2  0  0  0  0
  5  4  1  0  0  0  0
  6  5  2  0  0  0  0
  6  7  1  0  0  0  0
  7  2  2  0  0  0  0
  8 27  1  1  0  0  0
  8  5  1  0  0  0  0
  9  8  1  0  0  0  0
  9 18  1  0  0  0  0
 10  9  1  0  0  0  0
 11 33  1  0  0  0  0
 11 10  2  0  0  0  0
 12 35  1  0  0  0  0
 12 11  1  0  0  0  0
 13 12  1  0  0  0  0
 13 14  1  0  0  0  0
 14 38  1  0  0  0  0
 14 15  1  0  0  0  0
 15 40  1  0  0  0  0
 15 16  1  0  0  0  0
 16 10  1  0  0  0  0
 16 17  1  0  0  0  0
 17 43  1  0  0  0  0
 17  8  1  0  0  0  0
 18 19  2  0  0  0  0
 18 23  1  0  0  0  0
 19 20  1  0  0  0  0
 20 45  1  0  0  0  0
 20 21  2  0  0  0  0
 21 24  1  0  0  0  0
 22 21  1  0  0  0  0
 22 46  1  0  0  0  0
 23 22  2  0  0  0  0
 25 24  1  0  0  0  0
 25 49  1  0  0  0  0
 25 48  1  0  0  0  0
 26 52  1  0  0  0  0
 26 25  1  0  0  0  0
 30  6  1  0  0  0  0
 31  7  1  0  0  0  0
 32  9  1  0  0  0  0
 34 12  1  0  0  0  0
 36 13  1  0  0  0  0
 37 13  1  0  0  0  0
 39 14  1  0  0  0  0
 41 15  1  0  0  0  0
 42 17  1  0  0  0  0
 44 19  1  0  0  0  0
 47 23  1  0  0  0  0
 50 26  1  0  0  0  0
 51 26  1  0  0  0  0
 53 27  1  0  0  0  0
M  END
>  <Pose>
1

>  <Score>
-1.73

$$$$
