
 OpenBabel03232203513D

 50 53  0  0  1  0  0  0  0  0999 V2000
    3.1830    8.9130  -15.1070 B   0  0  0  0  0  0  0  0  0  0  0  0
    2.8450   10.4390  -14.0020 C   0  0  0  0  0  0  0  0  0  0  0  0
    1.5890   11.0010  -13.9940 C   0  0  0  0  0  0  0  0  0  0  0  0
    1.3120   12.1140  -13.1990 C   0  0  0  0  0  0  0  0  0  0  0  0
    2.3620   12.6200  -12.4270 C   0  0  0  0  0  0  0  0  0  0  0  0
    3.6060   12.0730  -12.4290 C   0  0  0  0  0  0  0  0  0  0  0  0
    3.8610   10.9690  -13.2240 C   0  0  0  0  0  0  0  0  0  0  0  0
    2.0890   13.7730  -11.5450 C   0  0  1  0  0  0  0  0  0  0  0  0
    2.5600   15.0080  -12.1580 N   0  0  0  0  0  0  0  0  0  0  0  0
    3.7200   15.0540  -13.0410 C   0  0  0  0  0  0  0  0  0  0  0  0
    4.2030   16.4330  -13.3020 C   0  0  0  0  0  0  0  0  0  0  0  0
    4.4320   17.2520  -12.0580 C   0  0  0  0  0  0  0  0  0  0  0  0
    3.1740   18.0790  -11.8650 C   0  0  0  0  0  0  0  0  0  0  0  0
    1.9760   17.3400  -11.5970 C   0  0  0  0  0  0  0  0  0  0  0  0
    1.7080   16.0190  -11.7210 C   0  0  0  0  0  0  0  0  0  0  0  0
    0.4330   15.5100  -11.4090 N   0  0  0  0  0  4  0  0  0  0  0  0
    0.6420   14.0910  -11.4020 C   0  0  0  0  0  0  0  0  0  0  0  0
   -0.4310   15.9290  -12.4660 C   0  0  0  0  0  0  0  0  0  0  0  0
   -1.2980   16.9940  -12.2920 C   0  0  0  0  0  0  0  0  0  0  0  0
   -2.1500   17.2720  -13.3530 C   0  0  0  0  0  0  0  0  0  0  0  0
   -2.1750   16.5590  -14.5370 C   0  0  0  0  0  0  0  0  0  0  0  0
   -1.2730   15.4820  -14.6670 C   0  0  0  0  0  0  0  0  0  0  0  0
   -0.4500   15.2240  -13.6310 C   0  0  0  0  0  0  0  0  0  0  0  0
   -1.2820   17.7060  -11.1320 O   0  0  0  0  0  0  0  0  0  0  0  0
   -2.2600   18.6710  -10.8460 C   0  0  0  0  0  0  0  0  0  0  0  0
    2.7540   13.6260  -10.3560 O   0  0  0  0  0  0  0  0  0  0  0  0
    0.7700   10.6010  -14.5950 H   0  0  0  0  0  0  0  0  0  0  0  0
    0.3110   12.5010  -13.2130 H   0  0  0  0  0  0  0  0  0  0  0  0
    4.4250   12.4830  -11.8130 H   0  0  0  0  0  0  0  0  0  0  0  0
    4.8710   10.5340  -13.2230 H   0  0  0  0  0  0  0  0  0  0  0  0
    4.5350   14.4940  -12.5300 H   0  0  0  0  0  0  0  0  0  0  0  0
    3.4650   14.6280  -14.0500 H   0  0  0  0  0  0  0  0  0  0  0  0
    5.2060   16.3610  -13.8070 H   0  0  0  0  0  0  0  0  0  0  0  0
    3.5030   16.9130  -14.0180 H   0  0  0  0  0  0  0  0  0  0  0  0
    5.2660   18.0100  -12.2310 H   0  0  0  0  0  0  0  0  0  0  0  0
    4.6270   16.6290  -11.1630 H   0  0  0  0  0  0  0  0  0  0  0  0
    3.0610   18.6980  -12.8110 H   0  0  0  0  0  0  0  0  0  0  0  0
    3.3830   18.8110  -11.0370 H   0  0  0  0  0  0  0  0  0  0  0  0
    1.1440   17.9190  -11.2270 H   0  0  0  0  0  0  0  0  0  0  0  0
    0.0690   15.7990  -10.4720 H   0  0  0  0  0  0  0  0  0  0  0  0
    0.0080   13.5620  -12.1480 H   0  0  0  0  0  0  0  0  0  0  0  0
    0.2960   13.6970  -10.4320 H   0  0  0  0  0  0  0  0  0  0  0  0
   -2.8260   18.1100  -13.1890 H   0  0  0  0  0  0  0  0  0  0  0  0
   -2.8390   16.7860  -15.3520 H   0  0  0  0  0  0  0  0  0  0  0  0
   -1.2900   14.9190  -15.5730 H   0  0  0  0  0  0  0  0  0  0  0  0
    0.2230   14.3540  -13.7890 H   0  0  0  0  0  0  0  0  0  0  0  0
   -2.3720   19.3500  -11.7200 H   0  0  0  0  0  0  0  0  0  0  0  0
   -3.2080   18.1510  -10.6510 H   0  0  0  0  0  0  0  0  0  0  0  0
   -1.9160   19.2630   -9.9440 H   0  0  0  0  0  0  0  0  0  0  0  0
    3.1050   14.4620   -9.9850 H   0  0  0  0  0  0  0  0  0  0  0  0
  1  2  1  0  0  0  0
  2  3  2  0  0  0  0
  2  7  1  0  0  0  0
  3  4  1  0  0  0  0
  4  5  2  0  0  0  0
  5  8  1  0  0  0  0
  6  5  1  0  0  0  0
  6 29  1  0  0  0  0
  7 30  1  0  0  0  0
  7  6  2  0  0  0  0
  8 17  1  0  0  0  0
  8 26  1  1  0  0  0
  9 15  1  0  0  0  0
  9  8  1  0  0  0  0
 10 31  1  0  0  0  0
 10  9  1  0  0  0  0
 11 10  1  0  0  0  0
 11 12  1  0  0  0  0
 12 13  1  0  0  0  0
 12 36  1  0  0  0  0
 13 14  1  0  0  0  0
 13 38  1  0  0  0  0
 14 39  1  0  0  0  0
 15 14  2  0  0  0  0
 15 16  1  0  0  0  0
 16 17  1  0  0  0  0
 16 40  1  0  0  0  0
 17 42  1  0  0  0  0
 18 19  1  0  0  0  0
 18 16  1  0  0  0  0
 19 24  1  0  0  0  0
 20 43  1  0  0  0  0
 20 19  2  0  0  0  0
 21 20  1  0  0  0  0
 22 21  2  0  0  0  0
 22 23  1  0  0  0  0
 23 18  2  0  0  0  0
 24 25  1  0  0  0  0
 25 48  1  0  0  0  0
 25 49  1  0  0  0  0
 26 50  1  0  0  0  0
 27  3  1  0  0  0  0
 28  4  1  0  0  0  0
 32 10  1  0  0  0  0
 33 11  1  0  0  0  0
 34 11  1  0  0  0  0
 35 12  1  0  0  0  0
 37 13  1  0  0  0  0
 41 17  1  0  0  0  0
 44 21  1  0  0  0  0
 45 22  1  0  0  0  0
 46 23  1  0  0  0  0
 47 25  1  0  0  0  0
M  END
>  <Pose>
1

>  <Score>
-3.05

$$$$
