
 OpenBabel03232203513D

 50 53  0  0  1  0  0  0  0  0999 V2000
    6.7970    1.9840  -13.4630 B   0  0  0  0  0  0  0  0  0  0  0  0
    5.7150    3.5550  -13.3170 C   0  0  0  0  0  0  0  0  0  0  0  0
    4.3430    3.4670  -13.2070 C   0  0  0  0  0  0  0  0  0  0  0  0
    3.5750    4.6200  -13.1060 C   0  0  0  0  0  0  0  0  0  0  0  0
    4.1250    5.8590  -13.1090 C   0  0  0  0  0  0  0  0  0  0  0  0
    5.5280    5.9540  -13.2220 C   0  0  0  0  0  0  0  0  0  0  0  0
    6.2770    4.8100  -13.3210 C   0  0  0  0  0  0  0  0  0  0  0  0
    3.4450    7.1480  -13.0130 C   0  0  2  0  0  0  0  0  0  0  0  0
    2.0290    7.1470  -12.8380 N   0  0  0  0  0  0  0  0  0  0  0  0
    1.2740    6.5710  -11.7680 C   0  0  0  0  0  0  0  0  0  0  0  0
    0.0820    5.7720  -12.1270 C   0  0  0  0  0  0  0  0  0  0  0  0
   -0.2630    5.6740  -13.5680 C   0  0  0  0  0  0  0  0  0  0  0  0
   -0.8380    6.9810  -14.1160 C   0  0  0  0  0  0  0  0  0  0  0  0
    0.3300    7.8210  -14.5260 C   0  0  0  0  0  0  0  0  0  0  0  0
    1.5350    7.8880  -13.9870 C   0  0  0  0  0  0  0  0  0  0  0  0
    2.5820    8.7170  -14.4760 N   0  0  0  0  0  4  0  0  0  0  0  0
    3.6950    7.8210  -14.3670 C   0  0  0  0  0  0  0  0  0  0  0  0
    2.6910    9.8530  -13.6570 C   0  0  0  0  0  0  0  0  0  0  0  0
    3.7190   10.7910  -13.8590 C   0  0  0  0  0  0  0  0  0  0  0  0
    3.8550   11.9050  -13.0760 C   0  0  0  0  0  0  0  0  0  0  0  0
    2.9750   12.1560  -12.0440 C   0  0  0  0  0  0  0  0  0  0  0  0
    1.9640   11.2560  -11.8270 C   0  0  0  0  0  0  0  0  0  0  0  0
    1.8290   10.1330  -12.6170 C   0  0  0  0  0  0  0  0  0  0  0  0
    3.1220   13.3050  -11.2440 O   0  0  0  0  0  0  0  0  0  0  0  0
    2.0920   14.2560  -11.1850 C   0  0  0  0  0  0  0  0  0  0  0  0
    4.1100    7.8590  -11.9940 O   0  0  0  0  0  0  0  0  0  0  0  0
    3.8400    2.5230  -13.2000 H   0  0  0  0  0  0  0  0  0  0  0  0
    2.5020    4.5500  -13.0270 H   0  0  0  0  0  0  0  0  0  0  0  0
    6.0330    6.9210  -13.2300 H   0  0  0  0  0  0  0  0  0  0  0  0
    7.3540    4.8630  -13.4080 H   0  0  0  0  0  0  0  0  0  0  0  0
    2.0010    5.9980  -11.1190 H   0  0  0  0  0  0  0  0  0  0  0  0
    0.9040    7.3640  -11.0390 H   0  0  0  0  0  0  0  0  0  0  0  0
   -0.8500    6.0570  -11.5780 H   0  0  0  0  0  0  0  0  0  0  0  0
    0.2680    4.7090  -11.7820 H   0  0  0  0  0  0  0  0  0  0  0  0
    0.5830    5.3240  -14.2010 H   0  0  0  0  0  0  0  0  0  0  0  0
   -1.0720    4.9190  -13.6820 H   0  0  0  0  0  0  0  0  0  0  0  0
   -1.3800    6.6890  -15.0620 H   0  0  0  0  0  0  0  0  0  0  0  0
   -1.4740    7.4550  -13.3740 H   0  0  0  0  0  0  0  0  0  0  0  0
    0.1570    8.4600  -15.3840 H   0  0  0  0  0  0  0  0  0  0  0  0
    2.3580    8.9620  -15.4730 H   0  0  0  0  0  0  0  0  0  0  0  0
    4.6780    8.2550  -14.4720 H   0  0  0  0  0  0  0  0  0  0  0  0
    3.5700    7.0370  -15.1560 H   0  0  0  0  0  0  0  0  0  0  0  0
    4.3810   10.5640  -14.6660 H   0  0  0  0  0  0  0  0  0  0  0  0
    4.6500   12.6190  -13.2430 H   0  0  0  0  0  0  0  0  0  0  0  0
    1.2590   11.4560  -11.0050 H   0  0  0  0  0  0  0  0  0  0  0  0
    1.0000    9.4470  -12.4030 H   0  0  0  0  0  0  0  0  0  0  0  0
    1.0910   13.8060  -11.0230 H   0  0  0  0  0  0  0  0  0  0  0  0
    2.1080   14.8530  -12.1240 H   0  0  0  0  0  0  0  0  0  0  0  0
    2.2630   14.9530  -10.3470 H   0  0  0  0  0  0  0  0  0  0  0  0
    3.3890    8.3110  -11.4860 H   0  0  0  0  0  0  0  0  0  0  0  0
  1  2  1  0  0  0  0
  2  3  1  0  0  0  0
  3 27  1  0  0  0  0
  3  4  2  0  0  0  0
  4 28  1  0  0  0  0
  5  4  1  0  0  0  0
  5  8  1  0  0  0  0
  6  5  2  0  0  0  0
  7  2  2  0  0  0  0
  7  6  1  0  0  0  0
  8  9  1  0  0  0  0
  8 26  1  1  0  0  0
  9 10  1  0  0  0  0
 10 31  1  0  0  0  0
 10 32  1  0  0  0  0
 11 34  1  0  0  0  0
 11 10  1  0  0  0  0
 11 33  1  0  0  0  0
 12 11  1  0  0  0  0
 13 12  1  0  0  0  0
 13 38  1  0  0  0  0
 14 13  1  0  0  0  0
 14 15  2  0  0  0  0
 15  9  1  0  0  0  0
 16 17  1  0  0  0  0
 16 15  1  0  0  0  0
 16 18  1  0  0  0  0
 17  8  1  0  0  0  0
 18 23  1  0  0  0  0
 19 18  2  0  0  0  0
 19 20  1  0  0  0  0
 20 21  2  0  0  0  0
 21 22  1  0  0  0  0
 21 24  1  0  0  0  0
 22 45  1  0  0  0  0
 23 46  1  0  0  0  0
 23 22  2  0  0  0  0
 24 25  1  0  0  0  0
 25 47  1  0  0  0  0
 25 49  1  0  0  0  0
 26 50  1  0  0  0  0
 29  6  1  0  0  0  0
 30  7  1  0  0  0  0
 35 12  1  0  0  0  0
 36 12  1  0  0  0  0
 37 13  1  0  0  0  0
 39 14  1  0  0  0  0
 40 16  1  0  0  0  0
 41 17  1  0  0  0  0
 42 17  1  0  0  0  0
 43 19  1  0  0  0  0
 44 20  1  0  0  0  0
 48 25  1  0  0  0  0
M  END
>  <Pose>
1

>  <Score>
-4.50

$$$$
