
 OpenBabel03232203513D

 47 50  0  0  1  0  0  0  0  0999 V2000
   -6.5120    9.6680  -14.7680 B   0  0  0  0  0  0  0  0  0  0  0  0
   -4.8120    8.8370  -14.5220 C   0  0  0  0  0  0  0  0  0  0  0  0
   -4.5440    7.5710  -15.0090 C   0  0  0  0  0  0  0  0  0  0  0  0
   -3.3090    6.9860  -14.8240 C   0  0  0  0  0  0  0  0  0  0  0  0
   -2.2780    7.6110  -14.1540 C   0  0  0  0  0  0  0  0  0  0  0  0
   -2.5570    8.8830  -13.6670 C   0  0  0  0  0  0  0  0  0  0  0  0
   -3.7930    9.4760  -13.8490 C   0  0  0  0  0  0  0  0  0  0  0  0
   -0.9900    6.9410  -13.9900 C   0  0  2  0  0  0  0  0  0  0  0  0
   -0.4780    6.9350  -12.6420 N   0  0  0  0  0  0  0  0  0  0  0  0
   -1.0560    6.9290  -11.3060 C   0  0  0  0  0  0  0  0  0  0  0  0
   -0.2370    6.2560  -10.2740 C   0  0  0  0  0  0  0  0  0  0  0  0
    1.0120    5.5740  -10.7720 C   0  0  0  0  0  0  0  0  0  0  0  0
    1.6580    6.2830  -11.8720 C   0  0  0  0  0  0  0  0  0  0  0  0
    0.9370    6.9340  -12.7660 C   0  0  0  0  0  0  0  0  0  0  0  0
    1.2760    7.6990  -13.9180 N   0  0  0  0  0  4  0  0  0  0  0  0
    0.1270    7.6030  -14.7630 C   0  0  0  0  0  0  0  0  0  0  0  0
    1.6260    8.9840  -13.5230 C   0  0  0  0  0  0  0  0  0  0  0  0
    0.7330   10.0230  -13.6380 C   0  0  0  0  0  0  0  0  0  0  0  0
    1.0890   11.3210  -13.2390 C   0  0  0  0  0  0  0  0  0  0  0  0
    2.3240   11.6000  -12.7250 C   0  0  0  0  0  0  0  0  0  0  0  0
    3.2360   10.5340  -12.6080 C   0  0  0  0  0  0  0  0  0  0  0  0
    2.8560    9.2700  -13.0100 C   0  0  0  0  0  0  0  0  0  0  0  0
    2.7440   12.8620  -12.3100 O   0  0  0  0  0  0  0  0  0  0  0  0
    2.5300   13.4340  -11.0610 C   0  0  0  0  0  0  0  0  0  0  0  0
   -1.1410    5.5940  -14.3790 O   0  0  0  0  0  0  0  0  0  0  0  0
   -5.3500    7.0750  -15.5370 H   0  0  0  0  0  0  0  0  0  0  0  0
   -3.1210    5.9840  -15.2190 H   0  0  0  0  0  0  0  0  0  0  0  0
   -1.7760    9.3980  -13.1380 H   0  0  0  0  0  0  0  0  0  0  0  0
   -4.0150   10.4730  -13.4710 H   0  0  0  0  0  0  0  0  0  0  0  0
   -2.0730    6.4460  -11.3290 H   0  0  0  0  0  0  0  0  0  0  0  0
   -1.2820    7.9830  -10.9720 H   0  0  0  0  0  0  0  0  0  0  0  0
   -0.8580    5.5510   -9.6590 H   0  0  0  0  0  0  0  0  0  0  0  0
    0.1250    7.0170   -9.5210 H   0  0  0  0  0  0  0  0  0  0  0  0
    1.7460    5.4160   -9.9550 H   0  0  0  0  0  0  0  0  0  0  0  0
    0.7010    4.5450  -11.1030 H   0  0  0  0  0  0  0  0  0  0  0  0
    2.7260    6.2750  -11.9530 H   0  0  0  0  0  0  0  0  0  0  0  0
    2.1050    7.2200  -14.3640 H   0  0  0  0  0  0  0  0  0  0  0  0
    0.3590    6.9310  -15.6190 H   0  0  0  0  0  0  0  0  0  0  0  0
   -0.1820    8.5640  -15.2120 H   0  0  0  0  0  0  0  0  0  0  0  0
   -0.2630    9.8970  -14.0300 H   0  0  0  0  0  0  0  0  0  0  0  0
    0.3730   12.1320  -13.3340 H   0  0  0  0  0  0  0  0  0  0  0  0
    4.2160   10.7560  -12.1990 H   0  0  0  0  0  0  0  0  0  0  0  0
    3.5660    8.4790  -12.9110 H   0  0  0  0  0  0  0  0  0  0  0  0
    2.0020   12.8090  -10.3510 H   0  0  0  0  0  0  0  0  0  0  0  0
    2.0860   14.4520  -11.1750 H   0  0  0  0  0  0  0  0  0  0  0  0
    3.5410   13.6290  -10.5950 H   0  0  0  0  0  0  0  0  0  0  0  0
   -0.2390    5.2880  -14.6440 H   0  0  0  0  0  0  0  0  0  0  0  0
  1  2  1  0  0  0  0
  2  7  1  0  0  0  0
  3  4  1  0  0  0  0
  3  2  2  0  0  0  0
  4  5  2  0  0  0  0
  5  8  1  0  0  0  0
  5  6  1  0  0  0  0
  6 28  1  0  0  0  0
  7  6  2  0  0  0  0
  7 29  1  0  0  0  0
  8 25  1  6  0  0  0
  8  9  1  0  0  0  0
  9 10  1  0  0  0  0
 10 31  1  0  0  0  0
 10 11  1  0  0  0  0
 11 32  1  0  0  0  0
 11 33  1  0  0  0  0
 12 11  1  0  0  0  0
 12 34  1  0  0  0  0
 13 12  1  0  0  0  0
 14  9  1  0  0  0  0
 14 13  2  0  0  0  0
 15 17  1  0  0  0  0
 15 14  1  0  0  0  0
 16  8  1  0  0  0  0
 16 15  1  0  0  0  0
 17 22  1  0  0  0  0
 18 17  2  0  0  0  0
 18 19  1  0  0  0  0
 19 20  2  0  0  0  0
 20 21  1  0  0  0  0
 20 23  1  0  0  0  0
 21 42  1  0  0  0  0
 22 43  1  0  0  0  0
 22 21  2  0  0  0  0
 23 24  1  0  0  0  0
 24 46  1  0  0  0  0
 24 44  1  0  0  0  0
 26  3  1  0  0  0  0
 27  4  1  0  0  0  0
 30 10  1  0  0  0  0
 35 12  1  0  0  0  0
 36 13  1  0  0  0  0
 37 15  1  0  0  0  0
 38 16  1  0  0  0  0
 39 16  1  0  0  0  0
 40 18  1  0  0  0  0
 41 19  1  0  0  0  0
 45 24  1  0  0  0  0
 47 25  1  0  0  0  0
M  END
>  <Pose>
1

>  <Score>
-4.17

$$$$
