
 OpenBabel03232203513D

 60 63  0  0  0  0  0  0  0  0999 V2000
    0.2310    6.2860  -12.8470 B   0  0  0  0  0  0  0  0  0  0  0  0
   -1.1220    7.5070  -13.3360 C   0  0  0  0  0  0  0  0  0  0  0  0
   -0.9660    8.8210  -12.9670 C   0  0  0  0  0  0  0  0  0  0  0  0
   -1.9050    9.8210  -13.2750 C   0  0  0  0  0  0  0  0  0  0  0  0
   -3.0530    9.4610  -13.9910 C   0  0  0  0  0  0  0  0  0  0  0  0
   -3.1960    8.1410  -14.3550 C   0  0  0  0  0  0  0  0  0  0  0  0
   -2.2590    7.1730  -14.0410 C   0  0  0  0  0  0  0  0  0  0  0  0
   -2.4440    5.7390  -14.4510 C   0  0  0  0  0  0  0  0  0  0  0  0
   -4.7580    7.6540  -15.3310 B   0  0  0  0  0  0  0  0  0  0  0  0
   -1.6910   11.1910  -12.8510 C   0  0  0  0  0  0  0  0  0  0  0  0
   -2.7210   11.8620  -12.5910 O   0  0  0  0  0  0  0  0  0  0  0  0
   -0.2950   11.6630  -12.7670 C   0  0  0  0  0  0  0  0  0  0  0  0
    0.2950   10.5700  -11.7680 C   0  0  0  0  0  0  0  0  0  0  0  0
    0.1250    9.2880  -12.2580 O   0  0  0  0  0  0  0  0  0  0  0  0
   -0.0660   12.9400  -12.1230 C   0  0  0  0  0  0  0  0  0  0  0  0
    0.9570   13.8510  -12.3350 N   0  0  0  0  0  4  0  0  0  0  0  0
    1.7090   14.4220  -11.2870 C   0  0  0  0  0  0  0  0  0  0  0  0
    2.2640   15.8020  -11.6110 C   0  0  0  0  0  0  0  0  0  0  0  0
    1.1750   16.8140  -11.7790 C   0  0  0  0  0  0  0  0  0  0  0  0
   -0.0090   16.1330  -12.3930 C   0  0  0  0  0  0  0  0  0  0  0  0
    0.4530   14.9530  -13.1840 C   0  0  0  0  0  0  0  0  0  0  0  0
    0.3830   11.4720  -14.0700 C   0  0  0  0  0  0  0  0  0  0  0  0
    1.3860   10.5040  -14.2280 N   0  0  0  0  0  4  0  0  0  0  0  0
    1.6670   10.3630  -15.6630 C   0  0  0  0  0  0  0  0  0  0  0  0
    2.5170    9.1450  -15.9600 C   0  0  0  0  0  0  0  0  0  0  0  0
    3.8750    9.4170  -15.2940 C   0  0  0  0  0  0  0  0  0  0  0  0
    3.5500    9.5450  -13.8240 C   0  0  0  0  0  0  0  0  0  0  0  0
    2.6850   10.8050  -13.6480 C   0  0  0  0  0  0  0  0  0  0  0  0
   -3.7670   10.2270  -14.2220 H   0  0  0  0  0  0  0  0  0  0  0  0
   -2.2940    5.7250  -15.5620 H   0  0  0  0  0  0  0  0  0  0  0  0
   -1.7330    5.1070  -13.9190 H   0  0  0  0  0  0  0  0  0  0  0  0
   -3.5080    5.4890  -14.2650 H   0  0  0  0  0  0  0  0  0  0  0  0
   -0.3400   10.7000  -10.8690 H   0  0  0  0  0  0  0  0  0  0  0  0
    1.3130   10.8450  -11.5230 H   0  0  0  0  0  0  0  0  0  0  0  0
   -0.1220   12.7930  -10.9830 H   0  0  0  0  0  0  0  0  0  0  0  0
   -1.0530   13.5370  -12.2580 H   0  0  0  0  0  0  0  0  0  0  0  0
    1.7120   13.4410  -13.0290 H   0  0  0  0  0  0  0  0  0  0  0  0
    2.5810   13.7620  -11.0470 H   0  0  0  0  0  0  0  0  0  0  0  0
    1.1830   14.5670  -10.3390 H   0  0  0  0  0  0  0  0  0  0  0  0
    2.8240   15.7200  -12.5540 H   0  0  0  0  0  0  0  0  0  0  0  0
    2.9480   16.1540  -10.8330 H   0  0  0  0  0  0  0  0  0  0  0  0
    1.4610   17.6960  -12.3670 H   0  0  0  0  0  0  0  0  0  0  0  0
    0.9060   17.1470  -10.7330 H   0  0  0  0  0  0  0  0  0  0  0  0
   -0.4640   16.8390  -13.1200 H   0  0  0  0  0  0  0  0  0  0  0  0
   -0.8160   15.8990  -11.6740 H   0  0  0  0  0  0  0  0  0  0  0  0
   -0.3190   14.5550  -13.8970 H   0  0  0  0  0  0  0  0  0  0  0  0
    1.2990   15.2930  -13.8030 H   0  0  0  0  0  0  0  0  0  0  0  0
    0.7420   12.4520  -14.4820 H   0  0  0  0  0  0  0  0  0  0  0  0
   -0.4160   11.2150  -14.8820 H   0  0  0  0  0  0  0  0  0  0  0  0
    1.1870    9.5290  -13.9240 H   0  0  0  0  0  0  0  0  0  0  0  0
    2.3140   11.2480  -15.9350 H   0  0  0  0  0  0  0  0  0  0  0  0
    0.7990   10.4060  -16.3000 H   0  0  0  0  0  0  0  0  0  0  0  0
    2.0460    8.2420  -15.5360 H   0  0  0  0  0  0  0  0  0  0  0  0
    2.6700    9.1060  -17.0360 H   0  0  0  0  0  0  0  0  0  0  0  0
    4.5880    8.6230  -15.5110 H   0  0  0  0  0  0  0  0  0  0  0  0
    4.1940   10.4260  -15.6360 H   0  0  0  0  0  0  0  0  0  0  0  0
    2.8690    8.6950  -13.5340 H   0  0  0  0  0  0  0  0  0  0  0  0
    4.4150    9.5550  -13.1600 H   0  0  0  0  0  0  0  0  0  0  0  0
    2.6860   10.9510  -12.5590 H   0  0  0  0  0  0  0  0  0  0  0  0
    3.2000   11.6060  -14.2020 H   0  0  0  0  0  0  0  0  0  0  0  0
  2  3  1  0  0  0  0
  2  1  1  0  0  0  0
  3 14  1  0  0  0  0
  4  3  2  0  0  0  0
  4 10  1  0  0  0  0
  5  4  1  0  0  0  0
  6  7  1  0  0  0  0
  6  5  2  0  0  0  0
  7  2  2  0  0  0  0
  8 32  1  0  0  0  0
  8  7  1  0  0  0  0
  8 31  1  0  0  0  0
  9  6  1  0  0  0  0
 10 12  1  0  0  0  0
 10 11  2  0  0  0  0
 12 15  1  0  0  0  0
 12 13  1  0  0  0  0
 13 34  1  0  0  0  0
 13 33  1  0  0  0  0
 14 13  1  0  0  0  0
 15 35  1  0  0  0  0
 16 15  1  0  0  0  0
 16 17  1  0  0  0  0
 17 38  1  0  0  0  0
 17 39  1  0  0  0  0
 18 17  1  0  0  0  0
 18 41  1  0  0  0  0
 19 18  1  0  0  0  0
 19 43  1  0  0  0  0
 20 19  1  0  0  0  0
 20 45  1  0  0  0  0
 21 20  1  0  0  0  0
 21 16  1  0  0  0  0
 22 12  1  0  0  0  0
 23 22  1  0  0  0  0
 23 50  1  0  0  0  0
 23 28  1  0  0  0  0
 24 23  1  0  0  0  0
 25 24  1  0  0  0  0
 25 53  1  0  0  0  0
 25 26  1  0  0  0  0
 26 27  1  0  0  0  0
 27 28  1  0  0  0  0
 27 57  1  0  0  0  0
 27 58  1  0  0  0  0
 28 59  1  0  0  0  0
 29  5  1  0  0  0  0
 30  8  1  0  0  0  0
 36 15  1  0  0  0  0
 37 16  1  0  0  0  0
 40 18  1  0  0  0  0
 42 19  1  0  0  0  0
 44 20  1  0  0  0  0
 46 21  1  0  0  0  0
 47 21  1  0  0  0  0
 48 22  1  0  0  0  0
 49 22  1  0  0  0  0
 51 24  1  0  0  0  0
 52 24  1  0  0  0  0
 54 25  1  0  0  0  0
 55 26  1  0  0  0  0
 56 26  1  0  0  0  0
 60 28  1  0  0  0  0
M  END
>  <Pose>
1

>  <Score>
-3.35

$$$$
