
 OpenBabel03232203513D

 50 53  0  0  0  0  0  0  0  0999 V2000
   -2.6060   19.5220  -10.9800 F   0  0  0  0  0  0  0  0  0  0  0  0
   -2.0960   18.4630  -11.6690 C   0  0  0  0  0  0  0  0  0  0  0  0
   -2.7110   17.9680  -12.8000 C   0  0  0  0  0  0  0  0  0  0  0  0
   -2.1780   16.8940  -13.4820 C   0  0  0  0  0  0  0  0  0  0  0  0
   -1.0140   16.2680  -13.0680 C   0  0  0  0  0  0  0  0  0  0  0  0
   -0.4070   16.7690  -11.9370 C   0  0  0  0  0  0  0  0  0  0  0  0
   -0.9400   17.8500  -11.2470 C   0  0  0  0  0  0  0  0  0  0  0  0
   -0.4470   15.1330  -13.7850 C   0  0  0  0  0  0  0  0  0  0  0  0
   -0.5820   13.9370  -13.3340 N   0  0  0  0  0  0  0  0  0  0  0  0
   -0.0700   12.8110  -13.9640 N   0  0  0  0  0  0  0  0  0  0  0  0
   -0.6510   11.5400  -13.7550 C   0  0  0  0  0  0  0  0  0  0  0  0
   -1.9540   11.3400  -14.0530 N   0  0  0  0  0  4  0  0  0  0  0  0
   -2.5730   10.1470  -13.8770 C   0  0  0  0  0  0  0  0  0  0  0  0
   -1.8260    9.1550  -13.3900 N   0  0  0  0  0  0  0  0  0  0  0  0
   -0.5250    9.2800  -13.0720 C   0  0  0  0  0  0  0  0  0  0  0  0
    0.0310   10.4890  -13.2680 N   0  0  0  0  0  0  0  0  0  0  0  0
    0.2080    8.1770  -12.5560 N   0  0  0  0  0  0  0  0  0  0  0  0
   -0.2940    6.8350  -12.7790 C   0  0  0  0  0  0  0  0  0  0  0  0
    0.6220    5.8370  -12.1080 C   0  0  0  0  0  0  0  0  0  0  0  0
    1.9480    6.0130  -12.3840 O   0  0  0  0  0  0  0  0  0  0  0  0
    2.4100    7.3010  -12.3990 C   0  0  0  0  0  0  0  0  0  0  0  0
    1.4290    8.3060  -11.8180 C   0  0  0  0  0  0  0  0  0  0  0  0
   -3.9490    9.9930  -14.2070 N   0  0  0  0  0  0  0  0  0  0  0  0
   -4.9840   10.9220  -13.8200 C   0  0  0  0  0  0  0  0  0  0  0  0
   -6.0140   10.0480  -13.1070 C   0  0  0  0  0  0  0  0  0  0  0  0
   -6.5850    9.2220  -14.0030 O   0  0  0  0  0  0  0  0  0  0  0  0
   -5.8290    8.5480  -14.8790 C   0  0  0  0  0  0  0  0  0  0  0  0
   -4.3860    8.8510  -14.9760 C   0  0  0  0  0  0  0  0  0  0  0  0
   -4.3180   18.8130  -13.3930 B   0  0  0  0  0  0  0  0  0  0  0  0
   -2.6590   16.4940  -14.3820 H   0  0  0  0  0  0  0  0  0  0  0  0
    0.5140   16.2790  -11.6040 H   0  0  0  0  0  0  0  0  0  0  0  0
   -0.4450   18.2320  -10.3540 H   0  0  0  0  0  0  0  0  0  0  0  0
    0.0860   15.3110  -14.6980 H   0  0  0  0  0  0  0  0  0  0  0  0
    0.7470   12.8980  -14.5910 H   0  0  0  0  0  0  0  0  0  0  0  0
   -1.3000    6.7010  -12.2880 H   0  0  0  0  0  0  0  0  0  0  0  0
   -0.3210    6.6690  -13.8600 H   0  0  0  0  0  0  0  0  0  0  0  0
    0.3310    4.8310  -12.5290 H   0  0  0  0  0  0  0  0  0  0  0  0
    0.4070    5.7710  -11.0290 H   0  0  0  0  0  0  0  0  0  0  0  0
    2.5570    7.6070  -13.4660 H   0  0  0  0  0  0  0  0  0  0  0  0
    3.3850    7.3340  -11.8610 H   0  0  0  0  0  0  0  0  0  0  0  0
    1.2370    7.9760  -10.7740 H   0  0  0  0  0  0  0  0  0  0  0  0
    1.8610    9.3060  -11.8880 H   0  0  0  0  0  0  0  0  0  0  0  0
   -5.4770   11.2620  -14.7540 H   0  0  0  0  0  0  0  0  0  0  0  0
   -4.6300   11.7430  -13.1830 H   0  0  0  0  0  0  0  0  0  0  0  0
   -5.4820    9.5200  -12.2940 H   0  0  0  0  0  0  0  0  0  0  0  0
   -6.8160   10.7030  -12.6620 H   0  0  0  0  0  0  0  0  0  0  0  0
   -6.2840    8.6720  -15.9070 H   0  0  0  0  0  0  0  0  0  0  0  0
   -5.9610    7.4400  -14.6830 H   0  0  0  0  0  0  0  0  0  0  0  0
   -4.0740    9.0760  -16.0400 H   0  0  0  0  0  0  0  0  0  0  0  0
   -3.7670    7.9410  -14.7180 H   0  0  0  0  0  0  0  0  0  0  0  0
  2  7  1  0  0  0  0
  2  1  1  0  0  0  0
  3  2  2  0  0  0  0
  4  5  2  0  0  0  0
  4  3  1  0  0  0  0
  5  6  1  0  0  0  0
  6 31  1  0  0  0  0
  6  7  2  0  0  0  0
  7 32  1  0  0  0  0
  8  9  2  0  0  0  0
  8  5  1  0  0  0  0
 10 11  1  0  0  0  0
 10  9  1  0  0  0  0
 11 16  1  0  0  0  0
 12 13  2  0  0  0  0
 12 11  2  0  0  0  0
 13 14  1  0  0  0  0
 14 15  2  0  0  0  0
 15 17  1  0  0  0  0
 16 15  1  0  0  0  0
 17 22  1  0  0  0  0
 18 17  1  0  0  0  0
 18 35  1  0  0  0  0
 18 19  1  0  0  0  0
 19 38  1  0  0  0  0
 20 19  1  0  0  0  0
 21 20  1  0  0  0  0
 21 40  1  0  0  0  0
 21 22  1  0  0  0  0
 22 41  1  0  0  0  0
 23 13  1  0  0  0  0
 23 24  1  0  0  0  0
 24 44  1  0  0  0  0
 24 25  1  0  0  0  0
 25 46  1  0  0  0  0
 25 45  1  0  0  0  0
 26 25  1  0  0  0  0
 27 48  1  0  0  0  0
 27 26  1  0  0  0  0
 28 27  1  0  0  0  0
 28 50  1  0  0  0  0
 28 23  1  0  0  0  0
 29  3  1  0  0  0  0
 30  4  1  0  0  0  0
 33  8  1  0  0  0  0
 34 10  1  0  0  0  0
 36 18  1  0  0  0  0
 37 19  1  0  0  0  0
 39 21  1  0  0  0  0
 42 22  1  0  0  0  0
 43 24  1  0  0  0  0
 47 27  1  0  0  0  0
 49 28  1  0  0  0  0
M  END
>  <Pose>
1

>  <Score>
-7.15

$$$$
