
 OpenBabel03232203513D

 41 44  0  0  0  0  0  0  0  0999 V2000
   -5.1270   24.6270   -7.3780 F   0  0  0  0  0  0  0  0  0  0  0  0
   -6.3660   24.1250   -7.6530 C   0  0  0  0  0  0  0  0  0  0  0  0
   -6.4500   22.9580   -8.4290 C   0  0  0  0  0  0  0  0  0  0  0  0
   -7.7160   22.4920   -8.6780 C   0  0  0  0  0  0  0  0  0  0  0  0
   -8.8280   23.1520   -8.1830 C   0  0  0  0  0  0  0  0  0  0  0  0
   -8.7410   24.2860   -7.4300 C   0  0  0  0  0  0  0  0  0  0  0  0
   -7.4780   24.7660   -7.1710 C   0  0  0  0  0  0  0  0  0  0  0  0
   -5.2550   22.3410   -8.8970 N   0  0  0  0  0  0  0  0  0  0  0  0
   -5.1150   21.4190   -9.9290 C   0  0  0  0  0  0  0  0  0  0  0  0
   -6.0000   21.2300  -10.7800 O   0  0  0  0  0  0  0  0  0  0  0  0
   -3.8800   20.5970  -10.0720 C   0  0  0  0  0  0  0  0  0  0  0  0
   -3.9200   19.8750  -11.3300 N   0  0  0  0  0  0  0  0  0  0  0  0
   -4.7590   20.0130  -12.3330 N   0  0  0  0  0  0  0  0  0  0  0  0
   -4.4580   19.1640  -13.3050 N   0  0  0  0  0  0  0  0  0  0  0  0
   -3.3800   18.4480  -12.9170 C   0  0  0  0  0  0  0  0  0  0  0  0
   -3.0650   18.8900  -11.7170 C   0  0  0  0  0  0  0  0  0  0  0  0
   -1.9580   18.1580  -11.3170 C   0  0  0  0  0  0  0  0  0  0  0  0
   -1.3770   18.3040  -10.2200 O   0  0  0  0  0  0  0  0  0  0  0  0
   -1.6000   17.2720  -12.2640 N   0  0  0  0  0  0  0  0  0  0  0  0
   -2.4850   17.4520  -13.2610 C   0  0  0  0  0  0  0  0  0  0  0  0
   -2.5060   16.8220  -14.3410 O   0  0  0  0  0  0  0  0  0  0  0  0
   -0.5110   16.3510  -12.2020 C   0  0  0  0  0  0  0  0  0  0  0  0
    0.7190   16.7290  -11.7000 C   0  0  0  0  0  0  0  0  0  0  0  0
    1.7820   15.8500  -11.6330 C   0  0  0  0  0  0  0  0  0  0  0  0
    1.6560   14.5480  -12.0700 C   0  0  0  0  0  0  0  0  0  0  0  0
    0.4370   14.1480  -12.5760 C   0  0  0  0  0  0  0  0  0  0  0  0
   -0.6130   15.0430  -12.6340 C   0  0  0  0  0  0  0  0  0  0  0  0
    3.1110   13.3090  -11.9890 B   0  0  0  0  0  0  0  0  0  0  0  0
   -7.8670   21.6080   -9.2590 H   0  0  0  0  0  0  0  0  0  0  0  0
   -9.8320   22.7690   -8.3910 H   0  0  0  0  0  0  0  0  0  0  0  0
   -9.6390   24.7650   -7.0680 H   0  0  0  0  0  0  0  0  0  0  0  0
   -7.4140   25.6730   -6.5690 H   0  0  0  0  0  0  0  0  0  0  0  0
   -4.3460   22.6180   -8.3980 H   0  0  0  0  0  0  0  0  0  0  0  0
   -3.8790   19.8490   -9.2350 H   0  0  0  0  0  0  0  0  0  0  0  0
   -2.9710   21.2210   -9.9840 H   0  0  0  0  0  0  0  0  0  0  0  0
   -5.5500   20.7080  -12.3330 H   0  0  0  0  0  0  0  0  0  0  0  0
   -4.9660   19.0630  -14.2170 H   0  0  0  0  0  0  0  0  0  0  0  0
    0.8070   17.7640  -11.3560 H   0  0  0  0  0  0  0  0  0  0  0  0
    2.7340   16.1590  -11.2390 H   0  0  0  0  0  0  0  0  0  0  0  0
    0.3420   13.1120  -12.9220 H   0  0  0  0  0  0  0  0  0  0  0  0
   -1.5700   14.7370  -13.0290 H   0  0  0  0  0  0  0  0  0  0  0  0
  2  1  1  0  0  0  0
  2  7  1  0  0  0  0
  3  2  2  0  0  0  0
  4  3  1  0  0  0  0
  4  5  2  0  0  0  0
  5  6  1  0  0  0  0
  6  7  2  0  0  0  0
  6 31  1  0  0  0  0
  7 32  1  0  0  0  0
  8  3  1  0  0  0  0
  8 33  1  0  0  0  0
  9  8  1  0  0  0  0
 10  9  2  0  0  0  0
 11 35  1  0  0  0  0
 11  9  1  0  0  0  0
 11 34  1  0  0  0  0
 12 11  1  0  0  0  0
 13 12  1  0  0  0  0
 14 15  1  0  0  0  0
 14 13  1  0  0  0  0
 15 16  2  0  0  0  0
 16 12  1  0  0  0  0
 16 17  1  0  0  0  0
 17 18  2  0  0  0  0
 19 22  1  0  0  0  0
 19 17  1  0  0  0  0
 20 15  1  0  0  0  0
 20 19  1  0  0  0  0
 21 20  2  0  0  0  0
 22 23  1  0  0  0  0
 23 24  2  0  0  0  0
 23 38  1  0  0  0  0
 24 39  1  0  0  0  0
 25 28  1  0  0  0  0
 25 24  1  0  0  0  0
 26 25  2  0  0  0  0
 27 26  1  0  0  0  0
 27 22  2  0  0  0  0
 29  4  1  0  0  0  0
 30  5  1  0  0  0  0
 36 13  1  0  0  0  0
 37 14  1  0  0  0  0
 40 26  1  0  0  0  0
 41 27  1  0  0  0  0
M  END
>  <Pose>
1

>  <Score>
-7.78

$$$$
