
 OpenBabel03232203513D

 41 44  0  0  0  0  0  0  0  0999 V2000
    3.1370    6.7140  -14.7020 F   0  0  0  0  0  0  0  0  0  0  0  0
    2.8860    7.9850  -14.2680 C   0  0  0  0  0  0  0  0  0  0  0  0
    3.2810    9.0520  -15.0240 C   0  0  0  0  0  0  0  0  0  0  0  0
    3.0280   10.3560  -14.5910 C   0  0  0  0  0  0  0  0  0  0  0  0
    2.3820   10.6120  -13.4020 C   0  0  0  0  0  0  0  0  0  0  0  0
    1.9950    9.5070  -12.6590 C   0  0  0  0  0  0  0  0  0  0  0  0
    2.2390    8.2190  -13.0770 C   0  0  0  0  0  0  0  0  0  0  0  0
    2.0920   11.9200  -12.9140 N   0  0  0  0  0  0  0  0  0  0  0  0
    0.9690   12.6420  -13.0660 C   0  0  0  0  0  0  0  0  0  0  0  0
   -0.0220   12.1920  -13.7040 O   0  0  0  0  0  0  0  0  0  0  0  0
    1.0550   13.8780  -12.4550 C   0  0  0  0  0  0  0  0  0  0  0  0
    2.2710   13.9070  -11.9150 C   0  0  0  0  0  0  0  0  0  0  0  0
    2.4000   15.0920  -11.3140 N   0  0  0  0  0  0  0  0  0  0  0  0
    1.2820   15.7720  -11.4860 N   0  0  0  0  0  0  0  0  0  0  0  0
    0.4210   15.0480  -12.1930 N   0  0  0  0  0  0  0  0  0  0  0  0
   -0.9100   15.3760  -12.6150 C   0  0  0  0  0  0  0  0  0  0  0  0
   -1.1270   16.7760  -12.9940 C   0  0  0  0  0  0  0  0  0  0  0  0
   -1.3440   17.0180  -14.1910 O   0  0  0  0  0  0  0  0  0  0  0  0
   -1.0910   17.7900  -12.0320 N   0  0  0  0  0  0  0  0  0  0  0  0
   -2.1470   18.5920  -11.5390 C   0  0  0  0  0  0  0  0  0  0  0  0
   -2.0720   19.2310  -10.3240 C   0  0  0  0  0  0  0  0  0  0  0  0
   -3.0950   20.0300   -9.8040 C   0  0  0  0  0  0  0  0  0  0  0  0
   -4.2210   20.1610  -10.5750 C   0  0  0  0  0  0  0  0  0  0  0  0
   -4.3220   19.5340  -11.7920 C   0  0  0  0  0  0  0  0  0  0  0  0
   -3.3040   18.7560  -12.2800 C   0  0  0  0  0  0  0  0  0  0  0  0
   -5.6710   21.2500   -9.9200 B   0  0  0  0  0  0  0  0  0  0  0  0
    2.9150   12.7180  -12.1870 C   0  0  0  0  0  0  0  0  0  0  0  0
    4.0760   12.3490  -11.8540 O   0  0  0  0  0  0  0  0  0  0  0  0
    3.7870    8.8560  -15.9580 H   0  0  0  0  0  0  0  0  0  0  0  0
    3.3440   11.1780  -15.1950 H   0  0  0  0  0  0  0  0  0  0  0  0
    1.4810    9.7160  -11.7110 H   0  0  0  0  0  0  0  0  0  0  0  0
    1.9300    7.3710  -12.4850 H   0  0  0  0  0  0  0  0  0  0  0  0
    3.2710   15.3960  -10.7960 H   0  0  0  0  0  0  0  0  0  0  0  0
    1.0860   16.7200  -11.1350 H   0  0  0  0  0  0  0  0  0  0  0  0
   -1.5990   15.1610  -11.7440 H   0  0  0  0  0  0  0  0  0  0  0  0
   -1.2780   14.6680  -13.4120 H   0  0  0  0  0  0  0  0  0  0  0  0
   -0.1350   18.0210  -11.5780 H   0  0  0  0  0  0  0  0  0  0  0  0
   -1.2110   19.1700   -9.6650 H   0  0  0  0  0  0  0  0  0  0  0  0
   -3.0100   20.5220   -8.8430 H   0  0  0  0  0  0  0  0  0  0  0  0
   -5.2230   19.6480  -12.3950 H   0  0  0  0  0  0  0  0  0  0  0  0
   -3.4090   18.2600  -13.2670 H   0  0  0  0  0  0  0  0  0  0  0  0
  1  2  1  0  0  0  0
  2  7  1  0  0  0  0
  3  4  1  0  0  0  0
  3  2  2  0  0  0  0
  4  5  2  0  0  0  0
  5  8  1  0  0  0  0
  5  6  1  0  0  0  0
  6 31  1  0  0  0  0
  7  6  2  0  0  0  0
  7 32  1  0  0  0  0
  8 27  1  0  0  0  0
  9  8  1  0  0  0  0
  9 11  1  0  0  0  0
 10  9  2  0  0  0  0
 11 15  1  0  0  0  0
 11 12  2  0  0  0  0
 12 13  1  0  0  0  0
 13 33  1  0  0  0  0
 14 13  1  0  0  0  0
 14 34  1  0  0  0  0
 15 14  1  0  0  0  0
 16 15  1  0  0  0  0
 16 35  1  0  0  0  0
 17 16  1  0  0  0  0
 17 19  1  0  0  0  0
 18 17  2  0  0  0  0
 19 37  1  0  0  0  0
 19 20  1  0  0  0  0
 20 21  1  0  0  0  0
 21 22  2  0  0  0  0
 21 38  1  0  0  0  0
 22 39  1  0  0  0  0
 23 26  1  0  0  0  0
 23 22  1  0  0  0  0
 24 23  2  0  0  0  0
 25 24  1  0  0  0  0
 25 20  2  0  0  0  0
 27 12  1  0  0  0  0
 27 28  2  0  0  0  0
 29  3  1  0  0  0  0
 30  4  1  0  0  0  0
 36 16  1  0  0  0  0
 40 24  1  0  0  0  0
 41 25  1  0  0  0  0
M  END
>  <Pose>
1

>  <Score>
-8.05

$$$$
