
 OpenBabel03232203513D

 38 41  0  0  1  0  0  0  0  0999 V2000
   -1.3220    7.7690  -13.4780 I   0  0  0  0  0  0  0  0  0  0  0  0
    0.6470    7.1010  -13.1090 C   0  0  0  0  0  0  0  0  0  0  0  0
    1.7380    7.9360  -13.4390 C   0  0  0  0  0  0  0  0  0  0  0  0
    3.0190    7.5210  -13.2110 C   0  0  0  0  0  0  0  0  0  0  0  0
    3.2000    6.2570  -12.6440 C   0  0  0  0  0  0  0  0  0  0  0  0
    2.1650    5.4270  -12.3150 C   0  0  0  0  0  0  0  0  0  0  0  0
    0.8640    5.8640  -12.5550 C   0  0  0  0  0  0  0  0  0  0  0  0
    1.4760    9.2030  -13.9990 N   0  0  0  0  0  0  0  0  0  0  0  0
    1.7610   10.4720  -13.4540 C   0  0  1  0  0  0  0  0  0  0  0  0
    2.9230   10.8650  -12.9460 N   0  0  0  0  0  0  0  0  0  0  0  0
    3.1840   12.0780  -12.4300 C   0  0  0  0  0  0  0  0  0  0  0  0
    4.2150   12.7270  -11.8750 N   0  0  0  0  0  0  0  0  0  0  0  0
    3.8680   13.9390  -11.5510 O   0  0  0  0  0  0  0  0  0  0  0  0
    2.6210   14.1350  -11.8730 N   0  0  0  0  0  0  0  0  0  0  0  0
    2.1410   13.0110  -12.4250 C   0  0  0  0  0  0  0  0  0  0  0  0
    0.9630   12.6740  -12.9190 N   0  0  0  0  0  0  0  0  0  0  0  0
    0.7530   11.4550  -13.4220 C   0  0  0  0  0  0  0  0  0  0  0  0
   -0.5060   11.4280  -13.8280 N   0  0  0  0  0  0  0  0  0  0  0  0
   -1.0800   12.6180  -13.5810 N   0  0  0  0  0  0  0  0  0  0  0  0
   -0.1730   13.4230  -13.0090 C   0  0  0  0  0  0  0  0  0  0  0  0
   -0.3170   14.8280  -12.5440 C   0  0  0  0  0  0  0  0  0  0  0  0
   -0.6960   15.7650  -13.6280 C   0  0  0  0  0  0  0  0  0  0  0  0
    0.0130   15.9640  -14.6370 O   0  0  0  0  0  0  0  0  0  0  0  0
   -1.8750   16.4500  -13.5210 O   0  0  0  0  0  0  0  0  0  0  0  0
   -2.0090   17.7430  -13.0520 C   0  0  0  0  0  0  0  0  0  0  0  0
   -1.8540   17.9330  -11.5910 C   0  0  0  0  0  0  0  0  0  0  0  0
    3.9000    8.0930  -13.4320 H   0  0  0  0  0  0  0  0  0  0  0  0
    4.2200    5.9100  -12.4560 H   0  0  0  0  0  0  0  0  0  0  0  0
    2.3350    4.4560  -11.8810 H   0  0  0  0  0  0  0  0  0  0  0  0
    0.0520    5.2000  -12.2920 H   0  0  0  0  0  0  0  0  0  0  0  0
    0.9970    9.1760  -14.9670 H   0  0  0  0  0  0  0  0  0  0  0  0
    0.5650   15.1760  -11.9770 H   0  0  0  0  0  0  0  0  0  0  0  0
   -1.1770   14.8760  -11.8070 H   0  0  0  0  0  0  0  0  0  0  0  0
   -1.2680   18.3710  -13.6220 H   0  0  0  0  0  0  0  0  0  0  0  0
   -3.0050   18.1700  -13.3650 H   0  0  0  0  0  0  0  0  0  0  0  0
   -0.9640   18.6080  -11.4210 H   0  0  0  0  0  0  0  0  0  0  0  0
   -1.5900   16.9900  -11.0610 H   0  0  0  0  0  0  0  0  0  0  0  0
   -2.7470   18.4140  -11.1720 H   0  0  0  0  0  0  0  0  0  0  0  0
  1  2  1  0  0  0  0
  2  7  1  0  0  0  0
  3  4  1  0  0  0  0
  3  2  2  0  0  0  0
  4  5  2  0  0  0  0
  5 28  1  0  0  0  0
  5  6  1  0  0  0  0
  6 29  1  0  0  0  0
  7  6  2  0  0  0  0
  7 30  1  0  0  0  0
  8  3  1  0  0  0  0
  9  8  1  6  0  0  0
  9 17  1  0  0  0  0
  9 10  1  0  0  0  0
 10 11  2  0  0  0  0
 11 15  1  0  0  0  0
 11 12  1  0  0  0  0
 12 13  1  0  0  0  0
 14 13  1  0  0  0  0
 15 14  2  0  0  0  0
 16 15  1  0  0  0  0
 17 16  1  0  0  0  0
 18 19  1  0  0  0  0
 18 17  2  0  0  0  0
 19 20  2  0  0  0  0
 20 16  1  0  0  0  0
 20 21  1  0  0  0  0
 21 32  1  0  0  0  0
 21 33  1  0  0  0  0
 22 24  1  0  0  0  0
 22 21  1  0  0  0  0
 23 22  2  0  0  0  0
 24 25  1  0  0  0  0
 25 26  1  0  0  0  0
 26 36  1  0  0  0  0
 26 38  1  0  0  0  0
 26 37  1  0  0  0  0
 27  4  1  0  0  0  0
 31  8  1  0  0  0  0
 34 25  1  0  0  0  0
 35 25  1  0  0  0  0
M  END
>  <Pose>
1

>  <Score>
-6.89

$$$$
