
 OpenBabel03232203513D

 34 37  0  0  0  0  0  0  0  0999 V2000
    1.2760    6.6620  -11.6370 I   0  0  0  0  0  0  0  0  0  0  0  0
   -0.2510    6.8040  -13.0970 C   0  0  0  0  0  0  0  0  0  0  0  0
   -0.2870    7.9500  -13.8650 C   0  0  0  0  0  0  0  0  0  0  0  0
   -1.2900    8.0250  -14.8100 C   0  0  0  0  0  0  0  0  0  0  0  0
   -2.2050    6.9990  -14.9730 C   0  0  0  0  0  0  0  0  0  0  0  0
   -2.1590    5.8580  -14.1990 C   0  0  0  0  0  0  0  0  0  0  0  0
   -1.1590    5.7770  -13.2520 C   0  0  0  0  0  0  0  0  0  0  0  0
    0.6640    9.0010  -13.6860 N   0  0  0  0  0  0  0  0  0  0  0  0
    0.4460   10.2890  -13.3690 C   0  0  0  0  0  0  0  0  0  0  0  0
   -0.6920   10.8090  -13.1660 O   0  0  0  0  0  0  0  0  0  0  0  0
    1.6290   10.9960  -13.2880 C   0  0  0  0  0  0  0  0  0  0  0  0
    2.5830   10.1210  -13.5600 C   0  0  0  0  0  0  0  0  0  0  0  0
    3.7350   10.8260  -13.4750 N   0  0  0  0  0  0  0  0  0  0  0  0
    3.4870   12.0850  -13.1620 N   0  0  0  0  0  0  0  0  0  0  0  0
    2.1900   12.2120  -13.0420 N   0  0  0  0  0  0  0  0  0  0  0  0
    1.4450   13.3770  -12.7160 C   0  0  0  0  0  0  0  0  0  0  0  0
    1.8500   14.2550  -11.7340 C   0  0  0  0  0  0  0  0  0  0  0  0
    1.1010   15.3820  -11.4400 C   0  0  0  0  0  0  0  0  0  0  0  0
   -0.0700   15.6750  -12.1090 C   0  0  0  0  0  0  0  0  0  0  0  0
   -0.4760   14.7980  -13.0920 C   0  0  0  0  0  0  0  0  0  0  0  0
    0.2600   13.6770  -13.3900 C   0  0  0  0  0  0  0  0  0  0  0  0
    1.9990    8.8880  -13.8060 C   0  0  0  0  0  0  0  0  0  0  0  0
    2.6470    7.8310  -14.1000 O   0  0  0  0  0  0  0  0  0  0  0  0
   -1.3240    8.9200  -15.4150 H   0  0  0  0  0  0  0  0  0  0  0  0
   -2.9820    7.0780  -15.7190 H   0  0  0  0  0  0  0  0  0  0  0  0
   -2.8890    5.0740  -14.3520 H   0  0  0  0  0  0  0  0  0  0  0  0
   -1.1270    4.8710  -12.6430 H   0  0  0  0  0  0  0  0  0  0  0  0
    4.6940   10.4510  -13.6310 H   0  0  0  0  0  0  0  0  0  0  0  0
    4.1910   12.8400  -13.0360 H   0  0  0  0  0  0  0  0  0  0  0  0
    2.7660   14.0490  -11.1940 H   0  0  0  0  0  0  0  0  0  0  0  0
    1.4500   16.0470  -10.6640 H   0  0  0  0  0  0  0  0  0  0  0  0
   -0.6320   16.5690  -11.8520 H   0  0  0  0  0  0  0  0  0  0  0  0
   -1.3990   15.0310  -13.6170 H   0  0  0  0  0  0  0  0  0  0  0  0
   -0.0360   12.9810  -14.1500 H   0  0  0  0  0  0  0  0  0  0  0  0
  2  1  1  0  0  0  0
  3  8  1  0  0  0  0
  3  2  2  0  0  0  0
  4  3  1  0  0  0  0
  5  4  2  0  0  0  0
  5  6  1  0  0  0  0
  6  7  2  0  0  0  0
  7  2  1  0  0  0  0
  7 27  1  0  0  0  0
  8  9  1  0  0  0  0
  9 11  1  0  0  0  0
  9 10  2  0  0  0  0
 11 15  1  0  0  0  0
 12 13  1  0  0  0  0
 12 11  2  0  0  0  0
 13 14  1  0  0  0  0
 14 15  1  0  0  0  0
 14 29  1  0  0  0  0
 15 16  1  0  0  0  0
 16 17  1  0  0  0  0
 17 18  2  0  0  0  0
 17 30  1  0  0  0  0
 18 31  1  0  0  0  0
 19 32  1  0  0  0  0
 19 18  1  0  0  0  0
 20 19  2  0  0  0  0
 21 20  1  0  0  0  0
 21 16  2  0  0  0  0
 22  8  1  0  0  0  0
 22 12  1  0  0  0  0
 23 22  2  0  0  0  0
 24  4  1  0  0  0  0
 25  5  1  0  0  0  0
 26  6  1  0  0  0  0
 28 13  1  0  0  0  0
 33 20  1  0  0  0  0
 34 21  1  0  0  0  0
M  END
>  <Pose>
1

>  <Score>
-5.57

$$$$
