
 OpenBabel03232203513D

 50 53  0  0  0  0  0  0  0  0999 V2000
   -4.3230   20.5370  -10.0060 I   0  0  0  0  0  0  0  0  0  0  0  0
   -3.3310   19.2420  -11.3160 C   0  0  0  0  0  0  0  0  0  0  0  0
   -2.1750   18.6040  -10.9870 C   0  0  0  0  0  0  0  0  0  0  0  0
   -1.5590   17.7490  -11.9130 C   0  0  0  0  0  0  0  0  0  0  0  0
   -2.0630   17.5110  -13.1580 C   0  0  0  0  0  0  0  0  0  0  0  0
   -3.2550   18.1820  -13.4700 C   0  0  0  0  0  0  0  0  0  0  0  0
   -3.8620   19.0200  -12.5670 C   0  0  0  0  0  0  0  0  0  0  0  0
   -1.5140   16.6590  -14.1770 C   0  0  0  0  0  0  0  0  0  0  0  0
   -0.8910   15.5740  -14.0340 N   0  0  0  0  0  0  0  0  0  0  0  0
   -0.6210   15.0000  -12.8360 N   0  0  0  0  0  0  0  0  0  0  0  0
    0.4570   14.0390  -12.7380 C   0  0  0  0  0  0  0  0  0  0  0  0
    0.3330   12.8250  -13.3000 N   0  0  0  0  0  4  0  0  0  0  0  0
    1.3170   11.9200  -13.2210 C   0  0  0  0  0  0  0  0  0  0  0  0
    2.4250   12.2870  -12.5570 N   0  0  0  0  0  0  0  0  0  0  0  0
    2.5870   13.4950  -11.9810 C   0  0  0  0  0  0  0  0  0  0  0  0
    1.5740   14.3760  -12.0820 N   0  0  0  0  0  0  0  0  0  0  0  0
    3.7930   13.8040  -11.2970 N   0  0  0  0  0  0  0  0  0  0  0  0
    3.8180   13.7990   -9.8530 C   0  0  0  0  0  0  0  0  0  0  0  0
    4.7830   14.9260   -9.4590 C   0  0  0  0  0  0  0  0  0  0  0  0
    6.0340   14.5620   -9.8830 O   0  0  0  0  0  0  0  0  0  0  0  0
    6.1970   14.3970  -11.2300 C   0  0  0  0  0  0  0  0  0  0  0  0
    4.9740   14.1170  -12.0250 C   0  0  0  0  0  0  0  0  0  0  0  0
    1.2080   10.6240  -13.8110 N   0  0  0  0  0  0  0  0  0  0  0  0
    0.1690    9.6960  -13.4820 C   0  0  0  0  0  0  0  0  0  0  0  0
    0.4960    8.3710  -14.1740 C   0  0  0  0  0  0  0  0  0  0  0  0
    1.8070    7.9860  -13.9440 O   0  0  0  0  0  0  0  0  0  0  0  0
    2.7320    8.8380  -14.4940 C   0  0  0  0  0  0  0  0  0  0  0  0
    2.1960   10.2140  -14.7960 C   0  0  0  0  0  0  0  0  0  0  0  0
   -1.7510   18.7730  -10.0100 H   0  0  0  0  0  0  0  0  0  0  0  0
   -0.6690   17.3020  -11.5640 H   0  0  0  0  0  0  0  0  0  0  0  0
   -3.7160   18.0460  -14.4350 H   0  0  0  0  0  0  0  0  0  0  0  0
   -4.7830   19.5010  -12.8890 H   0  0  0  0  0  0  0  0  0  0  0  0
   -1.6340   16.9630  -15.2510 H   0  0  0  0  0  0  0  0  0  0  0  0
   -1.1920   15.2270  -11.9930 H   0  0  0  0  0  0  0  0  0  0  0  0
    4.1990   12.8350   -9.4900 H   0  0  0  0  0  0  0  0  0  0  0  0
    2.8290   14.0580   -9.4190 H   0  0  0  0  0  0  0  0  0  0  0  0
    4.4030   15.8550   -9.8860 H   0  0  0  0  0  0  0  0  0  0  0  0
    4.7830   14.9600   -8.3600 H   0  0  0  0  0  0  0  0  0  0  0  0
    6.8140   15.2350  -11.6730 H   0  0  0  0  0  0  0  0  0  0  0  0
    6.8750   13.5000  -11.3580 H   0  0  0  0  0  0  0  0  0  0  0  0
    5.1260   13.2920  -12.7810 H   0  0  0  0  0  0  0  0  0  0  0  0
    4.7970   15.0230  -12.6790 H   0  0  0  0  0  0  0  0  0  0  0  0
   -0.0010    9.5540  -12.4100 H   0  0  0  0  0  0  0  0  0  0  0  0
   -0.7730   10.0710  -13.9560 H   0  0  0  0  0  0  0  0  0  0  0  0
    0.2680    8.5010  -15.2650 H   0  0  0  0  0  0  0  0  0  0  0  0
   -0.1630    7.5670  -13.7900 H   0  0  0  0  0  0  0  0  0  0  0  0
    3.1580    8.4480  -15.4590 H   0  0  0  0  0  0  0  0  0  0  0  0
    3.5630    8.9600  -13.7480 H   0  0  0  0  0  0  0  0  0  0  0  0
    1.7380   10.2020  -15.8080 H   0  0  0  0  0  0  0  0  0  0  0  0
    3.0800   10.9040  -14.7860 H   0  0  0  0  0  0  0  0  0  0  0  0
  2  3  1  0  0  0  0
  2  1  1  0  0  0  0
  3 29  1  0  0  0  0
  4 30  1  0  0  0  0
  4  3  2  0  0  0  0
  5  4  1  0  0  0  0
  6  5  2  0  0  0  0
  6  7  1  0  0  0  0
  7  2  2  0  0  0  0
  8  9  2  0  0  0  0
  8  5  1  0  0  0  0
  9 10  1  0  0  0  0
 10 11  1  0  0  0  0
 10 34  1  0  0  0  0
 11 16  1  0  0  0  0
 12 13  2  0  0  0  0
 12 11  2  0  0  0  0
 13 14  1  0  0  0  0
 14 15  2  0  0  0  0
 15 17  1  0  0  0  0
 16 15  1  0  0  0  0
 17 18  1  0  0  0  0
 18 35  1  0  0  0  0
 18 19  1  0  0  0  0
 18 36  1  0  0  0  0
 19 38  1  0  0  0  0
 20 19  1  0  0  0  0
 21 20  1  0  0  0  0
 22 17  1  0  0  0  0
 22 21  1  0  0  0  0
 23 24  1  0  0  0  0
 23 13  1  0  0  0  0
 24 43  1  0  0  0  0
 25 26  1  0  0  0  0
 25 46  1  0  0  0  0
 25 24  1  0  0  0  0
 27 26  1  0  0  0  0
 27 48  1  0  0  0  0
 28 50  1  0  0  0  0
 28 27  1  0  0  0  0
 28 23  1  0  0  0  0
 31  6  1  0  0  0  0
 32  7  1  0  0  0  0
 33  8  1  0  0  0  0
 37 19  1  0  0  0  0
 39 21  1  0  0  0  0
 40 21  1  0  0  0  0
 41 22  1  0  0  0  0
 42 22  1  0  0  0  0
 44 24  1  0  0  0  0
 45 25  1  0  0  0  0
 47 27  1  0  0  0  0
 49 28  1  0  0  0  0
M  END
>  <Pose>
1

>  <Score>
-6.01

$$$$
