
 OpenBabel03232203513D

 52 56  0  0  1  0  0  0  0  0999 V2000
   -4.7370   21.4050   -9.6720 I   0  0  0  0  0  0  0  0  0  0  0  0
   -3.5420   19.9120  -10.5390 C   0  0  0  0  0  0  0  0  0  0  0  0
   -2.3070   19.5990   -9.9810 C   0  0  0  0  0  0  0  0  0  0  0  0
   -1.5250   18.6300  -10.5390 C   0  0  0  0  0  0  0  0  0  0  0  0
   -1.9050   17.9190  -11.6660 C   0  0  0  0  0  0  0  0  0  0  0  0
   -3.1390   18.2280  -12.2280 C   0  0  0  0  0  0  0  0  0  0  0  0
   -3.9230   19.2090  -11.6580 C   0  0  0  0  0  0  0  0  0  0  0  0
   -1.0890   16.9120  -12.2430 N   0  0  0  0  0  0  0  0  0  0  0  0
   -0.0130   16.4260  -11.6010 C   0  0  0  0  0  0  0  0  0  0  0  0
    0.7920   15.4470  -12.1420 C   0  0  2  0  0  0  0  0  0  0  0  0
    0.4290   14.9910  -13.3940 C   0  0  0  0  0  0  0  0  0  0  0  0
    1.0650   14.0940  -14.0270 O   0  0  0  0  0  0  0  0  0  0  0  0
   -0.6640   15.4780  -14.0590 N   0  0  0  0  0  0  0  0  0  0  0  0
   -1.3980   16.4310  -13.4590 C   0  0  0  0  0  0  0  0  0  0  0  0
   -2.4110   16.9080  -14.0300 O   0  0  0  0  0  0  0  0  0  0  0  0
    1.9570   14.8620  -11.5050 C   0  0  1  0  0  0  0  0  0  0  0  0
    1.9800   14.8280  -10.0770 N   0  0  0  0  0  4  0  0  0  0  0  0
    0.9620   14.0070   -9.4810 C   0  0  0  0  0  0  0  0  0  0  0  0
    0.2200   13.1490  -10.4830 C   0  0  0  0  0  0  0  0  0  0  0  0
    1.2300   12.5320  -11.4210 C   0  0  0  0  0  0  0  0  0  0  0  0
    2.1380   13.4270  -11.9270 C   0  0  0  0  0  0  0  0  0  0  0  0
    3.1390   13.0050  -12.7680 C   0  0  0  0  0  0  0  0  0  0  0  0
    3.1840   11.6520  -13.0750 C   0  0  0  0  0  0  0  0  0  0  0  0
    2.2780   10.7390  -12.5760 C   0  0  0  0  0  0  0  0  0  0  0  0
    1.2790   11.2110  -11.7250 C   0  0  0  0  0  0  0  0  0  0  0  0
    2.5990    9.4860  -13.0720 O   0  0  0  0  0  0  0  0  0  0  0  0
    3.4890    9.6410  -14.1890 C   0  0  0  0  0  0  0  0  0  0  0  0
    4.0530   10.9020  -13.8820 O   0  0  0  0  0  0  0  0  0  0  0  0
    4.0390   13.9040  -13.2660 O   0  0  0  0  0  0  0  0  0  0  0  0
    5.3960   13.9900  -12.9660 C   0  0  0  0  0  0  0  0  0  0  0  0
    3.2620   14.1600   -9.7290 C   0  0  0  0  0  0  0  0  0  0  0  0
    0.3150   16.9080  -10.3600 O   0  0  0  0  0  0  0  0  0  0  0  0
   -2.0030   20.1460   -9.1050 H   0  0  0  0  0  0  0  0  0  0  0  0
   -0.5660   18.3920  -10.0990 H   0  0  0  0  0  0  0  0  0  0  0  0
   -3.4340   17.6680  -13.1130 H   0  0  0  0  0  0  0  0  0  0  0  0
   -4.8730   19.4470  -12.0910 H   0  0  0  0  0  0  0  0  0  0  0  0
   -0.9330   15.1310  -14.9980 H   0  0  0  0  0  0  0  0  0  0  0  0
    2.8530   15.3940  -11.8700 H   0  0  0  0  0  0  0  0  0  0  0  0
    2.0910   15.7350   -9.5940 H   0  0  0  0  0  0  0  0  0  0  0  0
    0.2150   14.6140   -8.9460 H   0  0  0  0  0  0  0  0  0  0  0  0
    1.3640   13.2900   -8.7120 H   0  0  0  0  0  0  0  0  0  0  0  0
   -0.5900   13.6620  -11.0130 H   0  0  0  0  0  0  0  0  0  0  0  0
   -0.2380   12.2920   -9.9480 H   0  0  0  0  0  0  0  0  0  0  0  0
    0.5510   10.5460  -11.3100 H   0  0  0  0  0  0  0  0  0  0  0  0
    2.8750    9.7840  -15.1080 H   0  0  0  0  0  0  0  0  0  0  0  0
    4.2160    8.8330  -14.2580 H   0  0  0  0  0  0  0  0  0  0  0  0
    5.5730   14.9990  -12.4950 H   0  0  0  0  0  0  0  0  0  0  0  0
    5.7770   13.1910  -12.3090 H   0  0  0  0  0  0  0  0  0  0  0  0
    6.0480   13.9980  -13.8800 H   0  0  0  0  0  0  0  0  0  0  0  0
    4.1020   14.7560  -10.0810 H   0  0  0  0  0  0  0  0  0  0  0  0
    3.2120   13.1300  -10.1070 H   0  0  0  0  0  0  0  0  0  0  0  0
    3.3030   14.0730   -8.6100 H   0  0  0  0  0  0  0  0  0  0  0  0
  2  3  1  0  0  0  0
  2  1  1  0  0  0  0
  3 33  1  0  0  0  0
  4 34  1  0  0  0  0
  4  3  2  0  0  0  0
  5  4  1  0  0  0  0
  6  5  2  0  0  0  0
  6  7  1  0  0  0  0
  7  2  2  0  0  0  0
  8  5  1  0  0  0  0
  8  9  1  0  0  0  0
  9 32  2  0  0  0  0
 10 11  1  1  0  0  0
 10  9  1  0  0  0  0
 10 16  1  0  0  0  0
 12 11  2  0  0  0  0
 13 14  1  0  0  0  0
 13 11  1  0  0  0  0
 14  8  1  0  0  0  0
 15 14  2  0  0  0  0
 16 38  1  6  0  0  0
 16 17  1  0  0  0  0
 17 31  1  0  0  0  0
 17 39  1  0  0  0  0
 17 18  1  0  0  0  0
 18 40  1  0  0  0  0
 18 41  1  0  0  0  0
 19 43  1  0  0  0  0
 19 18  1  0  0  0  0
 20 19  1  0  0  0  0
 21 16  1  0  0  0  0
 21 20  2  0  0  0  0
 22 21  1  0  0  0  0
 23 22  2  0  0  0  0
 23 24  1  0  0  0  0
 24 25  2  0  0  0  0
 25 20  1  0  0  0  0
 25 44  1  0  0  0  0
 26 24  1  0  0  0  0
 27 28  1  0  0  0  0
 27 26  1  0  0  0  0
 28 23  1  0  0  0  0
 29 30  1  0  0  0  0
 29 22  1  0  0  0  0
 30 47  1  0  0  0  0
 30 48  1  0  0  0  0
 31 52  1  0  0  0  0
 35  6  1  0  0  0  0
 36  7  1  0  0  0  0
 37 13  1  0  0  0  0
 42 19  1  0  0  0  0
 45 27  1  0  0  0  0
 46 27  1  0  0  0  0
 49 30  1  0  0  0  0
 50 31  1  0  0  0  0
 51 31  1  0  0  0  0
M  END
>  <Pose>
1

>  <Score>
-3.67

$$$$
