
 OpenBabel03232203513D

 44 47  0  0  1  0  0  0  0  0999 V2000
    8.8470    3.5330  -13.1970 I   0  0  0  0  0  0  0  0  0  0  0  0
    7.1190    4.7460  -13.2760 C   0  0  0  0  0  0  0  0  0  0  0  0
    7.1920    6.1210  -13.3490 C   0  0  0  0  0  0  0  0  0  0  0  0
    6.0470    6.8900  -13.3980 C   0  0  0  0  0  0  0  0  0  0  0  0
    4.7910    6.3200  -13.3760 C   0  0  0  0  0  0  0  0  0  0  0  0
    4.7400    4.9480  -13.3020 C   0  0  0  0  0  0  0  0  0  0  0  0
    5.8730    4.1590  -13.2520 C   0  0  0  0  0  0  0  0  0  0  0  0
    3.6260    7.1650  -13.4310 N   0  0  0  0  0  0  0  0  0  0  0  0
    3.3770    8.2610  -14.2950 C   0  0  0  0  0  0  0  0  0  0  0  0
    3.9610    8.4280  -15.3970 O   0  0  0  0  0  0  0  0  0  0  0  0
    2.3410    9.1470  -13.6940 C   0  0  1  0  0  0  0  0  0  0  0  0
    1.5330    8.1540  -12.8760 C   0  0  0  0  0  0  0  0  0  0  0  0
    2.4730    7.0490  -12.6010 C   0  0  0  0  0  0  0  0  0  0  0  0
    2.3110    6.1170  -11.7590 O   0  0  0  0  0  0  0  0  0  0  0  0
    2.9880   10.1240  -12.9210 N   0  0  0  0  0  0  0  0  0  0  0  0
    3.6170   11.2180  -13.5140 C   0  0  0  0  0  0  0  0  0  0  0  0
    3.6280   12.3600  -12.4630 C   0  0  0  0  0  0  0  0  0  0  0  0
    2.2800   12.4900  -11.9300 N   0  0  0  0  0  0  0  0  0  0  0  0
    1.7360   11.3300  -11.2690 C   0  0  0  0  0  0  0  0  0  0  0  0
    2.6830   10.1650  -11.5480 C   0  0  0  0  0  0  0  0  0  0  0  0
    1.5520   13.6900  -12.0660 C   0  0  0  0  0  0  0  0  0  0  0  0
    0.4130   13.7310  -12.8100 N   0  0  0  0  0  0  0  0  0  0  0  0
   -0.3210   14.8300  -12.9680 C   0  0  0  0  0  0  0  0  0  0  0  0
    0.0610   16.0170  -12.3580 C   0  0  0  0  0  0  0  0  0  0  0  0
    1.2190   15.9690  -11.6030 C   0  0  0  0  0  0  0  0  0  0  0  0
    1.9280   14.8400  -11.4710 N   0  0  0  0  0  0  0  0  0  0  0  0
    8.1610    6.5810  -13.3680 H   0  0  0  0  0  0  0  0  0  0  0  0
    6.1000    7.9810  -13.4550 H   0  0  0  0  0  0  0  0  0  0  0  0
    3.7660    4.4790  -13.2820 H   0  0  0  0  0  0  0  0  0  0  0  0
    5.8130    3.0710  -13.1940 H   0  0  0  0  0  0  0  0  0  0  0  0
    1.6620    9.5410  -14.4690 H   0  0  0  0  0  0  0  0  0  0  0  0
    1.1860    8.5690  -11.9130 H   0  0  0  0  0  0  0  0  0  0  0  0
    0.6950    7.7450  -13.4780 H   0  0  0  0  0  0  0  0  0  0  0  0
    4.6370   11.1030  -13.8850 H   0  0  0  0  0  0  0  0  0  0  0  0
    2.9320   11.6400  -14.3080 H   0  0  0  0  0  0  0  0  0  0  0  0
    3.9100   13.3240  -12.9250 H   0  0  0  0  0  0  0  0  0  0  0  0
    4.3770   12.1480  -11.6700 H   0  0  0  0  0  0  0  0  0  0  0  0
    1.7420   11.4430  -10.1600 H   0  0  0  0  0  0  0  0  0  0  0  0
    0.7220   11.0600  -11.6090 H   0  0  0  0  0  0  0  0  0  0  0  0
    2.2370    9.2080  -11.1900 H   0  0  0  0  0  0  0  0  0  0  0  0
    3.5850   10.3080  -10.8910 H   0  0  0  0  0  0  0  0  0  0  0  0
   -1.2210   14.8350  -13.5640 H   0  0  0  0  0  0  0  0  0  0  0  0
   -0.5320   16.9120  -12.4840 H   0  0  0  0  0  0  0  0  0  0  0  0
    1.5190   16.9000  -11.1250 H   0  0  0  0  0  0  0  0  0  0  0  0
  2  7  1  0  0  0  0
  2  1  1  0  0  0  0
  3  2  2  0  0  0  0
  4  5  2  0  0  0  0
  4  3  1  0  0  0  0
  5  6  1  0  0  0  0
  6 29  1  0  0  0  0
  6  7  2  0  0  0  0
  7 30  1  0  0  0  0
  8  5  1  0  0  0  0
  8 13  1  0  0  0  0
  9 11  1  0  0  0  0
  9  8  1  0  0  0  0
 10  9  2  0  0  0  0
 11 31  1  6  0  0  0
 11 15  1  0  0  0  0
 11 12  1  0  0  0  0
 12 13  1  0  0  0  0
 12 32  1  0  0  0  0
 13 14  2  0  0  0  0
 15 20  1  0  0  0  0
 16 15  1  0  0  0  0
 16 17  1  0  0  0  0
 17 18  1  0  0  0  0
 17 37  1  0  0  0  0
 18 19  1  0  0  0  0
 19 38  1  0  0  0  0
 20 19  1  0  0  0  0
 20 40  1  0  0  0  0
 20 41  1  0  0  0  0
 21 18  1  0  0  0  0
 21 26  1  0  0  0  0
 22 21  2  0  0  0  0
 23 22  1  0  0  0  0
 23 24  2  0  0  0  0
 24 25  1  0  0  0  0
 25 26  2  0  0  0  0
 25 44  1  0  0  0  0
 27  3  1  0  0  0  0
 28  4  1  0  0  0  0
 33 12  1  0  0  0  0
 34 16  1  0  0  0  0
 35 16  1  0  0  0  0
 36 17  1  0  0  0  0
 39 19  1  0  0  0  0
 42 23  1  0  0  0  0
 43 24  1  0  0  0  0
M  END
>  <Pose>
1

>  <Score>
-5.31

$$$$
