
 OpenBabel03232203513D

 44 47  0  0  1  0  0  0  0  0999 V2000
    0.6510    6.1500  -12.9250 I   0  0  0  0  0  0  0  0  0  0  0  0
   -0.5320    7.8400  -13.3610 C   0  0  0  0  0  0  0  0  0  0  0  0
   -0.1110    9.1370  -13.3880 C   0  0  0  0  0  0  0  0  0  0  0  0
   -1.2520    9.8680  -13.7220 C   0  0  0  0  0  0  0  0  0  0  0  0
   -2.3130    9.0780  -13.8920 N   0  0  0  0  0  0  0  0  0  0  0  0
   -1.8810    7.8360  -13.6720 C   0  0  0  0  0  0  0  0  0  0  0  0
   -3.6550    9.4390  -14.2370 C   0  0  2  0  0  0  0  0  0  0  0  0
   -4.3320   10.1070  -13.2230 O   0  0  0  0  0  0  0  0  0  0  0  0
   -5.6180   10.2170  -13.7450 C   0  0  1  0  0  0  0  0  0  0  0  0
   -5.9230    8.9120  -14.4440 C   0  0  2  0  0  0  0  0  0  0  0  0
   -4.5570    8.2160  -14.4240 C   0  0  0  0  0  0  0  0  0  0  0  0
   -6.2390    9.1080  -15.7890 O   0  0  0  0  0  0  0  0  0  0  0  0
   -6.6350   10.3410  -12.6020 C   0  0  0  0  0  0  0  0  0  0  0  0
   -7.4820   11.4250  -12.8690 O   0  0  0  0  0  0  0  0  0  0  0  0
   -1.1290   11.2020  -13.8230 N   0  0  0  0  0  0  0  0  0  0  0  0
    0.0500   11.8080  -13.6090 C   0  0  0  0  0  0  0  0  0  0  0  0
    1.1400   11.1050  -13.2890 N   0  0  0  0  0  0  0  0  0  0  0  0
    1.1050    9.7410  -13.1650 C   0  0  0  0  0  0  0  0  0  0  0  0
    2.2980    9.0440  -12.8230 N   0  0  0  0  0  0  0  0  0  0  0  0
    3.0060    8.3580  -13.8510 C   0  0  0  0  0  0  0  0  0  0  0  0
    2.5880    8.4950  -15.0290 O   0  0  0  0  0  0  0  0  0  0  0  0
    4.1570    7.5270  -13.6280 C   0  0  0  0  0  0  0  0  0  0  0  0
    5.4250    8.0080  -13.8050 C   0  0  0  0  0  0  0  0  0  0  0  0
    6.5540    7.2150  -13.5890 C   0  0  0  0  0  0  0  0  0  0  0  0
    6.3970    5.9210  -13.1900 C   0  0  0  0  0  0  0  0  0  0  0  0
    5.1380    5.4110  -13.0040 C   0  0  0  0  0  0  0  0  0  0  0  0
    4.0200    6.2240  -13.2260 C   0  0  0  0  0  0  0  0  0  0  0  0
   -2.4570    6.9060  -13.7160 H   0  0  0  0  0  0  0  0  0  0  0  0
   -3.6960    9.9920  -15.1830 H   0  0  0  0  0  0  0  0  0  0  0  0
   -5.7010   11.0930  -14.4210 H   0  0  0  0  0  0  0  0  0  0  0  0
   -6.6940    8.3130  -13.9440 H   0  0  0  0  0  0  0  0  0  0  0  0
   -4.5110    7.6020  -13.5060 H   0  0  0  0  0  0  0  0  0  0  0  0
   -4.3470    7.6790  -15.3510 H   0  0  0  0  0  0  0  0  0  0  0  0
   -6.1060   10.0930  -15.9520 H   0  0  0  0  0  0  0  0  0  0  0  0
   -7.2600    9.4420  -12.5310 H   0  0  0  0  0  0  0  0  0  0  0  0
   -6.1000   10.5450  -11.6680 H   0  0  0  0  0  0  0  0  0  0  0  0
   -7.1420   12.2620  -12.4200 H   0  0  0  0  0  0  0  0  0  0  0  0
    0.1140   12.9030  -13.6990 H   0  0  0  0  0  0  0  0  0  0  0  0
    2.7080    8.9860  -11.8860 H   0  0  0  0  0  0  0  0  0  0  0  0
    5.6500    9.0300  -14.1240 H   0  0  0  0  0  0  0  0  0  0  0  0
    7.5420    7.6060  -13.7320 H   0  0  0  0  0  0  0  0  0  0  0  0
    7.2560    5.2530  -13.0060 H   0  0  0  0  0  0  0  0  0  0  0  0
    5.0330    4.3940  -12.6900 H   0  0  0  0  0  0  0  0  0  0  0  0
    3.0710    5.7710  -13.0660 H   0  0  0  0  0  0  0  0  0  0  0  0
  2  1  1  0  0  0  0
  3  2  1  0  0  0  0
  3 18  1  0  0  0  0
  4  3  2  0  0  0  0
  5  4  1  0  0  0  0
  5  6  1  0  0  0  0
  6  2  2  0  0  0  0
  7 29  1  6  0  0  0
  7  5  1  0  0  0  0
  7  8  1  0  0  0  0
  9 30  1  6  0  0  0
  9  8  1  0  0  0  0
  9 13  1  0  0  0  0
 10 11  1  0  0  0  0
 10 31  1  1  0  0  0
 10  9  1  0  0  0  0
 11  7  1  0  0  0  0
 11 32  1  0  0  0  0
 12 10  1  0  0  0  0
 13 35  1  0  0  0  0
 13 36  1  0  0  0  0
 14 13  1  0  0  0  0
 14 37  1  0  0  0  0
 15  4  1  0  0  0  0
 15 16  2  0  0  0  0
 16 17  1  0  0  0  0
 17 18  2  0  0  0  0
 18 19  1  0  0  0  0
 19 39  1  0  0  0  0
 20 22  1  0  0  0  0
 20 19  1  0  0  0  0
 21 20  2  0  0  0  0
 22 27  1  0  0  0  0
 23 22  2  0  0  0  0
 23 24  1  0  0  0  0
 24 25  2  0  0  0  0
 25 42  1  0  0  0  0
 25 26  1  0  0  0  0
 26 43  1  0  0  0  0
 27 44  1  0  0  0  0
 27 26  2  0  0  0  0
 28  6  1  0  0  0  0
 33 11  1  0  0  0  0
 34 12  1  0  0  0  0
 38 16  1  0  0  0  0
 40 23  1  0  0  0  0
 41 24  1  0  0  0  0
M  END
>  <Pose>
1

>  <Score>
-6.56

$$$$
