
 OpenBabel03232203513D

 35 38  0  0  1  0  0  0  0  0999 V2000
    3.5150    8.2330  -11.9180 B   0  0  0  0  0  0  0  0  0  0  0  0
    1.7580    8.3600  -12.6320 C   0  0  0  0  0  0  0  0  0  0  0  0
    1.1190    9.5720  -12.8780 C   0  0  0  0  0  0  0  0  0  0  0  0
   -0.1640    9.6110  -13.3990 C   0  0  0  0  0  0  0  0  0  0  0  0
   -0.8310    8.4370  -13.6840 C   0  0  0  0  0  0  0  0  0  0  0  0
   -0.2100    7.2430  -13.4450 C   0  0  0  0  0  0  0  0  0  0  0  0
    1.0610    7.2110  -12.9290 C   0  0  0  0  0  0  0  0  0  0  0  0
    1.6330    5.9440  -12.7120 O   0  0  0  0  0  0  0  0  0  0  0  0
   -1.1930    5.6480  -13.8660 B   0  0  0  0  0  0  0  0  0  0  0  0
   -0.8190   10.7970  -13.6510 C   0  0  0  0  0  0  0  0  0  0  0  0
   -0.1450   11.9660  -13.3650 C   0  0  0  0  0  0  0  0  0  0  0  0
    1.2090   11.8300  -12.8150 C   0  0  0  0  0  0  0  0  0  0  0  0
    1.8770   13.0220  -12.5290 C   0  0  1  0  0  0  0  0  0  0  0  0
    1.2750   14.2360  -12.7610 C   0  0  0  0  0  0  0  0  0  0  0  0
    1.9160   15.2830  -12.4890 O   0  0  0  0  0  0  0  0  0  0  0  0
   -0.0110   14.3320  -13.2830 C   0  0  0  0  0  0  0  0  0  0  0  0
   -0.7210   13.2070  -13.5860 C   0  0  0  0  0  0  0  0  0  0  0  0
   -0.7710   16.0610  -13.5730 B   0  0  0  0  0  0  0  0  0  0  0  0
    3.6540   12.9190  -11.8050 B   0  0  0  0  0  0  0  0  0  0  0  0
    1.7780   10.6670  -12.5980 O   0  0  0  0  0  0  0  0  0  0  0  0
   -2.1770   10.8360  -14.1940 C   0  0  0  0  0  0  0  0  0  0  0  0
   -2.4210   11.3750  -15.4450 C   0  0  0  0  0  0  0  0  0  0  0  0
   -3.6930   11.4280  -15.9760 C   0  0  0  0  0  0  0  0  0  0  0  0
   -4.7400   10.9270  -15.2310 C   0  0  0  0  0  0  0  0  0  0  0  0
   -4.5450   10.3880  -13.9960 C   0  0  0  0  0  0  0  0  0  0  0  0
   -3.2680   10.3440  -13.4810 C   0  0  0  0  0  0  0  0  0  0  0  0
   -3.0520    9.7790  -12.1710 C   0  0  0  0  0  0  0  0  0  0  0  0
   -3.3110    8.5730  -11.9050 O   0  0  0  0  0  0  0  0  0  0  0  0
   -2.5430   10.5650  -11.1390 O   0  0  0  0  0  0  0  0  0  0  0  0
   -5.9350    9.7720  -13.1170 Cl  0  0  0  0  0  0  0  0  0  0  0  0
   -1.0630   12.0090  -16.3800 Cl  0  0  0  0  0  0  0  0  0  0  0  0
   -1.8500    8.4890  -14.0970 H   0  0  0  0  0  0  0  0  0  0  0  0
   -1.7190   13.2230  -13.9920 H   0  0  0  0  0  0  0  0  0  0  0  0
   -3.8530   11.8620  -16.9700 H   0  0  0  0  0  0  0  0  0  0  0  0
   -5.7420   10.9650  -15.6420 H   0  0  0  0  0  0  0  0  0  0  0  0
  2  1  1  0  0  0  0
  3  2  2  0  0  0  0
  3 20  1  0  0  0  0
  4  3  1  0  0  0  0
  5  6  1  0  0  0  0
  5  4  1  0  0  0  0
  6  7  2  0  0  0  0
  7  8  1  0  0  0  0
  7  2  1  0  0  0  0
  9  6  1  0  0  0  0
 10  4  2  0  0  0  0
 10 11  1  0  0  0  0
 11 12  2  0  0  0  0
 12 20  1  0  0  0  0
 12 13  1  0  0  0  0
 13 19  1  1  0  0  0
 14 13  1  0  0  0  0
 14 15  2  0  0  0  0
 16 14  1  0  0  0  0
 17 11  1  0  0  0  0
 17 16  2  0  0  0  0
 18 16  1  0  0  0  0
 21 10  1  0  0  0  0
 21 26  1  0  0  0  0
 22 21  2  0  0  0  0
 23 22  1  0  0  0  0
 23 24  2  0  0  0  0
 24 25  1  0  0  0  0
 25 26  2  0  0  0  0
 25 30  1  0  0  0  0
 26 27  1  0  0  0  0
 27 28  2  0  0  0  0
 27 29  1  0  0  0  0
 31 22  1  0  0  0  0
 32  5  1  0  0  0  0
 33 17  1  0  0  0  0
 34 23  1  0  0  0  0
 35 24  1  0  0  0  0
M  END
>  <Pose>
1

>  <Score>
-2.94

$$$$
