
 OpenBabel03232203513D

 35 39  0  0  0  0  0  0  0  0999 V2000
    0.1720   15.0450  -12.2710 B   0  0  0  0  0  0  0  0  0  0  0  0
    1.2830   13.5220  -12.5570 C   0  0  0  0  0  0  0  0  0  0  0  0
    0.7520   12.3010  -13.0140 C   0  0  0  0  0  0  0  0  0  0  0  0
    1.5120   11.1900  -13.2300 C   0  0  0  0  0  0  0  0  0  0  0  0
    2.8830   11.2880  -12.9810 C   0  0  0  0  0  0  0  0  0  0  0  0
    3.3970   12.4700  -12.5390 C   0  0  0  0  0  0  0  0  0  0  0  0
    2.6340   13.5980  -12.3190 C   0  0  0  0  0  0  0  0  0  0  0  0
    3.2330   14.7850  -11.8620 O   0  0  0  0  0  0  0  0  0  0  0  0
    5.2690   12.6130  -12.1970 B   0  0  0  0  0  0  0  0  0  0  0  0
    0.9330    9.9400  -13.7030 C   0  0  0  0  0  0  0  0  0  0  0  0
    1.5170    9.6780  -14.9780 O   0  0  0  0  0  0  0  0  0  0  0  0
    2.2140    8.5010  -14.9930 C   0  0  0  0  0  0  0  0  0  0  0  0
    2.8240    8.0280  -15.9790 O   0  0  0  0  0  0  0  0  0  0  0  0
    2.0890    7.9470  -13.6590 C   0  0  0  0  0  0  0  0  0  0  0  0
    1.3330    8.7760  -12.8610 C   0  0  0  0  0  0  0  0  0  0  0  0
    1.1170    8.4050  -11.5750 C   0  0  0  0  0  0  0  0  0  0  0  0
    1.6500    7.2250  -11.0990 C   0  0  0  0  0  0  0  0  0  0  0  0
    2.4080    6.3930  -11.8940 C   0  0  0  0  0  0  0  0  0  0  0  0
    2.6350    6.7530  -13.1960 C   0  0  0  0  0  0  0  0  0  0  0  0
   -0.5090   10.0020  -13.9150 C   0  0  0  0  0  0  0  0  0  0  0  0
   -1.2180   11.1470  -13.6800 C   0  0  0  0  0  0  0  0  0  0  0  0
   -2.6120   11.1880  -13.8890 C   0  0  0  0  0  0  0  0  0  0  0  0
   -3.2480   10.0540  -14.3360 C   0  0  0  0  0  0  0  0  0  0  0  0
   -2.5360    8.8880  -14.5770 C   0  0  0  0  0  0  0  0  0  0  0  0
   -1.1850    8.8550  -14.3710 C   0  0  0  0  0  0  0  0  0  0  0  0
   -3.4030    7.3090  -15.1970 B   0  0  0  0  0  0  0  0  0  0  0  0
   -4.6190   10.1080  -14.5390 O   0  0  0  0  0  0  0  0  0  0  0  0
   -3.5690   12.8100  -13.5490 B   0  0  0  0  0  0  0  0  0  0  0  0
   -0.6280   12.3200  -13.2290 O   0  0  0  0  0  0  0  0  0  0  0  0
    3.4660   10.3910  -13.1610 H   0  0  0  0  0  0  0  0  0  0  0  0
    0.5310    9.0280  -10.9220 H   0  0  0  0  0  0  0  0  0  0  0  0
    1.4970    6.8960  -10.0690 H   0  0  0  0  0  0  0  0  0  0  0  0
    2.8350    5.4560  -11.5270 H   0  0  0  0  0  0  0  0  0  0  0  0
    3.2240    6.1200  -13.8380 H   0  0  0  0  0  0  0  0  0  0  0  0
   -0.5740    7.9800  -14.5390 H   0  0  0  0  0  0  0  0  0  0  0  0
  2  7  1  0  0  0  0
  2  1  1  0  0  0  0
  3  2  2  0  0  0  0
  4  3  1  0  0  0  0
  4  5  2  0  0  0  0
  5  6  1  0  0  0  0
  6  7  2  0  0  0  0
  6  9  1  0  0  0  0
  7  8  1  0  0  0  0
 10  4  1  0  0  0  0
 10 15  1  0  0  0  0
 11 10  1  0  0  0  0
 12 11  1  0  0  0  0
 12 14  1  0  0  0  0
 13 12  2  0  0  0  0
 14 19  2  0  0  0  0
 14 15  1  0  0  0  0
 15 16  2  0  0  0  0
 16 17  1  0  0  0  0
 16 31  1  0  0  0  0
 17 32  1  0  0  0  0
 18 33  1  0  0  0  0
 18 17  2  0  0  0  0
 19 18  1  0  0  0  0
 20 10  1  0  0  0  0
 20 21  1  0  0  0  0
 21 29  1  0  0  0  0
 22 21  2  0  0  0  0
 22 28  1  0  0  0  0
 23 22  1  0  0  0  0
 24 25  1  0  0  0  0
 24 23  2  0  0  0  0
 25 20  2  0  0  0  0
 26 24  1  0  0  0  0
 27 23  1  0  0  0  0
 29  3  1  0  0  0  0
 30  5  1  0  0  0  0
 34 19  1  0  0  0  0
 35 25  1  0  0  0  0
M  END
>  <Pose>
1

>  <Score>
-3.93

$$$$
