
 OpenBabel03232203513D

 35 39  0  0  0  0  0  0  0  0999 V2000
   -3.6570   12.8610  -13.7230 I   0  0  0  0  0  0  0  0  0  0  0  0
   -2.6510   11.0190  -13.9560 C   0  0  0  0  0  0  0  0  0  0  0  0
   -1.2930   10.9950  -13.6530 C   0  0  0  0  0  0  0  0  0  0  0  0
   -0.6200    9.8250  -13.7930 C   0  0  0  0  0  0  0  0  0  0  0  0
   -1.3090    8.6930  -14.2340 C   0  0  0  0  0  0  0  0  0  0  0  0
   -2.6520    8.7080  -14.5370 C   0  0  0  0  0  0  0  0  0  0  0  0
   -3.3310    9.9010  -14.3920 C   0  0  0  0  0  0  0  0  0  0  0  0
   -4.6850    9.9390  -14.6910 O   0  0  0  0  0  0  0  0  0  0  0  0
   -3.6510    6.9610  -15.2040 I   0  0  0  0  0  0  0  0  0  0  0  0
    0.7960    9.6890  -13.5040 C   0  0  0  0  0  0  0  0  0  0  0  0
    1.5260    9.2580  -14.6620 O   0  0  0  0  0  0  0  0  0  0  0  0
    2.2020    8.0870  -14.4410 C   0  0  0  0  0  0  0  0  0  0  0  0
    2.9400    7.4210  -15.2230 O   0  0  0  0  0  0  0  0  0  0  0  0
    1.9160    7.7050  -13.0660 C   0  0  0  0  0  0  0  0  0  0  0  0
    1.0930    8.6400  -12.5150 C   0  0  0  0  0  0  0  0  0  0  0  0
    0.6630    8.5110  -11.1940 C   0  0  0  0  0  0  0  0  0  0  0  0
    1.0580    7.4410  -10.4190 C   0  0  0  0  0  0  0  0  0  0  0  0
    1.8990    6.4870  -10.9850 C   0  0  0  0  0  0  0  0  0  0  0  0
    2.3240    6.6110  -12.2840 C   0  0  0  0  0  0  0  0  0  0  0  0
    3.3640    5.4210  -12.9690 Cl  0  0  0  0  0  0  0  0  0  0  0  0
    2.4340    5.1120  -10.0600 Cl  0  0  0  0  0  0  0  0  0  0  0  0
    0.5010    7.3110   -8.7670 Cl  0  0  0  0  0  0  0  0  0  0  0  0
   -0.3810    9.7360  -10.5570 Cl  0  0  0  0  0  0  0  0  0  0  0  0
    1.3980   10.9700  -13.0450 C   0  0  0  0  0  0  0  0  0  0  0  0
    0.6960   12.1190  -12.9160 C   0  0  0  0  0  0  0  0  0  0  0  0
    1.3840   13.2480  -12.4760 C   0  0  0  0  0  0  0  0  0  0  0  0
    2.7270   13.2340  -12.1730 C   0  0  0  0  0  0  0  0  0  0  0  0
    3.4110   12.0430  -12.3160 C   0  0  0  0  0  0  0  0  0  0  0  0
    2.7660   10.9130  -12.7480 C   0  0  0  0  0  0  0  0  0  0  0  0
    5.4670   11.9900  -11.8600 I   0  0  0  0  0  0  0  0  0  0  0  0
    3.4050   14.3440  -11.7400 O   0  0  0  0  0  0  0  0  0  0  0  0
    0.3060   15.0370  -12.2730 I   0  0  0  0  0  0  0  0  0  0  0  0
   -0.6540   12.1700  -13.2120 O   0  0  0  0  0  0  0  0  0  0  0  0
   -0.8020    7.7380  -14.3590 H   0  0  0  0  0  0  0  0  0  0  0  0
    3.3240   10.0110  -12.8470 H   0  0  0  0  0  0  0  0  0  0  0  0
  2  1  1  0  0  0  0
  2  3  1  0  0  0  0
  3 33  1  0  0  0  0
  4  3  2  0  0  0  0
  4 10  1  0  0  0  0
  5  4  1  0  0  0  0
  6  7  1  0  0  0  0
  6  5  2  0  0  0  0
  7  2  2  0  0  0  0
  8  7  1  0  0  0  0
  9  6  1  0  0  0  0
 10 24  1  0  0  0  0
 10 15  1  0  0  0  0
 11 12  1  0  0  0  0
 11 10  1  0  0  0  0
 12 14  1  0  0  0  0
 13 12  2  0  0  0  0
 14 15  2  0  0  0  0
 14 19  1  0  0  0  0
 15 16  1  0  0  0  0
 16 23  1  0  0  0  0
 16 17  2  0  0  0  0
 17 22  1  0  0  0  0
 18 17  1  0  0  0  0
 18 21  1  0  0  0  0
 19 18  2  0  0  0  0
 20 19  1  0  0  0  0
 24 25  2  0  0  0  0
 24 29  1  0  0  0  0
 25 26  1  0  0  0  0
 26 32  1  0  0  0  0
 26 27  2  0  0  0  0
 27 31  1  0  0  0  0
 28 27  1  0  0  0  0
 28 30  1  0  0  0  0
 29 28  2  0  0  0  0
 33 25  1  0  0  0  0
 34  5  1  0  0  0  0
 35 29  1  0  0  0  0
M  END
>  <Pose>
1

>  <Score>
-2.32

$$$$
