
 OpenBabel03232203513D

 38 41  0  0  0  0  0  0  0  0999 V2000
    4.2780    1.7900  -12.8380 S   0  0  0  0  0  0  0  0  0  0  0  0
    4.1220    1.9320  -11.3490 O   0  0  0  0  0  0  0  0  0  0  0  0
    3.2600    0.7990  -13.3460 O   0  0  0  0  0  0  0  0  0  0  0  0
    5.8440    1.2590  -13.1450 O   0  0  0  0  0  0  0  0  0  0  0  0
    4.0090    3.3420  -13.5090 O   0  0  0  0  0  0  0  0  0  0  0  0
    4.8630    4.4040  -13.2330 C   0  0  0  0  0  0  0  0  0  0  0  0
    6.2500    4.2470  -13.1070 C   0  0  0  0  0  0  0  0  0  0  0  0
    6.7230    5.5130  -12.8410 C   0  0  0  0  0  0  0  0  0  0  0  0
    5.6860    6.3600  -12.8130 N   0  0  0  0  0  0  0  0  0  0  0  0
    4.5040    5.7130  -13.0510 C   0  0  0  0  0  0  0  0  0  0  0  0
    3.1860    6.3380  -13.0480 C   0  0  0  0  0  0  0  0  0  0  0  0
    2.0430    5.6450  -12.7950 N   0  0  0  0  0  0  0  0  0  0  0  0
    0.9720    6.4510  -12.8700 C   0  0  0  0  0  0  0  0  0  0  0  0
    1.3930    7.7250  -13.1820 C   0  0  0  0  0  0  0  0  0  0  0  0
    2.7840    7.6150  -13.2870 C   0  0  0  0  0  0  0  0  0  0  0  0
    3.5890    8.6950  -13.6010 O   0  0  0  0  0  0  0  0  0  0  0  0
    3.2290    9.7610  -14.8810 S   0  0  0  0  0  0  0  0  0  0  0  0
    2.3470    9.0990  -15.8990 O   0  0  0  0  0  0  0  0  0  0  0  0
    4.4710   10.2170  -15.5930 O   0  0  0  0  0  0  0  0  0  0  0  0
    2.4980   11.1620  -14.2600 O   0  0  0  0  0  0  0  0  0  0  0  0
    0.5120    8.7770  -13.3260 C   0  0  0  0  0  0  0  0  0  0  0  0
   -0.8500    8.5800  -13.1590 C   0  0  0  0  0  0  0  0  0  0  0  0
   -1.2900    7.3040  -12.8450 C   0  0  0  0  0  0  0  0  0  0  0  0
   -0.3940    6.2650  -12.7040 C   0  0  0  0  0  0  0  0  0  0  0  0
   -1.0660    4.5350  -12.2710 B   0  0  0  0  0  0  0  0  0  0  0  0
   -2.0930   10.0270  -13.3550 B   0  0  0  0  0  0  0  0  0  0  0  0
    8.0930    5.6860  -12.6620 C   0  0  0  0  0  0  0  0  0  0  0  0
    8.9260    4.6040  -12.7510 C   0  0  0  0  0  0  0  0  0  0  0  0
    8.4500    3.3170  -13.0210 C   0  0  0  0  0  0  0  0  0  0  0  0
    7.0740    3.1480  -13.2010 C   0  0  0  0  0  0  0  0  0  0  0  0
    9.6580    1.8560  -13.1330 B   0  0  0  0  0  0  0  0  0  0  0  0
    8.7740    7.4150  -12.2960 B   0  0  0  0  0  0  0  0  0  0  0  0
    5.7510    7.4020  -12.6310 H   0  0  0  0  0  0  0  0  0  0  0  0
    1.9710    4.6280  -12.5700 H   0  0  0  0  0  0  0  0  0  0  0  0
    0.8920    9.7430  -13.5690 H   0  0  0  0  0  0  0  0  0  0  0  0
   -2.3690    7.1500  -12.7120 H   0  0  0  0  0  0  0  0  0  0  0  0
    9.9960    4.6970  -12.6180 H   0  0  0  0  0  0  0  0  0  0  0  0
    6.6690    2.1630  -13.4100 H   0  0  0  0  0  0  0  0  0  0  0  0
  1  2  1  0  0  0  0
  3  1  1  0  0  0  0
  4  1  1  0  0  0  0
  5  6  1  0  0  0  0
  5  1  1  0  0  0  0
  6  7  1  0  0  0  0
  6 10  2  0  0  0  0
  7  8  1  0  0  0  0
  8  9  1  0  0  0  0
  8 27  2  0  0  0  0
  9 33  1  0  0  0  0
 10 11  1  0  0  0  0
 10  9  1  0  0  0  0
 11 12  1  0  0  0  0
 12 34  1  0  0  0  0
 13 12  1  0  0  0  0
 13 24  1  0  0  0  0
 14 13  2  0  0  0  0
 15 14  1  0  0  0  0
 15 11  2  0  0  0  0
 16 15  1  0  0  0  0
 17 20  1  0  0  0  0
 17 16  1  0  0  0  0
 18 17  1  0  0  0  0
 19 17  1  0  0  0  0
 21 14  1  0  0  0  0
 21 22  2  0  0  0  0
 22 23  1  0  0  0  0
 23 36  1  0  0  0  0
 23 24  2  0  0  0  0
 24 25  1  0  0  0  0
 26 22  1  0  0  0  0
 27 32  1  0  0  0  0
 28 27  1  0  0  0  0
 28 37  1  0  0  0  0
 29 28  2  0  0  0  0
 30  7  2  0  0  0  0
 30 29  1  0  0  0  0
 31 29  1  0  0  0  0
 35 21  1  0  0  0  0
 38 30  1  0  0  0  0
M  END
>  <Pose>
1

>  <Score>
-7.01

$$$$
