
 OpenBabel03232203513D

 46 51  0  0  1  0  0  0  0  0999 V2000
   -1.5880    6.9600  -14.0150 P   0  0  2  0  0  0  0  0  0  0  0  0
   -1.4420    5.2300  -13.9710 S   0  0  0  0  0  0  0  0  0  0  0  0
   -0.0640    7.6030  -14.4000 O   0  0  0  0  0  0  0  0  0  0  0  0
    0.1730    8.6330  -13.4950 C   0  0  2  0  0  0  0  0  0  0  0  0
   -1.1390    9.4150  -13.3930 C   0  0  2  0  0  0  0  0  0  0  0  0
   -0.7420   10.7030  -13.1610 O   0  0  0  0  0  0  0  0  0  0  0  0
    0.4240   10.9340  -13.8880 C   0  0  2  0  0  0  0  0  0  0  0  0
    1.1620    9.6440  -13.9930 C   0  0  2  0  0  0  0  0  0  0  0  0
    1.5190    9.3690  -15.3190 O   0  0  0  0  0  0  0  0  0  0  0  0
    1.2190   11.9970  -13.2800 N   0  0  0  0  0  0  0  0  0  0  0  0
    0.8040   13.2300  -12.8950 C   0  0  0  0  0  0  0  0  0  0  0  0
    1.8510   13.9500  -12.3600 C   0  0  0  0  0  0  0  0  0  0  0  0
    2.9180   13.1260  -12.4280 N   0  0  0  0  0  0  0  0  0  0  0  0
    2.5290   11.9580  -12.9790 C   0  0  0  0  0  0  0  0  0  0  0  0
    3.6190   10.4230  -13.3200 B   0  0  0  0  0  0  0  0  0  0  0  0
    1.6320   15.2360  -11.9070 C   0  0  0  0  0  0  0  0  0  0  0  0
    2.5740   15.8980  -11.4210 O   0  0  0  0  0  0  0  0  0  0  0  0
    0.4150   15.8240  -11.9690 N   0  0  0  0  0  0  0  0  0  0  0  0
   -0.5920   15.1030  -12.4940 C   0  0  0  0  0  0  0  0  0  0  0  0
   -1.6760   15.8980  -12.4420 N   0  0  0  0  0  0  0  0  0  0  0  0
   -1.3900   17.0970  -11.9030 C   0  0  0  0  0  0  0  0  0  0  0  0
   -0.0460   17.0500  -11.5980 C   0  0  0  0  0  0  0  0  0  0  0  0
   -2.3090   18.2210  -11.6820 C   0  0  0  0  0  0  0  0  0  0  0  0
   -3.3230   18.4750  -12.5780 C   0  0  0  0  0  0  0  0  0  0  0  0
   -4.2080   19.5300  -12.3950 C   0  0  0  0  0  0  0  0  0  0  0  0
   -4.0600   20.3350  -11.2890 C   0  0  0  0  0  0  0  0  0  0  0  0
   -3.0520   20.1130  -10.3630 C   0  0  0  0  0  0  0  0  0  0  0  0
   -2.2040   19.0520  -10.5940 C   0  0  0  0  0  0  0  0  0  0  0  0
   -0.3960   13.8320  -12.9460 N   0  0  0  0  0  0  0  0  0  0  0  0
   -1.9130    8.7970  -12.2540 C   0  0  0  0  0  0  0  0  0  0  0  0
   -2.0960    7.4510  -12.4800 O   0  0  0  0  0  0  0  0  0  0  0  0
   -2.7660    7.4500  -15.1230 O   0  0  0  0  0  0  0  0  0  0  0  0
    0.4800    8.2150  -12.5270 H   0  0  0  0  0  0  0  0  0  0  0  0
   -1.7120    9.3790  -14.3260 H   0  0  0  0  0  0  0  0  0  0  0  0
    0.0760   11.3120  -14.8950 H   0  0  0  0  0  0  0  0  0  0  0  0
    2.0450    9.6430  -13.3520 H   0  0  0  0  0  0  0  0  0  0  0  0
    1.7100   10.1840  -15.8260 H   0  0  0  0  0  0  0  0  0  0  0  0
    0.5550   17.8360  -11.1450 H   0  0  0  0  0  0  0  0  0  0  0  0
   -3.4390   17.8450  -13.4450 H   0  0  0  0  0  0  0  0  0  0  0  0
   -5.0070   19.7360  -13.0980 H   0  0  0  0  0  0  0  0  0  0  0  0
   -4.7350   21.1620  -11.1240 H   0  0  0  0  0  0  0  0  0  0  0  0
   -2.9560   20.7630   -9.4950 H   0  0  0  0  0  0  0  0  0  0  0  0
   -1.4170   18.8650   -9.8840 H   0  0  0  0  0  0  0  0  0  0  0  0
   -1.1810   13.2760  -13.3540 H   0  0  0  0  0  0  0  0  0  0  0  0
   -2.8480    9.3440  -12.0220 H   0  0  0  0  0  0  0  0  0  0  0  0
   -1.2730    8.8990  -11.3310 H   0  0  0  0  0  0  0  0  0  0  0  0
  1 32  2  6  0  0  0
  1  2  1  0  0  0  0
  1 31  1  0  0  0  0
  3  1  1  0  0  0  0
  3  4  1  0  0  0  0
  4  5  1  0  0  0  0
  4 33  1  1  0  0  0
  5 34  1  6  0  0  0
  5  6  1  0  0  0  0
  5 30  1  0  0  0  0
  7 35  1  6  0  0  0
  7 10  1  0  0  0  0
  7  6  1  0  0  0  0
  8  7  1  0  0  0  0
  8  4  1  0  0  0  0
  8 36  1  1  0  0  0
  9  8  1  0  0  0  0
 10 14  1  0  0  0  0
 10 11  1  0  0  0  0
 11 12  2  0  0  0  0
 12 16  1  0  0  0  0
 13 12  1  0  0  0  0
 14 13  2  0  0  0  0
 15 14  1  0  0  0  0
 16 17  2  0  0  0  0
 18 16  1  0  0  0  0
 18 22  1  0  0  0  0
 19 20  2  0  0  0  0
 19 18  1  0  0  0  0
 20 21  1  0  0  0  0
 21 23  1  0  0  0  0
 21 22  2  0  0  0  0
 22 38  1  0  0  0  0
 23 28  1  0  0  0  0
 24 25  1  0  0  0  0
 24 23  2  0  0  0  0
 25 26  2  0  0  0  0
 26 41  1  0  0  0  0
 26 27  1  0  0  0  0
 27 42  1  0  0  0  0
 28 27  2  0  0  0  0
 28 43  1  0  0  0  0
 29 11  1  0  0  0  0
 29 19  1  0  0  0  0
 30 45  1  0  0  0  0
 30 46  1  0  0  0  0
 31 30  1  0  0  0  0
 37  9  1  0  0  0  0
 39 24  1  0  0  0  0
 40 25  1  0  0  0  0
 44 29  1  0  0  0  0
M  END
>  <Pose>
1

>  <Score>
-6.85

$$$$
