
 OpenBabel03232203513D

 33 36  0  0  1  0  0  0  0  0999 V2000
    1.1590    6.3830  -12.5670 P   0  0  2  0  0  0  0  0  0  0  0  0
    1.1270    5.3360  -11.4520 O   0  0  0  0  0  0  0  0  0  0  0  0
    1.9560    7.7330  -11.9690 O   0  0  0  0  0  0  0  0  0  0  0  0
    1.2800    8.8920  -12.2500 C   0  0  2  0  0  0  0  0  0  0  0  0
    0.6080    8.6880  -13.6150 C   0  0  2  0  0  0  0  0  0  0  0  0
    0.4960    9.9250  -14.1750 O   0  0  0  0  0  0  0  0  0  0  0  0
    1.4510   10.7590  -13.6620 C   0  0  2  0  0  0  0  0  0  0  0  0
    2.1690   10.0680  -12.5560 C   0  0  2  0  0  0  0  0  0  0  0  0
    3.4360    9.6360  -12.8970 O   0  0  0  0  0  0  0  0  0  0  0  0
    0.7870   11.9800  -13.2270 N   0  0  0  0  0  0  0  0  0  0  0  0
    1.4000   13.0900  -12.7530 C   0  0  0  0  0  0  0  0  0  0  0  0
    2.7020   13.3640  -12.5620 N   0  0  0  0  0  0  0  0  0  0  0  0
    3.0590   14.5610  -12.0700 C   0  0  0  0  0  0  0  0  0  0  0  0
    2.1140   15.4720  -11.7740 N   0  0  0  0  0  0  0  0  0  0  0  0
    0.7980   15.2690  -11.9380 C   0  0  0  0  0  0  0  0  0  0  0  0
    0.4330   14.0250  -12.4480 C   0  0  0  0  0  0  0  0  0  0  0  0
   -0.7530   13.4940  -12.7320 N   0  0  0  0  0  0  0  0  0  0  0  0
   -0.5270   12.2540  -13.2030 C   0  0  0  0  0  0  0  0  0  0  0  0
   -1.8560   10.9830  -13.7860 B   0  0  0  0  0  0  0  0  0  0  0  0
   -0.2090   16.2220  -11.6290 N   0  0  0  0  0  0  0  0  0  0  0  0
   -0.6850    7.9900  -13.3390 C   0  0  0  0  0  0  0  0  0  0  0  0
   -0.4200    6.6800  -13.0180 O   0  0  0  0  0  0  0  0  0  0  0  0
    2.0660    5.6790  -13.8350 O   0  0  0  0  0  0  0  0  0  0  0  0
    0.5380    9.1850  -11.5010 H   0  0  0  0  0  0  0  0  0  0  0  0
    1.2420    8.0520  -14.2700 H   0  0  0  0  0  0  0  0  0  0  0  0
    2.2170   10.9950  -14.4550 H   0  0  0  0  0  0  0  0  0  0  0  0
    2.2660   10.7400  -11.6780 H   0  0  0  0  0  0  0  0  0  0  0  0
    4.1480   10.0660  -12.3950 H   0  0  0  0  0  0  0  0  0  0  0  0
    4.1230   14.8080  -11.9050 H   0  0  0  0  0  0  0  0  0  0  0  0
   -1.1160   15.8650  -11.2040 H   0  0  0  0  0  0  0  0  0  0  0  0
   -0.1220   17.2300  -11.7860 H   0  0  0  0  0  0  0  0  0  0  0  0
   -1.1300    8.4640  -12.4160 H   0  0  0  0  0  0  0  0  0  0  0  0
   -1.4440    8.1200  -14.1260 H   0  0  0  0  0  0  0  0  0  0  0  0
  1 23  2  6  0  0  0
  1  3  1  0  0  0  0
  1  2  1  0  0  0  0
  4  3  1  0  0  0  0
  4 24  1  1  0  0  0
  5 25  1  6  0  0  0
  5 21  1  0  0  0  0
  5  4  1  0  0  0  0
  6  7  1  0  0  0  0
  6  5  1  0  0  0  0
  7 26  1  6  0  0  0
  7 10  1  0  0  0  0
  7  8  1  0  0  0  0
  8  4  1  0  0  0  0
  8 27  1  1  0  0  0
  9  8  1  0  0  0  0
  9 28  1  0  0  0  0
 10 18  1  0  0  0  0
 10 11  1  0  0  0  0
 11 12  1  0  0  0  0
 11 16  2  0  0  0  0
 12 13  2  0  0  0  0
 13 29  1  0  0  0  0
 13 14  1  0  0  0  0
 15 14  2  0  0  0  0
 15 20  1  0  0  0  0
 16 15  1  0  0  0  0
 17 16  1  0  0  0  0
 18 17  2  0  0  0  0
 19 18  1  0  0  0  0
 20 30  1  0  0  0  0
 21 22  1  0  0  0  0
 21 32  1  0  0  0  0
 22  1  1  0  0  0  0
 31 20  1  0  0  0  0
 33 21  1  0  0  0  0
M  END
>  <Pose>
1

>  <Score>
-6.18

$$$$
