
 OpenBabel03232203513D

 47 50  0  0  1  0  0  0  0  0999 V2000
    3.6200    9.4550  -14.0670 S   0  0  0  0  0  0  0  0  0  0  0  0
    4.2990   10.2450  -12.9670 O   0  0  0  0  0  0  0  0  0  0  0  0
    4.0710   10.0090  -15.3970 O   0  0  0  0  0  0  0  0  0  0  0  0
    4.0950    7.8180  -13.8800 N   0  0  0  0  0  0  0  0  0  0  0  0
    1.8980    9.6100  -13.8870 C   0  0  0  0  0  0  0  0  0  0  0  0
    1.3520   10.8400  -13.6010 C   0  0  0  0  0  0  0  0  0  0  0  0
   -0.0190   11.0180  -13.4480 C   0  0  0  0  0  0  0  0  0  0  0  0
   -0.8280    9.9120  -13.5930 C   0  0  0  0  0  0  0  0  0  0  0  0
   -0.2820    8.6620  -13.8840 C   0  0  0  0  0  0  0  0  0  0  0  0
    1.0780    8.5050  -14.0330 C   0  0  0  0  0  0  0  0  0  0  0  0
   -2.7060   10.0740  -13.4000 B   0  0  0  0  0  0  0  0  0  0  0  0
   -0.5800   12.3200  -13.1440 C   0  0  0  0  0  0  0  0  0  0  0  0
   -1.8030   12.4120  -12.8740 O   0  0  0  0  0  0  0  0  0  0  0  0
    0.2390   13.4870  -13.1470 N   0  0  0  0  0  0  0  0  0  0  0  0
   -0.3110   14.7720  -13.5210 C   0  0  0  0  0  0  0  0  0  0  0  0
    0.1880   15.8980  -12.6690 C   0  0  2  0  0  0  0  0  0  0  0  0
    0.8160   15.2660  -11.4240 C   0  0  0  0  0  0  0  0  0  0  0  0
    2.0630   14.5610  -11.9110 C   0  0  0  0  0  0  0  0  0  0  0  0
    1.6300   13.4110  -12.7820 C   0  0  0  0  0  0  0  0  0  0  0  0
   -0.8850   16.8700  -12.2890 C   0  0  0  0  0  0  0  0  0  0  0  0
   -1.9260   17.2710  -13.0660 N   0  0  0  0  0  0  0  0  0  0  0  0
   -2.6880   18.1460  -12.4040 C   0  0  0  0  0  0  0  0  0  0  0  0
   -2.0890   18.2810  -11.1820 N   0  0  0  0  0  0  0  0  0  0  0  0
   -1.0150   17.5180  -11.1200 N   0  0  0  0  0  0  0  0  0  0  0  0
   -3.8470   18.6170  -13.2170 C   0  0  0  0  0  0  0  0  0  0  0  0
   -3.8530   17.6310  -14.3440 C   0  0  0  0  0  0  0  0  0  0  0  0
   -2.4610   17.0390  -14.3950 C   0  0  0  0  0  0  0  0  0  0  0  0
    3.6510    7.1990  -14.6010 H   0  0  0  0  0  0  0  0  0  0  0  0
    3.8520    7.4770  -12.9160 H   0  0  0  0  0  0  0  0  0  0  0  0
    2.0440   11.6890  -13.4950 H   0  0  0  0  0  0  0  0  0  0  0  0
   -0.9620    7.8290  -13.9870 H   0  0  0  0  0  0  0  0  0  0  0  0
    1.5180    7.5500  -14.2570 H   0  0  0  0  0  0  0  0  0  0  0  0
   -1.4140   14.7550  -13.6130 H   0  0  0  0  0  0  0  0  0  0  0  0
    0.0630   14.9710  -14.5660 H   0  0  0  0  0  0  0  0  0  0  0  0
    1.0130   16.4750  -13.1330 H   0  0  0  0  0  0  0  0  0  0  0  0
    1.0390   16.0430  -10.6740 H   0  0  0  0  0  0  0  0  0  0  0  0
    0.1260   14.5190  -10.9970 H   0  0  0  0  0  0  0  0  0  0  0  0
    2.6740   15.3060  -12.4860 H   0  0  0  0  0  0  0  0  0  0  0  0
    2.6460   14.2360  -11.0280 H   0  0  0  0  0  0  0  0  0  0  0  0
    1.7650   12.4820  -12.1590 H   0  0  0  0  0  0  0  0  0  0  0  0
    2.3010   13.3250  -13.6700 H   0  0  0  0  0  0  0  0  0  0  0  0
   -4.8070   18.5190  -12.6540 H   0  0  0  0  0  0  0  0  0  0  0  0
   -3.6560   19.6590  -13.5430 H   0  0  0  0  0  0  0  0  0  0  0  0
   -4.6140   16.8150  -14.2070 H   0  0  0  0  0  0  0  0  0  0  0  0
   -4.0990   18.1700  -15.2900 H   0  0  0  0  0  0  0  0  0  0  0  0
   -1.9040   17.5980  -15.1740 H   0  0  0  0  0  0  0  0  0  0  0  0
   -2.4810   15.9880  -14.6820 H   0  0  0  0  0  0  0  0  0  0  0  0
  1  5  1  0  0  0  0
  1  4  1  0  0  0  0
  1  2  2  0  0  0  0
  3  1  2  0  0  0  0
  4 29  1  0  0  0  0
  5  6  1  0  0  0  0
  6 30  1  0  0  0  0
  6  7  2  0  0  0  0
  7 12  1  0  0  0  0
  8  7  1  0  0  0  0
  8 11  1  0  0  0  0
  9  8  2  0  0  0  0
 10  5  2  0  0  0  0
 10  9  1  0  0  0  0
 12 13  2  0  0  0  0
 14 12  1  0  0  0  0
 14 19  1  0  0  0  0
 15 14  1  0  0  0  0
 15 16  1  0  0  0  0
 16 35  1  6  0  0  0
 16 20  1  0  0  0  0
 16 17  1  0  0  0  0
 17 37  1  0  0  0  0
 17 36  1  0  0  0  0
 18 17  1  0  0  0  0
 18 39  1  0  0  0  0
 19 40  1  0  0  0  0
 19 18  1  0  0  0  0
 20 24  2  0  0  0  0
 21 22  1  0  0  0  0
 21 20  1  0  0  0  0
 22 23  2  0  0  0  0
 23 24  1  0  0  0  0
 25 42  1  0  0  0  0
 25 22  1  0  0  0  0
 26 44  1  0  0  0  0
 26 25  1  0  0  0  0
 27 26  1  0  0  0  0
 27 21  1  0  0  0  0
 28  4  1  0  0  0  0
 31  9  1  0  0  0  0
 32 10  1  0  0  0  0
 33 15  1  0  0  0  0
 34 15  1  0  0  0  0
 38 18  1  0  0  0  0
 41 19  1  0  0  0  0
 43 25  1  0  0  0  0
 45 26  1  0  0  0  0
 46 27  1  0  0  0  0
 47 27  1  0  0  0  0
M  END
>  <Pose>
1

>  <Score>
-6.26

$$$$
