
 OpenBabel03232203513D

 54 57  0  0  0  0  0  0  0  0999 V2000
    0.8720   13.1620  -14.1430 S   0  0  0  0  0  0  0  0  0  0  0  0
    2.3120   13.6130  -13.9240 O   0  0  0  0  0  0  0  0  0  0  0  0
    0.5950   13.3640  -15.5950 O   0  0  0  0  0  0  0  0  0  0  0  0
   -0.0930   14.1830  -13.1470 N   0  0  0  0  0  0  0  0  0  0  0  0
    0.3600   15.5600  -13.1520 C   0  0  0  0  0  0  0  0  0  0  0  0
   -0.8940   16.4200  -13.1210 C   0  0  0  0  0  0  0  0  0  0  0  0
   -0.9380   17.2640  -11.8750 C   0  0  0  0  0  0  0  0  0  0  0  0
   -2.0400   18.1480  -11.9580 N   0  0  0  0  0  0  0  0  0  0  0  0
   -3.1080   17.7540  -12.8060 C   0  0  0  0  0  0  0  0  0  0  0  0
   -3.9160   18.9890  -13.1650 C   0  0  0  0  0  0  0  0  0  0  0  0
   -4.1020   19.8100  -12.0710 O   0  0  0  0  0  0  0  0  0  0  0  0
   -3.8920   19.1700  -10.8550 C   0  0  0  0  0  0  0  0  0  0  0  0
   -2.3970   18.8440  -10.7780 C   0  0  0  0  0  0  0  0  0  0  0  0
    0.6950   11.4940  -13.6690 C   0  0  0  0  0  0  0  0  0  0  0  0
   -0.5070   10.8280  -13.9260 C   0  0  0  0  0  0  0  0  0  0  0  0
   -0.6700    9.5110  -13.5560 C   0  0  0  0  0  0  0  0  0  0  0  0
    0.3270    8.7900  -12.9220 C   0  0  0  0  0  0  0  0  0  0  0  0
    1.5050    9.4330  -12.6650 C   0  0  0  0  0  0  0  0  0  0  0  0
    1.6780   10.7700  -13.0380 C   0  0  0  0  0  0  0  0  0  0  0  0
    3.3380   11.6610  -12.6830 B   0  0  0  0  0  0  0  0  0  0  0  0
   -0.1550    7.4030  -12.6690 C   0  0  0  0  0  0  0  0  0  0  0  0
   -1.3190    7.2890  -13.6760 C   0  0  0  0  0  0  0  0  0  0  0  0
   -1.8150    8.6550  -13.7200 N   0  0  0  0  0  0  0  0  0  0  0  0
   -3.1370    9.1320  -13.8790 C   0  0  0  0  0  0  0  0  0  0  0  0
   -3.6500    9.9830  -13.1160 O   0  0  0  0  0  0  0  0  0  0  0  0
   -3.9550    8.6010  -14.9950 C   0  0  0  0  0  0  0  0  0  0  0  0
   -4.9870    7.6260  -14.6010 C   0  0  0  0  0  0  0  0  0  0  0  0
   -3.8040    7.1900  -15.4300 C   0  0  0  0  0  0  0  0  0  0  0  0
   -1.0760   14.1130  -13.4730 H   0  0  0  0  0  0  0  0  0  0  0  0
    1.0170   15.8050  -13.9960 H   0  0  0  0  0  0  0  0  0  0  0  0
    0.8600   15.7210  -12.1540 H   0  0  0  0  0  0  0  0  0  0  0  0
   -0.9590   17.0800  -14.0180 H   0  0  0  0  0  0  0  0  0  0  0  0
   -1.7500   15.7040  -13.0650 H   0  0  0  0  0  0  0  0  0  0  0  0
   -0.0060   17.8860  -11.7800 H   0  0  0  0  0  0  0  0  0  0  0  0
   -0.9890   16.6300  -10.9810 H   0  0  0  0  0  0  0  0  0  0  0  0
   -3.7780   17.0720  -12.2490 H   0  0  0  0  0  0  0  0  0  0  0  0
   -2.6880   17.2770  -13.7070 H   0  0  0  0  0  0  0  0  0  0  0  0
   -3.3760   19.5660  -13.9490 H   0  0  0  0  0  0  0  0  0  0  0  0
   -4.8740   18.6740  -13.6320 H   0  0  0  0  0  0  0  0  0  0  0  0
   -4.1980   19.8640  -10.0500 H   0  0  0  0  0  0  0  0  0  0  0  0
   -4.4950   18.2430  -10.7450 H   0  0  0  0  0  0  0  0  0  0  0  0
   -1.8470   19.7720  -10.5970 H   0  0  0  0  0  0  0  0  0  0  0  0
   -2.2920   18.2110   -9.8650 H   0  0  0  0  0  0  0  0  0  0  0  0
   -1.3040   11.3850  -14.4280 H   0  0  0  0  0  0  0  0  0  0  0  0
    2.3370    8.9410  -12.1700 H   0  0  0  0  0  0  0  0  0  0  0  0
   -0.5200    7.2460  -11.6520 H   0  0  0  0  0  0  0  0  0  0  0  0
    0.5840    6.6340  -12.9230 H   0  0  0  0  0  0  0  0  0  0  0  0
   -0.9140    7.0710  -14.6860 H   0  0  0  0  0  0  0  0  0  0  0  0
   -2.0480    6.5530  -13.3430 H   0  0  0  0  0  0  0  0  0  0  0  0
   -4.2160    9.3380  -15.8010 H   0  0  0  0  0  0  0  0  0  0  0  0
   -4.9690    7.1530  -13.5820 H   0  0  0  0  0  0  0  0  0  0  0  0
   -5.9870    7.6400  -15.0350 H   0  0  0  0  0  0  0  0  0  0  0  0
   -3.0220    6.5370  -15.0150 H   0  0  0  0  0  0  0  0  0  0  0  0
   -4.0730    6.9620  -16.4810 H   0  0  0  0  0  0  0  0  0  0  0  0
  1  2  2  0  0  0  0
  1 14  1  0  0  0  0
  1  4  1  0  0  0  0
  3  1  2  0  0  0  0
  5  4  1  0  0  0  0
  5  6  1  0  0  0  0
  5 31  1  0  0  0  0
  6 33  1  0  0  0  0
  6  7  1  0  0  0  0
  7 34  1  0  0  0  0
  7 35  1  0  0  0  0
  8  7  1  0  0  0  0
  8 13  1  0  0  0  0
  9 36  1  0  0  0  0
  9  8  1  0  0  0  0
 10  9  1  0  0  0  0
 10 11  1  0  0  0  0
 11 12  1  0  0  0  0
 12 13  1  0  0  0  0
 12 41  1  0  0  0  0
 12 40  1  0  0  0  0
 13 42  1  0  0  0  0
 13 43  1  0  0  0  0
 14 19  1  0  0  0  0
 15 14  2  0  0  0  0
 15 16  1  0  0  0  0
 16 17  2  0  0  0  0
 17 21  1  0  0  0  0
 17 18  1  0  0  0  0
 18 45  1  0  0  0  0
 19 20  1  0  0  0  0
 19 18  2  0  0  0  0
 21 46  1  0  0  0  0
 22 49  1  0  0  0  0
 22 21  1  0  0  0  0
 23 22  1  0  0  0  0
 23 16  1  0  0  0  0
 24 23  1  0  0  0  0
 24 25  2  0  0  0  0
 26 27  1  0  0  0  0
 26 24  1  0  0  0  0
 27 51  1  0  0  0  0
 28 53  1  0  0  0  0
 28 26  1  0  0  0  0
 28 27  1  0  0  0  0
 29  4  1  0  0  0  0
 30  5  1  0  0  0  0
 32  6  1  0  0  0  0
 37  9  1  0  0  0  0
 38 10  1  0  0  0  0
 39 10  1  0  0  0  0
 44 15  1  0  0  0  0
 47 21  1  0  0  0  0
 48 22  1  0  0  0  0
 50 26  1  0  0  0  0
 52 27  1  0  0  0  0
 54 28  1  0  0  0  0
M  END
>  <Pose>
1

>  <Score>
-5.17

$$$$
