
 OpenBabel03232203513D

 54 57  0  0  0  0  0  0  0  0999 V2000
    1.6820    9.3760  -12.2000 S   0  0  0  0  0  0  0  0  0  0  0  0
    0.9700   10.0820  -11.0460 O   0  0  0  0  0  0  0  0  0  0  0  0
    2.8690    8.7060  -11.5470 O   0  0  0  0  0  0  0  0  0  0  0  0
    2.1910   10.5540  -13.2780 N   0  0  0  0  0  0  0  0  0  0  0  0
    3.0900   11.5480  -12.9000 C   0  0  0  0  0  0  0  0  0  0  0  0
    2.4900   12.7490  -12.2770 C   0  0  0  0  0  0  0  0  0  0  0  0
    3.1430   13.4540  -11.4700 O   0  0  0  0  0  0  0  0  0  0  0  0
    1.1480   13.0470  -12.6460 N   0  0  0  0  0  0  0  0  0  0  0  0
    0.6270   12.3490  -13.7650 C   0  0  0  0  0  0  0  0  0  0  0  0
   -0.2970   12.8950  -14.4310 O   0  0  0  0  0  0  0  0  0  0  0  0
    1.1330   11.0180  -14.1630 C   0  0  0  0  0  0  0  0  0  0  0  0
    0.3820   14.0240  -11.9020 C   0  0  0  0  0  0  0  0  0  0  0  0
    0.7200   15.4430  -12.2040 C   0  0  0  0  0  0  0  0  0  0  0  0
   -0.4140   16.3470  -12.3860 C   0  0  0  0  0  0  0  0  0  0  0  0
   -0.7960   17.2410  -11.4240 C   0  0  0  0  0  0  0  0  0  0  0  0
   -1.8690   18.0550  -11.6560 C   0  0  0  0  0  0  0  0  0  0  0  0
   -2.5890   18.0030  -12.8450 C   0  0  0  0  0  0  0  0  0  0  0  0
   -2.1880   17.1000  -13.7910 C   0  0  0  0  0  0  0  0  0  0  0  0
   -1.1140   16.2670  -13.5900 C   0  0  0  0  0  0  0  0  0  0  0  0
    0.5650    8.1820  -12.8030 C   0  0  0  0  0  0  0  0  0  0  0  0
   -0.6660    8.6190  -13.3070 C   0  0  0  0  0  0  0  0  0  0  0  0
   -1.6570    7.7730  -13.7500 C   0  0  0  0  0  0  0  0  0  0  0  0
   -1.4640    6.4100  -13.7120 C   0  0  0  0  0  0  0  0  0  0  0  0
   -0.2620    5.9620  -13.2230 C   0  0  0  0  0  0  0  0  0  0  0  0
    0.7460    6.8300  -12.7730 C   0  0  0  0  0  0  0  0  0  0  0  0
    2.4220    6.0890  -12.2060 B   0  0  0  0  0  0  0  0  0  0  0  0
   -2.6550    5.6990  -14.2410 C   0  0  0  0  0  0  0  0  0  0  0  0
   -3.3660    6.8170  -15.0050 C   0  0  0  0  0  0  0  0  0  0  0  0
   -2.9590    8.0200  -14.2870 N   0  0  0  0  0  0  0  0  0  0  0  0
   -3.7420    9.1810  -14.1630 C   0  0  0  0  0  0  0  0  0  0  0  0
   -3.1790   10.3180  -14.3330 O   0  0  0  0  0  0  0  0  0  0  0  0
   -5.1900    9.2210  -13.8490 C   0  0  0  0  0  0  0  0  0  0  0  0
    3.6140   11.9070  -13.8670 H   0  0  0  0  0  0  0  0  0  0  0  0
    3.9280   11.1610  -12.3180 H   0  0  0  0  0  0  0  0  0  0  0  0
    0.2750   10.3280  -14.2270 H   0  0  0  0  0  0  0  0  0  0  0  0
    1.5720   11.1040  -15.1740 H   0  0  0  0  0  0  0  0  0  0  0  0
    0.4840   13.8230  -10.8040 H   0  0  0  0  0  0  0  0  0  0  0  0
   -0.7090   13.8980  -12.1210 H   0  0  0  0  0  0  0  0  0  0  0  0
    1.3050   15.4410  -13.1530 H   0  0  0  0  0  0  0  0  0  0  0  0
    1.4310   15.8060  -11.4250 H   0  0  0  0  0  0  0  0  0  0  0  0
   -0.2640   17.3030  -10.5060 H   0  0  0  0  0  0  0  0  0  0  0  0
   -2.2120   18.7840  -10.9190 H   0  0  0  0  0  0  0  0  0  0  0  0
   -3.4430   18.6560  -13.0190 H   0  0  0  0  0  0  0  0  0  0  0  0
   -2.7230   17.0250  -14.7370 H   0  0  0  0  0  0  0  0  0  0  0  0
   -0.8450   15.5750  -14.3760 H   0  0  0  0  0  0  0  0  0  0  0  0
   -0.8020    9.7030  -13.3350 H   0  0  0  0  0  0  0  0  0  0  0  0
   -0.0490    4.8970  -13.1670 H   0  0  0  0  0  0  0  0  0  0  0  0
   -3.3210    5.3160  -13.4600 H   0  0  0  0  0  0  0  0  0  0  0  0
   -2.3790    4.8790  -14.9410 H   0  0  0  0  0  0  0  0  0  0  0  0
   -4.4550    6.6870  -14.9400 H   0  0  0  0  0  0  0  0  0  0  0  0
   -2.9740    6.8700  -16.0280 H   0  0  0  0  0  0  0  0  0  0  0  0
   -5.6080   10.2470  -14.0650 H   0  0  0  0  0  0  0  0  0  0  0  0
   -5.4020    9.0710  -12.7700 H   0  0  0  0  0  0  0  0  0  0  0  0
   -5.7520    8.4580  -14.4360 H   0  0  0  0  0  0  0  0  0  0  0  0
  1  3  2  0  0  0  0
  1  2  2  0  0  0  0
  4  5  1  0  0  0  0
  4  1  1  0  0  0  0
  5 34  1  0  0  0  0
  5  6  1  0  0  0  0
  6  7  2  0  0  0  0
  8  6  1  0  0  0  0
  8 12  1  0  0  0  0
  9  8  1  0  0  0  0
 10  9  2  0  0  0  0
 11  9  1  0  0  0  0
 11  4  1  0  0  0  0
 12 37  1  0  0  0  0
 13 12  1  0  0  0  0
 13 40  1  0  0  0  0
 14 13  1  0  0  0  0
 14 15  1  0  0  0  0
 15 41  1  0  0  0  0
 16 15  2  0  0  0  0
 16 42  1  0  0  0  0
 17 16  1  0  0  0  0
 18 19  1  0  0  0  0
 18 17  2  0  0  0  0
 19 14  2  0  0  0  0
 20 25  1  0  0  0  0
 20  1  1  0  0  0  0
 21 20  2  0  0  0  0
 22 23  2  0  0  0  0
 22 21  1  0  0  0  0
 23 24  1  0  0  0  0
 24 47  1  0  0  0  0
 24 25  2  0  0  0  0
 25 26  1  0  0  0  0
 27 23  1  0  0  0  0
 27 48  1  0  0  0  0
 28 50  1  0  0  0  0
 28 29  1  0  0  0  0
 28 27  1  0  0  0  0
 29 30  1  0  0  0  0
 29 22  1  0  0  0  0
 30 32  1  0  0  0  0
 31 30  2  0  0  0  0
 32 53  1  0  0  0  0
 33  5  1  0  0  0  0
 35 11  1  0  0  0  0
 36 11  1  0  0  0  0
 38 12  1  0  0  0  0
 39 13  1  0  0  0  0
 43 17  1  0  0  0  0
 44 18  1  0  0  0  0
 45 19  1  0  0  0  0
 46 21  1  0  0  0  0
 49 27  1  0  0  0  0
 51 28  1  0  0  0  0
 52 32  1  0  0  0  0
 54 32  1  0  0  0  0
M  END
>  <Pose>
1

>  <Score>
-6.85

$$$$
