
 OpenBabel03232203513D

 50 53  0  0  0  0  0  0  0  0999 V2000
    2.0120   15.1130  -11.4340 S   0  0  0  0  0  0  0  0  0  0  0  0
    3.0740   16.1640  -11.2690 O   0  0  0  0  0  0  0  0  0  0  0  0
    1.9870   14.3300  -10.1330 O   0  0  0  0  0  0  0  0  0  0  0  0
    2.4260   14.0990  -12.7270 N   0  0  0  0  0  0  0  0  0  0  0  0
    3.1210   12.9040  -12.3930 C   0  0  0  0  0  0  0  0  0  0  0  0
    2.4010   11.6370  -12.4400 C   0  0  0  0  0  0  0  0  0  0  0  0
    1.1220   11.5970  -13.1220 N   0  0  0  0  0  0  0  0  0  0  0  0
    0.4530   12.8070  -13.4930 C   0  0  0  0  0  0  0  0  0  0  0  0
    1.4320   13.9510  -13.7280 C   0  0  0  0  0  0  0  0  0  0  0  0
    0.5820   10.3460  -13.4240 C   0  0  0  0  0  0  0  0  0  0  0  0
    1.3750    9.6850  -14.2940 O   0  0  0  0  0  0  0  0  0  0  0  0
   -0.5990    9.6410  -13.0180 C   0  0  0  0  0  0  0  0  0  0  0  0
   -0.7780    8.2200  -13.3070 C   0  0  0  0  0  0  0  0  0  0  0  0
    0.0280    7.2660  -12.7350 C   0  0  0  0  0  0  0  0  0  0  0  0
   -0.1570    5.9130  -13.0140 C   0  0  0  0  0  0  0  0  0  0  0  0
   -1.1540    5.5330  -13.8640 C   0  0  0  0  0  0  0  0  0  0  0  0
   -1.9790    6.4970  -14.4460 C   0  0  0  0  0  0  0  0  0  0  0  0
   -1.7950    7.8150  -14.1730 C   0  0  0  0  0  0  0  0  0  0  0  0
    1.4400    7.7770  -11.5430 B   0  0  0  0  0  0  0  0  0  0  0  0
    0.5030   15.9760  -11.6480 C   0  0  0  0  0  0  0  0  0  0  0  0
    0.2470   17.1280  -10.9060 C   0  0  0  0  0  0  0  0  0  0  0  0
   -0.9260   17.8420  -11.0190 C   0  0  0  0  0  0  0  0  0  0  0  0
   -1.9150   17.4400  -11.8880 C   0  0  0  0  0  0  0  0  0  0  0  0
   -1.6690   16.3020  -12.6250 C   0  0  0  0  0  0  0  0  0  0  0  0
   -0.4890   15.5760  -12.5160 C   0  0  0  0  0  0  0  0  0  0  0  0
   -3.1180   18.1630  -12.0090 O   0  0  0  0  0  0  0  0  0  0  0  0
   -3.1380   19.5640  -11.6840 C   0  0  0  0  0  0  0  0  0  0  0  0
   -2.4100   19.6920  -10.3950 C   0  0  0  0  0  0  0  0  0  0  0  0
   -2.8500   20.3710   -9.4400 O   0  0  0  0  0  0  0  0  0  0  0  0
   -1.1730   19.0210  -10.2340 N   0  0  0  0  0  0  0  0  0  0  0  0
    3.5150   13.0460  -11.3420 H   0  0  0  0  0  0  0  0  0  0  0  0
    4.0570   12.8870  -13.0270 H   0  0  0  0  0  0  0  0  0  0  0  0
    3.0470   10.8460  -12.9270 H   0  0  0  0  0  0  0  0  0  0  0  0
    2.2030   11.2110  -11.4050 H   0  0  0  0  0  0  0  0  0  0  0  0
   -0.2670   13.0590  -12.7040 H   0  0  0  0  0  0  0  0  0  0  0  0
   -0.1320   12.7470  -14.4310 H   0  0  0  0  0  0  0  0  0  0  0  0
    0.8420   14.8700  -13.8240 H   0  0  0  0  0  0  0  0  0  0  0  0
    1.9680   13.6920  -14.6820 H   0  0  0  0  0  0  0  0  0  0  0  0
   -0.7360    9.7830  -11.8780 H   0  0  0  0  0  0  0  0  0  0  0  0
   -1.5020   10.1900  -13.4310 H   0  0  0  0  0  0  0  0  0  0  0  0
    0.5130    5.2150  -12.5350 H   0  0  0  0  0  0  0  0  0  0  0  0
   -1.2920    4.4930  -14.0730 H   0  0  0  0  0  0  0  0  0  0  0  0
   -2.7680    6.1400  -15.1220 H   0  0  0  0  0  0  0  0  0  0  0  0
   -2.4160    8.5950  -14.6070 H   0  0  0  0  0  0  0  0  0  0  0  0
    1.0190   17.4550  -10.2170 H   0  0  0  0  0  0  0  0  0  0  0  0
   -2.4560   15.9760  -13.3220 H   0  0  0  0  0  0  0  0  0  0  0  0
   -0.3270   14.6810  -13.1160 H   0  0  0  0  0  0  0  0  0  0  0  0
   -2.5040   20.1270  -12.4360 H   0  0  0  0  0  0  0  0  0  0  0  0
   -4.1750   19.8650  -11.6650 H   0  0  0  0  0  0  0  0  0  0  0  0
   -0.4270   19.3150   -9.5880 H   0  0  0  0  0  0  0  0  0  0  0  0
  1  2  2  0  0  0  0
  1  3  2  0  0  0  0
  4  5  1  0  0  0  0
  4  1  1  0  0  0  0
  5 31  1  0  0  0  0
  6  5  1  0  0  0  0
  6 34  1  0  0  0  0
  7  6  1  0  0  0  0
  8  7  1  0  0  0  0
  8 35  1  0  0  0  0
  9  8  1  0  0  0  0
  9  4  1  0  0  0  0
 10  7  1  0  0  0  0
 10 12  1  0  0  0  0
 11 10  2  0  0  0  0
 12 39  1  0  0  0  0
 13 12  1  0  0  0  0
 13 14  1  0  0  0  0
 14 19  1  0  0  0  0
 15 14  2  0  0  0  0
 15 41  1  0  0  0  0
 16 15  1  0  0  0  0
 17 18  1  0  0  0  0
 17 16  2  0  0  0  0
 18 13  2  0  0  0  0
 20  1  1  0  0  0  0
 20 21  1  0  0  0  0
 21 45  1  0  0  0  0
 22 21  2  0  0  0  0
 22 30  1  0  0  0  0
 23 22  1  0  0  0  0
 24 25  1  0  0  0  0
 24 23  2  0  0  0  0
 25 20  2  0  0  0  0
 26 23  1  0  0  0  0
 26 27  1  0  0  0  0
 27 49  1  0  0  0  0
 27 28  1  0  0  0  0
 28 30  1  0  0  0  0
 28 29  2  0  0  0  0
 30 50  1  0  0  0  0
 32  5  1  0  0  0  0
 33  6  1  0  0  0  0
 36  8  1  0  0  0  0
 37  9  1  0  0  0  0
 38  9  1  0  0  0  0
 40 12  1  0  0  0  0
 42 16  1  0  0  0  0
 43 17  1  0  0  0  0
 44 18  1  0  0  0  0
 46 24  1  0  0  0  0
 47 25  1  0  0  0  0
 48 27  1  0  0  0  0
M  END
>  <Pose>
1

>  <Score>
-6.82

$$$$
