
 OpenBabel03232203513D

 53 56  0  0  0  0  0  0  0  0999 V2000
   -1.9260   17.2910  -13.3550 S   0  0  0  0  0  0  0  0  0  0  0  0
   -0.7270   17.9840  -14.0170 O   0  0  0  0  0  0  0  0  0  0  0  0
   -3.0050   17.3650  -14.4410 O   0  0  0  0  0  0  0  0  0  0  0  0
   -1.4960   15.7280  -13.0130 N   0  0  0  0  0  0  0  0  0  0  0  0
   -2.3880   14.6690  -12.9780 C   0  0  0  0  0  0  0  0  0  0  0  0
   -1.6700   13.4550  -12.3280 C   0  0  0  0  0  0  0  0  0  0  0  0
   -0.4180   13.2230  -12.9930 N   0  0  0  0  0  0  0  0  0  0  0  0
    0.5310   14.3120  -12.9920 C   0  0  0  0  0  0  0  0  0  0  0  0
   -0.1910   15.5250  -12.4470 C   0  0  0  0  0  0  0  0  0  0  0  0
   -0.0830   12.0120  -13.6290 C   0  0  0  0  0  0  0  0  0  0  0  0
   -0.8670   11.5330  -14.4800 O   0  0  0  0  0  0  0  0  0  0  0  0
    1.1610   11.3100  -13.3120 C   0  0  0  0  0  0  0  0  0  0  0  0
    1.1350    9.9510  -13.8450 N   0  0  0  0  0  0  0  0  0  0  0  0
    1.8770    9.3810  -14.9040 C   0  0  0  0  0  0  0  0  0  0  0  0
    2.7420   10.0000  -15.6070 O   0  0  0  0  0  0  0  0  0  0  0  0
    1.4760    8.0220  -15.0230 N   0  0  0  0  0  0  0  0  0  0  0  0
    0.8730    7.6490  -13.7710 C   0  0  0  0  0  0  0  0  0  0  0  0
    1.8370    7.0730  -12.7850 C   0  0  0  0  0  0  0  0  0  0  0  0
    0.8890    6.4240  -11.7690 C   0  0  0  0  0  0  0  0  0  0  0  0
   -0.2280    5.8780  -12.6150 C   0  0  0  0  0  0  0  0  0  0  0  0
   -0.1680    6.5660  -13.9380 C   0  0  0  0  0  0  0  0  0  0  0  0
    0.2720    8.9240  -13.3150 C   0  0  0  0  0  0  0  0  0  0  0  0
   -0.7600    9.0660  -12.6210 O   0  0  0  0  0  0  0  0  0  0  0  0
   -2.3850   18.3250  -12.0380 C   0  0  0  0  0  0  0  0  0  0  0  0
   -1.6130   18.6540  -10.9570 C   0  0  0  0  0  0  0  0  0  0  0  0
   -2.0980   19.4580   -9.9190 C   0  0  0  0  0  0  0  0  0  0  0  0
   -3.3630   19.9550   -9.9310 C   0  0  0  0  0  0  0  0  0  0  0  0
   -4.1610   19.6460  -11.0000 C   0  0  0  0  0  0  0  0  0  0  0  0
   -3.6890   18.8560  -12.0210 C   0  0  0  0  0  0  0  0  0  0  0  0
    0.1890   18.0630  -10.8900 B   0  0  0  0  0  0  0  0  0  0  0  0
   -2.8250   14.3440  -13.9430 H   0  0  0  0  0  0  0  0  0  0  0  0
   -3.2220   14.8610  -12.2750 H   0  0  0  0  0  0  0  0  0  0  0  0
   -1.5230   13.7100  -11.2730 H   0  0  0  0  0  0  0  0  0  0  0  0
   -2.3850   12.6310  -12.3940 H   0  0  0  0  0  0  0  0  0  0  0  0
    1.3350   14.0790  -12.2410 H   0  0  0  0  0  0  0  0  0  0  0  0
    1.0090   14.5030  -13.9500 H   0  0  0  0  0  0  0  0  0  0  0  0
    0.3980   16.4520  -12.5560 H   0  0  0  0  0  0  0  0  0  0  0  0
   -0.3220   15.3560  -11.3570 H   0  0  0  0  0  0  0  0  0  0  0  0
    1.3910   11.3240  -12.2180 H   0  0  0  0  0  0  0  0  0  0  0  0
    2.0620   11.7940  -13.7870 H   0  0  0  0  0  0  0  0  0  0  0  0
    1.6310    7.4670  -15.9010 H   0  0  0  0  0  0  0  0  0  0  0  0
    2.4000    6.2620  -13.2750 H   0  0  0  0  0  0  0  0  0  0  0  0
    2.4740    7.8330  -12.2920 H   0  0  0  0  0  0  0  0  0  0  0  0
    0.4770    7.2160  -11.1070 H   0  0  0  0  0  0  0  0  0  0  0  0
    1.4150    5.6470  -11.1930 H   0  0  0  0  0  0  0  0  0  0  0  0
   -1.2160    6.0680  -12.1660 H   0  0  0  0  0  0  0  0  0  0  0  0
   -0.0270    4.8040  -12.7810 H   0  0  0  0  0  0  0  0  0  0  0  0
    0.1190    5.9090  -14.7720 H   0  0  0  0  0  0  0  0  0  0  0  0
   -1.1530    7.0320  -14.2160 H   0  0  0  0  0  0  0  0  0  0  0  0
   -1.4310   19.6670   -9.1110 H   0  0  0  0  0  0  0  0  0  0  0  0
   -3.6750   20.5660   -9.1030 H   0  0  0  0  0  0  0  0  0  0  0  0
   -5.1660   20.0430  -11.0090 H   0  0  0  0  0  0  0  0  0  0  0  0
   -4.3210   18.6140  -12.8640 H   0  0  0  0  0  0  0  0  0  0  0  0
  1  4  1  0  0  0  0
  1 24  1  0  0  0  0
  2  1  2  0  0  0  0
  3  1  2  0  0  0  0
  4  5  1  0  0  0  0
  4  9  1  0  0  0  0
  5  6  1  0  0  0  0
  5 32  1  0  0  0  0
  6 33  1  0  0  0  0
  7  8  1  0  0  0  0
  7  6  1  0  0  0  0
  8  9  1  0  0  0  0
  8 35  1  0  0  0  0
  9 38  1  0  0  0  0
 10 12  1  0  0  0  0
 10  7  1  0  0  0  0
 11 10  2  0  0  0  0
 12 39  1  0  0  0  0
 13 22  1  0  0  0  0
 13 12  1  0  0  0  0
 14 13  1  0  0  0  0
 15 14  2  0  0  0  0
 16 14  1  0  0  0  0
 16 17  1  0  0  0  0
 17 22  1  0  0  0  0
 17 18  1  0  0  0  0
 18 43  1  0  0  0  0
 18 19  1  0  0  0  0
 19 45  1  0  0  0  0
 19 44  1  0  0  0  0
 20 46  1  0  0  0  0
 20 19  1  0  0  0  0
 21 17  1  0  0  0  0
 21 20  1  0  0  0  0
 22 23  2  0  0  0  0
 24 29  2  0  0  0  0
 24 25  1  0  0  0  0
 25 30  1  0  0  0  0
 25 26  2  0  0  0  0
 26 50  1  0  0  0  0
 27 26  1  0  0  0  0
 27 51  1  0  0  0  0
 28 27  2  0  0  0  0
 29 28  1  0  0  0  0
 31  5  1  0  0  0  0
 34  6  1  0  0  0  0
 36  8  1  0  0  0  0
 37  9  1  0  0  0  0
 40 12  1  0  0  0  0
 41 16  1  0  0  0  0
 42 18  1  0  0  0  0
 47 20  1  0  0  0  0
 48 21  1  0  0  0  0
 49 21  1  0  0  0  0
 52 28  1  0  0  0  0
 53 29  1  0  0  0  0
M  END
>  <Pose>
1

>  <Score>
-5.70

$$$$
