
 OpenBabel03232203513D

 53 56  0  0  0  0  0  0  0  0999 V2000
   -0.1500   15.8090  -13.1840 S   0  0  0  0  0  0  0  0  0  0  0  0
    0.0410   16.0920  -14.6640 O   0  0  0  0  0  0  0  0  0  0  0  0
    1.2190   15.9370  -12.5640 O   0  0  0  0  0  0  0  0  0  0  0  0
   -0.6810   14.1930  -13.0500 N   0  0  0  0  0  0  0  0  0  0  0  0
   -0.6940   13.4900  -14.3150 C   0  0  0  0  0  0  0  0  0  0  0  0
   -0.1690   12.0840  -14.1640 C   0  0  0  0  0  0  0  0  0  0  0  0
   -0.9240   11.4610  -13.0570 N   0  0  0  0  0  0  0  0  0  0  0  0
   -0.8740   12.1630  -11.8120 C   0  0  0  0  0  0  0  0  0  0  0  0
   -0.0280   13.4370  -12.0390 C   0  0  0  0  0  0  0  0  0  0  0  0
   -1.6310   10.2670  -13.2580 C   0  0  0  0  0  0  0  0  0  0  0  0
   -2.9370   10.4150  -13.3550 O   0  0  0  0  0  0  0  0  0  0  0  0
   -1.2150    8.8930  -13.3810 C   0  0  0  0  0  0  0  0  0  0  0  0
    0.1540    8.5300  -13.1930 N   0  0  0  0  0  0  0  0  0  0  0  0
    0.7500    7.9030  -12.0290 C   0  0  0  0  0  0  0  0  0  0  0  0
    0.0770    7.5780  -11.0110 O   0  0  0  0  0  0  0  0  0  0  0  0
    2.1370    7.7520  -12.2810 N   0  0  0  0  0  0  0  0  0  0  0  0
    2.4750    8.6380  -13.3430 C   0  0  0  0  0  0  0  0  0  0  0  0
    2.9860    9.9770  -12.8680 C   0  0  0  0  0  0  0  0  0  0  0  0
    3.5600   10.5510  -14.1500 C   0  0  0  0  0  0  0  0  0  0  0  0
    3.9870    9.3680  -14.9830 C   0  0  0  0  0  0  0  0  0  0  0  0
    3.6440    8.1390  -14.1750 C   0  0  0  0  0  0  0  0  0  0  0  0
    1.2410    8.7360  -14.1200 C   0  0  0  0  0  0  0  0  0  0  0  0
    1.1080    8.9540  -15.3520 O   0  0  0  0  0  0  0  0  0  0  0  0
   -1.2510   16.9580  -12.4630 C   0  0  0  0  0  0  0  0  0  0  0  0
   -2.4210   17.3450  -13.0850 C   0  0  0  0  0  0  0  0  0  0  0  0
   -3.2910   18.2600  -12.5020 C   0  0  0  0  0  0  0  0  0  0  0  0
   -3.0110   18.8120  -11.2790 C   0  0  0  0  0  0  0  0  0  0  0  0
   -1.8460   18.4330  -10.6470 C   0  0  0  0  0  0  0  0  0  0  0  0
   -0.9820   17.5200  -11.2330 C   0  0  0  0  0  0  0  0  0  0  0  0
   -4.2110   20.0790  -10.4650 B   0  0  0  0  0  0  0  0  0  0  0  0
   -1.7830   13.3820  -14.5900 H   0  0  0  0  0  0  0  0  0  0  0  0
   -0.1450   14.0460  -15.0970 H   0  0  0  0  0  0  0  0  0  0  0  0
    0.9030   12.1140  -13.9870 H   0  0  0  0  0  0  0  0  0  0  0  0
   -0.3720   11.5390  -15.1110 H   0  0  0  0  0  0  0  0  0  0  0  0
   -0.4520   11.6050  -10.9690 H   0  0  0  0  0  0  0  0  0  0  0  0
   -1.9190   12.5210  -11.5690 H   0  0  0  0  0  0  0  0  0  0  0  0
    0.9840   13.0940  -12.2420 H   0  0  0  0  0  0  0  0  0  0  0  0
    0.0000   14.0230  -11.0910 H   0  0  0  0  0  0  0  0  0  0  0  0
   -1.5110    8.4950  -14.4220 H   0  0  0  0  0  0  0  0  0  0  0  0
   -1.8240    8.2080  -12.6980 H   0  0  0  0  0  0  0  0  0  0  0  0
    2.7430    7.0810  -11.7330 H   0  0  0  0  0  0  0  0  0  0  0  0
    3.8340    9.7870  -12.1840 H   0  0  0  0  0  0  0  0  0  0  0  0
    2.2070   10.6050  -12.4310 H   0  0  0  0  0  0  0  0  0  0  0  0
    4.4330   11.2060  -13.9650 H   0  0  0  0  0  0  0  0  0  0  0  0
    2.7320   11.1190  -14.6290 H   0  0  0  0  0  0  0  0  0  0  0  0
    5.0630    9.4110  -15.2450 H   0  0  0  0  0  0  0  0  0  0  0  0
    3.3450    9.3500  -15.8930 H   0  0  0  0  0  0  0  0  0  0  0  0
    4.4540    7.8960  -13.4350 H   0  0  0  0  0  0  0  0  0  0  0  0
    3.3800    7.2740  -14.7920 H   0  0  0  0  0  0  0  0  0  0  0  0
   -2.6450   16.9140  -14.0450 H   0  0  0  0  0  0  0  0  0  0  0  0
   -4.2110   18.5720  -12.9800 H   0  0  0  0  0  0  0  0  0  0  0  0
   -1.6470   18.8840   -9.6760 H   0  0  0  0  0  0  0  0  0  0  0  0
   -0.0640   17.2480  -10.6920 H   0  0  0  0  0  0  0  0  0  0  0  0
  1  4  1  0  0  0  0
  1  3  2  0  0  0  0
  1 24  1  0  0  0  0
  2  1  2  0  0  0  0
  4  9  1  0  0  0  0
  5  6  1  0  0  0  0
  5  4  1  0  0  0  0
  6 33  1  0  0  0  0
  6  7  1  0  0  0  0
  7  8  1  0  0  0  0
  8 36  1  0  0  0  0
  8 35  1  0  0  0  0
  9  8  1  0  0  0  0
  9 38  1  0  0  0  0
 10  7  1  0  0  0  0
 11 10  2  0  0  0  0
 12 10  1  0  0  0  0
 12 13  1  0  0  0  0
 12 40  1  0  0  0  0
 13 14  1  0  0  0  0
 14 15  2  0  0  0  0
 16 14  1  0  0  0  0
 16 41  1  0  0  0  0
 17 18  1  0  0  0  0
 17 16  1  0  0  0  0
 18 43  1  0  0  0  0
 18 42  1  0  0  0  0
 19 44  1  0  0  0  0
 19 18  1  0  0  0  0
 20 21  1  0  0  0  0
 20 19  1  0  0  0  0
 21 48  1  0  0  0  0
 21 17  1  0  0  0  0
 22 17  1  0  0  0  0
 22 13  1  0  0  0  0
 23 22  2  0  0  0  0
 24 29  1  0  0  0  0
 25 26  1  0  0  0  0
 25 24  2  0  0  0  0
 26 27  2  0  0  0  0
 27 28  1  0  0  0  0
 27 30  1  0  0  0  0
 28 52  1  0  0  0  0
 29 53  1  0  0  0  0
 29 28  2  0  0  0  0
 31  5  1  0  0  0  0
 32  5  1  0  0  0  0
 34  6  1  0  0  0  0
 37  9  1  0  0  0  0
 39 12  1  0  0  0  0
 45 19  1  0  0  0  0
 46 20  1  0  0  0  0
 47 20  1  0  0  0  0
 49 21  1  0  0  0  0
 50 25  1  0  0  0  0
 51 26  1  0  0  0  0
M  END
>  <Pose>
1

>  <Score>
-6.35

$$$$
