
 OpenBabel03232203513D

 47 50  0  0  0  0  0  0  0  0999 V2000
    1.9810   14.7270  -12.2770 S   0  0  0  0  0  0  0  0  0  0  0  0
    2.4910   14.2610  -10.9700 O   0  0  0  0  0  0  0  0  0  0  0  0
    3.0720   15.5940  -12.8950 O   0  0  0  0  0  0  0  0  0  0  0  0
    1.6280   13.4910  -13.3750 N   0  0  0  0  0  0  0  0  0  0  0  0
    0.3960   12.8470  -13.2540 C   0  0  0  0  0  0  0  0  0  0  0  0
    0.3040   11.4600  -13.7830 C   0  0  0  0  0  0  0  0  0  0  0  0
    1.5410   10.7470  -13.8090 N   0  0  0  0  0  0  0  0  0  0  0  0
    2.7390   11.4000  -13.3270 C   0  0  0  0  0  0  0  0  0  0  0  0
    2.7170   12.8000  -13.9360 C   0  0  0  0  0  0  0  0  0  0  0  0
    1.6420    9.4190  -14.2900 C   0  0  0  0  0  0  0  0  0  0  0  0
    1.7450    9.1850  -15.5370 O   0  0  0  0  0  0  0  0  0  0  0  0
    1.6360    8.2520  -13.4180 C   0  0  0  0  0  0  0  0  0  0  0  0
    0.4990    7.8320  -12.7530 C   0  0  0  0  0  0  0  0  0  0  0  0
    0.4810    6.7310  -11.9280 C   0  0  0  0  0  0  0  0  0  0  0  0
    1.6610    6.0210  -11.7650 C   0  0  0  0  0  0  0  0  0  0  0  0
    2.8220    6.3930  -12.4020 C   0  0  0  0  0  0  0  0  0  0  0  0
    2.7870    7.5030  -13.2170 C   0  0  0  0  0  0  0  0  0  0  0  0
   -1.0890    8.8570  -13.0250 B   0  0  0  0  0  0  0  0  0  0  0  0
    0.5900   15.7880  -12.0870 C   0  0  0  0  0  0  0  0  0  0  0  0
   -0.3490   15.9310  -13.0870 C   0  0  0  0  0  0  0  0  0  0  0  0
   -1.4500   16.7530  -12.9680 C   0  0  0  0  0  0  0  0  0  0  0  0
   -1.6550   17.4810  -11.8140 C   0  0  0  0  0  0  0  0  0  0  0  0
   -0.7130   17.3400  -10.8060 C   0  0  0  0  0  0  0  0  0  0  0  0
    0.3850   16.5150  -10.9320 C   0  0  0  0  0  0  0  0  0  0  0  0
   -2.7570   18.3210  -11.6640 O   0  0  0  0  0  0  0  0  0  0  0  0
   -3.6120   18.7060  -12.7230 C   0  0  0  0  0  0  0  0  0  0  0  0
   -3.5520   17.7570  -13.8630 C   0  0  0  0  0  0  0  0  0  0  0  0
   -4.5210   17.7570  -14.6640 O   0  0  0  0  0  0  0  0  0  0  0  0
   -2.4200   16.9040  -13.9970 N   0  0  0  0  0  0  0  0  0  0  0  0
   -0.3930   13.4700  -13.7690 H   0  0  0  0  0  0  0  0  0  0  0  0
    0.0890   12.8580  -12.1660 H   0  0  0  0  0  0  0  0  0  0  0  0
   -0.2120   11.4620  -14.7750 H   0  0  0  0  0  0  0  0  0  0  0  0
   -0.3930   10.8720  -13.1160 H   0  0  0  0  0  0  0  0  0  0  0  0
    3.6560   10.8530  -13.6170 H   0  0  0  0  0  0  0  0  0  0  0  0
    2.7100   11.5000  -12.2350 H   0  0  0  0  0  0  0  0  0  0  0  0
    3.6830   13.2550  -13.6940 H   0  0  0  0  0  0  0  0  0  0  0  0
    2.5580   12.6850  -15.0380 H   0  0  0  0  0  0  0  0  0  0  0  0
   -0.4300    6.4070  -11.4040 H   0  0  0  0  0  0  0  0  0  0  0  0
    1.6330    5.1490  -11.1060 H   0  0  0  0  0  0  0  0  0  0  0  0
    3.7370    5.8130  -12.2530 H   0  0  0  0  0  0  0  0  0  0  0  0
    3.6950    7.8010  -13.7200 H   0  0  0  0  0  0  0  0  0  0  0  0
   -0.2020   15.3680  -13.9960 H   0  0  0  0  0  0  0  0  0  0  0  0
   -0.8710   17.9110   -9.8970 H   0  0  0  0  0  0  0  0  0  0  0  0
    1.1150   16.4080  -10.1480 H   0  0  0  0  0  0  0  0  0  0  0  0
   -3.3220   19.7190  -13.1160 H   0  0  0  0  0  0  0  0  0  0  0  0
   -4.6390   18.8160  -12.3230 H   0  0  0  0  0  0  0  0  0  0  0  0
   -2.2800   16.3620  -14.8750 H   0  0  0  0  0  0  0  0  0  0  0  0
  1 19  1  0  0  0  0
  1  2  2  0  0  0  0
  3  1  2  0  0  0  0
  4  5  1  0  0  0  0
  4  1  1  0  0  0  0
  5 31  1  0  0  0  0
  6  5  1  0  0  0  0
  6 33  1  0  0  0  0
  7  6  1  0  0  0  0
  7  8  1  0  0  0  0
  8 35  1  0  0  0  0
  9 36  1  0  0  0  0
  9  4  1  0  0  0  0
  9  8  1  0  0  0  0
 10  7  1  0  0  0  0
 10 12  1  0  0  0  0
 11 10  2  0  0  0  0
 12 17  2  0  0  0  0
 12 13  1  0  0  0  0
 13 14  2  0  0  0  0
 14 15  1  0  0  0  0
 14 38  1  0  0  0  0
 15 39  1  0  0  0  0
 16 40  1  0  0  0  0
 16 15  2  0  0  0  0
 17 16  1  0  0  0  0
 18 13  1  0  0  0  0
 19 24  1  0  0  0  0
 20 21  1  0  0  0  0
 20 19  2  0  0  0  0
 21 22  2  0  0  0  0
 22 25  1  0  0  0  0
 22 23  1  0  0  0  0
 23 43  1  0  0  0  0
 24 23  2  0  0  0  0
 24 44  1  0  0  0  0
 26 46  1  0  0  0  0
 26 25  1  0  0  0  0
 27 26  1  0  0  0  0
 28 27  2  0  0  0  0
 29 27  1  0  0  0  0
 29 21  1  0  0  0  0
 30  5  1  0  0  0  0
 32  6  1  0  0  0  0
 34  8  1  0  0  0  0
 37  9  1  0  0  0  0
 41 17  1  0  0  0  0
 42 20  1  0  0  0  0
 45 26  1  0  0  0  0
 47 29  1  0  0  0  0
M  END
>  <Pose>
1

>  <Score>
-6.01

$$$$
