
 OpenBabel03232203513D

 45 48  0  0  0  0  0  0  0  0999 V2000
   -2.3750   17.3580  -13.5920 S   0  0  0  0  0  0  0  0  0  0  0  0
   -1.4260   18.1440  -14.4320 O   0  0  0  0  0  0  0  0  0  0  0  0
   -3.5250   16.9260  -14.4440 O   0  0  0  0  0  0  0  0  0  0  0  0
   -1.6600   16.0470  -12.8660 N   0  0  0  0  0  0  0  0  0  0  0  0
   -2.4740   15.0850  -12.2420 C   0  0  0  0  0  0  0  0  0  0  0  0
   -1.7030   13.9280  -11.6700 C   0  0  0  0  0  0  0  0  0  0  0  0
   -0.4090   13.7540  -12.2270 N   0  0  0  0  0  0  0  0  0  0  0  0
    0.3760   14.9280  -12.0880 C   0  0  0  0  0  0  0  0  0  0  0  0
   -0.3300   16.1930  -12.4110 C   0  0  0  0  0  0  0  0  0  0  0  0
   -0.4520   13.1300  -13.4960 C   0  0  0  0  0  0  0  0  0  0  0  0
   -0.8370   11.7600  -13.5320 N   0  0  0  0  0  0  0  0  0  0  0  0
   -2.1040   11.4190  -13.6580 N   0  0  0  0  0  0  0  0  0  0  0  0
   -2.5510   10.1540  -13.6940 C   0  0  0  0  0  0  0  0  0  0  0  0
   -1.6060    9.1610  -13.5930 C   0  0  0  0  0  0  0  0  0  0  0  0
   -0.2650    9.4520  -13.4590 C   0  0  0  0  0  0  0  0  0  0  0  0
    0.0900   10.7940  -13.4330 C   0  0  0  0  0  0  0  0  0  0  0  0
    1.3360   11.0610  -13.3100 O   0  0  0  0  0  0  0  0  0  0  0  0
   -3.9360    9.8160  -13.8310 N   0  0  0  0  0  0  0  0  0  0  0  0
   -4.6090    9.4860  -14.9380 C   0  0  0  0  0  0  0  0  0  0  0  0
   -5.8900    9.2460  -14.6060 N   0  0  0  0  0  0  0  0  0  0  0  0
   -6.0450    9.4220  -13.2820 C   0  0  0  0  0  0  0  0  0  0  0  0
   -4.8020    9.7810  -12.8060 C   0  0  0  0  0  0  0  0  0  0  0  0
   -2.9960   18.4520  -12.3380 C   0  0  0  0  0  0  0  0  0  0  0  0
   -4.5190   19.2090  -12.2290 S   0  0  0  0  0  0  0  0  0  0  0  0
   -4.2970   20.0570  -10.7680 C   0  0  0  0  0  0  0  0  0  0  0  0
   -3.0180   19.7210  -10.4000 C   0  0  0  0  0  0  0  0  0  0  0  0
   -2.3510   18.8910  -11.2170 C   0  0  0  0  0  0  0  0  0  0  0  0
   -5.5170   21.2070   -9.8420 B   0  0  0  0  0  0  0  0  0  0  0  0
   -3.0910   15.5750  -11.4570 H   0  0  0  0  0  0  0  0  0  0  0  0
   -3.2010   14.6720  -12.9820 H   0  0  0  0  0  0  0  0  0  0  0  0
   -2.2750   12.9870  -11.7770 H   0  0  0  0  0  0  0  0  0  0  0  0
   -1.5890   14.0970  -10.5750 H   0  0  0  0  0  0  0  0  0  0  0  0
    1.3810   14.8430  -12.5950 H   0  0  0  0  0  0  0  0  0  0  0  0
    0.6660   14.9810  -10.9940 H   0  0  0  0  0  0  0  0  0  0  0  0
    0.2630   16.7310  -13.1980 H   0  0  0  0  0  0  0  0  0  0  0  0
   -0.3400   16.9080  -11.5460 H   0  0  0  0  0  0  0  0  0  0  0  0
   -1.2200   13.6920  -14.1080 H   0  0  0  0  0  0  0  0  0  0  0  0
    0.4990   13.2850  -14.0800 H   0  0  0  0  0  0  0  0  0  0  0  0
   -1.9240    8.1260  -13.6180 H   0  0  0  0  0  0  0  0  0  0  0  0
    0.4860    8.6820  -13.3790 H   0  0  0  0  0  0  0  0  0  0  0  0
   -4.1770    9.4260  -15.9370 H   0  0  0  0  0  0  0  0  0  0  0  0
   -6.9770    9.2990  -12.7100 H   0  0  0  0  0  0  0  0  0  0  0  0
   -4.5910    9.9940  -11.7740 H   0  0  0  0  0  0  0  0  0  0  0  0
   -2.5960   20.1450   -9.4540 H   0  0  0  0  0  0  0  0  0  0  0  0
   -1.3080   18.5730  -10.9830 H   0  0  0  0  0  0  0  0  0  0  0  0
  1  4  1  0  0  0  0
  1 23  1  0  0  0  0
  2  1  2  0  0  0  0
  3  1  2  0  0  0  0
  4  9  1  0  0  0  0
  4  5  1  0  0  0  0
  5  6  1  0  0  0  0
  5 29  1  0  0  0  0
  6 32  1  0  0  0  0
  7  8  1  0  0  0  0
  7  6  1  0  0  0  0
  8 34  1  0  0  0  0
  9  8  1  0  0  0  0
  9 36  1  0  0  0  0
 10  7  1  0  0  0  0
 11 10  1  0  0  0  0
 11 16  1  0  0  0  0
 12 11  1  0  0  0  0
 13 12  2  0  0  0  0
 13 14  1  0  0  0  0
 14 15  2  0  0  0  0
 15 16  1  0  0  0  0
 15 40  1  0  0  0  0
 16 17  2  0  0  0  0
 18 13  1  0  0  0  0
 18 22  1  0  0  0  0
 19 20  2  0  0  0  0
 19 18  1  0  0  0  0
 20 21  1  0  0  0  0
 21 22  2  0  0  0  0
 21 42  1  0  0  0  0
 22 43  1  0  0  0  0
 23 24  1  0  0  0  0
 23 27  2  0  0  0  0
 24 25  1  0  0  0  0
 25 26  2  0  0  0  0
 25 28  1  0  0  0  0
 26 44  1  0  0  0  0
 27 45  1  0  0  0  0
 27 26  1  0  0  0  0
 30  5  1  0  0  0  0
 31  6  1  0  0  0  0
 33  8  1  0  0  0  0
 35  9  1  0  0  0  0
 37 10  1  0  0  0  0
 38 10  1  0  0  0  0
 39 14  1  0  0  0  0
 41 19  1  0  0  0  0
M  END
>  <Pose>
1

>  <Score>
-7.29

$$$$
