
 OpenBabel03232203513D

 52 55  0  0  0  0  0  0  0  0999 V2000
    2.9170   12.1130  -12.0900 S   0  0  0  0  0  0  0  0  0  0  0  0
    2.8640   11.9090  -10.5980 O   0  0  0  0  0  0  0  0  0  0  0  0
    4.3630   12.3870  -12.4300 O   0  0  0  0  0  0  0  0  0  0  0  0
    2.0130   13.4800  -12.5840 N   0  0  0  0  0  0  0  0  0  0  0  0
    2.7020   14.7210  -12.4270 C   0  0  0  0  0  0  0  0  0  0  0  0
    1.6350   15.8180  -12.5930 C   0  0  0  0  0  0  0  0  0  0  0  0
    0.6210   15.4230  -13.4700 N   0  0  0  0  0  0  0  0  0  0  0  0
    1.0060   14.5320  -14.5300 C   0  0  0  0  0  0  0  0  0  0  0  0
    1.7930   13.3390  -14.0350 C   0  0  0  0  0  0  0  0  0  0  0  0
   -0.7100   15.3130  -13.0410 C   0  0  0  0  0  0  0  0  0  0  0  0
   -1.4160   16.5040  -12.6930 N   0  0  0  0  0  0  0  0  0  0  0  0
   -1.2190   17.1300  -11.4360 N   0  0  0  0  0  0  0  0  0  0  0  0
   -2.0610   18.2800  -11.4410 C   0  0  0  0  0  0  0  0  0  0  0  0
   -2.1420   19.1200  -10.4170 C   0  0  0  0  0  0  0  0  0  0  0  0
   -2.9100   20.3590  -10.1560 C   0  0  0  0  0  0  0  0  0  0  0  0
   -4.1960   20.3740  -10.9470 C   0  0  0  0  0  0  0  0  0  0  0  0
   -3.7980   20.6100  -12.3930 C   0  0  0  0  0  0  0  0  0  0  0  0
   -3.7260   19.3290  -13.1670 C   0  0  0  0  0  0  0  0  0  0  0  0
   -2.7740   18.3860  -12.6630 N   0  0  0  0  0  0  0  0  0  0  0  0
   -2.3580   17.2640  -13.4350 C   0  0  0  0  0  0  0  0  0  0  0  0
   -2.7850   17.0230  -14.5910 O   0  0  0  0  0  0  0  0  0  0  0  0
    2.4550   10.6510  -12.8730 C   0  0  0  0  0  0  0  0  0  0  0  0
    1.7130    9.6460  -12.3280 C   0  0  0  0  0  0  0  0  0  0  0  0
    1.3950    8.5040  -13.0490 C   0  0  0  0  0  0  0  0  0  0  0  0
    1.8120    8.3380  -14.3360 C   0  0  0  0  0  0  0  0  0  0  0  0
    2.5690    9.3430  -14.9180 C   0  0  0  0  0  0  0  0  0  0  0  0
    2.8780   10.4670  -14.1940 C   0  0  0  0  0  0  0  0  0  0  0  0
    0.3470    7.1010  -12.2590 B   0  0  0  0  0  0  0  0  0  0  0  0
    3.2470   14.8300  -11.4760 H   0  0  0  0  0  0  0  0  0  0  0  0
    3.4410   14.8900  -13.2560 H   0  0  0  0  0  0  0  0  0  0  0  0
    1.2450   15.9860  -11.5760 H   0  0  0  0  0  0  0  0  0  0  0  0
    2.1300   16.7750  -12.8900 H   0  0  0  0  0  0  0  0  0  0  0  0
    0.0790   14.1380  -14.9940 H   0  0  0  0  0  0  0  0  0  0  0  0
    1.5360   15.1120  -15.3050 H   0  0  0  0  0  0  0  0  0  0  0  0
    2.8030   13.4050  -14.4920 H   0  0  0  0  0  0  0  0  0  0  0  0
    1.3610   12.3770  -14.2990 H   0  0  0  0  0  0  0  0  0  0  0  0
   -0.7580   14.5660  -12.2110 H   0  0  0  0  0  0  0  0  0  0  0  0
   -1.2930   14.8130  -13.8730 H   0  0  0  0  0  0  0  0  0  0  0  0
   -0.5870   16.8130  -10.6630 H   0  0  0  0  0  0  0  0  0  0  0  0
   -1.4850   18.8080   -9.5910 H   0  0  0  0  0  0  0  0  0  0  0  0
   -2.2960   21.2650  -10.3380 H   0  0  0  0  0  0  0  0  0  0  0  0
   -3.1940   20.3310   -9.0660 H   0  0  0  0  0  0  0  0  0  0  0  0
   -4.8710   21.1580  -10.5670 H   0  0  0  0  0  0  0  0  0  0  0  0
   -4.6310   19.3540  -10.8960 H   0  0  0  0  0  0  0  0  0  0  0  0
   -4.5580   21.2880  -12.8290 H   0  0  0  0  0  0  0  0  0  0  0  0
   -2.8220   21.1230  -12.4510 H   0  0  0  0  0  0  0  0  0  0  0  0
   -4.7430   18.8700  -13.1340 H   0  0  0  0  0  0  0  0  0  0  0  0
   -3.5120   19.5860  -14.2300 H   0  0  0  0  0  0  0  0  0  0  0  0
    1.3760    9.7670  -11.3080 H   0  0  0  0  0  0  0  0  0  0  0  0
    1.5600    7.4390  -14.8970 H   0  0  0  0  0  0  0  0  0  0  0  0
    2.9060    9.2220  -15.9370 H   0  0  0  0  0  0  0  0  0  0  0  0
    3.4720   11.2330  -14.6810 H   0  0  0  0  0  0  0  0  0  0  0  0
  1  2  2  0  0  0  0
  3  1  2  0  0  0  0
  4  5  1  0  0  0  0
  4  1  1  0  0  0  0
  5 29  1  0  0  0  0
  6  5  1  0  0  0  0
  6 31  1  0  0  0  0
  7 10  1  0  0  0  0
  7  6  1  0  0  0  0
  8  9  1  0  0  0  0
  8  7  1  0  0  0  0
  9  4  1  0  0  0  0
 10 11  1  0  0  0  0
 10 37  1  0  0  0  0
 11 12  1  0  0  0  0
 12 39  1  0  0  0  0
 13 12  1  0  0  0  0
 13 14  2  0  0  0  0
 14 15  1  0  0  0  0
 14 40  1  0  0  0  0
 15 42  1  0  0  0  0
 16 44  1  0  0  0  0
 16 43  1  0  0  0  0
 16 15  1  0  0  0  0
 17 16  1  0  0  0  0
 18 47  1  0  0  0  0
 18 19  1  0  0  0  0
 18 17  1  0  0  0  0
 19 13  1  0  0  0  0
 20 11  1  0  0  0  0
 20 19  1  0  0  0  0
 21 20  2  0  0  0  0
 22 23  1  0  0  0  0
 22  1  1  0  0  0  0
 23 49  1  0  0  0  0
 24 23  2  0  0  0  0
 24 28  1  0  0  0  0
 25 24  1  0  0  0  0
 26 25  2  0  0  0  0
 26 27  1  0  0  0  0
 27 22  2  0  0  0  0
 30  5  1  0  0  0  0
 32  6  1  0  0  0  0
 33  8  1  0  0  0  0
 34  8  1  0  0  0  0
 35  9  1  0  0  0  0
 36  9  1  0  0  0  0
 38 10  1  0  0  0  0
 41 15  1  0  0  0  0
 45 17  1  0  0  0  0
 46 17  1  0  0  0  0
 48 18  1  0  0  0  0
 50 25  1  0  0  0  0
 51 26  1  0  0  0  0
 52 27  1  0  0  0  0
M  END
>  <Pose>
1

>  <Score>
-6.30

$$$$
