
 OpenBabel03232203513D

 53 56  0  0  0  0  0  0  0  0999 V2000
    1.2060   15.2530  -12.1670 S   0  0  0  0  0  0  0  0  0  0  0  0
    1.6300   15.2950  -10.7080 O   0  0  0  0  0  0  0  0  0  0  0  0
    2.3560   15.7440  -12.9970 O   0  0  0  0  0  0  0  0  0  0  0  0
    0.8800   13.6040  -12.5730 N   0  0  0  0  0  0  0  0  0  0  0  0
    2.0130   12.8240  -12.2040 C   0  0  0  0  0  0  0  0  0  0  0  0
    2.2310   11.6180  -13.0930 C   0  0  0  0  0  0  0  0  0  0  0  0
    0.9570   11.2460  -13.6360 N   0  0  0  0  0  0  0  0  0  0  0  0
    0.2720   12.1770  -14.4830 C   0  0  0  0  0  0  0  0  0  0  0  0
    0.5690   13.5690  -13.9830 C   0  0  0  0  0  0  0  0  0  0  0  0
    0.4020    9.9900  -13.3360 C   0  0  0  0  0  0  0  0  0  0  0  0
   -0.8550    9.6530  -13.6720 N   0  0  0  0  0  0  0  0  0  0  0  0
   -1.4320    8.4930  -13.4180 C   0  0  0  0  0  0  0  0  0  0  0  0
   -0.6840    7.5360  -12.7530 C   0  0  0  0  0  0  0  0  0  0  0  0
    0.6100    7.8340  -12.3890 C   0  0  0  0  0  0  0  0  0  0  0  0
    1.1200    9.0420  -12.6860 N   0  0  0  0  0  0  0  0  0  0  0  0
    1.4460    6.8330  -11.6720 C   0  0  0  0  0  0  0  0  0  0  0  0
   -2.7680    8.2620  -13.8250 N   0  0  0  0  0  0  0  0  0  0  0  0
   -3.8370    9.2230  -13.6490 C   0  0  0  0  0  0  0  0  0  0  0  0
   -4.9010    8.8750  -14.6890 C   0  0  0  0  0  0  0  0  0  0  0  0
   -4.2270    8.5780  -15.8760 O   0  0  0  0  0  0  0  0  0  0  0  0
   -3.6070    7.3500  -15.8580 C   0  0  0  0  0  0  0  0  0  0  0  0
   -3.1010    7.0040  -14.4530 C   0  0  0  0  0  0  0  0  0  0  0  0
   -0.2060   16.2510  -12.3650 C   0  0  0  0  0  0  0  0  0  0  0  0
   -0.8940   16.1990  -13.5690 C   0  0  0  0  0  0  0  0  0  0  0  0
   -2.0190   16.9610  -13.7970 C   0  0  0  0  0  0  0  0  0  0  0  0
   -2.4830   17.8000  -12.8140 C   0  0  0  0  0  0  0  0  0  0  0  0
   -1.8250   17.8810  -11.6010 C   0  0  0  0  0  0  0  0  0  0  0  0
   -0.6920   17.0970  -11.4020 C   0  0  0  0  0  0  0  0  0  0  0  0
   -4.0410   18.8470  -13.1460 B   0  0  0  0  0  0  0  0  0  0  0  0
    2.9590   13.3840  -12.1180 H   0  0  0  0  0  0  0  0  0  0  0  0
    1.8200   12.4090  -11.1740 H   0  0  0  0  0  0  0  0  0  0  0  0
    2.7470   10.7980  -12.5760 H   0  0  0  0  0  0  0  0  0  0  0  0
    2.9280   11.9570  -13.9110 H   0  0  0  0  0  0  0  0  0  0  0  0
   -0.8210   11.9740  -14.5120 H   0  0  0  0  0  0  0  0  0  0  0  0
    0.6180   12.1380  -15.5450 H   0  0  0  0  0  0  0  0  0  0  0  0
   -0.3490   14.1760  -14.1310 H   0  0  0  0  0  0  0  0  0  0  0  0
    1.3760   14.0720  -14.5600 H   0  0  0  0  0  0  0  0  0  0  0  0
   -1.1440    6.5880  -12.5430 H   0  0  0  0  0  0  0  0  0  0  0  0
    2.2460    6.4300  -12.3460 H   0  0  0  0  0  0  0  0  0  0  0  0
    1.9680    7.3490  -10.8440 H   0  0  0  0  0  0  0  0  0  0  0  0
    0.8280    6.0370  -11.2210 H   0  0  0  0  0  0  0  0  0  0  0  0
   -4.3020    9.1730  -12.6460 H   0  0  0  0  0  0  0  0  0  0  0  0
   -3.4830   10.2610  -13.8800 H   0  0  0  0  0  0  0  0  0  0  0  0
   -5.5800    9.7120  -14.8520 H   0  0  0  0  0  0  0  0  0  0  0  0
   -5.4740    7.9940  -14.3520 H   0  0  0  0  0  0  0  0  0  0  0  0
   -2.6900    7.3650  -16.5180 H   0  0  0  0  0  0  0  0  0  0  0  0
   -4.2620    6.5530  -16.2310 H   0  0  0  0  0  0  0  0  0  0  0  0
   -3.9080    6.4760  -13.8910 H   0  0  0  0  0  0  0  0  0  0  0  0
   -2.2250    6.3330  -14.5070 H   0  0  0  0  0  0  0  0  0  0  0  0
   -0.5230   15.5340  -14.3430 H   0  0  0  0  0  0  0  0  0  0  0  0
   -2.5520   16.9150  -14.7390 H   0  0  0  0  0  0  0  0  0  0  0  0
   -2.1860   18.5410  -10.8200 H   0  0  0  0  0  0  0  0  0  0  0  0
   -0.1630   17.1510  -10.4520 H   0  0  0  0  0  0  0  0  0  0  0  0
  1  2  2  0  0  0  0
  3  1  2  0  0  0  0
  4  5  1  0  0  0  0
  4  1  1  0  0  0  0
  5 30  1  0  0  0  0
  5 31  1  0  0  0  0
  6 32  1  0  0  0  0
  6  5  1  0  0  0  0
  7 10  1  0  0  0  0
  7  6  1  0  0  0  0
  8  9  1  0  0  0  0
  8  7  1  0  0  0  0
  9  4  1  0  0  0  0
 10 15  1  0  0  0  0
 11 12  1  0  0  0  0
 11 10  2  0  0  0  0
 12 13  2  0  0  0  0
 13 38  1  0  0  0  0
 13 14  1  0  0  0  0
 14 16  1  0  0  0  0
 15 14  2  0  0  0  0
 16 41  1  0  0  0  0
 16 40  1  0  0  0  0
 17 18  1  0  0  0  0
 17 12  1  0  0  0  0
 18 42  1  0  0  0  0
 19 45  1  0  0  0  0
 19 18  1  0  0  0  0
 20 21  1  0  0  0  0
 20 19  1  0  0  0  0
 21 22  1  0  0  0  0
 22 48  1  0  0  0  0
 22 17  1  0  0  0  0
 23  1  1  0  0  0  0
 23 28  1  0  0  0  0
 24 23  2  0  0  0  0
 25 24  1  0  0  0  0
 25 26  2  0  0  0  0
 26 27  1  0  0  0  0
 27 28  2  0  0  0  0
 27 52  1  0  0  0  0
 28 53  1  0  0  0  0
 29 26  1  0  0  0  0
 33  6  1  0  0  0  0
 34  8  1  0  0  0  0
 35  8  1  0  0  0  0
 36  9  1  0  0  0  0
 37  9  1  0  0  0  0
 39 16  1  0  0  0  0
 43 18  1  0  0  0  0
 44 19  1  0  0  0  0
 46 21  1  0  0  0  0
 47 21  1  0  0  0  0
 49 22  1  0  0  0  0
 50 24  1  0  0  0  0
 51 25  1  0  0  0  0
M  END
>  <Pose>
1

>  <Score>
-7.07

$$$$
