
 OpenBabel03232203513D

 37 40  0  0  0  0  0  0  0  0999 V2000
    3.0540    8.5210  -14.0530 S   0  0  0  0  0  0  0  0  0  0  0  0
    3.8330    9.7260  -14.5680 O   0  0  0  0  0  0  0  0  0  0  0  0
    2.2300    8.0380  -15.1900 O   0  0  0  0  0  0  0  0  0  0  0  0
    2.1540    8.9960  -12.7280 N   0  0  0  0  0  0  0  0  0  0  0  0
    1.6220    8.0140  -11.8650 C   0  0  0  0  0  0  0  0  0  0  0  0
    0.1640    7.6790  -12.0620 C   0  0  0  0  0  0  0  0  0  0  0  0
   -0.4660    8.4900  -13.0560 N   0  0  0  0  0  0  0  0  0  0  0  0
   -0.0400    9.8430  -13.3690 C   0  0  0  0  0  0  0  0  0  0  0  0
    1.3310   10.1370  -12.8330 C   0  0  0  0  0  0  0  0  0  0  0  0
   -1.5650    7.9790  -13.7970 C   0  0  0  0  0  0  0  0  0  0  0  0
   -1.4260    6.8060  -14.4840 N   0  0  0  0  0  0  0  0  0  0  0  0
   -2.4470    6.3040  -15.1790 C   0  0  0  0  0  0  0  0  0  0  0  0
   -3.6320    6.9100  -15.2360 N   0  0  0  0  0  0  0  0  0  0  0  0
   -3.7880    8.0540  -14.5740 C   0  0  0  0  0  0  0  0  0  0  0  0
   -4.8390    8.8710  -14.4540 N   0  0  0  0  0  0  0  0  0  0  0  0
   -4.4810    9.9210  -13.6650 C   0  0  0  0  0  0  0  0  0  0  0  0
   -3.2120    9.7790  -13.2810 N   0  0  0  0  0  0  0  0  0  0  0  0
   -2.7640    8.6390  -13.8260 C   0  0  0  0  0  0  0  0  0  0  0  0
    4.2780    7.2930  -13.7170 C   0  0  0  0  0  0  0  0  0  0  0  0
    5.9770    7.4130  -13.7810 S   0  0  0  0  0  0  0  0  0  0  0  0
    6.3880    5.8250  -13.3260 C   0  0  0  0  0  0  0  0  0  0  0  0
    5.1630    5.2330  -13.1320 C   0  0  0  0  0  0  0  0  0  0  0  0
    4.0820    5.9950  -13.3350 C   0  0  0  0  0  0  0  0  0  0  0  0
    8.1160    5.0360  -13.1260 B   0  0  0  0  0  0  0  0  0  0  0  0
    2.2190    7.0720  -11.8170 H   0  0  0  0  0  0  0  0  0  0  0  0
    1.7190    8.4310  -10.8160 H   0  0  0  0  0  0  0  0  0  0  0  0
   -0.3390    7.6690  -11.0750 H   0  0  0  0  0  0  0  0  0  0  0  0
    0.1030    6.6040  -12.3970 H   0  0  0  0  0  0  0  0  0  0  0  0
   -0.0290    9.9980  -14.4640 H   0  0  0  0  0  0  0  0  0  0  0  0
   -0.7890   10.5430  -12.9410 H   0  0  0  0  0  0  0  0  0  0  0  0
    1.8420   10.9020  -13.4490 H   0  0  0  0  0  0  0  0  0  0  0  0
    1.1980   10.5680  -11.8010 H   0  0  0  0  0  0  0  0  0  0  0  0
   -2.3440    5.3720  -15.7270 H   0  0  0  0  0  0  0  0  0  0  0  0
   -5.1550   10.7230  -13.4130 H   0  0  0  0  0  0  0  0  0  0  0  0
   -2.6930   10.4420  -12.6760 H   0  0  0  0  0  0  0  0  0  0  0  0
    5.1210    4.1620  -12.8180 H   0  0  0  0  0  0  0  0  0  0  0  0
    3.0510    5.6010  -13.2010 H   0  0  0  0  0  0  0  0  0  0  0  0
  1 19  1  0  0  0  0
  1  4  1  0  0  0  0
  2  1  2  0  0  0  0
  3  1  2  0  0  0  0
  4  5  1  0  0  0  0
  5 25  1  0  0  0  0
  5 26  1  0  0  0  0
  6  5  1  0  0  0  0
  6 27  1  0  0  0  0
  7  6  1  0  0  0  0
  8  7  1  0  0  0  0
  8 30  1  0  0  0  0
  8  9  1  0  0  0  0
  9  4  1  0  0  0  0
  9 32  1  0  0  0  0
 10  7  1  0  0  0  0
 11 10  1  0  0  0  0
 12 11  2  0  0  0  0
 13 12  1  0  0  0  0
 13 14  2  0  0  0  0
 14 15  1  0  0  0  0
 14 18  1  0  0  0  0
 15 16  2  0  0  0  0
 16 34  1  0  0  0  0
 16 17  1  0  0  0  0
 17 35  1  0  0  0  0
 18 10  2  0  0  0  0
 18 17  1  0  0  0  0
 19 23  2  0  0  0  0
 20 19  1  0  0  0  0
 20 21  1  0  0  0  0
 21 22  2  0  0  0  0
 21 24  1  0  0  0  0
 22 36  1  0  0  0  0
 23 37  1  0  0  0  0
 23 22  1  0  0  0  0
 28  6  1  0  0  0  0
 29  8  1  0  0  0  0
 31  9  1  0  0  0  0
 33 12  1  0  0  0  0
M  END
>  <Pose>
1

>  <Score>
-6.72

$$$$
