
 OpenBabel03232203513D

 43 46  0  0  0  0  0  0  0  0999 V2000
   -0.4310   12.4210  -13.7010 S   0  0  0  0  0  0  0  0  0  0  0  0
   -0.8500   12.4830  -15.1650 O   0  0  0  0  0  0  0  0  0  0  0  0
   -1.7000   12.4740  -12.9030 O   0  0  0  0  0  0  0  0  0  0  0  0
    0.5360   13.7860  -13.3910 N   0  0  0  0  0  0  0  0  0  0  0  0
    0.5020   14.7980  -14.3790 C   0  0  0  0  0  0  0  0  0  0  0  0
   -0.4490   15.9170  -14.1410 C   0  0  0  0  0  0  0  0  0  0  0  0
   -0.4400   16.3400  -12.7310 N   0  0  0  0  0  0  0  0  0  0  0  0
    0.6160   15.7550  -11.9330 C   0  0  0  0  0  0  0  0  0  0  0  0
    0.4480   14.2510  -12.0350 C   0  0  0  0  0  0  0  0  0  0  0  0
   -1.4050   17.2500  -12.2410 C   0  0  0  0  0  0  0  0  0  0  0  0
   -2.4730   17.5970  -13.0600 C   0  0  0  0  0  0  0  0  0  0  0  0
   -3.4170   18.4940  -12.5660 C   0  0  0  0  0  0  0  0  0  0  0  0
   -3.3160   19.0120  -11.3490 N   0  0  0  0  0  0  0  0  0  0  0  0
   -4.3650   19.8300  -11.1680 C   0  0  0  0  0  0  0  0  0  0  0  0
   -5.1010   19.7970  -12.2960 N   0  0  0  0  0  0  0  0  0  0  0  0
   -4.5230   18.9780  -13.1580 N   0  0  0  0  0  0  0  0  0  0  0  0
   -4.6690   20.6350   -9.9410 C   0  0  0  0  0  0  0  0  0  0  0  0
   -2.3200   18.6950  -10.5700 N   0  0  0  0  0  0  0  0  0  0  0  0
   -1.3700   17.8250  -11.0030 C   0  0  0  0  0  0  0  0  0  0  0  0
    0.4150   10.9110  -13.4950 C   0  0  0  0  0  0  0  0  0  0  0  0
    1.7960   10.8260  -13.6080 C   0  0  0  0  0  0  0  0  0  0  0  0
    2.4640    9.6330  -13.4460 C   0  0  0  0  0  0  0  0  0  0  0  0
    1.7300    8.4930  -13.1620 C   0  0  0  0  0  0  0  0  0  0  0  0
    0.3540    8.5260  -13.0380 C   0  0  0  0  0  0  0  0  0  0  0  0
   -0.2730    9.7380  -13.2090 C   0  0  0  0  0  0  0  0  0  0  0  0
    2.6740    6.8410  -12.9390 B   0  0  0  0  0  0  0  0  0  0  0  0
    1.5430   15.2240  -14.4820 H   0  0  0  0  0  0  0  0  0  0  0  0
    0.2880   14.3340  -15.3600 H   0  0  0  0  0  0  0  0  0  0  0  0
   -0.1130   16.8030  -14.7240 H   0  0  0  0  0  0  0  0  0  0  0  0
   -1.4710   15.6760  -14.4800 H   0  0  0  0  0  0  0  0  0  0  0  0
    0.5980   16.0170  -10.8780 H   0  0  0  0  0  0  0  0  0  0  0  0
    1.6110   15.9860  -12.4140 H   0  0  0  0  0  0  0  0  0  0  0  0
    1.1680   13.7090  -11.3900 H   0  0  0  0  0  0  0  0  0  0  0  0
   -0.5670   14.0120  -11.6550 H   0  0  0  0  0  0  0  0  0  0  0  0
   -2.6030   17.2060  -14.0570 H   0  0  0  0  0  0  0  0  0  0  0  0
   -3.7420   20.7630   -9.3330 H   0  0  0  0  0  0  0  0  0  0  0  0
   -5.0080   21.6300  -10.2320 H   0  0  0  0  0  0  0  0  0  0  0  0
   -5.4380   20.1380   -9.3180 H   0  0  0  0  0  0  0  0  0  0  0  0
   -0.5840   17.6030  -10.3280 H   0  0  0  0  0  0  0  0  0  0  0  0
    2.3340   11.7480  -13.8330 H   0  0  0  0  0  0  0  0  0  0  0  0
    3.5340    9.6390  -13.5470 H   0  0  0  0  0  0  0  0  0  0  0  0
   -0.1600    7.6010  -12.8160 H   0  0  0  0  0  0  0  0  0  0  0  0
   -1.3350    9.7710  -13.1160 H   0  0  0  0  0  0  0  0  0  0  0  0
  1 20  1  0  0  0  0
  1  4  1  0  0  0  0
  1  3  2  0  0  0  0
  2  1  2  0  0  0  0
  4  9  1  0  0  0  0
  5  6  1  0  0  0  0
  5  4  1  0  0  0  0
  6  7  1  0  0  0  0
  7 10  1  0  0  0  0
  7  8  1  0  0  0  0
  8 31  1  0  0  0  0
  9  8  1  0  0  0  0
  9 34  1  0  0  0  0
  9 33  1  0  0  0  0
 10 19  1  0  0  0  0
 11 12  1  0  0  0  0
 11 10  2  0  0  0  0
 12 13  1  0  0  0  0
 13 14  1  0  0  0  0
 13 18  1  0  0  0  0
 14 17  1  0  0  0  0
 15 14  2  0  0  0  0
 16 12  2  0  0  0  0
 16 15  1  0  0  0  0
 17 36  1  0  0  0  0
 17 38  1  0  0  0  0
 19 18  2  0  0  0  0
 19 39  1  0  0  0  0
 20 25  1  0  0  0  0
 21 20  2  0  0  0  0
 21 22  1  0  0  0  0
 22 23  2  0  0  0  0
 23 24  1  0  0  0  0
 23 26  1  0  0  0  0
 24 42  1  0  0  0  0
 25 43  1  0  0  0  0
 25 24  2  0  0  0  0
 27  5  1  0  0  0  0
 28  5  1  0  0  0  0
 29  6  1  0  0  0  0
 30  6  1  0  0  0  0
 32  8  1  0  0  0  0
 35 11  1  0  0  0  0
 37 17  1  0  0  0  0
 40 21  1  0  0  0  0
 41 22  1  0  0  0  0
M  END
>  <Pose>
1

>  <Score>
-6.44

$$$$
