
 OpenBabel03232203513D

 57 60  0  0  1  0  0  0  0  0999 V2000
   -0.3270   16.1470  -12.9620 S   0  0  0  0  0  0  0  0  0  0  0  0
   -0.4840   16.0540  -14.4470 O   0  0  0  0  0  0  0  0  0  0  0  0
    1.0360   16.7850  -12.7210 O   0  0  0  0  0  0  0  0  0  0  0  0
   -0.4450   14.6580  -12.1540 N   0  0  0  0  0  0  0  0  0  0  0  0
   -0.5790   14.8720  -10.7520 C   0  0  0  0  0  0  0  0  0  0  0  0
    0.4980   14.2300   -9.9080 C   0  0  0  0  0  0  0  0  0  0  0  0
    1.8230   14.4710  -10.4860 N   0  0  0  0  0  0  0  0  0  0  0  0
    1.8750   14.2160  -11.9080 C   0  0  0  0  0  0  0  0  0  0  0  0
    2.8920   14.4030  -12.5790 O   0  0  0  0  0  0  0  0  0  0  0  0
    0.5670   13.7100  -12.4430 C   0  0  2  0  0  0  0  0  0  0  0  0
    0.6680   13.2120  -13.8300 C   0  0  0  0  0  0  0  0  0  0  0  0
    0.1730   11.8160  -13.8940 C   0  0  0  0  0  0  0  0  0  0  0  0
   -1.0630   11.6640  -14.0860 O   0  0  0  0  0  0  0  0  0  0  0  0
    1.0470   10.6960  -13.7450 N   0  0  0  0  0  0  0  0  0  0  0  0
    2.3940   10.7390  -14.2470 C   0  0  0  0  0  0  0  0  0  0  0  0
    3.3620    9.8990  -13.4740 C   0  0  0  0  0  0  0  0  0  0  0  0
    2.7730    8.7090  -12.8840 N   0  0  0  0  0  0  0  0  0  0  0  0
    1.5710    8.9590  -12.1020 C   0  0  0  0  0  0  0  0  0  0  0  0
    0.5600    9.5150  -13.0820 C   0  0  0  0  0  0  0  0  0  0  0  0
    3.2760    7.4070  -13.0040 C   0  0  0  0  0  0  0  0  0  0  0  0
    4.4770    7.2020  -13.6450 C   0  0  0  0  0  0  0  0  0  0  0  0
    4.9650    5.9100  -13.7750 C   0  0  0  0  0  0  0  0  0  0  0  0
    4.2990    4.8130  -13.2890 C   0  0  0  0  0  0  0  0  0  0  0  0
    3.1000    5.0230  -12.6490 C   0  0  0  0  0  0  0  0  0  0  0  0
    2.6050    6.3120  -12.5160 C   0  0  0  0  0  0  0  0  0  0  0  0
   -1.5000   17.3060  -12.3610 C   0  0  0  0  0  0  0  0  0  0  0  0
   -1.4190   17.8570  -11.0880 C   0  0  0  0  0  0  0  0  0  0  0  0
   -2.3220   18.7570  -10.5970 C   0  0  0  0  0  0  0  0  0  0  0  0
   -3.3780   19.1640  -11.3710 C   0  0  0  0  0  0  0  0  0  0  0  0
   -3.4920   18.6290  -12.6600 C   0  0  0  0  0  0  0  0  0  0  0  0
   -2.5660   17.7260  -13.1210 C   0  0  0  0  0  0  0  0  0  0  0  0
   -4.6670   20.4140  -10.7450 B   0  0  0  0  0  0  0  0  0  0  0  0
   -1.5480   14.4290  -10.4020 H   0  0  0  0  0  0  0  0  0  0  0  0
   -0.6150   15.9380  -10.4470 H   0  0  0  0  0  0  0  0  0  0  0  0
    0.2860   13.1570   -9.7840 H   0  0  0  0  0  0  0  0  0  0  0  0
    0.4850   14.6970   -8.9090 H   0  0  0  0  0  0  0  0  0  0  0  0
    2.6450   14.7840   -9.9710 H   0  0  0  0  0  0  0  0  0  0  0  0
    0.3490   12.8090  -11.7950 H   0  0  0  0  0  0  0  0  0  0  0  0
    1.7650   13.2610  -14.1020 H   0  0  0  0  0  0  0  0  0  0  0  0
    0.1810   13.8390  -14.6020 H   0  0  0  0  0  0  0  0  0  0  0  0
    2.4510   10.4420  -15.3250 H   0  0  0  0  0  0  0  0  0  0  0  0
    2.8110   11.7830  -14.2370 H   0  0  0  0  0  0  0  0  0  0  0  0
    4.1690    9.5960  -14.1510 H   0  0  0  0  0  0  0  0  0  0  0  0
    3.8330   10.4730  -12.6390 H   0  0  0  0  0  0  0  0  0  0  0  0
    1.7820    9.7900  -11.3870 H   0  0  0  0  0  0  0  0  0  0  0  0
    1.1440    8.1020  -11.6070 H   0  0  0  0  0  0  0  0  0  0  0  0
    0.3080    8.7790  -13.8740 H   0  0  0  0  0  0  0  0  0  0  0  0
   -0.3910    9.7470  -12.5650 H   0  0  0  0  0  0  0  0  0  0  0  0
    5.0890    8.0080  -14.0640 H   0  0  0  0  0  0  0  0  0  0  0  0
    5.9110    5.7380  -14.2790 H   0  0  0  0  0  0  0  0  0  0  0  0
    4.6950    3.8000  -13.3980 H   0  0  0  0  0  0  0  0  0  0  0  0
    2.5520    4.1690  -12.2540 H   0  0  0  0  0  0  0  0  0  0  0  0
    1.6540    6.3770  -12.0030 H   0  0  0  0  0  0  0  0  0  0  0  0
   -0.6060   17.5710  -10.4470 H   0  0  0  0  0  0  0  0  0  0  0  0
   -2.2480   19.1860   -9.5910 H   0  0  0  0  0  0  0  0  0  0  0  0
   -4.3360   18.9730  -13.2380 H   0  0  0  0  0  0  0  0  0  0  0  0
   -2.6800   17.3330  -14.1150 H   0  0  0  0  0  0  0  0  0  0  0  0
  1  3  2  0  0  0  0
  1 26  1  0  0  0  0
  1  4  1  0  0  0  0
  2  1  2  0  0  0  0
  4  5  1  0  0  0  0
  5 34  1  0  0  0  0
  5 33  1  0  0  0  0
  5  6  1  0  0  0  0
  6 35  1  0  0  0  0
  6 36  1  0  0  0  0
  7 37  1  0  0  0  0
  7  6  1  0  0  0  0
  8  7  1  0  0  0  0
  9  8  2  0  0  0  0
 10  4  1  0  0  0  0
 10  8  1  0  0  0  0
 10 38  1  1  0  0  0
 11 10  1  0  0  0  0
 12 11  1  0  0  0  0
 12 14  1  0  0  0  0
 13 12  2  0  0  0  0
 14 19  1  0  0  0  0
 15 42  1  0  0  0  0
 15 14  1  0  0  0  0
 15 16  1  0  0  0  0
 16 17  1  0  0  0  0
 16 44  1  0  0  0  0
 17 18  1  0  0  0  0
 18 46  1  0  0  0  0
 18 45  1  0  0  0  0
 19 48  1  0  0  0  0
 19 18  1  0  0  0  0
 20 17  1  0  0  0  0
 20 25  1  0  0  0  0
 21 20  2  0  0  0  0
 22 21  1  0  0  0  0
 22 23  2  0  0  0  0
 23 24  1  0  0  0  0
 24 25  2  0  0  0  0
 24 52  1  0  0  0  0
 25 53  1  0  0  0  0
 26 27  1  0  0  0  0
 27 28  2  0  0  0  0
 27 54  1  0  0  0  0
 28 55  1  0  0  0  0
 29 32  1  0  0  0  0
 29 28  1  0  0  0  0
 30 29  2  0  0  0  0
 31 30  1  0  0  0  0
 31 26  2  0  0  0  0
 39 11  1  0  0  0  0
 40 11  1  0  0  0  0
 41 15  1  0  0  0  0
 43 16  1  0  0  0  0
 47 19  1  0  0  0  0
 49 21  1  0  0  0  0
 50 22  1  0  0  0  0
 51 23  1  0  0  0  0
 56 30  1  0  0  0  0
 57 31  1  0  0  0  0
M  END
>  <Pose>
1

>  <Score>
-6.56

$$$$
