
 OpenBabel03232203513D

 51 54  0  0  0  0  0  0  0  0999 V2000
    2.8530    9.1690  -15.0320 S   0  0  0  0  0  0  0  0  0  0  0  0
    2.4790    9.4910  -16.4380 O   0  0  0  0  0  0  0  0  0  0  0  0
    4.2700    8.6350  -15.0570 O   0  0  0  0  0  0  0  0  0  0  0  0
    1.8570    7.9460  -14.3770 N   0  0  0  0  0  0  0  0  0  0  0  0
    0.5050    8.3810  -14.1380 C   0  0  0  0  0  0  0  0  0  0  0  0
   -0.1020    7.3890  -13.1420 C   0  0  0  0  0  0  0  0  0  0  0  0
    0.4020    7.6060  -11.8770 O   0  0  0  0  0  0  0  0  0  0  0  0
    1.6650    8.2150  -11.9870 C   0  0  0  0  0  0  0  0  0  0  0  0
    2.3990    7.4950  -13.1090 C   0  0  0  0  0  0  0  0  0  0  0  0
    2.8890   10.6110  -14.0290 C   0  0  0  0  0  0  0  0  0  0  0  0
    4.0460   11.2650  -13.7160 C   0  0  0  0  0  0  0  0  0  0  0  0
    4.0450   12.4060  -12.9180 C   0  0  0  0  0  0  0  0  0  0  0  0
    2.8860   12.9180  -12.4150 C   0  0  0  0  0  0  0  0  0  0  0  0
    1.7090   12.2610  -12.7270 C   0  0  0  0  0  0  0  0  0  0  0  0
    1.7120   11.1270  -13.5190 C   0  0  0  0  0  0  0  0  0  0  0  0
    2.7970   14.1280  -11.5630 C   0  0  0  0  0  0  0  0  0  0  0  0
    1.5090   14.7020  -11.5850 O   0  0  0  0  0  0  0  0  0  0  0  0
    1.1410   15.7840  -12.3470 C   0  0  0  0  0  0  0  0  0  0  0  0
    1.8090   16.8350  -12.2760 O   0  0  0  0  0  0  0  0  0  0  0  0
   -0.0180   15.7200  -13.2340 C   0  0  0  0  0  0  0  0  0  0  0  0
   -1.0400   16.6730  -12.9170 N   0  0  0  0  0  0  0  0  0  0  0  0
   -1.1550   17.2990  -11.6330 C   0  0  0  0  0  0  0  0  0  0  0  0
   -0.3950   17.1000  -10.6420 O   0  0  0  0  0  0  0  0  0  0  0  0
   -2.2950   18.2090  -11.6460 C   0  0  0  0  0  0  0  0  0  0  0  0
   -2.8780   18.1620  -12.8850 C   0  0  0  0  0  0  0  0  0  0  0  0
   -3.9870   18.9360  -13.1690 C   0  0  0  0  0  0  0  0  0  0  0  0
   -4.5330   19.7720  -12.2130 C   0  0  0  0  0  0  0  0  0  0  0  0
   -3.9570   19.8290  -10.9620 C   0  0  0  0  0  0  0  0  0  0  0  0
   -2.8500   19.0450  -10.7060 C   0  0  0  0  0  0  0  0  0  0  0  0
   -4.6740   20.9660   -9.6100 B   0  0  0  0  0  0  0  0  0  0  0  0
   -2.1020   17.2040  -13.6920 C   0  0  0  0  0  0  0  0  0  0  0  0
   -2.3210   16.8860  -14.8820 O   0  0  0  0  0  0  0  0  0  0  0  0
   -0.0500    8.2640  -15.0920 H   0  0  0  0  0  0  0  0  0  0  0  0
    0.4120    9.4140  -13.8050 H   0  0  0  0  0  0  0  0  0  0  0  0
    0.1320    6.3670  -13.5260 H   0  0  0  0  0  0  0  0  0  0  0  0
   -1.2020    7.4620  -13.1100 H   0  0  0  0  0  0  0  0  0  0  0  0
    1.5910    9.2920  -12.1460 H   0  0  0  0  0  0  0  0  0  0  0  0
    2.1610    8.0570  -11.0100 H   0  0  0  0  0  0  0  0  0  0  0  0
    3.4770    7.7130  -13.1180 H   0  0  0  0  0  0  0  0  0  0  0  0
    2.2250    6.4100  -12.9380 H   0  0  0  0  0  0  0  0  0  0  0  0
    4.9790   10.8680  -14.1100 H   0  0  0  0  0  0  0  0  0  0  0  0
    4.9800   12.8910  -12.6930 H   0  0  0  0  0  0  0  0  0  0  0  0
    0.7790   12.6500  -12.3380 H   0  0  0  0  0  0  0  0  0  0  0  0
    0.7690   10.6310  -13.7490 H   0  0  0  0  0  0  0  0  0  0  0  0
    3.0370   13.8840  -10.5070 H   0  0  0  0  0  0  0  0  0  0  0  0
    3.5570   14.8640  -11.9370 H   0  0  0  0  0  0  0  0  0  0  0  0
    0.2810   15.8670  -14.3140 H   0  0  0  0  0  0  0  0  0  0  0  0
   -0.5110   14.7030  -13.2250 H   0  0  0  0  0  0  0  0  0  0  0  0
   -4.4270   18.8770  -14.1590 H   0  0  0  0  0  0  0  0  0  0  0  0
   -5.4180   20.3840  -12.4490 H   0  0  0  0  0  0  0  0  0  0  0  0
   -2.3710   19.0660   -9.7270 H   0  0  0  0  0  0  0  0  0  0  0  0
  1  4  1  0  0  0  0
  1 10  1  0  0  0  0
  2  1  2  0  0  0  0
  3  1  2  0  0  0  0
  4  5  1  0  0  0  0
  4  9  1  0  0  0  0
  5 34  1  0  0  0  0
  5  6  1  0  0  0  0
  6 36  1  0  0  0  0
  6  7  1  0  0  0  0
  8  7  1  0  0  0  0
  8 38  1  0  0  0  0
  9 40  1  0  0  0  0
  9  8  1  0  0  0  0
 10 11  2  0  0  0  0
 10 15  1  0  0  0  0
 11 12  1  0  0  0  0
 12 42  1  0  0  0  0
 12 13  2  0  0  0  0
 13 16  1  0  0  0  0
 14 13  1  0  0  0  0
 14 43  1  0  0  0  0
 15 14  2  0  0  0  0
 16 45  1  0  0  0  0
 17 16  1  0  0  0  0
 18 19  2  0  0  0  0
 18 17  1  0  0  0  0
 20 48  1  0  0  0  0
 20 21  1  0  0  0  0
 20 18  1  0  0  0  0
 21 22  1  0  0  0  0
 22 23  2  0  0  0  0
 24 22  1  0  0  0  0
 24 29  1  0  0  0  0
 25 24  2  0  0  0  0
 26 25  1  0  0  0  0
 26 27  2  0  0  0  0
 27 28  1  0  0  0  0
 28 29  2  0  0  0  0
 28 30  1  0  0  0  0
 29 51  1  0  0  0  0
 31 21  1  0  0  0  0
 31 25  1  0  0  0  0
 32 31  2  0  0  0  0
 33  5  1  0  0  0  0
 35  6  1  0  0  0  0
 37  8  1  0  0  0  0
 39  9  1  0  0  0  0
 41 11  1  0  0  0  0
 44 15  1  0  0  0  0
 46 16  1  0  0  0  0
 47 20  1  0  0  0  0
 49 26  1  0  0  0  0
 50 27  1  0  0  0  0
M  END
>  <Pose>
1

>  <Score>
-7.04

$$$$
