
 OpenBabel03232203513D

 46 49  0  0  0  0  0  0  0  0999 V2000
    0.9530    7.4770  -12.6840 S   0  0  0  0  0  0  0  0  0  0  0  0
    0.5340    8.7830  -12.0220 O   0  0  0  0  0  0  0  0  0  0  0  0
    1.3950    6.5830  -11.5420 O   0  0  0  0  0  0  0  0  0  0  0  0
    2.2200    7.7990  -13.7310 N   0  0  0  0  0  0  0  0  0  0  0  0
    2.0910    8.8690  -14.6310 C   0  0  0  0  0  0  0  0  0  0  0  0
    3.3420    9.6950  -14.6710 C   0  0  0  0  0  0  0  0  0  0  0  0
    4.3890    8.8550  -15.0090 O   0  0  0  0  0  0  0  0  0  0  0  0
    4.6640    7.9200  -14.0190 C   0  0  0  0  0  0  0  0  0  0  0  0
    3.4710    7.2230  -13.4890 C   0  0  0  0  0  0  0  0  0  0  0  0
   -0.4610    6.7880  -13.4460 C   0  0  0  0  0  0  0  0  0  0  0  0
   -0.9700    5.5550  -13.2850 N   0  0  0  0  0  0  0  0  0  0  0  0
   -2.0750    5.4310  -14.0630 C   0  0  0  0  0  0  0  0  0  0  0  0
   -2.2810    6.5820  -14.7270 N   0  0  0  0  0  0  0  0  0  0  0  0
   -1.3130    7.4110  -14.3650 C   0  0  0  0  0  0  0  0  0  0  0  0
   -3.3680    6.8190  -15.6540 C   0  0  0  0  0  0  0  0  0  0  0  0
   -4.4940    7.5320  -15.0050 C   0  0  0  0  0  0  0  0  0  0  0  0
   -5.7150    6.9940  -14.7490 N   0  0  0  0  0  0  0  0  0  0  0  0
   -6.4440    7.9030  -14.1750 O   0  0  0  0  0  0  0  0  0  0  0  0
   -5.7830    9.0240  -14.0310 C   0  0  0  0  0  0  0  0  0  0  0  0
   -4.5540    8.7860  -14.5550 N   0  0  0  0  0  0  0  0  0  0  0  0
   -6.2520   10.3060  -13.4230 C   0  0  0  0  0  0  0  0  0  0  0  0
   -7.3340   10.8280  -14.3040 C   0  0  0  0  0  0  0  0  0  0  0  0
   -8.1590   11.8270  -13.8120 C   0  0  0  0  0  0  0  0  0  0  0  0
   -9.1790   12.3660  -14.5510 C   0  0  0  0  0  0  0  0  0  0  0  0
   -9.3790   11.8930  -15.8190 C   0  0  0  0  0  0  0  0  0  0  0  0
   -8.5970   10.9130  -16.3480 C   0  0  0  0  0  0  0  0  0  0  0  0
   -7.5680   10.3830  -15.5740 C   0  0  0  0  0  0  0  0  0  0  0  0
  -10.7900   12.6190  -16.8790 B   0  0  0  0  0  0  0  0  0  0  0  0
    1.1890    9.4640  -14.3770 H   0  0  0  0  0  0  0  0  0  0  0  0
    1.9570    8.4490  -15.6700 H   0  0  0  0  0  0  0  0  0  0  0  0
    3.3000   10.4830  -15.4540 H   0  0  0  0  0  0  0  0  0  0  0  0
    3.5270   10.1010  -13.6610 H   0  0  0  0  0  0  0  0  0  0  0  0
    5.3990    7.2020  -14.4630 H   0  0  0  0  0  0  0  0  0  0  0  0
    5.2140    8.4130  -13.1840 H   0  0  0  0  0  0  0  0  0  0  0  0
    3.5890    7.0530  -12.3770 H   0  0  0  0  0  0  0  0  0  0  0  0
    3.4700    6.1740  -13.9100 H   0  0  0  0  0  0  0  0  0  0  0  0
   -2.6850    4.5330  -14.1260 H   0  0  0  0  0  0  0  0  0  0  0  0
   -1.1620    8.4270  -14.7000 H   0  0  0  0  0  0  0  0  0  0  0  0
   -3.7490    5.8660  -16.0720 H   0  0  0  0  0  0  0  0  0  0  0  0
   -2.9940    7.4060  -16.5180 H   0  0  0  0  0  0  0  0  0  0  0  0
   -5.3910   10.9980  -13.4210 H   0  0  0  0  0  0  0  0  0  0  0  0
   -6.6250   10.1330  -12.3910 H   0  0  0  0  0  0  0  0  0  0  0  0
   -7.9780   12.1870  -12.7990 H   0  0  0  0  0  0  0  0  0  0  0  0
   -9.8300   13.1550  -14.1650 H   0  0  0  0  0  0  0  0  0  0  0  0
   -8.7500   10.5310  -17.3560 H   0  0  0  0  0  0  0  0  0  0  0  0
   -6.9390    9.6030  -15.9830 H   0  0  0  0  0  0  0  0  0  0  0  0
  1  2  2  0  0  0  0
  1  3  2  0  0  0  0
  4  9  1  0  0  0  0
  4  1  1  0  0  0  0
  5 29  1  0  0  0  0
  5  4  1  0  0  0  0
  6  5  1  0  0  0  0
  6 32  1  0  0  0  0
  7  6  1  0  0  0  0
  7  8  1  0  0  0  0
  8  9  1  0  0  0  0
  8 34  1  0  0  0  0
  9 35  1  0  0  0  0
 10 11  1  0  0  0  0
 10  1  1  0  0  0  0
 12 11  2  0  0  0  0
 13 14  1  0  0  0  0
 13 12  1  0  0  0  0
 14 10  2  0  0  0  0
 15 16  1  0  0  0  0
 15 13  1  0  0  0  0
 16 17  2  0  0  0  0
 16 20  1  0  0  0  0
 17 18  1  0  0  0  0
 18 19  1  0  0  0  0
 19 21  1  0  0  0  0
 20 19  2  0  0  0  0
 21 41  1  0  0  0  0
 21 42  1  0  0  0  0
 22 23  1  0  0  0  0
 22 21  1  0  0  0  0
 23 43  1  0  0  0  0
 24 44  1  0  0  0  0
 24 23  2  0  0  0  0
 25 24  1  0  0  0  0
 26 25  2  0  0  0  0
 26 27  1  0  0  0  0
 27 22  2  0  0  0  0
 28 25  1  0  0  0  0
 30  5  1  0  0  0  0
 31  6  1  0  0  0  0
 33  8  1  0  0  0  0
 36  9  1  0  0  0  0
 37 12  1  0  0  0  0
 38 14  1  0  0  0  0
 39 15  1  0  0  0  0
 40 15  1  0  0  0  0
 45 26  1  0  0  0  0
 46 27  1  0  0  0  0
M  END
>  <Pose>
1

>  <Score>
-8.17

$$$$
