
 OpenBabel03232203513D

 43 46  0  0  0  0  0  0  0  0999 V2000
    2.8320    9.2630  -14.0340 S   0  0  0  0  0  0  0  0  0  0  0  0
    2.6920    9.4420  -15.5220 O   0  0  0  0  0  0  0  0  0  0  0  0
    4.0080    8.3710  -13.8000 O   0  0  0  0  0  0  0  0  0  0  0  0
    1.3890    8.5700  -13.4330 N   0  0  0  0  0  0  0  0  0  0  0  0
    1.2870    8.5570  -12.0210 C   0  0  0  0  0  0  0  0  0  0  0  0
    0.6150    7.3730  -11.4070 C   0  0  0  0  0  0  0  0  0  0  0  0
   -0.4160    6.9760  -12.2890 O   0  0  0  0  0  0  0  0  0  0  0  0
    0.2550    6.3700  -13.3550 C   0  0  0  0  0  0  0  0  0  0  0  0
    0.9550    7.4210  -14.1410 C   0  0  0  0  0  0  0  0  0  0  0  0
    3.1070   10.8650  -13.3400 C   0  0  0  0  0  0  0  0  0  0  0  0
    4.1320   11.6980  -13.5920 N   0  0  0  0  0  0  0  0  0  0  0  0
    3.9670   12.8140  -12.8580 C   0  0  0  0  0  0  0  0  0  0  0  0
    2.8470   12.7300  -12.1250 N   0  0  0  0  0  0  0  0  0  0  0  0
    2.3160   11.5320  -12.4200 C   0  0  0  0  0  0  0  0  0  0  0  0
    2.3300   13.7280  -11.2110 C   0  0  0  0  0  0  0  0  0  0  0  0
    1.5220   14.7640  -11.8930 C   0  0  0  0  0  0  0  0  0  0  0  0
    1.8660   15.3690  -13.0460 N   0  0  0  0  0  0  0  0  0  0  0  0
    0.9370   16.2210  -13.3590 O   0  0  0  0  0  0  0  0  0  0  0  0
   -0.0180   16.2180  -12.4700 C   0  0  0  0  0  0  0  0  0  0  0  0
    0.3440   15.3080  -11.5520 N   0  0  0  0  0  0  0  0  0  0  0  0
   -1.2190   17.0540  -12.5130 C   0  0  0  0  0  0  0  0  0  0  0  0
   -1.4950   17.9870  -11.5350 C   0  0  0  0  0  0  0  0  0  0  0  0
   -2.6420   18.7750  -11.5900 C   0  0  0  0  0  0  0  0  0  0  0  0
   -3.5400   18.6510  -12.6260 C   0  0  0  0  0  0  0  0  0  0  0  0
   -3.2670   17.7200  -13.6050 C   0  0  0  0  0  0  0  0  0  0  0  0
   -2.1160   16.9300  -13.5470 C   0  0  0  0  0  0  0  0  0  0  0  0
   -3.0060   20.0620  -10.2230 B   0  0  0  0  0  0  0  0  0  0  0  0
    2.2890    8.7290  -11.5490 H   0  0  0  0  0  0  0  0  0  0  0  0
    0.6680    9.4570  -11.7260 H   0  0  0  0  0  0  0  0  0  0  0  0
    0.0890    7.6770  -10.4730 H   0  0  0  0  0  0  0  0  0  0  0  0
    1.2730    6.5190  -11.1990 H   0  0  0  0  0  0  0  0  0  0  0  0
    0.9350    5.6210  -12.9040 H   0  0  0  0  0  0  0  0  0  0  0  0
   -0.4300    5.8170  -14.0210 H   0  0  0  0  0  0  0  0  0  0  0  0
    0.2450    7.7640  -14.9440 H   0  0  0  0  0  0  0  0  0  0  0  0
    1.8220    6.9950  -14.7090 H   0  0  0  0  0  0  0  0  0  0  0  0
    4.6300   13.6710  -12.8450 H   0  0  0  0  0  0  0  0  0  0  0  0
    1.4040   11.1400  -12.0000 H   0  0  0  0  0  0  0  0  0  0  0  0
    3.1870   14.2080  -10.7130 H   0  0  0  0  0  0  0  0  0  0  0  0
    1.6910   13.2910  -10.4160 H   0  0  0  0  0  0  0  0  0  0  0  0
   -0.7930   18.0880  -10.7200 H   0  0  0  0  0  0  0  0  0  0  0  0
   -4.4350   19.2740  -12.6570 H   0  0  0  0  0  0  0  0  0  0  0  0
   -3.9460   17.5910  -14.4340 H   0  0  0  0  0  0  0  0  0  0  0  0
   -1.8820   16.1930  -14.3050 H   0  0  0  0  0  0  0  0  0  0  0  0
  1  3  2  0  0  0  0
  1  4  1  0  0  0  0
  1 10  1  0  0  0  0
  2  1  2  0  0  0  0
  4  5  1  0  0  0  0
  5 29  1  0  0  0  0
  5 28  1  0  0  0  0
  5  6  1  0  0  0  0
  6 31  1  0  0  0  0
  6 30  1  0  0  0  0
  7  6  1  0  0  0  0
  8 32  1  0  0  0  0
  8  7  1  0  0  0  0
  9  4  1  0  0  0  0
  9  8  1  0  0  0  0
 10 14  2  0  0  0  0
 11 10  1  0  0  0  0
 11 12  2  0  0  0  0
 12 36  1  0  0  0  0
 12 13  1  0  0  0  0
 13 15  1  0  0  0  0
 14 13  1  0  0  0  0
 14 37  1  0  0  0  0
 15 38  1  0  0  0  0
 15 39  1  0  0  0  0
 16 20  1  0  0  0  0
 16 15  1  0  0  0  0
 17 16  2  0  0  0  0
 18 17  1  0  0  0  0
 18 19  1  0  0  0  0
 19 20  2  0  0  0  0
 21 19  1  0  0  0  0
 21 22  1  0  0  0  0
 22 40  1  0  0  0  0
 23 22  2  0  0  0  0
 23 27  1  0  0  0  0
 24 23  1  0  0  0  0
 25 26  1  0  0  0  0
 25 24  2  0  0  0  0
 26 21  2  0  0  0  0
 33  8  1  0  0  0  0
 34  9  1  0  0  0  0
 35  9  1  0  0  0  0
 41 24  1  0  0  0  0
 42 25  1  0  0  0  0
 43 26  1  0  0  0  0
M  END
>  <Pose>
1

>  <Score>
-8.09

$$$$
