
 OpenBabel03232203513D

 37 40  0  0  0  0  0  0  0  0999 V2000
    3.4230   12.8510  -12.1680 S   0  0  0  0  0  0  0  0  0  0  0  0
    2.6860   11.2300  -11.8270 C   0  0  0  0  0  0  0  0  0  0  0  0
    2.4370   10.5430  -13.1270 C   0  0  0  0  0  0  0  0  0  0  0  0
    3.0100   10.9350  -14.1930 O   0  0  0  0  0  0  0  0  0  0  0  0
    1.5640    9.4400  -13.2240 N   0  0  0  0  0  0  0  0  0  0  0  0
    1.9630    8.1420  -12.8220 C   0  0  0  0  0  0  0  0  0  0  0  0
    2.8810    7.3430  -13.3910 N   0  0  0  0  0  0  0  0  0  0  0  0
    2.9740    6.2180  -12.7360 O   0  0  0  0  0  0  0  0  0  0  0  0
    2.1390    6.2680  -11.7550 N   0  0  0  0  0  0  0  0  0  0  0  0
    1.4690    7.4280  -11.7360 C   0  0  0  0  0  0  0  0  0  0  0  0
    0.4840    7.8130  -10.8020 N   0  0  0  0  0  0  0  0  0  0  0  0
    2.1140   14.0910  -12.0790 C   0  0  0  0  0  0  0  0  0  0  0  0
    1.9600   14.8650  -10.9910 N   0  0  0  0  0  0  0  0  0  0  0  0
    1.0190   15.7880  -10.8720 N   0  0  0  0  0  0  0  0  0  0  0  0
    0.1350   16.0100  -11.8680 C   0  0  0  0  0  0  0  0  0  0  0  0
    0.2740   15.2270  -12.9960 C   0  0  0  0  0  0  0  0  0  0  0  0
   -0.7030   15.6240  -13.8360 N   0  0  0  0  0  0  0  0  0  0  0  0
   -1.4390   16.6070  -13.2930 C   0  0  0  0  0  0  0  0  0  0  0  0
   -0.9300   16.8770  -12.0410 C   0  0  0  0  0  0  0  0  0  0  0  0
   -1.4660   17.8470  -11.2070 C   0  0  0  0  0  0  0  0  0  0  0  0
   -2.5540   18.5530  -11.6880 C   0  0  0  0  0  0  0  0  0  0  0  0
   -3.0820   18.3040  -12.9390 C   0  0  0  0  0  0  0  0  0  0  0  0
   -2.5360   17.3380  -13.7480 C   0  0  0  0  0  0  0  0  0  0  0  0
   -3.2930   19.8920  -10.5390 B   0  0  0  0  0  0  0  0  0  0  0  0
   -0.9010   15.0410  -15.1480 C   0  0  0  0  0  0  0  0  0  0  0  0
    1.2550   14.2810  -13.0940 N   0  0  0  0  0  0  0  0  0  0  0  0
    3.2980   10.6290  -11.1410 H   0  0  0  0  0  0  0  0  0  0  0  0
    1.6600   11.4400  -11.4050 H   0  0  0  0  0  0  0  0  0  0  0  0
    0.6050    9.5980  -13.6010 H   0  0  0  0  0  0  0  0  0  0  0  0
   -0.4190    8.1920  -11.1430 H   0  0  0  0  0  0  0  0  0  0  0  0
    0.6220    7.7320   -9.7740 H   0  0  0  0  0  0  0  0  0  0  0  0
   -1.0420   18.0350  -10.2230 H   0  0  0  0  0  0  0  0  0  0  0  0
   -3.9410   18.8720  -13.3010 H   0  0  0  0  0  0  0  0  0  0  0  0
   -2.9260   17.1150  -14.7360 H   0  0  0  0  0  0  0  0  0  0  0  0
    0.0610   14.8050  -15.6160 H   0  0  0  0  0  0  0  0  0  0  0  0
   -1.5960   14.1760  -15.1060 H   0  0  0  0  0  0  0  0  0  0  0  0
   -1.3980   15.8110  -15.7800 H   0  0  0  0  0  0  0  0  0  0  0  0
  1 12  1  0  0  0  0
  1  2  1  0  0  0  0
  2 28  1  0  0  0  0
  2 27  1  0  0  0  0
  3  2  1  0  0  0  0
  4  3  2  0  0  0  0
  5  3  1  0  0  0  0
  5  6  1  0  0  0  0
  6 10  1  0  0  0  0
  7  6  2  0  0  0  0
  7  8  1  0  0  0  0
  8  9  1  0  0  0  0
  9 10  2  0  0  0  0
 10 11  1  0  0  0  0
 11 31  1  0  0  0  0
 12 13  2  0  0  0  0
 13 14  1  0  0  0  0
 15 14  1  0  0  0  0
 16 15  2  0  0  0  0
 17 18  1  0  0  0  0
 17 16  1  0  0  0  0
 18 19  1  0  0  0  0
 19 15  1  0  0  0  0
 19 20  2  0  0  0  0
 20 32  1  0  0  0  0
 21 20  1  0  0  0  0
 21 24  1  0  0  0  0
 22 21  2  0  0  0  0
 23 18  2  0  0  0  0
 23 22  1  0  0  0  0
 25 36  1  0  0  0  0
 25 17  1  0  0  0  0
 26 16  1  0  0  0  0
 26 12  1  0  0  0  0
 29  5  1  0  0  0  0
 30 11  1  0  0  0  0
 33 22  1  0  0  0  0
 34 23  1  0  0  0  0
 35 25  1  0  0  0  0
 37 25  1  0  0  0  0
M  END
>  <Pose>
1

>  <Score>
-8.05

$$$$
