
 OpenBabel03232203513D

 52 56  0  0  1  0  0  0  0  0999 V2000
    3.9090    6.0080  -12.8130 S   0  0  0  0  0  0  0  0  0  0  0  0
    2.9400    7.2230  -13.6940 C   0  0  0  0  0  0  0  0  0  0  0  0
    3.3360    7.7560  -14.7920 N   0  0  0  0  0  0  0  0  0  0  0  0
    2.6230    8.7230  -15.5450 C   0  0  0  0  0  0  0  0  0  0  0  0
    2.6750    8.8240  -16.7740 O   0  0  0  0  0  0  0  0  0  0  0  0
    1.7530    9.6660  -14.6850 C   0  0  1  0  0  0  0  0  0  0  0  0
    0.9290    8.6580  -13.9510 C   0  0  0  0  0  0  0  0  0  0  0  0
   -0.3010    8.5990  -13.9290 O   0  0  0  0  0  0  0  0  0  0  0  0
    1.6550    7.6830  -13.2160 N   0  0  0  0  0  0  0  0  0  0  0  0
    1.1140    7.1720  -12.0330 C   0  0  0  0  0  0  0  0  0  0  0  0
    0.4270    5.9540  -12.1080 C   0  0  0  0  0  0  0  0  0  0  0  0
   -0.1330    5.3880  -10.9830 C   0  0  0  0  0  0  0  0  0  0  0  0
   -0.0120    6.0400   -9.7600 C   0  0  0  0  0  0  0  0  0  0  0  0
    0.6770    7.2570   -9.6950 C   0  0  0  0  0  0  0  0  0  0  0  0
    1.2300    7.8070  -10.8270 C   0  0  0  0  0  0  0  0  0  0  0  0
   -0.7650    5.2980   -8.1970 B   0  0  0  0  0  0  0  0  0  0  0  0
    2.7040   10.4080  -13.8690 C   0  0  1  0  0  0  0  0  0  0  0  0
    3.9530   10.6940  -14.5620 N   0  0  0  0  0  4  0  0  0  0  0  0
    5.0220   10.8950  -13.5990 C   0  0  0  0  0  0  0  0  0  0  0  0
    4.5480   11.0810  -12.1810 C   0  0  0  0  0  0  0  0  0  0  0  0
    3.3440   11.9860  -12.2070 C   0  0  0  0  0  0  0  0  0  0  0  0
    2.3540   11.6200  -13.1490 C   0  0  0  0  0  0  0  0  0  0  0  0
    1.2300   12.3890  -13.2720 C   0  0  0  0  0  0  0  0  0  0  0  0
    1.1150   13.5070  -12.4480 C   0  0  0  0  0  0  0  0  0  0  0  0
    2.0900   13.8410  -11.5390 C   0  0  0  0  0  0  0  0  0  0  0  0
    3.2330   13.0740  -11.4050 C   0  0  0  0  0  0  0  0  0  0  0  0
    1.6950   14.9850  -10.8770 O   0  0  0  0  0  0  0  0  0  0  0  0
    0.6020   15.5470  -11.5610 C   0  0  0  0  0  0  0  0  0  0  0  0
    0.1280   14.4490  -12.3400 O   0  0  0  0  0  0  0  0  0  0  0  0
    0.2310   12.0820  -14.1850 O   0  0  0  0  0  0  0  0  0  0  0  0
   -1.0080   11.5750  -13.7020 C   0  0  0  0  0  0  0  0  0  0  0  0
    3.9100   11.8200  -15.4300 C   0  0  0  0  0  0  0  0  0  0  0  0
    1.1390   10.1710  -15.4140 H   0  0  0  0  0  0  0  0  0  0  0  0
    0.3180    5.4260  -13.0510 H   0  0  0  0  0  0  0  0  0  0  0  0
   -0.6570    4.4510  -11.0650 H   0  0  0  0  0  0  0  0  0  0  0  0
    0.7950    7.7970   -8.7690 H   0  0  0  0  0  0  0  0  0  0  0  0
    1.7550    8.7340  -10.7790 H   0  0  0  0  0  0  0  0  0  0  0  0
    3.0560    9.6670  -13.0650 H   0  0  0  0  0  0  0  0  0  0  0  0
    4.1880    9.8450  -15.1160 H   0  0  0  0  0  0  0  0  0  0  0  0
    5.6340   11.7800  -13.8690 H   0  0  0  0  0  0  0  0  0  0  0  0
    5.7350   10.0270  -13.5870 H   0  0  0  0  0  0  0  0  0  0  0  0
    4.3700   10.1540  -11.6270 H   0  0  0  0  0  0  0  0  0  0  0  0
    5.3500   11.6580  -11.6460 H   0  0  0  0  0  0  0  0  0  0  0  0
    4.0160   13.3250  -10.6890 H   0  0  0  0  0  0  0  0  0  0  0  0
   -0.1820   15.9000  -10.8600 H   0  0  0  0  0  0  0  0  0  0  0  0
    0.9800   16.3550  -12.2190 H   0  0  0  0  0  0  0  0  0  0  0  0
   -0.9670   10.4570  -13.7850 H   0  0  0  0  0  0  0  0  0  0  0  0
   -1.8770   11.9660  -14.2330 H   0  0  0  0  0  0  0  0  0  0  0  0
   -1.1060   11.8010  -12.6310 H   0  0  0  0  0  0  0  0  0  0  0  0
    4.9550   12.0580  -15.7210 H   0  0  0  0  0  0  0  0  0  0  0  0
    3.3570   11.6570  -16.3720 H   0  0  0  0  0  0  0  0  0  0  0  0
    3.5470   12.7420  -14.8940 H   0  0  0  0  0  0  0  0  0  0  0  0
  2  9  1  0  0  0  0
  2  1  2  0  0  0  0
  3  2  1  0  0  0  0
  4  3  1  0  0  0  0
  4  6  1  0  0  0  0
  5  4  2  0  0  0  0
  6 33  1  6  0  0  0
  6  7  1  0  0  0  0
  6 17  1  0  0  0  0
  7  8  2  0  0  0  0
  7  9  1  0  0  0  0
  9 10  1  0  0  0  0
 10 15  1  0  0  0  0
 11 10  2  0  0  0  0
 11 12  1  0  0  0  0
 12 13  2  0  0  0  0
 13 14  1  0  0  0  0
 13 16  1  0  0  0  0
 14 36  1  0  0  0  0
 15 37  1  0  0  0  0
 15 14  2  0  0  0  0
 17 22  1  0  0  0  0
 17 38  1  1  0  0  0
 18 17  1  0  0  0  0
 18 19  1  0  0  0  0
 19 41  1  0  0  0  0
 19 20  1  0  0  0  0
 20 43  1  0  0  0  0
 20 42  1  0  0  0  0
 21 20  1  0  0  0  0
 21 26  1  0  0  0  0
 22 21  2  0  0  0  0
 23 22  1  0  0  0  0
 23 24  2  0  0  0  0
 24 29  1  0  0  0  0
 24 25  1  0  0  0  0
 25 26  2  0  0  0  0
 25 27  1  0  0  0  0
 26 44  1  0  0  0  0
 28 27  1  0  0  0  0
 28 45  1  0  0  0  0
 29 28  1  0  0  0  0
 30 31  1  0  0  0  0
 30 23  1  0  0  0  0
 31 49  1  0  0  0  0
 32 52  1  0  0  0  0
 32 18  1  0  0  0  0
 34 11  1  0  0  0  0
 35 12  1  0  0  0  0
 39 18  1  0  0  0  0
 40 19  1  0  0  0  0
 46 28  1  0  0  0  0
 47 31  1  0  0  0  0
 48 31  1  0  0  0  0
 50 32  1  0  0  0  0
 51 32  1  0  0  0  0
M  END
>  <Pose>
1

>  <Score>
-3.14

$$$$
