
 OpenBabel03232203513D

 58 61  0  0  1  0  0  0  0  0999 V2000
    4.2920    3.9390  -13.5340 S   0  0  0  0  0  0  0  0  0  0  0  0
    5.7840    3.1220  -13.6590 C   0  0  0  0  0  0  0  0  0  0  0  0
    6.6520    4.1140  -13.5860 N   0  0  0  0  0  0  0  0  0  0  0  0
    6.2330    5.3380  -13.4510 C   0  0  0  0  0  0  0  0  0  0  0  0
    4.8790    5.5410  -13.3940 C   0  0  0  0  0  0  0  0  0  0  0  0
    4.0810    6.7500  -13.2070 C   0  0  0  0  0  0  0  0  0  0  0  0
    2.8250    6.6830  -12.8110 C   0  0  0  0  0  0  0  0  0  0  0  0
    1.8600    7.8080  -12.5750 C   0  0  2  0  0  0  0  0  0  0  0  0
    0.5920    7.2490  -12.9260 N   0  0  0  0  0  0  0  0  0  0  0  0
    0.6910    5.8550  -12.5200 C   0  0  0  0  0  0  0  0  0  0  0  0
   -0.3200    5.1380  -12.2890 O   0  0  0  0  0  0  0  0  0  0  0  0
    2.0910    5.4800  -12.4400 C   0  0  0  0  0  0  0  0  0  0  0  0
    2.5750    4.3460  -12.1140 O   0  0  0  0  0  0  0  0  0  0  0  0
   -0.5900    7.8410  -13.4780 C   0  0  0  0  0  0  0  0  0  0  0  0
   -0.8740    9.2520  -13.0780 C   0  0  0  0  0  0  0  0  0  0  0  0
   -2.3320    9.6230  -13.3910 C   0  0  0  0  0  0  0  0  0  0  0  0
   -3.1040    8.4270  -13.4050 N   0  0  0  0  0  4  0  0  0  0  0  0
   -4.3480    8.4680  -12.7030 C   0  0  0  0  0  0  0  0  0  0  0  0
   -5.4280    9.2260  -13.4370 C   0  0  0  0  0  0  0  0  0  0  0  0
   -4.8390    9.7380  -14.6150 O   0  0  0  0  0  0  0  0  0  0  0  0
   -4.5490    8.6000  -15.3930 C   0  0  0  0  0  0  0  0  0  0  0  0
   -3.3450    7.9410  -14.7510 C   0  0  0  0  0  0  0  0  0  0  0  0
    2.2680    9.0280  -13.2590 C   0  0  0  0  0  0  0  0  0  0  0  0
    2.5670   10.1520  -12.4720 C   0  0  0  0  0  0  0  0  0  0  0  0
    2.9840   11.3480  -12.9970 C   0  0  0  0  0  0  0  0  0  0  0  0
    3.1260   11.4780  -14.3570 C   0  0  0  0  0  0  0  0  0  0  0  0
    2.8420   10.3900  -15.1670 C   0  0  0  0  0  0  0  0  0  0  0  0
    2.4250    9.2030  -14.6030 C   0  0  0  0  0  0  0  0  0  0  0  0
    3.3840   12.8620  -11.9020 B   0  0  0  0  0  0  0  0  0  0  0  0
    4.6540    8.0200  -13.4490 O   0  0  0  0  0  0  0  0  0  0  0  0
    7.2410    6.4730  -13.3240 C   0  0  0  0  0  0  0  0  0  0  0  0
    6.0490    1.6430  -13.8130 C   0  0  0  0  0  0  0  0  0  0  0  0
    1.9120    7.9790  -11.4570 H   0  0  0  0  0  0  0  0  0  0  0  0
   -1.4480    7.2140  -13.1060 H   0  0  0  0  0  0  0  0  0  0  0  0
   -0.5550    7.7950  -14.5930 H   0  0  0  0  0  0  0  0  0  0  0  0
   -0.7140    9.5170  -12.0430 H   0  0  0  0  0  0  0  0  0  0  0  0
   -0.2730    9.8980  -13.7870 H   0  0  0  0  0  0  0  0  0  0  0  0
   -2.4040   10.1150  -14.3810 H   0  0  0  0  0  0  0  0  0  0  0  0
   -2.6300   10.3420  -12.5990 H   0  0  0  0  0  0  0  0  0  0  0  0
   -2.5170    7.6740  -12.9360 H   0  0  0  0  0  0  0  0  0  0  0  0
   -4.3170    8.8270  -11.6760 H   0  0  0  0  0  0  0  0  0  0  0  0
   -4.7030    7.3970  -12.6360 H   0  0  0  0  0  0  0  0  0  0  0  0
   -5.9260    9.9950  -12.8420 H   0  0  0  0  0  0  0  0  0  0  0  0
   -6.2390    8.5450  -13.8110 H   0  0  0  0  0  0  0  0  0  0  0  0
   -5.4110    7.8960  -15.2510 H   0  0  0  0  0  0  0  0  0  0  0  0
   -4.4240    8.8220  -16.4510 H   0  0  0  0  0  0  0  0  0  0  0  0
   -3.4600    6.8450  -14.7120 H   0  0  0  0  0  0  0  0  0  0  0  0
   -2.4430    8.1850  -15.3580 H   0  0  0  0  0  0  0  0  0  0  0  0
    2.4670   10.0930  -11.3890 H   0  0  0  0  0  0  0  0  0  0  0  0
    3.4560   12.4250  -14.7540 H   0  0  0  0  0  0  0  0  0  0  0  0
    2.9420   10.4580  -16.2280 H   0  0  0  0  0  0  0  0  0  0  0  0
    2.2210    8.3580  -15.2460 H   0  0  0  0  0  0  0  0  0  0  0  0
    6.7500    7.3470  -12.9070 H   0  0  0  0  0  0  0  0  0  0  0  0
    7.7380    6.6400  -14.3010 H   0  0  0  0  0  0  0  0  0  0  0  0
    8.0530    6.1790  -12.6220 H   0  0  0  0  0  0  0  0  0  0  0  0
    6.6280    1.4340  -14.7180 H   0  0  0  0  0  0  0  0  0  0  0  0
    6.5990    1.3530  -12.8900 H   0  0  0  0  0  0  0  0  0  0  0  0
    5.0610    1.1390  -13.7780 H   0  0  0  0  0  0  0  0  0  0  0  0
  1  5  1  0  0  0  0
  2  3  2  0  0  0  0
  2  1  1  0  0  0  0
  3  4  1  0  0  0  0
  4  5  2  0  0  0  0
  4 31  1  0  0  0  0
  5  6  1  0  0  0  0
  6  7  2  0  0  0  0
  7  8  1  0  0  0  0
  7 12  1  0  0  0  0
  8 33  1  1  0  0  0
  9  8  1  0  0  0  0
  9 10  1  0  0  0  0
 10 12  1  0  0  0  0
 10 11  2  0  0  0  0
 12 13  2  0  0  0  0
 14 34  1  0  0  0  0
 14 15  1  0  0  0  0
 14  9  1  0  0  0  0
 15 36  1  0  0  0  0
 16 15  1  0  0  0  0
 16 39  1  0  0  0  0
 17 16  1  0  0  0  0
 17 40  1  0  0  0  0
 17 18  1  0  0  0  0
 18 42  1  0  0  0  0
 18 41  1  0  0  0  0
 19 43  1  0  0  0  0
 19 18  1  0  0  0  0
 20 19  1  0  0  0  0
 21 45  1  0  0  0  0
 21 22  1  0  0  0  0
 21 20  1  0  0  0  0
 22 47  1  0  0  0  0
 22 17  1  0  0  0  0
 23  8  1  0  0  0  0
 23 24  1  0  0  0  0
 24 49  1  0  0  0  0
 25 24  2  0  0  0  0
 25 29  1  0  0  0  0
 26 25  1  0  0  0  0
 27 28  1  0  0  0  0
 27 26  2  0  0  0  0
 28 23  2  0  0  0  0
 30  6  1  0  0  0  0
 31 53  1  0  0  0  0
 31 55  1  0  0  0  0
 32 58  1  0  0  0  0
 32  2  1  0  0  0  0
 32 57  1  0  0  0  0
 35 14  1  0  0  0  0
 37 15  1  0  0  0  0
 38 16  1  0  0  0  0
 44 19  1  0  0  0  0
 46 21  1  0  0  0  0
 48 22  1  0  0  0  0
 50 26  1  0  0  0  0
 51 27  1  0  0  0  0
 52 28  1  0  0  0  0
 54 31  1  0  0  0  0
 56 32  1  0  0  0  0
M  END
>  <Pose>
1

>  <Score>
-5.71

$$$$
