
 OpenBabel03232203513D

 58 61  0  0  1  0  0  0  0  0999 V2000
    1.4550    8.4450  -12.0450 S   0  0  0  0  0  0  0  0  0  0  0  0
    2.3590    7.1270  -12.6340 C   0  0  0  0  0  0  0  0  0  0  0  0
    3.1830    7.7040  -13.4860 N   0  0  0  0  0  0  0  0  0  0  0  0
    3.1330    8.9890  -13.6670 C   0  0  0  0  0  0  0  0  0  0  0  0
    2.2030    9.6970  -12.9450 C   0  0  0  0  0  0  0  0  0  0  0  0
    1.8890   11.1430  -12.9790 C   0  0  0  0  0  0  0  0  0  0  0  0
    0.7000   11.5570  -13.3040 C   0  0  0  0  0  0  0  0  0  0  0  0
    0.2700   12.9890  -13.3640 C   0  0  1  0  0  0  0  0  0  0  0  0
   -1.1100   12.9190  -12.9660 N   0  0  0  0  0  0  0  0  0  0  0  0
   -1.5980   11.6810  -13.5030 C   0  0  0  0  0  0  0  0  0  0  0  0
   -2.7870   11.4040  -13.7410 O   0  0  0  0  0  0  0  0  0  0  0  0
   -0.4660   10.7940  -13.7310 C   0  0  0  0  0  0  0  0  0  0  0  0
   -0.4140    9.6210  -14.1920 O   0  0  0  0  0  0  0  0  0  0  0  0
   -1.8090   13.9170  -12.2130 C   0  0  0  0  0  0  0  0  0  0  0  0
   -2.3870   15.0180  -12.9990 C   0  0  0  0  0  0  0  0  0  0  0  0
   -1.7020   16.2850  -13.0160 C   0  0  0  0  0  0  0  0  0  0  0  0
   -2.0450   17.4700  -13.6450 N   0  0  0  0  0  4  0  0  0  0  0  0
   -1.7060   18.6550  -12.7730 C   0  0  0  0  0  0  0  0  0  0  0  0
   -2.7700   18.8210  -11.7390 C   0  0  0  0  0  0  0  0  0  0  0  0
   -3.9270   19.2220  -12.3980 O   0  0  0  0  0  0  0  0  0  0  0  0
   -4.3600   18.0850  -13.1170 C   0  0  0  0  0  0  0  0  0  0  0  0
   -3.3500   17.6990  -14.1620 C   0  0  0  0  0  0  0  0  0  0  0  0
    1.1350   13.8340  -12.5270 C   0  0  0  0  0  0  0  0  0  0  0  0
    1.0280   15.1860  -12.3490 C   0  0  0  0  0  0  0  0  0  0  0  0
    1.8630   15.9420  -11.5580 C   0  0  0  0  0  0  0  0  0  0  0  0
    2.8830   15.3110  -10.8920 C   0  0  0  0  0  0  0  0  0  0  0  0
    3.0430   13.9570  -11.0300 C   0  0  0  0  0  0  0  0  0  0  0  0
    2.1900   13.2320  -11.8290 C   0  0  0  0  0  0  0  0  0  0  0  0
    4.0430   16.3670   -9.7890 B   0  0  0  0  0  0  0  0  0  0  0  0
    2.8820   12.0840  -12.6580 O   0  0  0  0  0  0  0  0  0  0  0  0
    4.0400    9.6850  -14.6770 C   0  0  0  0  0  0  0  0  0  0  0  0
    2.2730    5.6630  -12.2960 C   0  0  0  0  0  0  0  0  0  0  0  0
    0.2870   13.3470  -14.4130 H   0  0  0  0  0  0  0  0  0  0  0  0
   -2.5000   13.4660  -11.5230 H   0  0  0  0  0  0  0  0  0  0  0  0
   -0.9950   14.3750  -11.5210 H   0  0  0  0  0  0  0  0  0  0  0  0
   -2.6550   14.5910  -14.0070 H   0  0  0  0  0  0  0  0  0  0  0  0
   -3.4470   15.1550  -12.5710 H   0  0  0  0  0  0  0  0  0  0  0  0
   -1.4330   16.4890  -11.8860 H   0  0  0  0  0  0  0  0  0  0  0  0
   -0.6170   16.0530  -13.3660 H   0  0  0  0  0  0  0  0  0  0  0  0
   -1.3950   17.6470  -14.4490 H   0  0  0  0  0  0  0  0  0  0  0  0
   -0.6900   18.5390  -12.4390 H   0  0  0  0  0  0  0  0  0  0  0  0
   -1.7600   19.5360  -13.4350 H   0  0  0  0  0  0  0  0  0  0  0  0
   -2.4160   19.5750  -11.0100 H   0  0  0  0  0  0  0  0  0  0  0  0
   -3.0310   17.8880  -11.2040 H   0  0  0  0  0  0  0  0  0  0  0  0
   -5.2970   18.3890  -13.6260 H   0  0  0  0  0  0  0  0  0  0  0  0
   -4.6060   17.3190  -12.3860 H   0  0  0  0  0  0  0  0  0  0  0  0
   -3.3340   18.6360  -14.8490 H   0  0  0  0  0  0  0  0  0  0  0  0
   -3.7290   16.9360  -14.8100 H   0  0  0  0  0  0  0  0  0  0  0  0
    0.2290   15.7000  -12.8630 H   0  0  0  0  0  0  0  0  0  0  0  0
    1.6910   17.0150  -11.4830 H   0  0  0  0  0  0  0  0  0  0  0  0
    3.8690   13.4880  -10.4820 H   0  0  0  0  0  0  0  0  0  0  0  0
    2.3320   12.1680  -11.9260 H   0  0  0  0  0  0  0  0  0  0  0  0
    3.6560   10.6640  -14.9270 H   0  0  0  0  0  0  0  0  0  0  0  0
    5.0820    9.7300  -14.3090 H   0  0  0  0  0  0  0  0  0  0  0  0
    4.0720    9.0780  -15.6180 H   0  0  0  0  0  0  0  0  0  0  0  0
    1.2100    5.4340  -12.0230 H   0  0  0  0  0  0  0  0  0  0  0  0
    2.4690    5.0470  -13.2130 H   0  0  0  0  0  0  0  0  0  0  0  0
    2.9530    5.3930  -11.4830 H   0  0  0  0  0  0  0  0  0  0  0  0
  2 32  1  0  0  0  0
  2  1  1  0  0  0  0
  3  2  2  0  0  0  0
  4  3  1  0  0  0  0
  4  5  2  0  0  0  0
  5  1  1  0  0  0  0
  6  5  1  0  0  0  0
  6 30  1  0  0  0  0
  7  6  2  0  0  0  0
  8 33  1  6  0  0  0
  8  7  1  0  0  0  0
  8  9  1  0  0  0  0
  8 23  1  0  0  0  0
  9 14  1  0  0  0  0
 10  9  1  0  0  0  0
 11 10  2  0  0  0  0
 12 10  1  0  0  0  0
 12  7  1  0  0  0  0
 13 12  2  0  0  0  0
 14 34  1  0  0  0  0
 14 35  1  0  0  0  0
 15 37  1  0  0  0  0
 15 14  1  0  0  0  0
 16 15  1  0  0  0  0
 16 38  1  0  0  0  0
 17 16  1  0  0  0  0
 17 18  1  0  0  0  0
 18 41  1  0  0  0  0
 18 19  1  0  0  0  0
 19 44  1  0  0  0  0
 19 43  1  0  0  0  0
 20 19  1  0  0  0  0
 21 20  1  0  0  0  0
 21 46  1  0  0  0  0
 22 17  1  0  0  0  0
 22 21  1  0  0  0  0
 23 24  2  0  0  0  0
 23 28  1  0  0  0  0
 24 25  1  0  0  0  0
 25 50  1  0  0  0  0
 25 26  2  0  0  0  0
 26 29  1  0  0  0  0
 27 26  1  0  0  0  0
 27 51  1  0  0  0  0
 28 27  2  0  0  0  0
 30 52  1  0  0  0  0
 31 54  1  0  0  0  0
 31  4  1  0  0  0  0
 32 56  1  0  0  0  0
 32 58  1  0  0  0  0
 36 15  1  0  0  0  0
 39 16  1  0  0  0  0
 40 17  1  0  0  0  0
 42 18  1  0  0  0  0
 45 21  1  0  0  0  0
 47 22  1  0  0  0  0
 48 22  1  0  0  0  0
 49 24  1  0  0  0  0
 53 31  1  0  0  0  0
 55 31  1  0  0  0  0
 57 32  1  0  0  0  0
M  END
>  <Pose>
1

>  <Score>
-3.70

$$$$
