
 OpenBabel03232203513D

 39 42  0  0  1  0  0  0  0  0999 V2000
    0.0000   13.4440  -13.0430 S   0  0  0  0  0  0  0  0  0  0  0  0
    1.0490   12.2000  -13.5930 C   0  0  0  0  0  0  0  0  0  0  0  0
    2.1760   12.4100  -12.8450 C   0  0  0  0  0  0  0  0  0  0  0  0
    2.1590   13.4280  -11.9710 C   0  0  0  0  0  0  0  0  0  0  0  0
    1.0150   14.1770  -11.8960 C   0  0  0  0  0  0  0  0  0  0  0  0
    1.0170   15.3110  -10.9130 C   0  0  0  0  0  0  0  0  0  0  0  0
    1.3740   14.7680   -9.6040 N   0  0  0  0  0  4  0  0  0  0  0  0
    2.5970   14.0270   -9.6120 C   0  0  0  0  0  0  0  0  0  0  0  0
    3.2180   13.9310  -11.0020 C   0  0  0  0  0  0  0  0  0  0  0  0
    0.2980   13.8390   -9.2560 C   0  0  0  0  0  0  0  0  0  0  0  0
    3.2820   11.4520  -13.1230 C   0  0  0  0  0  0  0  0  0  0  0  0
    4.3810   11.5350  -12.4980 O   0  0  0  0  0  0  0  0  0  0  0  0
    3.0830   10.4430  -14.1000 N   0  0  0  0  0  0  0  0  0  0  0  0
    1.8000    9.9710  -14.5340 C   0  0  2  0  0  0  0  0  0  0  0  0
    0.9330   11.1380  -14.5710 N   0  0  0  0  0  0  0  0  0  0  0  0
    1.2230    8.9560  -13.6190 C   0  0  0  0  0  0  0  0  0  0  0  0
    1.4990    8.9520  -12.2670 C   0  0  0  0  0  0  0  0  0  0  0  0
    0.9720    8.0190  -11.4030 C   0  0  0  0  0  0  0  0  0  0  0  0
    0.1310    7.0360  -11.8860 C   0  0  0  0  0  0  0  0  0  0  0  0
   -0.1580    7.0200  -13.2290 C   0  0  0  0  0  0  0  0  0  0  0  0
    0.3750    7.9610  -14.0890 C   0  0  0  0  0  0  0  0  0  0  0  0
   -1.3320    5.6350  -13.8570 B   0  0  0  0  0  0  0  0  0  0  0  0
   -0.4040    6.0920  -11.0200 O   0  0  0  0  0  0  0  0  0  0  0  0
    1.3570    8.0240   -9.5470 B   0  0  0  0  0  0  0  0  0  0  0  0
    1.6770   16.1300  -11.2220 H   0  0  0  0  0  0  0  0  0  0  0  0
   -0.0220   15.6940  -10.8000 H   0  0  0  0  0  0  0  0  0  0  0  0
    1.3400   15.5190   -8.8850 H   0  0  0  0  0  0  0  0  0  0  0  0
    2.4510   12.9550   -9.2900 H   0  0  0  0  0  0  0  0  0  0  0  0
    3.3650   14.4300   -8.9330 H   0  0  0  0  0  0  0  0  0  0  0  0
    4.0930   13.2880  -10.9850 H   0  0  0  0  0  0  0  0  0  0  0  0
    3.4280   14.9710  -11.3240 H   0  0  0  0  0  0  0  0  0  0  0  0
   -0.6520   14.1000   -9.7740 H   0  0  0  0  0  0  0  0  0  0  0  0
    0.5660   12.8170   -9.6540 H   0  0  0  0  0  0  0  0  0  0  0  0
    0.1830   13.7220   -8.1750 H   0  0  0  0  0  0  0  0  0  0  0  0
    3.9540   10.0210  -14.5300 H   0  0  0  0  0  0  0  0  0  0  0  0
    1.8830    9.5380  -15.5410 H   0  0  0  0  0  0  0  0  0  0  0  0
    0.1960   11.2600  -15.2960 H   0  0  0  0  0  0  0  0  0  0  0  0
    2.1550    9.7150  -11.8780 H   0  0  0  0  0  0  0  0  0  0  0  0
    0.1410    7.9370  -15.1360 H   0  0  0  0  0  0  0  0  0  0  0  0
  1  5  1  0  0  0  0
  2  1  1  0  0  0  0
  2  3  2  0  0  0  0
  3  4  1  0  0  0  0
  4  5  2  0  0  0  0
  4  9  1  0  0  0  0
  5  6  1  0  0  0  0
  6 26  1  0  0  0  0
  6  7  1  0  0  0  0
  7 10  1  0  0  0  0
  7 27  1  0  0  0  0
  8  7  1  0  0  0  0
  8 28  1  0  0  0  0
  8 29  1  0  0  0  0
  9 30  1  0  0  0  0
  9  8  1  0  0  0  0
 10 34  1  0  0  0  0
 11  3  1  0  0  0  0
 11 12  2  0  0  0  0
 13 11  1  0  0  0  0
 14 36  1  6  0  0  0
 14 13  1  0  0  0  0
 14 16  1  0  0  0  0
 15 14  1  0  0  0  0
 15  2  1  0  0  0  0
 16 17  1  0  0  0  0
 17 38  1  0  0  0  0
 17 18  2  0  0  0  0
 18 24  1  0  0  0  0
 19 18  1  0  0  0  0
 19 23  1  0  0  0  0
 20 19  2  0  0  0  0
 21 16  2  0  0  0  0
 21 20  1  0  0  0  0
 22 20  1  0  0  0  0
 25  6  1  0  0  0  0
 31  9  1  0  0  0  0
 32 10  1  0  0  0  0
 33 10  1  0  0  0  0
 35 13  1  0  0  0  0
 37 15  1  0  0  0  0
 39 21  1  0  0  0  0
M  END
>  <Pose>
1

>  <Score>
-4.36

$$$$
