
 OpenBabel03232203513D

 42 45  0  0  1  0  0  0  0  0999 V2000
    0.2640   14.1760  -12.7910 S   0  0  0  0  0  0  0  0  0  0  0  0
    0.9310   15.3600  -11.5880 C   0  0  0  0  0  0  0  0  0  0  0  0
    2.2710   14.8200  -11.1230 C   0  0  0  0  0  0  0  0  0  0  0  0
    3.0750   14.3260  -12.3080 C   0  0  0  0  0  0  0  0  0  0  0  0
    2.6490   12.9580  -12.5590 N   0  0  0  0  0  0  0  0  0  0  0  0
    1.3500   12.7610  -12.7990 C   0  0  1  0  0  0  0  0  0  0  0  0
    1.1400   11.4150  -13.0110 N   0  0  0  0  0  0  0  0  0  0  0  0
    2.2960   10.7800  -12.9050 C   0  0  0  0  0  0  0  0  0  0  0  0
    3.2350   11.7680  -12.6190 C   0  0  0  0  0  0  0  0  0  0  0  0
    2.6260    9.3700  -13.0370 C   0  0  0  0  0  0  0  0  0  0  0  0
    3.8220    9.0020  -13.6700 C   0  0  0  0  0  0  0  0  0  0  0  0
    4.1860    7.6930  -13.8240 C   0  0  0  0  0  0  0  0  0  0  0  0
    3.4150    6.6460  -13.3740 C   0  0  0  0  0  0  0  0  0  0  0  0
    2.2430    6.9950  -12.7530 C   0  0  0  0  0  0  0  0  0  0  0  0
    1.8500    8.3310  -12.5850 C   0  0  0  0  0  0  0  0  0  0  0  0
    3.8170    5.3290  -13.5480 O   0  0  0  0  0  0  0  0  0  0  0  0
    5.1640    4.9580  -13.3180 C   0  0  0  0  0  0  0  0  0  0  0  0
   -0.1550   10.8900  -13.2940 C   0  0  0  0  0  0  0  0  0  0  0  0
   -0.4680    9.5750  -12.9990 C   0  0  0  0  0  0  0  0  0  0  0  0
   -1.7210    9.0460  -13.2330 C   0  0  0  0  0  0  0  0  0  0  0  0
   -2.6820    9.8720  -13.7820 C   0  0  0  0  0  0  0  0  0  0  0  0
   -2.3610   11.1810  -14.0730 C   0  0  0  0  0  0  0  0  0  0  0  0
   -1.1180   11.7290  -13.8470 C   0  0  0  0  0  0  0  0  0  0  0  0
   -4.4540    9.2240  -14.1440 B   0  0  0  0  0  0  0  0  0  0  0  0
    1.0970   16.3410  -12.0690 H   0  0  0  0  0  0  0  0  0  0  0  0
    0.2050   15.4140  -10.7570 H   0  0  0  0  0  0  0  0  0  0  0  0
    2.8270   15.5850  -10.5420 H   0  0  0  0  0  0  0  0  0  0  0  0
    2.0610   13.9780  -10.4260 H   0  0  0  0  0  0  0  0  0  0  0  0
    2.7250   14.9210  -13.2010 H   0  0  0  0  0  0  0  0  0  0  0  0
    4.1540   14.4110  -12.1540 H   0  0  0  0  0  0  0  0  0  0  0  0
    4.3030   11.6520  -12.4590 H   0  0  0  0  0  0  0  0  0  0  0  0
    4.4610    9.7880  -14.0410 H   0  0  0  0  0  0  0  0  0  0  0  0
    5.1280    7.4130  -14.3240 H   0  0  0  0  0  0  0  0  0  0  0  0
    1.5900    6.2260  -12.3760 H   0  0  0  0  0  0  0  0  0  0  0  0
    0.9250    8.5410  -12.0920 H   0  0  0  0  0  0  0  0  0  0  0  0
    5.3370    3.8900  -13.4410 H   0  0  0  0  0  0  0  0  0  0  0  0
    5.4600    5.3100  -12.2860 H   0  0  0  0  0  0  0  0  0  0  0  0
    5.8110    5.5140  -14.0140 H   0  0  0  0  0  0  0  0  0  0  0  0
    0.2600    8.8930  -12.5660 H   0  0  0  0  0  0  0  0  0  0  0  0
   -1.9850    8.0230  -13.0110 H   0  0  0  0  0  0  0  0  0  0  0  0
   -3.1060   11.8610  -14.5090 H   0  0  0  0  0  0  0  0  0  0  0  0
   -0.8820   12.7600  -14.0810 H   0  0  0  0  0  0  0  0  0  0  0  0
  1  2  1  0  0  0  0
  2  3  1  0  0  0  0
  2 26  1  0  0  0  0
  3 27  1  0  0  0  0
  3 28  1  0  0  0  0
  4 30  1  0  0  0  0
  4  3  1  0  0  0  0
  5  4  1  0  0  0  0
  6  1  1  1  0  0  0
  6  5  1  0  0  0  0
  7  8  1  0  0  0  0
  7  6  1  0  0  0  0
  8  9  2  0  0  0  0
  9  5  1  0  0  0  0
  9 31  1  0  0  0  0
 10  8  1  0  0  0  0
 10 15  1  0  0  0  0
 11 10  2  0  0  0  0
 12 11  1  0  0  0  0
 12 13  2  0  0  0  0
 13 14  1  0  0  0  0
 14 15  2  0  0  0  0
 14 34  1  0  0  0  0
 15 35  1  0  0  0  0
 16 13  1  0  0  0  0
 16 17  1  0  0  0  0
 17 37  1  0  0  0  0
 18  7  1  0  0  0  0
 18 19  1  0  0  0  0
 19 39  1  0  0  0  0
 20 40  1  0  0  0  0
 20 19  2  0  0  0  0
 21 20  1  0  0  0  0
 22 23  1  0  0  0  0
 22 21  2  0  0  0  0
 23 18  2  0  0  0  0
 24 21  1  0  0  0  0
 25  2  1  0  0  0  0
 29  4  1  0  0  0  0
 32 11  1  0  0  0  0
 33 12  1  0  0  0  0
 36 17  1  0  0  0  0
 38 17  1  0  0  0  0
 41 22  1  0  0  0  0
 42 23  1  0  0  0  0
M  END
>  <Pose>
1

>  <Score>
-5.44

$$$$
