
 OpenBabel03232203513D

 49 52  0  0  1  0  0  0  0  0999 V2000
    0.9880    7.4420  -11.0730 S   0  0  0  0  0  0  0  0  0  0  0  0
    2.4100    7.6160  -10.0240 C   0  0  0  0  0  0  0  0  0  0  0  0
    3.2200    8.8210  -10.4610 C   0  0  0  0  0  0  0  0  0  0  0  0
    3.6820    8.6210  -11.8940 C   0  0  0  0  0  0  0  0  0  0  0  0
    2.5750    8.8220  -12.8010 N   0  0  2  0  0  0  0  0  0  0  0  0
    2.4030    9.6940  -13.9180 C   0  0  2  0  0  0  0  0  0  0  0  0
    1.5240    8.8150  -14.7940 C   0  0  0  0  0  0  0  0  0  0  0  0
    0.6880    8.1310  -13.8340 N   0  0  0  0  0  0  0  0  0  0  0  0
    1.3300    8.1040  -12.7190 C   0  0  2  0  0  0  0  0  0  0  0  0
   -0.6180    7.6120  -14.0410 C   0  0  0  0  0  0  0  0  0  0  0  0
   -0.7670    6.2330  -13.9830 C   0  0  0  0  0  0  0  0  0  0  0  0
   -2.0170    5.6460  -14.2010 C   0  0  0  0  0  0  0  0  0  0  0  0
   -3.1110    6.4460  -14.4800 C   0  0  0  0  0  0  0  0  0  0  0  0
   -3.0000    7.8150  -14.5450 C   0  0  0  0  0  0  0  0  0  0  0  0
   -1.7140    8.3430  -14.3150 C   0  0  0  0  0  0  0  0  0  0  0  0
   -4.0540    8.6690  -14.8180 O   0  0  0  0  0  0  0  0  0  0  0  0
   -5.3080    8.2960  -15.3140 C   0  0  0  0  0  0  0  0  0  0  0  0
    0.3260    5.4390  -13.7080 O   0  0  0  0  0  0  0  0  0  0  0  0
    0.5170    4.7030  -12.5220 C   0  0  0  0  0  0  0  0  0  0  0  0
    3.6270    9.9430  -14.5290 O   0  0  0  0  0  0  0  0  0  0  0  0
    1.6570   10.9380  -13.6480 C   0  0  0  0  0  0  0  0  0  0  0  0
    0.4310   11.2650  -14.1370 C   0  0  0  0  0  0  0  0  0  0  0  0
   -0.1680   12.4910  -13.8450 C   0  0  0  0  0  0  0  0  0  0  0  0
    0.4630   13.4240  -13.0490 C   0  0  0  0  0  0  0  0  0  0  0  0
    1.6910   13.1070  -12.5540 C   0  0  0  0  0  0  0  0  0  0  0  0
    2.2770   11.9060  -12.8400 C   0  0  0  0  0  0  0  0  0  0  0  0
   -0.3710   15.1070  -12.6620 B   0  0  0  0  0  0  0  0  0  0  0  0
    2.1240    7.7540   -8.9480 H   0  0  0  0  0  0  0  0  0  0  0  0
    3.0830    6.7180  -10.1290 H   0  0  0  0  0  0  0  0  0  0  0  0
    2.5850    9.7340  -10.3980 H   0  0  0  0  0  0  0  0  0  0  0  0
    4.1220    8.9270   -9.8410 H   0  0  0  0  0  0  0  0  0  0  0  0
    4.4590    9.4100  -12.0810 H   0  0  0  0  0  0  0  0  0  0  0  0
    4.0870    7.5960  -11.9820 H   0  0  0  0  0  0  0  0  0  0  0  0
    1.0190    9.5170  -15.4550 H   0  0  0  0  0  0  0  0  0  0  0  0
    2.1650    8.1060  -15.3490 H   0  0  0  0  0  0  0  0  0  0  0  0
   -2.1160    4.5600  -14.1500 H   0  0  0  0  0  0  0  0  0  0  0  0
   -4.0940    6.0180  -14.6570 H   0  0  0  0  0  0  0  0  0  0  0  0
   -1.6690    9.4030  -14.3760 H   0  0  0  0  0  0  0  0  0  0  0  0
   -6.0750    9.1010  -15.0890 H   0  0  0  0  0  0  0  0  0  0  0  0
   -5.1690    8.2430  -16.4330 H   0  0  0  0  0  0  0  0  0  0  0  0
   -5.6920    7.3450  -14.8930 H   0  0  0  0  0  0  0  0  0  0  0  0
    0.2180    5.2990  -11.6540 H   0  0  0  0  0  0  0  0  0  0  0  0
   -0.1450    3.8000  -12.5000 H   0  0  0  0  0  0  0  0  0  0  0  0
    1.5910    4.4220  -12.3900 H   0  0  0  0  0  0  0  0  0  0  0  0
    3.4900   10.2530  -15.4520 H   0  0  0  0  0  0  0  0  0  0  0  0
   -0.0870   10.5690  -14.7550 H   0  0  0  0  0  0  0  0  0  0  0  0
   -1.1700   12.7320  -14.2540 H   0  0  0  0  0  0  0  0  0  0  0  0
    2.1620   13.8590  -11.9310 H   0  0  0  0  0  0  0  0  0  0  0  0
    3.2510   11.6960  -12.4310 H   0  0  0  0  0  0  0  0  0  0  0  0
  1  2  1  0  0  0  0
  2 28  1  0  0  0  0
  3 30  1  0  0  0  0
  3  2  1  0  0  0  0
  3 31  1  0  0  0  0
  4  3  1  0  0  0  0
  5  9  1  0  0  0  0
  5  4  1  1  0  0  0
  6 20  1  6  0  0  0
  6 21  1  0  0  0  0
  6  5  1  0  0  0  0
  7  6  1  0  0  0  0
  7  8  1  0  0  0  0
  8  9  1  0  0  0  0
  9  1  1  1  0  0  0
 10 11  1  0  0  0  0
 10  8  1  0  0  0  0
 11 18  1  0  0  0  0
 12 36  1  0  0  0  0
 12 11  2  0  0  0  0
 13 12  1  0  0  0  0
 14 13  2  0  0  0  0
 14 15  1  0  0  0  0
 15 10  2  0  0  0  0
 16 14  1  0  0  0  0
 17 39  1  0  0  0  0
 17 41  1  0  0  0  0
 17 16  1  0  0  0  0
 18 19  1  0  0  0  0
 19 43  1  0  0  0  0
 19 44  1  0  0  0  0
 19 42  1  0  0  0  0
 21 26  1  0  0  0  0
 22 23  1  0  0  0  0
 22 21  2  0  0  0  0
 23 24  2  0  0  0  0
 24 27  1  0  0  0  0
 24 25  1  0  0  0  0
 25 48  1  0  0  0  0
 26 25  2  0  0  0  0
 26 49  1  0  0  0  0
 29  2  1  0  0  0  0
 32  4  1  0  0  0  0
 33  4  1  0  0  0  0
 34  7  1  0  0  0  0
 35  7  1  0  0  0  0
 37 13  1  0  0  0  0
 38 15  1  0  0  0  0
 40 17  1  0  0  0  0
 45 20  1  0  0  0  0
 46 22  1  0  0  0  0
 47 23  1  0  0  0  0
M  END
>  <Pose>
1

>  <Score>
-3.88

$$$$
