
 OpenBabel03232203513D

 43 46  0  0  1  0  0  0  0  0999 V2000
    1.6150    6.3740  -12.2770 S   0  0  0  0  0  0  0  0  0  0  0  0
   -0.0240    6.1740  -13.0920 C   0  0  0  0  0  0  0  0  0  0  0  0
   -0.1930    7.2660  -14.1340 C   0  0  0  0  0  0  0  0  0  0  0  0
    0.2180    8.6080  -13.5870 C   0  0  0  0  0  0  0  0  0  0  0  0
    1.6390    8.7440  -13.6510 N   0  0  2  0  0  0  0  0  0  0  0  0
    2.5880    9.7780  -14.0190 C   0  0  1  0  0  0  0  0  0  0  0  0
    3.7890    8.9840  -14.5010 C   0  0  0  0  0  0  0  0  0  0  0  0
    3.6430    7.7370  -13.7250 N   0  0  0  0  0  0  0  0  0  0  0  0
    2.4570    7.6240  -13.2760 C   0  0  1  0  0  0  0  0  0  0  0  0
    4.6910    6.7900  -13.5310 C   0  0  0  0  0  0  0  0  0  0  0  0
    4.5410    5.4440  -13.3660 C   0  0  0  0  0  0  0  0  0  0  0  0
    5.6100    4.5750  -13.2000 C   0  0  0  0  0  0  0  0  0  0  0  0
    6.8980    5.0710  -13.1970 C   0  0  0  0  0  0  0  0  0  0  0  0
    7.0890    6.4380  -13.3620 C   0  0  0  0  0  0  0  0  0  0  0  0
    6.0030    7.2880  -13.5260 C   0  0  0  0  0  0  0  0  0  0  0  0
    8.4360    3.9550  -12.9690 B   0  0  0  0  0  0  0  0  0  0  0  0
    2.0940   10.6230  -14.9930 O   0  0  0  0  0  0  0  0  0  0  0  0
    3.0120   10.5760  -12.8450 C   0  0  0  0  0  0  0  0  0  0  0  0
    2.7090   11.9220  -12.7840 C   0  0  0  0  0  0  0  0  0  0  0  0
    3.1270   12.6330  -11.6590 C   0  0  0  0  0  0  0  0  0  0  0  0
    3.8140   12.0230  -10.6530 C   0  0  0  0  0  0  0  0  0  0  0  0
    4.1230   10.6760  -10.7000 C   0  0  0  0  0  0  0  0  0  0  0  0
    3.7000    9.9690  -11.8310 C   0  0  0  0  0  0  0  0  0  0  0  0
    2.8200   14.0160  -11.5870 N   0  0  0  0  0  0  0  0  0  0  0  0
    3.2040   14.8200  -12.4580 O   0  0  0  0  0  0  0  0  0  0  0  0
    2.0860   14.5250  -10.5540 O   0  0  0  0  0  0  0  0  0  0  0  0
   -0.8230    6.1740  -12.3500 H   0  0  0  0  0  0  0  0  0  0  0  0
   -0.0270    5.2120  -13.6320 H   0  0  0  0  0  0  0  0  0  0  0  0
   -1.2730    7.3250  -14.4020 H   0  0  0  0  0  0  0  0  0  0  0  0
    0.3740    7.0630  -15.0470 H   0  0  0  0  0  0  0  0  0  0  0  0
   -0.3360    9.4100  -14.1000 H   0  0  0  0  0  0  0  0  0  0  0  0
   -0.0680    8.6380  -12.4930 H   0  0  0  0  0  0  0  0  0  0  0  0
    3.7560    8.7830  -15.5760 H   0  0  0  0  0  0  0  0  0  0  0  0
    4.7580    9.4560  -14.2210 H   0  0  0  0  0  0  0  0  0  0  0  0
    3.5550    5.0130  -13.3550 H   0  0  0  0  0  0  0  0  0  0  0  0
    5.4770    3.5080  -13.0720 H   0  0  0  0  0  0  0  0  0  0  0  0
    8.1090    6.8060  -13.3600 H   0  0  0  0  0  0  0  0  0  0  0  0
    6.1790    8.3540  -13.6530 H   0  0  0  0  0  0  0  0  0  0  0  0
    2.4760   10.5240  -15.8770 H   0  0  0  0  0  0  0  0  0  0  0  0
    2.1680   12.4010  -13.5800 H   0  0  0  0  0  0  0  0  0  0  0  0
    4.1380   12.5750   -9.7810 H   0  0  0  0  0  0  0  0  0  0  0  0
    4.6550   10.2190   -9.9010 H   0  0  0  0  0  0  0  0  0  0  0  0
    3.9520    8.9210  -11.8490 H   0  0  0  0  0  0  0  0  0  0  0  0
  2 27  1  0  0  0  0
  2  1  1  0  0  0  0
  3  4  1  0  0  0  0
  3  2  1  0  0  0  0
  4 32  1  0  0  0  0
  5  4  1  6  0  0  0
  5  9  1  0  0  0  0
  6 17  1  6  0  0  0
  6  5  1  0  0  0  0
  6 18  1  0  0  0  0
  7 34  1  0  0  0  0
  7  6  1  0  0  0  0
  7  8  1  0  0  0  0
  8 10  1  0  0  0  0
  8  9  1  0  0  0  0
  9  1  1  1  0  0  0
 10 15  2  0  0  0  0
 10 11  1  0  0  0  0
 11 35  1  0  0  0  0
 11 12  2  0  0  0  0
 12 13  1  0  0  0  0
 12 36  1  0  0  0  0
 13 16  1  0  0  0  0
 14 37  1  0  0  0  0
 14 13  2  0  0  0  0
 15 14  1  0  0  0  0
 18 19  2  0  0  0  0
 18 23  1  0  0  0  0
 19 20  1  0  0  0  0
 20 24  1  0  0  0  0
 20 21  2  0  0  0  0
 21 41  1  0  0  0  0
 22 21  1  0  0  0  0
 22 42  1  0  0  0  0
 23 22  2  0  0  0  0
 24 26  2  0  0  0  0
 25 24  2  0  0  0  0
 28  2  1  0  0  0  0
 29  3  1  0  0  0  0
 30  3  1  0  0  0  0
 31  4  1  0  0  0  0
 33  7  1  0  0  0  0
 38 15  1  0  0  0  0
 39 17  1  0  0  0  0
 40 19  1  0  0  0  0
 43 23  1  0  0  0  0
M  END
>  <Pose>
1

>  <Score>
-4.71

$$$$
