
 OpenBabel03232203513D

 45 48  0  0  1  0  0  0  0  0999 V2000
   -1.4740    6.4040  -16.6520 S   0  0  0  0  0  0  0  0  0  0  0  0
   -0.8610    4.7390  -17.1390 C   0  0  0  0  0  0  0  0  0  0  0  0
    0.3560    4.4890  -16.2600 C   0  0  0  0  0  0  0  0  0  0  0  0
   -0.0200    4.2850  -14.8260 C   0  0  0  0  0  0  0  0  0  0  0  0
   -0.6160    5.4210  -14.1940 N   0  0  2  0  0  0  0  0  0  0  0  0
   -0.5150    6.0640  -12.8800 C   0  0  1  0  0  0  0  0  0  0  0  0
   -2.0180    6.3470  -12.6970 C   0  0  0  0  0  0  0  0  0  0  0  0
   -2.3860    6.8150  -14.0200 N   0  0  0  0  0  0  0  0  0  0  0  0
   -1.5920    6.2740  -14.8530 C   0  0  1  0  0  0  0  0  0  0  0  0
   -3.4790    7.7340  -14.2460 C   0  0  0  0  0  0  0  0  0  0  0  0
   -3.3520    9.0660  -13.8640 C   0  0  0  0  0  0  0  0  0  0  0  0
   -4.3770    9.9660  -14.0630 C   0  0  0  0  0  0  0  0  0  0  0  0
   -5.5750    9.6080  -14.6430 C   0  0  0  0  0  0  0  0  0  0  0  0
   -5.7080    8.2940  -15.0220 C   0  0  0  0  0  0  0  0  0  0  0  0
   -4.6620    7.3800  -14.8180 C   0  0  0  0  0  0  0  0  0  0  0  0
   -6.5860   10.5440  -14.8300 O   0  0  0  0  0  0  0  0  0  0  0  0
   -7.8350   10.2880  -15.4050 C   0  0  0  0  0  0  0  0  0  0  0  0
   -0.0600    5.1590  -11.9510 O   0  0  0  0  0  0  0  0  0  0  0  0
    0.2310    7.3350  -12.9210 C   0  0  0  0  0  0  0  0  0  0  0  0
   -0.3130    8.5900  -12.7630 C   0  0  0  0  0  0  0  0  0  0  0  0
    0.4790    9.7250  -12.8090 C   0  0  0  0  0  0  0  0  0  0  0  0
    1.8240    9.6170  -13.0140 C   0  0  0  0  0  0  0  0  0  0  0  0
    2.3850    8.3690  -13.1750 C   0  0  0  0  0  0  0  0  0  0  0  0
    1.5890    7.2530  -13.1270 C   0  0  0  0  0  0  0  0  0  0  0  0
    2.9790   11.1520  -13.0910 B   0  0  0  0  0  0  0  0  0  0  0  0
   -0.5920    4.7720  -18.1900 H   0  0  0  0  0  0  0  0  0  0  0  0
   -1.6750    4.0130  -16.9040 H   0  0  0  0  0  0  0  0  0  0  0  0
    1.0360    5.3620  -16.3720 H   0  0  0  0  0  0  0  0  0  0  0  0
    0.9260    3.6080  -16.6010 H   0  0  0  0  0  0  0  0  0  0  0  0
   -0.7170    3.4200  -14.7870 H   0  0  0  0  0  0  0  0  0  0  0  0
    0.9210    4.0360  -14.2770 H   0  0  0  0  0  0  0  0  0  0  0  0
   -2.4740    5.3370  -12.5760 H   0  0  0  0  0  0  0  0  0  0  0  0
   -2.1990    7.0170  -11.8750 H   0  0  0  0  0  0  0  0  0  0  0  0
   -2.4410    9.4040  -13.4050 H   0  0  0  0  0  0  0  0  0  0  0  0
   -4.2900   11.0170  -13.7670 H   0  0  0  0  0  0  0  0  0  0  0  0
   -6.6150    7.9420  -15.4780 H   0  0  0  0  0  0  0  0  0  0  0  0
   -4.8120    6.3510  -15.1250 H   0  0  0  0  0  0  0  0  0  0  0  0
   -8.1490   11.1490  -16.0620 H   0  0  0  0  0  0  0  0  0  0  0  0
   -7.8950    9.3940  -16.0330 H   0  0  0  0  0  0  0  0  0  0  0  0
   -8.6040   10.2800  -14.5830 H   0  0  0  0  0  0  0  0  0  0  0  0
   -0.7770    4.5900  -11.5830 H   0  0  0  0  0  0  0  0  0  0  0  0
   -1.3670    8.6520  -12.6050 H   0  0  0  0  0  0  0  0  0  0  0  0
    0.0360   10.7050  -12.6790 H   0  0  0  0  0  0  0  0  0  0  0  0
    3.4540    8.2730  -13.3380 H   0  0  0  0  0  0  0  0  0  0  0  0
    2.0750    6.2830  -13.2570 H   0  0  0  0  0  0  0  0  0  0  0  0
  2 27  1  0  0  0  0
  2  1  1  0  0  0  0
  2  3  1  0  0  0  0
  3  4  1  0  0  0  0
  4 30  1  0  0  0  0
  4 31  1  0  0  0  0
  5  4  1  1  0  0  0
  5  6  1  0  0  0  0
  6  7  1  0  0  0  0
  6 18  1  1  0  0  0
  7 32  1  0  0  0  0
  7 33  1  0  0  0  0
  8  7  1  0  0  0  0
  9  1  1  1  0  0  0
  9  5  1  0  0  0  0
  9  8  1  0  0  0  0
 10  8  1  0  0  0  0
 10 11  1  0  0  0  0
 11 34  1  0  0  0  0
 12 11  2  0  0  0  0
 12 35  1  0  0  0  0
 13 12  1  0  0  0  0
 14 15  1  0  0  0  0
 14 13  2  0  0  0  0
 15 10  2  0  0  0  0
 16 13  1  0  0  0  0
 17 16  1  0  0  0  0
 17 40  1  0  0  0  0
 18 41  1  0  0  0  0
 19  6  1  0  0  0  0
 19 20  1  0  0  0  0
 20 42  1  0  0  0  0
 21 20  2  0  0  0  0
 21 43  1  0  0  0  0
 22 21  1  0  0  0  0
 23 24  1  0  0  0  0
 23 22  2  0  0  0  0
 24 19  2  0  0  0  0
 25 22  1  0  0  0  0
 26  2  1  0  0  0  0
 28  3  1  0  0  0  0
 29  3  1  0  0  0  0
 36 14  1  0  0  0  0
 37 15  1  0  0  0  0
 38 17  1  0  0  0  0
 39 17  1  0  0  0  0
 44 23  1  0  0  0  0
 45 24  1  0  0  0  0
M  END
>  <Pose>
1

>  <Score>
-3.19

$$$$
