
 OpenBabel03232203513D

 41 44  0  0  1  0  0  0  0  0999 V2000
    1.0620   12.8850  -11.2440 S   0  0  0  0  0  0  0  0  0  0  0  0
    2.6940   13.6690  -11.1170 C   0  0  0  0  0  0  0  0  0  0  0  0
    2.8180   14.5940  -12.3320 C   0  0  0  0  0  0  0  0  0  0  0  0
    1.7700   15.7080  -12.1840 C   0  0  0  0  0  0  0  0  0  0  0  0
    0.4960   15.1920  -12.6980 N   0  0  1  0  0  0  0  0  0  0  0  0
   -0.5140   15.7450  -13.5050 C   0  0  2  0  0  0  0  0  0  0  0  0
   -1.3620   14.5540  -13.9370 C   0  0  0  0  0  0  0  0  0  0  0  0
   -0.8920   13.4740  -13.1260 N   0  0  0  0  0  0  0  0  0  0  0  0
    0.1030   13.8530  -12.4330 C   0  0  1  0  0  0  0  0  0  0  0  0
   -1.4800   12.1640  -13.1800 C   0  0  0  0  0  0  0  0  0  0  0  0
   -2.8100   12.0270  -12.9460 C   0  0  0  0  0  0  0  0  0  0  0  0
   -3.3600   10.7520  -13.0340 C   0  0  0  0  0  0  0  0  0  0  0  0
   -2.6150    9.6370  -13.3470 C   0  0  0  0  0  0  0  0  0  0  0  0
   -1.2670    9.8260  -13.5740 C   0  0  0  0  0  0  0  0  0  0  0  0
   -0.6910   11.0710  -13.4950 C   0  0  0  0  0  0  0  0  0  0  0  0
    0.0610   16.2470  -14.6940 O   0  0  0  0  0  0  0  0  0  0  0  0
   -1.3910   16.7720  -12.9460 C   0  0  0  0  0  0  0  0  0  0  0  0
   -1.0400   17.2670  -11.6920 C   0  0  0  0  0  0  0  0  0  0  0  0
   -1.7420   18.2620  -11.0360 C   0  0  0  0  0  0  0  0  0  0  0  0
   -2.8500   18.8110  -11.6210 C   0  0  0  0  0  0  0  0  0  0  0  0
   -3.2150   18.3330  -12.8670 C   0  0  0  0  0  0  0  0  0  0  0  0
   -2.4980   17.3320  -13.5160 C   0  0  0  0  0  0  0  0  0  0  0  0
   -3.8660   20.2110  -10.7670 B   0  0  0  0  0  0  0  0  0  0  0  0
    2.7230   14.2600  -10.1870 H   0  0  0  0  0  0  0  0  0  0  0  0
    3.5000   12.9050  -11.1750 H   0  0  0  0  0  0  0  0  0  0  0  0
    3.8130   15.0290  -12.3620 H   0  0  0  0  0  0  0  0  0  0  0  0
    2.6110   13.9910  -13.2340 H   0  0  0  0  0  0  0  0  0  0  0  0
    1.7130   16.0500  -11.1570 H   0  0  0  0  0  0  0  0  0  0  0  0
    2.1410   16.5360  -12.8090 H   0  0  0  0  0  0  0  0  0  0  0  0
   -1.1950   14.3360  -15.0080 H   0  0  0  0  0  0  0  0  0  0  0  0
   -2.4390   14.7280  -13.6900 H   0  0  0  0  0  0  0  0  0  0  0  0
   -3.4820   12.8660  -12.6860 H   0  0  0  0  0  0  0  0  0  0  0  0
   -4.4120   10.6550  -12.8420 H   0  0  0  0  0  0  0  0  0  0  0  0
   -3.0680    8.6370  -13.4200 H   0  0  0  0  0  0  0  0  0  0  0  0
   -0.6480    8.9650  -13.8240 H   0  0  0  0  0  0  0  0  0  0  0  0
    0.3800   11.2440  -13.6740 H   0  0  0  0  0  0  0  0  0  0  0  0
    0.9720   16.5560  -14.4500 H   0  0  0  0  0  0  0  0  0  0  0  0
   -0.1590   16.8200  -11.2330 H   0  0  0  0  0  0  0  0  0  0  0  0
   -1.4240   18.6160  -10.0480 H   0  0  0  0  0  0  0  0  0  0  0  0
   -4.0900   18.7770  -13.3250 H   0  0  0  0  0  0  0  0  0  0  0  0
   -2.8150   16.9700  -14.4910 H   0  0  0  0  0  0  0  0  0  0  0  0
  1  2  1  0  0  0  0
  2 24  1  0  0  0  0
  3  4  1  0  0  0  0
  3  2  1  0  0  0  0
  4 28  1  0  0  0  0
  5  9  1  0  0  0  0
  5  4  1  6  0  0  0
  6 16  1  6  0  0  0
  6 17  1  0  0  0  0
  6  5  1  0  0  0  0
  7 31  1  0  0  0  0
  7  6  1  0  0  0  0
  7  8  1  0  0  0  0
  8  9  1  0  0  0  0
  9  1  1  6  0  0  0
 10  8  1  0  0  0  0
 10 11  1  0  0  0  0
 11 32  1  0  0  0  0
 12 11  2  0  0  0  0
 12 33  1  0  0  0  0
 13 12  1  0  0  0  0
 14 15  1  0  0  0  0
 14 13  2  0  0  0  0
 15 10  2  0  0  0  0
 16 37  1  0  0  0  0
 17 18  1  0  0  0  0
 18 38  1  0  0  0  0
 18 19  2  0  0  0  0
 19 39  1  0  0  0  0
 20 19  1  0  0  0  0
 20 23  1  0  0  0  0
 21 20  2  0  0  0  0
 22 17  2  0  0  0  0
 22 21  1  0  0  0  0
 25  2  1  0  0  0  0
 26  3  1  0  0  0  0
 27  3  1  0  0  0  0
 29  4  1  0  0  0  0
 30  7  1  0  0  0  0
 34 13  1  0  0  0  0
 35 14  1  0  0  0  0
 36 15  1  0  0  0  0
 40 21  1  0  0  0  0
 41 22  1  0  0  0  0
M  END
>  <Pose>
1

>  <Score>
-4.20

$$$$
