
 OpenBabel03232203513D

 49 52  0  0  0  0  0  0  0  0999 V2000
   -5.1170    8.2510  -15.0750 S   0  0  0  0  0  0  0  0  0  0  0  0
   -6.4880    9.4350  -14.9060 C   0  0  0  0  0  0  0  0  0  0  0  0
   -6.0060   10.2120  -13.7220 C   0  0  0  0  0  0  0  0  0  0  0  0
   -4.6890    9.9830  -13.4050 N   0  0  0  0  0  0  0  0  0  0  0  0
   -4.0190    9.0810  -13.9270 C   0  0  0  0  0  0  0  0  0  0  0  0
   -2.3190    8.5800  -13.6950 S   0  0  0  0  0  0  0  0  0  0  0  0
   -1.3570    9.7910  -12.8130 C   0  0  0  0  0  0  0  0  0  0  0  0
    0.0810    9.8580  -13.1140 C   0  0  0  0  0  0  0  0  0  0  0  0
    0.9640    8.8530  -13.0650 N   0  0  0  0  0  0  0  0  0  0  0  0
    2.1490    9.3980  -13.3920 N   0  0  0  0  0  0  0  0  0  0  0  0
    2.0340   10.6550  -13.6300 N   0  0  0  0  0  0  0  0  0  0  0  0
    0.7190   11.0500  -13.4740 C   0  0  0  0  0  0  0  0  0  0  0  0
    0.2600   12.4030  -13.6550 C   0  0  0  0  0  0  0  0  0  0  0  0
   -0.3250   12.6700  -14.7780 O   0  0  0  0  0  0  0  0  0  0  0  0
    0.3590   13.4770  -12.7770 N   0  0  0  0  0  0  0  0  0  0  0  0
   -0.6920   14.4580  -12.7270 N   0  0  0  0  0  0  0  0  0  0  0  0
   -0.4480   15.7080  -12.7350 C   0  0  0  0  0  0  0  0  0  0  0  0
   -1.4820   16.7330  -12.6860 C   0  0  0  0  0  0  0  0  0  0  0  0
   -1.5630   17.6300  -11.6450 C   0  0  0  0  0  0  0  0  0  0  0  0
   -2.5330   18.6100  -11.5880 C   0  0  0  0  0  0  0  0  0  0  0  0
   -3.4700   18.7310  -12.5810 C   0  0  0  0  0  0  0  0  0  0  0  0
   -3.4170   17.8330  -13.6590 C   0  0  0  0  0  0  0  0  0  0  0  0
   -2.4360   16.8650  -13.6870 C   0  0  0  0  0  0  0  0  0  0  0  0
   -4.3850   18.0100  -14.6190 O   0  0  0  0  0  0  0  0  0  0  0  0
   -5.7640   17.8000  -14.4440 C   0  0  0  0  0  0  0  0  0  0  0  0
   -4.4350   19.7230  -12.5030 O   0  0  0  0  0  0  0  0  0  0  0  0
   -2.6050   19.8330  -10.1210 B   0  0  0  0  0  0  0  0  0  0  0  0
    0.8300    7.4760  -12.7230 C   0  0  0  0  0  0  0  0  0  0  0  0
    0.6550    6.4210  -13.5460 N   0  0  0  0  0  0  0  0  0  0  0  0
    0.5980    5.3140  -12.9060 O   0  0  0  0  0  0  0  0  0  0  0  0
    0.7310    5.5730  -11.6440 N   0  0  0  0  0  0  0  0  0  0  0  0
    0.8830    6.9190  -11.4630 C   0  0  0  0  0  0  0  0  0  0  0  0
    1.0750    7.5850  -10.2310 N   0  0  0  0  0  4  0  0  0  0  0  0
   -6.6330   10.0390  -15.8120 H   0  0  0  0  0  0  0  0  0  0  0  0
   -7.3810    8.8580  -14.5970 H   0  0  0  0  0  0  0  0  0  0  0  0
   -6.7260   10.1450  -12.8680 H   0  0  0  0  0  0  0  0  0  0  0  0
   -6.0940   11.3070  -14.0260 H   0  0  0  0  0  0  0  0  0  0  0  0
   -1.5140    9.6190  -11.7350 H   0  0  0  0  0  0  0  0  0  0  0  0
   -1.7420   10.8440  -13.0160 H   0  0  0  0  0  0  0  0  0  0  0  0
    1.1190   13.7030  -12.1130 H   0  0  0  0  0  0  0  0  0  0  0  0
    0.5770   16.0240  -12.7820 H   0  0  0  0  0  0  0  0  0  0  0  0
   -0.8250   17.5460  -10.8470 H   0  0  0  0  0  0  0  0  0  0  0  0
   -2.4080   16.1790  -14.5220 H   0  0  0  0  0  0  0  0  0  0  0  0
   -6.2380   17.3950  -15.3820 H   0  0  0  0  0  0  0  0  0  0  0  0
   -5.9620   17.1530  -13.5810 H   0  0  0  0  0  0  0  0  0  0  0  0
   -6.2470   18.8090  -14.3140 H   0  0  0  0  0  0  0  0  0  0  0  0
    0.8650    8.6070  -10.3790 H   0  0  0  0  0  0  0  0  0  0  0  0
    2.0170    7.4690   -9.8200 H   0  0  0  0  0  0  0  0  0  0  0  0
    0.3540    7.2380   -9.5410 H   0  0  0  0  0  0  0  0  0  0  0  0
  1  2  1  0  0  0  0
  1  5  1  0  0  0  0
  2 35  1  0  0  0  0
  2  3  1  0  0  0  0
  3  4  1  0  0  0  0
  3 36  1  0  0  0  0
  5  6  1  0  0  0  0
  5  4  2  0  0  0  0
  6  7  1  0  0  0  0
  7 38  1  0  0  0  0
  8  9  1  0  0  0  0
  8  7  1  0  0  0  0
  9 28  1  0  0  0  0
 10  9  1  0  0  0  0
 11 12  1  0  0  0  0
 11 10  2  0  0  0  0
 12  8  2  0  0  0  0
 13 12  1  0  0  0  0
 13 15  1  0  0  0  0
 14 13  2  0  0  0  0
 15 16  1  0  0  0  0
 15 40  1  0  0  0  0
 17 16  2  0  0  0  0
 17 18  1  0  0  0  0
 18 19  1  0  0  0  0
 19 20  2  0  0  0  0
 19 42  1  0  0  0  0
 20 27  1  0  0  0  0
 21 26  1  0  0  0  0
 21 20  1  0  0  0  0
 22 21  2  0  0  0  0
 23 22  1  0  0  0  0
 23 18  2  0  0  0  0
 24 25  1  0  0  0  0
 24 22  1  0  0  0  0
 25 46  1  0  0  0  0
 25 45  1  0  0  0  0
 28 32  1  0  0  0  0
 29 30  1  0  0  0  0
 29 28  2  0  0  0  0
 30 31  1  0  0  0  0
 31 32  2  0  0  0  0
 32 33  1  0  0  0  0
 33 48  1  0  0  0  0
 33 49  1  0  0  0  0
 34  2  1  0  0  0  0
 37  3  1  0  0  0  0
 39  7  1  0  0  0  0
 41 17  1  0  0  0  0
 43 23  1  0  0  0  0
 44 25  1  0  0  0  0
 47 33  1  0  0  0  0
M  END
>  <Pose>
1

>  <Score>
-9.69

$$$$
