
 OpenBabel03232203513D

 45 49  0  0  1  0  0  0  0  0999 V2000
   -3.3910    8.2720  -14.3690 S   0  0  0  0  0  0  0  0  0  0  0  0
   -2.8330    6.5340  -14.7060 C   0  0  0  0  0  0  0  0  0  0  0  0
   -1.3830    6.8510  -14.9700 C   0  0  0  0  0  0  0  0  0  0  0  0
   -0.9040    7.8180  -14.0240 N   0  0  0  0  0  0  0  0  0  0  0  0
   -1.8680    8.7450  -13.5760 C   0  0  0  0  0  0  0  0  0  0  0  0
   -1.5660    9.6620  -12.7580 N   0  0  0  0  0  0  0  0  0  0  0  0
   -0.2290    9.8430  -12.2510 C   0  0  0  0  0  0  0  0  0  0  0  0
    0.0190   10.4450  -11.1770 O   0  0  0  0  0  0  0  0  0  0  0  0
    0.8870    9.2800  -13.0580 C   0  0  1  0  0  0  0  0  0  0  0  0
    0.4510    7.9400  -13.5170 C   0  0  0  0  0  0  0  0  0  0  0  0
    1.1640    6.9080  -13.4990 O   0  0  0  0  0  0  0  0  0  0  0  0
    1.1470   10.2240  -14.1790 C   0  0  2  0  0  0  0  0  0  0  0  0
    2.5490   10.1450  -14.7320 C   0  0  2  0  0  0  0  0  0  0  0  0
    2.8010    8.9680  -15.5790 C   0  0  0  0  0  0  0  0  0  0  0  0
    2.3540    8.9400  -16.7790 O   0  0  0  0  0  0  0  0  0  0  0  0
    3.5510    7.8410  -15.0610 N   0  0  0  0  0  0  0  0  0  0  0  0
    3.6770    6.5450  -15.6680 C   0  0  0  0  0  0  0  0  0  0  0  0
    3.8450    5.4770  -14.6160 C   0  0  0  0  0  0  0  0  0  0  0  0
    5.0190    6.4150  -13.5300 S   0  0  0  0  0  0  0  0  0  0  0  0
    4.2620    8.0060  -13.8520 C   0  0  0  0  0  0  0  0  0  0  0  0
    4.2760    9.1030  -13.1990 N   0  0  0  0  0  0  0  0  0  0  0  0
    3.5580   10.2630  -13.6500 C   0  0  0  0  0  0  0  0  0  0  0  0
    3.8160   11.3630  -13.1000 O   0  0  0  0  0  0  0  0  0  0  0  0
    0.7930   11.5950  -13.7470 C   0  0  0  0  0  0  0  0  0  0  0  0
    1.6310   12.3150  -12.9040 C   0  0  0  0  0  0  0  0  0  0  0  0
    1.3120   13.5940  -12.4980 C   0  0  0  0  0  0  0  0  0  0  0  0
    0.1460   14.1900  -12.9250 C   0  0  0  0  0  0  0  0  0  0  0  0
   -0.6730   13.4820  -13.7500 C   0  0  0  0  0  0  0  0  0  0  0  0
   -0.3680   12.2020  -14.1650 C   0  0  0  0  0  0  0  0  0  0  0  0
    2.4560   14.5910  -11.3410 B   0  0  0  0  0  0  0  0  0  0  0  0
   -2.9370    5.9270  -13.8060 H   0  0  0  0  0  0  0  0  0  0  0  0
   -3.3090    6.1560  -15.6050 H   0  0  0  0  0  0  0  0  0  0  0  0
   -0.8150    5.9050  -14.8710 H   0  0  0  0  0  0  0  0  0  0  0  0
   -1.3270    7.2580  -16.0080 H   0  0  0  0  0  0  0  0  0  0  0  0
    1.8120    9.1860  -12.4330 H   0  0  0  0  0  0  0  0  0  0  0  0
    0.4720    9.9430  -15.0350 H   0  0  0  0  0  0  0  0  0  0  0  0
    2.7380   11.0560  -15.3800 H   0  0  0  0  0  0  0  0  0  0  0  0
    4.5760    6.4670  -16.3210 H   0  0  0  0  0  0  0  0  0  0  0  0
    2.7500    6.2800  -16.2170 H   0  0  0  0  0  0  0  0  0  0  0  0
    2.9190    5.2570  -14.0630 H   0  0  0  0  0  0  0  0  0  0  0  0
    4.3410    4.6100  -15.0450 H   0  0  0  0  0  0  0  0  0  0  0  0
    2.5460   11.8640  -12.5600 H   0  0  0  0  0  0  0  0  0  0  0  0
   -0.1200   15.2090  -12.6090 H   0  0  0  0  0  0  0  0  0  0  0  0
   -1.6100   13.9310  -14.1070 H   0  0  0  0  0  0  0  0  0  0  0  0
   -1.0760   11.6870  -14.8370 H   0  0  0  0  0  0  0  0  0  0  0  0
  1  5  1  0  0  0  0
  2  1  1  0  0  0  0
  2 31  1  0  0  0  0
  3 33  1  0  0  0  0
  3  2  1  0  0  0  0
  3  4  1  0  0  0  0
  4  5  1  0  0  0  0
  4 10  1  0  0  0  0
  5  6  2  0  0  0  0
  6  7  1  0  0  0  0
  7  8  2  0  0  0  0
  9 35  1  1  0  0  0
  9  7  1  0  0  0  0
 10 11  2  0  0  0  0
 10  9  1  0  0  0  0
 12 36  1  6  0  0  0
 12 24  1  0  0  0  0
 12  9  1  0  0  0  0
 13 37  1  6  0  0  0
 13 12  1  0  0  0  0
 13 22  1  0  0  0  0
 14 16  1  0  0  0  0
 14 13  1  0  0  0  0
 15 14  2  0  0  0  0
 16 20  1  0  0  0  0
 17 16  1  0  0  0  0
 17 18  1  0  0  0  0
 18 40  1  0  0  0  0
 18 19  1  0  0  0  0
 20 19  1  0  0  0  0
 20 21  2  0  0  0  0
 22 21  1  0  0  0  0
 22 23  2  0  0  0  0
 24 25  1  0  0  0  0
 25 42  1  0  0  0  0
 25 26  2  0  0  0  0
 26 30  1  0  0  0  0
 27 43  1  0  0  0  0
 27 26  1  0  0  0  0
 28 27  2  0  0  0  0
 29 28  1  0  0  0  0
 29 24  2  0  0  0  0
 32  2  1  0  0  0  0
 34  3  1  0  0  0  0
 38 17  1  0  0  0  0
 39 17  1  0  0  0  0
 41 18  1  0  0  0  0
 44 28  1  0  0  0  0
 45 29  1  0  0  0  0
M  END
>  <Pose>
1

>  <Score>
-3.31

$$$$
