
 OpenBabel03232203513D

 45 49  0  0  1  0  0  0  0  0999 V2000
    5.0940    6.7340  -13.5830 S   0  0  0  0  0  0  0  0  0  0  0  0
    4.2310    5.7260  -14.8660 C   0  0  0  0  0  0  0  0  0  0  0  0
    3.9180    6.8150  -15.8430 C   0  0  0  0  0  0  0  0  0  0  0  0
    3.5770    8.0220  -15.1910 N   0  0  0  0  0  0  0  0  0  0  0  0
    4.1440    8.2390  -13.9180 C   0  0  0  0  0  0  0  0  0  0  0  0
    3.9430    9.3000  -13.2020 N   0  0  0  0  0  0  0  0  0  0  0  0
    3.1250   10.3900  -13.7100 C   0  0  0  0  0  0  0  0  0  0  0  0
    3.4170   11.5000  -13.2010 O   0  0  0  0  0  0  0  0  0  0  0  0
    2.1330   10.0600  -14.6940 C   0  0  1  0  0  0  0  0  0  0  0  0
    2.7230    9.0810  -15.6820 C   0  0  0  0  0  0  0  0  0  0  0  0
    2.4870    9.1750  -16.9000 O   0  0  0  0  0  0  0  0  0  0  0  0
    0.7480    9.7030  -14.3510 C   0  0  2  0  0  0  0  0  0  0  0  0
   -0.3010   10.7180  -14.1960 C   0  0  1  0  0  0  0  0  0  0  0  0
   -1.2560   10.5700  -15.3800 C   0  0  0  0  0  0  0  0  0  0  0  0
   -0.9390   11.0360  -16.4990 O   0  0  0  0  0  0  0  0  0  0  0  0
   -2.5230    9.8930  -15.2100 N   0  0  0  0  0  0  0  0  0  0  0  0
   -3.3710    9.3750  -16.2280 C   0  0  0  0  0  0  0  0  0  0  0  0
   -4.1600    8.1880  -15.7350 C   0  0  0  0  0  0  0  0  0  0  0  0
   -4.5320    8.8450  -14.0410 S   0  0  0  0  0  0  0  0  0  0  0  0
   -2.9950    9.7370  -13.8840 C   0  0  0  0  0  0  0  0  0  0  0  0
   -2.3770   10.1570  -12.8520 N   0  0  0  0  0  0  0  0  0  0  0  0
   -1.1010   10.8480  -13.0080 C   0  0  0  0  0  0  0  0  0  0  0  0
   -0.7670   11.5560  -12.0410 O   0  0  0  0  0  0  0  0  0  0  0  0
    0.6760    8.5990  -13.3180 C   0  0  0  0  0  0  0  0  0  0  0  0
    0.1290    7.3770  -13.6260 C   0  0  0  0  0  0  0  0  0  0  0  0
    0.0770    6.4030  -12.6610 C   0  0  0  0  0  0  0  0  0  0  0  0
    0.5450    6.5870  -11.3980 C   0  0  0  0  0  0  0  0  0  0  0  0
    1.0970    7.7980  -11.0600 C   0  0  0  0  0  0  0  0  0  0  0  0
    1.1500    8.7880  -12.0410 C   0  0  0  0  0  0  0  0  0  0  0  0
    0.4680    5.2190  -10.0550 B   0  0  0  0  0  0  0  0  0  0  0  0
    4.9920    5.0370  -15.2820 H   0  0  0  0  0  0  0  0  0  0  0  0
    3.3570    5.2240  -14.4470 H   0  0  0  0  0  0  0  0  0  0  0  0
    4.7810    6.9390  -16.5490 H   0  0  0  0  0  0  0  0  0  0  0  0
    3.0460    6.4470  -16.4400 H   0  0  0  0  0  0  0  0  0  0  0  0
    2.0370   11.0090  -15.3510 H   0  0  0  0  0  0  0  0  0  0  0  0
    0.4050    9.1160  -15.3060 H   0  0  0  0  0  0  0  0  0  0  0  0
    0.1550   11.7530  -14.4370 H   0  0  0  0  0  0  0  0  0  0  0  0
   -4.0940   10.1470  -16.5980 H   0  0  0  0  0  0  0  0  0  0  0  0
   -2.7560    8.9970  -17.0730 H   0  0  0  0  0  0  0  0  0  0  0  0
   -3.5500    7.2920  -15.6190 H   0  0  0  0  0  0  0  0  0  0  0  0
   -5.0780    8.0660  -16.3020 H   0  0  0  0  0  0  0  0  0  0  0  0
   -0.2570    7.1900  -14.6400 H   0  0  0  0  0  0  0  0  0  0  0  0
   -0.3570    5.4430  -12.9150 H   0  0  0  0  0  0  0  0  0  0  0  0
    1.4820    7.9750  -10.0550 H   0  0  0  0  0  0  0  0  0  0  0  0
    1.5950    9.7330  -11.7350 H   0  0  0  0  0  0  0  0  0  0  0  0
  2 32  1  0  0  0  0
  2  1  1  0  0  0  0
  3  4  1  0  0  0  0
  3  2  1  0  0  0  0
  4  5  1  0  0  0  0
  5  1  1  0  0  0  0
  5  6  2  0  0  0  0
  7  6  1  0  0  0  0
  7  8  2  0  0  0  0
  9 35  1  6  0  0  0
  9 12  1  0  0  0  0
  9  7  1  0  0  0  0
 10  4  1  0  0  0  0
 10  9  1  0  0  0  0
 11 10  2  0  0  0  0
 12 36  1  6  0  0  0
 12 13  1  0  0  0  0
 12 24  1  0  0  0  0
 13 37  1  6  0  0  0
 13 22  1  0  0  0  0
 14 16  1  0  0  0  0
 14 13  1  0  0  0  0
 15 14  2  0  0  0  0
 16 20  1  0  0  0  0
 17 18  1  0  0  0  0
 17 16  1  0  0  0  0
 18 40  1  0  0  0  0
 18 19  1  0  0  0  0
 19 20  1  0  0  0  0
 20 21  2  0  0  0  0
 22 21  1  0  0  0  0
 22 23  2  0  0  0  0
 24 29  1  0  0  0  0
 25 24  2  0  0  0  0
 25 26  1  0  0  0  0
 26 27  2  0  0  0  0
 27 28  1  0  0  0  0
 27 30  1  0  0  0  0
 28 44  1  0  0  0  0
 29 45  1  0  0  0  0
 29 28  2  0  0  0  0
 31  2  1  0  0  0  0
 33  3  1  0  0  0  0
 34  3  1  0  0  0  0
 38 17  1  0  0  0  0
 39 17  1  0  0  0  0
 41 18  1  0  0  0  0
 42 25  1  0  0  0  0
 43 26  1  0  0  0  0
M  END
>  <Pose>
1

>  <Score>
-2.64

$$$$
