
 OpenBabel03232203513D

 25 28  0  0  0  0  0  0  0  0999 V2000
    4.2420   12.0840  -13.3070 S   0  0  0  0  0  0  0  0  0  0  0  0
    3.9800   10.5010  -13.9200 C   0  0  0  0  0  0  0  0  0  0  0  0
    2.7570   10.2430  -13.4580 N   0  0  0  0  0  0  0  0  0  0  0  0
    2.4860    8.9760  -13.9210 C   0  0  0  0  0  0  0  0  0  0  0  0
    3.5250    8.5280  -14.6240 N   0  0  0  0  0  0  0  0  0  0  0  0
    4.4700    9.4460  -14.6470 N   0  0  0  0  0  0  0  0  0  0  0  0
    1.2440    8.2120  -13.6850 C   0  0  0  0  0  0  0  0  0  0  0  0
    0.5270    7.7160  -14.7100 N   0  0  0  0  0  0  0  0  0  0  0  0
   -0.6080    7.0190  -14.4810 C   0  0  0  0  0  0  0  0  0  0  0  0
   -1.0440    6.8080  -13.2020 C   0  0  0  0  0  0  0  0  0  0  0  0
   -0.3230    7.3050  -12.1960 N   0  0  0  0  0  0  0  0  0  0  0  0
    0.8150    8.0060  -12.3960 C   0  0  0  0  0  0  0  0  0  0  0  0
    2.1600   11.1250  -12.7630 N   0  0  0  0  0  0  0  0  0  0  0  0
    2.7320   12.2820  -12.4960 C   0  0  0  0  0  0  0  0  0  0  0  0
    2.2370   13.4280  -11.7260 C   0  0  0  0  0  0  0  0  0  0  0  0
    2.8070   13.9700  -10.6430 N   0  0  0  0  0  0  0  0  0  0  0  0
    2.0580   15.0020  -10.2200 N   0  0  0  0  0  0  0  0  0  0  0  0
    0.9940   15.1280  -11.0380 C   0  0  0  0  0  0  0  0  0  0  0  0
    1.1110   14.1210  -12.0000 C   0  0  0  0  0  0  0  0  0  0  0  0
   -0.1300   13.8520  -13.3940 B   0  0  0  0  0  0  0  0  0  0  0  0
   -1.1440    6.6440  -15.3210 H   0  0  0  0  0  0  0  0  0  0  0  0
   -1.9370    6.2580  -13.0230 H   0  0  0  0  0  0  0  0  0  0  0  0
    1.3970    8.4090  -11.5660 H   0  0  0  0  0  0  0  0  0  0  0  0
    2.2810   15.5970   -9.3900 H   0  0  0  0  0  0  0  0  0  0  0  0
    0.2320   15.8830  -10.9210 H   0  0  0  0  0  0  0  0  0  0  0  0
  1 14  1  0  0  0  0
  2  3  1  0  0  0  0
  2  1  1  0  0  0  0
  3 13  1  0  0  0  0
  4  7  1  0  0  0  0
  4  3  1  0  0  0  0
  5  4  2  0  0  0  0
  6  5  1  0  0  0  0
  6  2  2  0  0  0  0
  7 12  1  0  0  0  0
  8  9  1  0  0  0  0
  8  7  2  0  0  0  0
  9 10  2  0  0  0  0
 10 22  1  0  0  0  0
 10 11  1  0  0  0  0
 12 11  2  0  0  0  0
 12 23  1  0  0  0  0
 13 14  2  0  0  0  0
 14 15  1  0  0  0  0
 15 16  2  0  0  0  0
 16 17  1  0  0  0  0
 17 24  1  0  0  0  0
 18 25  1  0  0  0  0
 18 17  1  0  0  0  0
 19 15  1  0  0  0  0
 19 18  2  0  0  0  0
 20 19  1  0  0  0  0
 21  9  1  0  0  0  0
M  END
>  <Pose>
1

>  <Score>
-6.78

$$$$
