
 OpenBabel03232203513D

 47 50  0  0  0  0  0  0  0  0999 V2000
   -5.1230    7.4250  -15.4810 S   0  0  0  0  0  0  0  0  0  0  0  0
   -3.5250    7.3320  -14.8730 C   0  0  0  0  0  0  0  0  0  0  0  0
   -2.5280    6.3950  -14.9440 N   0  0  0  0  0  0  0  0  0  0  0  0
   -1.3280    6.6140  -14.3810 C   0  0  0  0  0  0  0  0  0  0  0  0
   -0.3660    5.8230  -14.3960 O   0  0  0  0  0  0  0  0  0  0  0  0
   -1.1950    7.8250  -13.7440 C   0  0  0  0  0  0  0  0  0  0  0  0
   -2.1820    8.7620  -13.6680 C   0  0  0  0  0  0  0  0  0  0  0  0
   -3.3970    8.5100  -14.2550 N   0  0  0  0  0  0  0  0  0  0  0  0
   -4.3940    9.3070  -14.2820 N   0  0  0  0  0  0  0  0  0  0  0  0
   -5.5070    9.0000  -14.8850 C   0  0  0  0  0  0  0  0  0  0  0  0
   -6.7260    9.7640  -15.0430 N   0  0  0  0  0  0  0  0  0  0  0  0
   -7.4370    9.7390  -16.2630 C   0  0  0  0  0  0  0  0  0  0  0  0
   -8.6130   10.6850  -16.2050 C   0  0  0  0  0  0  0  0  0  0  0  0
   -8.2420   11.8530  -15.5340 O   0  0  0  0  0  0  0  0  0  0  0  0
   -8.1090   11.6010  -14.1630 C   0  0  0  0  0  0  0  0  0  0  0  0
   -7.1170   10.5110  -13.8960 C   0  0  0  0  0  0  0  0  0  0  0  0
   -1.8850   10.0090  -12.9650 C   0  0  0  0  0  0  0  0  0  0  0  0
   -2.5160   10.2850  -11.8800 O   0  0  0  0  0  0  0  0  0  0  0  0
   -0.9430   10.9670  -13.3930 N   0  0  0  0  0  0  0  0  0  0  0  0
    0.3210   10.5300  -13.9740 C   0  0  0  0  0  0  0  0  0  0  0  0
    1.4530   11.3090  -13.4150 C   0  0  0  0  0  0  0  0  0  0  0  0
    2.7260   10.7600  -13.4350 C   0  0  0  0  0  0  0  0  0  0  0  0
    3.7730   11.4550  -12.8830 C   0  0  0  0  0  0  0  0  0  0  0  0
    3.6070   12.6860  -12.3040 C   0  0  0  0  0  0  0  0  0  0  0  0
    2.3410   13.2410  -12.2790 C   0  0  0  0  0  0  0  0  0  0  0  0
    1.2870   12.5370  -12.8390 C   0  0  0  0  0  0  0  0  0  0  0  0
    2.0250   14.9530  -11.4970 B   0  0  0  0  0  0  0  0  0  0  0  0
    2.8800    9.5230  -14.0190 O   0  0  0  0  0  0  0  0  0  0  0  0
    2.7100    9.4160  -15.4320 C   0  0  0  0  0  0  0  0  0  0  0  0
   -0.2220    8.0240  -13.2780 H   0  0  0  0  0  0  0  0  0  0  0  0
   -7.7860    8.6960  -16.5020 H   0  0  0  0  0  0  0  0  0  0  0  0
   -6.8320   10.0660  -17.1440 H   0  0  0  0  0  0  0  0  0  0  0  0
   -9.4040   10.1760  -15.5990 H   0  0  0  0  0  0  0  0  0  0  0  0
   -8.9400   10.9640  -17.2110 H   0  0  0  0  0  0  0  0  0  0  0  0
   -7.8260   12.5660  -13.6500 H   0  0  0  0  0  0  0  0  0  0  0  0
   -9.1320   11.3600  -13.7720 H   0  0  0  0  0  0  0  0  0  0  0  0
   -6.2170   10.9310  -13.3520 H   0  0  0  0  0  0  0  0  0  0  0  0
   -7.6190    9.7910  -13.1780 H   0  0  0  0  0  0  0  0  0  0  0  0
   -1.1230   11.9840  -13.2970 H   0  0  0  0  0  0  0  0  0  0  0  0
    0.3180   10.7400  -15.0870 H   0  0  0  0  0  0  0  0  0  0  0  0
    0.4890    9.4500  -13.8790 H   0  0  0  0  0  0  0  0  0  0  0  0
    4.7720   11.0090  -12.9030 H   0  0  0  0  0  0  0  0  0  0  0  0
    4.4320   13.2460  -11.8610 H   0  0  0  0  0  0  0  0  0  0  0  0
    0.3150   13.0310  -12.7840 H   0  0  0  0  0  0  0  0  0  0  0  0
    2.8810    8.3730  -15.7510 H   0  0  0  0  0  0  0  0  0  0  0  0
    1.6840    9.6860  -15.7420 H   0  0  0  0  0  0  0  0  0  0  0  0
    3.3940   10.1300  -15.9150 H   0  0  0  0  0  0  0  0  0  0  0  0
  1 10  1  0  0  0  0
  1  2  1  0  0  0  0
  2  8  1  0  0  0  0
  3  2  2  0  0  0  0
  3  4  1  0  0  0  0
  4  6  1  0  0  0  0
  5  4  2  0  0  0  0
  6  7  2  0  0  0  0
  6 30  1  0  0  0  0
  7 17  1  0  0  0  0
  8  7  1  0  0  0  0
  9  8  1  0  0  0  0
 10  9  2  0  0  0  0
 11 10  1  0  0  0  0
 11 16  1  0  0  0  0
 12 13  1  0  0  0  0
 12 11  1  0  0  0  0
 13 33  1  0  0  0  0
 13 14  1  0  0  0  0
 14 15  1  0  0  0  0
 15 16  1  0  0  0  0
 15 36  1  0  0  0  0
 15 35  1  0  0  0  0
 16 37  1  0  0  0  0
 16 38  1  0  0  0  0
 17 18  2  0  0  0  0
 19 39  1  0  0  0  0
 19 17  1  0  0  0  0
 20 41  1  0  0  0  0
 20 21  1  0  0  0  0
 20 19  1  0  0  0  0
 21 26  1  0  0  0  0
 22 21  2  0  0  0  0
 22 23  1  0  0  0  0
 23 24  2  0  0  0  0
 24 25  1  0  0  0  0
 24 43  1  0  0  0  0
 25 27  1  0  0  0  0
 26 44  1  0  0  0  0
 26 25  2  0  0  0  0
 28 22  1  0  0  0  0
 29 28  1  0  0  0  0
 31 12  1  0  0  0  0
 32 12  1  0  0  0  0
 34 13  1  0  0  0  0
 40 20  1  0  0  0  0
 42 23  1  0  0  0  0
 45 29  1  0  0  0  0
 46 29  1  0  0  0  0
 47 29  1  0  0  0  0
M  END
>  <Pose>
1

>  <Score>
-7.34

$$$$
