
 OpenBabel03232203513D

 40 43  0  0  1  0  0  0  0  0999 V2000
    2.8260   14.1510  -11.4160 S   0  0  0  0  0  0  0  0  0  0  0  0
    1.2780   14.0340  -12.3030 C   0  0  1  0  0  0  0  0  0  0  0  0
    0.1920   14.6880  -12.5590 N   0  0  0  0  0  0  0  0  0  0  0  0
   -0.6800   13.9490  -13.3920 C   0  0  0  0  0  0  0  0  0  0  0  0
    0.0400   12.6660  -13.6490 C   0  0  0  0  0  0  0  0  0  0  0  0
    1.3260   12.7700  -12.9170 N   0  0  0  0  0  0  0  0  0  0  0  0
    2.4790   12.0100  -12.6870 C   0  0  0  0  0  0  0  0  0  0  0  0
    3.4070   12.5390  -11.9230 C   0  0  0  0  0  0  0  0  0  0  0  0
    2.7260   10.6480  -13.2640 C   0  0  0  0  0  0  0  0  0  0  0  0
    2.0090    9.5490  -12.8470 C   0  0  0  0  0  0  0  0  0  0  0  0
    2.1980    8.2760  -13.3400 C   0  0  0  0  0  0  0  0  0  0  0  0
    3.1500    8.0470  -14.3070 C   0  0  0  0  0  0  0  0  0  0  0  0
    3.8750    9.1220  -14.7380 C   0  0  0  0  0  0  0  0  0  0  0  0
    3.6740   10.4180  -14.2270 C   0  0  0  0  0  0  0  0  0  0  0  0
   -0.0330   16.0420  -12.0210 C   0  0  0  0  0  0  0  0  0  0  0  0
   -1.1410   16.6340  -12.7970 C   0  0  0  0  0  0  0  0  0  0  0  0
   -1.3740   16.2800  -13.9700 O   0  0  0  0  0  0  0  0  0  0  0  0
   -1.9890   17.6540  -12.1960 C   0  0  0  0  0  0  0  0  0  0  0  0
   -3.1760   18.0560  -12.8110 C   0  0  0  0  0  0  0  0  0  0  0  0
   -3.9950   19.0270  -12.2670 C   0  0  0  0  0  0  0  0  0  0  0  0
   -3.6060   19.5970  -11.0840 C   0  0  0  0  0  0  0  0  0  0  0  0
   -2.4400   19.2330  -10.4350 C   0  0  0  0  0  0  0  0  0  0  0  0
   -1.6290   18.2490  -11.0050 C   0  0  0  0  0  0  0  0  0  0  0  0
   -4.7500   20.9430  -10.3370 B   0  0  0  0  0  0  0  0  0  0  0  0
   -0.9430   14.4950  -14.3410 H   0  0  0  0  0  0  0  0  0  0  0  0
   -1.6720   13.8130  -12.8840 H   0  0  0  0  0  0  0  0  0  0  0  0
    0.2280   12.6180  -14.7430 H   0  0  0  0  0  0  0  0  0  0  0  0
   -0.5950   11.8610  -13.2490 H   0  0  0  0  0  0  0  0  0  0  0  0
    4.3810   12.1130  -11.6170 H   0  0  0  0  0  0  0  0  0  0  0  0
    1.2390    9.6540  -12.0840 H   0  0  0  0  0  0  0  0  0  0  0  0
    1.6060    7.4510  -12.9770 H   0  0  0  0  0  0  0  0  0  0  0  0
    3.2960    7.0510  -14.6900 H   0  0  0  0  0  0  0  0  0  0  0  0
    4.6440    9.0050  -15.5020 H   0  0  0  0  0  0  0  0  0  0  0  0
    4.2710   11.2240  -14.6030 H   0  0  0  0  0  0  0  0  0  0  0  0
   -0.3920   15.8520  -10.9690 H   0  0  0  0  0  0  0  0  0  0  0  0
    0.8840   16.6280  -12.0150 H   0  0  0  0  0  0  0  0  0  0  0  0
   -3.4560   17.5920  -13.7350 H   0  0  0  0  0  0  0  0  0  0  0  0
   -4.9000   19.3330  -12.7390 H   0  0  0  0  0  0  0  0  0  0  0  0
   -2.1320   19.6770   -9.5090 H   0  0  0  0  0  0  0  0  0  0  0  0
   -0.7260   17.9860  -10.4740 H   0  0  0  0  0  0  0  0  0  0  0  0
  2  1  1  6  0  0  0
  3  2  1  0  0  0  0
  3 15  1  0  0  0  0
  4 26  1  0  0  0  0
  4  3  1  0  0  0  0
  5  4  1  0  0  0  0
  5 28  1  0  0  0  0
  5  6  1  0  0  0  0
  6  7  1  0  0  0  0
  6  2  1  0  0  0  0
  7  8  2  0  0  0  0
  8 29  1  0  0  0  0
  8  1  1  0  0  0  0
  9 10  1  0  0  0  0
  9  7  1  0  0  0  0
 10 30  1  0  0  0  0
 11 31  1  0  0  0  0
 11 10  2  0  0  0  0
 12 11  1  0  0  0  0
 13 12  2  0  0  0  0
 13 14  1  0  0  0  0
 14  9  2  0  0  0  0
 15 36  1  0  0  0  0
 15 35  1  0  0  0  0
 16 18  1  0  0  0  0
 16 15  1  0  0  0  0
 17 16  2  0  0  0  0
 18 23  1  0  0  0  0
 19 20  1  0  0  0  0
 19 18  2  0  0  0  0
 20 21  2  0  0  0  0
 21 22  1  0  0  0  0
 21 24  1  0  0  0  0
 22 39  1  0  0  0  0
 23 40  1  0  0  0  0
 23 22  2  0  0  0  0
 25  4  1  0  0  0  0
 27  5  1  0  0  0  0
 32 12  1  0  0  0  0
 33 13  1  0  0  0  0
 34 14  1  0  0  0  0
 37 19  1  0  0  0  0
 38 20  1  0  0  0  0
M  END
>  <Pose>
1

>  <Score>
-7.19

$$$$
