
 OpenBabel03232203513D

 43 46  0  0  1  0  0  0  0  0999 V2000
    4.0480    9.6190  -13.8120 Cl  0  0  0  0  0  0  0  0  0  0  0  0
    2.3680   10.1780  -13.9400 C   0  0  0  0  0  0  0  0  0  0  0  0
    2.0050   11.2980  -13.1740 C   0  0  0  0  0  0  0  0  0  0  0  0
    0.7140   11.7270  -13.2770 C   0  0  0  0  0  0  0  0  0  0  0  0
   -0.1790   11.0720  -14.1070 C   0  0  0  0  0  0  0  0  0  0  0  0
    0.1760    9.9690  -14.8640 C   0  0  0  0  0  0  0  0  0  0  0  0
    1.4890    9.5170  -14.7710 C   0  0  0  0  0  0  0  0  0  0  0  0
    3.0260   11.8430  -12.2120 C   0  0  2  0  0  0  0  0  0  0  0  0
    2.5800   11.3750  -10.9050 N   0  0  0  0  0  0  0  0  0  0  0  0
    2.1580   12.2970   -9.9590 C   0  0  0  0  0  0  0  0  0  0  0  0
    1.6110   13.6330  -10.4160 C   0  0  0  0  0  0  0  0  0  0  0  0
    2.1150   14.0540  -11.6500 N   0  0  0  0  0  0  0  0  0  0  0  0
    3.1690   13.2950  -12.2510 C   0  0  0  0  0  0  0  0  0  0  0  0
    1.6800   15.1800  -12.3940 C   0  0  0  0  0  0  0  0  0  0  0  0
    2.5240   15.4900  -13.3510 O   0  0  0  0  0  0  0  0  0  0  0  0
    0.5360   16.0160  -12.3180 C   0  0  0  0  0  0  0  0  0  0  0  0
   -0.6160   15.6030  -13.0310 C   0  0  0  0  0  0  0  0  0  0  0  0
   -1.7720   16.2540  -12.9100 N   0  0  0  0  0  0  0  0  0  0  0  0
   -1.9010   17.3190  -12.1160 C   0  0  0  0  0  0  0  0  0  0  0  0
   -0.8230   17.7650  -11.4010 C   0  0  0  0  0  0  0  0  0  0  0  0
    0.4050   17.1130  -11.5010 C   0  0  0  0  0  0  0  0  0  0  0  0
   -0.9570   18.8840  -10.5210 N   0  0  0  0  0  0  0  0  0  0  0  0
   -2.2340   19.5150  -10.4110 C   0  0  0  0  0  0  0  0  0  0  0  0
   -2.6100   20.1770   -9.4220 O   0  0  0  0  0  0  0  0  0  0  0  0
   -3.1710   19.3590  -11.5660 C   0  0  0  0  0  0  0  0  0  0  0  0
   -3.1230   17.9920  -12.0040 O   0  0  0  0  0  0  0  0  0  0  0  0
    0.3580   12.5850  -12.6780 H   0  0  0  0  0  0  0  0  0  0  0  0
   -1.2200   11.4410  -14.1640 H   0  0  0  0  0  0  0  0  0  0  0  0
   -0.5680    9.4880  -15.5130 H   0  0  0  0  0  0  0  0  0  0  0  0
    1.8220    8.6670  -15.3410 H   0  0  0  0  0  0  0  0  0  0  0  0
    3.9820   11.2970  -12.4190 H   0  0  0  0  0  0  0  0  0  0  0  0
    1.9370   10.5640  -11.0110 H   0  0  0  0  0  0  0  0  0  0  0  0
    1.3150   11.8110   -9.3550 H   0  0  0  0  0  0  0  0  0  0  0  0
    2.9690   12.4830   -9.1870 H   0  0  0  0  0  0  0  0  0  0  0  0
    2.1320   14.4230   -9.6620 H   0  0  0  0  0  0  0  0  0  0  0  0
    0.5620   13.7490  -10.1610 H   0  0  0  0  0  0  0  0  0  0  0  0
    3.3560   13.6840  -13.2970 H   0  0  0  0  0  0  0  0  0  0  0  0
    4.1650   13.5720  -11.7310 H   0  0  0  0  0  0  0  0  0  0  0  0
   -0.5300   14.7370  -13.6850 H   0  0  0  0  0  0  0  0  0  0  0  0
    1.1680   17.4920  -10.8980 H   0  0  0  0  0  0  0  0  0  0  0  0
   -0.1640   19.2380   -9.9660 H   0  0  0  0  0  0  0  0  0  0  0  0
   -2.9030   19.9840  -12.4200 H   0  0  0  0  0  0  0  0  0  0  0  0
   -4.2200   19.5600  -11.2850 H   0  0  0  0  0  0  0  0  0  0  0  0
  2  1  1  0  0  0  0
  2  3  1  0  0  0  0
  3  8  1  0  0  0  0
  4  3  2  0  0  0  0
  4 27  1  0  0  0  0
  5  4  1  0  0  0  0
  6  7  1  0  0  0  0
  6  5  2  0  0  0  0
  7  2  2  0  0  0  0
  8 31  1  6  0  0  0
  8  9  1  0  0  0  0
  9 10  1  0  0  0  0
 10 33  1  0  0  0  0
 10 34  1  0  0  0  0
 11 36  1  0  0  0  0
 11 10  1  0  0  0  0
 11 35  1  0  0  0  0
 12 11  1  0  0  0  0
 13  8  1  0  0  0  0
 13 38  1  0  0  0  0
 13 12  1  0  0  0  0
 14 16  1  0  0  0  0
 14 12  1  0  0  0  0
 15 14  2  0  0  0  0
 16 21  1  0  0  0  0
 17 18  1  0  0  0  0
 17 16  2  0  0  0  0
 18 19  2  0  0  0  0
 19 26  1  0  0  0  0
 19 20  1  0  0  0  0
 20 22  1  0  0  0  0
 21 20  2  0  0  0  0
 21 40  1  0  0  0  0
 22 23  1  0  0  0  0
 22 41  1  0  0  0  0
 23 24  2  0  0  0  0
 25 43  1  0  0  0  0
 25 23  1  0  0  0  0
 26 25  1  0  0  0  0
 28  5  1  0  0  0  0
 29  6  1  0  0  0  0
 30  7  1  0  0  0  0
 32  9  1  0  0  0  0
 37 13  1  0  0  0  0
 39 17  1  0  0  0  0
 42 25  1  0  0  0  0
M  END
>  <Pose>
1

>  <Score>
-4.30

$$$$
