
 OpenBabel03232203513D

 63 66  0  0  1  0  0  0  0  0999 V2000
    4.0000   10.8470  -12.8030 B   0  0  0  0  0  0  0  0  0  0  0  0
    2.9510   12.3890  -12.3390 C   0  0  0  0  0  0  0  0  0  0  0  0
    1.7100   12.6080  -12.9490 C   0  0  0  0  0  0  0  0  0  0  0  0
    0.9330   13.7130  -12.6330 C   0  0  0  0  0  0  0  0  0  0  0  0
    1.4390   14.5740  -11.6990 C   0  0  0  0  0  0  0  0  0  0  0  0
    2.6670   14.3740  -11.0830 C   0  0  0  0  0  0  0  0  0  0  0  0
    3.4260   13.2740  -11.4060 C   0  0  0  0  0  0  0  0  0  0  0  0
   -0.3550   13.9280  -13.3080 C   0  0  1  0  0  0  0  0  0  0  0  0
   -1.2910   12.8790  -12.9590 N   0  0  0  0  0  0  0  0  0  0  0  0
   -1.8180   13.2040  -11.6840 C   0  0  0  0  0  0  0  0  0  0  0  0
   -2.2670   12.3930  -10.8670 O   0  0  0  0  0  0  0  0  0  0  0  0
   -1.7170   14.6680  -11.5520 C   0  0  0  0  0  0  0  0  0  0  0  0
   -2.0770   15.3760  -10.5810 O   0  0  0  0  0  0  0  0  0  0  0  0
   -1.1110   15.1200  -12.7980 C   0  0  0  0  0  0  0  0  0  0  0  0
   -1.2620   16.3230  -13.3340 C   0  0  0  0  0  0  0  0  0  0  0  0
   -0.6150   16.5200  -14.5770 O   0  0  0  0  0  0  0  0  0  0  0  0
   -2.0310   17.4010  -12.7210 C   0  0  0  0  0  0  0  0  0  0  0  0
   -3.1600   17.9440  -13.2580 C   0  0  0  0  0  0  0  0  0  0  0  0
   -3.8140   19.0170  -12.6240 C   0  0  0  0  0  0  0  0  0  0  0  0
   -3.3630   19.5660  -11.4540 C   0  0  0  0  0  0  0  0  0  0  0  0
   -2.2220   19.0160  -10.9090 C   0  0  0  0  0  0  0  0  0  0  0  0
   -1.5770   17.9720  -11.5170 C   0  0  0  0  0  0  0  0  0  0  0  0
   -4.0080   20.6280  -10.8210 O   0  0  0  0  0  0  0  0  0  0  0  0
   -4.6850   20.4330   -9.6060 C   0  0  0  0  0  0  0  0  0  0  0  0
   -3.7490   17.3820  -14.4960 C   0  0  0  0  0  0  0  0  0  0  0  0
   -1.5840   11.7340  -13.7950 C   0  0  0  0  0  0  0  0  0  0  0  0
   -0.7130   10.5490  -13.5180 C   0  0  0  0  0  0  0  0  0  0  0  0
   -1.4040    9.3400  -13.0140 C   0  0  0  0  0  0  0  0  0  0  0  0
   -0.5690    8.2290  -12.7260 N   0  0  0  0  0  4  0  0  0  0  0  0
   -0.6380    7.1600  -13.7370 C   0  0  0  0  0  0  0  0  0  0  0  0
   -0.1760    5.8930  -13.0150 C   0  0  0  0  0  0  0  0  0  0  0  0
    0.4080    6.1750  -11.7920 O   0  0  0  0  0  0  0  0  0  0  0  0
    1.3910    7.1570  -11.9230 C   0  0  0  0  0  0  0  0  0  0  0  0
    0.8070    8.4680  -12.4790 C   0  0  0  0  0  0  0  0  0  0  0  0
    1.4050   11.8800  -13.6640 H   0  0  0  0  0  0  0  0  0  0  0  0
    0.8840   15.4440  -11.4360 H   0  0  0  0  0  0  0  0  0  0  0  0
    3.0540   15.0590  -10.3480 H   0  0  0  0  0  0  0  0  0  0  0  0
    4.3990   13.0630  -10.9550 H   0  0  0  0  0  0  0  0  0  0  0  0
   -0.1510   13.9920  -14.3980 H   0  0  0  0  0  0  0  0  0  0  0  0
   -4.7190   19.4400  -13.0750 H   0  0  0  0  0  0  0  0  0  0  0  0
   -1.8660   19.4590   -9.9720 H   0  0  0  0  0  0  0  0  0  0  0  0
   -0.6880   17.5570  -11.0730 H   0  0  0  0  0  0  0  0  0  0  0  0
   -5.5250   19.6940   -9.7130 H   0  0  0  0  0  0  0  0  0  0  0  0
   -5.1540   21.3520   -9.2410 H   0  0  0  0  0  0  0  0  0  0  0  0
   -4.0470   20.0220   -8.7940 H   0  0  0  0  0  0  0  0  0  0  0  0
   -3.0220   17.0130  -15.2280 H   0  0  0  0  0  0  0  0  0  0  0  0
   -4.3250   18.1910  -15.0410 H   0  0  0  0  0  0  0  0  0  0  0  0
   -4.5440   16.6210  -14.2500 H   0  0  0  0  0  0  0  0  0  0  0  0
   -2.6350   11.4290  -13.5710 H   0  0  0  0  0  0  0  0  0  0  0  0
   -1.5710   11.9680  -14.8760 H   0  0  0  0  0  0  0  0  0  0  0  0
   -0.1400   10.3670  -14.4720 H   0  0  0  0  0  0  0  0  0  0  0  0
    0.0910   10.8660  -12.7860 H   0  0  0  0  0  0  0  0  0  0  0  0
   -2.1240    9.0150  -13.8070 H   0  0  0  0  0  0  0  0  0  0  0  0
   -2.0210    9.6250  -12.1340 H   0  0  0  0  0  0  0  0  0  0  0  0
   -0.9590    7.7740  -11.8450 H   0  0  0  0  0  0  0  0  0  0  0  0
   -1.6390    7.0410  -14.1580 H   0  0  0  0  0  0  0  0  0  0  0  0
    0.0770    7.4450  -14.5460 H   0  0  0  0  0  0  0  0  0  0  0  0
   -1.0800    5.2580  -12.7850 H   0  0  0  0  0  0  0  0  0  0  0  0
    0.4370    5.2810  -13.6840 H   0  0  0  0  0  0  0  0  0  0  0  0
    2.1720    6.7370  -12.5900 H   0  0  0  0  0  0  0  0  0  0  0  0
    1.8870    7.3170  -10.9400 H   0  0  0  0  0  0  0  0  0  0  0  0
    1.4020    8.6980  -13.3830 H   0  0  0  0  0  0  0  0  0  0  0  0
    0.9440    9.2190  -11.6800 H   0  0  0  0  0  0  0  0  0  0  0  0
  1  2  1  0  0  0  0
  2  7  1  0  0  0  0
  3  4  1  0  0  0  0
  3  2  2  0  0  0  0
  4  5  2  0  0  0  0
  5 36  1  0  0  0  0
  5  6  1  0  0  0  0
  6 37  1  0  0  0  0
  7  6  2  0  0  0  0
  7 38  1  0  0  0  0
  8 39  1  6  0  0  0
  8  9  1  0  0  0  0
  8 14  1  0  0  0  0
  8  4  1  0  0  0  0
  9 10  1  0  0  0  0
 10 12  1  0  0  0  0
 10 11  2  0  0  0  0
 12 13  2  0  0  0  0
 14 12  1  0  0  0  0
 15 14  2  0  0  0  0
 15 17  1  0  0  0  0
 16 15  1  0  0  0  0
 17 22  1  0  0  0  0
 18 17  2  0  0  0  0
 18 19  1  0  0  0  0
 19 20  2  0  0  0  0
 20 21  1  0  0  0  0
 20 23  1  0  0  0  0
 21 41  1  0  0  0  0
 22 42  1  0  0  0  0
 22 21  2  0  0  0  0
 23 24  1  0  0  0  0
 24 44  1  0  0  0  0
 24 45  1  0  0  0  0
 25 48  1  0  0  0  0
 25 18  1  0  0  0  0
 26 49  1  0  0  0  0
 26 27  1  0  0  0  0
 26  9  1  0  0  0  0
 27 28  1  0  0  0  0
 27 52  1  0  0  0  0
 28 29  1  0  0  0  0
 28 54  1  0  0  0  0
 29 34  1  0  0  0  0
 29 55  1  0  0  0  0
 30 31  1  0  0  0  0
 30 29  1  0  0  0  0
 31 58  1  0  0  0  0
 31 32  1  0  0  0  0
 33 32  1  0  0  0  0
 33 61  1  0  0  0  0
 34 33  1  0  0  0  0
 34 63  1  0  0  0  0
 35  3  1  0  0  0  0
 40 19  1  0  0  0  0
 43 24  1  0  0  0  0
 46 25  1  0  0  0  0
 47 25  1  0  0  0  0
 50 26  1  0  0  0  0
 51 27  1  0  0  0  0
 53 28  1  0  0  0  0
 56 30  1  0  0  0  0
 57 30  1  0  0  0  0
 59 31  1  0  0  0  0
 60 33  1  0  0  0  0
 62 34  1  0  0  0  0
M  END
>  <Pose>
1

>  <Score>
-5.82

$$$$
