
 OpenBabel03232203513D

 61 64  0  0  1  0  0  0  0  0999 V2000
    3.3750    9.1080  -15.0960 B   0  0  0  0  0  0  0  0  0  0  0  0
    2.7850   10.6070  -14.0710 C   0  0  0  0  0  0  0  0  0  0  0  0
    1.5320   11.1340  -14.1490 C   0  0  0  0  0  0  0  0  0  0  0  0
    1.0670   12.2180  -13.4250 C   0  0  0  0  0  0  0  0  0  0  0  0
    1.9570   12.8220  -12.5410 C   0  0  0  0  0  0  0  0  0  0  0  0
    3.2370   12.3120  -12.4360 C   0  0  0  0  0  0  0  0  0  0  0  0
    3.6720   11.2260  -13.1750 C   0  0  0  0  0  0  0  0  0  0  0  0
   -0.3100   12.6680  -13.6510 C   0  0  1  0  0  0  0  0  0  0  0  0
   -1.2390   11.7560  -13.0960 N   0  0  0  0  0  0  0  0  0  0  0  0
   -1.9350   12.3740  -12.0260 C   0  0  0  0  0  0  0  0  0  0  0  0
   -2.7680   11.7900  -11.2650 O   0  0  0  0  0  0  0  0  0  0  0  0
   -1.5400   13.7640  -11.9630 C   0  0  0  0  0  0  0  0  0  0  0  0
   -2.0110   14.5470  -11.0940 O   0  0  0  0  0  0  0  0  0  0  0  0
   -0.5770   13.9880  -13.0240 C   0  0  0  0  0  0  0  0  0  0  0  0
   -0.0310   15.1500  -13.3020 C   0  0  0  0  0  0  0  0  0  0  0  0
    0.9230   15.2220  -14.2910 O   0  0  0  0  0  0  0  0  0  0  0  0
   -0.4170   16.3470  -12.5960 C   0  0  0  0  0  0  0  0  0  0  0  0
   -1.7140   16.8890  -12.6220 C   0  0  0  0  0  0  0  0  0  0  0  0
   -1.7510   17.9740  -11.8380 N   0  0  0  0  0  0  0  0  0  0  0  0
   -0.5410   18.1260  -11.3310 N   0  0  0  0  0  0  0  0  0  0  0  0
    0.2910   17.1660  -11.7610 C   0  0  0  0  0  0  0  0  0  0  0  0
   -2.8700   18.8080  -11.5750 C   0  0  0  0  0  0  0  0  0  0  0  0
   -2.8930   19.5440  -10.3980 C   0  0  0  0  0  0  0  0  0  0  0  0
   -3.9430   20.3830  -10.0830 C   0  0  0  0  0  0  0  0  0  0  0  0
   -5.0320   20.5240  -10.9440 C   0  0  0  0  0  0  0  0  0  0  0  0
   -5.0100   19.7900  -12.1160 C   0  0  0  0  0  0  0  0  0  0  0  0
   -3.9550   18.9640  -12.4060 C   0  0  0  0  0  0  0  0  0  0  0  0
   -2.8400   16.3110  -13.4110 C   0  0  0  0  0  0  0  0  0  0  0  0
   -1.5010   10.3600  -13.5480 C   0  0  0  0  0  0  0  0  0  0  0  0
   -0.5760    9.4140  -12.8270 C   0  0  0  0  0  0  0  0  0  0  0  0
   -0.6330    8.0120  -13.3460 C   0  0  0  0  0  0  0  0  0  0  0  0
    0.3110    7.0960  -12.7970 N   0  0  0  0  0  4  0  0  0  0  0  0
    0.9040    7.4650  -11.5530 C   0  0  0  0  0  0  0  0  0  0  0  0
   -0.3100    5.7740  -12.6190 C   0  0  0  0  0  0  0  0  0  0  0  0
    0.8520   10.6310  -14.8640 H   0  0  0  0  0  0  0  0  0  0  0  0
    1.6330   13.6690  -11.9640 H   0  0  0  0  0  0  0  0  0  0  0  0
    3.9320   12.7900  -11.7390 H   0  0  0  0  0  0  0  0  0  0  0  0
    4.6760   10.8250  -13.0960 H   0  0  0  0  0  0  0  0  0  0  0  0
   -0.4900   12.7230  -14.7560 H   0  0  0  0  0  0  0  0  0  0  0  0
    1.3410   17.0450  -11.4860 H   0  0  0  0  0  0  0  0  0  0  0  0
   -2.0200   19.4170   -9.7350 H   0  0  0  0  0  0  0  0  0  0  0  0
   -3.9290   20.9470   -9.1580 H   0  0  0  0  0  0  0  0  0  0  0  0
   -5.8520   21.1920  -10.6690 H   0  0  0  0  0  0  0  0  0  0  0  0
   -5.8690   19.9100  -12.7790 H   0  0  0  0  0  0  0  0  0  0  0  0
   -3.9780   18.4120  -13.3350 H   0  0  0  0  0  0  0  0  0  0  0  0
   -2.8030   15.1950  -13.3870 H   0  0  0  0  0  0  0  0  0  0  0  0
   -2.8720   16.7120  -14.4410 H   0  0  0  0  0  0  0  0  0  0  0  0
   -3.8120   16.5830  -12.9320 H   0  0  0  0  0  0  0  0  0  0  0  0
   -2.5730   10.1200  -13.4300 H   0  0  0  0  0  0  0  0  0  0  0  0
   -1.2040   10.3110  -14.6350 H   0  0  0  0  0  0  0  0  0  0  0  0
    0.4600    9.7810  -13.1030 H   0  0  0  0  0  0  0  0  0  0  0  0
   -0.6140    9.5160  -11.7410 H   0  0  0  0  0  0  0  0  0  0  0  0
   -0.4910    7.9950  -14.4730 H   0  0  0  0  0  0  0  0  0  0  0  0
   -1.6740    7.5980  -13.1970 H   0  0  0  0  0  0  0  0  0  0  0  0
    1.0910    6.9240  -13.5010 H   0  0  0  0  0  0  0  0  0  0  0  0
    0.7720    6.6710  -10.7690 H   0  0  0  0  0  0  0  0  0  0  0  0
    0.6430    8.4670  -11.1610 H   0  0  0  0  0  0  0  0  0  0  0  0
    2.0230    7.5070  -11.6990 H   0  0  0  0  0  0  0  0  0  0  0  0
    0.2190    4.9960  -13.1940 H   0  0  0  0  0  0  0  0  0  0  0  0
   -1.3550    5.8540  -12.9940 H   0  0  0  0  0  0  0  0  0  0  0  0
   -0.3840    5.5300  -11.5350 H   0  0  0  0  0  0  0  0  0  0  0  0
  1  2  1  0  0  0  0
  2  7  1  0  0  0  0
  3  2  2  0  0  0  0
  3  4  1  0  0  0  0
  4  5  2  0  0  0  0
  5  6  1  0  0  0  0
  5 36  1  0  0  0  0
  6 37  1  0  0  0  0
  7 38  1  0  0  0  0
  7  6  2  0  0  0  0
  8 39  1  6  0  0  0
  8  4  1  0  0  0  0
  8  9  1  0  0  0  0
  8 14  1  0  0  0  0
  9 10  1  0  0  0  0
 10 12  1  0  0  0  0
 10 11  2  0  0  0  0
 12 13  2  0  0  0  0
 14 12  1  0  0  0  0
 15 14  2  0  0  0  0
 15 17  1  0  0  0  0
 16 15  1  0  0  0  0
 17 21  1  0  0  0  0
 18 17  2  0  0  0  0
 18 19  1  0  0  0  0
 19 22  1  0  0  0  0
 19 20  1  0  0  0  0
 21 40  1  0  0  0  0
 21 20  2  0  0  0  0
 22 23  1  0  0  0  0
 23 24  2  0  0  0  0
 23 41  1  0  0  0  0
 24 42  1  0  0  0  0
 25 43  1  0  0  0  0
 25 24  1  0  0  0  0
 26 25  2  0  0  0  0
 27 26  1  0  0  0  0
 27 22  2  0  0  0  0
 28 46  1  0  0  0  0
 28 48  1  0  0  0  0
 28 18  1  0  0  0  0
 29 49  1  0  0  0  0
 29  9  1  0  0  0  0
 29 30  1  0  0  0  0
 30 52  1  0  0  0  0
 31 54  1  0  0  0  0
 31 30  1  0  0  0  0
 31 32  1  0  0  0  0
 32 34  1  0  0  0  0
 32 33  1  0  0  0  0
 33 57  1  0  0  0  0
 33 56  1  0  0  0  0
 34 61  1  0  0  0  0
 35  3  1  0  0  0  0
 44 26  1  0  0  0  0
 45 27  1  0  0  0  0
 47 28  1  0  0  0  0
 50 29  1  0  0  0  0
 51 30  1  0  0  0  0
 53 31  1  0  0  0  0
 55 32  1  0  0  0  0
 58 33  1  0  0  0  0
 59 34  1  0  0  0  0
 60 34  1  0  0  0  0
M  END
>  <Pose>
1

>  <Score>
-4.58

$$$$
