
 OpenBabel03232203513D

 51 53  0  0  0  0  0  0  0  0999 V2000
    5.2640    9.5620  -15.7380 B   0  0  0  0  0  0  0  0  0  0  0  0
    3.7480    9.1230  -14.6650 C   0  0  0  0  0  0  0  0  0  0  0  0
    3.7160    7.8860  -14.0530 C   0  0  0  0  0  0  0  0  0  0  0  0
    2.6220    7.5790  -13.2830 C   0  0  0  0  0  0  0  0  0  0  0  0
    1.5840    8.4790  -13.1240 C   0  0  0  0  0  0  0  0  0  0  0  0
    1.6120    9.6980  -13.7250 C   0  0  0  0  0  0  0  0  0  0  0  0
    2.7070   10.0150  -14.5000 C   0  0  0  0  0  0  0  0  0  0  0  0
    0.5090   10.6560  -13.5560 C   0  0  0  0  0  0  0  0  0  0  0  0
    0.6050   11.8630  -13.9580 N   0  0  0  0  0  0  0  0  0  0  0  0
   -0.4720   12.7980  -13.7940 N   0  0  0  0  0  0  0  0  0  0  0  0
   -0.1470   14.1650  -13.9470 C   0  0  0  0  0  0  0  0  0  0  0  0
    0.0670   14.5150  -15.1700 O   0  0  0  0  0  0  0  0  0  0  0  0
   -0.0390   15.1610  -12.8890 C   0  0  0  0  0  0  0  0  0  0  0  0
    1.0840   15.2230  -12.1030 N   0  0  0  0  0  0  0  0  0  0  0  0
    0.8710   16.2110  -11.2600 N   0  0  0  0  0  0  0  0  0  0  0  0
   -0.2800   16.7680  -11.4500 N   0  0  0  0  0  0  0  0  0  0  0  0
   -0.9080   16.1370  -12.4820 C   0  0  0  0  0  0  0  0  0  0  0  0
   -2.2210   16.4290  -13.0560 C   0  0  0  0  0  0  0  0  0  0  0  0
   -2.2960   17.7070  -13.7480 N   0  0  0  0  0  0  0  0  0  0  0  0
   -2.9780   17.5470  -15.0260 C   0  0  0  0  0  0  0  0  0  0  0  0
   -4.4570   17.7820  -14.9050 C   0  0  0  0  0  0  0  0  0  0  0  0
   -4.9530   17.6090  -13.6260 O   0  0  0  0  0  0  0  0  0  0  0  0
   -4.3720   18.4260  -12.6670 C   0  0  0  0  0  0  0  0  0  0  0  0
   -2.9320   18.7400  -12.9670 C   0  0  0  0  0  0  0  0  0  0  0  0
    2.2270   14.3970  -12.1840 C   0  0  0  0  0  0  0  0  0  0  0  0
    2.8330   13.8620  -13.2730 N   0  0  0  0  0  0  0  0  0  0  0  0
    3.8470   13.1720  -12.8910 O   0  0  0  0  0  0  0  0  0  0  0  0
    3.9960   13.1860  -11.6040 N   0  0  0  0  0  0  0  0  0  0  0  0
    2.9850   13.9550  -11.1160 C   0  0  0  0  0  0  0  0  0  0  0  0
    2.7840   14.2280   -9.7400 N   0  0  0  0  0  0  0  0  0  0  0  0
    2.5710    5.8570  -12.4290 B   0  0  0  0  0  0  0  0  0  0  0  0
    4.7370    6.9580  -14.1900 O   0  0  0  0  0  0  0  0  0  0  0  0
   -8.6750   10.8700  -16.3960 Cl  0  0  0  0  0  0  0  0  0  0  0  0
    0.7300    8.2130  -12.5110 H   0  0  0  0  0  0  0  0  0  0  0  0
    2.7250   10.9820  -14.9740 H   0  0  0  0  0  0  0  0  0  0  0  0
   -0.3890   10.3370  -13.0880 H   0  0  0  0  0  0  0  0  0  0  0  0
   -1.4170   12.4130  -13.5750 H   0  0  0  0  0  0  0  0  0  0  0  0
   -2.5480   15.6870  -13.8140 H   0  0  0  0  0  0  0  0  0  0  0  0
   -3.0250   16.4890  -12.2910 H   0  0  0  0  0  0  0  0  0  0  0  0
   -2.5580   18.2970  -15.7200 H   0  0  0  0  0  0  0  0  0  0  0  0
   -2.7050   16.5460  -15.4100 H   0  0  0  0  0  0  0  0  0  0  0  0
   -4.9600   17.0290  -15.5460 H   0  0  0  0  0  0  0  0  0  0  0  0
   -4.7590   18.7750  -15.3240 H   0  0  0  0  0  0  0  0  0  0  0  0
   -4.3900   17.8620  -11.7030 H   0  0  0  0  0  0  0  0  0  0  0  0
   -5.0020   19.3150  -12.5240 H   0  0  0  0  0  0  0  0  0  0  0  0
   -2.3290   19.0600  -12.1210 H   0  0  0  0  0  0  0  0  0  0  0  0
   -2.9640   19.6370  -13.6590 H   0  0  0  0  0  0  0  0  0  0  0  0
    2.7290   15.2200   -9.4430 H   0  0  0  0  0  0  0  0  0  0  0  0
    2.6870   13.4970   -9.0120 H   0  0  0  0  0  0  0  0  0  0  0  0
    4.7400    6.0670  -13.7260 H   0  0  0  0  0  0  0  0  0  0  0  0
   -9.1050    9.9890  -17.3620 H   0  0  0  0  0  0  0  0  0  0  0  0
  1  2  1  0  0  0  0
  2  7  2  0  0  0  0
  2  3  1  0  0  0  0
  3  4  2  0  0  0  0
  4  5  1  0  0  0  0
  4 31  1  0  0  0  0
  5 34  1  0  0  0  0
  6  8  1  0  0  0  0
  6  5  2  0  0  0  0
  7  6  1  0  0  0  0
  8 36  1  0  0  0  0
  9 10  1  0  0  0  0
  9  8  2  0  0  0  0
 10 37  1  0  0  0  0
 11 10  1  0  0  0  0
 11 13  1  0  0  0  0
 12 11  2  0  0  0  0
 13 17  2  0  0  0  0
 13 14  1  0  0  0  0
 14 15  1  0  0  0  0
 16 15  2  0  0  0  0
 17 16  1  0  0  0  0
 18 17  1  0  0  0  0
 18 39  1  0  0  0  0
 19 18  1  0  0  0  0
 19 24  1  0  0  0  0
 20 21  1  0  0  0  0
 20 19  1  0  0  0  0
 21 22  1  0  0  0  0
 22 23  1  0  0  0  0
 23 45  1  0  0  0  0
 23 44  1  0  0  0  0
 24 23  1  0  0  0  0
 24 46  1  0  0  0  0
 25 14  1  0  0  0  0
 25 29  1  0  0  0  0
 26 27  1  0  0  0  0
 26 25  2  0  0  0  0
 27 28  1  0  0  0  0
 28 29  2  0  0  0  0
 29 30  1  0  0  0  0
 30 48  1  0  0  0  0
 30 49  1  0  0  0  0
 32  3  1  0  0  0  0
 32 50  1  0  0  0  0
 35  7  1  0  0  0  0
 38 18  1  0  0  0  0
 40 20  1  0  0  0  0
 41 20  1  0  0  0  0
 42 21  1  0  0  0  0
 43 21  1  0  0  0  0
 47 24  1  0  0  0  0
 51 33  1  0  0  0  0
M  END
>  <Pose>
1

>  <Score>
-6.94

$$$$
