
 OpenBabel03232203513D

 47 50  0  0  0  0  0  0  0  0999 V2000
   -9.3430   22.6360   -5.6020 B   0  0  0  0  0  0  0  0  0  0  0  0
   -9.0670   24.1310   -6.7200 C   0  0  0  0  0  0  0  0  0  0  0  0
   -8.7480   23.9460   -8.0440 C   0  0  0  0  0  0  0  0  0  0  0  0
   -8.5740   24.9650   -8.8860 C   0  0  0  0  0  0  0  0  0  0  0  0
   -8.7250   26.3110   -8.4290 C   0  0  0  0  0  0  0  0  0  0  0  0
   -9.0660   26.5250   -7.1360 C   0  0  0  0  0  0  0  0  0  0  0  0
   -9.2410   25.4430   -6.2680 C   0  0  0  0  0  0  0  0  0  0  0  0
   -8.9220   22.5100   -8.5970 C   0  0  0  0  0  0  0  0  0  0  0  0
   -7.9230   22.2100   -9.2730 N   0  0  0  0  0  0  0  0  0  0  0  0
   -7.1660   21.4770  -10.0200 N   0  0  0  0  0  0  0  0  0  0  0  0
   -5.7380   21.7760   -9.5080 C   0  0  0  0  0  0  0  0  0  0  0  0
   -5.6990   22.7300   -8.7390 O   0  0  0  0  0  0  0  0  0  0  0  0
   -4.6280   21.0190   -9.9190 C   0  0  0  0  0  0  0  0  0  0  0  0
   -3.6850   20.4380   -9.2420 N   0  0  0  0  0  0  0  0  0  0  0  0
   -3.0390   19.6280  -10.0090 N   0  0  0  0  0  0  0  0  0  0  0  0
   -3.5380   19.6220  -11.3050 N   0  0  0  0  0  0  0  0  0  0  0  0
   -4.5310   20.4840  -11.2860 C   0  0  0  0  0  0  0  0  0  0  0  0
   -5.3980   21.1330  -12.2650 C   0  0  0  0  0  0  0  0  0  0  0  0
   -6.0890   20.6390  -13.2980 N   0  0  0  0  0  0  0  0  0  0  0  0
   -7.3900   20.1620  -12.8510 C   0  0  0  0  0  0  0  0  0  0  0  0
   -8.4050   20.6860  -13.8210 C   0  0  0  0  0  0  0  0  0  0  0  0
   -7.6240   21.5380  -14.8170 C   0  0  0  0  0  0  0  0  0  0  0  0
   -6.1970   20.9700  -14.6200 C   0  0  0  0  0  0  0  0  0  0  0  0
   -2.9520   18.7370  -12.2090 C   0  0  0  0  0  0  0  0  0  0  0  0
   -3.5240   18.4850  -13.4560 N   0  0  0  0  0  0  0  0  0  0  0  0
   -2.8540   17.5630  -14.0240 O   0  0  0  0  0  0  0  0  0  0  0  0
   -1.8850   17.1660  -13.3000 N   0  0  0  0  0  0  0  0  0  0  0  0
   -1.9250   17.8900  -12.1460 C   0  0  0  0  0  0  0  0  0  0  0  0
   -0.9630   17.6560  -11.1100 N   0  0  0  0  0  0  0  0  0  0  0  0
   -8.2580   24.7870   -9.8970 H   0  0  0  0  0  0  0  0  0  0  0  0
   -8.5500   27.1260   -9.0620 H   0  0  0  0  0  0  0  0  0  0  0  0
   -9.2400   27.5550   -6.7270 H   0  0  0  0  0  0  0  0  0  0  0  0
   -9.5700   25.6570   -5.2490 H   0  0  0  0  0  0  0  0  0  0  0  0
   -9.7470   21.9750   -8.4280 H   0  0  0  0  0  0  0  0  0  0  0  0
   -7.2020   20.8350  -10.8070 H   0  0  0  0  0  0  0  0  0  0  0  0
   -5.7520   22.1840  -11.9680 H   0  0  0  0  0  0  0  0  0  0  0  0
   -4.4640   21.6910  -12.9930 H   0  0  0  0  0  0  0  0  0  0  0  0
   -7.5600   20.4210  -11.8070 H   0  0  0  0  0  0  0  0  0  0  0  0
   -7.4300   19.0240  -12.8520 H   0  0  0  0  0  0  0  0  0  0  0  0
   -8.9800   19.8830  -14.3080 H   0  0  0  0  0  0  0  0  0  0  0  0
   -9.1740   21.3030  -13.2650 H   0  0  0  0  0  0  0  0  0  0  0  0
   -7.9910   21.3600  -15.8140 H   0  0  0  0  0  0  0  0  0  0  0  0
   -7.5600   22.5580  -14.4520 H   0  0  0  0  0  0  0  0  0  0  0  0
   -6.2390   20.0070  -15.2400 H   0  0  0  0  0  0  0  0  0  0  0  0
   -5.4670   21.6600  -15.0620 H   0  0  0  0  0  0  0  0  0  0  0  0
   -1.0480   16.7760  -10.5820 H   0  0  0  0  0  0  0  0  0  0  0  0
   -0.2700   18.3620  -10.8710 H   0  0  0  0  0  0  0  0  0  0  0  0
  2  7  1  0  0  0  0
  2  1  1  0  0  0  0
  3  2  2  0  0  0  0
  4  5  2  0  0  0  0
  4  3  1  0  0  0  0
  5  6  1  0  0  0  0
  6 32  1  0  0  0  0
  6  7  2  0  0  0  0
  7 33  1  0  0  0  0
  8 34  1  0  0  0  0
  8  3  1  0  0  0  0
  9  8  1  0  0  0  0
 10 11  1  0  0  0  0
 10  9  1  0  0  0  0
 11 12  2  0  0  0  0
 13 11  1  0  0  0  0
 13 14  1  0  0  0  0
 15 14  2  0  0  0  0
 16 17  1  0  0  0  0
 16 15  1  0  0  0  0
 17 13  2  0  0  0  0
 18 36  1  0  0  0  0
 18 17  1  0  0  0  0
 19 20  1  0  0  0  0
 19 18  1  0  0  0  0
 20 38  1  0  0  0  0
 21 41  1  0  0  0  0
 21 20  1  0  0  0  0
 22 23  1  0  0  0  0
 22 43  1  0  0  0  0
 22 21  1  0  0  0  0
 23 19  1  0  0  0  0
 24 28  1  0  0  0  0
 24 16  1  0  0  0  0
 25 24  2  0  0  0  0
 26 25  1  0  0  0  0
 26 27  1  0  0  0  0
 27 28  2  0  0  0  0
 28 29  1  0  0  0  0
 29 47  1  0  0  0  0
 29 46  1  0  0  0  0
 30  4  1  0  0  0  0
 31  5  1  0  0  0  0
 35 10  1  0  0  0  0
 37 18  1  0  0  0  0
 39 20  1  0  0  0  0
 40 21  1  0  0  0  0
 42 22  1  0  0  0  0
 44 23  1  0  0  0  0
 45 23  1  0  0  0  0
M  END
>  <Pose>
1

>  <Score>
-4.98

$$$$
