
 OpenBabel03232203513D

 51 54  0  0  1  0  0  0  0  0999 V2000
    5.7860    6.4390  -13.5650 B   0  0  0  0  0  0  0  0  0  0  0  0
    4.2660    7.6020  -13.6640 C   0  0  0  0  0  0  0  0  0  0  0  0
    4.0130    8.3660  -14.7760 C   0  0  0  0  0  0  0  0  0  0  0  0
    2.9170    9.1900  -14.8220 C   0  0  0  0  0  0  0  0  0  0  0  0
    2.0010    9.3070  -13.7620 C   0  0  0  0  0  0  0  0  0  0  0  0
    2.2710    8.5420  -12.6700 C   0  0  0  0  0  0  0  0  0  0  0  0
    3.3740    7.7110  -12.6230 C   0  0  0  0  0  0  0  0  0  0  0  0
    0.8990   10.2230  -13.9220 C   0  0  1  0  0  0  0  0  0  0  0  0
   -0.4010    9.8310  -13.4630 N   0  0  0  0  0  0  0  0  0  0  0  0
   -1.1730   11.0670  -13.5320 C   0  0  0  0  0  0  0  0  0  0  0  0
   -2.4130   11.1560  -13.6660 O   0  0  0  0  0  0  0  0  0  0  0  0
   -0.2390   12.1720  -13.4130 C   0  0  0  0  0  0  0  0  0  0  0  0
   -0.4700   13.4180  -13.4240 O   0  0  0  0  0  0  0  0  0  0  0  0
    1.0840   11.5530  -13.2750 C   0  0  0  0  0  0  0  0  0  0  0  0
    2.1380   12.1070  -12.7420 C   0  0  0  0  0  0  0  0  0  0  0  0
    3.3400   11.3890  -12.7450 O   0  0  0  0  0  0  0  0  0  0  0  0
    2.0860   13.4540  -12.1400 C   0  0  0  0  0  0  0  0  0  0  0  0
    2.2940   13.7320  -10.8580 O   0  0  0  0  0  0  0  0  0  0  0  0
    2.1790   15.0130  -10.6200 C   0  0  0  0  0  0  0  0  0  0  0  0
    1.8730   15.6770  -11.7900 C   0  0  0  0  0  0  0  0  0  0  0  0
    1.8200   14.6650  -12.7330 C   0  0  0  0  0  0  0  0  0  0  0  0
    1.7010   17.0430  -11.7970 C   0  0  0  0  0  0  0  0  0  0  0  0
    1.8190   17.8180  -10.6650 C   0  0  0  0  0  0  0  0  0  0  0  0
    2.1250   17.1570   -9.4890 C   0  0  0  0  0  0  0  0  0  0  0  0
    2.3000   15.7910   -9.4640 C   0  0  0  0  0  0  0  0  0  0  0  0
   -0.9750    8.5630  -13.0740 C   0  0  0  0  0  0  0  0  0  0  0  0
   -1.0630    7.4990  -14.0850 C   0  0  0  0  0  0  0  0  0  0  0  0
   -1.1940    6.1460  -13.6120 N   0  0  0  0  0  4  0  0  0  0  0  0
   -1.7700    5.2710  -14.5940 C   0  0  0  0  0  0  0  0  0  0  0  0
   -0.0370    5.6230  -12.9430 C   0  0  0  0  0  0  0  0  0  0  0  0
    4.7040    8.2920  -15.6050 H   0  0  0  0  0  0  0  0  0  0  0  0
    2.7790    9.7660  -15.7330 H   0  0  0  0  0  0  0  0  0  0  0  0
    1.6340    8.5900  -11.8140 H   0  0  0  0  0  0  0  0  0  0  0  0
    3.5640    7.1090  -11.7320 H   0  0  0  0  0  0  0  0  0  0  0  0
    0.7570   10.4790  -15.0180 H   0  0  0  0  0  0  0  0  0  0  0  0
    1.5910   14.8010  -13.7780 H   0  0  0  0  0  0  0  0  0  0  0  0
    1.4610   17.5430  -12.7210 H   0  0  0  0  0  0  0  0  0  0  0  0
    1.6870   18.8930  -10.6460 H   0  0  0  0  0  0  0  0  0  0  0  0
    2.2320   17.7120   -8.5680 H   0  0  0  0  0  0  0  0  0  0  0  0
    2.5410   15.2730   -8.5460 H   0  0  0  0  0  0  0  0  0  0  0  0
   -1.9740    8.7060  -12.5860 H   0  0  0  0  0  0  0  0  0  0  0  0
   -0.3290    8.1690  -12.2270 H   0  0  0  0  0  0  0  0  0  0  0  0
   -0.1710    7.5110  -14.7400 H   0  0  0  0  0  0  0  0  0  0  0  0
   -1.9740    7.6900  -14.7280 H   0  0  0  0  0  0  0  0  0  0  0  0
   -1.9500    6.2190  -12.8470 H   0  0  0  0  0  0  0  0  0  0  0  0
   -1.9980    5.8890  -15.4830 H   0  0  0  0  0  0  0  0  0  0  0  0
   -1.1630    4.3670  -14.8090 H   0  0  0  0  0  0  0  0  0  0  0  0
   -2.7730    4.8550  -14.2880 H   0  0  0  0  0  0  0  0  0  0  0  0
    0.8050    6.3270  -12.8500 H   0  0  0  0  0  0  0  0  0  0  0  0
   -0.2620    5.3190  -11.8770 H   0  0  0  0  0  0  0  0  0  0  0  0
    0.2790    4.6410  -13.4090 H   0  0  0  0  0  0  0  0  0  0  0  0
  2  1  1  0  0  0  0
  2  7  1  0  0  0  0
  3  2  2  0  0  0  0
  4  3  1  0  0  0  0
  4  5  2  0  0  0  0
  5  6  1  0  0  0  0
  6  7  2  0  0  0  0
  6 33  1  0  0  0  0
  7 34  1  0  0  0  0
  8 35  1  6  0  0  0
  8  5  1  0  0  0  0
  8  9  1  0  0  0  0
  8 14  1  0  0  0  0
  9 26  1  0  0  0  0
 10  9  1  0  0  0  0
 10 12  1  0  0  0  0
 11 10  2  0  0  0  0
 12 14  1  0  0  0  0
 13 12  2  0  0  0  0
 14 15  2  0  0  0  0
 15 17  1  0  0  0  0
 16 15  1  0  0  0  0
 17 18  1  0  0  0  0
 18 19  1  0  0  0  0
 19 25  1  0  0  0  0
 20 19  2  0  0  0  0
 21 17  2  0  0  0  0
 21 20  1  0  0  0  0
 22 20  1  0  0  0  0
 22 23  2  0  0  0  0
 23 38  1  0  0  0  0
 23 24  1  0  0  0  0
 24 25  2  0  0  0  0
 24 39  1  0  0  0  0
 25 40  1  0  0  0  0
 26 41  1  0  0  0  0
 26 42  1  0  0  0  0
 27 28  1  0  0  0  0
 27 26  1  0  0  0  0
 28 30  1  0  0  0  0
 28 45  1  0  0  0  0
 29 48  1  0  0  0  0
 29 28  1  0  0  0  0
 30 49  1  0  0  0  0
 30 50  1  0  0  0  0
 31  3  1  0  0  0  0
 32  4  1  0  0  0  0
 36 21  1  0  0  0  0
 37 22  1  0  0  0  0
 43 27  1  0  0  0  0
 44 27  1  0  0  0  0
 46 29  1  0  0  0  0
 47 29  1  0  0  0  0
 51 30  1  0  0  0  0
M  END
>  <Pose>
1

>  <Score>
-4.13

$$$$
