
 OpenBabel03232203513D

 48 51  0  0  0  0  0  0  0  0999 V2000
   -0.9080   15.8800  -13.4940 B   0  0  0  0  0  0  0  0  0  0  0  0
    0.5210   15.0430  -12.5410 C   0  0  0  0  0  0  0  0  0  0  0  0
    1.0500   13.8330  -12.9830 C   0  0  0  0  0  0  0  0  0  0  0  0
    2.0850   13.2340  -12.3000 C   0  0  0  0  0  0  0  0  0  0  0  0
    2.6080   13.8230  -11.1750 C   0  0  0  0  0  0  0  0  0  0  0  0
    2.0740   15.0180  -10.7530 C   0  0  0  0  0  0  0  0  0  0  0  0
    1.0390   15.6480  -11.4070 C   0  0  0  0  0  0  0  0  0  0  0  0
    2.6550   11.9810  -12.7560 C   0  0  0  0  0  0  0  0  0  0  0  0
    1.8770   10.9420  -13.0640 C   0  0  0  0  0  0  0  0  0  0  0  0
    0.4860   10.8850  -13.0030 O   0  0  0  0  0  0  0  0  0  0  0  0
    0.0350    9.6570  -13.4020 C   0  0  0  0  0  0  0  0  0  0  0  0
    1.1050    8.8390  -13.7470 C   0  0  0  0  0  0  0  0  0  0  0  0
    0.8330    7.5520  -14.1830 C   0  0  0  0  0  0  0  0  0  0  0  0
   -0.4680    7.1100  -14.2700 C   0  0  0  0  0  0  0  0  0  0  0  0
   -1.5180    7.9610  -13.9140 C   0  0  0  0  0  0  0  0  0  0  0  0
   -1.2770    9.2370  -13.4780 C   0  0  0  0  0  0  0  0  0  0  0  0
   -2.4060   10.0600  -13.0420 C   0  0  0  0  0  0  0  0  0  0  0  0
   -3.2760   10.5290  -14.0580 N   0  0  0  0  0  4  0  0  0  0  0  0
   -4.0490   11.6370  -13.5220 C   0  0  0  0  0  0  0  0  0  0  0  0
   -5.4730   11.6870  -13.9560 C   0  0  0  0  0  0  0  0  0  0  0  0
   -6.1930   10.4690  -13.8280 N   0  0  0  0  0  0  0  0  0  0  0  0
   -5.3260    9.3560  -13.6200 C   0  0  0  0  0  0  0  0  0  0  0  0
   -4.1380    9.4640  -14.5150 C   0  0  0  0  0  0  0  0  0  0  0  0
   -7.0570   10.2840  -14.9740 C   0  0  0  0  0  0  0  0  0  0  0  0
   -2.7900    7.4230  -14.0350 O   0  0  0  0  0  0  0  0  0  0  0  0
    2.3260    9.6360  -13.5410 C   0  0  0  0  0  0  0  0  0  0  0  0
    3.4970    9.2220  -13.7450 O   0  0  0  0  0  0  0  0  0  0  0  0
    0.6070   13.3950  -13.8770 H   0  0  0  0  0  0  0  0  0  0  0  0
    3.4170   13.3450  -10.6380 H   0  0  0  0  0  0  0  0  0  0  0  0
    2.5180   15.4750   -9.8580 H   0  0  0  0  0  0  0  0  0  0  0  0
    0.6510   16.6050  -11.0420 H   0  0  0  0  0  0  0  0  0  0  0  0
    3.7190   11.8780  -12.8470 H   0  0  0  0  0  0  0  0  0  0  0  0
    1.6880    6.9470  -14.4450 H   0  0  0  0  0  0  0  0  0  0  0  0
   -0.6160    6.1030  -14.6150 H   0  0  0  0  0  0  0  0  0  0  0  0
   -3.0170    9.4170  -12.3200 H   0  0  0  0  0  0  0  0  0  0  0  0
   -2.0400   10.8840  -12.4120 H   0  0  0  0  0  0  0  0  0  0  0  0
   -2.7580   10.8500  -14.9300 H   0  0  0  0  0  0  0  0  0  0  0  0
   -3.6070   12.6190  -13.7560 H   0  0  0  0  0  0  0  0  0  0  0  0
   -4.0410   11.6140  -12.3920 H   0  0  0  0  0  0  0  0  0  0  0  0
   -5.9800   12.4500  -13.2820 H   0  0  0  0  0  0  0  0  0  0  0  0
   -5.6150   12.1540  -14.9840 H   0  0  0  0  0  0  0  0  0  0  0  0
   -4.9500    9.4010  -12.5530 H   0  0  0  0  0  0  0  0  0  0  0  0
   -5.8370    8.3660  -13.7370 H   0  0  0  0  0  0  0  0  0  0  0  0
   -4.4480    9.6330  -15.5910 H   0  0  0  0  0  0  0  0  0  0  0  0
   -3.6020    8.4820  -14.4940 H   0  0  0  0  0  0  0  0  0  0  0  0
   -6.6290   10.7050  -15.9190 H   0  0  0  0  0  0  0  0  0  0  0  0
   -7.3480    9.2290  -15.1600 H   0  0  0  0  0  0  0  0  0  0  0  0
   -7.9750   10.9160  -14.7970 H   0  0  0  0  0  0  0  0  0  0  0  0
  1  2  1  0  0  0  0
  2  7  1  0  0  0  0
  3  2  2  0  0  0  0
  3  4  1  0  0  0  0
  4  5  2  0  0  0  0
  5  6  1  0  0  0  0
  5 29  1  0  0  0  0
  6 30  1  0  0  0  0
  7 31  1  0  0  0  0
  7  6  2  0  0  0  0
  8  4  1  0  0  0  0
  9 10  1  0  0  0  0
  9  8  2  0  0  0  0
 11 10  1  0  0  0  0
 12 26  1  0  0  0  0
 12 11  2  0  0  0  0
 13 12  1  0  0  0  0
 14 13  2  0  0  0  0
 14 15  1  0  0  0  0
 15 16  2  0  0  0  0
 16 11  1  0  0  0  0
 16 17  1  0  0  0  0
 17 36  1  0  0  0  0
 17 35  1  0  0  0  0
 18 19  1  0  0  0  0
 18 17  1  0  0  0  0
 19 39  1  0  0  0  0
 20 21  1  0  0  0  0
 20 19  1  0  0  0  0
 20 40  1  0  0  0  0
 21 22  1  0  0  0  0
 22 42  1  0  0  0  0
 23 45  1  0  0  0  0
 23 18  1  0  0  0  0
 23 22  1  0  0  0  0
 24 48  1  0  0  0  0
 24 21  1  0  0  0  0
 25 15  1  0  0  0  0
 26  9  1  0  0  0  0
 27 26  2  0  0  0  0
 28  3  1  0  0  0  0
 32  8  1  0  0  0  0
 33 13  1  0  0  0  0
 34 14  1  0  0  0  0
 37 18  1  0  0  0  0
 38 19  1  0  0  0  0
 41 20  1  0  0  0  0
 43 22  1  0  0  0  0
 44 23  1  0  0  0  0
 46 24  1  0  0  0  0
 47 24  1  0  0  0  0
M  END
>  <Pose>
1

>  <Score>
-5.47

$$$$
