
 OpenBabel03232203513D

 50 53  0  0  1  0  0  0  0  0999 V2000
  -11.8840   14.0690  -16.8380 Cl  0  0  0  0  0  0  0  0  0  0  0  0
  -10.5670   13.0170  -16.3380 C   0  0  0  0  0  0  0  0  0  0  0  0
   -9.9010   13.2140  -15.1480 C   0  0  0  0  0  0  0  0  0  0  0  0
   -8.8650   12.3840  -14.7600 C   0  0  0  0  0  0  0  0  0  0  0  0
   -8.4460   11.3220  -15.5360 C   0  0  0  0  0  0  0  0  0  0  0  0
   -9.1110   11.1210  -16.7280 C   0  0  0  0  0  0  0  0  0  0  0  0
  -10.1600   11.9590  -17.1240 C   0  0  0  0  0  0  0  0  0  0  0  0
   -7.3490   10.4590  -15.1010 C   0  0  0  0  0  0  0  0  0  0  0  0
   -6.9920    9.2260  -15.5300 N   0  0  0  0  0  0  0  0  0  0  0  0
   -5.9100    8.8240  -14.8320 C   0  0  2  0  0  0  0  0  0  0  0  0
   -5.5450    9.7760  -13.9460 N   0  0  0  0  0  0  0  0  0  0  0  0
   -6.4370   10.7770  -14.1190 C   0  0  0  0  0  0  0  0  0  0  0  0
   -4.4450    9.7550  -13.0030 C   0  0  0  0  0  0  0  0  0  0  0  0
   -3.1530    9.9200  -13.7280 C   0  0  0  0  0  0  0  0  0  0  0  0
   -3.0860   10.7920  -14.5970 O   0  0  0  0  0  0  0  0  0  0  0  0
   -2.0960    9.0770  -13.3800 N   0  0  0  0  0  0  0  0  0  0  0  0
   -0.7230    9.3730  -13.5850 C   0  0  0  0  0  0  0  0  0  0  0  0
    0.1650    8.3190  -13.8380 C   0  0  0  0  0  0  0  0  0  0  0  0
    1.4880    8.5640  -14.0200 C   0  0  0  0  0  0  0  0  0  0  0  0
    1.9950    9.8520  -13.9640 C   0  0  0  0  0  0  0  0  0  0  0  0
    1.1220   10.8730  -13.7170 C   0  0  0  0  0  0  0  0  0  0  0  0
   -0.2480   10.6520  -13.5240 C   0  0  0  0  0  0  0  0  0  0  0  0
    3.4450   10.0960  -14.1670 C   0  0  0  0  0  0  0  0  0  0  0  0
    4.0260    8.9030  -14.9320 C   0  0  0  0  0  0  0  0  0  0  0  0
   -5.4960    7.4710  -15.2830 C   0  0  0  0  0  0  0  0  0  0  0  0
   -6.3990    7.1150  -16.4130 C   0  0  0  0  0  0  0  0  0  0  0  0
   -7.3910    8.2160  -16.4850 C   0  0  0  0  0  0  0  0  0  0  0  0
  -10.2230   14.0430  -14.5350 H   0  0  0  0  0  0  0  0  0  0  0  0
   -8.3560   12.5600  -13.8160 H   0  0  0  0  0  0  0  0  0  0  0  0
   -8.8240   10.3030  -17.3720 H   0  0  0  0  0  0  0  0  0  0  0  0
  -10.6790   11.8040  -18.0520 H   0  0  0  0  0  0  0  0  0  0  0  0
   -6.4270   11.7180  -13.5450 H   0  0  0  0  0  0  0  0  0  0  0  0
   -4.4640    8.8190  -12.4090 H   0  0  0  0  0  0  0  0  0  0  0  0
   -4.6290   10.5850  -12.2850 H   0  0  0  0  0  0  0  0  0  0  0  0
   -2.2770    8.1250  -12.9150 H   0  0  0  0  0  0  0  0  0  0  0  0
   -0.2250    7.2910  -13.8860 H   0  0  0  0  0  0  0  0  0  0  0  0
    2.1870    7.7340  -14.2190 H   0  0  0  0  0  0  0  0  0  0  0  0
    1.4640   11.9090  -13.6610 H   0  0  0  0  0  0  0  0  0  0  0  0
   -0.8810   11.5320  -13.3170 H   0  0  0  0  0  0  0  0  0  0  0  0
    3.9440   10.2200  -13.1910 H   0  0  0  0  0  0  0  0  0  0  0  0
    3.6000   11.0030  -14.7780 H   0  0  0  0  0  0  0  0  0  0  0  0
    3.6710    8.9230  -15.9690 H   0  0  0  0  0  0  0  0  0  0  0  0
    3.7850    7.9850  -14.3810 H   0  0  0  0  0  0  0  0  0  0  0  0
    5.1370    8.9950  -14.9510 H   0  0  0  0  0  0  0  0  0  0  0  0
   -5.5330    6.7430  -14.4450 H   0  0  0  0  0  0  0  0  0  0  0  0
   -4.4420    7.5130  -15.6760 H   0  0  0  0  0  0  0  0  0  0  0  0
   -5.8140    7.0060  -17.3740 H   0  0  0  0  0  0  0  0  0  0  0  0
   -6.8910    6.1120  -16.2180 H   0  0  0  0  0  0  0  0  0  0  0  0
   -8.4200    7.8410  -16.2680 H   0  0  0  0  0  0  0  0  0  0  0  0
   -7.3210    8.6560  -17.5200 H   0  0  0  0  0  0  0  0  0  0  0  0
  1  2  1  0  0  0  0
  2  3  1  0  0  0  0
  3  4  2  0  0  0  0
  3 28  1  0  0  0  0
  4 29  1  0  0  0  0
  5  8  1  0  0  0  0
  5  4  1  0  0  0  0
  6  5  2  0  0  0  0
  7  6  1  0  0  0  0
  7  2  2  0  0  0  0
  8 12  2  0  0  0  0
  9  8  1  0  0  0  0
 10  9  1  6  0  0  0
 10 11  1  0  0  0  0
 11 13  1  0  0  0  0
 12 11  1  0  0  0  0
 12 32  1  0  0  0  0
 13 33  1  0  0  0  0
 13 34  1  0  0  0  0
 14 16  1  0  0  0  0
 14 13  1  0  0  0  0
 15 14  2  0  0  0  0
 16 35  1  0  0  0  0
 17 22  1  0  0  0  0
 17 16  1  0  0  0  0
 18 17  2  0  0  0  0
 19 20  2  0  0  0  0
 19 18  1  0  0  0  0
 20 21  1  0  0  0  0
 21 38  1  0  0  0  0
 21 22  2  0  0  0  0
 22 39  1  0  0  0  0
 23 20  1  0  0  0  0
 23 40  1  0  0  0  0
 24 43  1  0  0  0  0
 24 23  1  0  0  0  0
 25 10  1  0  0  0  0
 25 45  1  0  0  0  0
 26 48  1  0  0  0  0
 26 25  1  0  0  0  0
 27 26  1  0  0  0  0
 27 49  1  0  0  0  0
 27  9  1  0  0  0  0
 30  6  1  0  0  0  0
 31  7  1  0  0  0  0
 36 18  1  0  0  0  0
 37 19  1  0  0  0  0
 41 23  1  0  0  0  0
 42 24  1  0  0  0  0
 44 24  1  0  0  0  0
 46 25  1  0  0  0  0
 47 26  1  0  0  0  0
 50 27  1  0  0  0  0
M  END
>  <Pose>
1

>  <Score>
-6.29

$$$$
