
 OpenBabel03232203513D

 56 59  0  0  1  0  0  0  0  0999 V2000
   -1.0540    6.5870  -14.0660 B   0  0  0  0  0  0  0  0  0  0  0  0
   -0.0450    8.1970  -13.9910 C   0  0  0  0  0  0  0  0  0  0  0  0
   -0.5940    9.2920  -13.3590 C   0  0  0  0  0  0  0  0  0  0  0  0
    0.1730   10.4370  -13.3290 C   0  0  0  0  0  0  0  0  0  0  0  0
    1.4280   10.5040  -13.8970 C   0  0  0  0  0  0  0  0  0  0  0  0
    1.9770    9.4090  -14.5300 C   0  0  0  0  0  0  0  0  0  0  0  0
    1.2260    8.2540  -14.5700 C   0  0  0  0  0  0  0  0  0  0  0  0
    3.2480    9.4830  -15.1030 O   0  0  0  0  0  0  0  0  0  0  0  0
    4.2870    8.6090  -14.7800 C   0  0  0  0  0  0  0  0  0  0  0  0
    2.1960   11.6640  -13.8630 O   0  0  0  0  0  0  0  0  0  0  0  0
    3.3750   11.8110  -13.1380 C   0  0  0  0  0  0  0  0  0  0  0  0
   -1.9210    9.2250  -12.7570 C   0  0  0  0  0  0  0  0  0  0  0  0
   -2.9610    9.7800  -13.2260 N   0  0  0  0  0  0  0  0  0  0  0  0
   -4.2310    9.6990  -12.6220 N   0  0  0  0  0  0  0  0  0  0  0  0
   -5.3620   10.0160  -13.4250 C   0  0  0  0  0  0  0  0  0  0  0  0
   -5.6830    9.4520  -14.6170 N   0  0  0  0  0  0  0  0  0  0  0  0
   -6.8310   10.0190  -15.0710 C   0  0  0  0  0  0  0  0  0  0  0  0
   -7.5840    9.8520  -16.1640 N   0  0  0  0  0  0  0  0  0  0  0  0
   -8.7060   10.5650  -16.3760 C   0  0  0  0  0  0  0  0  0  0  0  0
   -9.0840   11.4780  -15.4550 N   0  0  0  0  0  0  0  0  0  0  0  0
   -8.3850   11.6970  -14.3470 C   0  0  0  0  0  0  0  0  0  0  0  0
   -7.2340   10.9630  -14.1350 C   0  0  0  0  0  0  0  0  0  0  0  0
   -6.3290   10.9240  -13.1730 N   0  0  0  0  0  0  0  0  0  0  0  0
   -8.7500   12.6350  -13.3760 O   0  0  0  0  0  0  0  0  0  0  0  0
   -9.5020   10.3730  -17.5550 N   0  0  0  0  0  0  0  0  0  0  0  0
   -4.9350    8.4300  -15.2810 C   0  0  2  0  0  0  0  0  0  0  0  0
   -4.8850    8.5720  -16.6610 O   0  0  0  0  0  0  0  0  0  0  0  0
   -4.6120    7.3540  -17.2140 C   0  0  1  0  0  0  0  0  0  0  0  0
   -4.7680    6.2850  -16.1890 C   0  0  2  0  0  0  0  0  0  0  0  0
   -5.4740    7.0320  -15.0550 C   0  0  1  0  0  0  0  0  0  0  0  0
   -5.0900    6.5210  -13.8160 O   0  0  0  0  0  0  0  0  0  0  0  0
   -3.5100    5.9220  -15.6650 O   0  0  0  0  0  0  0  0  0  0  0  0
   -5.6360    7.0910  -18.3210 C   0  0  0  0  0  0  0  0  0  0  0  0
   -5.2320    7.7200  -19.5040 O   0  0  0  0  0  0  0  0  0  0  0  0
   -0.2590   11.3080  -12.8280 H   0  0  0  0  0  0  0  0  0  0  0  0
    1.6330    7.3790  -15.0610 H   0  0  0  0  0  0  0  0  0  0  0  0
    5.0610    8.5400  -15.5760 H   0  0  0  0  0  0  0  0  0  0  0  0
    3.9060    7.5550  -14.6610 H   0  0  0  0  0  0  0  0  0  0  0  0
    4.8160    8.8600  -13.8450 H   0  0  0  0  0  0  0  0  0  0  0  0
    3.9570   12.6380  -13.6030 H   0  0  0  0  0  0  0  0  0  0  0  0
    3.9550   10.8950  -12.9930 H   0  0  0  0  0  0  0  0  0  0  0  0
    3.1170   12.1850  -12.1060 H   0  0  0  0  0  0  0  0  0  0  0  0
   -2.0410    8.6630  -11.8390 H   0  0  0  0  0  0  0  0  0  0  0  0
   -4.3690    9.4220  -11.6380 H   0  0  0  0  0  0  0  0  0  0  0  0
   -9.1640   13.4930  -13.7200 H   0  0  0  0  0  0  0  0  0  0  0  0
   -9.7160   11.1100  -18.2350 H   0  0  0  0  0  0  0  0  0  0  0  0
   -9.8770    9.4130  -17.7090 H   0  0  0  0  0  0  0  0  0  0  0  0
   -3.8820    8.4120  -14.9270 H   0  0  0  0  0  0  0  0  0  0  0  0
   -3.5840    7.3920  -17.6400 H   0  0  0  0  0  0  0  0  0  0  0  0
   -5.3470    5.4120  -16.5220 H   0  0  0  0  0  0  0  0  0  0  0  0
   -6.5650    6.9810  -15.1670 H   0  0  0  0  0  0  0  0  0  0  0  0
   -4.8440    5.5640  -13.9060 H   0  0  0  0  0  0  0  0  0  0  0  0
   -2.9280    5.5430  -16.3590 H   0  0  0  0  0  0  0  0  0  0  0  0
   -6.5890    7.5240  -17.9730 H   0  0  0  0  0  0  0  0  0  0  0  0
   -5.7160    6.0010  -18.4370 H   0  0  0  0  0  0  0  0  0  0  0  0
   -5.5250    7.2100  -20.3020 H   0  0  0  0  0  0  0  0  0  0  0  0
  1  2  1  0  0  0  0
  2  3  1  0  0  0  0
  3  4  2  0  0  0  0
  3 12  1  0  0  0  0
  4 35  1  0  0  0  0
  5 10  1  0  0  0  0
  5  4  1  0  0  0  0
  6  5  2  0  0  0  0
  7  6  1  0  0  0  0
  7  2  2  0  0  0  0
  8  9  1  0  0  0  0
  8  6  1  0  0  0  0
  9 38  1  0  0  0  0
  9 39  1  0  0  0  0
 10 11  1  0  0  0  0
 11 41  1  0  0  0  0
 11 42  1  0  0  0  0
 12 43  1  0  0  0  0
 13 12  2  0  0  0  0
 13 14  1  0  0  0  0
 14 44  1  0  0  0  0
 15 23  2  0  0  0  0
 15 14  1  0  0  0  0
 16 15  1  0  0  0  0
 17 16  1  0  0  0  0
 17 22  2  0  0  0  0
 18 17  1  0  0  0  0
 19 18  2  0  0  0  0
 19 20  1  0  0  0  0
 20 21  2  0  0  0  0
 21 22  1  0  0  0  0
 21 24  1  0  0  0  0
 22 23  1  0  0  0  0
 25 19  1  0  0  0  0
 26 30  1  0  0  0  0
 26 48  1  1  0  0  0
 26 16  1  0  0  0  0
 27 26  1  0  0  0  0
 28 49  1  6  0  0  0
 28 27  1  0  0  0  0
 28 29  1  0  0  0  0
 29 50  1  6  0  0  0
 29 32  1  0  0  0  0
 29 30  1  0  0  0  0
 30 51  1  6  0  0  0
 30 31  1  0  0  0  0
 33 54  1  0  0  0  0
 33 28  1  0  0  0  0
 34 33  1  0  0  0  0
 36  7  1  0  0  0  0
 37  9  1  0  0  0  0
 40 11  1  0  0  0  0
 45 24  1  0  0  0  0
 46 25  1  0  0  0  0
 47 25  1  0  0  0  0
 52 31  1  0  0  0  0
 53 32  1  0  0  0  0
 55 33  1  0  0  0  0
 56 34  1  0  0  0  0
M  END
>  <Pose>
1

>  <Score>
-7.43

$$$$
