
 OpenBabel03232203513D

 42 45  0  0  1  0  0  0  0  0999 V2000
   -5.1040   19.3800  -12.5050 Cl  0  0  0  0  0  0  0  0  0  0  0  0
   -5.2140   20.4770  -11.1500 C   0  0  0  0  0  0  0  0  0  0  0  0
   -4.1380   20.5450  -10.2900 C   0  0  0  0  0  0  0  0  0  0  0  0
   -4.2570   21.4170   -9.2350 C   0  0  0  0  0  0  0  0  0  0  0  0
   -5.3780   22.1900   -9.0300 C   0  0  0  0  0  0  0  0  0  0  0  0
   -6.4590   22.1070   -9.9160 C   0  0  0  0  0  0  0  0  0  0  0  0
   -6.3620   21.2420  -10.9770 C   0  0  0  0  0  0  0  0  0  0  0  0
   -2.9360   19.7400  -10.4770 C   0  0  0  0  0  0  0  0  0  0  0  0
   -1.9790   19.4760   -9.5720 N   0  0  0  0  0  0  0  0  0  0  0  0
   -1.0580   18.7130  -10.1210 O   0  0  0  0  0  0  0  0  0  0  0  0
   -1.3720   18.4610  -11.3660 C   0  0  0  0  0  0  0  0  0  0  0  0
   -2.5420   19.0990  -11.5920 N   0  0  0  0  0  0  0  0  0  0  0  0
   -0.6050   17.6320  -12.3640 C   0  0  0  0  0  0  0  0  0  0  0  0
   -0.9650   16.2320  -12.2360 N   0  0  0  0  0  0  0  0  0  0  0  0
   -0.5150   15.2730  -13.1620 C   0  0  0  0  0  0  0  0  0  0  0  0
   -0.4510   15.5720  -14.3750 O   0  0  0  0  0  0  0  0  0  0  0  0
   -0.1240   13.9290  -12.7110 C   0  0  1  0  0  0  0  0  0  0  0  0
   -0.2450   12.8980  -13.8180 C   0  0  0  0  0  0  0  0  0  0  0  0
    0.3320   11.5860  -13.4050 C   0  0  0  0  0  0  0  0  0  0  0  0
    1.7720   11.3910  -13.7510 C   0  0  0  0  0  0  0  0  0  0  0  0
    2.5380   12.7100  -13.8010 C   0  0  0  0  0  0  0  0  0  0  0  0
    2.3400   13.3700  -12.5310 N   0  0  0  0  0  0  0  0  0  0  0  0
    3.2890   13.5430  -11.6500 N   0  0  0  0  0  0  0  0  0  0  0  0
    2.7910   14.1700  -10.6140 N   0  0  0  0  0  0  0  0  0  0  0  0
    1.5130   14.3880  -10.8580 N   0  0  0  0  0  0  0  0  0  0  0  0
    1.1970   13.8910  -12.0670 C   0  0  0  0  0  0  0  0  0  0  0  0
   -3.4450   21.5060   -8.5360 H   0  0  0  0  0  0  0  0  0  0  0  0
   -5.4800   22.8780   -8.2060 H   0  0  0  0  0  0  0  0  0  0  0  0
   -7.3510   22.7060   -9.7750 H   0  0  0  0  0  0  0  0  0  0  0  0
   -7.2010   21.1790  -11.6620 H   0  0  0  0  0  0  0  0  0  0  0  0
    0.4750   17.7740  -12.2090 H   0  0  0  0  0  0  0  0  0  0  0  0
   -0.8550   18.0230  -13.3700 H   0  0  0  0  0  0  0  0  0  0  0  0
   -1.5660   15.9280  -11.4450 H   0  0  0  0  0  0  0  0  0  0  0  0
   -0.8600   13.6010  -11.9320 H   0  0  0  0  0  0  0  0  0  0  0  0
   -1.3510   12.7390  -13.9930 H   0  0  0  0  0  0  0  0  0  0  0  0
    0.1350   13.3030  -14.7630 H   0  0  0  0  0  0  0  0  0  0  0  0
   -0.2950   10.7660  -13.8570 H   0  0  0  0  0  0  0  0  0  0  0  0
    0.1910   11.4730  -12.3060 H   0  0  0  0  0  0  0  0  0  0  0  0
    2.2110   10.7080  -12.9950 H   0  0  0  0  0  0  0  0  0  0  0  0
    1.9130   10.9250  -14.7540 H   0  0  0  0  0  0  0  0  0  0  0  0
    3.6100   12.4660  -13.9280 H   0  0  0  0  0  0  0  0  0  0  0  0
    2.1620   13.3560  -14.5940 H   0  0  0  0  0  0  0  0  0  0  0  0
  1  2  1  0  0  0  0
  2  7  2  0  0  0  0
  2  3  1  0  0  0  0
  3  4  2  0  0  0  0
  4  5  1  0  0  0  0
  4 27  1  0  0  0  0
  5 28  1  0  0  0  0
  6 29  1  0  0  0  0
  6  5  2  0  0  0  0
  7  6  1  0  0  0  0
  8  3  1  0  0  0  0
  8  9  2  0  0  0  0
 10  9  1  0  0  0  0
 11 10  1  0  0  0  0
 12 11  2  0  0  0  0
 12  8  1  0  0  0  0
 13 14  1  0  0  0  0
 13 31  1  0  0  0  0
 13 11  1  0  0  0  0
 14 33  1  0  0  0  0
 15 17  1  0  0  0  0
 15 14  1  0  0  0  0
 16 15  2  0  0  0  0
 17 26  1  0  0  0  0
 17 34  1  1  0  0  0
 18 19  1  0  0  0  0
 18 17  1  0  0  0  0
 19 38  1  0  0  0  0
 20 19  1  0  0  0  0
 20 39  1  0  0  0  0
 21 20  1  0  0  0  0
 21 22  1  0  0  0  0
 22 26  1  0  0  0  0
 22 23  1  0  0  0  0
 23 24  2  0  0  0  0
 25 24  1  0  0  0  0
 26 25  2  0  0  0  0
 30  7  1  0  0  0  0
 32 13  1  0  0  0  0
 35 18  1  0  0  0  0
 36 18  1  0  0  0  0
 37 19  1  0  0  0  0
 40 20  1  0  0  0  0
 41 21  1  0  0  0  0
 42 21  1  0  0  0  0
M  END
>  <Pose>
1

>  <Score>
-6.54

$$$$
