
 OpenBabel03232203513D

 33 36  0  0  1  0  0  0  0  0999 V2000
   -1.1550    5.6340  -13.6040 B   0  0  0  0  0  0  0  0  0  0  0  0
   -1.5150    7.4910  -13.3460 C   0  0  0  0  0  0  0  0  0  0  0  0
   -0.6000    8.4580  -13.6790 C   0  0  0  0  0  0  0  0  0  0  0  0
   -0.8920    9.7850  -13.4720 C   0  0  0  0  0  0  0  0  0  0  0  0
   -2.1060   10.1850  -12.9300 C   0  0  0  0  0  0  0  0  0  0  0  0
   -3.0360    9.2340  -12.5890 C   0  0  0  0  0  0  0  0  0  0  0  0
   -2.7310    7.8850  -12.8030 C   0  0  0  0  0  0  0  0  0  0  0  0
    0.7210    8.1250  -14.2710 C   0  0  1  0  0  0  0  0  0  0  0  0
    1.6920    9.1280  -14.2650 C   0  0  1  0  0  0  0  0  0  0  0  0
    2.5300    9.8380  -13.2600 C   0  0  0  0  0  0  0  0  0  0  0  0
    3.7060    8.9500  -13.4470 N   0  0  0  0  0  0  0  0  0  0  0  0
    3.2680    7.7370  -13.5830 C   0  0  2  0  0  0  0  0  0  0  0  0
    1.8430    7.7870  -13.4830 C   0  0  2  0  0  0  0  0  0  0  0  0
    1.4960    7.7980  -12.0310 C   0  0  0  0  0  0  0  0  0  0  0  0
    1.2000    7.7920  -10.8850 N   0  0  0  0  0  0  0  0  0  0  0  0
    4.0860    6.5650  -13.7950 N   0  0  0  0  0  0  0  0  0  0  0  0
    2.8330   11.1070  -13.7660 O   0  0  0  0  0  0  0  0  0  0  0  0
    2.5270   12.0200  -12.7750 C   0  0  0  0  0  0  0  0  0  0  0  0
    2.6400   11.1800  -11.5140 C   0  0  0  0  0  0  0  0  0  0  0  0
    2.0960    9.9660  -12.0030 O   0  0  0  0  0  0  0  0  0  0  0  0
    2.4560    9.1930  -15.5620 C   0  0  0  0  0  0  0  0  0  0  0  0
    3.0720    9.2340  -16.5690 N   0  0  0  0  0  0  0  0  0  0  0  0
   -0.1970   10.6020  -13.7200 H   0  0  0  0  0  0  0  0  0  0  0  0
   -2.3500   11.2180  -12.7620 H   0  0  0  0  0  0  0  0  0  0  0  0
   -3.9700    9.5220  -12.1750 H   0  0  0  0  0  0  0  0  0  0  0  0
   -3.4370    7.0980  -12.5500 H   0  0  0  0  0  0  0  0  0  0  0  0
    0.5530    7.4820  -15.1810 H   0  0  0  0  0  0  0  0  0  0  0  0
    4.6160    6.4330  -14.6770 H   0  0  0  0  0  0  0  0  0  0  0  0
    4.1580    5.8310  -13.0660 H   0  0  0  0  0  0  0  0  0  0  0  0
    1.4730   12.3460  -12.9070 H   0  0  0  0  0  0  0  0  0  0  0  0
    3.2240   12.8850  -12.7660 H   0  0  0  0  0  0  0  0  0  0  0  0
    3.7090   11.0400  -11.2430 H   0  0  0  0  0  0  0  0  0  0  0  0
    2.0540   11.5790  -10.6760 H   0  0  0  0  0  0  0  0  0  0  0  0
  1  2  1  0  0  0  0
  2  7  1  0  0  0  0
  3  4  1  0  0  0  0
  3  2  2  0  0  0  0
  4  5  2  0  0  0  0
  5 24  1  0  0  0  0
  5  6  1  0  0  0  0
  6 25  1  0  0  0  0
  7  6  2  0  0  0  0
  7 26  1  0  0  0  0
  8 27  1  6  0  0  0
  8  9  1  0  0  0  0
  8  3  1  0  0  0  0
  8 13  1  0  0  0  0
  9 21  1  6  0  0  0
  9 13  1  0  0  0  0
  9 10  1  0  0  0  0
 10 20  1  0  0  0  0
 11 10  1  0  0  0  0
 12 16  1  1  0  0  0
 12 13  1  0  0  0  0
 12 11  1  0  0  0  0
 13 14  1  1  0  0  0
 14 15  3  0  0  0  0
 16 29  1  0  0  0  0
 17 10  1  0  0  0  0
 17 18  1  0  0  0  0
 18 31  1  0  0  0  0
 18 19  1  0  0  0  0
 19 32  1  0  0  0  0
 19 33  1  0  0  0  0
 20 19  1  0  0  0  0
 22 21  3  0  0  0  0
 23  4  1  0  0  0  0
 28 16  1  0  0  0  0
 30 18  1  0  0  0  0
M  END
>  <Pose>
1

>  <Score>
-4.16

$$$$
