
 OpenBabel03232203513D

 57 60  0  0  1  0  0  0  0  0999 V2000
   -1.3710    4.0660  -13.3930 B   0  0  0  0  0  0  0  0  0  0  0  0
   -0.4610    5.7320  -13.2220 C   0  0  0  0  0  0  0  0  0  0  0  0
   -0.7670    6.7970  -14.0560 C   0  0  0  0  0  0  0  0  0  0  0  0
   -0.1230    8.0050  -13.9490 C   0  0  0  0  0  0  0  0  0  0  0  0
    0.8500    8.1700  -12.9920 C   0  0  0  0  0  0  0  0  0  0  0  0
    1.1700    7.1080  -12.1430 C   0  0  0  0  0  0  0  0  0  0  0  0
    0.5190    5.9050  -12.2610 C   0  0  0  0  0  0  0  0  0  0  0  0
    1.5530    9.4180  -12.7910 C   0  0  1  0  0  0  0  0  0  0  0  0
    2.1390    9.5470  -11.6350 O   0  0  0  0  0  0  0  0  0  0  0  0
    1.7230   10.5610  -13.6590 C   0  0  1  0  0  0  0  0  0  0  0  0
    1.7460   11.8000  -12.9260 N   0  0  0  0  0  0  0  0  0  0  0  0
    2.9150   11.5950  -12.0410 C   0  0  2  0  0  0  0  0  0  0  0  0
    3.1470   12.8230  -11.3840 N   0  0  0  0  0  0  0  0  0  0  0  0
    2.0850   13.7140  -11.7390 C   0  0  0  0  0  0  0  0  0  0  0  0
    1.2570   13.0760  -12.6650 C   0  0  0  0  0  0  0  0  0  0  0  0
    0.1580   13.7540  -13.1480 C   0  0  0  0  0  0  0  0  0  0  0  0
   -0.5730   13.1590  -13.9800 O   0  0  0  0  0  0  0  0  0  0  0  0
   -0.0910   14.9990  -12.7230 N   0  0  0  0  0  0  0  0  0  0  0  0
    0.7100   15.5780  -11.8460 C   0  0  0  0  0  0  0  0  0  0  0  0
    0.4400   16.7520  -11.4710 O   0  0  0  0  0  0  0  0  0  0  0  0
    1.8150   14.9570  -11.3300 N   0  0  0  0  0  0  0  0  0  0  0  0
    2.6070   15.7000  -10.3760 C   0  0  0  0  0  0  0  0  0  0  0  0
   -1.2710   15.6830  -13.2630 C   0  0  0  0  0  0  0  0  0  0  0  0
    4.2160   13.1640  -10.4810 C   0  0  0  0  0  0  0  0  0  0  0  0
    3.9330   10.9850  -12.9100 C   0  0  1  0  0  0  0  0  0  0  0  0
    3.1690   10.5900  -14.1810 C   0  0  1  0  0  0  0  0  0  0  0  0
    3.6150    9.3030  -14.7070 C   0  0  0  0  0  0  0  0  0  0  0  0
    3.0180    8.7830  -15.7060 O   0  0  0  0  0  0  0  0  0  0  0  0
    4.6680    8.6200  -14.1610 O   0  0  0  0  0  0  0  0  0  0  0  0
    4.6140    7.2270  -13.8450 C   0  0  0  0  0  0  0  0  0  0  0  0
    5.1330   11.7450  -13.2330 C   0  0  0  0  0  0  0  0  0  0  0  0
    5.0350   12.8480  -13.8320 O   0  0  0  0  0  0  0  0  0  0  0  0
    6.3920   11.2940  -12.9010 O   0  0  0  0  0  0  0  0  0  0  0  0
    7.5520   11.8610  -13.4700 C   0  0  0  0  0  0  0  0  0  0  0  0
   -1.5270    6.6920  -14.8140 H   0  0  0  0  0  0  0  0  0  0  0  0
   -0.3740    8.7850  -14.6180 H   0  0  0  0  0  0  0  0  0  0  0  0
    1.9480    7.2050  -11.3630 H   0  0  0  0  0  0  0  0  0  0  0  0
    0.7870    5.0800  -11.5840 H   0  0  0  0  0  0  0  0  0  0  0  0
    1.0100   10.5950  -14.5160 H   0  0  0  0  0  0  0  0  0  0  0  0
    2.6410   10.8530  -11.2450 H   0  0  0  0  0  0  0  0  0  0  0  0
    3.6910   15.7190  -10.6020 H   0  0  0  0  0  0  0  0  0  0  0  0
    2.3210   16.8010  -10.4420 H   0  0  0  0  0  0  0  0  0  0  0  0
    2.3640   15.4540   -9.3190 H   0  0  0  0  0  0  0  0  0  0  0  0
   -1.2090   15.7610  -14.3690 H   0  0  0  0  0  0  0  0  0  0  0  0
   -1.3920   16.6700  -12.7750 H   0  0  0  0  0  0  0  0  0  0  0  0
   -2.1660   15.0660  -13.0290 H   0  0  0  0  0  0  0  0  0  0  0  0
    4.7140   12.2180  -10.1020 H   0  0  0  0  0  0  0  0  0  0  0  0
    5.0030   13.7940  -10.8770 H   0  0  0  0  0  0  0  0  0  0  0  0
    3.8050   13.5970   -9.5140 H   0  0  0  0  0  0  0  0  0  0  0  0
    4.2420    9.9710  -12.4860 H   0  0  0  0  0  0  0  0  0  0  0  0
    3.2480   11.4310  -14.9170 H   0  0  0  0  0  0  0  0  0  0  0  0
    4.7780    6.6200  -14.7710 H   0  0  0  0  0  0  0  0  0  0  0  0
    5.4000    7.0370  -13.0890 H   0  0  0  0  0  0  0  0  0  0  0  0
    3.5870    7.0640  -13.4270 H   0  0  0  0  0  0  0  0  0  0  0  0
    8.4320   11.4360  -12.9250 H   0  0  0  0  0  0  0  0  0  0  0  0
    7.6240   11.4610  -14.5130 H   0  0  0  0  0  0  0  0  0  0  0  0
    7.5400   12.9700  -13.4470 H   0  0  0  0  0  0  0  0  0  0  0  0
  1  2  1  0  0  0  0
  2  7  1  0  0  0  0
  3  4  1  0  0  0  0
  3  2  2  0  0  0  0
  4  5  2  0  0  0  0
  5  8  1  0  0  0  0
  5  6  1  0  0  0  0
  6 37  1  0  0  0  0
  7  6  2  0  0  0  0
  7 38  1  0  0  0  0
  8  9  1  6  0  0  0
 10 39  1  6  0  0  0
 10 11  1  0  0  0  0
 10  8  1  0  0  0  0
 11 15  1  0  0  0  0
 11 12  1  0  0  0  0
 12 13  1  0  0  0  0
 12 40  1  1  0  0  0
 13 24  1  0  0  0  0
 14 13  1  0  0  0  0
 14 21  1  0  0  0  0
 15 14  2  0  0  0  0
 16 18  1  0  0  0  0
 16 15  1  0  0  0  0
 17 16  2  0  0  0  0
 18 19  1  0  0  0  0
 19 20  2  0  0  0  0
 19 21  1  0  0  0  0
 21 22  1  0  0  0  0
 22 43  1  0  0  0  0
 23 46  1  0  0  0  0
 23 45  1  0  0  0  0
 23 18  1  0  0  0  0
 24 47  1  0  0  0  0
 24 49  1  0  0  0  0
 25 50  1  1  0  0  0
 25 12  1  0  0  0  0
 26 51  1  6  0  0  0
 26 10  1  0  0  0  0
 26 25  1  0  0  0  0
 27 26  1  0  0  0  0
 27 29  1  0  0  0  0
 28 27  2  0  0  0  0
 29 30  1  0  0  0  0
 30 54  1  0  0  0  0
 30 53  1  0  0  0  0
 31 25  1  0  0  0  0
 31 33  1  0  0  0  0
 32 31  2  0  0  0  0
 34 57  1  0  0  0  0
 34 55  1  0  0  0  0
 34 33  1  0  0  0  0
 35  3  1  0  0  0  0
 36  4  1  0  0  0  0
 41 22  1  0  0  0  0
 42 22  1  0  0  0  0
 44 23  1  0  0  0  0
 48 24  1  0  0  0  0
 52 30  1  0  0  0  0
 56 34  1  0  0  0  0
M  END
>  <Pose>
1

>  <Score>
-3.25

$$$$
