
 OpenBabel03232203513D

 55 57  0  0  1  0  0  0  0  0999 V2000
  -11.0760   12.5140  -17.5800 Cl  0  0  0  0  0  0  0  0  0  0  0  0
   -9.9870   12.2450  -16.2100 C   0  0  0  0  0  0  0  0  0  0  0  0
   -9.0150   11.2770  -16.3040 C   0  0  0  0  0  0  0  0  0  0  0  0
   -8.1440   11.0360  -15.2540 C   0  0  0  0  0  0  0  0  0  0  0  0
   -7.1280   10.1790  -15.0730 N   0  0  0  0  0  0  0  0  0  0  0  0
   -6.5920   10.3680  -13.8160 C   0  0  0  0  0  0  0  0  0  0  0  0
   -7.3080   11.3460  -13.2720 N   0  0  0  0  0  0  0  0  0  0  0  0
   -8.2810   11.7960  -14.1160 C   0  0  0  0  0  0  0  0  0  0  0  0
   -9.2530   12.7690  -14.0110 C   0  0  0  0  0  0  0  0  0  0  0  0
  -10.1120   12.9990  -15.0590 C   0  0  0  0  0  0  0  0  0  0  0  0
   -7.1200   11.9590  -11.9690 C   0  0  0  0  0  0  0  0  0  0  0  0
   -5.4130    9.6340  -13.2910 C   0  0  0  0  0  0  0  0  0  0  0  0
   -4.1090    9.9370  -13.8970 C   0  0  0  0  0  0  0  0  0  0  0  0
   -3.1780    8.8260  -14.1240 C   0  0  0  0  0  0  0  0  0  0  0  0
   -3.3840    7.9410  -14.9850 O   0  0  0  0  0  0  0  0  0  0  0  0
   -1.9810    8.7500  -13.3200 N   0  0  0  0  0  0  0  0  0  0  0  0
   -0.9730    9.7620  -13.4780 C   0  0  0  0  0  0  0  0  0  0  0  0
    0.2400    9.0940  -14.0930 C   0  0  2  0  0  0  0  0  0  0  0  0
    0.4090    7.6750  -13.6850 C   0  0  1  0  0  0  0  0  0  0  0  0
   -0.3010    7.2740  -12.4440 C   0  0  0  0  0  0  0  0  0  0  0  0
   -1.7250    7.7160  -12.3560 C   0  0  0  0  0  0  0  0  0  0  0  0
    0.0520    6.7710  -14.6980 O   0  0  0  0  0  0  0  0  0  0  0  0
    1.9080    7.4450  -13.4500 C   0  0  0  0  0  0  0  0  0  0  0  0
    1.3890    9.9190  -13.8120 N   0  0  0  0  0  0  0  0  0  0  0  0
    2.6160    9.3690  -13.7300 C   0  0  0  0  0  0  0  0  0  0  0  0
    3.7400   10.1180  -13.4630 C   0  0  0  0  0  0  0  0  0  0  0  0
    3.5940   11.4740  -13.2770 C   0  0  0  0  0  0  0  0  0  0  0  0
    4.5960   12.2230  -13.0270 O   0  0  0  0  0  0  0  0  0  0  0  0
    2.3600   11.9940  -13.3640 N   0  0  0  0  0  0  0  0  0  0  0  0
    1.2870   11.2460  -13.6240 C   0  0  0  0  0  0  0  0  0  0  0  0
    0.1460   11.7860  -13.6950 O   0  0  0  0  0  0  0  0  0  0  0  0
   -8.8790   10.6600  -17.1870 H   0  0  0  0  0  0  0  0  0  0  0  0
   -9.3200   13.3340  -13.1050 H   0  0  0  0  0  0  0  0  0  0  0  0
  -10.8860   13.7550  -15.0120 H   0  0  0  0  0  0  0  0  0  0  0  0
   -6.2010   11.6350  -11.4710 H   0  0  0  0  0  0  0  0  0  0  0  0
   -7.1520   13.0660  -12.0140 H   0  0  0  0  0  0  0  0  0  0  0  0
   -8.0090   11.6620  -11.3530 H   0  0  0  0  0  0  0  0  0  0  0  0
   -5.6580    8.5400  -13.3160 H   0  0  0  0  0  0  0  0  0  0  0  0
   -5.4130    9.8670  -12.1800 H   0  0  0  0  0  0  0  0  0  0  0  0
   -4.1940   10.5940  -14.8090 H   0  0  0  0  0  0  0  0  0  0  0  0
   -3.5670   10.6200  -13.1580 H   0  0  0  0  0  0  0  0  0  0  0  0
   -0.7190   10.2660  -12.5210 H   0  0  0  0  0  0  0  0  0  0  0  0
   -1.3410   10.5660  -14.1490 H   0  0  0  0  0  0  0  0  0  0  0  0
    0.0780    9.1140  -15.2040 H   0  0  0  0  0  0  0  0  0  0  0  0
   -0.3100    6.1450  -12.4150 H   0  0  0  0  0  0  0  0  0  0  0  0
    0.3060    7.5580  -11.5410 H   0  0  0  0  0  0  0  0  0  0  0  0
   -1.8550    8.1850  -11.3370 H   0  0  0  0  0  0  0  0  0  0  0  0
   -2.4530    6.8860  -12.3980 H   0  0  0  0  0  0  0  0  0  0  0  0
    0.7050    6.8870  -15.4570 H   0  0  0  0  0  0  0  0  0  0  0  0
    2.0570    6.3400  -13.5180 H   0  0  0  0  0  0  0  0  0  0  0  0
    2.4960    7.8750  -14.2940 H   0  0  0  0  0  0  0  0  0  0  0  0
    2.2290    7.7840  -12.4630 H   0  0  0  0  0  0  0  0  0  0  0  0
    2.7340    8.2900  -13.8780 H   0  0  0  0  0  0  0  0  0  0  0  0
    4.7220    9.6750  -13.3970 H   0  0  0  0  0  0  0  0  0  0  0  0
    2.2020   13.0370  -13.2260 H   0  0  0  0  0  0  0  0  0  0  0  0
  1  2  1  0  0  0  0
  2 10  1  0  0  0  0
  3  2  2  0  0  0  0
  3  4  1  0  0  0  0
  4  5  1  0  0  0  0
  4  8  2  0  0  0  0
  5  6  2  0  0  0  0
  6 12  1  0  0  0  0
  6  7  1  0  0  0  0
  7 11  1  0  0  0  0
  8  9  1  0  0  0  0
  8  7  1  0  0  0  0
  9 33  1  0  0  0  0
 10 34  1  0  0  0  0
 10  9  2  0  0  0  0
 11 35  1  0  0  0  0
 11 37  1  0  0  0  0
 12 39  1  0  0  0  0
 13 12  1  0  0  0  0
 13 41  1  0  0  0  0
 14 13  1  0  0  0  0
 14 16  1  0  0  0  0
 15 14  2  0  0  0  0
 16 21  1  0  0  0  0
 17 16  1  0  0  0  0
 17 42  1  0  0  0  0
 18 44  1  6  0  0  0
 18 24  1  0  0  0  0
 18 19  1  0  0  0  0
 18 17  1  0  0  0  0
 19 22  1  6  0  0  0
 19 20  1  0  0  0  0
 20 45  1  0  0  0  0
 20 21  1  0  0  0  0
 20 46  1  0  0  0  0
 21 47  1  0  0  0  0
 23 52  1  0  0  0  0
 24 25  1  0  0  0  0
 24 30  1  0  0  0  0
 25 26  2  0  0  0  0
 26 54  1  0  0  0  0
 26 27  1  0  0  0  0
 27 28  2  0  0  0  0
 29 27  1  0  0  0  0
 29 55  1  0  0  0  0
 30 29  1  0  0  0  0
 31 30  2  0  0  0  0
 32  3  1  0  0  0  0
 36 11  1  0  0  0  0
 38 12  1  0  0  0  0
 40 13  1  0  0  0  0
 43 17  1  0  0  0  0
 48 21  1  0  0  0  0
 49 22  1  0  0  0  0
 50 23  1  0  0  0  0
 51 23  1  0  0  0  0
 53 25  1  0  0  0  0
M  END
>  <Pose>
1

>  <Score>
-6.34

$$$$
