
 OpenBabel03232203513D

 49 52  0  0  0  0  0  0  0  0999 V2000
    1.0550    7.5440  -11.3860 B   0  0  0  0  0  0  0  0  0  0  0  0
    1.8670    8.6700  -12.6740 C   0  0  0  0  0  0  0  0  0  0  0  0
    2.4270    9.8680  -12.2660 C   0  0  0  0  0  0  0  0  0  0  0  0
    3.0340   10.7340  -13.1560 C   0  0  0  0  0  0  0  0  0  0  0  0
    3.0710   10.3670  -14.4940 C   0  0  0  0  0  0  0  0  0  0  0  0
    2.5130    9.1760  -14.8920 C   0  0  0  0  0  0  0  0  0  0  0  0
    1.9040    8.3010  -14.0200 C   0  0  0  0  0  0  0  0  0  0  0  0
    3.6310   12.0010  -12.7570 C   0  0  0  0  0  0  0  0  0  0  0  0
    4.4480   12.5690  -13.5260 O   0  0  0  0  0  0  0  0  0  0  0  0
    3.3370   12.6390  -11.5310 N   0  0  0  0  0  0  0  0  0  0  0  0
    1.9960   13.0610  -11.1880 C   0  0  0  0  0  0  0  0  0  0  0  0
    1.5990   14.2850  -11.9330 C   0  0  0  0  0  0  0  0  0  0  0  0
    2.5250   15.0300  -12.3380 O   0  0  0  0  0  0  0  0  0  0  0  0
    0.2670   14.6390  -12.1970 N   0  0  0  0  0  0  0  0  0  0  0  0
   -0.2850   14.6370  -13.5290 C   0  0  0  0  0  0  0  0  0  0  0  0
   -0.6450   16.0690  -13.8570 C   0  0  0  0  0  0  0  0  0  0  0  0
   -1.4780   16.6530  -12.7420 C   0  0  0  0  0  0  0  0  0  0  0  0
   -0.7400   17.7560  -12.1630 N   0  0  0  0  0  0  0  0  0  0  0  0
   -1.4460   18.4960  -11.1750 C   0  0  0  0  0  0  0  0  0  0  0  0
   -2.8880   18.7480  -11.4200 C   0  0  0  0  0  0  0  0  0  0  0  0
   -3.3850   18.2720  -12.7280 C   0  0  0  0  0  0  0  0  0  0  0  0
   -4.4520   18.6430  -13.5010 N   0  0  0  0  0  0  0  0  0  0  0  0
   -4.4220   17.8660  -14.5910 C   0  0  0  0  0  0  0  0  0  0  0  0
   -3.3720   17.0330  -14.5120 N   0  0  0  0  0  0  0  0  0  0  0  0
   -2.6980   17.2580  -13.3560 C   0  0  0  0  0  0  0  0  0  0  0  0
   -1.8750   15.6710  -11.6870 C   0  0  0  0  0  0  0  0  0  0  0  0
   -0.6080   15.0240  -11.1190 C   0  0  0  0  0  0  0  0  0  0  0  0
    2.3780   10.1130  -11.2350 H   0  0  0  0  0  0  0  0  0  0  0  0
    3.5290   10.9900  -15.2590 H   0  0  0  0  0  0  0  0  0  0  0  0
    2.5320    8.8720  -15.9350 H   0  0  0  0  0  0  0  0  0  0  0  0
    1.4630    7.3720  -14.2940 H   0  0  0  0  0  0  0  0  0  0  0  0
    4.1090   12.8090  -10.8570 H   0  0  0  0  0  0  0  0  0  0  0  0
    1.9240   13.3140  -10.1110 H   0  0  0  0  0  0  0  0  0  0  0  0
    1.3290   12.2020  -11.3970 H   0  0  0  0  0  0  0  0  0  0  0  0
   -1.2160   14.0160  -13.5680 H   0  0  0  0  0  0  0  0  0  0  0  0
    0.3940   14.1950  -14.2780 H   0  0  0  0  0  0  0  0  0  0  0  0
   -1.1640   16.1480  -14.8370 H   0  0  0  0  0  0  0  0  0  0  0  0
    0.3360   16.6090  -13.9510 H   0  0  0  0  0  0  0  0  0  0  0  0
    0.1340   17.3700  -11.7190 H   0  0  0  0  0  0  0  0  0  0  0  0
   -0.9420   19.5050  -11.1090 H   0  0  0  0  0  0  0  0  0  0  0  0
   -1.3080   18.0770  -10.1410 H   0  0  0  0  0  0  0  0  0  0  0  0
   -3.1530   19.8450  -11.3480 H   0  0  0  0  0  0  0  0  0  0  0  0
   -3.5340   18.2850  -10.6190 H   0  0  0  0  0  0  0  0  0  0  0  0
   -5.1430   19.4060  -13.2400 H   0  0  0  0  0  0  0  0  0  0  0  0
   -5.1280   17.9030  -15.4050 H   0  0  0  0  0  0  0  0  0  0  0  0
   -2.6040   14.9340  -12.0230 H   0  0  0  0  0  0  0  0  0  0  0  0
   -2.3240   16.2340  -10.8500 H   0  0  0  0  0  0  0  0  0  0  0  0
   -0.8660   14.1190  -10.5310 H   0  0  0  0  0  0  0  0  0  0  0  0
   -0.1650   15.7510  -10.4340 H   0  0  0  0  0  0  0  0  0  0  0  0
  2  3  1  0  0  0  0
  2  1  1  0  0  0  0
  3 28  1  0  0  0  0
  4  8  1  0  0  0  0
  4  3  2  0  0  0  0
  5  4  1  0  0  0  0
  6  5  2  0  0  0  0
  6  7  1  0  0  0  0
  7  2  2  0  0  0  0
  8 10  1  0  0  0  0
  9  8  2  0  0  0  0
 10 11  1  0  0  0  0
 10 32  1  0  0  0  0
 11 33  1  0  0  0  0
 12 11  1  0  0  0  0
 13 12  2  0  0  0  0
 14 12  1  0  0  0  0
 14 27  1  0  0  0  0
 15 14  1  0  0  0  0
 16 15  1  0  0  0  0
 16 17  1  0  0  0  0
 17 18  1  0  0  0  0
 17 26  1  0  0  0  0
 18 39  1  0  0  0  0
 18 19  1  0  0  0  0
 19 40  1  0  0  0  0
 19 41  1  0  0  0  0
 20 42  1  0  0  0  0
 20 19  1  0  0  0  0
 20 43  1  0  0  0  0
 21 20  1  0  0  0  0
 22 44  1  0  0  0  0
 22 21  1  0  0  0  0
 23 24  2  0  0  0  0
 23 22  1  0  0  0  0
 24 25  1  0  0  0  0
 25 17  1  0  0  0  0
 25 21  2  0  0  0  0
 26 27  1  0  0  0  0
 26 47  1  0  0  0  0
 27 48  1  0  0  0  0
 27 49  1  0  0  0  0
 29  5  1  0  0  0  0
 30  6  1  0  0  0  0
 31  7  1  0  0  0  0
 34 11  1  0  0  0  0
 35 15  1  0  0  0  0
 36 15  1  0  0  0  0
 37 16  1  0  0  0  0
 38 16  1  0  0  0  0
 45 23  1  0  0  0  0
 46 26  1  0  0  0  0
M  END
>  <Pose>
1

>  <Score>
-7.10

$$$$
