
 OpenBabel03232203513D

 51 54  0  0  1  0  0  0  0  0999 V2000
   -2.8110   19.3750  -10.4350 B   0  0  0  0  0  0  0  0  0  0  0  0
   -2.0860   18.1450  -11.7000 C   0  0  0  0  0  0  0  0  0  0  0  0
   -0.9310   17.4370  -11.4290 C   0  0  0  0  0  0  0  0  0  0  0  0
   -0.3670   16.5380  -12.3100 C   0  0  0  0  0  0  0  0  0  0  0  0
   -1.0400   16.3720  -13.5240 C   0  0  0  0  0  0  0  0  0  0  0  0
   -2.1880   17.0760  -13.7930 C   0  0  0  0  0  0  0  0  0  0  0  0
   -2.7400   17.9730  -12.9010 C   0  0  0  0  0  0  0  0  0  0  0  0
   -3.9890   18.7100  -13.2460 C   0  0  0  0  0  0  0  0  0  0  0  0
   -0.4460   15.4590  -14.3840 O   0  0  0  0  0  0  0  0  0  0  0  0
    0.8400   14.8990  -14.1910 C   0  0  0  0  0  0  0  0  0  0  0  0
    1.0380   14.4910  -12.6940 C   0  0  2  0  0  0  0  0  0  0  0  0
    0.8600   15.8060  -12.0310 C   0  0  0  0  0  0  0  0  0  0  0  0
    1.6510   16.3680  -11.2530 O   0  0  0  0  0  0  0  0  0  0  0  0
    2.2030   13.8300  -12.4570 N   0  0  0  0  0  0  0  0  0  0  0  0
    2.8350   12.9900  -13.3830 C   0  0  0  0  0  0  0  0  0  0  0  0
    2.5520   11.5410  -13.0460 C   0  0  0  0  0  0  0  0  0  0  0  0
    3.2040   11.3060  -11.8120 O   0  0  0  0  0  0  0  0  0  0  0  0
    2.4170   11.9930  -10.8720 C   0  0  0  0  0  0  0  0  0  0  0  0
    2.5540   13.4920  -11.1490 C   0  0  0  0  0  0  0  0  0  0  0  0
   -0.1420   13.6270  -12.4250 C   0  0  0  0  0  0  0  0  0  0  0  0
   -0.8770   13.1130  -13.5390 N   0  0  0  0  0  0  0  0  0  0  0  0
   -0.4800   11.8790  -14.1010 C   0  0  0  0  0  0  0  0  0  0  0  0
   -0.9250   10.7100  -13.2090 C   0  0  0  0  0  0  0  0  0  0  0  0
   -2.3230   10.7160  -13.2580 O   0  0  0  0  0  0  0  0  0  0  0  0
   -2.7480   11.8510  -12.5580 C   0  0  0  0  0  0  0  0  0  0  0  0
   -2.3030   13.1260  -13.2060 C   0  0  0  0  0  0  0  0  0  0  0  0
   -0.4010   17.5680  -10.4700 H   0  0  0  0  0  0  0  0  0  0  0  0
   -2.6830   16.9240  -14.7440 H   0  0  0  0  0  0  0  0  0  0  0  0
   -4.0000   19.7270  -12.8080 H   0  0  0  0  0  0  0  0  0  0  0  0
   -4.0500   18.7250  -14.3580 H   0  0  0  0  0  0  0  0  0  0  0  0
   -4.8730   18.1380  -12.8960 H   0  0  0  0  0  0  0  0  0  0  0  0
    0.9040   14.0150  -14.8440 H   0  0  0  0  0  0  0  0  0  0  0  0
    1.6300   15.6310  -14.4760 H   0  0  0  0  0  0  0  0  0  0  0  0
    2.6500   13.1560  -14.4400 H   0  0  0  0  0  0  0  0  0  0  0  0
    3.9460   13.1070  -13.2500 H   0  0  0  0  0  0  0  0  0  0  0  0
    1.4880   11.3310  -12.9820 H   0  0  0  0  0  0  0  0  0  0  0  0
    3.0920   10.9180  -13.7870 H   0  0  0  0  0  0  0  0  0  0  0  0
    2.8600   11.8240   -9.8750 H   0  0  0  0  0  0  0  0  0  0  0  0
    1.4030   11.6150  -10.9770 H   0  0  0  0  0  0  0  0  0  0  0  0
    3.6840   13.6530  -11.0620 H   0  0  0  0  0  0  0  0  0  0  0  0
    2.1500   14.0400  -10.3080 H   0  0  0  0  0  0  0  0  0  0  0  0
   -0.9040   14.1330  -11.7650 H   0  0  0  0  0  0  0  0  0  0  0  0
    0.1380   12.7060  -11.8240 H   0  0  0  0  0  0  0  0  0  0  0  0
    0.5770   11.7570  -14.2480 H   0  0  0  0  0  0  0  0  0  0  0  0
   -1.0540   11.7280  -15.0500 H   0  0  0  0  0  0  0  0  0  0  0  0
   -0.5130    9.7950  -13.7060 H   0  0  0  0  0  0  0  0  0  0  0  0
   -0.5360   10.7960  -12.1840 H   0  0  0  0  0  0  0  0  0  0  0  0
   -3.8720   11.8240  -12.6180 H   0  0  0  0  0  0  0  0  0  0  0  0
   -2.4880   11.7900  -11.4850 H   0  0  0  0  0  0  0  0  0  0  0  0
   -2.9190   13.3580  -14.0860 H   0  0  0  0  0  0  0  0  0  0  0  0
   -2.4420   13.9560  -12.4830 H   0  0  0  0  0  0  0  0  0  0  0  0
  2  3  1  0  0  0  0
  2  1  1  0  0  0  0
  3 27  1  0  0  0  0
  4 12  1  0  0  0  0
  4  3  2  0  0  0  0
  5  4  1  0  0  0  0
  6  5  2  0  0  0  0
  6  7  1  0  0  0  0
  7  2  2  0  0  0  0
  8  7  1  0  0  0  0
  8 31  1  0  0  0  0
  8 29  1  0  0  0  0
  9 10  1  0  0  0  0
  9  5  1  0  0  0  0
 10 11  1  0  0  0  0
 11 14  1  0  0  0  0
 11 20  1  1  0  0  0
 11 12  1  0  0  0  0
 12 13  2  0  0  0  0
 14 19  1  0  0  0  0
 15 35  1  0  0  0  0
 15 16  1  0  0  0  0
 15 14  1  0  0  0  0
 16 36  1  0  0  0  0
 16 17  1  0  0  0  0
 17 18  1  0  0  0  0
 18 38  1  0  0  0  0
 19 40  1  0  0  0  0
 19 18  1  0  0  0  0
 19 41  1  0  0  0  0
 20 43  1  0  0  0  0
 20 42  1  0  0  0  0
 21 26  1  0  0  0  0
 21 20  1  0  0  0  0
 22 21  1  0  0  0  0
 22 23  1  0  0  0  0
 23 47  1  0  0  0  0
 24 23  1  0  0  0  0
 24 25  1  0  0  0  0
 25 49  1  0  0  0  0
 26 25  1  0  0  0  0
 26 51  1  0  0  0  0
 28  6  1  0  0  0  0
 30  8  1  0  0  0  0
 32 10  1  0  0  0  0
 33 10  1  0  0  0  0
 34 15  1  0  0  0  0
 37 16  1  0  0  0  0
 39 18  1  0  0  0  0
 44 22  1  0  0  0  0
 45 22  1  0  0  0  0
 46 23  1  0  0  0  0
 48 25  1  0  0  0  0
 50 26  1  0  0  0  0
M  END
>  <Pose>
1

>  <Score>
-3.49

$$$$
