
 OpenBabel03232203513D

 66 69  0  0  1  0  0  0  0  0999 V2000
    4.2520   14.5800  -11.5070 B   0  0  0  0  0  0  0  0  0  0  0  0
    2.4760   14.2510  -12.1490 C   0  0  0  0  0  0  0  0  0  0  0  0
    2.1250   12.9910  -12.5730 C   0  0  0  0  0  0  0  0  0  0  0  0
    0.8340   12.7080  -13.0500 C   0  0  0  0  0  0  0  0  0  0  0  0
   -0.0580   13.7580  -13.0710 C   0  0  0  0  0  0  0  0  0  0  0  0
    0.2690   15.0290  -12.6520 C   0  0  0  0  0  0  0  0  0  0  0  0
    1.5400   15.2830  -12.1880 C   0  0  0  0  0  0  0  0  0  0  0  0
    1.9880   16.6180  -11.7150 C   0  0  0  0  0  0  0  0  0  0  0  0
   -0.9880   16.4650  -12.6910 B   0  0  0  0  0  0  0  0  0  0  0  0
    0.5080   11.3670  -13.4900 C   0  0  0  0  0  0  0  0  0  0  0  0
   -0.6510   11.0830  -13.8130 O   0  0  0  0  0  0  0  0  0  0  0  0
    1.5680   10.3450  -13.5480 C   0  0  1  0  0  0  0  0  0  0  0  0
    2.5370   10.6420  -12.4260 C   0  0  0  0  0  0  0  0  0  0  0  0
    3.0530   11.9560  -12.5370 O   0  0  0  0  0  0  0  0  0  0  0  0
    1.0540    8.9390  -13.4770 C   0  0  0  0  0  0  0  0  0  0  0  0
    0.3400    8.5980  -12.3070 N   0  0  0  0  0  4  0  0  0  0  0  0
   -0.9210    8.0120  -12.6550 C   0  0  0  0  0  0  0  0  0  0  0  0
   -0.8450    6.6470  -13.2400 C   0  0  2  0  0  0  0  0  0  0  0  0
    0.4720    5.9740  -13.1950 C   0  0  0  0  0  0  0  0  0  0  0  0
    1.4240    6.4440  -12.1650 C   0  0  0  0  0  0  0  0  0  0  0  0
    0.9950    7.6750  -11.4220 C   0  0  0  0  0  0  0  0  0  0  0  0
   -1.2630    6.7500  -14.7120 C   0  0  0  0  0  0  0  0  0  0  0  0
    2.2890   10.5670  -14.8620 C   0  0  0  0  0  0  0  0  0  0  0  0
    2.5450    9.3910  -15.6220 N   0  0  0  0  0  4  0  0  0  0  0  0
    3.1180    8.3520  -14.7680 C   0  0  0  0  0  0  0  0  0  0  0  0
    4.6060    8.2350  -14.9220 C   0  0  1  0  0  0  0  0  0  0  0  0
    5.2170    9.6160  -15.0020 C   0  0  0  0  0  0  0  0  0  0  0  0
    4.7600   10.2440  -16.2810 C   0  0  0  0  0  0  0  0  0  0  0  0
    3.4760    9.5800  -16.7130 C   0  0  0  0  0  0  0  0  0  0  0  0
    5.1420    7.6010  -13.6300 C   0  0  0  0  0  0  0  0  0  0  0  0
   -1.0700   13.5940  -13.4300 H   0  0  0  0  0  0  0  0  0  0  0  0
    2.2490   16.5260  -10.6370 H   0  0  0  0  0  0  0  0  0  0  0  0
    1.2700   17.4110  -11.9260 H   0  0  0  0  0  0  0  0  0  0  0  0
    2.9700   16.8120  -12.2340 H   0  0  0  0  0  0  0  0  0  0  0  0
    2.0460   10.5760  -11.4440 H   0  0  0  0  0  0  0  0  0  0  0  0
    3.3680    9.8840  -12.3970 H   0  0  0  0  0  0  0  0  0  0  0  0
    0.3740    8.8130  -14.3450 H   0  0  0  0  0  0  0  0  0  0  0  0
    1.9060    8.2550  -13.6660 H   0  0  0  0  0  0  0  0  0  0  0  0
    0.1340    9.4630  -11.7460 H   0  0  0  0  0  0  0  0  0  0  0  0
   -1.5390    8.0080  -11.7090 H   0  0  0  0  0  0  0  0  0  0  0  0
   -1.4500    8.7200  -13.3260 H   0  0  0  0  0  0  0  0  0  0  0  0
   -1.6330    6.0200  -12.7630 H   0  0  0  0  0  0  0  0  0  0  0  0
    0.2900    4.8740  -13.0250 H   0  0  0  0  0  0  0  0  0  0  0  0
    0.9840    5.9950  -14.2030 H   0  0  0  0  0  0  0  0  0  0  0  0
    2.4540    6.6150  -12.5980 H   0  0  0  0  0  0  0  0  0  0  0  0
    1.6090    5.6560  -11.3760 H   0  0  0  0  0  0  0  0  0  0  0  0
    1.8080    8.0680  -10.8240 H   0  0  0  0  0  0  0  0  0  0  0  0
    0.2030    7.3350  -10.6880 H   0  0  0  0  0  0  0  0  0  0  0  0
   -1.7890    5.8180  -15.0370 H   0  0  0  0  0  0  0  0  0  0  0  0
   -1.8590    7.6590  -14.8640 H   0  0  0  0  0  0  0  0  0  0  0  0
   -0.3380    6.8480  -15.3110 H   0  0  0  0  0  0  0  0  0  0  0  0
    3.2710   11.0470  -14.5880 H   0  0  0  0  0  0  0  0  0  0  0  0
    1.7560   11.3680  -15.4480 H   0  0  0  0  0  0  0  0  0  0  0  0
    1.6750    9.0070  -16.0000 H   0  0  0  0  0  0  0  0  0  0  0  0
    2.6650    7.3650  -14.9640 H   0  0  0  0  0  0  0  0  0  0  0  0
    2.9280    8.5820  -13.6870 H   0  0  0  0  0  0  0  0  0  0  0  0
    4.9230    7.5720  -15.7370 H   0  0  0  0  0  0  0  0  0  0  0  0
    6.3180    9.4860  -14.9810 H   0  0  0  0  0  0  0  0  0  0  0  0
    4.9220   10.1700  -14.1050 H   0  0  0  0  0  0  0  0  0  0  0  0
    4.6730   11.3280  -16.2650 H   0  0  0  0  0  0  0  0  0  0  0  0
    5.5170    9.9980  -17.0790 H   0  0  0  0  0  0  0  0  0  0  0  0
    3.7060    8.5440  -17.0990 H   0  0  0  0  0  0  0  0  0  0  0  0
    3.0860   10.1340  -17.5680 H   0  0  0  0  0  0  0  0  0  0  0  0
    4.3660    6.9340  -13.1880 H   0  0  0  0  0  0  0  0  0  0  0  0
    5.4770    8.3790  -12.9120 H   0  0  0  0  0  0  0  0  0  0  0  0
    6.0300    6.9710  -13.8390 H   0  0  0  0  0  0  0  0  0  0  0  0
  2  1  1  0  0  0  0
  3 14  1  0  0  0  0
  3  2  2  0  0  0  0
  4  3  1  0  0  0  0
  5  4  2  0  0  0  0
  5  6  1  0  0  0  0
  6  7  2  0  0  0  0
  7  2  1  0  0  0  0
  7  8  1  0  0  0  0
  8 32  1  0  0  0  0
  9  6  1  0  0  0  0
 10  4  1  0  0  0  0
 11 10  2  0  0  0  0
 12 23  1  6  0  0  0
 12 10  1  0  0  0  0
 12 15  1  0  0  0  0
 12 13  1  0  0  0  0
 13 36  1  0  0  0  0
 13 35  1  0  0  0  0
 14 13  1  0  0  0  0
 15 16  1  0  0  0  0
 16 39  1  0  0  0  0
 16 21  1  0  0  0  0
 17 16  1  0  0  0  0
 17 40  1  0  0  0  0
 18 19  1  0  0  0  0
 18 42  1  1  0  0  0
 18 17  1  0  0  0  0
 19 43  1  0  0  0  0
 19 20  1  0  0  0  0
 20 21  1  0  0  0  0
 20 46  1  0  0  0  0
 21 47  1  0  0  0  0
 21 48  1  0  0  0  0
 22 18  1  0  0  0  0
 23 52  1  0  0  0  0
 24 23  1  0  0  0  0
 24 25  1  0  0  0  0
 25 56  1  0  0  0  0
 26 57  1  6  0  0  0
 26 25  1  0  0  0  0
 26 30  1  0  0  0  0
 27 58  1  0  0  0  0
 27 26  1  0  0  0  0
 27 59  1  0  0  0  0
 28 60  1  0  0  0  0
 28 27  1  0  0  0  0
 29 28  1  0  0  0  0
 29 24  1  0  0  0  0
 30 64  1  0  0  0  0
 30 65  1  0  0  0  0
 31  5  1  0  0  0  0
 33  8  1  0  0  0  0
 34  8  1  0  0  0  0
 37 15  1  0  0  0  0
 38 15  1  0  0  0  0
 41 17  1  0  0  0  0
 44 19  1  0  0  0  0
 45 20  1  0  0  0  0
 49 22  1  0  0  0  0
 50 22  1  0  0  0  0
 51 22  1  0  0  0  0
 53 23  1  0  0  0  0
 54 24  1  0  0  0  0
 55 25  1  0  0  0  0
 61 28  1  0  0  0  0
 62 29  1  0  0  0  0
 63 29  1  0  0  0  0
 66 30  1  0  0  0  0
M  END
>  <Pose>
1

>  <Score>
-3.86

$$$$
