
 OpenBabel03232203513D

 55 58  0  0  1  0  0  0  0  0999 V2000
    0.1850    5.7670   -9.9250 Cl  0  0  0  0  0  0  0  0  0  0  0  0
    1.1430    6.5010  -11.2080 C   0  0  0  0  0  0  0  0  0  0  0  0
    1.0800    7.8400  -11.4870 C   0  0  0  0  0  0  0  0  0  0  0  0
    1.8500    8.3620  -12.5010 C   0  0  0  0  0  0  0  0  0  0  0  0
    2.6620    7.5110  -13.2030 C   0  0  0  0  0  0  0  0  0  0  0  0
    2.7250    6.1450  -12.9160 C   0  0  0  0  0  0  0  0  0  0  0  0
    1.9570    5.6380  -11.9090 C   0  0  0  0  0  0  0  0  0  0  0  0
    3.4100    8.1840  -14.2100 N   0  0  0  0  0  0  0  0  0  0  0  0
    3.0420    9.5340  -14.1300 C   0  0  0  0  0  0  0  0  0  0  0  0
    3.5510   10.4160  -14.8980 O   0  0  0  0  0  0  0  0  0  0  0  0
    2.0360    9.7160  -13.0750 C   0  0  2  0  0  0  0  0  0  0  0  0
    2.5680   10.6440  -12.1160 N   0  0  0  0  0  0  0  0  0  0  0  0
    1.8160   11.8590  -12.1810 C   0  0  2  0  0  0  0  0  0  0  0  0
    0.9860   11.8050  -13.4230 C   0  0  0  0  0  0  0  0  0  0  0  0
    0.8240   10.3250  -13.6330 C   0  0  2  0  0  0  0  0  0  0  0  0
   -0.4710    9.8090  -13.1200 C   0  0  0  0  0  0  0  0  0  0  0  0
   -0.4010    8.8440  -12.3220 O   0  0  0  0  0  0  0  0  0  0  0  0
   -1.7160   10.3370  -13.4790 N   0  0  0  0  0  0  0  0  0  0  0  0
   -2.8750    9.6640  -13.8690 C   0  0  0  0  0  0  0  0  0  0  0  0
   -4.0930   10.3270  -13.8220 C   0  0  0  0  0  0  0  0  0  0  0  0
   -5.2770    9.7240  -14.1940 C   0  0  0  0  0  0  0  0  0  0  0  0
   -5.3050    8.4230  -14.6310 C   0  0  0  0  0  0  0  0  0  0  0  0
   -4.1220    7.7450  -14.6880 C   0  0  0  0  0  0  0  0  0  0  0  0
   -2.9330    8.3660  -14.3100 C   0  0  0  0  0  0  0  0  0  0  0  0
   -4.1060    6.4330  -15.1240 O   0  0  0  0  0  0  0  0  0  0  0  0
   -2.9230    5.6550  -15.1690 C   0  0  0  0  0  0  0  0  0  0  0  0
   -4.1470   11.6410  -13.3910 O   0  0  0  0  0  0  0  0  0  0  0  0
   -4.6210   12.7000  -14.1650 C   0  0  0  0  0  0  0  0  0  0  0  0
    2.7180   13.0820  -12.1490 C   0  0  0  0  0  0  0  0  0  0  0  0
    2.0620   14.2340  -11.5130 C   0  0  0  0  0  0  0  0  0  0  0  0
    1.1880   14.8720  -12.1200 O   0  0  0  0  0  0  0  0  0  0  0  0
    2.4290   14.6130  -10.2080 N   0  0  0  0  0  0  0  0  0  0  0  0
    0.4370    8.4660  -10.9200 H   0  0  0  0  0  0  0  0  0  0  0  0
    3.3810    5.4800  -13.4870 H   0  0  0  0  0  0  0  0  0  0  0  0
    2.0100    4.5720  -11.6890 H   0  0  0  0  0  0  0  0  0  0  0  0
    4.1020    7.7600  -14.8820 H   0  0  0  0  0  0  0  0  0  0  0  0
    2.6120   10.2210  -11.1660 H   0  0  0  0  0  0  0  0  0  0  0  0
    1.1240   11.9540  -11.3080 H   0  0  0  0  0  0  0  0  0  0  0  0
    1.5330   12.2060  -14.3150 H   0  0  0  0  0  0  0  0  0  0  0  0
    0.0050   12.3160  -13.3130 H   0  0  0  0  0  0  0  0  0  0  0  0
    0.8320   10.1220  -14.7530 H   0  0  0  0  0  0  0  0  0  0  0  0
   -1.7700   11.4010  -13.4360 H   0  0  0  0  0  0  0  0  0  0  0  0
   -6.2250   10.2700  -14.1460 H   0  0  0  0  0  0  0  0  0  0  0  0
   -6.2280    7.9510  -14.9210 H   0  0  0  0  0  0  0  0  0  0  0  0
   -2.0630    7.7690  -14.3840 H   0  0  0  0  0  0  0  0  0  0  0  0
   -2.3600    5.6980  -14.2180 H   0  0  0  0  0  0  0  0  0  0  0  0
   -2.3160    6.0540  -16.0070 H   0  0  0  0  0  0  0  0  0  0  0  0
   -3.1350    4.5960  -15.3880 H   0  0  0  0  0  0  0  0  0  0  0  0
   -5.7330   12.5610  -14.2600 H   0  0  0  0  0  0  0  0  0  0  0  0
   -4.4420   13.6500  -13.6220 H   0  0  0  0  0  0  0  0  0  0  0  0
   -4.2280   12.7240  -15.1930 H   0  0  0  0  0  0  0  0  0  0  0  0
    3.0710   13.3190  -13.1760 H   0  0  0  0  0  0  0  0  0  0  0  0
    3.6320   12.8580  -11.5610 H   0  0  0  0  0  0  0  0  0  0  0  0
    2.5710   13.8630   -9.4980 H   0  0  0  0  0  0  0  0  0  0  0  0
    2.5710   15.6050   -9.8970 H   0  0  0  0  0  0  0  0  0  0  0  0
  2  1  1  0  0  0  0
  3  2  1  0  0  0  0
  3 33  1  0  0  0  0
  4  3  2  0  0  0  0
  5  6  2  0  0  0  0
  5  4  1  0  0  0  0
  6  7  1  0  0  0  0
  7 35  1  0  0  0  0
  7  2  2  0  0  0  0
  8  9  1  0  0  0  0
  8  5  1  0  0  0  0
 10  9  2  0  0  0  0
 11  9  1  6  0  0  0
 11  4  1  0  0  0  0
 11 12  1  0  0  0  0
 12 37  1  0  0  0  0
 13 29  1  0  0  0  0
 13 12  1  0  0  0  0
 13 38  1  1  0  0  0
 14 40  1  0  0  0  0
 14 13  1  0  0  0  0
 15 41  1  6  0  0  0
 15 14  1  0  0  0  0
 15 16  1  0  0  0  0
 15 11  1  0  0  0  0
 16 17  2  0  0  0  0
 18 42  1  0  0  0  0
 18 16  1  0  0  0  0
 19 20  1  0  0  0  0
 19 18  1  0  0  0  0
 20 27  1  0  0  0  0
 21 43  1  0  0  0  0
 21 20  2  0  0  0  0
 22 21  1  0  0  0  0
 23 22  2  0  0  0  0
 23 24  1  0  0  0  0
 24 19  2  0  0  0  0
 25 23  1  0  0  0  0
 26 25  1  0  0  0  0
 26 46  1  0  0  0  0
 28 50  1  0  0  0  0
 28 27  1  0  0  0  0
 29 53  1  0  0  0  0
 29 30  1  0  0  0  0
 30 32  1  0  0  0  0
 31 30  2  0  0  0  0
 32 55  1  0  0  0  0
 32 54  1  0  0  0  0
 34  6  1  0  0  0  0
 36  8  1  0  0  0  0
 39 14  1  0  0  0  0
 44 22  1  0  0  0  0
 45 24  1  0  0  0  0
 47 26  1  0  0  0  0
 48 26  1  0  0  0  0
 49 28  1  0  0  0  0
 51 28  1  0  0  0  0
 52 29  1  0  0  0  0
M  END
>  <Pose>
1

>  <Score>
-4.83

$$$$
