
 OpenBabel03232203513D

 56 58  0  0  1  0  0  0  0  0999 V2000
    4.0550    9.1910  -15.1820 B   0  0  0  0  0  0  0  0  0  0  0  0
    2.6090    9.9290  -14.2010 C   0  0  0  0  0  0  0  0  0  0  0  0
    1.4780    9.1490  -13.9420 C   0  0  0  0  0  0  0  0  0  0  0  0
    0.4180    9.6460  -13.2250 C   0  0  0  0  0  0  0  0  0  0  0  0
    0.5080   10.9410  -12.7720 C   0  0  0  0  0  0  0  0  0  0  0  0
    1.6220   11.7410  -13.0170 C   0  0  0  0  0  0  0  0  0  0  0  0
    2.6960   11.2200  -13.7460 C   0  0  0  0  0  0  0  0  0  0  0  0
    3.8940   12.0640  -14.0090 C   0  0  0  0  0  0  0  0  0  0  0  0
    1.6620   13.1440  -12.5240 C   0  0  0  0  0  0  0  0  0  0  0  0
   -0.8080    8.8750  -12.8680 C   0  0  0  0  0  0  0  0  0  0  0  0
   -0.9230    7.5430  -13.5440 C   0  0  2  0  0  0  0  0  0  0  0  0
   -0.0350    7.5410  -14.7750 C   0  0  0  0  0  0  0  0  0  0  0  0
    1.3300    7.8400  -14.3810 O   0  0  0  0  0  0  0  0  0  0  0  0
   -2.2950    7.4310  -13.9900 N   0  0  0  0  0  0  0  0  0  0  0  0
   -2.4630    6.5800  -15.1200 C   0  0  0  0  0  0  0  0  0  0  0  0
   -3.7620    6.7320  -15.8580 C   0  0  0  0  0  0  0  0  0  0  0  0
   -4.2420    8.0110  -15.9420 O   0  0  0  0  0  0  0  0  0  0  0  0
   -4.3860    8.5020  -14.6370 C   0  0  0  0  0  0  0  0  0  0  0  0
   -2.9240    8.7070  -14.1620 C   0  0  0  0  0  0  0  0  0  0  0  0
   -0.4710    6.3720  -12.7570 C   0  0  0  0  0  0  0  0  0  0  0  0
    0.0790    6.4560  -11.4830 N   0  0  0  0  0  0  0  0  0  0  0  0
    0.3300    5.0710  -10.9550 C   0  0  0  0  0  0  0  0  0  0  0  0
    1.1830    4.2890  -11.8840 C   0  0  0  0  0  0  0  0  0  0  0  0
    2.0910    5.0260  -12.5960 O   0  0  0  0  0  0  0  0  0  0  0  0
    2.4720    6.2110  -12.0380 C   0  0  0  0  0  0  0  0  0  0  0  0
    1.4170    6.9970  -11.3270 C   0  0  0  0  0  0  0  0  0  0  0  0
   -1.9280    9.6960  -13.2090 O   0  0  0  0  0  0  0  0  0  0  0  0
   -0.2880   11.4350  -12.1910 H   0  0  0  0  0  0  0  0  0  0  0  0
    3.7020   12.9530  -14.6150 H   0  0  0  0  0  0  0  0  0  0  0  0
    4.6410   11.4480  -14.5650 H   0  0  0  0  0  0  0  0  0  0  0  0
    4.2920   12.3290  -12.9870 H   0  0  0  0  0  0  0  0  0  0  0  0
    0.9480   13.7370  -13.1630 H   0  0  0  0  0  0  0  0  0  0  0  0
    1.3500   13.2600  -11.4790 H   0  0  0  0  0  0  0  0  0  0  0  0
    2.6820   13.5490  -12.7160 H   0  0  0  0  0  0  0  0  0  0  0  0
   -0.8180    8.8600  -11.7790 H   0  0  0  0  0  0  0  0  0  0  0  0
   -0.3050    8.2410  -15.5520 H   0  0  0  0  0  0  0  0  0  0  0  0
    0.0180    6.4790  -15.1210 H   0  0  0  0  0  0  0  0  0  0  0  0
   -2.4340    5.5280  -14.7800 H   0  0  0  0  0  0  0  0  0  0  0  0
   -1.6740    6.8520  -15.8480 H   0  0  0  0  0  0  0  0  0  0  0  0
   -4.5450    6.0280  -15.5070 H   0  0  0  0  0  0  0  0  0  0  0  0
   -3.5750    6.4070  -16.9190 H   0  0  0  0  0  0  0  0  0  0  0  0
   -4.8360    9.4950  -14.6920 H   0  0  0  0  0  0  0  0  0  0  0  0
   -4.8950    7.7750  -13.9800 H   0  0  0  0  0  0  0  0  0  0  0  0
   -2.4720    9.2570  -15.0250 H   0  0  0  0  0  0  0  0  0  0  0  0
   -3.0150    9.2880  -13.2460 H   0  0  0  0  0  0  0  0  0  0  0  0
    0.3630    5.9290  -13.4330 H   0  0  0  0  0  0  0  0  0  0  0  0
   -1.2330    5.5520  -12.8170 H   0  0  0  0  0  0  0  0  0  0  0  0
   -0.6390    4.5950  -10.7180 H   0  0  0  0  0  0  0  0  0  0  0  0
    0.8510    5.2030   -9.9890 H   0  0  0  0  0  0  0  0  0  0  0  0
    1.7090    3.4440  -11.3510 H   0  0  0  0  0  0  0  0  0  0  0  0
    0.5030    3.7910  -12.6190 H   0  0  0  0  0  0  0  0  0  0  0  0
    2.8770    6.8470  -12.8470 H   0  0  0  0  0  0  0  0  0  0  0  0
    3.3460    5.9710  -11.3680 H   0  0  0  0  0  0  0  0  0  0  0  0
    1.6310    6.7840  -10.2100 H   0  0  0  0  0  0  0  0  0  0  0  0
    1.5260    8.0670  -11.3710 H   0  0  0  0  0  0  0  0  0  0  0  0
   -2.1760   10.1910  -12.3900 H   0  0  0  0  0  0  0  0  0  0  0  0
  1  2  1  0  0  0  0
  2  3  2  0  0  0  0
  2  7  1  0  0  0  0
  3  4  1  0  0  0  0
  4 10  1  0  0  0  0
  4  5  2  0  0  0  0
  5 28  1  0  0  0  0
  6  5  1  0  0  0  0
  6  9  1  0  0  0  0
  7  6  2  0  0  0  0
  8  7  1  0  0  0  0
  8 31  1  0  0  0  0
  9 33  1  0  0  0  0
 10 35  1  0  0  0  0
 11 10  1  0  0  0  0
 11 20  1  1  0  0  0
 12 13  1  0  0  0  0
 12 11  1  0  0  0  0
 13  3  1  0  0  0  0
 14 11  1  0  0  0  0
 15 38  1  0  0  0  0
 15 14  1  0  0  0  0
 16 40  1  0  0  0  0
 16 15  1  0  0  0  0
 17 16  1  0  0  0  0
 17 18  1  0  0  0  0
 18 19  1  0  0  0  0
 18 43  1  0  0  0  0
 19 14  1  0  0  0  0
 19 45  1  0  0  0  0
 20 21  1  0  0  0  0
 21 26  1  0  0  0  0
 21 22  1  0  0  0  0
 22 48  1  0  0  0  0
 22 49  1  0  0  0  0
 23 50  1  0  0  0  0
 23 22  1  0  0  0  0
 24 25  1  0  0  0  0
 24 23  1  0  0  0  0
 25 53  1  0  0  0  0
 25 26  1  0  0  0  0
 26 54  1  0  0  0  0
 27 56  1  0  0  0  0
 29  8  1  0  0  0  0
 30  8  1  0  0  0  0
 32  9  1  0  0  0  0
 34  9  1  0  0  0  0
 36 12  1  0  0  0  0
 37 12  1  0  0  0  0
 39 15  1  0  0  0  0
 41 16  1  0  0  0  0
 42 18  1  0  0  0  0
 44 19  1  0  0  0  0
 46 20  1  0  0  0  0
 47 20  1  0  0  0  0
 51 23  1  0  0  0  0
 52 25  1  0  0  0  0
 55 26  1  0  0  0  0
M  END
>  <Pose>
1

>  <Score>
-2.97

$$$$
