
 OpenBabel03232203513D

 45 48  0  0  0  0  0  0  0  0999 V2000
   -0.7320    5.6760  -13.7530 B   0  0  0  0  0  0  0  0  0  0  0  0
   -1.3100    7.4930  -13.6170 C   0  0  0  0  0  0  0  0  0  0  0  0
   -2.5450    7.9200  -14.0360 C   0  0  0  0  0  0  0  0  0  0  0  0
   -2.6060    9.2660  -13.7850 C   0  0  0  0  0  0  0  0  0  0  0  0
   -1.4290    9.6690  -13.2190 N   0  0  0  0  0  0  0  0  0  0  0  0
   -0.6380    8.5750  -13.1200 C   0  0  0  0  0  0  0  0  0  0  0  0
    0.7340    8.5650  -12.5620 C   0  0  0  0  0  0  0  0  0  0  0  0
   -1.1630   11.0160  -12.8550 C   0  0  0  0  0  0  0  0  0  0  0  0
   -0.2070   11.7960  -13.6160 C   0  0  0  0  0  0  0  0  0  0  0  0
    0.5740   11.0230  -14.3640 O   0  0  0  0  0  0  0  0  0  0  0  0
    0.0580   13.1520  -13.7230 N   0  0  0  0  0  0  0  0  0  0  0  0
   -0.6760   14.2350  -13.1720 C   0  0  0  0  0  0  0  0  0  0  0  0
    0.1110   14.8640  -12.0220 C   0  0  0  0  0  0  0  0  0  0  0  0
    1.6000   14.7530  -12.3030 C   0  0  0  0  0  0  0  0  0  0  0  0
    2.1940   15.9580  -11.7480 N   0  0  0  0  0  0  0  0  0  0  0  0
    2.5240   15.6530  -10.3780 C   0  0  0  0  0  0  0  0  0  0  0  0
    2.7540   16.4910   -9.4700 O   0  0  0  0  0  0  0  0  0  0  0  0
    2.5380   14.2180  -10.2530 N   0  0  0  0  0  0  0  0  0  0  0  0
    2.2230   13.6630  -11.5230 C   0  0  0  0  0  0  0  0  0  0  0  0
    2.4450   12.4800  -11.8710 O   0  0  0  0  0  0  0  0  0  0  0  0
    1.9090   14.7030  -13.7660 C   0  0  0  0  0  0  0  0  0  0  0  0
    1.2540   13.5740  -14.4920 C   0  0  0  0  0  0  0  0  0  0  0  0
   -3.7640    9.9720  -14.1130 C   0  0  0  0  0  0  0  0  0  0  0  0
   -4.8480    9.3230  -14.6900 C   0  0  0  0  0  0  0  0  0  0  0  0
   -4.7680    7.9800  -14.9330 C   0  0  0  0  0  0  0  0  0  0  0  0
   -3.6300    7.2760  -14.6130 C   0  0  0  0  0  0  0  0  0  0  0  0
    0.9310    7.6470  -11.9640 H   0  0  0  0  0  0  0  0  0  0  0  0
    1.4510    8.5550  -13.4160 H   0  0  0  0  0  0  0  0  0  0  0  0
    0.9260    9.4600  -11.9210 H   0  0  0  0  0  0  0  0  0  0  0  0
   -0.8560   11.0180  -11.7540 H   0  0  0  0  0  0  0  0  0  0  0  0
   -2.1670   11.5500  -12.7980 H   0  0  0  0  0  0  0  0  0  0  0  0
   -1.7110   14.0990  -12.9150 H   0  0  0  0  0  0  0  0  0  0  0  0
   -0.6990   15.0460  -13.9810 H   0  0  0  0  0  0  0  0  0  0  0  0
   -0.2240   15.9200  -11.9600 H   0  0  0  0  0  0  0  0  0  0  0  0
   -0.1730   14.3680  -11.0940 H   0  0  0  0  0  0  0  0  0  0  0  0
    2.3550   16.8660  -12.2310 H   0  0  0  0  0  0  0  0  0  0  0  0
    2.7430   13.6930   -9.3910 H   0  0  0  0  0  0  0  0  0  0  0  0
    1.6670   15.7070  -14.1900 H   0  0  0  0  0  0  0  0  0  0  0  0
    3.0220   14.5970  -13.8560 H   0  0  0  0  0  0  0  0  0  0  0  0
    1.8940   12.7340  -14.7520 H   0  0  0  0  0  0  0  0  0  0  0  0
    0.8250   14.0010  -15.4450 H   0  0  0  0  0  0  0  0  0  0  0  0
   -3.7870   11.0350  -13.9060 H   0  0  0  0  0  0  0  0  0  0  0  0
   -5.7330    9.9100  -14.9330 H   0  0  0  0  0  0  0  0  0  0  0  0
   -5.6040    7.4810  -15.3790 H   0  0  0  0  0  0  0  0  0  0  0  0
   -3.5390    6.2180  -14.7920 H   0  0  0  0  0  0  0  0  0  0  0  0
  1  2  1  0  0  0  0
  2  6  2  0  0  0  0
  3  4  1  0  0  0  0
  3  2  1  0  0  0  0
  4  5  1  0  0  0  0
  5  6  1  0  0  0  0
  5  8  1  0  0  0  0
  6  7  1  0  0  0  0
  7 27  1  0  0  0  0
  7 29  1  0  0  0  0
  8 31  1  0  0  0  0
  8 30  1  0  0  0  0
  9  8  1  0  0  0  0
 10  9  2  0  0  0  0
 11  9  1  0  0  0  0
 11 12  1  0  0  0  0
 12 32  1  0  0  0  0
 12 13  1  0  0  0  0
 13 34  1  0  0  0  0
 13 35  1  0  0  0  0
 14 13  1  0  0  0  0
 14 15  1  0  0  0  0
 14 19  1  0  0  0  0
 15 16  1  0  0  0  0
 16 18  1  0  0  0  0
 16 17  2  0  0  0  0
 18 37  1  0  0  0  0
 19 18  1  0  0  0  0
 20 19  2  0  0  0  0
 21 14  1  0  0  0  0
 22 21  1  0  0  0  0
 22 11  1  0  0  0  0
 23 42  1  0  0  0  0
 23  4  2  0  0  0  0
 24 23  1  0  0  0  0
 25 24  2  0  0  0  0
 25 26  1  0  0  0  0
 26  3  2  0  0  0  0
 28  7  1  0  0  0  0
 33 12  1  0  0  0  0
 36 15  1  0  0  0  0
 38 21  1  0  0  0  0
 39 21  1  0  0  0  0
 40 22  1  0  0  0  0
 41 22  1  0  0  0  0
 43 24  1  0  0  0  0
 44 25  1  0  0  0  0
 45 26  1  0  0  0  0
M  END
>  <Pose>
1

>  <Score>
-4.75

$$$$
