
 OpenBabel03232203513D

 46 49  0  0  0  0  0  0  0  0999 V2000
    0.7160   17.1710  -10.4290 B   0  0  0  0  0  0  0  0  0  0  0  0
   -0.9440   17.8520  -11.0840 C   0  0  0  0  0  0  0  0  0  0  0  0
   -1.5400   17.3930  -12.2110 N   0  0  0  0  0  0  0  0  0  0  0  0
   -2.6740   18.1200  -12.3230 C   0  0  0  0  0  0  0  0  0  0  0  0
   -2.7870   19.0200  -11.2840 C   0  0  0  0  0  0  0  0  0  0  0  0
   -1.6850   18.8250  -10.5230 N   0  0  0  0  0  0  0  0  0  0  0  0
   -3.8350   19.8670  -11.1650 N   0  0  0  0  0  0  0  0  0  0  0  0
   -4.7930   19.8160  -12.1070 C   0  0  0  0  0  0  0  0  0  0  0  0
   -5.7980   20.5740  -12.0620 O   0  0  0  0  0  0  0  0  0  0  0  0
   -4.7150   18.9420  -13.1470 N   0  0  0  0  0  0  0  0  0  0  0  0
   -3.6800   18.0980  -13.2740 C   0  0  0  0  0  0  0  0  0  0  0  0
   -3.5630   17.2770  -14.2110 O   0  0  0  0  0  0  0  0  0  0  0  0
   -3.9380   20.8070  -10.0640 C   0  0  0  0  0  0  0  0  0  0  0  0
   -1.0940   16.3600  -13.1160 C   0  0  0  0  0  0  0  0  0  0  0  0
   -0.2160   15.3400  -12.4050 C   0  0  0  0  0  0  0  0  0  0  0  0
    0.0270   14.1350  -13.2750 C   0  0  0  0  0  0  0  0  0  0  0  0
   -0.9020   12.9840  -13.0290 C   0  0  0  0  0  0  0  0  0  0  0  0
   -0.2480   11.7480  -13.3000 N   0  0  0  0  0  0  0  0  0  0  0  0
    1.0350   11.4030  -13.2130 C   0  0  0  0  0  0  0  0  0  0  0  0
    1.1630   10.0610  -13.5510 C   0  0  0  0  0  0  0  0  0  0  0  0
   -0.0670    9.6420  -13.8340 N   0  0  0  0  0  0  0  0  0  0  0  0
   -0.9350   10.6450  -13.6900 C   0  0  0  0  0  0  0  0  0  0  0  0
   -2.8110   10.4890  -13.9950 B   0  0  0  0  0  0  0  0  0  0  0  0
    2.3580    9.4650  -13.5470 N   0  0  0  0  0  0  0  0  0  0  0  0
    3.4720   10.1470  -13.2190 C   0  0  0  0  0  0  0  0  0  0  0  0
    4.5930    9.5790  -13.2180 O   0  0  0  0  0  0  0  0  0  0  0  0
    3.3640   11.4390  -12.8930 N   0  0  0  0  0  0  0  0  0  0  0  0
    2.1830   12.0750  -12.8830 C   0  0  0  0  0  0  0  0  0  0  0  0
    2.1030   13.2820  -12.5780 O   0  0  0  0  0  0  0  0  0  0  0  0
    2.5210    8.0580  -13.8970 C   0  0  0  0  0  0  0  0  0  0  0  0
   -5.4810   18.9320  -13.8620 H   0  0  0  0  0  0  0  0  0  0  0  0
   -3.3120   20.4970   -9.2010 H   0  0  0  0  0  0  0  0  0  0  0  0
   -3.5350   21.8100  -10.3840 H   0  0  0  0  0  0  0  0  0  0  0  0
   -4.9740   20.9020   -9.6770 H   0  0  0  0  0  0  0  0  0  0  0  0
   -0.6170   16.7700  -14.0030 H   0  0  0  0  0  0  0  0  0  0  0  0
   -2.0100   15.8010  -13.4320 H   0  0  0  0  0  0  0  0  0  0  0  0
    0.8100   15.7830  -12.2310 H   0  0  0  0  0  0  0  0  0  0  0  0
   -0.6220   15.0460  -11.4300 H   0  0  0  0  0  0  0  0  0  0  0  0
    0.0450   14.4470  -14.3420 H   0  0  0  0  0  0  0  0  0  0  0  0
    1.0650   13.7190  -13.1060 H   0  0  0  0  0  0  0  0  0  0  0  0
   -1.2250   13.0610  -11.9600 H   0  0  0  0  0  0  0  0  0  0  0  0
   -1.8220   13.1450  -13.6220 H   0  0  0  0  0  0  0  0  0  0  0  0
    4.2150   12.0130  -12.6280 H   0  0  0  0  0  0  0  0  0  0  0  0
    1.5030    7.6140  -13.9690 H   0  0  0  0  0  0  0  0  0  0  0  0
    3.0710    7.5930  -13.0480 H   0  0  0  0  0  0  0  0  0  0  0  0
    3.0800    7.9320  -14.8390 H   0  0  0  0  0  0  0  0  0  0  0  0
  2  6  2  0  0  0  0
  2  1  1  0  0  0  0
  3  2  1  0  0  0  0
  4  3  1  0  0  0  0
  4  5  2  0  0  0  0
  5  7  1  0  0  0  0
  5  6  1  0  0  0  0
  7 13  1  0  0  0  0
  8  9  2  0  0  0  0
  8  7  1  0  0  0  0
 10  8  1  0  0  0  0
 11 10  1  0  0  0  0
 11  4  1  0  0  0  0
 12 11  2  0  0  0  0
 13 34  1  0  0  0  0
 13 32  1  0  0  0  0
 14 15  1  0  0  0  0
 14  3  1  0  0  0  0
 15 37  1  0  0  0  0
 15 38  1  0  0  0  0
 16 40  1  0  0  0  0
 16 17  1  0  0  0  0
 16 15  1  0  0  0  0
 17 41  1  0  0  0  0
 18 19  1  0  0  0  0
 18 17  1  0  0  0  0
 19 28  1  0  0  0  0
 20 24  1  0  0  0  0
 20 19  2  0  0  0  0
 21 22  2  0  0  0  0
 21 20  1  0  0  0  0
 22 18  1  0  0  0  0
 23 22  1  0  0  0  0
 24 25  1  0  0  0  0
 25 26  2  0  0  0  0
 25 27  1  0  0  0  0
 27 28  1  0  0  0  0
 27 43  1  0  0  0  0
 28 29  2  0  0  0  0
 30 24  1  0  0  0  0
 30 45  1  0  0  0  0
 31 10  1  0  0  0  0
 33 13  1  0  0  0  0
 35 14  1  0  0  0  0
 36 14  1  0  0  0  0
 39 16  1  0  0  0  0
 42 17  1  0  0  0  0
 44 30  1  0  0  0  0
 46 30  1  0  0  0  0
M  END
>  <Pose>
1

>  <Score>
-7.27

$$$$
