
 OpenBabel03232203513D

 47 50  0  0  0  0  0  0  0  0999 V2000
   -2.0840   11.3860  -13.7140 B   0  0  0  0  0  0  0  0  0  0  0  0
   -0.2030   11.0500  -13.6300 C   0  0  0  0  0  0  0  0  0  0  0  0
    0.7500   11.8880  -13.2310 N   0  0  0  0  0  0  0  0  0  0  0  0
    1.9150   11.1860  -13.2970 C   0  0  0  0  0  0  0  0  0  0  0  0
    1.6140    9.9200  -13.7490 C   0  0  0  0  0  0  0  0  0  0  0  0
    0.3060    9.8390  -13.9540 N   0  0  0  0  0  0  0  0  0  0  0  0
    2.6210    9.0150  -13.8990 N   0  0  0  0  0  0  0  0  0  0  0  0
    3.8670    9.3810  -13.6020 C   0  0  0  0  0  0  0  0  0  0  0  0
    4.7810    8.5190  -13.7510 O   0  0  0  0  0  0  0  0  0  0  0  0
    4.1710   10.6110  -13.1600 N   0  0  0  0  0  0  0  0  0  0  0  0
    3.2080   11.5620  -12.9900 C   0  0  0  0  0  0  0  0  0  0  0  0
    3.5030   12.7100  -12.5740 O   0  0  0  0  0  0  0  0  0  0  0  0
    2.3460    7.6740  -14.3720 C   0  0  0  0  0  0  0  0  0  0  0  0
    0.6960   13.2530  -12.8260 C   0  0  0  0  0  0  0  0  0  0  0  0
   -0.4980   14.0410  -13.1760 C   0  0  0  0  0  0  0  0  0  0  0  0
   -0.4160   15.2770  -13.7260 O   0  0  0  0  0  0  0  0  0  0  0  0
   -0.5810   16.2690  -12.7720 C   0  0  0  0  0  0  0  0  0  0  0  0
   -1.8170   17.0560  -13.0890 C   0  0  0  0  0  0  0  0  0  0  0  0
   -2.1280   18.0050  -12.0680 N   0  0  0  0  0  0  0  0  0  0  0  0
   -3.2370   18.7540  -12.0040 C   0  0  0  0  0  0  0  0  0  0  0  0
   -3.1500   19.5300  -10.8900 C   0  0  0  0  0  0  0  0  0  0  0  0
   -1.9930   19.2340  -10.3040 N   0  0  0  0  0  0  0  0  0  0  0  0
   -1.3330   18.2960  -11.0020 C   0  0  0  0  0  0  0  0  0  0  0  0
    0.3510   17.4900  -10.6510 B   0  0  0  0  0  0  0  0  0  0  0  0
   -4.1430   20.3820  -10.5850 N   0  0  0  0  0  0  0  0  0  0  0  0
   -5.2050   20.4540  -11.3840 C   0  0  0  0  0  0  0  0  0  0  0  0
   -6.1280   21.2570  -11.0860 O   0  0  0  0  0  0  0  0  0  0  0  0
   -5.3080   19.7050  -12.4760 N   0  0  0  0  0  0  0  0  0  0  0  0
   -4.3470   18.8440  -12.8200 C   0  0  0  0  0  0  0  0  0  0  0  0
   -4.4850   18.1450  -13.8740 O   0  0  0  0  0  0  0  0  0  0  0  0
   -4.0690   21.2160   -9.4030 C   0  0  0  0  0  0  0  0  0  0  0  0
    5.1510   10.8840  -12.9310 H   0  0  0  0  0  0  0  0  0  0  0  0
    1.3750    7.3150  -13.9620 H   0  0  0  0  0  0  0  0  0  0  0  0
    3.1220    6.9680  -14.0560 H   0  0  0  0  0  0  0  0  0  0  0  0
    2.3140    7.6510  -15.4910 H   0  0  0  0  0  0  0  0  0  0  0  0
    0.7560   13.2310  -11.6920 H   0  0  0  0  0  0  0  0  0  0  0  0
    1.6590   13.8030  -13.0830 H   0  0  0  0  0  0  0  0  0  0  0  0
   -1.1630   13.4440  -13.9070 H   0  0  0  0  0  0  0  0  0  0  0  0
   -1.2180   14.0610  -12.2730 H   0  0  0  0  0  0  0  0  0  0  0  0
    0.3120   16.9750  -12.8640 H   0  0  0  0  0  0  0  0  0  0  0  0
   -0.5190   15.8410  -11.7850 H   0  0  0  0  0  0  0  0  0  0  0  0
   -1.6400   17.5460  -14.0870 H   0  0  0  0  0  0  0  0  0  0  0  0
   -2.6350   16.3070  -13.2270 H   0  0  0  0  0  0  0  0  0  0  0  0
   -6.1480   19.7760  -13.0900 H   0  0  0  0  0  0  0  0  0  0  0  0
   -4.5680   20.6890   -8.5760 H   0  0  0  0  0  0  0  0  0  0  0  0
   -3.0140   21.4270   -9.1540 H   0  0  0  0  0  0  0  0  0  0  0  0
   -4.5850   22.1780   -9.6730 H   0  0  0  0  0  0  0  0  0  0  0  0
  1  2  1  0  0  0  0
  2  3  1  0  0  0  0
  3 14  1  0  0  0  0
  4  3  1  0  0  0  0
  4 11  1  0  0  0  0
  5  4  2  0  0  0  0
  6  5  1  0  0  0  0
  6  2  2  0  0  0  0
  7  5  1  0  0  0  0
  7  8  1  0  0  0  0
  8 10  1  0  0  0  0
  9  8  2  0  0  0  0
 10 11  1  0  0  0  0
 10 32  1  0  0  0  0
 11 12  2  0  0  0  0
 13 34  1  0  0  0  0
 13 33  1  0  0  0  0
 13  7  1  0  0  0  0
 14 36  1  0  0  0  0
 15 14  1  0  0  0  0
 15 39  1  0  0  0  0
 16 15  1  0  0  0  0
 16 17  1  0  0  0  0
 17 41  1  0  0  0  0
 18 17  1  0  0  0  0
 18 19  1  0  0  0  0
 19 20  1  0  0  0  0
 19 23  1  0  0  0  0
 20 21  2  0  0  0  0
 21 25  1  0  0  0  0
 21 22  1  0  0  0  0
 23 24  1  0  0  0  0
 23 22  2  0  0  0  0
 25 31  1  0  0  0  0
 26 27  2  0  0  0  0
 26 25  1  0  0  0  0
 28 26  1  0  0  0  0
 29 28  1  0  0  0  0
 29 20  1  0  0  0  0
 30 29  2  0  0  0  0
 31 46  1  0  0  0  0
 31 45  1  0  0  0  0
 35 13  1  0  0  0  0
 37 14  1  0  0  0  0
 38 15  1  0  0  0  0
 40 17  1  0  0  0  0
 42 18  1  0  0  0  0
 43 18  1  0  0  0  0
 44 28  1  0  0  0  0
 47 31  1  0  0  0  0
M  END
>  <Pose>
1

>  <Score>
-8.18

$$$$
