
 OpenBabel03232203513D

 51 54  0  0  0  0  0  0  0  0999 V2000
    1.0570    5.8730  -12.3220 Cl  0  0  0  0  0  0  0  0  0  0  0  0
   -0.3780    6.4540  -13.1370 C   0  0  0  0  0  0  0  0  0  0  0  0
   -0.5450    7.7920  -13.3430 C   0  0  0  0  0  0  0  0  0  0  0  0
   -1.6920    8.1940  -13.9900 C   0  0  0  0  0  0  0  0  0  0  0  0
   -2.6430    7.3020  -14.4170 C   0  0  0  0  0  0  0  0  0  0  0  0
   -2.4630    5.9520  -14.2020 C   0  0  0  0  0  0  0  0  0  0  0  0
   -1.3190    5.5430  -13.5560 C   0  0  0  0  0  0  0  0  0  0  0  0
    0.4270    8.8170  -12.9180 C   0  0  0  0  0  0  0  0  0  0  0  0
    1.5850    8.9050  -13.7370 N   0  0  0  0  0  0  0  0  0  0  0  0
    2.3470    7.8970  -14.1410 N   0  0  0  0  0  0  0  0  0  0  0  0
    3.3510    8.3210  -14.8890 C   0  0  0  0  0  0  0  0  0  0  0  0
    3.2150    9.7150  -14.9680 C   0  0  0  0  0  0  0  0  0  0  0  0
    2.1010   10.0670  -14.2390 C   0  0  0  0  0  0  0  0  0  0  0  0
    1.5700   11.3430  -14.0960 N   0  0  0  0  0  0  0  0  0  0  0  0
    0.4080   11.9950  -14.3610 C   0  0  0  0  0  0  0  0  0  0  0  0
    0.2280   11.9880  -15.7240 O   0  0  0  0  0  0  0  0  0  0  0  0
   -0.7000   12.6840  -13.7190 C   0  0  0  0  0  0  0  0  0  0  0  0
   -0.8550   14.0690  -13.5900 N   0  0  0  0  0  0  0  0  0  0  0  0
   -1.4330   14.9190  -14.6650 C   0  0  0  0  0  0  0  0  0  0  0  0
   -1.0820   16.3350  -14.2580 C   0  0  0  0  0  0  0  0  0  0  0  0
   -1.7900   16.6550  -12.9680 C   0  0  0  0  0  0  0  0  0  0  0  0
   -1.1900   15.8310  -11.8480 C   0  0  0  0  0  0  0  0  0  0  0  0
   -0.3600   14.7300  -12.4170 C   0  0  0  0  0  0  0  0  0  0  0  0
    0.8400   14.4560  -11.8990 C   0  0  0  0  0  0  0  0  0  0  0  0
    1.3120   15.1210  -10.7150 N   0  0  0  0  0  0  0  0  0  0  0  0
    2.6210   14.6910  -10.4310 N   0  0  0  0  0  0  0  0  0  0  0  0
    2.9970   13.7560  -11.4170 C   0  0  0  0  0  0  0  0  0  0  0  0
    4.0710   13.1260  -11.5490 O   0  0  0  0  0  0  0  0  0  0  0  0
    1.8790   13.6290  -12.3140 N   0  0  0  0  0  0  0  0  0  0  0  0
   -1.8640    9.2430  -14.1730 H   0  0  0  0  0  0  0  0  0  0  0  0
   -3.5330    7.6440  -14.9200 H   0  0  0  0  0  0  0  0  0  0  0  0
   -3.2170    5.2520  -14.5410 H   0  0  0  0  0  0  0  0  0  0  0  0
   -1.1800    4.4890  -13.3900 H   0  0  0  0  0  0  0  0  0  0  0  0
    0.6370    8.7050  -11.8240 H   0  0  0  0  0  0  0  0  0  0  0  0
   -0.1300    9.8010  -12.9750 H   0  0  0  0  0  0  0  0  0  0  0  0
    4.1530    7.7710  -15.3760 H   0  0  0  0  0  0  0  0  0  0  0  0
    3.8790   10.3460  -15.5210 H   0  0  0  0  0  0  0  0  0  0  0  0
    2.2960   11.9920  -13.5320 H   0  0  0  0  0  0  0  0  0  0  0  0
   -1.5950   12.2740  -14.3540 H   0  0  0  0  0  0  0  0  0  0  0  0
   -0.8850   12.2060  -12.6700 H   0  0  0  0  0  0  0  0  0  0  0  0
   -0.8480   14.7500  -15.6010 H   0  0  0  0  0  0  0  0  0  0  0  0
   -2.4920   14.8430  -14.7770 H   0  0  0  0  0  0  0  0  0  0  0  0
   -1.4380   17.0490  -15.0570 H   0  0  0  0  0  0  0  0  0  0  0  0
    0.0120   16.4760  -14.1430 H   0  0  0  0  0  0  0  0  0  0  0  0
   -1.6870   17.7440  -12.7310 H   0  0  0  0  0  0  0  0  0  0  0  0
   -2.8620   16.4410  -13.0980 H   0  0  0  0  0  0  0  0  0  0  0  0
   -0.6150   16.4790  -11.1470 H   0  0  0  0  0  0  0  0  0  0  0  0
   -1.9960   15.3920  -11.2530 H   0  0  0  0  0  0  0  0  0  0  0  0
    0.8600   15.8140  -10.0890 H   0  0  0  0  0  0  0  0  0  0  0  0
    3.2390   14.9890   -9.6360 H   0  0  0  0  0  0  0  0  0  0  0  0
    1.8780   13.0260  -13.1530 H   0  0  0  0  0  0  0  0  0  0  0  0
  2  1  1  0  0  0  0
  3  2  1  0  0  0  0
  3  8  1  0  0  0  0
  4  3  2  0  0  0  0
  5  6  2  0  0  0  0
  5  4  1  0  0  0  0
  6  7  1  0  0  0  0
  7 33  1  0  0  0  0
  7  2  2  0  0  0  0
  8 34  1  0  0  0  0
  9  8  1  0  0  0  0
 10  9  1  0  0  0  0
 11 10  2  0  0  0  0
 12 11  1  0  0  0  0
 12 13  2  0  0  0  0
 13 14  1  0  0  0  0
 13  9  1  0  0  0  0
 14 38  1  0  0  0  0
 15 14  1  0  0  0  0
 15 17  1  0  0  0  0
 16 15  2  0  0  0  0
 17 18  1  0  0  0  0
 17 40  1  0  0  0  0
 18 23  1  0  0  0  0
 19 20  1  0  0  0  0
 19 18  1  0  0  0  0
 20 44  1  0  0  0  0
 20 21  1  0  0  0  0
 21 45  1  0  0  0  0
 21 22  1  0  0  0  0
 22 48  1  0  0  0  0
 22 47  1  0  0  0  0
 23 24  2  0  0  0  0
 23 22  1  0  0  0  0
 24 25  1  0  0  0  0
 25 26  1  0  0  0  0
 25 49  1  0  0  0  0
 26 50  1  0  0  0  0
 27 26  1  0  0  0  0
 28 27  2  0  0  0  0
 29 24  1  0  0  0  0
 29 27  1  0  0  0  0
 30  4  1  0  0  0  0
 31  5  1  0  0  0  0
 32  6  1  0  0  0  0
 35  8  1  0  0  0  0
 36 11  1  0  0  0  0
 37 12  1  0  0  0  0
 39 17  1  0  0  0  0
 41 19  1  0  0  0  0
 42 19  1  0  0  0  0
 43 20  1  0  0  0  0
 46 21  1  0  0  0  0
 51 29  1  0  0  0  0
M  END
>  <Pose>
1

>  <Score>
-6.66

$$$$
