
 OpenBabel03232203513D

 50 53  0  0  0  0  0  0  0  0999 V2000
    1.8330    8.3670  -13.6970 B   0  0  0  0  0  0  0  0  0  0  0  0
    0.4590    9.6680  -13.5960 C   0  0  0  0  0  0  0  0  0  0  0  0
   -0.8490    9.2840  -13.6400 C   0  0  0  0  0  0  0  0  0  0  0  0
   -1.8360   10.2630  -13.5650 C   0  0  0  0  0  0  0  0  0  0  0  0
   -1.4700   11.6010  -13.4480 C   0  0  0  0  0  0  0  0  0  0  0  0
   -0.1590   11.9940  -13.4040 C   0  0  0  0  0  0  0  0  0  0  0  0
    0.8060   11.0150  -13.4790 C   0  0  0  0  0  0  0  0  0  0  0  0
    2.1290   11.4250  -13.4320 O   0  0  0  0  0  0  0  0  0  0  0  0
    0.2020   13.3980  -13.2810 C   0  0  0  0  0  0  0  0  0  0  0  0
   -0.5050   14.2620  -12.6450 N   0  0  0  0  0  0  0  0  0  0  0  0
   -0.0570   15.6260  -12.5840 N   0  0  0  0  0  0  0  0  0  0  0  0
   -0.9280   16.6000  -13.0520 C   0  0  0  0  0  0  0  0  0  0  0  0
   -1.1240   16.6330  -14.3250 O   0  0  0  0  0  0  0  0  0  0  0  0
   -1.6610   17.6050  -12.3060 C   0  0  0  0  0  0  0  0  0  0  0  0
   -1.2200   18.2170  -11.1590 N   0  0  0  0  0  0  0  0  0  0  0  0
   -2.1190   19.0700  -10.7510 N   0  0  0  0  0  0  0  0  0  0  0  0
   -3.1690   19.0860  -11.5530 N   0  0  0  0  0  0  0  0  0  0  0  0
   -2.9110   18.1930  -12.5230 C   0  0  0  0  0  0  0  0  0  0  0  0
   -3.7910   17.8240  -13.6370 C   0  0  0  0  0  0  0  0  0  0  0  0
   -4.1890   18.9470  -14.4890 N   0  0  0  0  0  0  0  0  0  0  0  0
   -5.4640   18.6040  -15.1490 C   0  0  0  0  0  0  0  0  0  0  0  0
   -5.3860   17.2290  -15.7140 C   0  0  0  0  0  0  0  0  0  0  0  0
   -4.2880   17.1270  -16.5320 O   0  0  0  0  0  0  0  0  0  0  0  0
   -3.6660   18.3190  -16.7960 C   0  0  0  0  0  0  0  0  0  0  0  0
   -3.1920   19.0710  -15.5790 C   0  0  0  0  0  0  0  0  0  0  0  0
   -4.3150   19.8920  -11.3430 C   0  0  0  0  0  0  0  0  0  0  0  0
   -5.4490   19.9760  -12.0700 N   0  0  0  0  0  0  0  0  0  0  0  0
   -6.2640   20.8370  -11.5220 O   0  0  0  0  0  0  0  0  0  0  0  0
   -5.7290   21.3480  -10.4420 N   0  0  0  0  0  0  0  0  0  0  0  0
   -4.5180   20.7840  -10.3010 C   0  0  0  0  0  0  0  0  0  0  0  0
   -3.6240   21.0750   -9.2480 N   0  0  0  0  0  0  0  0  0  0  0  0
   -3.6630    9.7630  -13.6230 B   0  0  0  0  0  0  0  0  0  0  0  0
   -1.2350    7.9560  -13.7560 O   0  0  0  0  0  0  0  0  0  0  0  0
   -2.2290   12.3530  -13.3910 H   0  0  0  0  0  0  0  0  0  0  0  0
    2.4420   12.2030  -13.9990 H   0  0  0  0  0  0  0  0  0  0  0  0
    1.1170   13.7560  -13.7470 H   0  0  0  0  0  0  0  0  0  0  0  0
    0.9020   15.7680  -12.1880 H   0  0  0  0  0  0  0  0  0  0  0  0
   -4.7160   17.3590  -13.2890 H   0  0  0  0  0  0  0  0  0  0  0  0
   -3.2620   17.1360  -14.3100 H   0  0  0  0  0  0  0  0  0  0  0  0
   -6.3130   18.7420  -14.4610 H   0  0  0  0  0  0  0  0  0  0  0  0
   -5.5800   19.3300  -15.9750 H   0  0  0  0  0  0  0  0  0  0  0  0
   -5.3440   16.4370  -14.9470 H   0  0  0  0  0  0  0  0  0  0  0  0
   -6.2870   17.0730  -16.3770 H   0  0  0  0  0  0  0  0  0  0  0  0
   -2.7300   18.0580  -17.3760 H   0  0  0  0  0  0  0  0  0  0  0  0
   -4.2780   18.9460  -17.4770 H   0  0  0  0  0  0  0  0  0  0  0  0
   -3.1540   20.1310  -15.8590 H   0  0  0  0  0  0  0  0  0  0  0  0
   -2.2120   18.7050  -15.2890 H   0  0  0  0  0  0  0  0  0  0  0  0
   -3.8990   20.8370   -8.2780 H   0  0  0  0  0  0  0  0  0  0  0  0
   -2.7010   21.5190   -9.4060 H   0  0  0  0  0  0  0  0  0  0  0  0
   -1.6270    7.4590  -12.9730 H   0  0  0  0  0  0  0  0  0  0  0  0
  1  2  1  0  0  0  0
  2  7  1  0  0  0  0
  3  2  2  0  0  0  0
  3  4  1  0  0  0  0
  4  5  2  0  0  0  0
  5  6  1  0  0  0  0
  5 34  1  0  0  0  0
  6  9  1  0  0  0  0
  7  8  1  0  0  0  0
  7  6  2  0  0  0  0
  9 10  2  0  0  0  0
 10 11  1  0  0  0  0
 11 37  1  0  0  0  0
 12 11  1  0  0  0  0
 12 14  1  0  0  0  0
 13 12  2  0  0  0  0
 14 15  1  0  0  0  0
 15 16  2  0  0  0  0
 17 26  1  0  0  0  0
 17 16  1  0  0  0  0
 18 14  2  0  0  0  0
 18 17  1  0  0  0  0
 19 38  1  0  0  0  0
 19 18  1  0  0  0  0
 20 19  1  0  0  0  0
 21 20  1  0  0  0  0
 21 40  1  0  0  0  0
 22 21  1  0  0  0  0
 22 42  1  0  0  0  0
 23 22  1  0  0  0  0
 24 23  1  0  0  0  0
 24 25  1  0  0  0  0
 25 47  1  0  0  0  0
 25 20  1  0  0  0  0
 26 30  1  0  0  0  0
 27 28  1  0  0  0  0
 27 26  2  0  0  0  0
 28 29  1  0  0  0  0
 29 30  2  0  0  0  0
 30 31  1  0  0  0  0
 31 48  1  0  0  0  0
 32  4  1  0  0  0  0
 33  3  1  0  0  0  0
 33 50  1  0  0  0  0
 35  8  1  0  0  0  0
 36  9  1  0  0  0  0
 39 19  1  0  0  0  0
 41 21  1  0  0  0  0
 43 22  1  0  0  0  0
 44 24  1  0  0  0  0
 45 24  1  0  0  0  0
 46 25  1  0  0  0  0
 49 31  1  0  0  0  0
M  END
>  <Pose>
1

>  <Score>
-6.36

$$$$
