
 OpenBabel03232203513D

 41 44  0  0  0  0  0  0  0  0999 V2000
   -1.4600    5.6900  -13.9830 B   0  0  0  0  0  0  0  0  0  0  0  0
    0.0050    6.7590  -13.3840 C   0  0  0  0  0  0  0  0  0  0  0  0
    0.6030    6.4440  -12.1840 C   0  0  0  0  0  0  0  0  0  0  0  0
    1.6420    7.1830  -11.7320 N   0  0  0  0  0  0  0  0  0  0  0  0
    2.0670    8.2190  -12.4790 C   0  0  0  0  0  0  0  0  0  0  0  0
    1.5190    8.5860  -13.6740 C   0  0  0  0  0  0  0  0  0  0  0  0
    0.4580    7.8370  -14.1450 C   0  0  0  0  0  0  0  0  0  0  0  0
    2.0570    9.7260  -14.4010 C   0  0  0  0  0  0  0  0  0  0  0  0
    2.6780    9.4930  -15.4910 O   0  0  0  0  0  0  0  0  0  0  0  0
    1.9160   11.0630  -13.9440 N   0  0  0  0  0  0  0  0  0  0  0  0
    3.1050   11.7520  -13.4680 C   0  0  0  0  0  0  0  0  0  0  0  0
    2.8870   12.3000  -12.0750 C   0  0  0  0  0  0  0  0  0  0  0  0
    2.3690   13.6620  -12.2510 N   0  0  0  0  0  0  0  0  0  0  0  0
    3.0500   14.7750  -12.4620 N   0  0  0  0  0  0  0  0  0  0  0  0
    2.2280   15.8100  -12.5700 N   0  0  0  0  0  0  0  0  0  0  0  0
    0.9620   15.3860  -12.4310 C   0  0  0  0  0  0  0  0  0  0  0  0
    1.0600   14.0290  -12.2300 C   0  0  0  0  0  0  0  0  0  0  0  0
   -0.2510   16.1820  -12.4800 C   0  0  0  0  0  0  0  0  0  0  0  0
   -0.6260   17.1480  -11.6220 N   0  0  0  0  0  0  0  0  0  0  0  0
   -1.8110   17.6490  -12.0060 C   0  0  0  0  0  0  0  0  0  0  0  0
   -2.1510   16.9710  -13.1140 N   0  0  0  0  0  0  0  0  0  0  0  0
   -1.2100   16.1130  -13.3660 O   0  0  0  0  0  0  0  0  0  0  0  0
   -2.5830   18.7240  -11.3460 C   0  0  0  0  0  0  0  0  0  0  0  0
   -2.0350   19.4050  -10.2830 C   0  0  0  0  0  0  0  0  0  0  0  0
   -2.7280   20.3860   -9.6750 N   0  0  0  0  0  0  0  0  0  0  0  0
   -3.9680   20.7550  -10.0560 C   0  0  0  0  0  0  0  0  0  0  0  0
   -4.5090   20.0650  -11.1240 C   0  0  0  0  0  0  0  0  0  0  0  0
   -3.8380   19.0610  -11.7720 C   0  0  0  0  0  0  0  0  0  0  0  0
    0.2610    5.5990  -11.5690 H   0  0  0  0  0  0  0  0  0  0  0  0
    2.9100    8.7830  -12.0680 H   0  0  0  0  0  0  0  0  0  0  0  0
   -0.0200    8.0740  -15.0830 H   0  0  0  0  0  0  0  0  0  0  0  0
    0.9870   11.5280  -13.9510 H   0  0  0  0  0  0  0  0  0  0  0  0
    3.9150   10.9790  -13.3810 H   0  0  0  0  0  0  0  0  0  0  0  0
    3.4030   12.5330  -14.1920 H   0  0  0  0  0  0  0  0  0  0  0  0
    2.1430   11.6610  -11.5720 H   0  0  0  0  0  0  0  0  0  0  0  0
    3.8220   12.3920  -11.5030 H   0  0  0  0  0  0  0  0  0  0  0  0
    0.2400   13.3510  -12.0790 H   0  0  0  0  0  0  0  0  0  0  0  0
   -1.0230   19.1290   -9.9460 H   0  0  0  0  0  0  0  0  0  0  0  0
   -4.5140   21.5510   -9.5510 H   0  0  0  0  0  0  0  0  0  0  0  0
   -5.5070   20.3380  -11.4580 H   0  0  0  0  0  0  0  0  0  0  0  0
   -4.2610   18.5140  -12.6150 H   0  0  0  0  0  0  0  0  0  0  0  0
  1  2  1  0  0  0  0
  2  3  1  0  0  0  0
  3  4  2  0  0  0  0
  3 29  1  0  0  0  0
  5 30  1  0  0  0  0
  5  4  1  0  0  0  0
  6  5  2  0  0  0  0
  7  6  1  0  0  0  0
  7  2  2  0  0  0  0
  8 10  1  0  0  0  0
  8  6  1  0  0  0  0
  9  8  2  0  0  0  0
 10 11  1  0  0  0  0
 11 33  1  0  0  0  0
 11 12  1  0  0  0  0
 12 35  1  0  0  0  0
 12 36  1  0  0  0  0
 13 17  1  0  0  0  0
 13 12  1  0  0  0  0
 14 13  1  0  0  0  0
 15 14  2  0  0  0  0
 15 16  1  0  0  0  0
 16 17  2  0  0  0  0
 17 37  1  0  0  0  0
 18 16  1  0  0  0  0
 18 19  2  0  0  0  0
 20 19  1  0  0  0  0
 20 23  1  0  0  0  0
 21 20  2  0  0  0  0
 22 21  1  0  0  0  0
 22 18  1  0  0  0  0
 23 24  1  0  0  0  0
 24 38  1  0  0  0  0
 24 25  2  0  0  0  0
 26 25  1  0  0  0  0
 26 39  1  0  0  0  0
 27 26  2  0  0  0  0
 28 23  2  0  0  0  0
 28 27  1  0  0  0  0
 31  7  1  0  0  0  0
 32 10  1  0  0  0  0
 34 11  1  0  0  0  0
 40 27  1  0  0  0  0
 41 28  1  0  0  0  0
M  END
>  <Pose>
1

>  <Score>
-9.21

$$$$
