
 OpenBabel03232203513D

 54 56  0  0  0  0  0  0  0  0999 V2000
    2.2870    5.6770  -12.3010 Cl  0  0  0  0  0  0  0  0  0  0  0  0
    0.8420    6.2810  -13.1180 C   0  0  0  0  0  0  0  0  0  0  0  0
    0.9450    7.3690  -13.9570 C   0  0  0  0  0  0  0  0  0  0  0  0
   -0.1900    7.8160  -14.5780 C   0  0  0  0  0  0  0  0  0  0  0  0
   -1.4280    7.2190  -14.3970 C   0  0  0  0  0  0  0  0  0  0  0  0
   -1.4900    6.1170  -13.5370 C   0  0  0  0  0  0  0  0  0  0  0  0
   -0.3650    5.6510  -12.9040 C   0  0  0  0  0  0  0  0  0  0  0  0
    2.1720    8.0210  -14.1860 N   0  0  0  0  0  0  0  0  0  0  0  0
    3.3910    7.5640  -13.5730 C   0  0  0  0  0  0  0  0  0  0  0  0
    4.1940    8.6740  -12.9410 C   0  0  0  0  0  0  0  0  0  0  0  0
    3.6940    9.9280  -13.4390 N   0  0  0  0  0  0  0  0  0  0  0  0
    3.4110   10.0200  -14.8480 C   0  0  0  0  0  0  0  0  0  0  0  0
    2.1420    9.1880  -15.0800 C   0  0  0  0  0  0  0  0  0  0  0  0
    3.4730   11.0590  -12.6240 C   0  0  0  0  0  0  0  0  0  0  0  0
    4.3150   11.4110  -11.7470 O   0  0  0  0  0  0  0  0  0  0  0  0
    2.2770   11.8780  -12.7420 C   0  0  0  0  0  0  0  0  0  0  0  0
    1.1280   11.3610  -13.2740 C   0  0  0  0  0  0  0  0  0  0  0  0
   -0.0370   12.0650  -13.4190 N   0  0  0  0  0  0  0  0  0  0  0  0
   -0.0390   13.3310  -13.0140 C   0  0  0  0  0  0  0  0  0  0  0  0
    1.0630   13.9360  -12.4690 C   0  0  0  0  0  0  0  0  0  0  0  0
    2.2900   13.1750  -12.3230 C   0  0  0  0  0  0  0  0  0  0  0  0
    3.1850   14.0150  -11.7690 N   0  0  0  0  0  0  0  0  0  0  0  0
    2.6290   15.1980  -11.5670 N   0  0  0  0  0  0  0  0  0  0  0  0
    1.3530   15.1950  -11.9740 C   0  0  0  0  0  0  0  0  0  0  0  0
    0.4970   16.1320  -11.9470 O   0  0  0  0  0  0  0  0  0  0  0  0
   -1.2130   11.4050  -13.9640 C   0  0  0  0  0  0  0  0  0  0  0  0
   -1.6810   10.2210  -13.2410 C   0  0  0  0  0  0  0  0  0  0  0  0
   -3.0330    9.6700  -13.3460 C   0  0  0  0  0  0  0  0  0  0  0  0
   -3.7930    9.8440  -14.4400 O   0  0  0  0  0  0  0  0  0  0  0  0
   -4.7370    8.9860  -14.8330 C   0  0  0  0  0  0  0  0  0  0  0  0
   -0.1250    8.6630  -15.2340 H   0  0  0  0  0  0  0  0  0  0  0  0
   -2.2970    7.5920  -14.8950 H   0  0  0  0  0  0  0  0  0  0  0  0
   -2.4660    5.6710  -13.4130 H   0  0  0  0  0  0  0  0  0  0  0  0
   -0.4380    4.8100  -12.2540 H   0  0  0  0  0  0  0  0  0  0  0  0
    4.0360    6.9940  -14.2730 H   0  0  0  0  0  0  0  0  0  0  0  0
    3.1230    6.8600  -12.7570 H   0  0  0  0  0  0  0  0  0  0  0  0
    4.1930    8.6200  -11.8360 H   0  0  0  0  0  0  0  0  0  0  0  0
    5.2680    8.5930  -13.2660 H   0  0  0  0  0  0  0  0  0  0  0  0
    4.1990    9.4980  -15.4640 H   0  0  0  0  0  0  0  0  0  0  0  0
    3.2750   11.0530  -15.1940 H   0  0  0  0  0  0  0  0  0  0  0  0
    2.0380    8.8850  -16.1300 H   0  0  0  0  0  0  0  0  0  0  0  0
    1.2860    9.8120  -14.7510 H   0  0  0  0  0  0  0  0  0  0  0  0
    1.0670   10.3180  -13.6270 H   0  0  0  0  0  0  0  0  0  0  0  0
   -0.9280   13.9500  -13.0710 H   0  0  0  0  0  0  0  0  0  0  0  0
    3.0760   16.0620  -11.1490 H   0  0  0  0  0  0  0  0  0  0  0  0
   -1.1750   11.3080  -15.0730 H   0  0  0  0  0  0  0  0  0  0  0  0
   -2.0360   12.1970  -13.8330 H   0  0  0  0  0  0  0  0  0  0  0  0
   -0.9090    9.3790  -13.3620 H   0  0  0  0  0  0  0  0  0  0  0  0
   -1.5260   10.4530  -12.1220 H   0  0  0  0  0  0  0  0  0  0  0  0
   -3.0730    8.5810  -12.9880 H   0  0  0  0  0  0  0  0  0  0  0  0
   -3.6280   10.1620  -12.4830 H   0  0  0  0  0  0  0  0  0  0  0  0
   -5.5490    8.8680  -14.0670 H   0  0  0  0  0  0  0  0  0  0  0  0
   -4.4390    7.9800  -15.1420 H   0  0  0  0  0  0  0  0  0  0  0  0
   -5.3200    9.4680  -15.7000 H   0  0  0  0  0  0  0  0  0  0  0  0
  2  7  1  0  0  0  0
  3  2  2  0  0  0  0
  4  5  2  0  0  0  0
  4  3  1  0  0  0  0
  5  6  1  0  0  0  0
  6 33  1  0  0  0  0
  6  7  2  0  0  0  0
  7 34  1  0  0  0  0
  8  3  1  0  0  0  0
  8  9  1  0  0  0  0
  9 10  1  0  0  0  0
  9 36  1  0  0  0  0
 10 37  1  0  0  0  0
 11 10  1  0  0  0  0
 11 14  1  0  0  0  0
 12 11  1  0  0  0  0
 13 12  1  0  0  0  0
 13 42  1  0  0  0  0
 13  8  1  0  0  0  0
 14 15  2  0  0  0  0
 16 14  1  0  0  0  0
 16 21  2  0  0  0  0
 17 16  1  0  0  0  0
 18 17  1  0  0  0  0
 18 19  1  0  0  0  0
 19 20  2  0  0  0  0
 20 21  1  0  0  0  0
 20 24  1  0  0  0  0
 21 22  1  0  0  0  0
 22 23  1  0  0  0  0
 23 45  1  0  0  0  0
 24 25  2  0  0  0  0
 24 23  1  0  0  0  0
 26 47  1  0  0  0  0
 26 18  1  0  0  0  0
 26 27  1  0  0  0  0
 27 49  1  0  0  0  0
 28 27  1  0  0  0  0
 28 50  1  0  0  0  0
 28 51  1  0  0  0  0
 29 28  1  0  0  0  0
 30 29  1  0  0  0  0
 30 52  1  0  0  0  0
 31  4  1  0  0  0  0
 32  5  1  0  0  0  0
 35  9  1  0  0  0  0
 38 10  1  0  0  0  0
 39 12  1  0  0  0  0
 40 12  1  0  0  0  0
 41 13  1  0  0  0  0
 43 17  1  0  0  0  0
 44 19  1  0  0  0  0
 46 26  1  0  0  0  0
 48 27  1  0  0  0  0
 53 30  1  0  0  0  0
 54 30  1  0  0  0  0
M  END
>  <Pose>
1

>  <Score>
-4.94

$$$$
