
 OpenBabel03232203513D

 59 63  0  0  1  0  0  0  0  0999 V2000
    3.4690   13.2200  -11.6400 B   0  0  0  0  0  0  0  0  0  0  0  0
    3.4560   11.8830  -12.9860 C   0  0  0  0  0  0  0  0  0  0  0  0
    2.8800   10.6540  -12.7510 C   0  0  0  0  0  0  0  0  0  0  0  0
    2.8720    9.6620  -13.7400 C   0  0  0  0  0  0  0  0  0  0  0  0
    3.4720   10.0190  -14.9280 C   0  0  0  0  0  0  0  0  0  0  0  0
    4.0520   11.2230  -15.2030 C   0  0  0  0  0  0  0  0  0  0  0  0
    4.0420   12.1760  -14.2010 C   0  0  0  0  0  0  0  0  0  0  0  0
    2.3130    8.3530  -13.4640 C   0  0  2  0  0  0  0  0  0  0  0  0
    1.1910    8.1540  -12.6560 N   0  0  0  0  0  0  0  0  0  0  0  0
    1.6050    7.2880  -11.5570 C   0  0  0  0  0  0  0  0  0  0  0  0
    0.9430    6.9740  -10.5360 O   0  0  0  0  0  0  0  0  0  0  0  0
    2.9530    6.7990  -11.8000 C   0  0  0  0  0  0  0  0  0  0  0  0
    3.6270    6.0260  -11.0410 O   0  0  0  0  0  0  0  0  0  0  0  0
    3.3650    7.3670  -13.0560 C   0  0  0  0  0  0  0  0  0  0  0  0
    4.4880    7.0930  -13.6870 C   0  0  0  0  0  0  0  0  0  0  0  0
    4.7050    7.8300  -14.8760 O   0  0  0  0  0  0  0  0  0  0  0  0
    5.4880    6.1240  -13.2820 C   0  0  0  0  0  0  0  0  0  0  0  0
    6.7710    6.2420  -12.9060 N   0  0  0  0  0  0  0  0  0  0  0  0
    7.3480    5.0570  -12.6560 C   0  0  0  0  0  0  0  0  0  0  0  0
    6.3920    4.1270  -12.8800 N   0  0  0  0  0  0  0  0  0  0  0  0
    5.2620    4.7300  -13.2580 C   0  0  0  0  0  0  0  0  0  0  0  0
    3.9870    4.0830  -13.5950 C   0  0  0  0  0  0  0  0  0  0  0  0
    8.6600    4.9460  -12.2390 C   0  0  0  0  0  0  0  0  0  0  0  0
    9.4010    6.0850  -12.0760 C   0  0  0  0  0  0  0  0  0  0  0  0
    8.8070    7.3060  -12.3330 C   0  0  0  0  0  0  0  0  0  0  0  0
    7.4980    7.3810  -12.7460 C   0  0  0  0  0  0  0  0  0  0  0  0
   -0.1470    8.5790  -12.8500 C   0  0  0  0  0  0  0  0  0  0  0  0
   -0.9850    8.0130  -13.9040 C   0  0  0  0  0  0  0  0  0  0  0  0
   -2.2680    7.4500  -13.6000 N   0  0  0  0  0  4  0  0  0  0  0  0
   -2.9860    7.3320  -14.8690 C   0  0  0  0  0  0  0  0  0  0  0  0
   -2.7390    6.0280  -15.5560 C   0  0  0  0  0  0  0  0  0  0  0  0
   -1.6660    5.3430  -14.9650 O   0  0  0  0  0  0  0  0  0  0  0  0
   -2.0910    5.0260  -13.6940 C   0  0  0  0  0  0  0  0  0  0  0  0
   -2.2030    6.2410  -12.8510 C   0  0  0  0  0  0  0  0  0  0  0  0
    2.4170   10.3920  -11.8180 H   0  0  0  0  0  0  0  0  0  0  0  0
    3.4810    9.2660  -15.7200 H   0  0  0  0  0  0  0  0  0  0  0  0
    4.5170   11.4620  -16.1560 H   0  0  0  0  0  0  0  0  0  0  0  0
    4.5070   13.1330  -14.4240 H   0  0  0  0  0  0  0  0  0  0  0  0
    1.9480    7.9790  -14.5210 H   0  0  0  0  0  0  0  0  0  0  0  0
    3.0890    4.6470  -13.2580 H   0  0  0  0  0  0  0  0  0  0  0  0
    3.9720    3.9000  -14.6960 H   0  0  0  0  0  0  0  0  0  0  0  0
    3.9460    3.0860  -13.1050 H   0  0  0  0  0  0  0  0  0  0  0  0
    9.1220    3.9970  -12.0410 H   0  0  0  0  0  0  0  0  0  0  0  0
   10.4390    6.0870  -11.7520 H   0  0  0  0  0  0  0  0  0  0  0  0
    9.3610    8.2410  -12.2170 H   0  0  0  0  0  0  0  0  0  0  0  0
    7.0140    8.3480  -12.9500 H   0  0  0  0  0  0  0  0  0  0  0  0
   -0.1050    9.7040  -13.0110 H   0  0  0  0  0  0  0  0  0  0  0  0
   -0.7040    8.4990  -11.8750 H   0  0  0  0  0  0  0  0  0  0  0  0
   -1.1870    8.8690  -14.6260 H   0  0  0  0  0  0  0  0  0  0  0  0
   -0.4210    7.3000  -14.5810 H   0  0  0  0  0  0  0  0  0  0  0  0
   -2.8760    8.1320  -13.0550 H   0  0  0  0  0  0  0  0  0  0  0  0
   -4.0630    7.4210  -14.6600 H   0  0  0  0  0  0  0  0  0  0  0  0
   -2.7170    8.1800  -15.5470 H   0  0  0  0  0  0  0  0  0  0  0  0
   -3.6430    5.3670  -15.4910 H   0  0  0  0  0  0  0  0  0  0  0  0
   -2.4570    6.2250  -16.6110 H   0  0  0  0  0  0  0  0  0  0  0  0
   -1.2860    4.3360  -13.2820 H   0  0  0  0  0  0  0  0  0  0  0  0
   -3.0590    4.4450  -13.7420 H   0  0  0  0  0  0  0  0  0  0  0  0
   -1.3520    6.2340  -12.1220 H   0  0  0  0  0  0  0  0  0  0  0  0
   -3.1720    6.1440  -12.2720 H   0  0  0  0  0  0  0  0  0  0  0  0
  2  3  1  0  0  0  0
  2  1  1  0  0  0  0
  3 35  1  0  0  0  0
  4  8  1  0  0  0  0
  4  3  2  0  0  0  0
  5  4  1  0  0  0  0
  6  5  2  0  0  0  0
  6  7  1  0  0  0  0
  7  2  2  0  0  0  0
  8 39  1  6  0  0  0
  8 14  1  0  0  0  0
  8  9  1  0  0  0  0
  9 10  1  0  0  0  0
 10 11  2  0  0  0  0
 12 10  1  0  0  0  0
 12 13  2  0  0  0  0
 14 12  1  0  0  0  0
 15 17  1  0  0  0  0
 15 14  2  0  0  0  0
 16 15  1  0  0  0  0
 17 21  2  0  0  0  0
 17 18  1  0  0  0  0
 18 26  1  0  0  0  0
 18 19  1  0  0  0  0
 19 23  1  0  0  0  0
 20 19  2  0  0  0  0
 21 20  1  0  0  0  0
 22 21  1  0  0  0  0
 22 40  1  0  0  0  0
 22 42  1  0  0  0  0
 23 24  2  0  0  0  0
 23 43  1  0  0  0  0
 24 44  1  0  0  0  0
 25 45  1  0  0  0  0
 25 24  1  0  0  0  0
 26 25  2  0  0  0  0
 27  9  1  0  0  0  0
 27 48  1  0  0  0  0
 28 29  1  0  0  0  0
 28 27  1  0  0  0  0
 29 51  1  0  0  0  0
 29 34  1  0  0  0  0
 30 52  1  0  0  0  0
 30 29  1  0  0  0  0
 31 54  1  0  0  0  0
 31 32  1  0  0  0  0
 31 30  1  0  0  0  0
 32 33  1  0  0  0  0
 33 56  1  0  0  0  0
 33 34  1  0  0  0  0
 34 59  1  0  0  0  0
 34 58  1  0  0  0  0
 36  5  1  0  0  0  0
 37  6  1  0  0  0  0
 38  7  1  0  0  0  0
 41 22  1  0  0  0  0
 46 26  1  0  0  0  0
 47 27  1  0  0  0  0
 49 28  1  0  0  0  0
 50 28  1  0  0  0  0
 53 30  1  0  0  0  0
 55 31  1  0  0  0  0
 57 33  1  0  0  0  0
M  END
>  <Pose>
1

>  <Score>
-4.70

$$$$
