
 OpenBabel03232203513D

 56 59  0  0  1  0  0  0  0  0999 V2000
   -7.1720   10.2800  -14.9710 B   0  0  0  0  0  0  0  0  0  0  0  0
   -5.5550    9.2580  -14.7690 C   0  0  0  0  0  0  0  0  0  0  0  0
   -4.5170    9.7560  -14.0000 C   0  0  0  0  0  0  0  0  0  0  0  0
   -3.3440    9.0220  -13.8500 C   0  0  0  0  0  0  0  0  0  0  0  0
   -3.1850    7.7950  -14.4530 C   0  0  0  0  0  0  0  0  0  0  0  0
   -4.2370    7.3300  -15.2100 C   0  0  0  0  0  0  0  0  0  0  0  0
   -5.4050    8.0330  -15.3750 C   0  0  0  0  0  0  0  0  0  0  0  0
   -1.9720    7.0200  -14.3060 C   0  0  0  0  0  0  0  0  0  0  0  0
   -1.8800    6.1890  -13.3630 O   0  0  0  0  0  0  0  0  0  0  0  0
   -0.8080    7.1530  -15.2210 C   0  0  0  0  0  0  0  0  0  0  0  0
    0.3880    7.5060  -14.5160 N   0  0  0  0  0  0  0  0  0  0  0  0
    1.4920    6.8000  -14.4350 N   0  0  0  0  0  0  0  0  0  0  0  0
    2.4070    7.4390  -13.6910 C   0  0  0  0  0  0  0  0  0  0  0  0
    1.8500    8.5910  -13.2920 N   0  0  0  0  0  0  0  0  0  0  0  0
    0.5880    8.6250  -13.8120 C   0  0  1  0  0  0  0  0  0  0  0  0
   -0.3870    9.7000  -13.6340 C   0  0  0  0  0  0  0  0  0  0  0  0
    0.1120   11.0390  -14.1230 C   0  0  0  0  0  0  0  0  0  0  0  0
    1.1700   11.6160  -13.2090 C   0  0  0  0  0  0  0  0  0  0  0  0
    2.4770   10.8880  -13.2860 C   0  0  0  0  0  0  0  0  0  0  0  0
    2.4730    9.6060  -12.4660 C   0  0  0  0  0  0  0  0  0  0  0  0
    3.7670    6.9940  -13.3560 C   0  0  0  0  0  0  0  0  0  0  0  0
    3.8450    5.5830  -13.1300 N   0  0  0  0  0  0  0  0  0  0  0  0
    5.0660    4.8530  -13.1990 C   0  0  0  0  0  0  0  0  0  0  0  0
    6.2760    5.4100  -12.8540 C   0  0  0  0  0  0  0  0  0  0  0  0
    7.4450    4.6950  -12.9200 C   0  0  0  0  0  0  0  0  0  0  0  0
    7.4180    3.4010  -13.3360 C   0  0  0  0  0  0  0  0  0  0  0  0
    6.2080    2.8410  -13.6830 C   0  0  0  0  0  0  0  0  0  0  0  0
    5.0270    3.5500  -13.6200 C   0  0  0  0  0  0  0  0  0  0  0  0
    8.5730    2.6610  -13.4130 O   0  0  0  0  0  0  0  0  0  0  0  0
    9.7600    3.0250  -12.7540 C   0  0  0  0  0  0  0  0  0  0  0  0
   -4.6490   10.7130  -13.5330 H   0  0  0  0  0  0  0  0  0  0  0  0
   -2.5520    9.4290  -13.2480 H   0  0  0  0  0  0  0  0  0  0  0  0
   -4.1290    6.3530  -15.6990 H   0  0  0  0  0  0  0  0  0  0  0  0
   -6.1890    7.6190  -15.9770 H   0  0  0  0  0  0  0  0  0  0  0  0
   -0.6890    6.2580  -15.8630 H   0  0  0  0  0  0  0  0  0  0  0  0
   -1.0620    8.0170  -15.9030 H   0  0  0  0  0  0  0  0  0  0  0  0
   -1.3250    9.4870  -14.1760 H   0  0  0  0  0  0  0  0  0  0  0  0
   -0.6880    9.8530  -12.5580 H   0  0  0  0  0  0  0  0  0  0  0  0
    0.4580   11.0300  -15.1570 H   0  0  0  0  0  0  0  0  0  0  0  0
   -0.7600   11.7370  -14.0760 H   0  0  0  0  0  0  0  0  0  0  0  0
    0.8120   11.7310  -12.1840 H   0  0  0  0  0  0  0  0  0  0  0  0
    1.3620   12.6600  -13.5900 H   0  0  0  0  0  0  0  0  0  0  0  0
    2.7410   10.6280  -14.3100 H   0  0  0  0  0  0  0  0  0  0  0  0
    3.2680   11.5750  -12.8780 H   0  0  0  0  0  0  0  0  0  0  0  0
    1.9670    9.7410  -11.4970 H   0  0  0  0  0  0  0  0  0  0  0  0
    3.5160    9.3170  -12.2680 H   0  0  0  0  0  0  0  0  0  0  0  0
    4.0890    7.5390  -12.4310 H   0  0  0  0  0  0  0  0  0  0  0  0
    4.4870    7.2740  -14.1420 H   0  0  0  0  0  0  0  0  0  0  0  0
    2.9940    5.0480  -12.9040 H   0  0  0  0  0  0  0  0  0  0  0  0
    6.2410    6.4570  -12.5250 H   0  0  0  0  0  0  0  0  0  0  0  0
    8.3650    5.1720  -12.6400 H   0  0  0  0  0  0  0  0  0  0  0  0
    6.1530    1.8030  -14.0210 H   0  0  0  0  0  0  0  0  0  0  0  0
    4.0710    3.0830  -13.8980 H   0  0  0  0  0  0  0  0  0  0  0  0
   10.6140    2.4570  -13.1440 H   0  0  0  0  0  0  0  0  0  0  0  0
    9.9360    4.1070  -12.9200 H   0  0  0  0  0  0  0  0  0  0  0  0
    9.6860    2.8660  -11.6550 H   0  0  0  0  0  0  0  0  0  0  0  0
  1  2  1  0  0  0  0
  2  3  1  0  0  0  0
  3  4  2  0  0  0  0
  3 31  1  0  0  0  0
  4 32  1  0  0  0  0
  5  8  1  0  0  0  0
  5  4  1  0  0  0  0
  6  5  2  0  0  0  0
  7  6  1  0  0  0  0
  7  2  2  0  0  0  0
  8  9  2  0  0  0  0
 10 11  1  0  0  0  0
 10  8  1  0  0  0  0
 11 12  1  0  0  0  0
 12 13  2  0  0  0  0
 13 21  1  0  0  0  0
 13 14  1  0  0  0  0
 14 20  1  0  0  0  0
 15 11  1  6  0  0  0
 15 16  1  0  0  0  0
 15 14  1  0  0  0  0
 16 38  1  0  0  0  0
 17 40  1  0  0  0  0
 17 16  1  0  0  0  0
 17 18  1  0  0  0  0
 18 41  1  0  0  0  0
 19 18  1  0  0  0  0
 19 44  1  0  0  0  0
 19 20  1  0  0  0  0
 20 46  1  0  0  0  0
 20 45  1  0  0  0  0
 21 22  1  0  0  0  0
 21 47  1  0  0  0  0
 22 49  1  0  0  0  0
 23 22  1  0  0  0  0
 23 24  1  0  0  0  0
 24 50  1  0  0  0  0
 25 24  2  0  0  0  0
 25 51  1  0  0  0  0
 26 25  1  0  0  0  0
 27 28  1  0  0  0  0
 27 26  2  0  0  0  0
 28 23  2  0  0  0  0
 29 26  1  0  0  0  0
 29 30  1  0  0  0  0
 30 56  1  0  0  0  0
 33  6  1  0  0  0  0
 34  7  1  0  0  0  0
 35 10  1  0  0  0  0
 36 10  1  0  0  0  0
 37 16  1  0  0  0  0
 39 17  1  0  0  0  0
 42 18  1  0  0  0  0
 43 19  1  0  0  0  0
 48 21  1  0  0  0  0
 52 27  1  0  0  0  0
 53 28  1  0  0  0  0
 54 30  1  0  0  0  0
 55 30  1  0  0  0  0
M  END
>  <Pose>
1

>  <Score>
-5.48

$$$$
