
 OpenBabel03232203513D

 53 56  0  0  1  0  0  0  0  0999 V2000
   -1.3450   17.3980  -12.9010 B   0  0  0  0  0  0  0  0  0  0  0  0
   -0.7870   15.5610  -13.0060 C   0  0  0  0  0  0  0  0  0  0  0  0
   -0.1640   15.0600  -14.1260 C   0  0  0  0  0  0  0  0  0  0  0  0
    0.2530   13.7650  -14.2550 C   0  0  0  0  0  0  0  0  0  0  0  0
    0.0390   12.8980  -13.1990 C   0  0  0  0  0  0  0  0  0  0  0  0
   -0.5820   13.3730  -12.0660 C   0  0  0  0  0  0  0  0  0  0  0  0
   -1.0030   14.7010  -11.9480 C   0  0  0  0  0  0  0  0  0  0  0  0
    0.4790   11.5090  -13.2430 C   0  0  0  0  0  0  0  0  0  0  0  0
    1.7520   11.1920  -13.1270 C   0  0  0  0  0  0  0  0  0  0  0  0
    2.4080    9.8450  -13.1490 C   0  0  2  0  0  0  0  0  0  0  0  0
    3.5660   10.0930  -13.9280 N   0  0  0  0  0  0  0  0  0  0  0  0
    4.0630   11.3640  -13.4090 C   0  0  0  0  0  0  0  0  0  0  0  0
    5.2510   11.7790  -13.3990 O   0  0  0  0  0  0  0  0  0  0  0  0
    2.8970   12.0730  -12.8940 C   0  0  0  0  0  0  0  0  0  0  0  0
    2.8090   13.2200  -12.3430 O   0  0  0  0  0  0  0  0  0  0  0  0
    4.2710    9.3630  -14.9640 C   0  0  0  0  0  0  0  0  0  0  0  0
    4.4480    7.9070  -14.7740 C   0  0  0  0  0  0  0  0  0  0  0  0
    5.1080    7.5430  -13.5160 N   0  0  0  0  0  4  0  0  0  0  0  0
    6.5110    7.4090  -13.7140 C   0  0  0  0  0  0  0  0  0  0  0  0
    7.0860    6.0490  -13.5220 C   0  0  0  0  0  0  0  0  0  0  0  0
    6.4040    5.2310  -12.6430 O   0  0  0  0  0  0  0  0  0  0  0  0
    5.1150    5.0850  -13.2060 C   0  0  0  0  0  0  0  0  0  0  0  0
    4.4300    6.3900  -13.0000 C   0  0  0  0  0  0  0  0  0  0  0  0
    1.5200    8.7590  -13.3970 C   0  0  0  0  0  0  0  0  0  0  0  0
    1.2660    7.8570  -12.3920 C   0  0  0  0  0  0  0  0  0  0  0  0
    0.4100    6.7940  -12.5490 C   0  0  0  0  0  0  0  0  0  0  0  0
   -0.2440    6.5900  -13.7550 C   0  0  0  0  0  0  0  0  0  0  0  0
    0.0240    7.5070  -14.7520 C   0  0  0  0  0  0  0  0  0  0  0  0
    0.8840    8.5690  -14.5870 C   0  0  0  0  0  0  0  0  0  0  0  0
   -1.3360    5.2440  -13.9680 Cl  0  0  0  0  0  0  0  0  0  0  0  0
   -0.5050   10.5500  -13.4090 O   0  0  0  0  0  0  0  0  0  0  0  0
   -0.0060   15.7500  -14.9410 H   0  0  0  0  0  0  0  0  0  0  0  0
    0.7420   13.3560  -15.1260 H   0  0  0  0  0  0  0  0  0  0  0  0
   -0.7620   12.7420  -11.1930 H   0  0  0  0  0  0  0  0  0  0  0  0
   -1.4930   15.0390  -11.0320 H   0  0  0  0  0  0  0  0  0  0  0  0
    2.8020    9.7500  -12.0820 H   0  0  0  0  0  0  0  0  0  0  0  0
    3.7120    9.4720  -15.9510 H   0  0  0  0  0  0  0  0  0  0  0  0
    5.2420    9.8870  -15.2210 H   0  0  0  0  0  0  0  0  0  0  0  0
    4.9790    7.3540  -15.5460 H   0  0  0  0  0  0  0  0  0  0  0  0
    3.3850    7.4990  -14.6500 H   0  0  0  0  0  0  0  0  0  0  0  0
    4.9030    8.3620  -12.8640 H   0  0  0  0  0  0  0  0  0  0  0  0
    6.7980    7.8170  -14.7290 H   0  0  0  0  0  0  0  0  0  0  0  0
    7.0320    8.0780  -12.9670 H   0  0  0  0  0  0  0  0  0  0  0  0
    7.0660    5.5140  -14.5160 H   0  0  0  0  0  0  0  0  0  0  0  0
    8.1450    6.0520  -13.2040 H   0  0  0  0  0  0  0  0  0  0  0  0
    5.1580    4.7700  -14.2580 H   0  0  0  0  0  0  0  0  0  0  0  0
    4.5940    4.2930  -12.6490 H   0  0  0  0  0  0  0  0  0  0  0  0
    3.3850    6.3020  -13.3940 H   0  0  0  0  0  0  0  0  0  0  0  0
    4.3060    6.5190  -11.8880 H   0  0  0  0  0  0  0  0  0  0  0  0
    1.7570    7.9590  -11.3970 H   0  0  0  0  0  0  0  0  0  0  0  0
    0.2140    6.0890  -11.7550 H   0  0  0  0  0  0  0  0  0  0  0  0
   -0.5010    7.3280  -15.6940 H   0  0  0  0  0  0  0  0  0  0  0  0
    0.9950    9.2250  -15.4450 H   0  0  0  0  0  0  0  0  0  0  0  0
  2  1  1  0  0  0  0
  2  7  1  0  0  0  0
  3  2  2  0  0  0  0
  4  3  1  0  0  0  0
  4  5  2  0  0  0  0
  5  6  1  0  0  0  0
  6  7  2  0  0  0  0
  6 34  1  0  0  0  0
  7 35  1  0  0  0  0
  8  5  1  0  0  0  0
  8  9  2  0  0  0  0
  9 14  1  0  0  0  0
 10  9  1  0  0  0  0
 10 36  1  1  0  0  0
 11 12  1  0  0  0  0
 11 10  1  0  0  0  0
 12 13  2  0  0  0  0
 12 14  1  0  0  0  0
 14 15  2  0  0  0  0
 16 17  1  0  0  0  0
 16 11  1  0  0  0  0
 17 40  1  0  0  0  0
 17 18  1  0  0  0  0
 18 23  1  0  0  0  0
 18 41  1  0  0  0  0
 19 20  1  0  0  0  0
 19 18  1  0  0  0  0
 19 43  1  0  0  0  0
 20 45  1  0  0  0  0
 20 21  1  0  0  0  0
 22 23  1  0  0  0  0
 22 47  1  0  0  0  0
 22 21  1  0  0  0  0
 23 49  1  0  0  0  0
 24 10  1  0  0  0  0
 24 25  1  0  0  0  0
 25 50  1  0  0  0  0
 26 25  2  0  0  0  0
 26 51  1  0  0  0  0
 27 26  1  0  0  0  0
 28 29  1  0  0  0  0
 28 27  2  0  0  0  0
 29 24  2  0  0  0  0
 30 27  1  0  0  0  0
 31  8  1  0  0  0  0
 32  3  1  0  0  0  0
 33  4  1  0  0  0  0
 37 16  1  0  0  0  0
 38 16  1  0  0  0  0
 39 17  1  0  0  0  0
 42 19  1  0  0  0  0
 44 20  1  0  0  0  0
 46 22  1  0  0  0  0
 48 23  1  0  0  0  0
 52 28  1  0  0  0  0
 53 29  1  0  0  0  0
M  END
>  <Pose>
1

>  <Score>
-4.80

$$$$
