
 OpenBabel03232203513D

 49 52  0  0  0  0  0  0  0  0999 V2000
   -0.1240    7.7720  -13.7710 Cl  0  0  0  0  0  0  0  0  0  0  0  0
    0.7390    9.2590  -13.4090 C   0  0  0  0  0  0  0  0  0  0  0  0
    1.8190    9.2020  -12.5730 C   0  0  0  0  0  0  0  0  0  0  0  0
    2.5110   10.3830  -12.2870 C   0  0  0  0  0  0  0  0  0  0  0  0
    2.0940   11.5560  -12.8440 C   0  0  0  0  0  0  0  0  0  0  0  0
    1.0260   11.6180  -13.6730 C   0  0  0  0  0  0  0  0  0  0  0  0
    0.3240   10.4330  -13.9680 C   0  0  0  0  0  0  0  0  0  0  0  0
    2.8470   12.8140  -12.5280 C   0  0  0  0  0  0  0  0  0  0  0  0
    4.1000   12.7110  -12.5910 O   0  0  0  0  0  0  0  0  0  0  0  0
    2.1270   13.9180  -12.2120 N   0  0  0  0  0  0  0  0  0  0  0  0
    1.4000   15.0330  -11.8920 C   0  0  0  0  0  0  0  0  0  0  0  0
    0.0810   15.1930  -12.5030 C   0  0  0  0  0  0  0  0  0  0  0  0
   -0.1390   14.3880  -13.5170 O   0  0  0  0  0  0  0  0  0  0  0  0
   -0.9810   16.0350  -12.2070 N   0  0  0  0  0  0  0  0  0  0  0  0
   -1.4780   16.2790  -10.8930 C   0  0  0  0  0  0  0  0  0  0  0  0
   -2.8450   16.9900  -11.0250 C   0  0  0  0  0  0  0  0  0  0  0  0
   -2.5540   18.3720  -11.5780 C   0  0  0  0  0  0  0  0  0  0  0  0
   -1.7240   19.0650  -10.6810 N   0  0  0  0  0  0  0  0  0  0  0  0
   -2.2660   19.7680   -9.5990 C   0  0  0  0  0  0  0  0  0  0  0  0
   -3.5560   20.4670   -9.8080 C   0  0  0  0  0  0  0  0  0  0  0  0
   -4.2940   20.0100  -11.0050 C   0  0  0  0  0  0  0  0  0  0  0  0
   -5.4810   20.4490  -11.4650 N   0  0  0  0  0  0  0  0  0  0  0  0
   -5.7770   19.7610  -12.5720 C   0  0  0  0  0  0  0  0  0  0  0  0
   -4.7710   18.8880  -12.8080 N   0  0  0  0  0  0  0  0  0  0  0  0
   -3.8430   19.0300  -11.8440 C   0  0  0  0  0  0  0  0  0  0  0  0
   -1.7690   18.1890  -12.8880 C   0  0  0  0  0  0  0  0  0  0  0  0
   -1.6750   16.7450  -13.2940 C   0  0  0  0  0  0  0  0  0  0  0  0
    2.1490    8.2780  -12.1320 H   0  0  0  0  0  0  0  0  0  0  0  0
    3.3640   10.3870  -11.6310 H   0  0  0  0  0  0  0  0  0  0  0  0
    0.6640   12.5280  -14.1380 H   0  0  0  0  0  0  0  0  0  0  0  0
   -0.5320   10.4680  -14.6260 H   0  0  0  0  0  0  0  0  0  0  0  0
    1.8390   13.4020  -10.9690 H   0  0  0  0  0  0  0  0  0  0  0  0
    2.0020   15.9880  -12.1540 H   0  0  0  0  0  0  0  0  0  0  0  0
    1.2830   15.2050  -10.7560 H   0  0  0  0  0  0  0  0  0  0  0  0
   -0.8380   16.9320  -10.3070 H   0  0  0  0  0  0  0  0  0  0  0  0
   -1.6630   15.2790  -10.4060 H   0  0  0  0  0  0  0  0  0  0  0  0
   -3.2850   17.0630  -10.0110 H   0  0  0  0  0  0  0  0  0  0  0  0
   -3.4650   16.3840  -11.6780 H   0  0  0  0  0  0  0  0  0  0  0  0
   -0.7220   18.9190  -10.7180 H   0  0  0  0  0  0  0  0  0  0  0  0
   -1.5110   20.5600   -9.3030 H   0  0  0  0  0  0  0  0  0  0  0  0
   -2.2950   19.0940   -8.6920 H   0  0  0  0  0  0  0  0  0  0  0  0
   -3.4110   21.5820   -9.9290 H   0  0  0  0  0  0  0  0  0  0  0  0
   -4.1750   20.3860   -8.8760 H   0  0  0  0  0  0  0  0  0  0  0  0
   -6.6630   19.8770  -13.1850 H   0  0  0  0  0  0  0  0  0  0  0  0
   -4.7310   18.2230  -13.6010 H   0  0  0  0  0  0  0  0  0  0  0  0
   -2.2230   18.7870  -13.7110 H   0  0  0  0  0  0  0  0  0  0  0  0
   -0.7170   18.5710  -12.7780 H   0  0  0  0  0  0  0  0  0  0  0  0
   -1.0490   16.7270  -14.2260 H   0  0  0  0  0  0  0  0  0  0  0  0
   -2.6380   16.2800  -13.5160 H   0  0  0  0  0  0  0  0  0  0  0  0
  1  2  1  0  0  0  0
  2  3  1  0  0  0  0
  3  4  2  0  0  0  0
  3 28  1  0  0  0  0
  4 29  1  0  0  0  0
  5  8  1  0  0  0  0
  5  4  1  0  0  0  0
  6  5  2  0  0  0  0
  7  6  1  0  0  0  0
  7  2  2  0  0  0  0
  8 10  1  0  0  0  0
  9  8  2  0  0  0  0
 10 11  1  0  0  0  0
 10 32  1  0  0  0  0
 11 34  1  0  0  0  0
 12 14  1  0  0  0  0
 12 11  1  0  0  0  0
 13 12  2  0  0  0  0
 14 15  1  0  0  0  0
 15 36  1  0  0  0  0
 15 35  1  0  0  0  0
 16 15  1  0  0  0  0
 16 37  1  0  0  0  0
 17 16  1  0  0  0  0
 17 18  1  0  0  0  0
 18 19  1  0  0  0  0
 19 40  1  0  0  0  0
 19 41  1  0  0  0  0
 20 19  1  0  0  0  0
 20 43  1  0  0  0  0
 21 20  1  0  0  0  0
 22 21  1  0  0  0  0
 23 22  2  0  0  0  0
 24 23  1  0  0  0  0
 24 25  1  0  0  0  0
 25 17  1  0  0  0  0
 25 21  2  0  0  0  0
 26 47  1  0  0  0  0
 26 17  1  0  0  0  0
 27 26  1  0  0  0  0
 27 14  1  0  0  0  0
 30  6  1  0  0  0  0
 31  7  1  0  0  0  0
 33 11  1  0  0  0  0
 38 16  1  0  0  0  0
 39 18  1  0  0  0  0
 42 20  1  0  0  0  0
 44 23  1  0  0  0  0
 45 24  1  0  0  0  0
 46 26  1  0  0  0  0
 48 27  1  0  0  0  0
 49 27  1  0  0  0  0
M  END
>  <Pose>
1

>  <Score>
-6.20

$$$$
