
 OpenBabel03232203513D

 52 55  0  0  0  0  0  0  0  0999 V2000
    0.3070    5.6250  -12.2160 Cl  0  0  0  0  0  0  0  0  0  0  0  0
    0.5140    7.3170  -12.6250 C   0  0  0  0  0  0  0  0  0  0  0  0
    1.7370    7.9190  -12.3650 C   0  0  0  0  0  0  0  0  0  0  0  0
    1.9680    9.2530  -12.6640 C   0  0  0  0  0  0  0  0  0  0  0  0
    0.9660   10.0070  -13.2330 C   0  0  0  0  0  0  0  0  0  0  0  0
   -0.2520    9.3760  -13.4840 C   0  0  0  0  0  0  0  0  0  0  0  0
   -0.4970    8.0610  -13.1960 C   0  0  0  0  0  0  0  0  0  0  0  0
    1.1470   11.4160  -13.5720 C   0  0  0  0  0  0  0  0  0  0  0  0
    0.2430   11.9690  -14.2490 O   0  0  0  0  0  0  0  0  0  0  0  0
    2.2680   12.1450  -13.1740 N   0  0  0  0  0  0  0  0  0  0  0  0
    2.2940   13.0250  -12.0220 C   0  0  0  0  0  0  0  0  0  0  0  0
    1.0940   13.9190  -12.0460 C   0  0  0  0  0  0  0  0  0  0  0  0
    1.4380   15.3450  -11.8510 C   0  0  0  0  0  0  0  0  0  0  0  0
    2.6510   15.6610  -11.7980 O   0  0  0  0  0  0  0  0  0  0  0  0
    0.4350   16.3350  -11.7250 N   0  0  0  0  0  0  0  0  0  0  0  0
    0.0050   17.1670  -12.8300 C   0  0  0  0  0  0  0  0  0  0  0  0
   -0.3850   18.5240  -12.2620 C   0  0  0  0  0  0  0  0  0  0  0  0
   -1.5830   18.3820  -11.3240 C   0  0  0  0  0  0  0  0  0  0  0  0
   -1.4100   19.3540  -10.2830 N   0  0  0  0  0  0  0  0  0  0  0  0
   -2.6560   19.6630   -9.6160 C   0  0  0  0  0  0  0  0  0  0  0  0
   -3.5300   20.4720  -10.5710 C   0  0  0  0  0  0  0  0  0  0  0  0
   -3.7610   19.6020  -11.7610 C   0  0  0  0  0  0  0  0  0  0  0  0
   -4.7800   19.5580  -12.6700 N   0  0  0  0  0  0  0  0  0  0  0  0
   -4.5020   18.5830  -13.5540 C   0  0  0  0  0  0  0  0  0  0  0  0
   -3.3290   18.0270  -13.2010 N   0  0  0  0  0  0  0  0  0  0  0  0
   -2.8330   18.6380  -12.0850 C   0  0  0  0  0  0  0  0  0  0  0  0
   -1.6220   16.9990  -10.7100 C   0  0  0  0  0  0  0  0  0  0  0  0
   -0.2130   16.5540  -10.4470 C   0  0  0  0  0  0  0  0  0  0  0  0
    2.5200    7.3230  -11.9180 H   0  0  0  0  0  0  0  0  0  0  0  0
    2.9550    9.6980  -12.4420 H   0  0  0  0  0  0  0  0  0  0  0  0
   -1.0310    9.9770  -13.9300 H   0  0  0  0  0  0  0  0  0  0  0  0
   -1.4340    7.5680  -13.3850 H   0  0  0  0  0  0  0  0  0  0  0  0
    3.1670   12.0870  -13.7080 H   0  0  0  0  0  0  0  0  0  0  0  0
    3.1900   13.6730  -12.1410 H   0  0  0  0  0  0  0  0  0  0  0  0
    2.4040   12.4590  -11.0870 H   0  0  0  0  0  0  0  0  0  0  0  0
    0.5650   13.7960  -13.0370 H   0  0  0  0  0  0  0  0  0  0  0  0
    0.3740   13.5810  -11.2980 H   0  0  0  0  0  0  0  0  0  0  0  0
    0.8990   17.3680  -13.4800 H   0  0  0  0  0  0  0  0  0  0  0  0
   -0.7980   16.7250  -13.4150 H   0  0  0  0  0  0  0  0  0  0  0  0
    0.4550   19.0090  -11.7660 H   0  0  0  0  0  0  0  0  0  0  0  0
   -0.7210   19.1520  -13.1120 H   0  0  0  0  0  0  0  0  0  0  0  0
   -0.6960   19.0530   -9.5900 H   0  0  0  0  0  0  0  0  0  0  0  0
   -3.1950   18.7080   -9.4550 H   0  0  0  0  0  0  0  0  0  0  0  0
   -2.5230   20.1570   -8.6560 H   0  0  0  0  0  0  0  0  0  0  0  0
   -4.4670   20.7060  -10.0370 H   0  0  0  0  0  0  0  0  0  0  0  0
   -3.0120   21.3970  -10.8970 H   0  0  0  0  0  0  0  0  0  0  0  0
   -5.5960   20.2070  -12.6140 H   0  0  0  0  0  0  0  0  0  0  0  0
   -5.1530   18.3380  -14.3820 H   0  0  0  0  0  0  0  0  0  0  0  0
   -2.1740   16.9700   -9.7650 H   0  0  0  0  0  0  0  0  0  0  0  0
   -2.0840   16.2710  -11.4180 H   0  0  0  0  0  0  0  0  0  0  0  0
   -0.2680   15.6250   -9.8440 H   0  0  0  0  0  0  0  0  0  0  0  0
    0.3450   17.3200   -9.8530 H   0  0  0  0  0  0  0  0  0  0  0  0
  2  3  1  0  0  0  0
  2  1  1  0  0  0  0
  3 29  1  0  0  0  0
  4 30  1  0  0  0  0
  4  3  2  0  0  0  0
  5  4  1  0  0  0  0
  6  5  2  0  0  0  0
  6  7  1  0  0  0  0
  7  2  2  0  0  0  0
  8  5  1  0  0  0  0
  8 10  1  0  0  0  0
  9  8  2  0  0  0  0
 10 11  1  0  0  0  0
 11 35  1  0  0  0  0
 12 11  1  0  0  0  0
 12 13  1  0  0  0  0
 12 37  1  0  0  0  0
 13 14  2  0  0  0  0
 13 15  1  0  0  0  0
 15 28  1  0  0  0  0
 16 17  1  0  0  0  0
 16 15  1  0  0  0  0
 17 40  1  0  0  0  0
 17 18  1  0  0  0  0
 18 27  1  0  0  0  0
 18 19  1  0  0  0  0
 19 20  1  0  0  0  0
 19 42  1  0  0  0  0
 20 43  1  0  0  0  0
 20 44  1  0  0  0  0
 21 45  1  0  0  0  0
 21 20  1  0  0  0  0
 22 21  1  0  0  0  0
 23 47  1  0  0  0  0
 23 22  1  0  0  0  0
 24 25  2  0  0  0  0
 24 23  1  0  0  0  0
 25 26  1  0  0  0  0
 26 22  2  0  0  0  0
 26 18  1  0  0  0  0
 27 28  1  0  0  0  0
 27 49  1  0  0  0  0
 28 52  1  0  0  0  0
 28 51  1  0  0  0  0
 31  6  1  0  0  0  0
 32  7  1  0  0  0  0
 33 10  1  0  0  0  0
 34 11  1  0  0  0  0
 36 12  1  0  0  0  0
 38 16  1  0  0  0  0
 39 16  1  0  0  0  0
 41 17  1  0  0  0  0
 46 21  1  0  0  0  0
 48 24  1  0  0  0  0
 50 27  1  0  0  0  0
M  END
>  <Pose>
1

>  <Score>
-6.23

$$$$
