
 OpenBabel03232203513D

 41 44  0  0  1  0  0  0  0  0999 V2000
    1.4320    6.4130  -12.5620 Cl  0  0  0  0  0  0  0  0  0  0  0  0
    2.0730    7.8880  -13.2550 C   0  0  0  0  0  0  0  0  0  0  0  0
    1.2520    8.9800  -13.3960 C   0  0  0  0  0  0  0  0  0  0  0  0
   -0.0370    9.2340  -13.1140 N   0  0  0  0  0  0  0  0  0  0  0  0
   -0.3780   10.4930  -13.4500 C   0  0  0  0  0  0  0  0  0  0  0  0
    0.7660   11.0570  -13.9730 C   0  0  0  0  0  0  0  0  0  0  0  0
    1.7870   10.1320  -13.9470 C   0  0  0  0  0  0  0  0  0  0  0  0
    3.1120   10.1460  -14.3320 C   0  0  0  0  0  0  0  0  0  0  0  0
    3.9530    9.0690  -14.2020 C   0  0  0  0  0  0  0  0  0  0  0  0
    3.4110    7.9140  -13.6480 C   0  0  0  0  0  0  0  0  0  0  0  0
    0.6410   12.4670  -14.4200 C   0  0  0  0  0  0  0  0  0  0  0  0
    0.0500   13.1580  -13.2960 N   0  0  0  0  0  0  0  0  0  0  0  0
   -1.2800   12.7880  -13.0050 C   0  0  0  0  0  0  0  0  0  0  0  0
   -1.5730   11.3620  -13.4110 C   0  0  0  0  0  0  0  0  0  0  0  0
    0.4250   14.5010  -13.1640 C   0  0  0  0  0  0  0  0  0  0  0  0
    1.7440   14.6810  -12.4760 C   0  0  1  0  0  0  0  0  0  0  0  0
    1.6240   14.9110  -11.0090 C   0  0  0  0  0  0  0  0  0  0  0  0
    2.3790   13.9420  -10.2910 N   0  0  0  0  0  0  0  0  0  0  0  0
    2.9610   13.0220  -11.2130 C   0  0  0  0  0  0  0  0  0  0  0  0
    2.5210   13.3970  -12.5880 C   0  0  0  0  0  0  0  0  0  0  0  0
    2.5090   15.6710  -13.1050 O   0  0  0  0  0  0  0  0  0  0  0  0
   -0.7330    8.5630  -12.6830 H   0  0  0  0  0  0  0  0  0  0  0  0
    3.5030   11.0550  -14.7570 H   0  0  0  0  0  0  0  0  0  0  0  0
    4.9940    9.0860  -14.5060 H   0  0  0  0  0  0  0  0  0  0  0  0
    4.0590    7.0540  -13.5360 H   0  0  0  0  0  0  0  0  0  0  0  0
   -0.0620   12.4450  -15.3010 H   0  0  0  0  0  0  0  0  0  0  0  0
    1.5920   12.9430  -14.6500 H   0  0  0  0  0  0  0  0  0  0  0  0
   -1.4810   12.8310  -11.8970 H   0  0  0  0  0  0  0  0  0  0  0  0
   -2.0460   13.4200  -13.5260 H   0  0  0  0  0  0  0  0  0  0  0  0
   -2.3090   10.9120  -12.7090 H   0  0  0  0  0  0  0  0  0  0  0  0
   -2.0760   11.3330  -14.4110 H   0  0  0  0  0  0  0  0  0  0  0  0
   -0.3140   15.1620  -12.6680 H   0  0  0  0  0  0  0  0  0  0  0  0
    0.5480   14.9400  -14.1990 H   0  0  0  0  0  0  0  0  0  0  0  0
    1.8450   15.9570  -10.6910 H   0  0  0  0  0  0  0  0  0  0  0  0
    0.5410   14.7540  -10.7320 H   0  0  0  0  0  0  0  0  0  0  0  0
    3.0840   14.3540   -9.6350 H   0  0  0  0  0  0  0  0  0  0  0  0
    4.0620   12.9800  -11.0950 H   0  0  0  0  0  0  0  0  0  0  0  0
    2.5970   11.9780  -11.0240 H   0  0  0  0  0  0  0  0  0  0  0  0
    3.4580   13.5310  -13.1970 H   0  0  0  0  0  0  0  0  0  0  0  0
    1.9160   12.6030  -13.0850 H   0  0  0  0  0  0  0  0  0  0  0  0
    2.5220   16.4420  -12.4780 H   0  0  0  0  0  0  0  0  0  0  0  0
  2  1  1  0  0  0  0
  3  2  1  0  0  0  0
  3  4  1  0  0  0  0
  4 22  1  0  0  0  0
  5 14  1  0  0  0  0
  5  4  1  0  0  0  0
  6  7  1  0  0  0  0
  6  5  2  0  0  0  0
  7  3  2  0  0  0  0
  8  9  2  0  0  0  0
  8  7  1  0  0  0  0
  9 10  1  0  0  0  0
 10 25  1  0  0  0  0
 10  2  2  0  0  0  0
 11  6  1  0  0  0  0
 11 12  1  0  0  0  0
 12 15  1  0  0  0  0
 12 13  1  0  0  0  0
 13 28  1  0  0  0  0
 14 13  1  0  0  0  0
 14 30  1  0  0  0  0
 15 32  1  0  0  0  0
 15 16  1  0  0  0  0
 16 21  1  6  0  0  0
 16 17  1  0  0  0  0
 17 35  1  0  0  0  0
 17 34  1  0  0  0  0
 17 18  1  0  0  0  0
 18 36  1  0  0  0  0
 19 37  1  0  0  0  0
 19 38  1  0  0  0  0
 19 18  1  0  0  0  0
 20 16  1  0  0  0  0
 20 19  1  0  0  0  0
 21 41  1  0  0  0  0
 23  8  1  0  0  0  0
 24  9  1  0  0  0  0
 26 11  1  0  0  0  0
 27 11  1  0  0  0  0
 29 13  1  0  0  0  0
 31 14  1  0  0  0  0
 33 15  1  0  0  0  0
 39 20  1  0  0  0  0
 40 20  1  0  0  0  0
M  END
>  <Pose>
1

>  <Score>
-5.17

$$$$
