
 OpenBabel03232203513D

 43 46  0  0  0  0  0  0  0  0999 V2000
   -0.5250   16.5420  -12.1990 B   0  0  0  0  0  0  0  0  0  0  0  0
   -2.1190   17.5340  -12.5270 C   0  0  0  0  0  0  0  0  0  0  0  0
   -2.5750   18.4710  -11.5880 C   0  0  0  0  0  0  0  0  0  0  0  0
   -3.7250   19.1800  -11.8360 C   0  0  0  0  0  0  0  0  0  0  0  0
   -4.4050   18.9530  -13.0040 C   0  0  0  0  0  0  0  0  0  0  0  0
   -3.9580   18.0200  -13.9480 C   0  0  0  0  0  0  0  0  0  0  0  0
   -2.8070   17.3160  -13.6910 C   0  0  0  0  0  0  0  0  0  0  0  0
   -4.2020   20.1300  -10.8990 N   0  0  0  0  0  0  0  0  0  0  0  0
   -3.4800   20.7230   -9.9410 N   0  0  0  0  0  0  0  0  0  0  0  0
   -4.2290   21.5500   -9.2470 N   0  0  0  0  0  0  0  0  0  0  0  0
   -5.4800   21.5260   -9.7300 C   0  0  0  0  0  0  0  0  0  0  0  0
   -5.4430   20.6270  -10.7700 C   0  0  0  0  0  0  0  0  0  0  0  0
   -6.6480   22.2990   -9.2500 C   0  0  0  0  0  0  0  0  0  0  0  0
   -7.7770   21.9270   -9.7270 O   0  0  0  0  0  0  0  0  0  0  0  0
   -6.5750   23.3610   -8.3480 N   0  0  0  0  0  0  0  0  0  0  0  0
   -7.5670   24.3990   -8.3870 C   0  0  0  0  0  0  0  0  0  0  0  0
   -8.3730   24.3350   -7.1190 C   0  0  0  0  0  0  0  0  0  0  0  0
   -7.4900   24.1720   -5.9990 N   0  0  0  0  0  0  0  0  0  0  0  0
   -6.0690   24.4740   -6.2620 C   0  0  0  0  0  0  0  0  0  0  0  0
   -5.5540   23.5270   -7.3360 C   0  0  0  0  0  0  0  0  0  0  0  0
   -7.8140   23.7590   -4.7070 C   0  0  0  0  0  0  0  0  0  0  0  0
   -6.7980   23.5900   -3.9160 O   0  0  0  0  0  0  0  0  0  0  0  0
   -9.1100   23.4870   -4.0970 C   0  0  0  0  0  0  0  0  0  0  0  0
  -10.3860   23.5360   -4.8110 C   0  0  0  0  0  0  0  0  0  0  0  0
   -9.8600   22.2170   -4.2530 C   0  0  0  0  0  0  0  0  0  0  0  0
   -1.9780   18.5870  -10.6950 H   0  0  0  0  0  0  0  0  0  0  0  0
   -5.3130   19.4740  -13.2610 H   0  0  0  0  0  0  0  0  0  0  0  0
   -4.4880   17.8370  -14.8670 H   0  0  0  0  0  0  0  0  0  0  0  0
   -2.4530   16.5860  -14.4250 H   0  0  0  0  0  0  0  0  0  0  0  0
   -6.2890   20.3630  -11.3860 H   0  0  0  0  0  0  0  0  0  0  0  0
   -8.1920   24.3710   -9.2980 H   0  0  0  0  0  0  0  0  0  0  0  0
   -7.0060   25.3600   -8.4500 H   0  0  0  0  0  0  0  0  0  0  0  0
   -9.0140   25.2510   -7.0120 H   0  0  0  0  0  0  0  0  0  0  0  0
   -9.0500   23.4580   -7.1410 H   0  0  0  0  0  0  0  0  0  0  0  0
   -6.0230   25.5330   -6.5410 H   0  0  0  0  0  0  0  0  0  0  0  0
   -5.5170   24.2590   -5.3450 H   0  0  0  0  0  0  0  0  0  0  0  0
   -5.2700   22.5580   -6.9230 H   0  0  0  0  0  0  0  0  0  0  0  0
   -4.6840   24.0010   -7.8050 H   0  0  0  0  0  0  0  0  0  0  0  0
   -9.1850   23.8410   -2.9990 H   0  0  0  0  0  0  0  0  0  0  0  0
  -11.3070   23.9440   -4.2800 H   0  0  0  0  0  0  0  0  0  0  0  0
  -10.5090   23.5980   -5.9030 H   0  0  0  0  0  0  0  0  0  0  0  0
   -9.6100   21.4090   -4.9200 H   0  0  0  0  0  0  0  0  0  0  0  0
  -10.4410   21.8270   -3.3590 H   0  0  0  0  0  0  0  0  0  0  0  0
  2  1  1  0  0  0  0
  2  3  1  0  0  0  0
  3 26  1  0  0  0  0
  4  3  2  0  0  0  0
  4  8  1  0  0  0  0
  5  4  1  0  0  0  0
  6  7  1  0  0  0  0
  6  5  2  0  0  0  0
  7  2  2  0  0  0  0
  8 12  1  0  0  0  0
  8  9  1  0  0  0  0
  9 10  2  0  0  0  0
 11 13  1  0  0  0  0
 11 10  1  0  0  0  0
 12 11  2  0  0  0  0
 13 15  1  0  0  0  0
 14 13  2  0  0  0  0
 15 20  1  0  0  0  0
 16 15  1  0  0  0  0
 16 17  1  0  0  0  0
 17 33  1  0  0  0  0
 17 18  1  0  0  0  0
 18 21  1  0  0  0  0
 19 18  1  0  0  0  0
 19 36  1  0  0  0  0
 20 37  1  0  0  0  0
 20 19  1  0  0  0  0
 21 23  1  0  0  0  0
 21 22  2  0  0  0  0
 23 39  1  0  0  0  0
 24 40  1  0  0  0  0
 24 25  1  0  0  0  0
 24 23  1  0  0  0  0
 25 23  1  0  0  0  0
 25 43  1  0  0  0  0
 27  5  1  0  0  0  0
 28  6  1  0  0  0  0
 29  7  1  0  0  0  0
 30 12  1  0  0  0  0
 31 16  1  0  0  0  0
 32 16  1  0  0  0  0
 34 17  1  0  0  0  0
 35 19  1  0  0  0  0
 38 20  1  0  0  0  0
 41 24  1  0  0  0  0
 42 25  1  0  0  0  0
M  END
>  <Pose>
1

>  <Score>
-5.84

$$$$
