
 OpenBabel03232203513D

 46 49  0  0  1  0  0  0  0  0999 V2000
    1.6690    6.8730  -12.1530 Cl  0  0  0  0  0  0  0  0  0  0  0  0
    1.8540    8.3350  -13.0840 C   0  0  0  0  0  0  0  0  0  0  0  0
    3.0100    8.5140  -13.8080 C   0  0  0  0  0  0  0  0  0  0  0  0
    3.1410    9.6710  -14.5360 C   0  0  0  0  0  0  0  0  0  0  0  0
    2.1090   10.6210  -14.5210 C   0  0  0  0  0  0  0  0  0  0  0  0
    0.9500   10.4820  -13.8190 C   0  0  0  0  0  0  0  0  0  0  0  0
    0.8720    9.2710  -13.0880 C   0  0  0  0  0  0  0  0  0  0  0  0
   -0.1400   11.4190  -13.7620 C   0  0  1  0  0  0  0  0  0  0  0  0
   -1.1650   11.0030  -13.0450 O   0  0  0  0  0  0  0  0  0  0  0  0
   -0.3150   12.7280  -14.3450 C   0  0  0  0  0  0  0  0  0  0  0  0
   -0.3030   13.9070  -13.5470 N   0  0  0  0  0  0  0  0  0  0  0  0
    0.6260   14.2280  -12.5930 C   0  0  1  0  0  0  0  0  0  0  0  0
    0.2320   15.3870  -12.0600 N   0  0  0  0  0  0  0  0  0  0  0  0
   -0.9040   15.8420  -12.6170 C   0  0  0  0  0  0  0  0  0  0  0  0
   -1.2410   14.8930  -13.5660 C   0  0  0  0  0  0  0  0  0  0  0  0
   -1.6580   17.0600  -12.3240 C   0  0  0  0  0  0  0  0  0  0  0  0
   -2.6980   17.5360  -13.0810 C   0  0  0  0  0  0  0  0  0  0  0  0
   -3.3750   18.7140  -12.7350 C   0  0  0  0  0  0  0  0  0  0  0  0
   -3.0320   19.4500  -11.6230 C   0  0  0  0  0  0  0  0  0  0  0  0
   -1.9880   18.9810  -10.8560 C   0  0  0  0  0  0  0  0  0  0  0  0
   -1.3240   17.8210  -11.1990 C   0  0  0  0  0  0  0  0  0  0  0  0
   -3.6940   20.6180  -11.2680 O   0  0  0  0  0  0  0  0  0  0  0  0
   -4.3090   20.7380   -9.9980 C   0  0  0  0  0  0  0  0  0  0  0  0
    1.1680   15.8130  -11.0250 C   0  0  0  0  0  0  0  0  0  0  0  0
    2.2770   14.8030  -11.0550 C   0  0  0  0  0  0  0  0  0  0  0  0
    1.8770   13.7140  -11.9850 C   0  0  0  0  0  0  0  0  0  0  0  0
    4.2940    7.3280  -13.8240 Cl  0  0  0  0  0  0  0  0  0  0  0  0
    4.0370    9.8160  -15.1010 H   0  0  0  0  0  0  0  0  0  0  0  0
    2.3090   11.4730  -15.1160 H   0  0  0  0  0  0  0  0  0  0  0  0
   -0.0130    9.0810  -12.5040 H   0  0  0  0  0  0  0  0  0  0  0  0
    0.4490   12.8930  -15.2020 H   0  0  0  0  0  0  0  0  0  0  0  0
   -1.2840   12.7460  -14.9840 H   0  0  0  0  0  0  0  0  0  0  0  0
   -2.1040   14.9090  -14.2280 H   0  0  0  0  0  0  0  0  0  0  0  0
   -2.9960   16.9960  -13.9540 H   0  0  0  0  0  0  0  0  0  0  0  0
   -4.1940   19.0800  -13.3400 H   0  0  0  0  0  0  0  0  0  0  0  0
   -1.7030   19.5510   -9.9720 H   0  0  0  0  0  0  0  0  0  0  0  0
   -0.4980   17.4540  -10.5880 H   0  0  0  0  0  0  0  0  0  0  0  0
   -3.4800   20.8180   -9.2480 H   0  0  0  0  0  0  0  0  0  0  0  0
   -4.9200   21.6620   -9.9720 H   0  0  0  0  0  0  0  0  0  0  0  0
   -4.9070   19.8320   -9.7580 H   0  0  0  0  0  0  0  0  0  0  0  0
    1.6360   16.8010  -11.2550 H   0  0  0  0  0  0  0  0  0  0  0  0
    0.6590   15.8610  -10.0430 H   0  0  0  0  0  0  0  0  0  0  0  0
    3.2480   15.2340  -11.4000 H   0  0  0  0  0  0  0  0  0  0  0  0
    2.4230   14.4400   -9.9970 H   0  0  0  0  0  0  0  0  0  0  0  0
    2.6250   13.4850  -12.7690 H   0  0  0  0  0  0  0  0  0  0  0  0
    1.7020   12.7640  -11.4200 H   0  0  0  0  0  0  0  0  0  0  0  0
  2  1  1  0  0  0  0
  3  2  2  0  0  0  0
  4  5  2  0  0  0  0
  4  3  1  0  0  0  0
  5  6  1  0  0  0  0
  6  8  1  0  0  0  0
  6  7  2  0  0  0  0
  7  2  1  0  0  0  0
  7 30  1  0  0  0  0
  8  9  1  1  0  0  0
 10  8  1  0  0  0  0
 10 11  1  0  0  0  0
 12 11  1  1  0  0  0
 12 13  1  0  0  0  0
 12 26  1  0  0  0  0
 13 24  1  0  0  0  0
 14 16  1  0  0  0  0
 14 13  1  0  0  0  0
 15 11  1  0  0  0  0
 15 14  2  0  0  0  0
 16 21  1  0  0  0  0
 17 18  1  0  0  0  0
 17 16  2  0  0  0  0
 18 19  2  0  0  0  0
 19 22  1  0  0  0  0
 19 20  1  0  0  0  0
 20 36  1  0  0  0  0
 21 20  2  0  0  0  0
 21 37  1  0  0  0  0
 22 23  1  0  0  0  0
 23 39  1  0  0  0  0
 23 40  1  0  0  0  0
 23 38  1  0  0  0  0
 24 42  1  0  0  0  0
 25 24  1  0  0  0  0
 25 44  1  0  0  0  0
 26 46  1  0  0  0  0
 26 25  1  0  0  0  0
 27  3  1  0  0  0  0
 28  4  1  0  0  0  0
 29  5  1  0  0  0  0
 31 10  1  0  0  0  0
 32 10  1  0  0  0  0
 33 15  1  0  0  0  0
 34 17  1  0  0  0  0
 35 18  1  0  0  0  0
 41 24  1  0  0  0  0
 43 25  1  0  0  0  0
 45 26  1  0  0  0  0
M  END
>  <Pose>
1

>  <Score>
-6.89

$$$$
