
 OpenBabel03232203513D

 44 47  0  0  1  0  0  0  0  0999 V2000
    0.0370    7.1240  -14.1960 Cl  0  0  0  0  0  0  0  0  0  0  0  0
    1.0200    8.5710  -14.2710 C   0  0  0  0  0  0  0  0  0  0  0  0
    2.2440    8.4960  -14.8680 C   0  0  0  0  0  0  0  0  0  0  0  0
    3.0380    9.6170  -14.9400 C   0  0  0  0  0  0  0  0  0  0  0  0
    2.5700   10.8160  -14.3970 C   0  0  0  0  0  0  0  0  0  0  0  0
    1.3360   10.8990  -13.7930 C   0  0  0  0  0  0  0  0  0  0  0  0
    0.5680    9.7720  -13.7340 C   0  0  0  0  0  0  0  0  0  0  0  0
    0.9170   12.1830  -13.2310 C   0  0  0  0  0  0  0  0  0  0  0  0
    1.6240   13.1080  -12.5300 N   0  0  0  0  0  0  0  0  0  0  0  0
    0.8250   14.1330  -12.2170 C   0  0  2  0  0  0  0  0  0  0  0  0
   -0.4350   13.9080  -12.7030 N   0  0  0  0  0  0  0  0  0  0  0  0
   -0.3610   12.7160  -13.3190 C   0  0  0  0  0  0  0  0  0  0  0  0
   -1.5620   14.7900  -12.6140 C   0  0  0  0  0  0  0  0  0  0  0  0
   -1.5160   16.1530  -13.0680 C   0  0  2  0  0  0  0  0  0  0  0  0
   -0.5260   16.3840  -13.9250 O   0  0  0  0  0  0  0  0  0  0  0  0
   -2.3060   17.3270  -12.8000 C   0  0  0  0  0  0  0  0  0  0  0  0
   -2.1140   18.0410  -11.5950 C   0  0  0  0  0  0  0  0  0  0  0  0
   -2.8150   19.1680  -11.2530 C   0  0  0  0  0  0  0  0  0  0  0  0
   -3.7590   19.6080  -12.1590 C   0  0  0  0  0  0  0  0  0  0  0  0
   -3.9650   18.9300  -13.3400 C   0  0  0  0  0  0  0  0  0  0  0  0
   -3.2480   17.7820  -13.6830 C   0  0  0  0  0  0  0  0  0  0  0  0
   -2.6080   19.8680  -10.0410 N   0  0  0  0  0  0  0  0  0  0  0  0
   -3.4020   20.7550   -9.7100 O   0  0  0  0  0  0  0  0  0  0  0  0
   -1.5520   19.5920   -9.2210 O   0  0  0  0  0  0  0  0  0  0  0  0
    1.5620   15.1700  -11.4610 C   0  0  0  0  0  0  0  0  0  0  0  0
    2.7170   14.3790  -10.9120 C   0  0  0  0  0  0  0  0  0  0  0  0
    2.9630   13.3540  -11.9950 C   0  0  0  0  0  0  0  0  0  0  0  0
    2.8540    6.9910  -15.5590 Cl  0  0  0  0  0  0  0  0  0  0  0  0
    3.9960    9.5380  -15.4130 H   0  0  0  0  0  0  0  0  0  0  0  0
    3.2400   11.6600  -14.4860 H   0  0  0  0  0  0  0  0  0  0  0  0
   -0.4040    9.7270  -13.2760 H   0  0  0  0  0  0  0  0  0  0  0  0
   -1.2090   12.2360  -13.8200 H   0  0  0  0  0  0  0  0  0  0  0  0
   -2.4300   14.2200  -13.0930 H   0  0  0  0  0  0  0  0  0  0  0  0
   -1.8570   14.7550  -11.5120 H   0  0  0  0  0  0  0  0  0  0  0  0
   -1.3700   17.6960  -10.8770 H   0  0  0  0  0  0  0  0  0  0  0  0
   -4.3220   20.5000  -11.8990 H   0  0  0  0  0  0  0  0  0  0  0  0
   -4.7160   19.2880  -14.0520 H   0  0  0  0  0  0  0  0  0  0  0  0
   -3.4780   17.3270  -14.6230 H   0  0  0  0  0  0  0  0  0  0  0  0
    0.9880   15.5670  -10.6070 H   0  0  0  0  0  0  0  0  0  0  0  0
    1.9310   15.9960  -12.1270 H   0  0  0  0  0  0  0  0  0  0  0  0
    2.3570   13.8810   -9.9860 H   0  0  0  0  0  0  0  0  0  0  0  0
    3.6230   14.9950  -10.7290 H   0  0  0  0  0  0  0  0  0  0  0  0
    3.6250   13.8260  -12.7510 H   0  0  0  0  0  0  0  0  0  0  0  0
    3.4170   12.4330  -11.5510 H   0  0  0  0  0  0  0  0  0  0  0  0
  2  1  1  0  0  0  0
  2  7  1  0  0  0  0
  3  2  2  0  0  0  0
  4  3  1  0  0  0  0
  4  5  2  0  0  0  0
  5  6  1  0  0  0  0
  6  7  2  0  0  0  0
  6  8  1  0  0  0  0
  7 31  1  0  0  0  0
  8  9  1  0  0  0  0
  9 10  1  0  0  0  0
  9 27  1  0  0  0  0
 10 11  1  6  0  0  0
 10 25  1  0  0  0  0
 11 13  1  0  0  0  0
 12  8  2  0  0  0  0
 12 11  1  0  0  0  0
 13 34  1  0  0  0  0
 14 15  1  1  0  0  0
 14 16  1  0  0  0  0
 14 13  1  0  0  0  0
 16 17  1  0  0  0  0
 17 18  2  0  0  0  0
 17 35  1  0  0  0  0
 18 22  1  0  0  0  0
 19 36  1  0  0  0  0
 19 18  1  0  0  0  0
 20 19  2  0  0  0  0
 21 20  1  0  0  0  0
 21 16  2  0  0  0  0
 22 23  2  0  0  0  0
 22 24  2  0  0  0  0
 25 26  1  0  0  0  0
 25 39  1  0  0  0  0
 26 42  1  0  0  0  0
 26 41  1  0  0  0  0
 27 44  1  0  0  0  0
 27 26  1  0  0  0  0
 28  3  1  0  0  0  0
 29  4  1  0  0  0  0
 30  5  1  0  0  0  0
 32 12  1  0  0  0  0
 33 13  1  0  0  0  0
 37 20  1  0  0  0  0
 38 21  1  0  0  0  0
 40 25  1  0  0  0  0
 43 27  1  0  0  0  0
M  END
>  <Pose>
1

>  <Score>
-6.49

$$$$
