
 OpenBabel03232203513D

 39 42  0  0  1  0  0  0  0  0999 V2000
    6.0280    5.3390  -13.1760 B   0  0  0  0  0  0  0  0  0  0  0  0
    4.4430    6.3980  -13.3250 C   0  0  0  0  0  0  0  0  0  0  0  0
    4.4340    7.5410  -14.1320 C   0  0  0  0  0  0  0  0  0  0  0  0
    3.2930    8.3130  -14.2510 C   0  0  0  0  0  0  0  0  0  0  0  0
    2.1730    7.9170  -13.5490 C   0  0  0  0  0  0  0  0  0  0  0  0
    2.1890    6.7800  -12.7510 C   0  0  0  0  0  0  0  0  0  0  0  0
    3.3250    6.0140  -12.6350 C   0  0  0  0  0  0  0  0  0  0  0  0
    0.5950    6.2710  -11.7980 B   0  0  0  0  0  0  0  0  0  0  0  0
    3.2580    9.5550  -15.1060 C   0  0  1  0  0  0  0  0  0  0  0  0
    2.3890    9.3390  -16.2010 N   0  0  0  0  0  4  0  0  0  0  0  0
    1.4240   10.3630  -16.4750 C   0  0  2  0  0  0  0  0  0  0  0  0
    0.6130   10.6410  -15.1980 C   0  0  0  0  0  0  0  0  0  0  0  0
    1.6120   11.1850  -14.2590 C   0  0  0  0  0  0  0  0  0  0  0  0
    1.5370   12.2090  -13.3290 C   0  0  0  0  0  0  0  0  0  0  0  0
    2.7780   12.2890  -12.7360 C   0  0  0  0  0  0  0  0  0  0  0  0
    3.5890   11.3620  -13.2670 N   0  0  0  0  0  0  0  0  0  0  0  0
    2.8710   10.6720  -14.2140 C   0  0  0  0  0  0  0  0  0  0  0  0
    2.9650   13.2500  -11.7590 C   0  0  0  0  0  0  0  0  0  0  0  0
    1.9180   14.0730  -11.4260 C   0  0  0  0  0  0  0  0  0  0  0  0
    0.6790   13.9910  -12.0210 C   0  0  0  0  0  0  0  0  0  0  0  0
    0.4760   13.0270  -13.0060 C   0  0  0  0  0  0  0  0  0  0  0  0
    0.5370    9.9330  -17.5760 C   0  0  0  0  0  0  0  0  0  0  0  0
    0.0880   10.8000  -18.3700 O   0  0  0  0  0  0  0  0  0  0  0  0
    0.2180    8.5930  -17.7130 O   0  0  0  0  0  0  0  0  0  0  0  0
    5.6060    7.8320  -14.7790 O   0  0  0  0  0  0  0  0  0  0  0  0
    1.2440    8.4870  -13.6020 H   0  0  0  0  0  0  0  0  0  0  0  0
    3.3480    5.1200  -12.0130 H   0  0  0  0  0  0  0  0  0  0  0  0
    4.3280    9.7080  -15.4260 H   0  0  0  0  0  0  0  0  0  0  0  0
    2.9950    9.2430  -17.0780 H   0  0  0  0  0  0  0  0  0  0  0  0
    1.8570    8.4340  -16.1580 H   0  0  0  0  0  0  0  0  0  0  0  0
    1.9750   11.2930  -16.7410 H   0  0  0  0  0  0  0  0  0  0  0  0
   -0.1940   11.3650  -15.4330 H   0  0  0  0  0  0  0  0  0  0  0  0
    0.2120    9.6550  -14.9010 H   0  0  0  0  0  0  0  0  0  0  0  0
    4.5960   11.1530  -13.0410 H   0  0  0  0  0  0  0  0  0  0  0  0
    3.9430   13.3170  -11.2870 H   0  0  0  0  0  0  0  0  0  0  0  0
    2.0760   14.8310  -10.6510 H   0  0  0  0  0  0  0  0  0  0  0  0
   -0.1570   14.6530  -11.7510 H   0  0  0  0  0  0  0  0  0  0  0  0
   -0.4720   12.9110  -13.5130 H   0  0  0  0  0  0  0  0  0  0  0  0
    5.8140    8.6500  -15.2840 H   0  0  0  0  0  0  0  0  0  0  0  0
  2  1  1  0  0  0  0
  2  7  1  0  0  0  0
  3  2  2  0  0  0  0
  4  3  1  0  0  0  0
  4  5  2  0  0  0  0
  5  6  1  0  0  0  0
  6  7  2  0  0  0  0
  6  8  1  0  0  0  0
  7 27  1  0  0  0  0
  9 28  1  6  0  0  0
  9  4  1  0  0  0  0
  9 17  1  0  0  0  0
 10 30  1  0  0  0  0
 10  9  1  0  0  0  0
 11 31  1  6  0  0  0
 11 10  1  0  0  0  0
 11 12  1  0  0  0  0
 12 33  1  0  0  0  0
 12 13  1  0  0  0  0
 13 17  2  0  0  0  0
 13 14  1  0  0  0  0
 14 21  2  0  0  0  0
 14 15  1  0  0  0  0
 15 18  2  0  0  0  0
 16 34  1  0  0  0  0
 16 15  1  0  0  0  0
 17 16  1  0  0  0  0
 18 19  1  0  0  0  0
 18 35  1  0  0  0  0
 19 36  1  0  0  0  0
 20 37  1  0  0  0  0
 20 19  2  0  0  0  0
 21 20  1  0  0  0  0
 22 11  1  0  0  0  0
 23 22  2  0  0  0  0
 24 22  1  0  0  0  0
 25  3  1  0  0  0  0
 26  5  1  0  0  0  0
 29 10  1  0  0  0  0
 32 12  1  0  0  0  0
 38 21  1  0  0  0  0
 39 25  1  0  0  0  0
M  END
>  <Pose>
1

>  <Score>
-3.94

$$$$
