
 OpenBabel03232203513D

 46 49  0  0  1  0  0  0  0  0999 V2000
   -2.2490   19.7310  -10.1520 B   0  0  0  0  0  0  0  0  0  0  0  0
   -1.7610   18.3060  -11.3550 C   0  0  0  0  0  0  0  0  0  0  0  0
   -0.8070   17.3800  -11.0050 C   0  0  0  0  0  0  0  0  0  0  0  0
   -0.4460   16.3780  -11.8190 N   0  0  0  0  0  0  0  0  0  0  0  0
   -1.0180   16.2340  -13.0410 C   0  0  0  0  0  0  0  0  0  0  0  0
   -0.6940   15.2530  -13.8880 N   0  0  0  0  0  0  0  0  0  0  0  0
    0.2360   14.3270  -13.5830 C   0  0  0  0  0  0  0  0  0  0  0  0
    0.8400   14.4420  -12.3470 C   0  0  0  0  0  0  0  0  0  0  0  0
    0.4960   15.4600  -11.4810 C   0  0  0  0  0  0  0  0  0  0  0  0
    1.0230   15.6010  -10.3420 O   0  0  0  0  0  0  0  0  0  0  0  0
    0.6160   13.2280  -14.5010 C   0  0  0  0  0  0  0  0  0  0  0  0
   -0.0480   12.0280  -14.2170 O   0  0  0  0  0  0  0  0  0  0  0  0
   -1.0050   11.8540  -13.2440 C   0  0  0  0  0  0  0  0  0  0  0  0
   -1.8600   12.7790  -13.1400 O   0  0  0  0  0  0  0  0  0  0  0  0
   -1.0460   10.6590  -12.3590 C   0  0  0  0  0  0  0  0  0  0  0  0
   -0.3250    9.5300  -12.9490 N   0  0  0  0  0  0  0  0  0  0  0  0
    1.0870    9.3550  -13.0330 C   0  0  0  0  0  0  0  0  0  0  0  0
    1.9580   10.0540  -12.4570 O   0  0  0  0  0  0  0  0  0  0  0  0
    1.3490    8.2000  -13.9220 C   0  0  2  0  0  0  0  0  0  0  0  0
    0.1260    7.3570  -13.6420 C   0  0  1  0  0  0  0  0  0  0  0  0
    0.2000    6.6340  -12.3110 C   0  0  0  0  0  0  0  0  0  0  0  0
    1.5430    6.7640  -11.6430 C   0  0  0  0  0  0  0  0  0  0  0  0
    2.6590    6.5020  -12.6130 C   0  0  0  0  0  0  0  0  0  0  0  0
    2.6380    7.5230  -13.6950 C   0  0  0  0  0  0  0  0  0  0  0  0
   -0.9230    8.4000  -13.5590 C   0  0  0  0  0  0  0  0  0  0  0  0
   -2.1290    8.3210  -13.9500 O   0  0  0  0  0  0  0  0  0  0  0  0
   -1.9900   17.1530  -13.4310 C   0  0  0  0  0  0  0  0  0  0  0  0
   -2.3520   18.1800  -12.5850 C   0  0  0  0  0  0  0  0  0  0  0  0
   -0.3400   17.4750  -10.0410 H   0  0  0  0  0  0  0  0  0  0  0  0
    1.6040   13.7400  -12.0080 H   0  0  0  0  0  0  0  0  0  0  0  0
    0.3380   13.5500  -15.5240 H   0  0  0  0  0  0  0  0  0  0  0  0
    1.7210   13.0860  -14.3870 H   0  0  0  0  0  0  0  0  0  0  0  0
   -0.6140   10.8480  -11.3660 H   0  0  0  0  0  0  0  0  0  0  0  0
   -2.1100   10.3920  -12.2170 H   0  0  0  0  0  0  0  0  0  0  0  0
    1.2600    8.5530  -14.9650 H   0  0  0  0  0  0  0  0  0  0  0  0
   -0.0710    6.6400  -14.4730 H   0  0  0  0  0  0  0  0  0  0  0  0
   -0.0140    5.5390  -12.4400 H   0  0  0  0  0  0  0  0  0  0  0  0
   -0.5630    6.9880  -11.6010 H   0  0  0  0  0  0  0  0  0  0  0  0
    1.6060    5.9410  -10.8760 H   0  0  0  0  0  0  0  0  0  0  0  0
    1.6750    7.6960  -11.0790 H   0  0  0  0  0  0  0  0  0  0  0  0
    2.5290    5.4590  -12.9890 H   0  0  0  0  0  0  0  0  0  0  0  0
    3.6130    6.5030  -12.0300 H   0  0  0  0  0  0  0  0  0  0  0  0
    2.9300    7.0010  -14.6540 H   0  0  0  0  0  0  0  0  0  0  0  0
    3.4260    8.2960  -13.5520 H   0  0  0  0  0  0  0  0  0  0  0  0
   -2.4470   17.0460  -14.3940 H   0  0  0  0  0  0  0  0  0  0  0  0
   -3.1030   18.8970  -12.8730 H   0  0  0  0  0  0  0  0  0  0  0  0
  2  3  1  0  0  0  0
  2  1  1  0  0  0  0
  3 29  1  0  0  0  0
  4  9  1  0  0  0  0
  4  3  1  0  0  0  0
  5  4  1  0  0  0  0
  6  7  2  0  0  0  0
  6  5  1  0  0  0  0
  7  8  1  0  0  0  0
  8 30  1  0  0  0  0
  8  9  1  0  0  0  0
  9 10  2  0  0  0  0
 11 32  1  0  0  0  0
 11 12  1  0  0  0  0
 11  7  1  0  0  0  0
 12 13  1  0  0  0  0
 13 14  2  0  0  0  0
 13 15  1  0  0  0  0
 15 34  1  0  0  0  0
 15 33  1  0  0  0  0
 16 15  1  0  0  0  0
 17 16  1  0  0  0  0
 17 18  2  0  0  0  0
 19 35  1  6  0  0  0
 19 24  1  0  0  0  0
 19 20  1  0  0  0  0
 19 17  1  0  0  0  0
 20 36  1  6  0  0  0
 20 25  1  0  0  0  0
 20 21  1  0  0  0  0
 21 22  1  0  0  0  0
 21 38  1  0  0  0  0
 22 40  1  0  0  0  0
 22 39  1  0  0  0  0
 23 42  1  0  0  0  0
 23 22  1  0  0  0  0
 24 44  1  0  0  0  0
 24 23  1  0  0  0  0
 25 16  1  0  0  0  0
 26 25  2  0  0  0  0
 27  5  2  0  0  0  0
 27 28  1  0  0  0  0
 28  2  2  0  0  0  0
 31 11  1  0  0  0  0
 37 21  1  0  0  0  0
 41 23  1  0  0  0  0
 43 24  1  0  0  0  0
 45 27  1  0  0  0  0
 46 28  1  0  0  0  0
M  END
>  <Pose>
1

>  <Score>
-4.89

$$$$
