
 OpenBabel03232203513D

 56 59  0  0  0  0  0  0  0  0999 V2000
   -0.8230   16.4030  -14.1390 Cl  0  0  0  0  0  0  0  0  0  0  0  0
   -1.9700   17.3700  -13.2840 C   0  0  0  0  0  0  0  0  0  0  0  0
   -1.6980   17.7270  -11.9810 C   0  0  0  0  0  0  0  0  0  0  0  0
   -2.6630   18.5090  -11.3500 C   0  0  0  0  0  0  0  0  0  0  0  0
   -3.8190   18.8940  -12.0000 C   0  0  0  0  0  0  0  0  0  0  0  0
   -4.0470   18.5140  -13.2960 C   0  0  0  0  0  0  0  0  0  0  0  0
   -3.1240   17.7520  -13.9410 C   0  0  0  0  0  0  0  0  0  0  0  0
   -0.5460   17.3610  -11.2820 N   0  0  0  0  0  0  0  0  0  0  0  0
   -0.4310   16.2530  -10.3590 C   0  0  0  0  0  0  0  0  0  0  0  0
    1.0490   15.9240  -10.1810 C   0  0  0  0  0  0  0  0  0  0  0  0
    1.7210   16.0110  -11.4680 N   0  0  0  0  0  0  0  0  0  0  0  0
    1.6540   17.2560  -12.1970 C   0  0  0  0  0  0  0  0  0  0  0  0
    0.6720   18.1590  -11.4880 C   0  0  0  0  0  0  0  0  0  0  0  0
    2.4340   14.9080  -12.0140 C   0  0  0  0  0  0  0  0  0  0  0  0
    2.9760   15.0500  -13.1540 O   0  0  0  0  0  0  0  0  0  0  0  0
    2.5840   13.6120  -11.3430 C   0  0  0  0  0  0  0  0  0  0  0  0
    2.2900   12.4710  -12.2080 N   0  0  0  0  0  0  0  0  0  0  0  0
    2.9790   11.3630  -12.3940 N   0  0  0  0  0  0  0  0  0  0  0  0
    2.4020   10.5330  -13.2650 C   0  0  0  0  0  0  0  0  0  0  0  0
    1.2390   11.1550  -13.6800 C   0  0  0  0  0  0  0  0  0  0  0  0
    1.1940   12.3570  -13.0090 C   0  0  0  0  0  0  0  0  0  0  0  0
    0.1170   13.3590  -13.1440 C   0  0  0  0  0  0  0  0  0  0  0  0
    2.9030    9.2150  -13.6970 C   0  0  0  0  0  0  0  0  0  0  0  0
    3.9760    9.1280  -14.3280 O   0  0  0  0  0  0  0  0  0  0  0  0
    2.1510    8.0620  -13.3810 N   0  0  0  0  0  0  0  0  0  0  0  0
    2.6610    6.9530  -12.6250 C   0  0  0  0  0  0  0  0  0  0  0  0
    1.4760    6.0070  -12.3940 C   0  0  0  0  0  0  0  0  0  0  0  0
    0.4080    6.6750  -11.8370 O   0  0  0  0  0  0  0  0  0  0  0  0
   -0.0980    7.6820  -12.6240 C   0  0  0  0  0  0  0  0  0  0  0  0
    0.7620    7.9610  -13.8390 C   0  0  0  0  0  0  0  0  0  0  0  0
   -2.5340   18.8320  -10.3370 H   0  0  0  0  0  0  0  0  0  0  0  0
   -4.5610   19.5010  -11.4960 H   0  0  0  0  0  0  0  0  0  0  0  0
   -4.9720   18.8270  -13.8040 H   0  0  0  0  0  0  0  0  0  0  0  0
   -3.2920   17.4400  -14.9790 H   0  0  0  0  0  0  0  0  0  0  0  0
   -0.8240   16.4810   -9.3570 H   0  0  0  0  0  0  0  0  0  0  0  0
   -0.8800   15.3410  -10.8040 H   0  0  0  0  0  0  0  0  0  0  0  0
    1.0980   14.8640   -9.8590 H   0  0  0  0  0  0  0  0  0  0  0  0
    1.5220   16.5840   -9.4280 H   0  0  0  0  0  0  0  0  0  0  0  0
    2.6460   17.7310  -12.3200 H   0  0  0  0  0  0  0  0  0  0  0  0
    1.1870   17.0560  -13.2010 H   0  0  0  0  0  0  0  0  0  0  0  0
    1.0820   18.3940  -10.4730 H   0  0  0  0  0  0  0  0  0  0  0  0
    0.4550   19.0810  -12.0660 H   0  0  0  0  0  0  0  0  0  0  0  0
    1.9660   13.5390  -10.4260 H   0  0  0  0  0  0  0  0  0  0  0  0
    3.6440   13.5030  -11.0410 H   0  0  0  0  0  0  0  0  0  0  0  0
    0.5240   10.7650  -14.3860 H   0  0  0  0  0  0  0  0  0  0  0  0
   -0.8620   12.8900  -12.9290 H   0  0  0  0  0  0  0  0  0  0  0  0
    0.2710   14.1900  -12.4300 H   0  0  0  0  0  0  0  0  0  0  0  0
    0.1370   13.8090  -14.1690 H   0  0  0  0  0  0  0  0  0  0  0  0
    3.0550    7.2840  -11.6420 H   0  0  0  0  0  0  0  0  0  0  0  0
    3.4410    6.3750  -13.1310 H   0  0  0  0  0  0  0  0  0  0  0  0
    1.2400    5.4510  -13.3150 H   0  0  0  0  0  0  0  0  0  0  0  0
    1.8360    5.2710  -11.6430 H   0  0  0  0  0  0  0  0  0  0  0  0
   -1.1190    7.4050  -12.9980 H   0  0  0  0  0  0  0  0  0  0  0  0
   -0.1790    8.6280  -12.0570 H   0  0  0  0  0  0  0  0  0  0  0  0
    0.4520    8.9160  -14.3020 H   0  0  0  0  0  0  0  0  0  0  0  0
    0.6550    7.1130  -14.5370 H   0  0  0  0  0  0  0  0  0  0  0  0
  1  2  1  0  0  0  0
  2  3  1  0  0  0  0
  3  4  2  0  0  0  0
  3  8  1  0  0  0  0
  4 31  1  0  0  0  0
  5 32  1  0  0  0  0
  5  4  1  0  0  0  0
  6  5  2  0  0  0  0
  7  6  1  0  0  0  0
  7  2  2  0  0  0  0
  8  9  1  0  0  0  0
  9 10  1  0  0  0  0
  9 35  1  0  0  0  0
 10 37  1  0  0  0  0
 10 38  1  0  0  0  0
 11 10  1  0  0  0  0
 12 13  1  0  0  0  0
 12 11  1  0  0  0  0
 13  8  1  0  0  0  0
 13 41  1  0  0  0  0
 14 11  1  0  0  0  0
 14 16  1  0  0  0  0
 15 14  2  0  0  0  0
 16 44  1  0  0  0  0
 16 43  1  0  0  0  0
 17 16  1  0  0  0  0
 18 17  1  0  0  0  0
 19 18  2  0  0  0  0
 20 19  1  0  0  0  0
 20 21  2  0  0  0  0
 21 17  1  0  0  0  0
 22 21  1  0  0  0  0
 22 46  1  0  0  0  0
 22 47  1  0  0  0  0
 23 25  1  0  0  0  0
 23 19  1  0  0  0  0
 24 23  2  0  0  0  0
 25 26  1  0  0  0  0
 26 27  1  0  0  0  0
 26 49  1  0  0  0  0
 27 28  1  0  0  0  0
 27 52  1  0  0  0  0
 29 54  1  0  0  0  0
 29 28  1  0  0  0  0
 30 25  1  0  0  0  0
 30 29  1  0  0  0  0
 33  6  1  0  0  0  0
 34  7  1  0  0  0  0
 36  9  1  0  0  0  0
 39 12  1  0  0  0  0
 40 12  1  0  0  0  0
 42 13  1  0  0  0  0
 45 20  1  0  0  0  0
 48 22  1  0  0  0  0
 50 26  1  0  0  0  0
 51 27  1  0  0  0  0
 53 29  1  0  0  0  0
 55 30  1  0  0  0  0
 56 30  1  0  0  0  0
M  END
>  <Pose>
1

>  <Score>
-5.32

$$$$
