
 OpenBabel03232203513D

 45 48  0  0  1  0  0  0  0  0999 V2000
    1.5580    5.6210  -12.1710 Cl  0  0  0  0  0  0  0  0  0  0  0  0
    0.8690    7.1980  -12.5840 C   0  0  0  0  0  0  0  0  0  0  0  0
    1.6650    8.2800  -12.7730 C   0  0  0  0  0  0  0  0  0  0  0  0
    1.0910    9.5100  -13.0980 C   0  0  0  0  0  0  0  0  0  0  0  0
   -0.2590    9.7150  -13.2490 C   0  0  0  0  0  0  0  0  0  0  0  0
   -1.0340    8.5600  -13.0410 C   0  0  0  0  0  0  0  0  0  0  0  0
   -0.4880    7.3350  -12.7180 C   0  0  0  0  0  0  0  0  0  0  0  0
   -0.9230   10.9350  -13.6140 C   0  0  0  0  0  0  0  0  0  0  0  0
   -2.1800   10.7350  -13.9800 O   0  0  0  0  0  0  0  0  0  0  0  0
   -0.4850   12.2680  -13.6520 N   0  0  0  0  0  0  0  0  0  0  0  0
   -0.2370   13.0730  -12.5090 C   0  0  0  0  0  0  0  0  0  0  0  0
    0.4390   14.3800  -12.9580 C   0  0  1  0  0  0  0  0  0  0  0  0
   -0.4780   14.9890  -13.8860 N   0  0  0  0  0  0  0  0  0  0  0  0
   -0.8000   14.2600  -15.0660 C   0  0  0  0  0  0  0  0  0  0  0  0
   -0.2920   12.8340  -14.9870 C   0  0  0  0  0  0  0  0  0  0  0  0
   -1.0320   16.2550  -13.6290 C   0  0  0  0  0  0  0  0  0  0  0  0
   -1.4920   16.9140  -14.5790 O   0  0  0  0  0  0  0  0  0  0  0  0
   -1.0480   16.7590  -12.2410 C   0  0  1  0  0  0  0  0  0  0  0  0
    0.2610   16.5330  -11.7020 N   0  0  0  0  0  0  0  0  0  0  0  0
    0.8130   15.2360  -11.8340 C   0  0  0  0  0  0  0  0  0  0  0  0
    1.6450   14.7770  -10.9890 O   0  0  0  0  0  0  0  0  0  0  0  0
   -1.5560   18.1430  -12.1050 C   0  0  0  0  0  0  0  0  0  0  0  0
   -2.9400   18.2250  -12.5980 C   0  0  0  0  0  0  0  0  0  0  0  0
   -4.0540   18.5060  -11.9170 N   0  0  0  0  0  0  0  0  0  0  0  0
   -5.1210   18.4750  -12.7680 C   0  0  0  0  0  0  0  0  0  0  0  0
   -4.6830   18.1720  -13.9920 N   0  0  0  0  0  0  0  0  0  0  0  0
   -3.3570   18.0150  -13.9140 C   0  0  0  0  0  0  0  0  0  0  0  0
    2.7260    8.1670  -12.6660 H   0  0  0  0  0  0  0  0  0  0  0  0
    1.7680   10.3290  -13.2140 H   0  0  0  0  0  0  0  0  0  0  0  0
   -2.1170    8.6490  -13.1450 H   0  0  0  0  0  0  0  0  0  0  0  0
   -1.1790    6.5000  -12.5780 H   0  0  0  0  0  0  0  0  0  0  0  0
    0.4200   12.5790  -11.7620 H   0  0  0  0  0  0  0  0  0  0  0  0
   -1.2000   13.3060  -12.0240 H   0  0  0  0  0  0  0  0  0  0  0  0
    1.3390   14.0560  -13.5230 H   0  0  0  0  0  0  0  0  0  0  0  0
   -0.3160   14.7620  -15.9300 H   0  0  0  0  0  0  0  0  0  0  0  0
   -1.8840   14.2060  -15.2950 H   0  0  0  0  0  0  0  0  0  0  0  0
   -0.8280   12.1970  -15.7050 H   0  0  0  0  0  0  0  0  0  0  0  0
    0.7840   12.8330  -15.2280 H   0  0  0  0  0  0  0  0  0  0  0  0
   -1.7390   16.1230  -11.5950 H   0  0  0  0  0  0  0  0  0  0  0  0
    0.8120   17.2860  -11.2200 H   0  0  0  0  0  0  0  0  0  0  0  0
   -1.4600   18.4870  -11.0510 H   0  0  0  0  0  0  0  0  0  0  0  0
   -0.8800   18.8320  -12.6820 H   0  0  0  0  0  0  0  0  0  0  0  0
   -6.1400   18.6750  -12.4320 H   0  0  0  0  0  0  0  0  0  0  0  0
   -5.2520   18.0760  -14.8370 H   0  0  0  0  0  0  0  0  0  0  0  0
   -2.6510   17.7660  -14.6940 H   0  0  0  0  0  0  0  0  0  0  0  0
  2  1  1  0  0  0  0
  3 28  1  0  0  0  0
  3  2  2  0  0  0  0
  4  3  1  0  0  0  0
  5  4  2  0  0  0  0
  5  6  1  0  0  0  0
  6  7  2  0  0  0  0
  7  2  1  0  0  0  0
  7 31  1  0  0  0  0
  8  5  1  0  0  0  0
  9  8  2  0  0  0  0
 10  8  1  0  0  0  0
 10 11  1  0  0  0  0
 11 33  1  0  0  0  0
 11 32  1  0  0  0  0
 12 34  1  6  0  0  0
 12 11  1  0  0  0  0
 12 20  1  0  0  0  0
 13 16  1  0  0  0  0
 13 12  1  0  0  0  0
 14 15  1  0  0  0  0
 14 13  1  0  0  0  0
 15 10  1  0  0  0  0
 16 18  1  0  0  0  0
 17 16  2  0  0  0  0
 18 22  1  0  0  0  0
 18 19  1  0  0  0  0
 18 39  1  1  0  0  0
 19 40  1  0  0  0  0
 20 19  1  0  0  0  0
 20 21  2  0  0  0  0
 22 41  1  0  0  0  0
 23 22  1  0  0  0  0
 23 24  1  0  0  0  0
 25 43  1  0  0  0  0
 25 24  2  0  0  0  0
 26 27  1  0  0  0  0
 26 25  1  0  0  0  0
 27 23  2  0  0  0  0
 29  4  1  0  0  0  0
 30  6  1  0  0  0  0
 35 14  1  0  0  0  0
 36 14  1  0  0  0  0
 37 15  1  0  0  0  0
 38 15  1  0  0  0  0
 42 22  1  0  0  0  0
 44 26  1  0  0  0  0
 45 27  1  0  0  0  0
M  END
>  <Pose>
1

>  <Score>
-5.91

$$$$
