
 OpenBabel03232203513D

 49 52  0  0  0  0  0  0  0  0999 V2000
   -1.7860   18.3880  -11.0800 B   0  0  0  0  0  0  0  0  0  0  0  0
   -0.9330   16.9880  -12.0140 C   0  0  0  0  0  0  0  0  0  0  0  0
    0.1710   16.3650  -11.4520 C   0  0  0  0  0  0  0  0  0  0  0  0
    0.8150   15.3490  -12.1070 C   0  0  0  0  0  0  0  0  0  0  0  0
    0.4130   14.9000  -13.3290 C   0  0  0  0  0  0  0  0  0  0  0  0
   -0.7010   15.5220  -13.9020 C   0  0  0  0  0  0  0  0  0  0  0  0
   -1.3540   16.5470  -13.2440 C   0  0  0  0  0  0  0  0  0  0  0  0
    1.9930   14.6400  -11.4930 C   0  0  0  0  0  0  0  0  0  0  0  0
    2.3840   15.1690  -10.3940 O   0  0  0  0  0  0  0  0  0  0  0  0
    2.4840   13.5850  -12.1220 N   0  0  0  0  0  0  0  0  0  0  0  0
    2.9990   12.4800  -12.7810 C   0  0  0  0  0  0  0  0  0  0  0  0
    1.9520   11.4140  -12.9760 C   0  0  0  0  0  0  0  0  0  0  0  0
    0.8660   11.8280  -13.5160 O   0  0  0  0  0  0  0  0  0  0  0  0
    2.1190   10.0720  -12.6100 N   0  0  0  0  0  0  0  0  0  0  0  0
    1.7210    9.5580  -11.3380 C   0  0  0  0  0  0  0  0  0  0  0  0
    1.1900    8.1550  -11.4190 C   0  0  0  0  0  0  0  0  0  0  0  0
    0.6940    7.7410  -12.7870 C   0  0  0  0  0  0  0  0  0  0  0  0
    0.5240    6.2990  -12.6720 N   0  0  0  0  0  0  0  0  0  0  0  0
   -0.1340    5.6610  -13.7470 C   0  0  0  0  0  0  0  0  0  0  0  0
   -0.9360    6.5040  -14.6700 C   0  0  0  0  0  0  0  0  0  0  0  0
   -1.4520    7.7330  -13.9910 C   0  0  0  0  0  0  0  0  0  0  0  0
   -2.6000    8.3990  -14.1110 N   0  0  0  0  0  0  0  0  0  0  0  0
   -2.5160    9.4340  -13.2480 C   0  0  0  0  0  0  0  0  0  0  0  0
   -1.3300    9.4100  -12.6020 N   0  0  0  0  0  0  0  0  0  0  0  0
   -0.6360    8.3300  -13.0640 C   0  0  0  0  0  0  0  0  0  0  0  0
    1.6460    8.0700  -13.9080 C   0  0  0  0  0  0  0  0  0  0  0  0
    2.6980    9.0950  -13.5250 C   0  0  0  0  0  0  0  0  0  0  0  0
    0.5240   16.6790  -10.4980 H   0  0  0  0  0  0  0  0  0  0  0  0
    0.9350   14.1020  -13.8170 H   0  0  0  0  0  0  0  0  0  0  0  0
   -1.0490   15.1990  -14.8660 H   0  0  0  0  0  0  0  0  0  0  0  0
   -2.2150   17.0260  -13.6870 H   0  0  0  0  0  0  0  0  0  0  0  0
    3.2570   14.4060  -12.9230 H   0  0  0  0  0  0  0  0  0  0  0  0
    3.8540   12.0080  -12.1830 H   0  0  0  0  0  0  0  0  0  0  0  0
    3.4980   12.7420  -13.7460 H   0  0  0  0  0  0  0  0  0  0  0  0
    2.6710    9.4990  -10.7240 H   0  0  0  0  0  0  0  0  0  0  0  0
    1.0760   10.2430  -10.7570 H   0  0  0  0  0  0  0  0  0  0  0  0
    1.9580    7.4420  -11.0960 H   0  0  0  0  0  0  0  0  0  0  0  0
    0.3070    8.1140  -10.7460 H   0  0  0  0  0  0  0  0  0  0  0  0
    1.5130    5.9370  -12.5470 H   0  0  0  0  0  0  0  0  0  0  0  0
   -0.8440    4.9020  -13.2990 H   0  0  0  0  0  0  0  0  0  0  0  0
    0.6160    5.0380  -14.3190 H   0  0  0  0  0  0  0  0  0  0  0  0
   -0.3230    6.7730  -15.5620 H   0  0  0  0  0  0  0  0  0  0  0  0
   -1.7830    5.8930  -15.0910 H   0  0  0  0  0  0  0  0  0  0  0  0
   -3.3040   10.1510  -13.1240 H   0  0  0  0  0  0  0  0  0  0  0  0
   -1.0160   10.0910  -11.8900 H   0  0  0  0  0  0  0  0  0  0  0  0
    1.0600    8.5410  -14.7540 H   0  0  0  0  0  0  0  0  0  0  0  0
    2.1800    7.1940  -14.3090 H   0  0  0  0  0  0  0  0  0  0  0  0
    3.6010    8.6120  -13.0830 H   0  0  0  0  0  0  0  0  0  0  0  0
    2.9850    9.6280  -14.4500 H   0  0  0  0  0  0  0  0  0  0  0  0
  2  3  1  0  0  0  0
  2  1  1  0  0  0  0
  3 28  1  0  0  0  0
  4  8  1  0  0  0  0
  4  3  2  0  0  0  0
  5  4  1  0  0  0  0
  6  5  2  0  0  0  0
  6  7  1  0  0  0  0
  7  2  2  0  0  0  0
  8  9  2  0  0  0  0
 10  8  1  0  0  0  0
 11 33  1  0  0  0  0
 11 10  1  0  0  0  0
 12 11  1  0  0  0  0
 12 14  1  0  0  0  0
 13 12  2  0  0  0  0
 14 15  1  0  0  0  0
 15 36  1  0  0  0  0
 15 35  1  0  0  0  0
 16 15  1  0  0  0  0
 16 37  1  0  0  0  0
 16 38  1  0  0  0  0
 17 18  1  0  0  0  0
 17 16  1  0  0  0  0
 18 39  1  0  0  0  0
 19 40  1  0  0  0  0
 19 18  1  0  0  0  0
 20 21  1  0  0  0  0
 20 19  1  0  0  0  0
 21 25  2  0  0  0  0
 22 21  1  0  0  0  0
 22 23  2  0  0  0  0
 23 44  1  0  0  0  0
 23 24  1  0  0  0  0
 24 45  1  0  0  0  0
 25 17  1  0  0  0  0
 25 24  1  0  0  0  0
 26 27  1  0  0  0  0
 26 17  1  0  0  0  0
 27 48  1  0  0  0  0
 27 14  1  0  0  0  0
 29  5  1  0  0  0  0
 30  6  1  0  0  0  0
 31  7  1  0  0  0  0
 32 10  1  0  0  0  0
 34 11  1  0  0  0  0
 41 19  1  0  0  0  0
 42 20  1  0  0  0  0
 43 20  1  0  0  0  0
 46 26  1  0  0  0  0
 47 26  1  0  0  0  0
 49 27  1  0  0  0  0
M  END
>  <Pose>
1

>  <Score>
-5.95

$$$$
