
 OpenBabel03232203513D

 45 48  0  0  1  0  0  0  0  0999 V2000
   -4.4760   21.0050   -9.5980 Cl  0  0  0  0  0  0  0  0  0  0  0  0
   -3.9800   19.8850  -10.8700 C   0  0  0  0  0  0  0  0  0  0  0  0
   -2.8280   19.1500  -10.7190 C   0  0  0  0  0  0  0  0  0  0  0  0
   -2.4040   18.2550  -11.7010 C   0  0  0  0  0  0  0  0  0  0  0  0
   -3.2000   18.1510  -12.8240 C   0  0  0  0  0  0  0  0  0  0  0  0
   -4.3570   18.8950  -12.9670 C   0  0  0  0  0  0  0  0  0  0  0  0
   -4.7720   19.7780  -11.9930 C   0  0  0  0  0  0  0  0  0  0  0  0
   -1.1600   17.4700  -11.5250 C   0  0  0  0  0  0  0  0  0  0  0  0
   -0.7890   16.7050  -12.7670 C   0  0  0  0  0  0  0  0  0  0  0  0
    0.4350   15.9490  -12.6380 N   0  0  0  0  0  0  0  0  0  0  0  0
    0.7730   14.8240  -11.8070 C   0  0  2  0  0  0  0  0  0  0  0  0
    2.2680   15.0100  -11.6420 C   0  0  2  0  0  0  0  0  0  0  0  0
    2.6390   15.3500  -12.9720 O   0  0  0  0  0  0  0  0  0  0  0  0
    1.6130   16.2210  -13.3890 C   0  0  0  0  0  0  0  0  0  0  0  0
    1.7710   17.0950  -14.2990 O   0  0  0  0  0  0  0  0  0  0  0  0
    2.6440   13.6330  -11.2320 C   0  0  0  0  0  0  0  0  0  0  0  0
    1.9910   12.8340  -12.2940 N   0  0  0  0  0  0  0  0  0  0  0  0
    0.7810   13.5200  -12.6250 C   0  0  0  0  0  0  0  0  0  0  0  0
    2.5820   11.6600  -12.7700 C   0  0  0  0  0  0  0  0  0  0  0  0
    3.8660   11.4960  -12.6670 O   0  0  0  0  0  0  0  0  0  0  0  0
    1.8950   10.5460  -13.3980 C   0  0  0  0  0  0  0  0  0  0  0  0
    2.4300    9.6320  -14.2520 N   0  0  0  0  0  0  0  0  0  0  0  0
    1.4790    8.7690  -14.6010 C   0  0  0  0  0  0  0  0  0  0  0  0
    0.3420    9.1080  -13.9900 N   0  0  0  0  0  0  0  0  0  0  0  0
    0.5840   10.2070  -13.2410 C   0  0  0  0  0  0  0  0  0  0  0  0
    3.8010    9.6200  -14.6910 C   0  0  0  0  0  0  0  0  0  0  0  0
   -2.1920   19.2270   -9.8310 H   0  0  0  0  0  0  0  0  0  0  0  0
   -2.8730   17.4530  -13.5980 H   0  0  0  0  0  0  0  0  0  0  0  0
   -4.9630   18.7880  -13.8650 H   0  0  0  0  0  0  0  0  0  0  0  0
   -5.6740   20.3650  -12.0890 H   0  0  0  0  0  0  0  0  0  0  0  0
   -1.3500   16.7200  -10.7310 H   0  0  0  0  0  0  0  0  0  0  0  0
   -0.3130   18.0980  -11.1490 H   0  0  0  0  0  0  0  0  0  0  0  0
   -0.7100   17.4740  -13.5880 H   0  0  0  0  0  0  0  0  0  0  0  0
   -1.6160   16.0410  -13.0910 H   0  0  0  0  0  0  0  0  0  0  0  0
    0.2230   14.7380  -10.8800 H   0  0  0  0  0  0  0  0  0  0  0  0
    2.5280   15.7970  -10.9200 H   0  0  0  0  0  0  0  0  0  0  0  0
    3.7040   13.4340  -11.1480 H   0  0  0  0  0  0  0  0  0  0  0  0
    2.0760   13.3830  -10.3120 H   0  0  0  0  0  0  0  0  0  0  0  0
   -0.1480   12.9670  -12.4480 H   0  0  0  0  0  0  0  0  0  0  0  0
    0.7800   13.8230  -13.7150 H   0  0  0  0  0  0  0  0  0  0  0  0
    1.5390    7.9010  -15.2720 H   0  0  0  0  0  0  0  0  0  0  0  0
   -0.2090   10.6770  -12.6370 H   0  0  0  0  0  0  0  0  0  0  0  0
    4.5120    9.3610  -13.8800 H   0  0  0  0  0  0  0  0  0  0  0  0
    4.1020   10.6050  -15.1240 H   0  0  0  0  0  0  0  0  0  0  0  0
    3.9330    8.8770  -15.5040 H   0  0  0  0  0  0  0  0  0  0  0  0
  2  3  1  0  0  0  0
  2  1  1  0  0  0  0
  3 27  1  0  0  0  0
  4  8  1  0  0  0  0
  4  3  2  0  0  0  0
  5  4  1  0  0  0  0
  6  5  2  0  0  0  0
  6  7  1  0  0  0  0
  7  2  2  0  0  0  0
  8 32  1  0  0  0  0
  8 31  1  0  0  0  0
  9 10  1  0  0  0  0
  9  8  1  0  0  0  0
 10 11  1  0  0  0  0
 11 12  1  0  0  0  0
 11 35  1  1  0  0  0
 12 16  1  0  0  0  0
 12 36  1  1  0  0  0
 13 12  1  0  0  0  0
 14 13  1  0  0  0  0
 14 10  1  0  0  0  0
 15 14  2  0  0  0  0
 16 37  1  0  0  0  0
 16 38  1  0  0  0  0
 17 16  1  0  0  0  0
 18 39  1  0  0  0  0
 18 17  1  0  0  0  0
 18 11  1  0  0  0  0
 19 20  2  0  0  0  0
 19 17  1  0  0  0  0
 21 25  2  0  0  0  0
 21 19  1  0  0  0  0
 22 21  1  0  0  0  0
 23 22  1  0  0  0  0
 23 24  2  0  0  0  0
 24 25  1  0  0  0  0
 25 42  1  0  0  0  0
 26 22  1  0  0  0  0
 26 43  1  0  0  0  0
 28  5  1  0  0  0  0
 29  6  1  0  0  0  0
 30  7  1  0  0  0  0
 33  9  1  0  0  0  0
 34  9  1  0  0  0  0
 40 18  1  0  0  0  0
 41 23  1  0  0  0  0
 44 26  1  0  0  0  0
 45 26  1  0  0  0  0
M  END
>  <Pose>
1

>  <Score>
-6.12

$$$$
