
 OpenBabel03232203513D

 53 56  0  0  0  0  0  0  0  0999 V2000
   -1.7360    5.6870  -14.2510 Cl  0  0  0  0  0  0  0  0  0  0  0  0
   -0.6090    6.7950  -13.4710 C   0  0  0  0  0  0  0  0  0  0  0  0
   -0.3100    7.9790  -14.1330 C   0  0  0  0  0  0  0  0  0  0  0  0
    0.5630    8.8530  -13.5490 C   0  0  0  0  0  0  0  0  0  0  0  0
    1.1270    8.5230  -12.3020 C   0  0  0  0  0  0  0  0  0  0  0  0
    0.8150    7.3510  -11.6730 C   0  0  0  0  0  0  0  0  0  0  0  0
   -0.0670    6.4550  -12.2510 C   0  0  0  0  0  0  0  0  0  0  0  0
    0.9010   10.1580  -14.1650 C   0  0  0  0  0  0  0  0  0  0  0  0
    2.0240   10.8420  -13.6050 N   0  0  0  0  0  0  0  0  0  0  0  0
    1.9080   11.9940  -12.9130 C   0  0  0  0  0  0  0  0  0  0  0  0
    3.1810   12.3900  -12.5780 C   0  0  0  0  0  0  0  0  0  0  0  0
    4.0120   11.4890  -13.0630 N   0  0  0  0  0  0  0  0  0  0  0  0
    3.3160   10.5190  -13.7070 C   0  0  0  0  0  0  0  0  0  0  0  0
    3.9180    9.4220  -14.4100 N   0  0  0  0  0  0  0  0  0  0  0  0
    5.1110    9.7050  -15.2340 C   0  0  0  0  0  0  0  0  0  0  0  0
    6.2760    8.8560  -14.8360 C   0  0  0  0  0  0  0  0  0  0  0  0
    5.8420    7.6480  -14.1740 N   0  0  0  0  0  0  0  0  0  0  0  0
    4.5810    7.0750  -14.5960 C   0  0  0  0  0  0  0  0  0  0  0  0
    3.4640    8.0790  -14.3700 C   0  0  0  0  0  0  0  0  0  0  0  0
    6.6320    7.0490  -13.1570 C   0  0  0  0  0  0  0  0  0  0  0  0
    6.0910    6.4090  -12.2290 O   0  0  0  0  0  0  0  0  0  0  0  0
    8.1100    7.1630  -13.1630 C   0  0  0  0  0  0  0  0  0  0  0  0
    8.6140    6.4310  -14.4040 C   0  0  0  0  0  0  0  0  0  0  0  0
    3.3220   13.5440  -11.8670 N   0  0  0  0  0  0  0  0  0  0  0  0
    2.2660   14.2790  -11.5010 C   0  0  0  0  0  0  0  0  0  0  0  0
    2.4500   15.3410  -10.8440 O   0  0  0  0  0  0  0  0  0  0  0  0
    1.0100   13.9300  -11.8070 N   0  0  0  0  0  0  0  0  0  0  0  0
    0.8380   12.7870  -12.5130 C   0  0  0  0  0  0  0  0  0  0  0  0
   -0.3330   12.4570  -12.8030 O   0  0  0  0  0  0  0  0  0  0  0  0
    4.6680   13.9850  -11.5050 C   0  0  0  0  0  0  0  0  0  0  0  0
   -0.7700    8.1630  -15.1050 H   0  0  0  0  0  0  0  0  0  0  0  0
    1.8280    9.2300  -11.8390 H   0  0  0  0  0  0  0  0  0  0  0  0
    1.2280    7.0620  -10.7170 H   0  0  0  0  0  0  0  0  0  0  0  0
   -0.3310    5.5190  -11.7700 H   0  0  0  0  0  0  0  0  0  0  0  0
   -0.0110   10.8260  -14.0900 H   0  0  0  0  0  0  0  0  0  0  0  0
    0.9970    9.9710  -15.2540 H   0  0  0  0  0  0  0  0  0  0  0  0
    4.8070    9.5400  -16.2860 H   0  0  0  0  0  0  0  0  0  0  0  0
    5.4120   10.7680  -15.0650 H   0  0  0  0  0  0  0  0  0  0  0  0
    6.8120    8.5370  -15.7720 H   0  0  0  0  0  0  0  0  0  0  0  0
    6.9970    9.3950  -14.1850 H   0  0  0  0  0  0  0  0  0  0  0  0
    4.6640    6.8990  -15.7090 H   0  0  0  0  0  0  0  0  0  0  0  0
    4.3510    6.1020  -14.1530 H   0  0  0  0  0  0  0  0  0  0  0  0
    2.9940    7.8740  -13.3920 H   0  0  0  0  0  0  0  0  0  0  0  0
    2.6670    7.8810  -15.1550 H   0  0  0  0  0  0  0  0  0  0  0  0
    8.4190    8.2420  -13.2440 H   0  0  0  0  0  0  0  0  0  0  0  0
    8.5680    6.8000  -12.2360 H   0  0  0  0  0  0  0  0  0  0  0  0
    8.8200    7.1190  -15.2490 H   0  0  0  0  0  0  0  0  0  0  0  0
    7.8800    5.6830  -14.7710 H   0  0  0  0  0  0  0  0  0  0  0  0
    9.5380    5.8600  -14.1480 H   0  0  0  0  0  0  0  0  0  0  0  0
    0.2140   14.5330  -11.5020 H   0  0  0  0  0  0  0  0  0  0  0  0
    4.6460   14.4880  -10.5130 H   0  0  0  0  0  0  0  0  0  0  0  0
    4.9690   14.7350  -12.2910 H   0  0  0  0  0  0  0  0  0  0  0  0
    5.3810   13.1530  -11.5520 H   0  0  0  0  0  0  0  0  0  0  0  0
  1  2  1  0  0  0  0
  2  7  1  0  0  0  0
  3  4  1  0  0  0  0
  3  2  2  0  0  0  0
  4  5  2  0  0  0  0
  5 32  1  0  0  0  0
  5  6  1  0  0  0  0
  6 33  1  0  0  0  0
  7 34  1  0  0  0  0
  7  6  2  0  0  0  0
  8 35  1  0  0  0  0
  8  9  1  0  0  0  0
  8  4  1  0  0  0  0
  9 10  1  0  0  0  0
 10 11  2  0  0  0  0
 10 28  1  0  0  0  0
 11 24  1  0  0  0  0
 12 11  1  0  0  0  0
 13  9  1  0  0  0  0
 13 12  2  0  0  0  0
 14 19  1  0  0  0  0
 14 13  1  0  0  0  0
 15 38  1  0  0  0  0
 15 16  1  0  0  0  0
 15 14  1  0  0  0  0
 16 40  1  0  0  0  0
 16 17  1  0  0  0  0
 17 20  1  0  0  0  0
 18 19  1  0  0  0  0
 18 17  1  0  0  0  0
 18 42  1  0  0  0  0
 19 43  1  0  0  0  0
 20 21  2  0  0  0  0
 22 20  1  0  0  0  0
 22 46  1  0  0  0  0
 23 49  1  0  0  0  0
 23 22  1  0  0  0  0
 24 30  1  0  0  0  0
 24 25  1  0  0  0  0
 25 26  2  0  0  0  0
 27 50  1  0  0  0  0
 27 25  1  0  0  0  0
 28 27  1  0  0  0  0
 29 28  2  0  0  0  0
 30 51  1  0  0  0  0
 31  3  1  0  0  0  0
 36  8  1  0  0  0  0
 37 15  1  0  0  0  0
 39 16  1  0  0  0  0
 41 18  1  0  0  0  0
 44 19  1  0  0  0  0
 45 22  1  0  0  0  0
 47 23  1  0  0  0  0
 48 23  1  0  0  0  0
 52 30  1  0  0  0  0
 53 30  1  0  0  0  0
M  END
>  <Pose>
1

>  <Score>
-4.73

$$$$
