
 OpenBabel03232203513D

 45 47  0  0  1  0  0  0  0  0999 V2000
    3.0270   12.7720  -11.8090 Cl  0  0  0  0  0  0  0  0  0  0  0  0
    1.7130   13.9290  -12.0590 C   0  0  0  0  0  0  0  0  0  0  0  0
    0.6710   13.5760  -12.8890 C   0  0  0  0  0  0  0  0  0  0  0  0
   -0.3590   14.4680  -13.0920 C   0  0  0  0  0  0  0  0  0  0  0  0
   -0.3610   15.7040  -12.4800 C   0  0  0  0  0  0  0  0  0  0  0  0
    0.7070   16.0160  -11.6550 C   0  0  0  0  0  0  0  0  0  0  0  0
    1.7530   15.1540  -11.4250 C   0  0  0  0  0  0  0  0  0  0  0  0
   -1.4160   16.6440  -12.6760 N   0  0  0  0  0  0  0  0  0  0  0  0
   -2.2640   16.7270  -13.6710 N   0  0  0  0  0  0  0  0  0  0  0  0
   -3.1130   17.7760  -13.4650 C   0  0  0  0  0  0  0  0  0  0  0  0
   -2.7680   18.3740  -12.2730 C   0  0  0  0  0  0  0  0  0  0  0  0
   -1.6860   17.6280  -11.7990 C   0  0  0  0  0  0  0  0  0  0  0  0
    0.6560   12.2660  -13.5480 C   0  0  0  0  0  0  0  0  0  0  0  0
   -0.4750   11.8280  -13.8790 O   0  0  0  0  0  0  0  0  0  0  0  0
    1.8540   11.5410  -13.7920 N   0  0  0  0  0  0  0  0  0  0  0  0
    2.6690   11.1460  -12.6650 C   0  0  0  0  0  0  0  0  0  0  0  0
    3.4350    9.9060  -13.0880 C   0  0  0  0  0  0  0  0  0  0  0  0
    2.6170    9.0210  -14.0020 C   0  0  1  0  0  0  0  0  0  0  0  0
    3.3450    7.7820  -14.1590 N   0  0  0  0  0  0  0  0  0  0  0  0
    2.9880    6.9180  -13.0910 C   0  0  0  0  0  0  0  0  0  0  0  0
    3.6240    5.9060  -12.6560 O   0  0  0  0  0  0  0  0  0  0  0  0
    1.7450    7.4130  -12.5840 N   0  0  0  0  0  0  0  0  0  0  0  0
    1.3670    8.5620  -13.3440 C   0  0  0  0  0  0  0  0  0  0  0  0
    0.2060    9.0480  -13.4130 O   0  0  0  0  0  0  0  0  0  0  0  0
    0.9530    6.8710  -11.4770 C   0  0  0  0  0  0  0  0  0  0  0  0
    2.3160    9.6830  -15.3140 C   0  0  0  0  0  0  0  0  0  0  0  0
    2.3170   11.1670  -15.1090 C   0  0  0  0  0  0  0  0  0  0  0  0
   -1.2060   14.2520  -13.7320 H   0  0  0  0  0  0  0  0  0  0  0  0
    0.7120   16.9880  -11.1690 H   0  0  0  0  0  0  0  0  0  0  0  0
    2.5840   15.4420  -10.7620 H   0  0  0  0  0  0  0  0  0  0  0  0
   -3.9260   18.1230  -14.0860 H   0  0  0  0  0  0  0  0  0  0  0  0
   -3.2370   19.2380  -11.8030 H   0  0  0  0  0  0  0  0  0  0  0  0
   -1.1630   17.8280  -10.8730 H   0  0  0  0  0  0  0  0  0  0  0  0
    3.3750   11.9670  -12.4210 H   0  0  0  0  0  0  0  0  0  0  0  0
    2.0380   10.8570  -11.8000 H   0  0  0  0  0  0  0  0  0  0  0  0
    4.3760   10.2010  -13.5930 H   0  0  0  0  0  0  0  0  0  0  0  0
    3.7350    9.3130  -12.2010 H   0  0  0  0  0  0  0  0  0  0  0  0
    4.0110    7.5840  -14.9290 H   0  0  0  0  0  0  0  0  0  0  0  0
    0.4440    7.6870  -10.9090 H   0  0  0  0  0  0  0  0  0  0  0  0
    1.6080    6.2910  -10.8030 H   0  0  0  0  0  0  0  0  0  0  0  0
    0.1460    6.2230  -11.8660 H   0  0  0  0  0  0  0  0  0  0  0  0
    1.3190    9.3210  -15.6460 H   0  0  0  0  0  0  0  0  0  0  0  0
    3.1180    9.4000  -16.0300 H   0  0  0  0  0  0  0  0  0  0  0  0
    3.3850   11.5130  -15.1810 H   0  0  0  0  0  0  0  0  0  0  0  0
    1.7730   11.7140  -15.9130 H   0  0  0  0  0  0  0  0  0  0  0  0
  2  7  1  0  0  0  0
  3  2  2  0  0  0  0
  4  3  1  0  0  0  0
  4  5  2  0  0  0  0
  5  6  1  0  0  0  0
  6  7  2  0  0  0  0
  6 29  1  0  0  0  0
  7 30  1  0  0  0  0
  8  5  1  0  0  0  0
  8 12  1  0  0  0  0
  9 10  2  0  0  0  0
  9  8  1  0  0  0  0
 10 11  1  0  0  0  0
 11 32  1  0  0  0  0
 11 12  2  0  0  0  0
 12 33  1  0  0  0  0
 13  3  1  0  0  0  0
 14 13  2  0  0  0  0
 15 13  1  0  0  0  0
 15 16  1  0  0  0  0
 16 35  1  0  0  0  0
 17 16  1  0  0  0  0
 17 37  1  0  0  0  0
 18 23  1  1  0  0  0
 18 17  1  0  0  0  0
 19 18  1  0  0  0  0
 19 20  1  0  0  0  0
 20 21  2  0  0  0  0
 20 22  1  0  0  0  0
 22 25  1  0  0  0  0
 23 22  1  0  0  0  0
 24 23  2  0  0  0  0
 25 39  1  0  0  0  0
 25 40  1  0  0  0  0
 26 27  1  0  0  0  0
 26 18  1  0  0  0  0
 27 15  1  0  0  0  0
 28  4  1  0  0  0  0
 31 10  1  0  0  0  0
 34  1  1  0  0  0  0
 36 17  1  0  0  0  0
 38 19  1  0  0  0  0
 41 25  1  0  0  0  0
 42 26  1  0  0  0  0
 43 26  1  0  0  0  0
 44 27  1  0  0  0  0
 45 27  1  0  0  0  0
M  END
>  <Pose>
1

>  <Score>
-5.43

$$$$
