
 OpenBabel03232203513D

 44 47  0  0  0  0  0  0  0  0999 V2000
   -1.9330    6.0950  -14.5370 S   0  0  0  0  0  0  0  0  0  0  0  0
   -3.0380    6.9880  -14.8050 O   0  0  0  0  0  0  0  0  0  0  0  0
   -2.2990    5.0250  -13.5540 O   0  0  0  0  0  0  0  0  0  0  0  0
   -1.3180    5.2680  -16.0250 C   0  0  0  0  0  0  0  0  0  0  0  0
   -0.5300    6.9410  -13.8590 C   0  0  0  0  0  0  0  0  0  0  0  0
    0.3630    7.4700  -14.7040 N   0  0  0  0  0  0  0  0  0  0  0  0
    1.4170    8.1890  -14.3290 C   0  0  0  0  0  0  0  0  0  0  0  0
    1.5860    8.4060  -12.9520 C   0  0  0  0  0  0  0  0  0  0  0  0
    0.6820    7.8700  -12.1040 C   0  0  0  0  0  0  0  0  0  0  0  0
   -0.3710    7.1370  -12.5630 N   0  0  0  0  0  0  0  0  0  0  0  0
    0.8540    8.0720  -10.7430 O   0  0  0  0  0  0  0  0  0  0  0  0
    2.6760    9.3190  -12.5990 C   0  0  0  0  0  0  0  0  0  0  0  0
    2.4880   10.4770  -13.4170 N   0  0  0  0  0  0  0  0  0  0  0  0
    3.0730   10.0350  -14.7600 C   0  0  0  0  0  0  0  0  0  0  0  0
    2.4080    8.7990  -15.2540 C   0  0  0  0  0  0  0  0  0  0  0  0
    1.0770   10.7910  -13.8440 C   0  0  0  0  0  0  0  0  0  0  0  0
    0.9540   12.1960  -13.2480 C   0  0  0  0  0  0  0  0  0  0  0  0
    1.8870   12.8240  -12.5190 C   0  0  0  0  0  0  0  0  0  0  0  0
    1.7300   14.1320  -11.9870 C   0  0  0  0  0  0  0  0  0  0  0  0
    0.5050   14.7350  -12.2880 C   0  0  0  0  0  0  0  0  0  0  0  0
    0.2970   15.9930  -11.8030 C   0  0  0  0  0  0  0  0  0  0  0  0
    1.2320   16.7110  -11.0250 C   0  0  0  0  0  0  0  0  0  0  0  0
    2.4520   16.0640  -10.7530 C   0  0  0  0  0  0  0  0  0  0  0  0
    2.6420   14.8040  -11.2450 C   0  0  0  0  0  0  0  0  0  0  0  0
   -0.3930   14.1430  -12.9970 O   0  0  0  0  0  0  0  0  0  0  0  0
   -0.2210   12.9060  -13.4860 C   0  0  0  0  0  0  0  0  0  0  0  0
   -1.1360   12.3220  -14.1850 O   0  0  0  0  0  0  0  0  0  0  0  0
    3.3990   12.0220  -12.2580 Cl  0  0  0  0  0  0  0  0  0  0  0  0
   -0.2600    4.8970  -15.7780 H   0  0  0  0  0  0  0  0  0  0  0  0
   -1.1820    6.0550  -16.8220 H   0  0  0  0  0  0  0  0  0  0  0  0
   -1.9780    4.4640  -16.3580 H   0  0  0  0  0  0  0  0  0  0  0  0
    0.1240    7.9030  -10.0440 H   0  0  0  0  0  0  0  0  0  0  0  0
    2.8300    9.4920  -11.5090 H   0  0  0  0  0  0  0  0  0  0  0  0
    3.6560    8.8220  -12.9930 H   0  0  0  0  0  0  0  0  0  0  0  0
    2.9240   10.9360  -15.4350 H   0  0  0  0  0  0  0  0  0  0  0  0
    4.1290    9.9050  -14.5450 H   0  0  0  0  0  0  0  0  0  0  0  0
    1.8690    9.1190  -16.2080 H   0  0  0  0  0  0  0  0  0  0  0  0
    3.1630    8.0780  -15.5730 H   0  0  0  0  0  0  0  0  0  0  0  0
    0.9700   10.8420  -14.9100 H   0  0  0  0  0  0  0  0  0  0  0  0
    0.4420   10.0960  -13.2870 H   0  0  0  0  0  0  0  0  0  0  0  0
   -0.6060   16.5630  -12.0130 H   0  0  0  0  0  0  0  0  0  0  0  0
    1.0190   17.7260  -10.6350 H   0  0  0  0  0  0  0  0  0  0  0  0
    3.1460   16.6200  -10.2020 H   0  0  0  0  0  0  0  0  0  0  0  0
    3.5510   14.2400  -10.9810 H   0  0  0  0  0  0  0  0  0  0  0  0
  1  5  1  0  0  0  0
  1  3  2  0  0  0  0
  2  1  2  0  0  0  0
  4 29  1  0  0  0  0
  4  1  1  0  0  0  0
  5 10  1  0  0  0  0
  6  7  1  0  0  0  0
  6  5  2  0  0  0  0
  7  8  2  0  0  0  0
  8 12  1  0  0  0  0
  8  9  1  0  0  0  0
  9 11  1  0  0  0  0
 10  9  2  0  0  0  0
 11 32  1  0  0  0  0
 12 33  1  0  0  0  0
 13 12  1  0  0  0  0
 14 36  1  0  0  0  0
 14 13  1  0  0  0  0
 15 14  1  0  0  0  0
 15  7  1  0  0  0  0
 16 13  1  0  0  0  0
 16 40  1  0  0  0  0
 16 17  1  0  0  0  0
 17 18  2  0  0  0  0
 18 28  1  0  0  0  0
 18 19  1  0  0  0  0
 19 24  1  0  0  0  0
 20 19  2  0  0  0  0
 20 21  1  0  0  0  0
 21 22  2  0  0  0  0
 22 23  1  0  0  0  0
 22 42  1  0  0  0  0
 23 43  1  0  0  0  0
 24 44  1  0  0  0  0
 24 23  2  0  0  0  0
 25 20  1  0  0  0  0
 26 17  1  0  0  0  0
 26 25  1  0  0  0  0
 27 26  2  0  0  0  0
 30  4  1  0  0  0  0
 31  4  1  0  0  0  0
 34 12  1  0  0  0  0
 35 14  1  0  0  0  0
 37 15  1  0  0  0  0
 38 15  1  0  0  0  0
 39 16  1  0  0  0  0
 41 21  1  0  0  0  0
M  END
>  <Pose>
1

>  <Score>
-5.15

$$$$
