
 OpenBabel03232203513D

 61 62  0  0  1  0  0  0  0  0999 V2000
   -4.8180   21.6170   -9.5770 Cl  0  0  0  0  0  0  0  0  0  0  0  0
   -3.8970   20.2540  -10.2250 C   0  0  0  0  0  0  0  0  0  0  0  0
   -4.0370   19.8880  -11.5460 C   0  0  0  0  0  0  0  0  0  0  0  0
   -3.3260   18.8430  -12.0400 C   0  0  0  0  0  0  0  0  0  0  0  0
   -2.4490   18.1270  -11.2140 C   0  0  0  0  0  0  0  0  0  0  0  0
   -2.3260   18.5090   -9.9000 C   0  0  0  0  0  0  0  0  0  0  0  0
   -3.0450   19.5770   -9.3780 C   0  0  0  0  0  0  0  0  0  0  0  0
   -1.7000   17.0290  -11.7260 N   0  0  0  0  0  0  0  0  0  0  0  0
   -1.3870   16.9930  -13.1460 C   0  0  2  0  0  0  0  0  0  0  0  0
   -2.6210   17.2730  -13.8430 N   0  0  0  0  0  0  0  0  0  0  0  0
   -3.4040   18.3780  -13.4230 C   0  0  0  0  0  0  0  0  0  0  0  0
   -4.1840   18.9990  -14.1910 O   0  0  0  0  0  0  0  0  0  0  0  0
   -0.9000   15.6240  -13.4880 C   0  0  0  0  0  0  0  0  0  0  0  0
    0.5850   15.4440  -13.2750 C   0  0  0  0  0  0  0  0  0  0  0  0
    1.0130   15.9450  -11.9850 N   0  0  0  0  0  0  0  0  0  0  0  0
    0.8740   17.3320  -11.5910 C   0  0  0  0  0  0  0  0  0  0  0  0
    1.1600   17.5780  -10.3960 O   0  0  0  0  0  0  0  0  0  0  0  0
    0.4480   18.5020  -12.3760 C   0  0  0  0  0  0  0  0  0  0  0  0
   -0.4260   18.1010  -13.5270 C   0  0  0  0  0  0  0  0  0  0  0  0
    1.5750   15.0870  -11.0240 C   0  0  0  0  0  0  0  0  0  0  0  0
    2.2040   13.8340  -11.3780 C   0  0  0  0  0  0  0  0  0  0  0  0
    2.7050   13.2280  -10.3010 O   0  0  0  0  0  0  0  0  0  0  0  0
    2.3500   13.2070  -12.5940 N   0  0  0  0  0  0  0  0  0  0  0  0
    3.5780   12.4060  -12.8360 C   0  0  0  0  0  0  0  0  0  0  0  0
    3.0560   11.1100  -13.4770 C   0  0  0  0  0  0  0  0  0  0  0  0
    1.6820   10.8950  -13.1710 N   0  0  0  0  0  0  0  0  0  0  0  0
    0.7580   11.8150  -13.7630 C   0  0  0  0  0  0  0  0  0  0  0  0
    1.4430   13.2080  -13.6740 C   0  0  0  0  0  0  0  0  0  0  0  0
    1.2470    9.5390  -13.1560 C   0  0  0  0  0  0  0  0  0  0  0  0
    1.1800    8.9040  -14.5290 C   0  0  0  0  0  0  0  0  0  0  0  0
    2.0560    8.6580  -12.2440 C   0  0  0  0  0  0  0  0  0  0  0  0
   -4.7020   20.4110  -12.2210 H   0  0  0  0  0  0  0  0  0  0  0  0
   -1.6350   17.9400   -9.2630 H   0  0  0  0  0  0  0  0  0  0  0  0
   -2.9390   19.8670   -8.3440 H   0  0  0  0  0  0  0  0  0  0  0  0
   -1.4100   16.2960  -11.0460 H   0  0  0  0  0  0  0  0  0  0  0  0
   -2.9660   16.7040  -14.6410 H   0  0  0  0  0  0  0  0  0  0  0  0
   -1.0680   15.4850  -14.5950 H   0  0  0  0  0  0  0  0  0  0  0  0
   -1.5140   14.8920  -12.9560 H   0  0  0  0  0  0  0  0  0  0  0  0
    0.8580   14.4050  -13.4470 H   0  0  0  0  0  0  0  0  0  0  0  0
    1.0850   16.0500  -14.0550 H   0  0  0  0  0  0  0  0  0  0  0  0
   -0.1230   19.2010  -11.7150 H   0  0  0  0  0  0  0  0  0  0  0  0
    1.3380   19.0550  -12.7980 H   0  0  0  0  0  0  0  0  0  0  0  0
    0.1580   17.8220  -14.4270 H   0  0  0  0  0  0  0  0  0  0  0  0
   -0.9940   19.0280  -13.8410 H   0  0  0  0  0  0  0  0  0  0  0  0
    0.8060   14.8150  -10.2070 H   0  0  0  0  0  0  0  0  0  0  0  0
    2.3050   15.6990  -10.4100 H   0  0  0  0  0  0  0  0  0  0  0  0
    4.2270   12.9480  -13.5530 H   0  0  0  0  0  0  0  0  0  0  0  0
    4.1150   12.2360  -11.9050 H   0  0  0  0  0  0  0  0  0  0  0  0
    3.2860   11.1280  -14.5670 H   0  0  0  0  0  0  0  0  0  0  0  0
    3.6420   10.2910  -13.0120 H   0  0  0  0  0  0  0  0  0  0  0  0
   -0.1330   11.8990  -13.1090 H   0  0  0  0  0  0  0  0  0  0  0  0
    0.4670   11.5960  -14.7930 H   0  0  0  0  0  0  0  0  0  0  0  0
    0.7130   13.9960  -13.7660 H   0  0  0  0  0  0  0  0  0  0  0  0
    2.0770   13.3160  -14.6290 H   0  0  0  0  0  0  0  0  0  0  0  0
    0.2030    9.5280  -12.7610 H   0  0  0  0  0  0  0  0  0  0  0  0
    0.4520    9.4860  -15.1390 H   0  0  0  0  0  0  0  0  0  0  0  0
    2.1660    8.8290  -14.9870 H   0  0  0  0  0  0  0  0  0  0  0  0
    0.7220    7.8950  -14.3910 H   0  0  0  0  0  0  0  0  0  0  0  0
    3.0430    8.3980  -12.6590 H   0  0  0  0  0  0  0  0  0  0  0  0
    2.1460    9.1930  -11.2530 H   0  0  0  0  0  0  0  0  0  0  0  0
    1.4630    7.7290  -12.0870 H   0  0  0  0  0  0  0  0  0  0  0  0
  2  1  1  0  0  0  0
  2  7  1  0  0  0  0
  3  2  2  0  0  0  0
  4  3  1  0  0  0  0
  4  5  2  0  0  0  0
  5  6  1  0  0  0  0
  6  7  2  0  0  0  0
  6 33  1  0  0  0  0
  7 34  1  0  0  0  0
  8  5  1  0  0  0  0
  8 35  1  0  0  0  0
  9 10  1  6  0  0  0
  9  8  1  0  0  0  0
 10 11  1  0  0  0  0
 11  4  1  0  0  0  0
 12 11  2  0  0  0  0
 13 14  1  0  0  0  0
 13  9  1  0  0  0  0
 13 38  1  0  0  0  0
 14 15  1  0  0  0  0
 15 16  1  0  0  0  0
 15 20  1  0  0  0  0
 16 17  2  0  0  0  0
 18 41  1  0  0  0  0
 18 16  1  0  0  0  0
 19  9  1  0  0  0  0
 19 18  1  0  0  0  0
 20 46  1  0  0  0  0
 20 45  1  0  0  0  0
 21 20  1  0  0  0  0
 21 22  2  0  0  0  0
 23 21  1  0  0  0  0
 24 23  1  0  0  0  0
 24 48  1  0  0  0  0
 25 26  1  0  0  0  0
 25 50  1  0  0  0  0
 25 24  1  0  0  0  0
 26 29  1  0  0  0  0
 27 26  1  0  0  0  0
 27 51  1  0  0  0  0
 29 55  1  0  0  0  0
 29 31  1  0  0  0  0
 30 58  1  0  0  0  0
 30 29  1  0  0  0  0
 31 61  1  0  0  0  0
 31 60  1  0  0  0  0
 32  3  1  0  0  0  0
 36 10  1  0  0  0  0
 37 13  1  0  0  0  0
 39 14  1  0  0  0  0
 40 14  1  0  0  0  0
 42 18  1  0  0  0  0
 43 19  1  0  0  0  0
 44 19  1  0  0  0  0
 47 24  1  0  0  0  0
 49 25  1  0  0  0  0
 52 27  1  0  0  0  0
 53 28  1  0  0  0  0
 54 28  1  0  0  0  0
 56 30  1  0  0  0  0
 57 30  1  0  0  0  0
 59 31  1  0  0  0  0
M  END
>  <Pose>
1

>  <Score>
-4.68

$$$$
