
 OpenBabel03232203513D

 52 55  0  0  0  0  0  0  0  0999 V2000
    3.2140    8.6560  -15.3410 Cl  0  0  0  0  0  0  0  0  0  0  0  0
    2.8250   10.0430  -14.3740 C   0  0  0  0  0  0  0  0  0  0  0  0
    1.5470   10.5150  -14.1830 C   0  0  0  0  0  0  0  0  0  0  0  0
    1.2580   11.6190  -13.4050 C   0  0  0  0  0  0  0  0  0  0  0  0
    2.2630   12.3060  -12.7760 C   0  0  0  0  0  0  0  0  0  0  0  0
    3.5450   11.8220  -12.9760 C   0  0  0  0  0  0  0  0  0  0  0  0
    3.8530   10.7230  -13.7480 C   0  0  0  0  0  0  0  0  0  0  0  0
    2.0810   13.4300  -11.9300 N   0  0  0  0  0  0  0  0  0  0  0  0
    2.6870   13.6800  -10.8020 N   0  0  0  0  0  0  0  0  0  0  0  0
    2.2750   14.8200  -10.2360 C   0  0  0  0  0  0  0  0  0  0  0  0
    1.3110   15.3570  -11.0790 C   0  0  0  0  0  0  0  0  0  0  0  0
    1.2190   14.4530  -12.1320 C   0  0  0  0  0  0  0  0  0  0  0  0
    0.3440   14.7560  -13.0960 N   0  0  0  0  0  0  0  0  0  0  0  0
   -0.4080   15.8770  -13.0450 C   0  0  0  0  0  0  0  0  0  0  0  0
   -0.3400   16.7670  -12.0420 N   0  0  0  0  0  0  0  0  0  0  0  0
    0.5390   16.4940  -11.0440 C   0  0  0  0  0  0  0  0  0  0  0  0
    0.6380   17.2990  -10.0840 O   0  0  0  0  0  0  0  0  0  0  0  0
   -1.1640   17.9780  -11.9760 C   0  0  0  0  0  0  0  0  0  0  0  0
   -2.5220   17.7540  -12.5040 C   0  0  0  0  0  0  0  0  0  0  0  0
   -2.5800   16.9540  -13.5040 O   0  0  0  0  0  0  0  0  0  0  0  0
   -3.7090   18.3080  -12.0330 N   0  0  0  0  0  0  0  0  0  0  0  0
   -4.4100   19.3570  -12.7900 C   0  0  0  0  0  0  0  0  0  0  0  0
   -4.3270   20.5930  -11.8840 C   0  0  0  0  0  0  0  0  0  0  0  0
   -4.8010   20.2780  -10.5620 N   0  0  0  0  0  0  0  0  0  0  0  0
   -5.3180   18.9400  -10.3380 C   0  0  0  0  0  0  0  0  0  0  0  0
   -4.3480   17.8860  -10.8060 C   0  0  0  0  0  0  0  0  0  0  0  0
   -4.7430   21.2220   -9.5150 C   0  0  0  0  0  0  0  0  0  0  0  0
   -3.8000   21.0900   -8.6490 O   0  0  0  0  0  0  0  0  0  0  0  0
   -5.6000   22.2830   -9.3260 O   0  0  0  0  0  0  0  0  0  0  0  0
   -6.9910   22.1810   -9.6880 C   0  0  0  0  0  0  0  0  0  0  0  0
   -7.7650   22.9040   -8.6010 C   0  0  0  0  0  0  0  0  0  0  0  0
    0.7590    9.9380  -14.6980 H   0  0  0  0  0  0  0  0  0  0  0  0
    0.2450   11.9550  -13.2850 H   0  0  0  0  0  0  0  0  0  0  0  0
    4.3710   12.3610  -12.4820 H   0  0  0  0  0  0  0  0  0  0  0  0
    4.8970   10.4320  -13.8340 H   0  0  0  0  0  0  0  0  0  0  0  0
    2.5580   15.3120   -9.3230 H   0  0  0  0  0  0  0  0  0  0  0  0
   -1.1210   16.1040  -13.8480 H   0  0  0  0  0  0  0  0  0  0  0  0
   -0.6940   18.7820  -12.6220 H   0  0  0  0  0  0  0  0  0  0  0  0
   -1.1550   18.3180  -10.9280 H   0  0  0  0  0  0  0  0  0  0  0  0
   -5.4510   19.0720  -12.9980 H   0  0  0  0  0  0  0  0  0  0  0  0
   -3.8230   19.5690  -13.6810 H   0  0  0  0  0  0  0  0  0  0  0  0
   -4.8650   21.4070  -12.3920 H   0  0  0  0  0  0  0  0  0  0  0  0
   -3.2410   20.9070  -11.8410 H   0  0  0  0  0  0  0  0  0  0  0  0
   -6.2890   18.8800  -10.8460 H   0  0  0  0  0  0  0  0  0  0  0  0
   -5.4490   18.8100   -9.2290 H   0  0  0  0  0  0  0  0  0  0  0  0
   -4.9980   17.0040  -11.0990 H   0  0  0  0  0  0  0  0  0  0  0  0
   -3.6200   17.5680  -10.0430 H   0  0  0  0  0  0  0  0  0  0  0  0
   -7.1480   22.7440  -10.6620 H   0  0  0  0  0  0  0  0  0  0  0  0
   -7.3500   21.1720   -9.7940 H   0  0  0  0  0  0  0  0  0  0  0  0
   -8.5400   23.5800   -8.9710 H   0  0  0  0  0  0  0  0  0  0  0  0
   -8.1600   22.0980   -7.9120 H   0  0  0  0  0  0  0  0  0  0  0  0
   -7.0560   23.4830   -7.9970 H   0  0  0  0  0  0  0  0  0  0  0  0
  1  2  1  0  0  0  0
  2  3  2  0  0  0  0
  2  7  1  0  0  0  0
  3  4  1  0  0  0  0
  4 33  1  0  0  0  0
  4  5  2  0  0  0  0
  5  8  1  0  0  0  0
  6  5  1  0  0  0  0
  6 34  1  0  0  0  0
  7  6  2  0  0  0  0
  8  9  1  0  0  0  0
  9 10  2  0  0  0  0
 10 36  1  0  0  0  0
 11 16  1  0  0  0  0
 11 10  1  0  0  0  0
 12  8  1  0  0  0  0
 12 11  2  0  0  0  0
 13 14  2  0  0  0  0
 13 12  1  0  0  0  0
 14 15  1  0  0  0  0
 15 18  1  0  0  0  0
 15 16  1  0  0  0  0
 16 17  2  0  0  0  0
 18 39  1  0  0  0  0
 19 21  1  0  0  0  0
 19 18  1  0  0  0  0
 20 19  2  0  0  0  0
 21 26  1  0  0  0  0
 22 21  1  0  0  0  0
 22 23  1  0  0  0  0
 23 43  1  0  0  0  0
 23 24  1  0  0  0  0
 24 25  1  0  0  0  0
 24 27  1  0  0  0  0
 25 45  1  0  0  0  0
 26 25  1  0  0  0  0
 26 47  1  0  0  0  0
 27 29  1  0  0  0  0
 27 28  2  0  0  0  0
 30 29  1  0  0  0  0
 30 31  1  0  0  0  0
 31 52  1  0  0  0  0
 31 51  1  0  0  0  0
 32  3  1  0  0  0  0
 35  7  1  0  0  0  0
 37 14  1  0  0  0  0
 38 18  1  0  0  0  0
 40 22  1  0  0  0  0
 41 22  1  0  0  0  0
 42 23  1  0  0  0  0
 44 25  1  0  0  0  0
 46 26  1  0  0  0  0
 48 30  1  0  0  0  0
 49 30  1  0  0  0  0
 50 31  1  0  0  0  0
M  END
>  <Pose>
1

>  <Score>
-5.67

$$$$
