
 OpenBabel03232203513D

 37 40  0  0  0  0  0  0  0  0999 V2000
   -2.3140   10.6350  -13.8920 B   0  0  0  0  0  0  0  0  0  0  0  0
   -0.6790   11.5160  -13.4370 C   0  0  0  0  0  0  0  0  0  0  0  0
    0.4970   10.8030  -13.3370 C   0  0  0  0  0  0  0  0  0  0  0  0
    1.6830   11.4180  -13.0110 C   0  0  0  0  0  0  0  0  0  0  0  0
    2.9560   10.9850  -12.8450 N   0  0  0  0  0  0  0  0  0  0  0  0
    3.6940   12.0340  -12.5300 N   0  0  0  0  0  0  0  0  0  0  0  0
    2.9800   13.1240  -12.4800 N   0  0  0  0  0  0  0  0  0  0  0  0
    1.7000   12.7710  -12.7790 C   0  0  0  0  0  0  0  0  0  0  0  0
    0.5230   13.4920  -12.8770 C   0  0  0  0  0  0  0  0  0  0  0  0
   -0.6700   12.8670  -13.2070 C   0  0  0  0  0  0  0  0  0  0  0  0
    0.5690   14.9290  -12.6260 C   0  0  0  0  0  0  0  0  0  0  0  0
    1.6080   15.5520  -12.9130 O   0  0  0  0  0  0  0  0  0  0  0  0
   -0.5230   15.6410  -12.0680 N   0  0  0  0  0  0  0  0  0  0  0  0
   -0.5320   17.0820  -12.0190 C   0  0  0  0  0  0  0  0  0  0  0  0
   -1.8670   17.5770  -12.5070 C   0  0  0  0  0  0  0  0  0  0  0  0
   -2.8010   18.2230  -11.7900 N   0  0  0  0  0  0  0  0  0  0  0  0
   -3.8730   18.5150  -12.5570 C   0  0  0  0  0  0  0  0  0  0  0  0
   -3.5930   18.0390  -13.7770 N   0  0  0  0  0  0  0  0  0  0  0  0
   -2.3790   17.4700  -13.7490 N   0  0  0  0  0  0  0  0  0  0  0  0
   -4.9890   19.2350  -11.8860 C   0  0  0  0  0  0  0  0  0  0  0  0
   -4.3320   20.4730  -11.2570 C   0  0  0  0  0  0  0  0  0  0  0  0
   -3.1780   20.1240  -10.3750 C   0  0  0  0  0  0  0  0  0  0  0  0
   -2.8660   18.6430  -10.4080 C   0  0  0  0  0  0  0  0  0  0  0  0
    0.4900    9.7390  -13.5180 H   0  0  0  0  0  0  0  0  0  0  0  0
    3.2340   14.1100  -12.2660 H   0  0  0  0  0  0  0  0  0  0  0  0
   -1.5650   13.4770  -13.2710 H   0  0  0  0  0  0  0  0  0  0  0  0
   -1.3310   15.1210  -11.6880 H   0  0  0  0  0  0  0  0  0  0  0  0
   -0.2720   17.4750  -11.0380 H   0  0  0  0  0  0  0  0  0  0  0  0
    0.2310   17.4330  -12.7670 H   0  0  0  0  0  0  0  0  0  0  0  0
   -5.4610   18.6020  -11.1250 H   0  0  0  0  0  0  0  0  0  0  0  0
   -5.7160   19.6470  -12.6300 H   0  0  0  0  0  0  0  0  0  0  0  0
   -3.9530   21.0610  -12.1150 H   0  0  0  0  0  0  0  0  0  0  0  0
   -5.0850   21.0940  -10.7370 H   0  0  0  0  0  0  0  0  0  0  0  0
   -3.3190   20.4700   -9.3220 H   0  0  0  0  0  0  0  0  0  0  0  0
   -2.2650   20.6430  -10.7280 H   0  0  0  0  0  0  0  0  0  0  0  0
   -3.7250   18.1080   -9.9450 H   0  0  0  0  0  0  0  0  0  0  0  0
   -1.9340   18.4010   -9.8850 H   0  0  0  0  0  0  0  0  0  0  0  0
  1  2  1  0  0  0  0
  2  3  2  0  0  0  0
  2 10  1  0  0  0  0
  3  4  1  0  0  0  0
  4  5  1  0  0  0  0
  4  8  2  0  0  0  0
  5  6  2  0  0  0  0
  6  7  1  0  0  0  0
  7 25  1  0  0  0  0
  8  7  1  0  0  0  0
  9  8  1  0  0  0  0
  9 11  1  0  0  0  0
 10  9  2  0  0  0  0
 11 13  1  0  0  0  0
 12 11  2  0  0  0  0
 13 14  1  0  0  0  0
 13 27  1  0  0  0  0
 14 28  1  0  0  0  0
 15 14  1  0  0  0  0
 15 16  1  0  0  0  0
 16 23  1  0  0  0  0
 17 20  1  0  0  0  0
 17 16  1  0  0  0  0
 18 19  1  0  0  0  0
 18 17  2  0  0  0  0
 19 15  2  0  0  0  0
 20 21  1  0  0  0  0
 20 30  1  0  0  0  0
 21 33  1  0  0  0  0
 21 22  1  0  0  0  0
 22 34  1  0  0  0  0
 23 22  1  0  0  0  0
 23 36  1  0  0  0  0
 23 37  1  0  0  0  0
 24  3  1  0  0  0  0
 26 10  1  0  0  0  0
 29 14  1  0  0  0  0
 31 20  1  0  0  0  0
 32 21  1  0  0  0  0
 35 22  1  0  0  0  0
M  END
>  <Pose>
1

>  <Score>
-6.82

$$$$
