
 OpenBabel03232203513D

 49 52  0  0  1  0  0  0  0  0999 V2000
   -4.2220   20.4270   -9.9990 Cl  0  0  0  0  0  0  0  0  0  0  0  0
   -3.5910   19.3910  -11.2560 C   0  0  0  0  0  0  0  0  0  0  0  0
   -2.5200   18.5480  -10.9900 C   0  0  0  0  0  0  0  0  0  0  0  0
   -2.0100   17.7200  -11.9750 C   0  0  0  0  0  0  0  0  0  0  0  0
   -1.0140   16.8220  -12.0310 N   0  0  0  0  0  0  0  0  0  0  0  0
   -0.9210   16.2650  -13.2700 C   0  0  0  0  0  0  0  0  0  0  0  0
   -1.9110   16.8620  -13.9860 N   0  0  0  0  0  0  0  0  0  0  0  0
   -2.5770   17.7400  -13.2260 C   0  0  0  0  0  0  0  0  0  0  0  0
   -3.6400   18.5790  -13.4840 C   0  0  0  0  0  0  0  0  0  0  0  0
   -4.1640   19.4150  -12.5090 C   0  0  0  0  0  0  0  0  0  0  0  0
    0.0540   15.2350  -13.6760 C   0  0  0  0  0  0  0  0  0  0  0  0
    0.0860   14.0960  -12.7020 C   0  0  0  0  0  0  0  0  0  0  0  0
    0.4690   12.8430  -13.3860 C   0  0  0  0  0  0  0  0  0  0  0  0
   -0.0180   12.6100  -14.5190 O   0  0  0  0  0  0  0  0  0  0  0  0
    1.3540   11.8970  -12.8280 N   0  0  0  0  0  0  0  0  0  0  0  0
    1.1540   10.9200  -11.7770 C   0  0  0  0  0  0  0  0  0  0  0  0
    1.8790    9.7450  -12.2620 C   0  0  2  0  0  0  0  0  0  0  0  0
    2.7220   10.1940  -13.4580 C   0  0  1  0  0  0  0  0  0  0  0  0
    2.7260   11.7210  -13.2300 C   0  0  0  0  0  0  0  0  0  0  0  0
    3.9990    9.6930  -13.4380 O   0  0  0  0  0  0  0  0  0  0  0  0
    1.2220    8.5240  -12.5230 N   0  0  0  0  0  0  0  0  0  0  0  0
    1.5490    7.4570  -11.7460 C   0  0  0  0  0  0  0  0  0  0  0  0
    0.9620    6.2240  -11.9200 C   0  0  0  0  0  0  0  0  0  0  0  0
    0.0130    6.0400  -12.8980 C   0  0  0  0  0  0  0  0  0  0  0  0
   -0.5430    4.9150  -13.0800 O   0  0  0  0  0  0  0  0  0  0  0  0
   -0.3100    7.0930  -13.6640 N   0  0  0  0  0  0  0  0  0  0  0  0
    0.2930    8.2640  -13.4490 C   0  0  0  0  0  0  0  0  0  0  0  0
   -0.0480    9.2090  -14.1890 O   0  0  0  0  0  0  0  0  0  0  0  0
    1.3330    5.0560  -11.0550 C   0  0  0  0  0  0  0  0  0  0  0  0
   -2.0580   18.5180  -10.0090 H   0  0  0  0  0  0  0  0  0  0  0  0
   -0.4140   16.6160  -11.1940 H   0  0  0  0  0  0  0  0  0  0  0  0
   -4.1110   18.6230  -14.4530 H   0  0  0  0  0  0  0  0  0  0  0  0
   -4.9950   20.0570  -12.7430 H   0  0  0  0  0  0  0  0  0  0  0  0
    1.0660   15.7050  -13.6930 H   0  0  0  0  0  0  0  0  0  0  0  0
   -0.2000   14.8510  -14.7080 H   0  0  0  0  0  0  0  0  0  0  0  0
    0.9160   14.2900  -11.9590 H   0  0  0  0  0  0  0  0  0  0  0  0
   -0.8290   14.0200  -12.0970 H   0  0  0  0  0  0  0  0  0  0  0  0
    0.1110   10.8300  -11.4620 H   0  0  0  0  0  0  0  0  0  0  0  0
    1.6710   11.3800  -10.8790 H   0  0  0  0  0  0  0  0  0  0  0  0
    2.6750    9.4840  -11.4900 H   0  0  0  0  0  0  0  0  0  0  0  0
    2.2080   10.0450  -14.4230 H   0  0  0  0  0  0  0  0  0  0  0  0
    2.9850   12.2590  -14.1650 H   0  0  0  0  0  0  0  0  0  0  0  0
    3.4490   11.9150  -12.4110 H   0  0  0  0  0  0  0  0  0  0  0  0
    4.5210   10.2030  -12.7690 H   0  0  0  0  0  0  0  0  0  0  0  0
    2.2790    7.5130  -10.9540 H   0  0  0  0  0  0  0  0  0  0  0  0
   -1.0410    6.9770  -14.4320 H   0  0  0  0  0  0  0  0  0  0  0  0
    2.2010    5.3300  -10.3980 H   0  0  0  0  0  0  0  0  0  0  0  0
    0.4850    4.6890  -10.4850 H   0  0  0  0  0  0  0  0  0  0  0  0
    1.6980    4.2260  -11.7190 H   0  0  0  0  0  0  0  0  0  0  0  0
  2  3  1  0  0  0  0
  2  1  1  0  0  0  0
  3 30  1  0  0  0  0
  4  3  2  0  0  0  0
  5  4  1  0  0  0  0
  5 31  1  0  0  0  0
  6  5  1  0  0  0  0
  7  6  2  0  0  0  0
  7  8  1  0  0  0  0
  8  4  1  0  0  0  0
  9  8  2  0  0  0  0
  9 10  1  0  0  0  0
 10  2  2  0  0  0  0
 11  6  1  0  0  0  0
 11 12  1  0  0  0  0
 12 37  1  0  0  0  0
 12 36  1  0  0  0  0
 13 15  1  0  0  0  0
 13 12  1  0  0  0  0
 14 13  2  0  0  0  0
 15 16  1  0  0  0  0
 16 38  1  0  0  0  0
 16 39  1  0  0  0  0
 17 16  1  0  0  0  0
 17 40  1  1  0  0  0
 18 41  1  6  0  0  0
 18 20  1  0  0  0  0
 18 19  1  0  0  0  0
 18 17  1  0  0  0  0
 19 15  1  0  0  0  0
 19 43  1  0  0  0  0
 20 44  1  0  0  0  0
 21 17  1  0  0  0  0
 21 22  1  0  0  0  0
 22 45  1  0  0  0  0
 23 22  2  0  0  0  0
 23 29  1  0  0  0  0
 24 23  1  0  0  0  0
 25 24  2  0  0  0  0
 26 27  1  0  0  0  0
 26 24  1  0  0  0  0
 27 21  1  0  0  0  0
 28 27  2  0  0  0  0
 29 48  1  0  0  0  0
 29 47  1  0  0  0  0
 32  9  1  0  0  0  0
 33 10  1  0  0  0  0
 34 11  1  0  0  0  0
 35 11  1  0  0  0  0
 42 19  1  0  0  0  0
 46 26  1  0  0  0  0
 49 29  1  0  0  0  0
M  END
>  <Pose>
1

>  <Score>
-7.08

$$$$
