
 OpenBabel03232203513D

 55 58  0  0  1  0  0  0  0  0999 V2000
   -4.4480   20.4320  -10.1170 Cl  0  0  0  0  0  0  0  0  0  0  0  0
   -3.6180   19.3250  -11.1860 C   0  0  0  0  0  0  0  0  0  0  0  0
   -2.5600   18.5390  -10.7620 C   0  0  0  0  0  0  0  0  0  0  0  0
   -1.9130   17.6720  -11.6100 C   0  0  0  0  0  0  0  0  0  0  0  0
   -0.8900   16.8230  -11.4530 N   0  0  0  0  0  0  0  0  0  0  0  0
   -0.6200   16.1770  -12.6210 C   0  0  0  0  0  0  0  0  0  0  0  0
   -1.5030   16.6550  -13.4850 N   0  0  0  0  0  0  0  0  0  0  0  0
   -2.3060   17.5620  -12.9210 C   0  0  0  0  0  0  0  0  0  0  0  0
   -3.3560   18.3340  -13.3670 C   0  0  0  0  0  0  0  0  0  0  0  0
   -4.0080   19.2090  -12.5080 C   0  0  0  0  0  0  0  0  0  0  0  0
    0.4440   15.1590  -12.7970 C   0  0  0  0  0  0  0  0  0  0  0  0
    0.9490   14.7450  -11.4450 C   0  0  0  0  0  0  0  0  0  0  0  0
    1.9470   13.6730  -11.6000 C   0  0  0  0  0  0  0  0  0  0  0  0
    2.8610   13.5190  -10.7510 O   0  0  0  0  0  0  0  0  0  0  0  0
    1.8540   12.8180  -12.7390 N   0  0  0  0  0  0  0  0  0  0  0  0
    0.6730   12.7000  -13.5650 C   0  0  0  0  0  0  0  0  0  0  0  0
    0.4890   11.2450  -14.0310 C   0  0  1  0  0  0  0  0  0  0  0  0
    1.1510   10.3890  -13.0070 C   0  0  2  0  0  0  0  0  0  0  0  0
    2.6500   10.5380  -13.1250 C   0  0  0  0  0  0  0  0  0  0  0  0
    3.0000   12.0120  -13.1020 C   0  0  0  0  0  0  0  0  0  0  0  0
    0.7200    9.0360  -12.9490 N   0  0  0  0  0  0  0  0  0  0  0  0
    1.5270    8.0100  -12.6430 C   0  0  0  0  0  0  0  0  0  0  0  0
    1.0700    6.6990  -12.5960 C   0  0  0  0  0  0  0  0  0  0  0  0
   -0.2530    6.4430  -12.8720 C   0  0  0  0  0  0  0  0  0  0  0  0
   -0.6760    5.2460  -12.8300 O   0  0  0  0  0  0  0  0  0  0  0  0
   -1.0580    7.4700  -13.1780 N   0  0  0  0  0  0  0  0  0  0  0  0
   -0.5670    8.7210  -13.2100 C   0  0  0  0  0  0  0  0  0  0  0  0
   -1.3390    9.7010  -13.5030 O   0  0  0  0  0  0  0  0  0  0  0  0
    2.0230    5.5900  -12.2460 C   0  0  0  0  0  0  0  0  0  0  0  0
   -0.8990   11.0490  -14.0780 O   0  0  0  0  0  0  0  0  0  0  0  0
    1.0620   11.1550  -15.4100 C   0  0  0  0  0  0  0  0  0  0  0  0
   -2.2740   18.6490   -9.7250 H   0  0  0  0  0  0  0  0  0  0  0  0
   -0.3450   16.6530  -10.5630 H   0  0  0  0  0  0  0  0  0  0  0  0
   -3.6500   18.2340  -14.3960 H   0  0  0  0  0  0  0  0  0  0  0  0
   -4.8260   19.7970  -12.8960 H   0  0  0  0  0  0  0  0  0  0  0  0
    1.3150   15.6170  -13.3320 H   0  0  0  0  0  0  0  0  0  0  0  0
    0.0720   14.2590  -13.3290 H   0  0  0  0  0  0  0  0  0  0  0  0
    1.3950   15.6280  -10.9200 H   0  0  0  0  0  0  0  0  0  0  0  0
    0.1020   14.4410  -10.7820 H   0  0  0  0  0  0  0  0  0  0  0  0
   -0.2180   13.0740  -13.0640 H   0  0  0  0  0  0  0  0  0  0  0  0
    0.8510   13.3710  -14.4560 H   0  0  0  0  0  0  0  0  0  0  0  0
    0.8920   10.8460  -12.0040 H   0  0  0  0  0  0  0  0  0  0  0  0
    3.1710   10.0940  -12.2330 H   0  0  0  0  0  0  0  0  0  0  0  0
    3.0800   10.0240  -13.9980 H   0  0  0  0  0  0  0  0  0  0  0  0
    3.8570   12.2310  -12.4370 H   0  0  0  0  0  0  0  0  0  0  0  0
    3.2700   12.3100  -14.1580 H   0  0  0  0  0  0  0  0  0  0  0  0
    2.5540    8.2340  -12.4310 H   0  0  0  0  0  0  0  0  0  0  0  0
   -2.0610    7.2890  -13.3890 H   0  0  0  0  0  0  0  0  0  0  0  0
    1.6580    4.6760  -12.7940 H   0  0  0  0  0  0  0  0  0  0  0  0
    2.9890    5.8560  -12.7020 H   0  0  0  0  0  0  0  0  0  0  0  0
    2.0510    5.4070  -11.1690 H   0  0  0  0  0  0  0  0  0  0  0  0
   -1.1010   10.3060  -14.7330 H   0  0  0  0  0  0  0  0  0  0  0  0
    1.5010   12.1330  -15.7670 H   0  0  0  0  0  0  0  0  0  0  0  0
    0.2580   10.9460  -16.1760 H   0  0  0  0  0  0  0  0  0  0  0  0
    1.8240   10.3930  -15.5590 H   0  0  0  0  0  0  0  0  0  0  0  0
  2  3  1  0  0  0  0
  2  1  1  0  0  0  0
  3 32  1  0  0  0  0
  4  5  1  0  0  0  0
  4  3  2  0  0  0  0
  5 33  1  0  0  0  0
  6  5  1  0  0  0  0
  7  8  1  0  0  0  0
  7  6  2  0  0  0  0
  8  4  1  0  0  0  0
  9  8  2  0  0  0  0
  9 10  1  0  0  0  0
 10  2  2  0  0  0  0
 11  6  1  0  0  0  0
 11 12  1  0  0  0  0
 12 38  1  0  0  0  0
 12 39  1  0  0  0  0
 13 12  1  0  0  0  0
 13 14  2  0  0  0  0
 15 13  1  0  0  0  0
 16 40  1  0  0  0  0
 16 15  1  0  0  0  0
 17 30  1  6  0  0  0
 17 16  1  0  0  0  0
 17 18  1  0  0  0  0
 18 21  1  0  0  0  0
 18 42  1  1  0  0  0
 19 20  1  0  0  0  0
 19 18  1  0  0  0  0
 19 43  1  0  0  0  0
 20 15  1  0  0  0  0
 20 45  1  0  0  0  0
 21 22  1  0  0  0  0
 22 23  2  0  0  0  0
 22 47  1  0  0  0  0
 23 29  1  0  0  0  0
 24 25  2  0  0  0  0
 24 23  1  0  0  0  0
 26 24  1  0  0  0  0
 27 26  1  0  0  0  0
 27 21  1  0  0  0  0
 28 27  2  0  0  0  0
 29 51  1  0  0  0  0
 31 17  1  0  0  0  0
 34  9  1  0  0  0  0
 35 10  1  0  0  0  0
 36 11  1  0  0  0  0
 37 11  1  0  0  0  0
 41 16  1  0  0  0  0
 44 19  1  0  0  0  0
 46 20  1  0  0  0  0
 48 26  1  0  0  0  0
 49 29  1  0  0  0  0
 50 29  1  0  0  0  0
 52 30  1  0  0  0  0
 53 31  1  0  0  0  0
 54 31  1  0  0  0  0
 55 31  1  0  0  0  0
M  END
>  <Pose>
1

>  <Score>
-6.55

$$$$
