
 OpenBabel03232203513D

 55 59  0  0  1  0  0  0  0  0999 V2000
   -5.7210   21.1400  -10.5540 Cl  0  0  0  0  0  0  0  0  0  0  0  0
   -4.2940   20.1450  -10.8140 C   0  0  0  0  0  0  0  0  0  0  0  0
   -4.2450   19.2000  -11.8120 C   0  0  0  0  0  0  0  0  0  0  0  0
   -3.0940   18.4300  -11.9850 C   0  0  0  0  0  0  0  0  0  0  0  0
   -2.7550   17.4580  -12.8490 N   0  0  0  0  0  0  0  0  0  0  0  0
   -1.5080   17.0160  -12.6100 C   0  0  0  0  0  0  0  0  0  0  0  0
   -1.0600   17.7290  -11.5760 N   0  0  0  0  0  0  0  0  0  0  0  0
   -2.0000   18.6050  -11.1660 C   0  0  0  0  0  0  0  0  0  0  0  0
   -2.0500   19.5520  -10.1650 C   0  0  0  0  0  0  0  0  0  0  0  0
   -3.2070   20.3150  -10.0020 C   0  0  0  0  0  0  0  0  0  0  0  0
   -0.8240   15.9340  -13.3910 C   0  0  0  0  0  0  0  0  0  0  0  0
   -0.0080   15.0850  -12.4430 C   0  0  0  0  0  0  0  0  0  0  0  0
   -0.0820   13.6670  -12.8280 C   0  0  0  0  0  0  0  0  0  0  0  0
   -1.1640   13.0590  -12.7140 O   0  0  0  0  0  0  0  0  0  0  0  0
    1.0520   13.0020  -13.3190 N   0  0  0  0  0  0  0  0  0  0  0  0
    1.2970   12.3220  -14.5520 C   0  0  0  0  0  0  0  0  0  0  0  0
    2.0950   11.0600  -14.1450 C   0  0  1  0  0  0  0  0  0  0  0  0
    2.8850   11.6160  -13.0130 C   0  0  2  0  0  0  0  0  0  0  0  0
    2.2950   12.9150  -12.5760 C   0  0  0  0  0  0  0  0  0  0  0  0
    4.2170   11.8650  -13.3390 O   0  0  0  0  0  0  0  0  0  0  0  0
    1.1670   10.0300  -13.7730 N   0  0  0  0  0  0  0  0  0  0  0  0
    1.4330    8.7600  -13.4260 C   0  0  0  0  0  0  0  0  0  0  0  0
    0.2170    8.1080  -13.1380 C   0  0  0  0  0  0  0  0  0  0  0  0
   -0.7480    9.0220  -13.3280 N   0  0  0  0  0  0  0  0  0  0  0  0
   -0.1990   10.1740  -13.7060 C   0  0  0  0  0  0  0  0  0  0  0  0
    0.1890    6.7860  -12.7530 C   0  0  0  0  0  0  0  0  0  0  0  0
   -0.9130    6.2300  -12.5030 O   0  0  0  0  0  0  0  0  0  0  0  0
    1.3580    6.1420  -12.6580 N   0  0  0  0  0  0  0  0  0  0  0  0
    2.5040    6.7670  -12.9320 C   0  0  0  0  0  0  0  0  0  0  0  0
    3.5960    6.1460  -12.8390 O   0  0  0  0  0  0  0  0  0  0  0  0
    2.5900    8.0760  -13.3190 N   0  0  0  0  0  0  0  0  0  0  0  0
    3.8540    8.6820  -13.5970 C   0  0  0  0  0  0  0  0  0  0  0  0
    1.3610    4.7350  -12.2500 C   0  0  0  0  0  0  0  0  0  0  0  0
   -5.0880   19.0490  -12.4630 H   0  0  0  0  0  0  0  0  0  0  0  0
   -3.4080   17.1100  -13.6020 H   0  0  0  0  0  0  0  0  0  0  0  0
   -1.2090   19.7100   -9.5080 H   0  0  0  0  0  0  0  0  0  0  0  0
   -3.2530   21.0650   -9.2130 H   0  0  0  0  0  0  0  0  0  0  0  0
   -0.1810   16.4200  -14.1480 H   0  0  0  0  0  0  0  0  0  0  0  0
   -1.5680   15.3040  -13.9210 H   0  0  0  0  0  0  0  0  0  0  0  0
   -0.3040   15.2760  -11.4020 H   0  0  0  0  0  0  0  0  0  0  0  0
    1.0490   15.4750  -12.5260 H   0  0  0  0  0  0  0  0  0  0  0  0
    1.9980   12.9980  -15.1310 H   0  0  0  0  0  0  0  0  0  0  0  0
    0.4600   12.1170  -15.1950 H   0  0  0  0  0  0  0  0  0  0  0  0
    2.6580   10.8700  -15.0810 H   0  0  0  0  0  0  0  0  0  0  0  0
    2.7900   10.9270  -12.1230 H   0  0  0  0  0  0  0  0  0  0  0  0
    2.1270   12.9780  -11.4810 H   0  0  0  0  0  0  0  0  0  0  0  0
    2.9720   13.7680  -12.8740 H   0  0  0  0  0  0  0  0  0  0  0  0
    4.7830   11.0520  -13.2200 H   0  0  0  0  0  0  0  0  0  0  0  0
   -0.7040   11.0890  -13.9350 H   0  0  0  0  0  0  0  0  0  0  0  0
    4.3200    9.2060  -12.7390 H   0  0  0  0  0  0  0  0  0  0  0  0
    4.5780    7.7890  -13.7060 H   0  0  0  0  0  0  0  0  0  0  0  0
    3.9750    9.1540  -14.5760 H   0  0  0  0  0  0  0  0  0  0  0  0
    1.8100    4.6320  -11.2360 H   0  0  0  0  0  0  0  0  0  0  0  0
    0.3290    4.3420  -12.2480 H   0  0  0  0  0  0  0  0  0  0  0  0
    2.0110    4.1670  -12.9430 H   0  0  0  0  0  0  0  0  0  0  0  0
  2  1  1  0  0  0  0
  2 10  1  0  0  0  0
  3  2  2  0  0  0  0
  4  3  1  0  0  0  0
  4  8  2  0  0  0  0
  5  6  1  0  0  0  0
  5  4  1  0  0  0  0
  6  7  2  0  0  0  0
  7  8  1  0  0  0  0
  8  9  1  0  0  0  0
  9 10  2  0  0  0  0
  9 36  1  0  0  0  0
 10 37  1  0  0  0  0
 11  6  1  0  0  0  0
 11 12  1  0  0  0  0
 12 40  1  0  0  0  0
 13 14  2  0  0  0  0
 13 12  1  0  0  0  0
 15 13  1  0  0  0  0
 15 19  1  0  0  0  0
 16 17  1  0  0  0  0
 16 15  1  0  0  0  0
 17 44  1  6  0  0  0
 17 21  1  0  0  0  0
 17 18  1  0  0  0  0
 18 19  1  0  0  0  0
 18 45  1  1  0  0  0
 19 46  1  0  0  0  0
 20 48  1  0  0  0  0
 20 18  1  0  0  0  0
 21 25  1  0  0  0  0
 21 22  1  0  0  0  0
 22 31  1  0  0  0  0
 22 23  2  0  0  0  0
 23 26  1  0  0  0  0
 24 23  1  0  0  0  0
 25 24  2  0  0  0  0
 26 28  1  0  0  0  0
 26 27  2  0  0  0  0
 28 33  1  0  0  0  0
 29 30  2  0  0  0  0
 29 28  1  0  0  0  0
 31 29  1  0  0  0  0
 32 31  1  0  0  0  0
 32 50  1  0  0  0  0
 33 54  1  0  0  0  0
 33 53  1  0  0  0  0
 34  3  1  0  0  0  0
 35  5  1  0  0  0  0
 38 11  1  0  0  0  0
 39 11  1  0  0  0  0
 41 12  1  0  0  0  0
 42 16  1  0  0  0  0
 43 16  1  0  0  0  0
 47 19  1  0  0  0  0
 49 25  1  0  0  0  0
 51 32  1  0  0  0  0
 52 32  1  0  0  0  0
 55 33  1  0  0  0  0
M  END
>  <Pose>
1

>  <Score>
-7.89

$$$$
