
 OpenBabel03232203513D

 30 33  0  0  1  0  0  0  0  0999 V2000
    4.3530   12.7070  -13.5960 F   0  0  0  0  0  0  0  0  0  0  0  0
    3.4480   11.7570  -13.1860 C   0  0  0  0  0  0  0  0  0  0  0  0
    3.4480   10.5100  -13.8250 C   0  0  0  0  0  0  0  0  0  0  0  0
    2.5590    9.5560  -13.4330 C   0  0  0  0  0  0  0  0  0  0  0  0
    1.6510    9.8180  -12.3980 C   0  0  0  0  0  0  0  0  0  0  0  0
    1.6730   11.0440  -11.7910 C   0  0  0  0  0  0  0  0  0  0  0  0
    2.5610   12.0210  -12.1710 C   0  0  0  0  0  0  0  0  0  0  0  0
    2.5850   13.6040  -11.3820 Cl  0  0  0  0  0  0  0  0  0  0  0  0
    2.7700    8.3420  -14.2640 C   0  0  2  0  0  0  0  0  0  0  0  0
    1.5610    8.0280  -14.9580 N   0  0  0  0  0  0  0  0  0  0  0  0
    0.5670    7.2230  -14.3630 C   0  0  0  0  0  0  0  0  0  0  0  0
   -0.7050    7.1780  -14.8380 N   0  0  0  0  0  0  0  0  0  0  0  0
   -1.6830    6.4350  -14.3120 C   0  0  0  0  0  0  0  0  0  0  0  0
   -1.4090    5.6430  -13.2020 C   0  0  0  0  0  0  0  0  0  0  0  0
   -0.1540    5.6310  -12.6610 C   0  0  0  0  0  0  0  0  0  0  0  0
    0.8060    6.4220  -13.2560 C   0  0  0  0  0  0  0  0  0  0  0  0
    2.1810    6.4790  -12.7520 C   0  0  0  0  0  0  0  0  0  0  0  0
    2.4470    5.7570  -11.7320 O   0  0  0  0  0  0  0  0  0  0  0  0
    3.1670    7.2830  -13.3520 N   0  0  0  0  0  0  0  0  0  0  0  0
    3.8660    8.7020  -15.1700 C   0  0  0  0  0  0  0  0  0  0  0  0
    4.3980    7.9640  -16.0780 O   0  0  0  0  0  0  0  0  0  0  0  0
    4.2690   10.0190  -14.8920 N   0  0  0  0  0  0  0  0  0  0  0  0
    0.9480    9.0340  -12.1020 H   0  0  0  0  0  0  0  0  0  0  0  0
    0.9780   11.2590  -10.9910 H   0  0  0  0  0  0  0  0  0  0  0  0
    1.3800    8.3850  -15.9280 H   0  0  0  0  0  0  0  0  0  0  0  0
   -2.6890    6.4130  -14.7040 H   0  0  0  0  0  0  0  0  0  0  0  0
   -2.1760    5.0350  -12.7580 H   0  0  0  0  0  0  0  0  0  0  0  0
    0.1370    5.0400  -11.7990 H   0  0  0  0  0  0  0  0  0  0  0  0
    4.1650    7.0830  -13.1110 H   0  0  0  0  0  0  0  0  0  0  0  0
    5.0260   10.5950  -15.3480 H   0  0  0  0  0  0  0  0  0  0  0  0
  1  2  1  0  0  0  0
  2  7  1  0  0  0  0
  3  4  1  0  0  0  0
  3  2  2  0  0  0  0
  4  5  2  0  0  0  0
  5 23  1  0  0  0  0
  5  6  1  0  0  0  0
  6 24  1  0  0  0  0
  7  6  2  0  0  0  0
  7  8  1  0  0  0  0
  9 20  1  6  0  0  0
  9  4  1  0  0  0  0
  9 19  1  0  0  0  0
 10 11  1  0  0  0  0
 10  9  1  0  0  0  0
 11 16  1  0  0  0  0
 12 11  2  0  0  0  0
 12 13  1  0  0  0  0
 13 14  2  0  0  0  0
 14 27  1  0  0  0  0
 14 15  1  0  0  0  0
 15 28  1  0  0  0  0
 16 17  1  0  0  0  0
 16 15  2  0  0  0  0
 17 18  2  0  0  0  0
 19 29  1  0  0  0  0
 19 17  1  0  0  0  0
 20 22  1  0  0  0  0
 21 20  2  0  0  0  0
 22  3  1  0  0  0  0
 25 10  1  0  0  0  0
 26 13  1  0  0  0  0
 30 22  1  0  0  0  0
M  END
>  <Pose>
1

>  <Score>
-4.57

$$$$
