
 OpenBabel03232203513D

 48 51  0  0  0  0  0  0  0  0999 V2000
    0.0470    8.0190  -13.5230 S   0  0  0  0  0  0  0  0  0  0  0  0
    0.1570    9.5210  -13.7500 O   0  0  0  0  0  0  0  0  0  0  0  0
   -0.6500    7.8740  -12.1830 O   0  0  0  0  0  0  0  0  0  0  0  0
   -0.9450    7.3700  -14.7120 N   0  0  0  0  0  0  0  0  0  0  0  0
   -2.0220    6.5550  -14.2720 C   0  0  0  0  0  0  0  0  0  0  0  0
   -3.3620    6.9940  -14.8060 C   0  0  0  0  0  0  0  0  0  0  0  0
   -3.4450    8.4200  -14.9840 N   0  0  0  0  0  0  0  0  0  0  0  0
   -2.3950    9.1050  -15.7000 C   0  0  0  0  0  0  0  0  0  0  0  0
   -1.2290    8.1760  -15.8420 C   0  0  0  0  0  0  0  0  0  0  0  0
   -4.5260    9.1840  -14.4800 C   0  0  0  0  0  0  0  0  0  0  0  0
   -4.3100   10.3470  -14.0870 O   0  0  0  0  0  0  0  0  0  0  0  0
   -5.9010    8.6410  -14.4050 C   0  0  0  0  0  0  0  0  0  0  0  0
   -6.8730    9.6380  -14.7500 N   0  0  0  0  0  0  0  0  0  0  0  0
   -7.5860    9.8300  -15.9640 C   0  0  0  0  0  0  0  0  0  0  0  0
   -7.4610    9.1050  -16.9750 O   0  0  0  0  0  0  0  0  0  0  0  0
   -8.4560   10.9840  -15.8080 C   0  0  0  0  0  0  0  0  0  0  0  0
   -8.2950   11.4980  -14.5430 C   0  0  0  0  0  0  0  0  0  0  0  0
   -9.0300   12.6140  -14.1620 C   0  0  0  0  0  0  0  0  0  0  0  0
   -9.9130   13.2160  -15.0150 C   0  0  0  0  0  0  0  0  0  0  0  0
  -10.0860   12.7040  -16.3010 C   0  0  0  0  0  0  0  0  0  0  0  0
   -9.3430   11.5900  -16.6610 C   0  0  0  0  0  0  0  0  0  0  0  0
   -7.3080   10.6720  -13.8600 C   0  0  0  0  0  0  0  0  0  0  0  0
   -6.9450   10.8930  -12.6750 O   0  0  0  0  0  0  0  0  0  0  0  0
    1.6090    7.3080  -13.3780 C   0  0  0  0  0  0  0  0  0  0  0  0
    2.6820    7.8580  -14.0590 C   0  0  0  0  0  0  0  0  0  0  0  0
    3.9540    7.3290  -13.9780 C   0  0  0  0  0  0  0  0  0  0  0  0
    4.1410    6.2120  -13.1830 C   0  0  0  0  0  0  0  0  0  0  0  0
    3.0620    5.6740  -12.5110 C   0  0  0  0  0  0  0  0  0  0  0  0
    1.7860    6.1930  -12.5830 C   0  0  0  0  0  0  0  0  0  0  0  0
    5.8900    5.4220  -13.0250 B   0  0  0  0  0  0  0  0  0  0  0  0
   -1.8430    5.5180  -14.6830 H   0  0  0  0  0  0  0  0  0  0  0  0
   -2.0200    6.4430  -13.1670 H   0  0  0  0  0  0  0  0  0  0  0  0
   -4.1500    6.6450  -14.1130 H   0  0  0  0  0  0  0  0  0  0  0  0
   -3.5670    6.4730  -15.7780 H   0  0  0  0  0  0  0  0  0  0  0  0
   -2.7460    9.3420  -16.7470 H   0  0  0  0  0  0  0  0  0  0  0  0
   -2.1580   10.0450  -15.1780 H   0  0  0  0  0  0  0  0  0  0  0  0
   -0.3240    8.7130  -16.1800 H   0  0  0  0  0  0  0  0  0  0  0  0
   -1.4820    7.4770  -16.6940 H   0  0  0  0  0  0  0  0  0  0  0  0
   -6.0640    8.3220  -13.3390 H   0  0  0  0  0  0  0  0  0  0  0  0
   -6.0170    7.7490  -15.0630 H   0  0  0  0  0  0  0  0  0  0  0  0
   -8.8860   12.9960  -13.1710 H   0  0  0  0  0  0  0  0  0  0  0  0
  -10.4770   14.0710  -14.7250 H   0  0  0  0  0  0  0  0  0  0  0  0
  -10.7600   13.1340  -17.0070 H   0  0  0  0  0  0  0  0  0  0  0  0
   -9.4820   11.1980  -17.6610 H   0  0  0  0  0  0  0  0  0  0  0  0
    2.5760    8.7420  -14.6970 H   0  0  0  0  0  0  0  0  0  0  0  0
    4.8110    7.7380  -14.4980 H   0  0  0  0  0  0  0  0  0  0  0  0
    3.1920    4.7870  -11.8750 H   0  0  0  0  0  0  0  0  0  0  0  0
    0.9630    5.7290  -12.0310 H   0  0  0  0  0  0  0  0  0  0  0  0
  1 24  1  0  0  0  0
  1  3  2  0  0  0  0
  2  1  2  0  0  0  0
  4  5  1  0  0  0  0
  4  1  1  0  0  0  0
  5 32  1  0  0  0  0
  6  5  1  0  0  0  0
  6 33  1  0  0  0  0
  7  6  1  0  0  0  0
  7 10  1  0  0  0  0
  8 36  1  0  0  0  0
  8  7  1  0  0  0  0
  9  8  1  0  0  0  0
  9  4  1  0  0  0  0
 10 12  1  0  0  0  0
 10 11  2  0  0  0  0
 12 39  1  0  0  0  0
 13 12  1  0  0  0  0
 13 22  1  0  0  0  0
 14 16  1  0  0  0  0
 14 13  1  0  0  0  0
 15 14  2  0  0  0  0
 16 17  1  0  0  0  0
 17 18  2  0  0  0  0
 17 22  1  0  0  0  0
 18 41  1  0  0  0  0
 19 42  1  0  0  0  0
 19 18  1  0  0  0  0
 20 19  2  0  0  0  0
 21 20  1  0  0  0  0
 21 16  2  0  0  0  0
 22 23  2  0  0  0  0
 24 29  1  0  0  0  0
 25 26  1  0  0  0  0
 25 24  2  0  0  0  0
 26 27  2  0  0  0  0
 27 30  1  0  0  0  0
 27 28  1  0  0  0  0
 28 47  1  0  0  0  0
 29 28  2  0  0  0  0
 29 48  1  0  0  0  0
 31  5  1  0  0  0  0
 34  6  1  0  0  0  0
 35  8  1  0  0  0  0
 37  9  1  0  0  0  0
 38  9  1  0  0  0  0
 40 12  1  0  0  0  0
 43 20  1  0  0  0  0
 44 21  1  0  0  0  0
 45 25  1  0  0  0  0
 46 26  1  0  0  0  0
M  END
>  <Pose>
1

>  <Score>
-5.76

$$$$
