
 OpenBabel03232203513D

 51 55  0  0  1  0  0  0  0  0999 V2000
    6.8210    6.7570  -14.6760 Cl  0  0  0  0  0  0  0  0  0  0  0  0
    5.4600    6.6180  -13.5870 C   0  0  0  0  0  0  0  0  0  0  0  0
    4.2780    7.2600  -13.9580 C   0  0  0  0  0  0  0  0  0  0  0  0
    3.1840    7.1740  -13.1270 C   0  0  0  0  0  0  0  0  0  0  0  0
    3.3140    6.4430  -11.9450 C   0  0  0  0  0  0  0  0  0  0  0  0
    4.4860    5.8120  -11.5860 C   0  0  0  0  0  0  0  0  0  0  0  0
    5.5810    5.8980  -12.4200 C   0  0  0  0  0  0  0  0  0  0  0  0
    2.0490    7.9110  -13.6840 C   0  0  1  0  0  0  0  0  0  0  0  0
    0.8710    7.0830  -13.8600 N   0  0  0  0  0  0  0  0  0  0  0  0
   -0.2480    8.0160  -13.9010 C   0  0  2  0  0  0  0  0  0  0  0  0
    0.1180    9.1520  -12.9870 C   0  0  1  0  0  0  0  0  0  0  0  0
    1.6150    9.0720  -12.8180 C   0  0  2  0  0  0  0  0  0  0  0  0
    2.1510   10.3610  -13.3220 C   0  0  0  0  0  0  0  0  0  0  0  0
    3.3920   10.5600  -13.4430 O   0  0  0  0  0  0  0  0  0  0  0  0
    1.0770   11.2400  -13.6120 N   0  0  0  0  0  0  0  0  0  0  0  0
   -0.0960   10.4470  -13.7220 C   0  0  0  0  0  0  0  0  0  0  0  0
   -1.1750   10.7180  -14.3200 O   0  0  0  0  0  0  0  0  0  0  0  0
    1.1570   12.6480  -13.7600 C   0  0  0  0  0  0  0  0  0  0  0  0
    1.2770   13.4540  -12.5280 C   0  0  2  0  0  0  0  0  0  0  0  0
    0.9940   14.8040  -12.6740 O   0  0  0  0  0  0  0  0  0  0  0  0
    1.0850   15.2400  -11.3520 C   0  0  0  0  0  0  0  0  0  0  0  0
    2.3640   14.5880  -10.8130 C   0  0  0  0  0  0  0  0  0  0  0  0
    2.5900   13.4630  -11.8370 C   0  0  0  0  0  0  0  0  0  0  0  0
   -1.4920    7.3040  -13.4600 C   0  0  0  0  0  0  0  0  0  0  0  0
   -1.8490    6.3300  -14.5410 C   0  0  0  0  0  0  0  0  0  0  0  0
   -1.4760    5.1410  -14.3710 O   0  0  0  0  0  0  0  0  0  0  0  0
   -2.5680    6.7080  -15.7030 N   0  0  0  0  0  0  0  0  0  0  0  0
    2.5480    8.4580  -14.9550 C   0  0  0  0  0  0  0  0  0  0  0  0
    1.9020    9.1730  -15.8040 O   0  0  0  0  0  0  0  0  0  0  0  0
    3.8980    8.0450  -15.0820 N   0  0  0  0  0  0  0  0  0  0  0  0
    2.4840    6.3410  -11.2520 H   0  0  0  0  0  0  0  0  0  0  0  0
    4.5830    5.2450  -10.6690 H   0  0  0  0  0  0  0  0  0  0  0  0
    6.4930    5.3950  -12.1210 H   0  0  0  0  0  0  0  0  0  0  0  0
    0.7610    6.3880  -13.0880 H   0  0  0  0  0  0  0  0  0  0  0  0
   -0.3270    8.3630  -14.9450 H   0  0  0  0  0  0  0  0  0  0  0  0
   -0.4360    9.1150  -12.0470 H   0  0  0  0  0  0  0  0  0  0  0  0
    1.8720    8.9100  -11.7720 H   0  0  0  0  0  0  0  0  0  0  0  0
    2.0440   12.9250  -14.4060 H   0  0  0  0  0  0  0  0  0  0  0  0
    0.2900   13.0790  -14.3420 H   0  0  0  0  0  0  0  0  0  0  0  0
    0.5240   13.0620  -11.8010 H   0  0  0  0  0  0  0  0  0  0  0  0
    0.2490   14.8800  -10.7320 H   0  0  0  0  0  0  0  0  0  0  0  0
    1.1220   16.3380  -11.2710 H   0  0  0  0  0  0  0  0  0  0  0  0
    3.1580   15.3300  -10.8220 H   0  0  0  0  0  0  0  0  0  0  0  0
    2.1840   14.1250   -9.8140 H   0  0  0  0  0  0  0  0  0  0  0  0
    3.4510   13.7760  -12.4260 H   0  0  0  0  0  0  0  0  0  0  0  0
    2.8000   12.5180  -11.2840 H   0  0  0  0  0  0  0  0  0  0  0  0
   -2.2900    8.0730  -13.3590 H   0  0  0  0  0  0  0  0  0  0  0  0
   -1.3200    6.7980  -12.5040 H   0  0  0  0  0  0  0  0  0  0  0  0
   -2.7390    5.9840  -16.4280 H   0  0  0  0  0  0  0  0  0  0  0  0
   -2.9350    7.6640  -15.8770 H   0  0  0  0  0  0  0  0  0  0  0  0
    4.5390    8.2790  -15.8880 H   0  0  0  0  0  0  0  0  0  0  0  0
  1  2  1  0  0  0  0
  2  7  1  0  0  0  0
  3  2  2  0  0  0  0
  3  4  1  0  0  0  0
  4  5  2  0  0  0  0
  5  6  1  0  0  0  0
  5 31  1  0  0  0  0
  6 32  1  0  0  0  0
  7 33  1  0  0  0  0
  7  6  2  0  0  0  0
  8 28  1  6  0  0  0
  8  4  1  0  0  0  0
  8 12  1  0  0  0  0
  9  8  1  0  0  0  0
  9 34  1  0  0  0  0
 10 35  1  6  0  0  0
 10  9  1  0  0  0  0
 10 24  1  0  0  0  0
 10 11  1  0  0  0  0
 11 12  1  0  0  0  0
 11 36  1  1  0  0  0
 12 37  1  1  0  0  0
 13 12  1  0  0  0  0
 14 13  2  0  0  0  0
 15 13  1  0  0  0  0
 16 15  1  0  0  0  0
 16 11  1  0  0  0  0
 17 16  2  0  0  0  0
 18 15  1  0  0  0  0
 18 19  1  0  0  0  0
 19 23  1  0  0  0  0
 19 40  1  1  0  0  0
 20 19  1  0  0  0  0
 20 21  1  0  0  0  0
 21 42  1  0  0  0  0
 21 22  1  0  0  0  0
 21 41  1  0  0  0  0
 22 44  1  0  0  0  0
 23 46  1  0  0  0  0
 23 22  1  0  0  0  0
 24 47  1  0  0  0  0
 24 48  1  0  0  0  0
 25 26  2  0  0  0  0
 25 24  1  0  0  0  0
 27 25  1  0  0  0  0
 29 28  2  0  0  0  0
 30 28  1  0  0  0  0
 30  3  1  0  0  0  0
 38 18  1  0  0  0  0
 39 18  1  0  0  0  0
 43 22  1  0  0  0  0
 45 23  1  0  0  0  0
 49 27  1  0  0  0  0
 50 27  1  0  0  0  0
 51 30  1  0  0  0  0
M  END
>  <Pose>
1

>  <Score>
-4.74

$$$$
