
 OpenBabel03232203513D

 43 46  0  0  1  0  0  0  0  0999 V2000
    3.2450   11.6190  -13.6290 Cl  0  0  0  0  0  0  0  0  0  0  0  0
    2.5190   12.7180  -12.4860 C   0  0  0  0  0  0  0  0  0  0  0  0
    3.1120   13.0250  -11.3400 N   0  0  0  0  0  4  0  0  0  0  0  0
    2.6280   13.8560  -10.4110 C   0  0  0  0  0  0  0  0  0  0  0  0
    3.0400   14.3010   -9.2130 N   0  0  0  0  0  0  0  0  0  0  0  0
    2.1210   15.1450   -8.7150 C   0  0  0  0  0  0  0  0  0  0  0  0
    1.1310   15.2160   -9.6240 N   0  0  0  0  0  0  0  0  0  0  0  0
    1.3940   14.4400  -10.6870 C   0  0  1  0  0  0  0  0  0  0  0  0
    0.7710   14.1300  -11.8720 C   0  0  0  0  0  0  0  0  0  0  0  0
    1.3220   13.2860  -12.7550 N   0  0  0  0  0  0  0  0  0  0  0  0
   -0.5070   14.7610  -12.1190 N   0  0  0  0  0  0  0  0  0  0  0  0
   -0.7210   15.4350  -13.3440 C   0  0  0  0  0  0  0  0  0  0  0  0
   -1.2370   16.7920  -13.2490 C   0  0  0  0  0  0  0  0  0  0  0  0
   -0.5290   17.5500  -12.3840 O   0  0  0  0  0  0  0  0  0  0  0  0
   -2.2850   17.4210  -13.8620 N   0  0  0  0  0  0  0  0  0  0  0  0
   -2.2540   18.5330  -14.7490 C   0  0  0  0  0  0  0  0  0  0  0  0
   -2.9610   19.7500  -14.1570 C   0  0  0  0  0  0  0  0  0  0  0  0
   -4.0000   19.2200  -13.3210 N   0  0  0  0  0  0  0  0  0  0  0  0
   -4.6560   18.0190  -13.7510 C   0  0  0  0  0  0  0  0  0  0  0  0
   -3.6580   16.8760  -13.5390 C   0  0  0  0  0  0  0  0  0  0  0  0
   -4.3910   19.8300  -12.1170 C   0  0  0  0  0  0  0  0  0  0  0  0
   -5.5910   20.4670  -11.9880 N   0  0  0  0  0  0  0  0  0  0  0  0
   -6.0180   21.0600  -10.8880 C   0  0  0  0  0  0  0  0  0  0  0  0
   -5.2620   21.0860   -9.7490 C   0  0  0  0  0  0  0  0  0  0  0  0
   -4.0280   20.4560   -9.8100 C   0  0  0  0  0  0  0  0  0  0  0  0
   -3.6020   19.8390  -10.9760 C   0  0  0  0  0  0  0  0  0  0  0  0
    2.1350   15.6870   -7.7660 H   0  0  0  0  0  0  0  0  0  0  0  0
    0.2450   15.7850   -9.5630 H   0  0  0  0  0  0  0  0  0  0  0  0
   -1.2370   14.7200  -11.4030 H   0  0  0  0  0  0  0  0  0  0  0  0
    0.1970   15.3870  -14.0130 H   0  0  0  0  0  0  0  0  0  0  0  0
   -1.5370   14.8370  -13.8900 H   0  0  0  0  0  0  0  0  0  0  0  0
   -1.2620   18.8110  -15.0430 H   0  0  0  0  0  0  0  0  0  0  0  0
   -2.8660   18.2380  -15.6790 H   0  0  0  0  0  0  0  0  0  0  0  0
   -3.4400   20.3300  -14.9830 H   0  0  0  0  0  0  0  0  0  0  0  0
   -2.2350   20.3810  -13.6670 H   0  0  0  0  0  0  0  0  0  0  0  0
   -4.8920   18.0260  -14.8360 H   0  0  0  0  0  0  0  0  0  0  0  0
   -5.5400   17.8030  -13.1280 H   0  0  0  0  0  0  0  0  0  0  0  0
   -3.8810   16.0580  -14.2110 H   0  0  0  0  0  0  0  0  0  0  0  0
   -3.5920   16.5730  -12.4900 H   0  0  0  0  0  0  0  0  0  0  0  0
   -7.0010   21.5500  -10.8750 H   0  0  0  0  0  0  0  0  0  0  0  0
   -5.6140   21.5670   -8.8650 H   0  0  0  0  0  0  0  0  0  0  0  0
   -3.4040   20.4640   -8.9050 H   0  0  0  0  0  0  0  0  0  0  0  0
   -2.6510   19.3730  -10.9730 H   0  0  0  0  0  0  0  0  0  0  0  0
  1  2  1  0  0  0  0
  2  3  2  0  0  0  0
  3  4  2  0  0  0  0
  4  5  1  0  0  0  0
  5  6  2  0  0  0  0
  6 27  1  0  0  0  0
  7 28  1  0  0  0  0
  7  6  1  0  0  0  0
  8  9  1  6  0  0  0
  8  4  1  0  0  0  0
  8  7  1  0  0  0  0
 10  2  1  0  0  0  0
 10  9  2  0  0  0  0
 11  9  1  0  0  0  0
 11 29  1  0  0  0  0
 12 13  1  0  0  0  0
 12 11  1  0  0  0  0
 13 14  2  0  0  0  0
 15 20  1  0  0  0  0
 15 13  1  0  0  0  0
 16 17  1  0  0  0  0
 16 15  1  0  0  0  0
 17 35  1  0  0  0  0
 17 18  1  0  0  0  0
 18 21  1  0  0  0  0
 19 20  1  0  0  0  0
 19 18  1  0  0  0  0
 19 37  1  0  0  0  0
 20 39  1  0  0  0  0
 21 22  2  0  0  0  0
 21 26  1  0  0  0  0
 22 23  1  0  0  0  0
 23 40  1  0  0  0  0
 23 24  2  0  0  0  0
 24 41  1  0  0  0  0
 25 24  1  0  0  0  0
 25 42  1  0  0  0  0
 26 43  1  0  0  0  0
 26 25  2  0  0  0  0
 30 12  1  0  0  0  0
 31 12  1  0  0  0  0
 32 16  1  0  0  0  0
 33 16  1  0  0  0  0
 34 17  1  0  0  0  0
 36 19  1  0  0  0  0
 38 20  1  0  0  0  0
M  END
>  <Pose>
1

>  <Score>
-5.70

$$$$
