
 OpenBabel03232203513D

 53 56  0  0  1  0  0  0  0  0999 V2000
   -0.2050   18.2960   -9.0600 B   0  0  0  0  0  0  0  0  0  0  0  0
   -1.3280   18.2810  -10.5980 C   0  0  0  0  0  0  0  0  0  0  0  0
   -0.9430   17.5260  -11.6830 C   0  0  0  0  0  0  0  0  0  0  0  0
   -1.7670   17.5250  -12.7870 C   0  0  0  0  0  0  0  0  0  0  0  0
   -2.9510   18.2680  -12.8030 C   0  0  0  0  0  0  0  0  0  0  0  0
   -3.3100   19.0160  -11.6980 C   0  0  0  0  0  0  0  0  0  0  0  0
   -2.5050   19.0270  -10.5970 C   0  0  0  0  0  0  0  0  0  0  0  0
   -4.5720   19.8190  -11.6890 C   0  0  0  0  0  0  0  0  0  0  0  0
   -1.2640   16.4910  -14.3040 B   0  0  0  0  0  0  0  0  0  0  0  0
    0.2080   16.8130  -11.6470 O   0  0  0  0  0  0  0  0  0  0  0  0
    0.3580   15.4230  -11.6560 C   0  0  0  0  0  0  0  0  0  0  0  0
    1.4590   15.0950  -10.6480 C   0  0  1  0  0  0  0  0  0  0  0  0
    1.0590   15.3890   -9.3460 O   0  0  0  0  0  0  0  0  0  0  0  0
    1.7350   13.6310  -10.7760 C   0  0  0  0  0  0  0  0  0  0  0  0
    1.8800   13.1780  -12.1460 N   0  0  0  0  0  4  0  0  0  0  0  0
    3.1550   12.5500  -12.2490 C   0  0  0  0  0  0  0  0  0  0  0  0
    3.1490   11.1890  -12.8700 C   0  0  1  0  0  0  0  0  0  0  0  0
    2.5830   10.1180  -12.0060 C   0  0  0  0  0  0  0  0  0  0  0  0
    1.3510    9.5490  -12.4750 N   0  0  0  0  0  0  0  0  0  0  0  0
    0.4960   10.1630  -13.3140 C   0  0  0  0  0  0  0  0  0  0  0  0
   -0.6760    9.6220  -13.7600 C   0  0  0  0  0  0  0  0  0  0  0  0
   -1.0260    8.3580  -13.3320 C   0  0  0  0  0  0  0  0  0  0  0  0
   -0.1580    7.7240  -12.4750 C   0  0  0  0  0  0  0  0  0  0  0  0
    1.0140    8.2990  -12.0460 C   0  0  0  0  0  0  0  0  0  0  0  0
    1.7850    7.6880  -11.2600 O   0  0  0  0  0  0  0  0  0  0  0  0
    0.9370   11.5440  -13.7440 C   0  0  1  0  0  0  0  0  0  0  0  0
    0.7600   12.4350  -12.5790 C   0  0  0  0  0  0  0  0  0  0  0  0
    2.3690   11.3500  -14.1800 C   0  0  0  0  0  0  0  0  0  0  0  0
   -3.6030   18.2750  -13.6640 H   0  0  0  0  0  0  0  0  0  0  0  0
   -2.8130   19.6250   -9.7450 H   0  0  0  0  0  0  0  0  0  0  0  0
   -4.3630   20.7970  -11.2170 H   0  0  0  0  0  0  0  0  0  0  0  0
   -5.3320   19.3090  -11.0320 H   0  0  0  0  0  0  0  0  0  0  0  0
   -4.9950   19.9270  -12.7140 H   0  0  0  0  0  0  0  0  0  0  0  0
   -0.5610   14.8580  -11.4540 H   0  0  0  0  0  0  0  0  0  0  0  0
    0.7420   15.1100  -12.6480 H   0  0  0  0  0  0  0  0  0  0  0  0
    2.3020   15.7450  -10.8870 H   0  0  0  0  0  0  0  0  0  0  0  0
    0.0770   15.5690   -9.3960 H   0  0  0  0  0  0  0  0  0  0  0  0
    2.6840   13.4090  -10.2470 H   0  0  0  0  0  0  0  0  0  0  0  0
    0.9550   13.0060  -10.2970 H   0  0  0  0  0  0  0  0  0  0  0  0
    1.9190   14.0700  -12.7270 H   0  0  0  0  0  0  0  0  0  0  0  0
    3.8870   13.1700  -12.8480 H   0  0  0  0  0  0  0  0  0  0  0  0
    3.6740   12.4380  -11.2510 H   0  0  0  0  0  0  0  0  0  0  0  0
    4.2070   10.9650  -13.1910 H   0  0  0  0  0  0  0  0  0  0  0  0
    3.3280    9.2700  -11.9670 H   0  0  0  0  0  0  0  0  0  0  0  0
    2.4800   10.4310  -10.9320 H   0  0  0  0  0  0  0  0  0  0  0  0
   -1.2890   10.2030  -14.4320 H   0  0  0  0  0  0  0  0  0  0  0  0
   -1.9500    7.9250  -13.6800 H   0  0  0  0  0  0  0  0  0  0  0  0
   -0.4030    6.7270  -12.1180 H   0  0  0  0  0  0  0  0  0  0  0  0
    0.3630   11.8400  -14.6480 H   0  0  0  0  0  0  0  0  0  0  0  0
   -0.0510   13.1730  -12.8620 H   0  0  0  0  0  0  0  0  0  0  0  0
    0.3250   11.9150  -11.6750 H   0  0  0  0  0  0  0  0  0  0  0  0
    2.7760   12.1830  -14.7500 H   0  0  0  0  0  0  0  0  0  0  0  0
    2.4940   10.3660  -14.7070 H   0  0  0  0  0  0  0  0  0  0  0  0
  2  7  1  0  0  0  0
  2  1  1  0  0  0  0
  3 10  1  0  0  0  0
  3  2  2  0  0  0  0
  4  3  1  0  0  0  0
  5  4  2  0  0  0  0
  5  6  1  0  0  0  0
  6  8  1  0  0  0  0
  6  7  2  0  0  0  0
  7 30  1  0  0  0  0
  8 31  1  0  0  0  0
  8 32  1  0  0  0  0
  9  4  1  0  0  0  0
 11 10  1  0  0  0  0
 11 34  1  0  0  0  0
 11 12  1  0  0  0  0
 12 36  1  6  0  0  0
 12 13  1  0  0  0  0
 14 12  1  0  0  0  0
 14 39  1  0  0  0  0
 14 38  1  0  0  0  0
 15 14  1  0  0  0  0
 16 15  1  0  0  0  0
 16 42  1  0  0  0  0
 17 43  1  6  0  0  0
 17 16  1  0  0  0  0
 17 18  1  0  0  0  0
 18 44  1  0  0  0  0
 18 45  1  0  0  0  0
 19 24  1  0  0  0  0
 19 18  1  0  0  0  0
 20 19  1  0  0  0  0
 21 22  1  0  0  0  0
 21 20  2  0  0  0  0
 22 23  2  0  0  0  0
 23 48  1  0  0  0  0
 23 24  1  0  0  0  0
 24 25  2  0  0  0  0
 26 49  1  6  0  0  0
 26 20  1  0  0  0  0
 26 27  1  0  0  0  0
 27 15  1  0  0  0  0
 27 51  1  0  0  0  0
 28 26  1  0  0  0  0
 28 17  1  0  0  0  0
 29  5  1  0  0  0  0
 33  8  1  0  0  0  0
 35 11  1  0  0  0  0
 37 13  1  0  0  0  0
 40 15  1  0  0  0  0
 41 16  1  0  0  0  0
 46 21  1  0  0  0  0
 47 22  1  0  0  0  0
 50 27  1  0  0  0  0
 52 28  1  0  0  0  0
 53 28  1  0  0  0  0
M  END
>  <Pose>
1

>  <Score>
-4.98

$$$$
