
 OpenBabel03232203513D

 39 42  0  0  0  0  0  0  0  0999 V2000
    3.0170    9.2340  -14.6540 B   0  0  0  0  0  0  0  0  0  0  0  0
    2.2210    7.9410  -13.5240 C   0  0  0  0  0  0  0  0  0  0  0  0
    0.9060    8.1510  -13.1080 C   0  0  0  0  0  0  0  0  0  0  0  0
    0.3910    7.1680  -12.2850 C   0  0  0  0  0  0  0  0  0  0  0  0
    1.1260    6.0450  -11.8970 C   0  0  0  0  0  0  0  0  0  0  0  0
    2.4170    5.8940  -12.3400 C   0  0  0  0  0  0  0  0  0  0  0  0
    2.9720    6.8490  -13.1610 C   0  0  0  0  0  0  0  0  0  0  0  0
    0.1980    9.2990  -13.5220 N   0  0  0  0  0  0  0  0  0  0  0  0
   -1.1750    9.5430  -13.4790 C   0  0  0  0  0  0  0  0  0  0  0  0
   -1.9750    8.6990  -13.0350 O   0  0  0  0  0  0  0  0  0  0  0  0
   -1.7540   10.8230  -13.9640 C   0  0  0  0  0  0  0  0  0  0  0  0
   -1.1770   11.9630  -13.2340 N   0  0  0  0  0  0  0  0  0  0  0  0
   -1.7160   12.6190  -12.2190 N   0  0  0  0  0  0  0  0  0  0  0  0
   -0.8990   13.5890  -11.8220 N   0  0  0  0  0  0  0  0  0  0  0  0
    0.2000   13.5580  -12.6040 C   0  0  0  0  0  0  0  0  0  0  0  0
   -0.0100   12.5440  -13.4600 N   0  0  0  0  0  0  0  0  0  0  0  0
    1.3560   14.4380  -12.5270 C   0  0  0  0  0  0  0  0  0  0  0  0
    1.1580   15.7850  -12.7220 C   0  0  0  0  0  0  0  0  0  0  0  0
    2.2590   16.6230  -12.6480 C   0  0  0  0  0  0  0  0  0  0  0  0
    3.5210   16.1500  -12.3910 C   0  0  0  0  0  0  0  0  0  0  0  0
    3.7220   14.7980  -12.1950 C   0  0  0  0  0  0  0  0  0  0  0  0
    2.6210   13.9640  -12.2680 C   0  0  0  0  0  0  0  0  0  0  0  0
   -0.1240   16.3510  -12.9930 N   0  0  0  0  0  0  0  0  0  0  0  0
   -0.5760   16.6140  -14.2130 N   0  0  0  0  0  0  0  0  0  0  0  0
   -1.7820   17.1270  -14.1150 N   0  0  0  0  0  0  0  0  0  0  0  0
   -2.0990   17.1920  -12.8240 N   0  0  0  0  0  0  0  0  0  0  0  0
   -1.0560   16.7040  -12.1200 C   0  0  0  0  0  0  0  0  0  0  0  0
   -0.6010    7.2220  -11.9060 H   0  0  0  0  0  0  0  0  0  0  0  0
    0.7020    5.2960  -11.2580 H   0  0  0  0  0  0  0  0  0  0  0  0
    3.0240    5.0470  -12.0700 H   0  0  0  0  0  0  0  0  0  0  0  0
    3.9880    6.6990  -13.4910 H   0  0  0  0  0  0  0  0  0  0  0  0
    0.7910   10.0860  -13.9220 H   0  0  0  0  0  0  0  0  0  0  0  0
   -2.8490   10.8530  -13.9030 H   0  0  0  0  0  0  0  0  0  0  0  0
   -1.4860   11.0140  -15.0360 H   0  0  0  0  0  0  0  0  0  0  0  0
    2.1140   17.6860  -12.8000 H   0  0  0  0  0  0  0  0  0  0  0  0
    4.3950   16.7990  -12.3300 H   0  0  0  0  0  0  0  0  0  0  0  0
    4.7160   14.4060  -11.9890 H   0  0  0  0  0  0  0  0  0  0  0  0
    2.8040   12.9090  -12.1120 H   0  0  0  0  0  0  0  0  0  0  0  0
   -0.9710   16.6080  -11.0480 H   0  0  0  0  0  0  0  0  0  0  0  0
  1  2  1  0  0  0  0
  2  7  2  0  0  0  0
  2  3  1  0  0  0  0
  3  4  2  0  0  0  0
  4 28  1  0  0  0  0
  4  5  1  0  0  0  0
  5 29  1  0  0  0  0
  6 30  1  0  0  0  0
  6  5  2  0  0  0  0
  7  6  1  0  0  0  0
  8  9  1  0  0  0  0
  8  3  1  0  0  0  0
  9 10  2  0  0  0  0
 11 33  1  0  0  0  0
 11  9  1  0  0  0  0
 11 12  1  0  0  0  0
 12 13  1  0  0  0  0
 13 14  1  0  0  0  0
 15 17  1  0  0  0  0
 15 14  2  0  0  0  0
 16 12  1  0  0  0  0
 16 15  1  0  0  0  0
 17 22  1  0  0  0  0
 18 19  1  0  0  0  0
 18 17  2  0  0  0  0
 19 20  2  0  0  0  0
 20 36  1  0  0  0  0
 20 21  1  0  0  0  0
 21 37  1  0  0  0  0
 22 21  2  0  0  0  0
 22 38  1  0  0  0  0
 23 18  1  0  0  0  0
 23 27  1  0  0  0  0
 24 25  2  0  0  0  0
 24 23  1  0  0  0  0
 25 26  1  0  0  0  0
 26 27  2  0  0  0  0
 27 39  1  0  0  0  0
 31  7  1  0  0  0  0
 32  8  1  0  0  0  0
 34 11  1  0  0  0  0
 35 19  1  0  0  0  0
M  END
>  <Pose>
1

>  <Score>
-5.32

$$$$
