
 OpenBabel03232203513D

 54 58  0  0  1  0  0  0  0  0999 V2000
    1.8440   13.3820  -10.1830 Cl  0  0  0  0  0  0  0  0  0  0  0  0
    2.5410   12.4880  -11.5450 C   0  0  0  0  0  0  0  0  0  0  0  0
    2.0630   11.2500  -11.8940 C   0  0  0  0  0  0  0  0  0  0  0  0
    2.6070   10.5660  -12.9480 C   0  0  0  0  0  0  0  0  0  0  0  0
    3.6390   11.1300  -13.6550 C   0  0  0  0  0  0  0  0  0  0  0  0
    4.1450   12.3870  -13.3240 C   0  0  0  0  0  0  0  0  0  0  0  0
    3.5760   13.0490  -12.2590 C   0  0  0  0  0  0  0  0  0  0  0  0
    4.0700   10.2780  -14.7000 N   0  0  0  0  0  0  0  0  0  0  0  0
    3.2560    9.1160  -14.6350 C   0  0  0  0  0  0  0  0  0  0  0  0
    3.3380    8.1280  -15.3950 O   0  0  0  0  0  0  0  0  0  0  0  0
    2.2880    9.2420  -13.5290 C   0  0  1  0  0  0  0  0  0  0  0  0
    2.4080    8.1750  -12.5650 N   0  0  0  0  0  0  0  0  0  0  0  0
    1.0940    7.8530  -12.1050 C   0  0  1  0  0  0  0  0  0  0  0  0
    0.1530    8.0920  -13.2640 C   0  0  2  0  0  0  0  0  0  0  0  0
    0.9020    9.1360  -14.0520 C   0  0  1  0  0  0  0  0  0  0  0  0
    0.1100   10.3870  -13.9500 C   0  0  0  0  0  0  0  0  0  0  0  0
    0.4800   11.5740  -14.1330 O   0  0  0  0  0  0  0  0  0  0  0  0
   -1.2250    9.9780  -13.5890 N   0  0  0  0  0  0  0  0  0  0  0  0
   -1.1220    8.7380  -12.8590 C   0  0  0  0  0  0  0  0  0  0  0  0
   -1.9450    8.2710  -12.0300 O   0  0  0  0  0  0  0  0  0  0  0  0
   -2.4590   10.6710  -13.8940 C   0  0  0  0  0  0  0  0  0  0  0  0
   -3.5010    9.6930  -14.3280 C   0  0  0  0  0  0  0  0  0  0  0  0
   -4.5650    9.3840  -13.5060 C   0  0  0  0  0  0  0  0  0  0  0  0
   -5.5180    8.4750  -13.9310 C   0  0  0  0  0  0  0  0  0  0  0  0
   -5.4430    7.8590  -15.1650 C   0  0  0  0  0  0  0  0  0  0  0  0
   -4.3850    8.1610  -15.9940 C   0  0  0  0  0  0  0  0  0  0  0  0
   -3.4440    9.0660  -15.5600 C   0  0  0  0  0  0  0  0  0  0  0  0
   -4.6390   10.0080  -12.2570 O   0  0  0  0  0  0  0  0  0  0  0  0
   -5.6450   11.0070  -12.0570 C   0  0  0  0  0  0  0  0  0  0  0  0
    1.0070    6.4300  -11.5980 C   0  0  2  0  0  0  0  0  0  0  0  0
    2.2750    5.8670  -11.7080 O   0  0  0  0  0  0  0  0  0  0  0  0
    0.1150    5.6740  -12.5780 C   0  0  0  0  0  0  0  0  0  0  0  0
    1.2490   10.8710  -11.2890 H   0  0  0  0  0  0  0  0  0  0  0  0
    4.9570   12.8380  -13.8770 H   0  0  0  0  0  0  0  0  0  0  0  0
    3.9290   14.0370  -11.9500 H   0  0  0  0  0  0  0  0  0  0  0  0
    4.8410   10.4330  -15.4130 H   0  0  0  0  0  0  0  0  0  0  0  0
    3.0360    8.4520  -11.8040 H   0  0  0  0  0  0  0  0  0  0  0  0
    0.8110    8.5140  -11.2880 H   0  0  0  0  0  0  0  0  0  0  0  0
   -0.0430    7.1660  -13.8360 H   0  0  0  0  0  0  0  0  0  0  0  0
    0.9430    8.7590  -15.1020 H   0  0  0  0  0  0  0  0  0  0  0  0
   -2.8630   11.2330  -13.0250 H   0  0  0  0  0  0  0  0  0  0  0  0
   -2.3230   11.4220  -14.7020 H   0  0  0  0  0  0  0  0  0  0  0  0
   -6.3500    8.2270  -13.2980 H   0  0  0  0  0  0  0  0  0  0  0  0
   -6.1780    7.1480  -15.5160 H   0  0  0  0  0  0  0  0  0  0  0  0
   -4.2710    7.7110  -16.9730 H   0  0  0  0  0  0  0  0  0  0  0  0
   -2.6340    9.2920  -16.2060 H   0  0  0  0  0  0  0  0  0  0  0  0
   -5.4690   11.8070  -12.7960 H   0  0  0  0  0  0  0  0  0  0  0  0
   -5.5580   11.3810  -11.0140 H   0  0  0  0  0  0  0  0  0  0  0  0
   -6.6530   10.6140  -12.1990 H   0  0  0  0  0  0  0  0  0  0  0  0
    0.6490    6.3670  -10.5660 H   0  0  0  0  0  0  0  0  0  0  0  0
    2.5360    5.4720  -10.8450 H   0  0  0  0  0  0  0  0  0  0  0  0
    0.5450    4.6690  -12.8130 H   0  0  0  0  0  0  0  0  0  0  0  0
   -0.9260    5.6060  -12.2070 H   0  0  0  0  0  0  0  0  0  0  0  0
    0.0680    6.2040  -13.5590 H   0  0  0  0  0  0  0  0  0  0  0  0
  2  1  1  0  0  0  0
  3  2  1  0  0  0  0
  3 33  1  0  0  0  0
  4  3  2  0  0  0  0
  5  6  2  0  0  0  0
  5  4  1  0  0  0  0
  6  7  1  0  0  0  0
  7 35  1  0  0  0  0
  7  2  2  0  0  0  0
  8  9  1  0  0  0  0
  8  5  1  0  0  0  0
 10  9  2  0  0  0  0
 11  9  1  6  0  0  0
 11  4  1  0  0  0  0
 11 12  1  0  0  0  0
 12 13  1  0  0  0  0
 12 37  1  0  0  0  0
 13 30  1  0  0  0  0
 13 38  1  1  0  0  0
 14 39  1  6  0  0  0
 14 19  1  0  0  0  0
 14 13  1  0  0  0  0
 15 40  1  6  0  0  0
 15 16  1  0  0  0  0
 15 11  1  0  0  0  0
 15 14  1  0  0  0  0
 16 18  1  0  0  0  0
 17 16  2  0  0  0  0
 18 19  1  0  0  0  0
 19 20  2  0  0  0  0
 21 18  1  0  0  0  0
 21 41  1  0  0  0  0
 22 21  1  0  0  0  0
 22 23  1  0  0  0  0
 23 28  1  0  0  0  0
 24 23  2  0  0  0  0
 24 43  1  0  0  0  0
 25 24  1  0  0  0  0
 26 27  1  0  0  0  0
 26 25  2  0  0  0  0
 27 22  2  0  0  0  0
 28 29  1  0  0  0  0
 29 48  1  0  0  0  0
 30 50  1  1  0  0  0
 31 30  1  0  0  0  0
 31 51  1  0  0  0  0
 32 53  1  0  0  0  0
 32 30  1  0  0  0  0
 34  6  1  0  0  0  0
 36  8  1  0  0  0  0
 42 21  1  0  0  0  0
 44 25  1  0  0  0  0
 45 26  1  0  0  0  0
 46 27  1  0  0  0  0
 47 29  1  0  0  0  0
 49 29  1  0  0  0  0
 52 32  1  0  0  0  0
 54 32  1  0  0  0  0
M  END
>  <Pose>
1

>  <Score>
-3.66

$$$$
