
 OpenBabel03232203513D

 53 56  0  0  0  0  0  0  0  0999 V2000
    2.5930    8.6410  -15.4780 B   0  0  0  0  0  0  0  0  0  0  0  0
    2.6840   10.1080  -14.2450 C   0  0  0  0  0  0  0  0  0  0  0  0
    3.8710   10.3610  -13.5540 C   0  0  0  0  0  0  0  0  0  0  0  0
    3.9130   11.4310  -12.6650 C   0  0  0  0  0  0  0  0  0  0  0  0
    2.8230   12.2420  -12.4510 C   0  0  0  0  0  0  0  0  0  0  0  0
    3.1260   13.2110  -11.5400 N   0  0  0  0  0  0  0  0  0  0  0  0
    4.4010   12.9930  -11.1950 C   0  0  0  0  0  0  0  0  0  0  0  0
    4.9270   11.9070  -11.8640 C   0  0  0  0  0  0  0  0  0  0  0  0
    2.2150   14.2350  -11.0740 C   0  0  0  0  0  0  0  0  0  0  0  0
    1.7710   15.1360  -12.1920 C   0  0  0  0  0  0  0  0  0  0  0  0
    2.4270   16.1720  -12.4200 O   0  0  0  0  0  0  0  0  0  0  0  0
    0.6440   14.8260  -12.9660 N   0  0  0  0  0  0  0  0  0  0  0  0
   -0.4650   14.0380  -12.4750 C   0  0  0  0  0  0  0  0  0  0  0  0
   -1.7280   14.8390  -12.7440 C   0  0  0  0  0  0  0  0  0  0  0  0
   -1.4360   16.1280  -13.2160 N   0  0  0  0  0  0  0  0  0  0  0  0
   -0.6460   16.2950  -14.3660 C   0  0  0  0  0  0  0  0  0  0  0  0
    0.4970   15.2870  -14.3550 C   0  0  0  0  0  0  0  0  0  0  0  0
   -1.7870   17.2480  -12.4450 C   0  0  0  0  0  0  0  0  0  0  0  0
   -3.1000   17.8500  -12.7970 C   0  0  0  0  0  0  0  0  0  0  0  0
   -3.7170   17.3280  -13.7600 O   0  0  0  0  0  0  0  0  0  0  0  0
   -3.6650   18.9430  -12.1230 N   0  0  0  0  0  0  0  0  0  0  0  0
   -5.0490   19.3070  -12.3490 C   0  0  0  0  0  0  0  0  0  0  0  0
   -5.7230   19.3590  -10.9930 C   0  0  0  0  0  0  0  0  0  0  0  0
   -5.1130   20.4230  -10.3130 O   0  0  0  0  0  0  0  0  0  0  0  0
   -3.7980   20.1530  -10.0220 C   0  0  0  0  0  0  0  0  0  0  0  0
   -2.9430   19.7740  -11.1800 C   0  0  0  0  0  0  0  0  0  0  0  0
    1.6510   11.9990  -13.1290 C   0  0  0  0  0  0  0  0  0  0  0  0
    1.6020   10.9310  -14.0190 C   0  0  0  0  0  0  0  0  0  0  0  0
    4.7060    9.7170  -13.7350 H   0  0  0  0  0  0  0  0  0  0  0  0
    4.9500   13.5970  -10.4790 H   0  0  0  0  0  0  0  0  0  0  0  0
    5.9120   11.4740  -11.8120 H   0  0  0  0  0  0  0  0  0  0  0  0
    1.2950   13.8000  -10.6250 H   0  0  0  0  0  0  0  0  0  0  0  0
    2.6990   14.9080  -10.3340 H   0  0  0  0  0  0  0  0  0  0  0  0
   -0.3460   13.7340  -11.4330 H   0  0  0  0  0  0  0  0  0  0  0  0
   -0.5590   13.0810  -13.0620 H   0  0  0  0  0  0  0  0  0  0  0  0
   -2.2270   14.9510  -11.7360 H   0  0  0  0  0  0  0  0  0  0  0  0
   -2.4570   14.2520  -13.3470 H   0  0  0  0  0  0  0  0  0  0  0  0
   -1.1720   16.2910  -15.3260 H   0  0  0  0  0  0  0  0  0  0  0  0
   -0.1360   17.3030  -14.3060 H   0  0  0  0  0  0  0  0  0  0  0  0
    0.1490   14.4040  -14.9280 H   0  0  0  0  0  0  0  0  0  0  0  0
    1.4380   15.7060  -14.7040 H   0  0  0  0  0  0  0  0  0  0  0  0
   -1.7360   16.9680  -11.3560 H   0  0  0  0  0  0  0  0  0  0  0  0
   -0.9800   18.0220  -12.5680 H   0  0  0  0  0  0  0  0  0  0  0  0
   -5.0660   20.3690  -12.7350 H   0  0  0  0  0  0  0  0  0  0  0  0
   -5.5510   18.6400  -13.0650 H   0  0  0  0  0  0  0  0  0  0  0  0
   -6.7940   19.6390  -11.1380 H   0  0  0  0  0  0  0  0  0  0  0  0
   -5.6020   18.3960  -10.4830 H   0  0  0  0  0  0  0  0  0  0  0  0
   -3.3630   21.0740   -9.5650 H   0  0  0  0  0  0  0  0  0  0  0  0
   -3.8010   19.3970   -9.2080 H   0  0  0  0  0  0  0  0  0  0  0  0
   -2.5910   20.6920  -11.6930 H   0  0  0  0  0  0  0  0  0  0  0  0
   -2.0340   19.2760  -10.7900 H   0  0  0  0  0  0  0  0  0  0  0  0
    0.7680   12.6170  -12.9880 H   0  0  0  0  0  0  0  0  0  0  0  0
    0.6710   10.7580  -14.5420 H   0  0  0  0  0  0  0  0  0  0  0  0
  1  2  1  0  0  0  0
  2 28  2  0  0  0  0
  2  3  1  0  0  0  0
  3  4  2  0  0  0  0
  4  5  1  0  0  0  0
  4  8  1  0  0  0  0
  5  6  1  0  0  0  0
  6  7  1  0  0  0  0
  6  9  1  0  0  0  0
  7 30  1  0  0  0  0
  8 31  1  0  0  0  0
  8  7  2  0  0  0  0
  9 32  1  0  0  0  0
  9 33  1  0  0  0  0
 10  9  1  0  0  0  0
 11 10  2  0  0  0  0
 12 13  1  0  0  0  0
 12 10  1  0  0  0  0
 13 34  1  0  0  0  0
 14 13  1  0  0  0  0
 14 36  1  0  0  0  0
 15 14  1  0  0  0  0
 15 18  1  0  0  0  0
 16 17  1  0  0  0  0
 16 39  1  0  0  0  0
 16 15  1  0  0  0  0
 17 12  1  0  0  0  0
 18 42  1  0  0  0  0
 19 18  1  0  0  0  0
 19 21  1  0  0  0  0
 20 19  2  0  0  0  0
 21 26  1  0  0  0  0
 22 21  1  0  0  0  0
 22 23  1  0  0  0  0
 23 47  1  0  0  0  0
 23 24  1  0  0  0  0
 24 25  1  0  0  0  0
 25 48  1  0  0  0  0
 25 49  1  0  0  0  0
 26 51  1  0  0  0  0
 26 25  1  0  0  0  0
 27 52  1  0  0  0  0
 27  5  2  0  0  0  0
 28 27  1  0  0  0  0
 29  3  1  0  0  0  0
 35 13  1  0  0  0  0
 37 14  1  0  0  0  0
 38 16  1  0  0  0  0
 40 17  1  0  0  0  0
 41 17  1  0  0  0  0
 43 18  1  0  0  0  0
 44 22  1  0  0  0  0
 45 22  1  0  0  0  0
 46 23  1  0  0  0  0
 50 26  1  0  0  0  0
 53 28  1  0  0  0  0
M  END
>  <Pose>
1

>  <Score>
-4.75

$$$$
