
 OpenBabel03232203513D

 47 50  0  0  1  0  0  0  0  0999 V2000
   -4.8890    5.7750  -16.0190 Cl  0  0  0  0  0  0  0  0  0  0  0  0
   -4.1510    7.1380  -15.2210 C   0  0  0  0  0  0  0  0  0  0  0  0
   -3.0190    6.9330  -14.4650 C   0  0  0  0  0  0  0  0  0  0  0  0
   -2.3690    7.9780  -13.7980 C   0  0  0  0  0  0  0  0  0  0  0  0
   -2.9250    9.2220  -13.9400 C   0  0  0  0  0  0  0  0  0  0  0  0
   -4.0580    9.4360  -14.6940 C   0  0  0  0  0  0  0  0  0  0  0  0
   -4.6990    8.3860  -15.3570 C   0  0  0  0  0  0  0  0  0  0  0  0
   -1.1990    7.6620  -13.0570 N   0  0  0  0  0  0  0  0  0  0  0  0
   -1.0550    7.8480  -11.6590 C   0  0  0  0  0  0  0  0  0  0  0  0
   -1.9600    8.3460  -10.9760 O   0  0  0  0  0  0  0  0  0  0  0  0
    0.1620    7.4590  -11.0060 N   0  0  0  0  0  0  0  0  0  0  0  0
    1.2370    6.8790  -11.7420 C   0  0  0  0  0  0  0  0  0  0  0  0
    2.0970    6.1580  -11.2070 O   0  0  0  0  0  0  0  0  0  0  0  0
    1.3210    7.1600  -13.2190 C   0  0  1  0  0  0  0  0  0  0  0  0
   -0.0630    7.0760  -13.7310 C   0  0  0  0  0  0  0  0  0  0  0  0
   -0.3260    6.4620  -14.8270 O   0  0  0  0  0  0  0  0  0  0  0  0
    1.9450    8.5000  -13.4290 C   0  0  0  0  0  0  0  0  0  0  0  0
    2.0160    9.2200  -14.5300 C   0  0  0  0  0  0  0  0  0  0  0  0
    2.7380   10.4860  -14.2250 C   0  0  2  0  0  0  0  0  0  0  0  0
    3.5270   10.0700  -13.0380 N   0  0  0  0  0  0  0  0  0  0  0  0
    2.6190    9.2230  -12.3900 N   0  0  0  0  0  0  0  0  0  0  0  0
    1.7630   11.4910  -13.7230 C   0  0  0  0  0  0  0  0  0  0  0  0
    2.1810   12.6160  -12.9790 C   0  0  0  0  0  0  0  0  0  0  0  0
    1.3310   13.5780  -12.5290 C   0  0  0  0  0  0  0  0  0  0  0  0
   -0.0200   13.4730  -12.8020 C   0  0  0  0  0  0  0  0  0  0  0  0
   -0.4640   12.3890  -13.5240 C   0  0  0  0  0  0  0  0  0  0  0  0
    0.4090   11.4220  -13.9730 C   0  0  0  0  0  0  0  0  0  0  0  0
   -0.9030   14.4490  -12.3510 O   0  0  0  0  0  0  0  0  0  0  0  0
    1.7990   14.6740  -11.7900 O   0  0  0  0  0  0  0  0  0  0  0  0
    2.0270   14.5290  -10.4050 C   0  0  0  0  0  0  0  0  0  0  0  0
   -2.5720    5.9320  -14.3530 H   0  0  0  0  0  0  0  0  0  0  0  0
   -2.4660   10.0510  -13.4450 H   0  0  0  0  0  0  0  0  0  0  0  0
   -4.5010   10.4220  -14.8050 H   0  0  0  0  0  0  0  0  0  0  0  0
   -5.5860    8.5590  -15.9490 H   0  0  0  0  0  0  0  0  0  0  0  0
    0.2460    7.6030   -9.9910 H   0  0  0  0  0  0  0  0  0  0  0  0
    1.9010    6.3720  -13.7400 H   0  0  0  0  0  0  0  0  0  0  0  0
    1.6360    8.9820  -15.5080 H   0  0  0  0  0  0  0  0  0  0  0  0
    3.3650   10.8430  -15.0370 H   0  0  0  0  0  0  0  0  0  0  0  0
    4.3890    9.5770  -13.3440 H   0  0  0  0  0  0  0  0  0  0  0  0
    2.4530    9.1200  -11.3940 H   0  0  0  0  0  0  0  0  0  0  0  0
    3.2390   12.6700  -12.7830 H   0  0  0  0  0  0  0  0  0  0  0  0
   -1.5250   12.3400  -13.7100 H   0  0  0  0  0  0  0  0  0  0  0  0
    0.0260   10.5800  -14.5420 H   0  0  0  0  0  0  0  0  0  0  0  0
   -1.2220   14.4160  -11.3910 H   0  0  0  0  0  0  0  0  0  0  0  0
    2.8840   13.8750  -10.2050 H   0  0  0  0  0  0  0  0  0  0  0  0
    2.2600   15.5550  -10.0230 H   0  0  0  0  0  0  0  0  0  0  0  0
    1.0760   14.1950   -9.9280 H   0  0  0  0  0  0  0  0  0  0  0  0
  1  2  1  0  0  0  0
  2  3  1  0  0  0  0
  3 31  1  0  0  0  0
  3  4  2  0  0  0  0
  4  8  1  0  0  0  0
  5  4  1  0  0  0  0
  5 32  1  0  0  0  0
  6  5  2  0  0  0  0
  7  2  2  0  0  0  0
  7  6  1  0  0  0  0
  8  9  1  0  0  0  0
  9 11  1  0  0  0  0
  9 10  2  0  0  0  0
 11 35  1  0  0  0  0
 12 13  2  0  0  0  0
 12 11  1  0  0  0  0
 14 36  1  6  0  0  0
 14 12  1  0  0  0  0
 15 14  1  0  0  0  0
 15  8  1  0  0  0  0
 16 15  2  0  0  0  0
 17 14  1  0  0  0  0
 17 21  1  0  0  0  0
 18 19  1  0  0  0  0
 18 17  2  0  0  0  0
 19 38  1  6  0  0  0
 19 22  1  0  0  0  0
 19 20  1  0  0  0  0
 20 21  1  0  0  0  0
 21 40  1  0  0  0  0
 22 23  1  0  0  0  0
 23 41  1  0  0  0  0
 23 24  2  0  0  0  0
 24 29  1  0  0  0  0
 25 24  1  0  0  0  0
 25 28  1  0  0  0  0
 26 25  2  0  0  0  0
 27 22  2  0  0  0  0
 27 26  1  0  0  0  0
 28 44  1  0  0  0  0
 29 30  1  0  0  0  0
 30 45  1  0  0  0  0
 30 46  1  0  0  0  0
 30 47  1  0  0  0  0
 33  6  1  0  0  0  0
 34  7  1  0  0  0  0
 37 18  1  0  0  0  0
 39 20  1  0  0  0  0
 42 26  1  0  0  0  0
 43 27  1  0  0  0  0
M  END
>  <Pose>
1

>  <Score>
-4.96

$$$$
