
 OpenBabel03232203513D

 47 50  0  0  0  0  0  0  0  0999 V2000
    3.4950   11.8770  -12.7250 S   0  0  0  0  0  0  0  0  0  0  0  0
    4.2380   11.3440  -13.9060 O   0  0  0  0  0  0  0  0  0  0  0  0
    4.1460   11.3510  -11.4760 O   0  0  0  0  0  0  0  0  0  0  0  0
    3.5750   13.5650  -12.7050 N   0  0  0  0  0  0  0  0  0  0  0  0
    3.0760   14.1950  -11.5210 C   0  0  0  0  0  0  0  0  0  0  0  0
    1.5810   14.4430  -11.5790 C   0  0  0  0  0  0  0  0  0  0  0  0
    1.2580   15.0600  -12.8380 N   0  0  0  0  0  0  0  0  0  0  0  0
    2.3500   15.4350  -13.7140 C   0  0  0  0  0  0  0  0  0  0  0  0
    3.2030   14.2030  -13.9220 C   0  0  0  0  0  0  0  0  0  0  0  0
   -0.0810   15.3140  -13.2540 C   0  0  0  0  0  0  0  0  0  0  0  0
   -0.6270   14.6410  -14.1590 O   0  0  0  0  0  0  0  0  0  0  0  0
   -0.8650   16.3820  -12.6300 C   0  0  0  0  0  0  0  0  0  0  0  0
   -0.5270   17.0850  -11.5140 N   0  0  0  0  0  0  0  0  0  0  0  0
   -1.4950   17.9760  -11.2510 C   0  0  0  0  0  0  0  0  0  0  0  0
   -2.4290   17.8320  -12.1900 N   0  0  0  0  0  0  0  0  0  0  0  0
   -2.0690   16.8650  -13.0450 C   0  0  0  0  0  0  0  0  0  0  0  0
   -3.5190   18.6230  -12.1470 C   0  0  0  0  0  0  0  0  0  0  0  0
   -3.7360   19.5760  -11.1910 C   0  0  0  0  0  0  0  0  0  0  0  0
   -2.7730   19.7400  -10.2020 C   0  0  0  0  0  0  0  0  0  0  0  0
   -1.6630   18.9270  -10.2560 C   0  0  0  0  0  0  0  0  0  0  0  0
   -5.1740   20.5920  -11.1650 Cl  0  0  0  0  0  0  0  0  0  0  0  0
    1.8930   11.2570  -12.7670 N   0  0  0  0  0  0  0  0  0  0  0  0
    1.8600    9.8080  -12.6860 C   0  0  0  0  0  0  0  0  0  0  0  0
    0.5540    9.3570  -13.2950 C   0  0  0  0  0  0  0  0  0  0  0  0
   -0.4670   10.2720  -13.0600 O   0  0  0  0  0  0  0  0  0  0  0  0
   -0.2760   11.4760  -13.7340 C   0  0  0  0  0  0  0  0  0  0  0  0
    1.2100   11.6150  -13.9960 C   0  0  0  0  0  0  0  0  0  0  0  0
    3.5540   15.2030  -11.4480 H   0  0  0  0  0  0  0  0  0  0  0  0
    3.3870   13.6270  -10.6420 H   0  0  0  0  0  0  0  0  0  0  0  0
    1.0510   13.4630  -11.4290 H   0  0  0  0  0  0  0  0  0  0  0  0
    1.2560   15.0910  -10.7390 H   0  0  0  0  0  0  0  0  0  0  0  0
    2.9380   16.2120  -13.1540 H   0  0  0  0  0  0  0  0  0  0  0  0
    1.9890   15.8310  -14.6650 H   0  0  0  0  0  0  0  0  0  0  0  0
    4.1500   14.5270  -14.4400 H   0  0  0  0  0  0  0  0  0  0  0  0
    2.6610   13.5210  -14.5830 H   0  0  0  0  0  0  0  0  0  0  0  0
   -2.6720   16.5620  -13.9020 H   0  0  0  0  0  0  0  0  0  0  0  0
   -4.3000   18.5210  -12.9130 H   0  0  0  0  0  0  0  0  0  0  0  0
   -2.8720   20.4750   -9.4100 H   0  0  0  0  0  0  0  0  0  0  0  0
   -0.8810   19.0210   -9.5010 H   0  0  0  0  0  0  0  0  0  0  0  0
    1.9640    9.4480  -11.6430 H   0  0  0  0  0  0  0  0  0  0  0  0
    2.6980    9.4290  -13.3090 H   0  0  0  0  0  0  0  0  0  0  0  0
    0.2390    8.4060  -12.8150 H   0  0  0  0  0  0  0  0  0  0  0  0
    0.6080    9.1970  -14.3830 H   0  0  0  0  0  0  0  0  0  0  0  0
   -0.5360   12.3110  -13.0250 H   0  0  0  0  0  0  0  0  0  0  0  0
   -0.8720   11.5480  -14.6600 H   0  0  0  0  0  0  0  0  0  0  0  0
    1.5100   10.9660  -14.8460 H   0  0  0  0  0  0  0  0  0  0  0  0
    1.4880   12.6460  -14.2820 H   0  0  0  0  0  0  0  0  0  0  0  0
  1  4  1  0  0  0  0
  1  3  2  0  0  0  0
  2  1  2  0  0  0  0
  4  5  1  0  0  0  0
  5 28  1  0  0  0  0
  5 29  1  0  0  0  0
  6  5  1  0  0  0  0
  6 30  1  0  0  0  0
  6 31  1  0  0  0  0
  7  6  1  0  0  0  0
  8 32  1  0  0  0  0
  8  7  1  0  0  0  0
  9  8  1  0  0  0  0
  9  4  1  0  0  0  0
 10  7  1  0  0  0  0
 10 12  1  0  0  0  0
 11 10  2  0  0  0  0
 12 13  1  0  0  0  0
 13 14  2  0  0  0  0
 14 20  1  0  0  0  0
 15 17  1  0  0  0  0
 15 14  1  0  0  0  0
 16 12  2  0  0  0  0
 16 15  1  0  0  0  0
 17 18  2  0  0  0  0
 18 21  1  0  0  0  0
 18 19  1  0  0  0  0
 19 38  1  0  0  0  0
 20 19  2  0  0  0  0
 20 39  1  0  0  0  0
 22  1  1  0  0  0  0
 22 23  1  0  0  0  0
 23 40  1  0  0  0  0
 24 25  1  0  0  0  0
 24 42  1  0  0  0  0
 24 23  1  0  0  0  0
 26 25  1  0  0  0  0
 26 44  1  0  0  0  0
 27 26  1  0  0  0  0
 27 22  1  0  0  0  0
 33  8  1  0  0  0  0
 34  9  1  0  0  0  0
 35  9  1  0  0  0  0
 36 16  1  0  0  0  0
 37 17  1  0  0  0  0
 41 23  1  0  0  0  0
 43 24  1  0  0  0  0
 45 26  1  0  0  0  0
 46 27  1  0  0  0  0
 47 27  1  0  0  0  0
M  END
>  <Pose>
1

>  <Score>
-6.39

$$$$
