
 OpenBabel03232203513D

 47 51  0  0  1  0  0  0  0  0999 V2000
   -6.6470   23.5170   -7.8890 I   0  0  0  0  0  0  0  0  0  0  0  0
   -5.7880   22.1280   -9.2180 C   0  0  0  0  0  0  0  0  0  0  0  0
   -4.5300   21.6020   -9.0030 C   0  0  0  0  0  0  0  0  0  0  0  0
   -3.9580   20.6820   -9.8820 C   0  0  0  0  0  0  0  0  0  0  0  0
   -4.6580   20.2920  -10.9790 C   0  0  0  0  0  0  0  0  0  0  0  0
   -5.9180   20.8260  -11.1840 C   0  0  0  0  0  0  0  0  0  0  0  0
   -6.5000   21.7350  -10.3280 C   0  0  0  0  0  0  0  0  0  0  0  0
   -4.1570   19.3480  -11.9460 N   0  0  0  0  0  0  0  0  0  0  0  0
   -4.6810   19.0730  -13.1270 N   0  0  0  0  0  0  0  0  0  0  0  0
   -3.9660   18.1400  -13.7870 C   0  0  0  0  0  0  0  0  0  0  0  0
   -4.1770   17.6200  -14.9720 C   0  0  0  0  0  0  0  0  0  0  0  0
   -2.9120   17.8010  -12.9620 C   0  0  2  0  0  0  0  0  0  0  0  0
   -1.9530   16.9030  -13.2310 C   0  0  0  0  0  0  0  0  0  0  0  0
   -0.9620   16.7160  -12.2280 N   0  0  0  0  0  4  0  0  0  0  0  0
    0.1180   15.7760  -12.4820 C   0  0  1  0  0  0  0  0  0  0  0  0
    0.7530   16.0700  -13.8330 C   0  0  0  0  0  0  0  0  0  0  0  0
    1.8560   15.1720  -14.0400 N   0  0  2  0  0  0  0  0  0  0  0  0
    1.3210   13.8150  -14.0260 C   0  0  0  0  0  0  0  0  0  0  0  0
    0.7500   13.4850  -12.7500 N   0  0  1  0  0  0  0  0  0  0  0  0
    1.7200   13.6750  -11.6950 C   0  0  0  0  0  0  0  0  0  0  0  0
    2.2460   15.0140  -11.6760 N   0  0  1  0  0  0  0  0  0  0  0  0
    2.8130   15.3650  -12.9740 C   0  0  0  0  0  0  0  0  0  0  0  0
    1.1700   15.9400  -11.4070 C   0  0  0  0  0  0  0  0  0  0  0  0
   -0.3700   14.3590  -12.5090 C   0  0  0  0  0  0  0  0  0  0  0  0
   -3.0660   18.5710  -11.8300 C   0  0  0  0  0  0  0  0  0  0  0  0
   -2.3030   18.5570  -10.8310 O   0  0  0  0  0  0  0  0  0  0  0  0
   -4.0090   21.9430   -8.1150 H   0  0  0  0  0  0  0  0  0  0  0  0
   -2.9730   20.2800   -9.7000 H   0  0  0  0  0  0  0  0  0  0  0  0
   -6.4690   20.5060  -12.0660 H   0  0  0  0  0  0  0  0  0  0  0  0
   -7.5020   22.1410  -10.5170 H   0  0  0  0  0  0  0  0  0  0  0  0
   -5.5460   19.5140  -13.5220 H   0  0  0  0  0  0  0  0  0  0  0  0
   -3.5090   16.8760  -15.3670 H   0  0  0  0  0  0  0  0  0  0  0  0
   -5.0170   17.9220  -15.5760 H   0  0  0  0  0  0  0  0  0  0  0  0
   -1.9430   16.3570  -14.1670 H   0  0  0  0  0  0  0  0  0  0  0  0
   -0.9580   17.2100  -11.3150 H   0  0  0  0  0  0  0  0  0  0  0  0
   -0.0540   15.9340  -14.5890 H   0  0  0  0  0  0  0  0  0  0  0  0
    1.0240   17.1350  -13.8580 H   0  0  0  0  0  0  0  0  0  0  0  0
    2.0590   13.0730  -14.3870 H   0  0  0  0  0  0  0  0  0  0  0  0
    0.4820   13.8170  -14.7810 H   0  0  0  0  0  0  0  0  0  0  0  0
    2.5850   12.9780  -11.8450 H   0  0  0  0  0  0  0  0  0  0  0  0
    1.2430   13.4740  -10.7170 H   0  0  0  0  0  0  0  0  0  0  0  0
    3.0400   16.4580  -12.9310 H   0  0  0  0  0  0  0  0  0  0  0  0
    3.7690   14.8360  -13.1680 H   0  0  0  0  0  0  0  0  0  0  0  0
    0.7230   15.6560  -10.4280 H   0  0  0  0  0  0  0  0  0  0  0  0
    1.5070   16.9920  -11.4180 H   0  0  0  0  0  0  0  0  0  0  0  0
   -1.1480   14.2700  -13.2930 H   0  0  0  0  0  0  0  0  0  0  0  0
   -0.8470   14.0680  -11.5420 H   0  0  0  0  0  0  0  0  0  0  0  0
  2  3  1  0  0  0  0
  2  1  1  0  0  0  0
  3 27  1  0  0  0  0
  4 28  1  0  0  0  0
  4  3  2  0  0  0  0
  5  4  1  0  0  0  0
  6  5  2  0  0  0  0
  6  7  1  0  0  0  0
  7  2  2  0  0  0  0
  8 25  1  0  0  0  0
  8  5  1  0  0  0  0
  9  8  1  0  0  0  0
 10  9  1  0  0  0  0
 10 12  1  0  0  0  0
 11 10  2  0  0  0  0
 12 13  1  1  0  0  0
 12 25  1  0  0  0  0
 13 14  2  0  0  0  0
 14 35  1  0  0  0  0
 15 14  1  1  0  0  0
 15 23  1  0  0  0  0
 16 15  1  0  0  0  0
 17 18  1  1  0  0  0
 17 16  1  0  0  0  0
 17 22  1  0  0  0  0
 19 18  1  6  0  0  0
 19 24  1  0  0  0  0
 19 20  1  0  0  0  0
 20 21  1  0  0  0  0
 20 41  1  0  0  0  0
 21 22  1  6  0  0  0
 21 23  1  0  0  0  0
 22 42  1  0  0  0  0
 23 44  1  0  0  0  0
 24 15  1  0  0  0  0
 24 47  1  0  0  0  0
 25 26  2  0  0  0  0
 29  6  1  0  0  0  0
 30  7  1  0  0  0  0
 31  9  1  0  0  0  0
 32 11  1  0  0  0  0
 33 11  1  0  0  0  0
 34 13  1  0  0  0  0
 36 16  1  0  0  0  0
 37 16  1  0  0  0  0
 38 18  1  0  0  0  0
 39 18  1  0  0  0  0
 40 20  1  0  0  0  0
 43 22  1  0  0  0  0
 45 23  1  0  0  0  0
 46 24  1  0  0  0  0
M  END
>  <Pose>
1

>  <Score>
-6.00

$$$$
