
 OpenBabel03232203513D

 61 64  0  0  1  0  0  0  0  0999 V2000
    2.9240   12.1200  -12.9530 S   0  0  0  0  0  0  0  0  0  0  0  0
    4.0740   11.6490  -12.0650 O   0  0  0  0  0  0  0  0  0  0  0  0
    3.5640   12.2250  -14.3390 O   0  0  0  0  0  0  0  0  0  0  0  0
    2.3560   13.6200  -12.5250 N   0  0  0  0  0  0  0  0  0  0  0  0
    2.6700   14.2980  -11.3630 C   0  0  1  0  0  0  0  0  0  0  0  0
    3.5190   15.4980  -11.8040 C   0  0  0  0  0  0  0  0  0  0  0  0
    2.8570   15.8740  -13.1120 C   0  0  0  0  0  0  0  0  0  0  0  0
    2.2950   14.5720  -13.6300 C   0  0  0  0  0  0  0  0  0  0  0  0
    1.3830   14.8270  -10.7510 C   0  0  0  0  0  0  0  0  0  0  0  0
    1.4520   15.1590   -9.5600 O   0  0  0  0  0  0  0  0  0  0  0  0
    0.2230   14.9090  -11.5400 N   0  0  0  0  0  0  0  0  0  0  0  0
   -0.1140   16.1420  -12.2090 C   0  0  0  0  0  0  0  0  0  0  0  0
   -1.5200   16.2680  -12.6580 C   0  0  0  0  0  0  0  0  0  0  0  0
   -2.2720   17.3340  -12.0970 N   0  0  0  0  0  0  0  0  0  0  0  0
   -2.5690   18.4140  -12.9800 C   0  0  0  0  0  0  0  0  0  0  0  0
   -3.9830   18.8760  -12.6890 C   0  0  0  0  0  0  0  0  0  0  0  0
   -4.1140   19.1400  -11.2030 C   0  0  0  0  0  0  0  0  0  0  0  0
   -2.9270   19.9500  -10.7590 C   0  0  0  0  0  0  0  0  0  0  0  0
   -1.6880   19.1640  -10.5410 C   0  0  0  0  0  0  0  0  0  0  0  0
   -1.7810   17.7100  -10.8130 C   0  0  0  0  0  0  0  0  0  0  0  0
    1.7230   10.8660  -13.0400 C   0  0  0  0  0  0  0  0  0  0  0  0
    2.0990    9.5480  -12.7310 C   0  0  0  0  0  0  0  0  0  0  0  0
    1.2580    8.4760  -12.8230 C   0  0  0  0  0  0  0  0  0  0  0  0
   -0.0350    8.7230  -13.2470 C   0  0  0  0  0  0  0  0  0  0  0  0
   -0.4680    9.9760  -13.5610 C   0  0  0  0  0  0  0  0  0  0  0  0
    0.4300   11.0320  -13.4490 C   0  0  0  0  0  0  0  0  0  0  0  0
   -0.2290   12.6210  -13.7690 Cl  0  0  0  0  0  0  0  0  0  0  0  0
   -0.9320    7.6060  -13.3430 N   0  0  0  0  0  0  0  0  0  0  0  0
   -0.4680    6.3010  -13.0030 C   0  0  0  0  0  0  0  0  0  0  0  0
   -1.0260    5.2970  -13.4800 O   0  0  0  0  0  0  0  0  0  0  0  0
    0.6860    6.2100  -12.0750 C   0  0  0  0  0  0  0  0  0  0  0  0
    1.6350    7.1770  -12.5170 O   0  0  0  0  0  0  0  0  0  0  0  0
    3.2660   13.8170  -10.5860 H   0  0  0  0  0  0  0  0  0  0  0  0
    3.5580   16.2910  -11.0650 H   0  0  0  0  0  0  0  0  0  0  0  0
    4.5410   15.1210  -11.9880 H   0  0  0  0  0  0  0  0  0  0  0  0
    2.0580   16.6100  -12.8560 H   0  0  0  0  0  0  0  0  0  0  0  0
    3.5640   16.2750  -13.8490 H   0  0  0  0  0  0  0  0  0  0  0  0
    2.8690   14.1940  -14.5070 H   0  0  0  0  0  0  0  0  0  0  0  0
    1.2300   14.7070  -13.8870 H   0  0  0  0  0  0  0  0  0  0  0  0
   -0.4290   14.1100  -11.6670 H   0  0  0  0  0  0  0  0  0  0  0  0
    0.0680   16.9700  -11.4620 H   0  0  0  0  0  0  0  0  0  0  0  0
    0.5620   16.3560  -13.0520 H   0  0  0  0  0  0  0  0  0  0  0  0
   -2.0450   15.3240  -12.4620 H   0  0  0  0  0  0  0  0  0  0  0  0
   -1.5220   16.4100  -13.7740 H   0  0  0  0  0  0  0  0  0  0  0  0
   -2.4220   18.1700  -14.0460 H   0  0  0  0  0  0  0  0  0  0  0  0
   -1.8910   19.2620  -12.7510 H   0  0  0  0  0  0  0  0  0  0  0  0
   -4.1990   19.8600  -13.1950 H   0  0  0  0  0  0  0  0  0  0  0  0
   -4.7500   18.1760  -13.0670 H   0  0  0  0  0  0  0  0  0  0  0  0
   -5.0430   19.6210  -10.9210 H   0  0  0  0  0  0  0  0  0  0  0  0
   -4.0600   18.1610  -10.6820 H   0  0  0  0  0  0  0  0  0  0  0  0
   -3.2600   20.5400   -9.8550 H   0  0  0  0  0  0  0  0  0  0  0  0
   -2.7140   20.7270  -11.5350 H   0  0  0  0  0  0  0  0  0  0  0  0
   -0.8010   19.6240  -11.0670 H   0  0  0  0  0  0  0  0  0  0  0  0
   -1.4140   19.2700   -9.4490 H   0  0  0  0  0  0  0  0  0  0  0  0
   -2.3900   17.1990  -10.0380 H   0  0  0  0  0  0  0  0  0  0  0  0
   -0.7490   17.2860  -10.6890 H   0  0  0  0  0  0  0  0  0  0  0  0
    3.1250    9.3730  -12.3990 H   0  0  0  0  0  0  0  0  0  0  0  0
   -1.4910   10.1300  -13.8900 H   0  0  0  0  0  0  0  0  0  0  0  0
   -1.9170    7.7780  -13.6630 H   0  0  0  0  0  0  0  0  0  0  0  0
    1.1470    5.2230  -12.0310 H   0  0  0  0  0  0  0  0  0  0  0  0
    0.3540    6.5550  -11.0570 H   0  0  0  0  0  0  0  0  0  0  0  0
  1  4  1  0  0  0  0
  1  2  2  0  0  0  0
  3  1  2  0  0  0  0
  4  5  1  0  0  0  0
  5  9  1  0  0  0  0
  5 33  1  1  0  0  0
  6  5  1  0  0  0  0
  6 34  1  0  0  0  0
  7 36  1  0  0  0  0
  7  6  1  0  0  0  0
  8  7  1  0  0  0  0
  8  4  1  0  0  0  0
  9 10  2  0  0  0  0
 11  9  1  0  0  0  0
 12 11  1  0  0  0  0
 12 41  1  0  0  0  0
 13 43  1  0  0  0  0
 13 12  1  0  0  0  0
 13 14  1  0  0  0  0
 14 20  1  0  0  0  0
 15 46  1  0  0  0  0
 15 16  1  0  0  0  0
 15 14  1  0  0  0  0
 16 17  1  0  0  0  0
 17 49  1  0  0  0  0
 17 18  1  0  0  0  0
 17 50  1  0  0  0  0
 18 19  1  0  0  0  0
 18 51  1  0  0  0  0
 19 54  1  0  0  0  0
 20 56  1  0  0  0  0
 20 19  1  0  0  0  0
 20 55  1  0  0  0  0
 21  1  1  0  0  0  0
 21 22  1  0  0  0  0
 22 57  1  0  0  0  0
 23 22  2  0  0  0  0
 23 32  1  0  0  0  0
 24 23  1  0  0  0  0
 25 26  1  0  0  0  0
 25 24  2  0  0  0  0
 26 21  2  0  0  0  0
 27 26  1  0  0  0  0
 28 24  1  0  0  0  0
 28 29  1  0  0  0  0
 29 31  1  0  0  0  0
 30 29  2  0  0  0  0
 31 60  1  0  0  0  0
 31 61  1  0  0  0  0
 32 31  1  0  0  0  0
 35  6  1  0  0  0  0
 37  7  1  0  0  0  0
 38  8  1  0  0  0  0
 39  8  1  0  0  0  0
 40 11  1  0  0  0  0
 42 12  1  0  0  0  0
 44 13  1  0  0  0  0
 45 15  1  0  0  0  0
 47 16  1  0  0  0  0
 48 16  1  0  0  0  0
 52 18  1  0  0  0  0
 53 19  1  0  0  0  0
 58 25  1  0  0  0  0
 59 28  1  0  0  0  0
M  END
>  <Pose>
1

>  <Score>
-5.74

$$$$
