
 OpenBabel03232203513D

 42 45  0  0  0  0  0  0  0  0999 V2000
   -0.1790    6.6570  -13.8280 Cl  0  0  0  0  0  0  0  0  0  0  0  0
    0.5470    8.2280  -13.4790 C   0  0  0  0  0  0  0  0  0  0  0  0
    0.2120    9.3630  -14.1610 C   0  0  0  0  0  0  0  0  0  0  0  0
    0.7570   10.6070  -13.9180 C   0  0  0  0  0  0  0  0  0  0  0  0
    1.7100   10.6930  -12.9080 C   0  0  0  0  0  0  0  0  0  0  0  0
    2.0590    9.5320  -12.2040 C   0  0  0  0  0  0  0  0  0  0  0  0
    1.4890    8.3230  -12.4840 C   0  0  0  0  0  0  0  0  0  0  0  0
    2.3110   11.9320  -12.6020 N   0  0  0  0  0  0  0  0  0  0  0  0
    3.5830   12.1160  -12.3380 N   0  0  0  0  0  0  0  0  0  0  0  0
    3.7400   13.4150  -12.1040 N   0  0  0  0  0  0  0  0  0  0  0  0
    2.5670   14.0680  -12.2170 C   0  0  0  0  0  0  0  0  0  0  0  0
    1.6800   13.1180  -12.5300 C   0  0  0  0  0  0  0  0  0  0  0  0
    0.4700   13.7880  -12.6480 C   0  0  0  0  0  0  0  0  0  0  0  0
   -0.6120   13.2280  -12.9350 O   0  0  0  0  0  0  0  0  0  0  0  0
    0.6010   15.1020  -12.4160 N   0  0  0  0  0  0  0  0  0  0  0  0
    1.9080   15.2780  -12.1470 C   0  0  0  0  0  0  0  0  0  0  0  0
    2.4530   16.3890  -11.8720 O   0  0  0  0  0  0  0  0  0  0  0  0
   -0.3920   16.1230  -12.4370 C   0  0  0  0  0  0  0  0  0  0  0  0
   -0.5640   17.0260  -11.4060 C   0  0  0  0  0  0  0  0  0  0  0  0
   -1.5270   18.0120  -11.4340 C   0  0  0  0  0  0  0  0  0  0  0  0
   -2.3780   18.1410  -12.5120 C   0  0  0  0  0  0  0  0  0  0  0  0
   -2.2190   17.2470  -13.5500 C   0  0  0  0  0  0  0  0  0  0  0  0
   -1.2490   16.2610  -13.5120 C   0  0  0  0  0  0  0  0  0  0  0  0
   -3.3490   19.1400  -12.5310 O   0  0  0  0  0  0  0  0  0  0  0  0
   -4.7170   18.8890  -12.6300 C   0  0  0  0  0  0  0  0  0  0  0  0
   -1.7000   18.9210  -10.3950 O   0  0  0  0  0  0  0  0  0  0  0  0
   -2.8700   19.7170  -10.4150 C   0  0  0  0  0  0  0  0  0  0  0  0
   -0.5350    9.2880  -14.9520 H   0  0  0  0  0  0  0  0  0  0  0  0
    0.4680   11.4880  -14.4790 H   0  0  0  0  0  0  0  0  0  0  0  0
    2.8070    9.5910  -11.4080 H   0  0  0  0  0  0  0  0  0  0  0  0
    1.7520    7.4060  -11.9410 H   0  0  0  0  0  0  0  0  0  0  0  0
    4.3460   11.3760  -12.3150 H   0  0  0  0  0  0  0  0  0  0  0  0
    4.6670   13.8430  -11.8660 H   0  0  0  0  0  0  0  0  0  0  0  0
    0.0980   16.9320  -10.5590 H   0  0  0  0  0  0  0  0  0  0  0  0
   -2.8860   17.3470  -14.3960 H   0  0  0  0  0  0  0  0  0  0  0  0
   -1.1330   15.5640  -14.3340 H   0  0  0  0  0  0  0  0  0  0  0  0
   -5.2990   19.7580  -12.9990 H   0  0  0  0  0  0  0  0  0  0  0  0
   -4.9460   18.0470  -13.3360 H   0  0  0  0  0  0  0  0  0  0  0  0
   -5.0940   18.5920  -11.6320 H   0  0  0  0  0  0  0  0  0  0  0  0
   -3.7600   19.0860  -10.5770 H   0  0  0  0  0  0  0  0  0  0  0  0
   -2.9860   20.3120   -9.4910 H   0  0  0  0  0  0  0  0  0  0  0  0
   -2.7700   20.4440  -11.2470 H   0  0  0  0  0  0  0  0  0  0  0  0
  1  2  1  0  0  0  0
  2  7  1  0  0  0  0
  3  4  1  0  0  0  0
  3  2  2  0  0  0  0
  4  5  2  0  0  0  0
  5  8  1  0  0  0  0
  5  6  1  0  0  0  0
  6 30  1  0  0  0  0
  7  6  2  0  0  0  0
  7 31  1  0  0  0  0
  8 12  1  0  0  0  0
  8  9  1  0  0  0  0
  9 32  1  0  0  0  0
  9 10  1  0  0  0  0
 10 33  1  0  0  0  0
 11 16  1  0  0  0  0
 11 10  1  0  0  0  0
 12 11  2  0  0  0  0
 13 12  1  0  0  0  0
 13 15  1  0  0  0  0
 14 13  2  0  0  0  0
 15 16  1  0  0  0  0
 16 17  2  0  0  0  0
 18 15  1  0  0  0  0
 18 19  1  0  0  0  0
 19 34  1  0  0  0  0
 20 19  2  0  0  0  0
 20 26  1  0  0  0  0
 21 20  1  0  0  0  0
 22 23  1  0  0  0  0
 22 21  2  0  0  0  0
 23 18  2  0  0  0  0
 24 21  1  0  0  0  0
 25 24  1  0  0  0  0
 25 39  1  0  0  0  0
 27 26  1  0  0  0  0
 27 41  1  0  0  0  0
 28  3  1  0  0  0  0
 29  4  1  0  0  0  0
 35 22  1  0  0  0  0
 36 23  1  0  0  0  0
 37 25  1  0  0  0  0
 38 25  1  0  0  0  0
 40 27  1  0  0  0  0
 42 27  1  0  0  0  0
M  END
>  <Pose>
1

>  <Score>
-6.57

$$$$
