
 OpenBabel03232203513D

 42 45  0  0  0  0  0  0  0  0999 V2000
   -4.0360   18.8010  -13.7590 Cl  0  0  0  0  0  0  0  0  0  0  0  0
   -2.6360   17.8590  -13.2290 C   0  0  0  0  0  0  0  0  0  0  0  0
   -2.0350   16.9700  -14.0960 C   0  0  0  0  0  0  0  0  0  0  0  0
   -0.9480   16.2210  -13.7280 C   0  0  0  0  0  0  0  0  0  0  0  0
   -0.4080   16.3310  -12.4550 C   0  0  0  0  0  0  0  0  0  0  0  0
   -1.0230   17.2290  -11.5990 C   0  0  0  0  0  0  0  0  0  0  0  0
   -2.1170   17.9840  -11.9660 C   0  0  0  0  0  0  0  0  0  0  0  0
    0.7150   15.5730  -12.0390 N   0  0  0  0  0  0  0  0  0  0  0  0
    1.7050   16.0110  -11.2870 N   0  0  0  0  0  0  0  0  0  0  0  0
    2.5340   14.9860  -11.1410 N   0  0  0  0  0  0  0  0  0  0  0  0
    2.0880   13.8960  -11.7880 C   0  0  0  0  0  0  0  0  0  0  0  0
    0.9320   14.2810  -12.3550 C   0  0  0  0  0  0  0  0  0  0  0  0
    0.4760   13.1580  -13.0200 C   0  0  0  0  0  0  0  0  0  0  0  0
   -0.6070   13.1540  -13.6770 O   0  0  0  0  0  0  0  0  0  0  0  0
    1.3110   12.1160  -12.8750 N   0  0  0  0  0  0  0  0  0  0  0  0
    2.3150   12.5740  -12.1090 C   0  0  0  0  0  0  0  0  0  0  0  0
    3.3090   11.8750  -11.7480 O   0  0  0  0  0  0  0  0  0  0  0  0
    1.1210   10.8210  -13.4410 C   0  0  0  0  0  0  0  0  0  0  0  0
   -0.1020   10.1810  -13.4210 C   0  0  0  0  0  0  0  0  0  0  0  0
   -0.3100    8.9280  -13.9620 C   0  0  0  0  0  0  0  0  0  0  0  0
    0.7580    8.2840  -14.5500 C   0  0  0  0  0  0  0  0  0  0  0  0
    2.0030    8.8760  -14.5980 C   0  0  0  0  0  0  0  0  0  0  0  0
    2.1640   10.1400  -14.0390 C   0  0  0  0  0  0  0  0  0  0  0  0
    3.0540    8.1960  -15.1980 O   0  0  0  0  0  0  0  0  0  0  0  0
    4.2910    8.0290  -14.5610 C   0  0  0  0  0  0  0  0  0  0  0  0
   -1.5790    8.3180  -13.9160 O   0  0  0  0  0  0  0  0  0  0  0  0
   -2.6760    9.0590  -13.4320 C   0  0  0  0  0  0  0  0  0  0  0  0
   -2.4650   16.8840  -15.1030 H   0  0  0  0  0  0  0  0  0  0  0  0
   -0.4830   15.5250  -14.4130 H   0  0  0  0  0  0  0  0  0  0  0  0
   -0.5940   17.3160  -10.5890 H   0  0  0  0  0  0  0  0  0  0  0  0
   -2.5620   18.6650  -11.2780 H   0  0  0  0  0  0  0  0  0  0  0  0
    1.7970   16.9790  -10.8960 H   0  0  0  0  0  0  0  0  0  0  0  0
    3.4210   15.0170  -10.5920 H   0  0  0  0  0  0  0  0  0  0  0  0
   -0.9210   10.7290  -12.9440 H   0  0  0  0  0  0  0  0  0  0  0  0
    0.5960    7.2940  -14.9770 H   0  0  0  0  0  0  0  0  0  0  0  0
    3.1580   10.6120  -14.0770 H   0  0  0  0  0  0  0  0  0  0  0  0
    4.8110    9.0200  -14.5860 H   0  0  0  0  0  0  0  0  0  0  0  0
    4.2070    7.6280  -13.5380 H   0  0  0  0  0  0  0  0  0  0  0  0
    4.8720    7.2710  -15.1630 H   0  0  0  0  0  0  0  0  0  0  0  0
   -2.7360   10.0700  -13.8630 H   0  0  0  0  0  0  0  0  0  0  0  0
   -3.6190    8.5290  -13.6590 H   0  0  0  0  0  0  0  0  0  0  0  0
   -2.6330    9.1870  -12.3220 H   0  0  0  0  0  0  0  0  0  0  0  0
  1  2  1  0  0  0  0
  2  7  1  0  0  0  0
  3  4  1  0  0  0  0
  3  2  2  0  0  0  0
  4  5  2  0  0  0  0
  5  8  1  0  0  0  0
  5  6  1  0  0  0  0
  6 30  1  0  0  0  0
  7  6  2  0  0  0  0
  7 31  1  0  0  0  0
  8  9  1  0  0  0  0
  9 10  1  0  0  0  0
  9 32  1  0  0  0  0
 10 33  1  0  0  0  0
 11 10  1  0  0  0  0
 12  8  1  0  0  0  0
 12 11  2  0  0  0  0
 13 15  1  0  0  0  0
 13 12  1  0  0  0  0
 14 13  2  0  0  0  0
 15 16  1  0  0  0  0
 16 11  1  0  0  0  0
 16 17  2  0  0  0  0
 18 19  1  0  0  0  0
 18 15  1  0  0  0  0
 19 34  1  0  0  0  0
 20 26  1  0  0  0  0
 20 19  2  0  0  0  0
 21 20  1  0  0  0  0
 22 21  2  0  0  0  0
 22 23  1  0  0  0  0
 23 18  2  0  0  0  0
 24 22  1  0  0  0  0
 24 25  1  0  0  0  0
 25 38  1  0  0  0  0
 26 27  1  0  0  0  0
 27 42  1  0  0  0  0
 28  3  1  0  0  0  0
 29  4  1  0  0  0  0
 35 21  1  0  0  0  0
 36 23  1  0  0  0  0
 37 25  1  0  0  0  0
 39 25  1  0  0  0  0
 40 27  1  0  0  0  0
 41 27  1  0  0  0  0
M  END
>  <Pose>
1

>  <Score>
-7.14

$$$$
