
 OpenBabel03232203513D

 43 46  0  0  1  0  0  0  0  0999 V2000
    2.6990    7.2000  -13.0920 Cl  0  0  0  0  0  0  0  0  0  0  0  0
    1.0380    7.7700  -13.2780 C   0  0  0  0  0  0  0  0  0  0  0  0
    0.8180    9.1470  -13.3700 C   0  0  0  0  0  0  0  0  0  0  0  0
   -0.4530    9.6600  -13.5250 C   0  0  2  0  0  0  0  0  0  0  0  0
   -1.4870    8.7470  -13.5810 C   0  0  0  0  0  0  0  0  0  0  0  0
   -1.3180    7.4040  -13.4950 C   0  0  0  0  0  0  0  0  0  0  0  0
   -0.0210    6.8920  -13.3390 C   0  0  0  0  0  0  0  0  0  0  0  0
   -2.8480    9.3170  -13.7520 C   0  0  0  0  0  0  0  0  0  0  0  0
   -4.0120    8.7490  -13.8390 N   0  0  0  0  0  0  0  0  0  0  0  0
   -5.0500    9.7400  -14.0010 C   0  0  0  0  0  0  0  0  0  0  0  0
   -4.3690   11.0860  -14.0210 C   0  0  0  0  0  0  0  0  0  0  0  0
   -2.9760   10.7130  -13.8400 N   0  0  0  0  0  0  0  0  0  0  0  0
   -1.8540   11.5910  -13.7720 C   0  0  0  0  0  0  0  0  0  0  0  0
   -1.7560   12.9350  -13.8420 N   0  0  0  0  0  0  0  0  0  0  0  0
   -0.4760   13.2840  -13.7370 N   0  0  0  0  0  0  0  0  0  0  0  0
    0.1910   12.1390  -13.6050 C   0  0  0  0  0  0  0  0  0  0  0  0
    1.4440   12.0420  -13.4790 O   0  0  0  0  0  0  0  0  0  0  0  0
   -0.6430   11.0630  -13.6210 N   0  0  0  0  0  0  0  0  0  0  0  0
    0.0640   14.6460  -13.7790 C   0  0  0  0  0  0  0  0  0  0  0  0
   -0.3800   15.2300  -12.4030 C   0  0  0  0  0  0  0  0  0  0  0  0
    0.1220   14.4930  -11.4830 O   0  0  0  0  0  0  0  0  0  0  0  0
   -1.1600   16.3180  -12.3390 N   0  0  0  0  0  0  0  0  0  0  0  0
   -1.9620   17.4360  -12.2720 C   0  0  0  0  0  0  0  0  0  0  0  0
   -1.7240   18.2550  -10.9980 C   0  0  0  0  0  0  0  0  0  0  0  0
   -2.4760   19.4050  -10.9910 O   0  0  0  0  0  0  0  0  0  0  0  0
   -3.8240   19.2250  -10.8710 C   0  0  0  0  0  0  0  0  0  0  0  0
    1.6850    9.7810  -13.3160 H   0  0  0  0  0  0  0  0  0  0  0  0
   -2.1420    6.7230  -13.5310 H   0  0  0  0  0  0  0  0  0  0  0  0
    0.1620    5.8360  -13.2690 H   0  0  0  0  0  0  0  0  0  0  0  0
   -5.7500    9.6480  -13.1420 H   0  0  0  0  0  0  0  0  0  0  0  0
   -5.5990    9.5850  -14.9660 H   0  0  0  0  0  0  0  0  0  0  0  0
   -4.6870   11.7230  -13.1890 H   0  0  0  0  0  0  0  0  0  0  0  0
   -4.5410   11.5940  -15.0070 H   0  0  0  0  0  0  0  0  0  0  0  0
    1.1360   14.6520  -13.8180 H   0  0  0  0  0  0  0  0  0  0  0  0
   -0.4360   15.1860  -14.5690 H   0  0  0  0  0  0  0  0  0  0  0  0
   -1.0920   16.2900  -10.9830 H   0  0  0  0  0  0  0  0  0  0  0  0
   -1.9630   18.0960  -13.1650 H   0  0  0  0  0  0  0  0  0  0  0  0
   -3.0830   17.1440  -12.2080 H   0  0  0  0  0  0  0  0  0  0  0  0
   -1.8470   17.6590  -10.0790 H   0  0  0  0  0  0  0  0  0  0  0  0
   -0.6500   18.5560  -11.0610 H   0  0  0  0  0  0  0  0  0  0  0  0
   -4.0830   18.7450   -9.8760 H   0  0  0  0  0  0  0  0  0  0  0  0
   -4.2070   18.4560  -11.5930 H   0  0  0  0  0  0  0  0  0  0  0  0
   -4.3830   20.1710  -10.9580 H   0  0  0  0  0  0  0  0  0  0  0  0
  2  1  1  0  0  0  0
  3 27  1  0  0  0  0
  3  2  2  0  0  0  0
  4  5  1  6  0  0  0
  4  3  1  0  0  0  0
  5  6  1  0  0  0  0
  6  7  2  0  0  0  0
  7  2  1  0  0  0  0
  7 29  1  0  0  0  0
  8  5  2  0  0  0  0
  9  8  1  0  0  0  0
 10  9  1  0  0  0  0
 10 30  1  0  0  0  0
 11 10  1  0  0  0  0
 11 12  1  0  0  0  0
 11 32  1  0  0  0  0
 12 13  1  0  0  0  0
 12  8  1  0  0  0  0
 13 18  1  0  0  0  0
 14 13  2  0  0  0  0
 14 15  1  0  0  0  0
 15 16  1  0  0  0  0
 16 17  2  0  0  0  0
 18 16  1  0  0  0  0
 18  4  1  0  0  0  0
 19 15  1  0  0  0  0
 19 20  1  0  0  0  0
 20 22  1  0  0  0  0
 20 21  2  0  0  0  0
 22 23  1  0  0  0  0
 22 36  1  0  0  0  0
 23 38  1  0  0  0  0
 23 24  1  0  0  0  0
 24 25  1  0  0  0  0
 24 39  1  0  0  0  0
 25 26  1  0  0  0  0
 26 41  1  0  0  0  0
 28  6  1  0  0  0  0
 31 10  1  0  0  0  0
 33 11  1  0  0  0  0
 34 19  1  0  0  0  0
 35 19  1  0  0  0  0
 37 23  1  0  0  0  0
 40 24  1  0  0  0  0
 42 26  1  0  0  0  0
 43 26  1  0  0  0  0
M  END
>  <Pose>
1

>  <Score>
-6.13

$$$$
