
 OpenBabel03232203513D

 47 50  0  0  0  0  0  0  0  0999 V2000
   -5.9420   21.3800  -10.7140 Cl  0  0  0  0  0  0  0  0  0  0  0  0
   -4.6750   20.1940  -11.0230 C   0  0  0  0  0  0  0  0  0  0  0  0
   -4.5530   19.5440  -12.2130 C   0  0  0  0  0  0  0  0  0  0  0  0
   -3.5440   18.6220  -12.4100 C   0  0  0  0  0  0  0  0  0  0  0  0
   -2.6460   18.3450  -11.4110 C   0  0  0  0  0  0  0  0  0  0  0  0
   -2.7710   19.0010  -10.2130 C   0  0  0  0  0  0  0  0  0  0  0  0
   -3.7800   19.9250  -10.0130 C   0  0  0  0  0  0  0  0  0  0  0  0
   -1.5780   17.3850  -11.5800 N   0  0  0  0  0  0  0  0  0  0  0  0
   -1.4120   16.6860  -12.7980 C   0  0  0  0  0  0  0  0  0  0  0  0
   -0.4560   15.8090  -12.9910 C   0  0  0  0  0  0  0  0  0  0  0  0
    0.5440   15.4160  -12.0600 N   0  0  0  0  0  0  0  0  0  0  0  0
    0.2480   14.7680  -10.7990 C   0  0  0  0  0  0  0  0  0  0  0  0
    1.2320   13.5970  -10.6490 C   0  0  0  0  0  0  0  0  0  0  0  0
    2.0000   13.3890  -11.8280 N   0  0  0  0  0  0  0  0  0  0  0  0
    2.8560   14.5150  -12.1970 C   0  0  0  0  0  0  0  0  0  0  0  0
    1.9340   15.7010  -12.3590 C   0  0  0  0  0  0  0  0  0  0  0  0
    2.0340   12.2640  -12.6880 C   0  0  0  0  0  0  0  0  0  0  0  0
    3.1460   11.4400  -12.6400 N   0  0  0  0  0  0  0  0  0  0  0  0
    3.3050   10.3620  -13.4040 C   0  0  0  0  0  0  0  0  0  0  0  0
    2.3130   10.0460  -14.2910 C   0  0  0  0  0  0  0  0  0  0  0  0
    1.2010   10.8360  -14.3660 C   0  0  0  0  0  0  0  0  0  0  0  0
    1.0250   11.9780  -13.5590 C   0  0  0  0  0  0  0  0  0  0  0  0
   -0.1670   12.7650  -13.6420 C   0  0  0  0  0  0  0  0  0  0  0  0
   -0.3410   13.7300  -14.3830 O   0  0  0  0  0  0  0  0  0  0  0  0
   -1.2640   12.4220  -12.8040 N   0  0  0  0  0  0  0  0  0  0  0  0
   -2.3480   16.9630  -13.8650 N   0  0  0  0  0  0  0  0  0  0  0  0
   -3.3840   17.9070  -13.6680 C   0  0  0  0  0  0  0  0  0  0  0  0
   -4.2240   18.1680  -14.5970 O   0  0  0  0  0  0  0  0  0  0  0  0
   -5.2320   19.7310  -13.0130 H   0  0  0  0  0  0  0  0  0  0  0  0
   -2.0530   18.7710   -9.4350 H   0  0  0  0  0  0  0  0  0  0  0  0
   -3.8720   20.4340   -9.0770 H   0  0  0  0  0  0  0  0  0  0  0  0
   -0.9290   17.2170  -10.7920 H   0  0  0  0  0  0  0  0  0  0  0  0
   -0.4300   15.3280  -13.9820 H   0  0  0  0  0  0  0  0  0  0  0  0
   -0.7620   14.3680  -10.7220 H   0  0  0  0  0  0  0  0  0  0  0  0
    0.4090   15.5230   -9.9750 H   0  0  0  0  0  0  0  0  0  0  0  0
    0.6330   12.7260  -10.4100 H   0  0  0  0  0  0  0  0  0  0  0  0
    1.8890   13.9490   -9.8150 H   0  0  0  0  0  0  0  0  0  0  0  0
    3.3820   14.3610  -13.1400 H   0  0  0  0  0  0  0  0  0  0  0  0
    3.5890   14.7400  -11.3960 H   0  0  0  0  0  0  0  0  0  0  0  0
    2.2200   16.5310  -11.6670 H   0  0  0  0  0  0  0  0  0  0  0  0
    2.0170   16.1180  -13.3910 H   0  0  0  0  0  0  0  0  0  0  0  0
    4.2140    9.7630  -13.3060 H   0  0  0  0  0  0  0  0  0  0  0  0
    2.4180    9.1870  -14.9160 H   0  0  0  0  0  0  0  0  0  0  0  0
    0.3740   10.6240  -15.0640 H   0  0  0  0  0  0  0  0  0  0  0  0
   -2.1470   12.0390  -13.2100 H   0  0  0  0  0  0  0  0  0  0  0  0
   -1.2530   12.5300  -11.7660 H   0  0  0  0  0  0  0  0  0  0  0  0
   -2.2570   16.4670  -14.7730 H   0  0  0  0  0  0  0  0  0  0  0  0
  2  1  1  0  0  0  0
  2  7  1  0  0  0  0
  3  2  2  0  0  0  0
  4  3  1  0  0  0  0
  4  5  2  0  0  0  0
  5  6  1  0  0  0  0
  6  7  2  0  0  0  0
  6 30  1  0  0  0  0
  7 31  1  0  0  0  0
  8  5  1  0  0  0  0
  8 32  1  0  0  0  0
  9  8  1  0  0  0  0
 10  9  2  0  0  0  0
 10 11  1  0  0  0  0
 11 12  1  0  0  0  0
 12 34  1  0  0  0  0
 12 13  1  0  0  0  0
 12 35  1  0  0  0  0
 13 36  1  0  0  0  0
 13 37  1  0  0  0  0
 14 13  1  0  0  0  0
 15 14  1  0  0  0  0
 15 39  1  0  0  0  0
 16 15  1  0  0  0  0
 16 11  1  0  0  0  0
 16 40  1  0  0  0  0
 17 18  1  0  0  0  0
 17 14  1  0  0  0  0
 19 42  1  0  0  0  0
 19 18  2  0  0  0  0
 20 19  1  0  0  0  0
 21 20  2  0  0  0  0
 21 22  1  0  0  0  0
 22 17  2  0  0  0  0
 23 22  1  0  0  0  0
 23 25  1  0  0  0  0
 24 23  2  0  0  0  0
 25 46  1  0  0  0  0
 26 27  1  0  0  0  0
 26  9  1  0  0  0  0
 27  4  1  0  0  0  0
 28 27  2  0  0  0  0
 29  3  1  0  0  0  0
 33 10  1  0  0  0  0
 38 15  1  0  0  0  0
 41 16  1  0  0  0  0
 43 20  1  0  0  0  0
 44 21  1  0  0  0  0
 45 25  1  0  0  0  0
 47 26  1  0  0  0  0
M  END
>  <Pose>
1

>  <Score>
-7.01

$$$$
