
 OpenBabel03232203513D

 38 42  0  0  1  0  0  0  0  0999 V2000
   -5.0940   20.7500  -10.2490 B   0  0  0  0  0  0  0  0  0  0  0  0
   -3.6680   19.6400  -10.8240 C   0  0  0  0  0  0  0  0  0  0  0  0
   -2.5830   19.4510  -10.0020 C   0  0  0  0  0  0  0  0  0  0  0  0
   -1.5620   18.6390  -10.4450 C   0  0  0  0  0  0  0  0  0  0  0  0
   -1.5970   18.0200  -11.6740 C   0  0  0  0  0  0  0  0  0  0  0  0
   -2.6930   18.2090  -12.5050 C   0  0  0  0  0  0  0  0  0  0  0  0
   -3.7260   19.0320  -12.0530 C   0  0  0  0  0  0  0  0  0  0  0  0
   -0.5290   17.1760  -12.1220 N   0  0  0  0  0  0  0  0  0  0  0  0
   -0.6250   16.3640  -13.2820 C   0  0  0  0  0  0  0  0  0  0  0  0
   -1.4630   16.5410  -14.1980 O   0  0  0  0  0  0  0  0  0  0  0  0
    0.4120   15.3000  -13.2170 C   0  0  2  0  0  0  0  0  0  0  0  0
   -0.1180   14.0260  -12.6340 C   0  0  1  0  0  0  0  0  0  0  0  0
    1.0450   13.5300  -12.0050 O   0  0  0  0  0  0  0  0  0  0  0  0
    1.2480   14.6280  -11.1320 C   0  0  1  0  0  0  0  0  0  0  0  0
    1.3600   15.7510  -12.1050 C   0  0  2  0  0  0  0  0  0  0  0  0
    0.7590   16.9880  -11.5370 C   0  0  0  0  0  0  0  0  0  0  0  0
    1.3030   17.7150  -10.7020 O   0  0  0  0  0  0  0  0  0  0  0  0
   -0.0950   14.6850  -10.4990 C   0  0  0  0  0  0  0  0  0  0  0  0
   -0.9480   14.3670  -11.4680 C   0  0  0  0  0  0  0  0  0  0  0  0
   -0.6970   13.0800  -13.5960 C   0  0  0  0  0  0  0  0  0  0  0  0
   -1.6380   12.2450  -13.0580 O   0  0  0  0  0  0  0  0  0  0  0  0
   -1.1290   10.9710  -13.0220 C   0  0  0  0  0  0  0  0  0  0  0  0
    0.2450   11.0480  -13.6010 C   0  0  0  0  0  0  0  0  0  0  0  0
    0.2730   12.3020  -14.2010 O   0  0  0  0  0  0  0  0  0  0  0  0
   -2.5050   19.9200   -9.0170 H   0  0  0  0  0  0  0  0  0  0  0  0
   -0.6790   18.4680   -9.8110 H   0  0  0  0  0  0  0  0  0  0  0  0
   -2.7070   17.7180  -13.4630 H   0  0  0  0  0  0  0  0  0  0  0  0
   -4.5790   19.1790  -12.7000 H   0  0  0  0  0  0  0  0  0  0  0  0
    0.9060   15.1820  -14.1810 H   0  0  0  0  0  0  0  0  0  0  0  0
    2.0720   14.4890  -10.4540 H   0  0  0  0  0  0  0  0  0  0  0  0
    2.3640   15.9300  -12.4890 H   0  0  0  0  0  0  0  0  0  0  0  0
   -0.2580   14.9400   -9.4600 H   0  0  0  0  0  0  0  0  0  0  0  0
   -2.0220   14.3930  -11.3160 H   0  0  0  0  0  0  0  0  0  0  0  0
   -1.1820   13.6780  -14.4130 H   0  0  0  0  0  0  0  0  0  0  0  0
   -1.7360   10.2360  -13.5860 H   0  0  0  0  0  0  0  0  0  0  0  0
   -1.0380   10.6720  -11.9460 H   0  0  0  0  0  0  0  0  0  0  0  0
    0.4010   10.2340  -14.3670 H   0  0  0  0  0  0  0  0  0  0  0  0
    1.0540   10.9980  -12.8290 H   0  0  0  0  0  0  0  0  0  0  0  0
  2  1  1  0  0  0  0
  2  3  1  0  0  0  0
  3 25  1  0  0  0  0
  4  3  2  0  0  0  0
  4 26  1  0  0  0  0
  5  4  1  0  0  0  0
  6  7  1  0  0  0  0
  6  5  2  0  0  0  0
  7  2  2  0  0  0  0
  8  5  1  0  0  0  0
  8 16  1  0  0  0  0
  9 11  1  0  0  0  0
  9  8  1  0  0  0  0
 10  9  2  0  0  0  0
 11 29  1  6  0  0  0
 11 12  1  0  0  0  0
 11 15  1  0  0  0  0
 12 20  1  6  0  0  0
 12 13  1  0  0  0  0
 12 19  1  0  0  0  0
 13 14  1  0  0  0  0
 14 18  1  0  0  0  0
 14 30  1  1  0  0  0
 15 31  1  6  0  0  0
 15 16  1  0  0  0  0
 15 14  1  0  0  0  0
 16 17  2  0  0  0  0
 18 32  1  0  0  0  0
 19 33  1  0  0  0  0
 19 18  2  0  0  0  0
 20 21  1  0  0  0  0
 21 22  1  0  0  0  0
 22 36  1  0  0  0  0
 23 22  1  0  0  0  0
 23 38  1  0  0  0  0
 24 23  1  0  0  0  0
 24 20  1  0  0  0  0
 27  6  1  0  0  0  0
 28  7  1  0  0  0  0
 34 20  1  0  0  0  0
 35 22  1  0  0  0  0
 37 23  1  0  0  0  0
M  END
>  <Pose>
1

>  <Score>
-3.54

$$$$
