
 OpenBabel03232203513D

 57 60  0  0  1  0  0  0  0  0999 V2000
    2.0430    9.3600  -14.0840 S   0  0  0  0  0  0  0  0  0  0  0  0
    2.6230    9.5040  -15.4620 O   0  0  0  0  0  0  0  0  0  0  0  0
    0.5430    9.2860  -14.2730 O   0  0  0  0  0  0  0  0  0  0  0  0
    2.3520   10.7480  -13.1180 N   0  0  0  0  0  0  0  0  0  0  0  0
    3.7370   11.1410  -13.1900 C   0  0  0  0  0  0  0  0  0  0  0  0
    3.8500   12.5360  -12.6220 C   0  0  0  0  0  0  0  0  0  0  0  0
    2.6220   12.8820  -11.9540 N   0  0  0  0  0  0  0  0  0  0  0  0
    1.9110   11.9240  -11.1150 C   0  0  0  0  0  0  0  0  0  0  0  0
    2.0290   10.5250  -11.7240 C   0  0  0  0  0  0  0  0  0  0  0  0
    2.0770   14.1680  -12.1150 C   0  0  0  0  0  0  0  0  0  0  0  0
    2.7920   15.0810  -12.6580 O   0  0  0  0  0  0  0  0  0  0  0  0
    0.6920   14.4670  -11.6590 C   0  0  1  0  0  0  0  0  0  0  0  0
    0.2920   15.8920  -11.9090 C   0  0  0  0  0  0  0  0  0  0  0  0
   -0.5900   15.8530  -13.0710 N   0  0  0  0  0  0  0  0  0  0  0  0
   -0.6760   14.5270  -13.5600 C   0  0  0  0  0  0  0  0  0  0  0  0
   -0.9960   14.2210  -14.7340 O   0  0  0  0  0  0  0  0  0  0  0  0
   -0.3200   13.6560  -12.4200 C   0  0  0  0  0  0  0  0  0  0  0  0
   -1.2620   17.0030  -13.6300 C   0  0  0  0  0  0  0  0  0  0  0  0
   -1.9630   17.7920  -12.5900 C   0  0  0  0  0  0  0  0  0  0  0  0
   -3.2600   18.2230  -12.8260 C   0  0  0  0  0  0  0  0  0  0  0  0
   -3.9760   18.9640  -11.9020 C   0  0  0  0  0  0  0  0  0  0  0  0
   -3.3460   19.2700  -10.7130 C   0  0  0  0  0  0  0  0  0  0  0  0
   -2.0520   18.8560  -10.4450 C   0  0  0  0  0  0  0  0  0  0  0  0
   -1.3550   18.1100  -11.3940 C   0  0  0  0  0  0  0  0  0  0  0  0
   -4.0010   17.8050  -14.3470 Cl  0  0  0  0  0  0  0  0  0  0  0  0
    2.5820    7.9040  -13.3050 C   0  0  0  0  0  0  0  0  0  0  0  0
    3.7410    7.1760  -13.4560 C   0  0  0  0  0  0  0  0  0  0  0  0
    3.6680    6.1030  -12.6100 N   0  0  0  0  0  0  0  0  0  0  0  0
    2.5510    6.1720  -11.9900 O   0  0  0  0  0  0  0  0  0  0  0  0
    1.8500    7.2200  -12.3530 C   0  0  0  0  0  0  0  0  0  0  0  0
    0.5190    7.5450  -11.7950 C   0  0  0  0  0  0  0  0  0  0  0  0
    4.8480    7.5190  -14.3680 C   0  0  0  0  0  0  0  0  0  0  0  0
    4.3870   10.4780  -12.5550 H   0  0  0  0  0  0  0  0  0  0  0  0
    4.1420   11.0800  -14.2210 H   0  0  0  0  0  0  0  0  0  0  0  0
    4.7260   12.6170  -11.9260 H   0  0  0  0  0  0  0  0  0  0  0  0
    3.9960   13.2300  -13.4660 H   0  0  0  0  0  0  0  0  0  0  0  0
    2.2880   11.9660  -10.0760 H   0  0  0  0  0  0  0  0  0  0  0  0
    0.8510   12.2360  -11.0940 H   0  0  0  0  0  0  0  0  0  0  0  0
    1.0910    9.9990  -11.5590 H   0  0  0  0  0  0  0  0  0  0  0  0
    2.8380   10.0130  -11.1640 H   0  0  0  0  0  0  0  0  0  0  0  0
    0.6290   14.2190  -10.5560 H   0  0  0  0  0  0  0  0  0  0  0  0
   -0.2460   16.2880  -11.0110 H   0  0  0  0  0  0  0  0  0  0  0  0
    1.1730   16.5640  -12.1430 H   0  0  0  0  0  0  0  0  0  0  0  0
    0.0950   12.6810  -12.7570 H   0  0  0  0  0  0  0  0  0  0  0  0
   -1.2170   13.5200  -11.7750 H   0  0  0  0  0  0  0  0  0  0  0  0
   -1.9880   16.7350  -14.4270 H   0  0  0  0  0  0  0  0  0  0  0  0
   -0.4860   17.6820  -14.0700 H   0  0  0  0  0  0  0  0  0  0  0  0
   -4.9830   19.2690  -12.1460 H   0  0  0  0  0  0  0  0  0  0  0  0
   -3.8890   19.8560   -9.9650 H   0  0  0  0  0  0  0  0  0  0  0  0
   -1.6000   19.1180   -9.5040 H   0  0  0  0  0  0  0  0  0  0  0  0
   -0.3460   17.7890  -11.1860 H   0  0  0  0  0  0  0  0  0  0  0  0
    0.1030    8.4020  -12.3640 H   0  0  0  0  0  0  0  0  0  0  0  0
   -0.1330    6.6470  -12.0050 H   0  0  0  0  0  0  0  0  0  0  0  0
    0.5830    7.7080  -10.7180 H   0  0  0  0  0  0  0  0  0  0  0  0
    5.7650    7.0170  -13.9350 H   0  0  0  0  0  0  0  0  0  0  0  0
    4.7460    7.1120  -15.3780 H   0  0  0  0  0  0  0  0  0  0  0  0
    5.0290    8.6310  -14.4060 H   0  0  0  0  0  0  0  0  0  0  0  0
  1 26  1  0  0  0  0
  1  4  1  0  0  0  0
  2  1  2  0  0  0  0
  3  1  2  0  0  0  0
  4  9  1  0  0  0  0
  5  4  1  0  0  0  0
  5  6  1  0  0  0  0
  5 33  1  0  0  0  0
  6  7  1  0  0  0  0
  6 35  1  0  0  0  0
  7  8  1  0  0  0  0
  8 38  1  0  0  0  0
  8 37  1  0  0  0  0
  9 39  1  0  0  0  0
  9 40  1  0  0  0  0
  9  8  1  0  0  0  0
 10  7  1  0  0  0  0
 10 12  1  0  0  0  0
 11 10  2  0  0  0  0
 12 41  1  1  0  0  0
 13 12  1  0  0  0  0
 13 42  1  0  0  0  0
 14 13  1  0  0  0  0
 15 14  1  0  0  0  0
 15 17  1  0  0  0  0
 16 15  2  0  0  0  0
 17 45  1  0  0  0  0
 17 12  1  0  0  0  0
 18 14  1  0  0  0  0
 18 19  1  0  0  0  0
 19 24  1  0  0  0  0
 20 19  2  0  0  0  0
 20 21  1  0  0  0  0
 21 22  2  0  0  0  0
 22 23  1  0  0  0  0
 22 49  1  0  0  0  0
 23 50  1  0  0  0  0
 24 51  1  0  0  0  0
 24 23  2  0  0  0  0
 25 20  1  0  0  0  0
 26 30  2  0  0  0  0
 27 26  1  0  0  0  0
 27 28  2  0  0  0  0
 28 29  1  0  0  0  0
 30 29  1  0  0  0  0
 30 31  1  0  0  0  0
 31 54  1  0  0  0  0
 32 55  1  0  0  0  0
 32 27  1  0  0  0  0
 34  5  1  0  0  0  0
 36  6  1  0  0  0  0
 43 13  1  0  0  0  0
 44 17  1  0  0  0  0
 46 18  1  0  0  0  0
 47 18  1  0  0  0  0
 48 21  1  0  0  0  0
 52 31  1  0  0  0  0
 53 31  1  0  0  0  0
 56 32  1  0  0  0  0
 57 32  1  0  0  0  0
M  END
>  <Pose>
1

>  <Score>
-6.44

$$$$
