
 OpenBabel03232203513D

 58 61  0  0  0  0  0  0  0  0999 V2000
    4.9000    6.9560  -13.6430 Cl  0  0  0  0  0  0  0  0  0  0  0  0
    3.2180    7.3130  -13.3260 C   0  0  0  0  0  0  0  0  0  0  0  0
    2.6470    8.5400  -13.6500 C   0  0  0  0  0  0  0  0  0  0  0  0
    1.3260    8.8170  -13.3970 C   0  0  0  0  0  0  0  0  0  0  0  0
    0.5500    7.8470  -12.8070 C   0  0  0  0  0  0  0  0  0  0  0  0
    1.1280    6.6120  -12.4820 C   0  0  0  0  0  0  0  0  0  0  0  0
    2.4520    6.3340  -12.7340 C   0  0  0  0  0  0  0  0  0  0  0  0
    3.0240    5.0920  -12.4040 O   0  0  0  0  0  0  0  0  0  0  0  0
    3.6770    4.2950  -13.3620 C   0  0  0  0  0  0  0  0  0  0  0  0
   -0.7130    8.0980  -12.5610 O   0  0  0  0  0  0  0  0  0  0  0  0
   -1.2790    9.2430  -12.8520 C   0  0  0  0  0  0  0  0  0  0  0  0
   -2.5130    9.4500  -12.5970 O   0  0  0  0  0  0  0  0  0  0  0  0
   -0.5870   10.2940  -13.4510 C   0  0  0  0  0  0  0  0  0  0  0  0
    0.7400   10.0460  -13.7180 C   0  0  0  0  0  0  0  0  0  0  0  0
    1.5700   11.0680  -14.3480 C   0  0  0  0  0  0  0  0  0  0  0  0
   -1.2860   11.5630  -13.7570 C   0  0  0  0  0  0  0  0  0  0  0  0
   -0.6440   12.7160  -13.0670 C   0  0  0  0  0  0  0  0  0  0  0  0
   -0.0070   12.4720  -11.9850 O   0  0  0  0  0  0  0  0  0  0  0  0
   -0.6830   14.0280  -13.5060 N   0  0  0  0  0  0  0  0  0  0  0  0
   -0.0020   15.0980  -12.8480 C   0  0  0  0  0  0  0  0  0  0  0  0
   -1.0490   16.1300  -12.4230 C   0  0  0  0  0  0  0  0  0  0  0  0
   -1.8030   16.5360  -13.5600 N   0  0  0  0  0  0  0  0  0  0  0  0
   -1.4630   15.8870  -14.8440 C   0  0  0  0  0  0  0  0  0  0  0  0
   -1.4380   14.3830  -14.6860 C   0  0  0  0  0  0  0  0  0  0  0  0
   -2.8420   17.4900  -13.5600 C   0  0  0  0  0  0  0  0  0  0  0  0
   -3.5660   17.4820  -14.6740 O   0  0  0  0  0  0  0  0  0  0  0  0
   -3.2530   18.4570  -12.5870 C   0  0  0  0  0  0  0  0  0  0  0  0
   -2.3680   18.8040  -11.5350 C   0  0  0  0  0  0  0  0  0  0  0  0
   -2.7250   19.7200  -10.5820 C   0  0  0  0  0  0  0  0  0  0  0  0
   -1.9200   20.0110   -9.6580 O   0  0  0  0  0  0  0  0  0  0  0  0
   -3.9150   20.3360  -10.5810 N   0  0  0  0  0  0  0  0  0  0  0  0
   -4.7480   20.0090  -11.5690 C   0  0  0  0  0  0  0  0  0  0  0  0
   -5.8940   20.5670  -11.6130 O   0  0  0  0  0  0  0  0  0  0  0  0
   -4.4200   19.0920  -12.5450 N   0  0  0  0  0  0  0  0  0  0  0  0
   -4.2750   21.2980   -9.5640 C   0  0  0  0  0  0  0  0  0  0  0  0
    3.2430    9.3120  -14.1140 H   0  0  0  0  0  0  0  0  0  0  0  0
    0.5030    5.8640  -12.0190 H   0  0  0  0  0  0  0  0  0  0  0  0
    4.3050    4.8750  -14.0620 H   0  0  0  0  0  0  0  0  0  0  0  0
    4.2220    3.4970  -12.8300 H   0  0  0  0  0  0  0  0  0  0  0  0
    2.8610    3.8540  -14.0070 H   0  0  0  0  0  0  0  0  0  0  0  0
    2.4460   11.2380  -13.6520 H   0  0  0  0  0  0  0  0  0  0  0  0
    1.1000   12.0330  -14.4800 H   0  0  0  0  0  0  0  0  0  0  0  0
    2.0440   10.7000  -15.2850 H   0  0  0  0  0  0  0  0  0  0  0  0
   -2.3670   11.5390  -13.7100 H   0  0  0  0  0  0  0  0  0  0  0  0
   -1.0540   11.7490  -14.8540 H   0  0  0  0  0  0  0  0  0  0  0  0
    0.7030   15.6370  -13.5170 H   0  0  0  0  0  0  0  0  0  0  0  0
    0.6040   14.7700  -11.9800 H   0  0  0  0  0  0  0  0  0  0  0  0
   -1.7460   15.6520  -11.6920 H   0  0  0  0  0  0  0  0  0  0  0  0
   -0.5240   16.9540  -11.8900 H   0  0  0  0  0  0  0  0  0  0  0  0
   -2.1690   16.2510  -15.5950 H   0  0  0  0  0  0  0  0  0  0  0  0
   -0.4430   16.2140  -15.0870 H   0  0  0  0  0  0  0  0  0  0  0  0
   -2.4770   14.0430  -14.5470 H   0  0  0  0  0  0  0  0  0  0  0  0
   -1.0160   13.8720  -15.5630 H   0  0  0  0  0  0  0  0  0  0  0  0
   -1.4070   18.3080  -11.5340 H   0  0  0  0  0  0  0  0  0  0  0  0
   -5.1380   18.9110  -13.2730 H   0  0  0  0  0  0  0  0  0  0  0  0
   -5.3640   21.4970   -9.6450 H   0  0  0  0  0  0  0  0  0  0  0  0
   -3.7830   22.2920   -9.7620 H   0  0  0  0  0  0  0  0  0  0  0  0
   -4.0260   20.9620   -8.5410 H   0  0  0  0  0  0  0  0  0  0  0  0
  1  2  1  0  0  0  0
  2  7  1  0  0  0  0
  3  4  1  0  0  0  0
  3  2  2  0  0  0  0
  4  5  2  0  0  0  0
  5 10  1  0  0  0  0
  5  6  1  0  0  0  0
  6 37  1  0  0  0  0
  7  6  2  0  0  0  0
  7  8  1  0  0  0  0
  9 39  1  0  0  0  0
  9  8  1  0  0  0  0
 11 12  2  0  0  0  0
 11 10  1  0  0  0  0
 13 11  1  0  0  0  0
 14 13  2  0  0  0  0
 14  4  1  0  0  0  0
 15 14  1  0  0  0  0
 15 41  1  0  0  0  0
 16 44  1  0  0  0  0
 16 13  1  0  0  0  0
 16 17  1  0  0  0  0
 17 18  2  0  0  0  0
 19 17  1  0  0  0  0
 19 20  1  0  0  0  0
 20 21  1  0  0  0  0
 20 47  1  0  0  0  0
 21 49  1  0  0  0  0
 21 48  1  0  0  0  0
 22 21  1  0  0  0  0
 23 24  1  0  0  0  0
 23 22  1  0  0  0  0
 24 52  1  0  0  0  0
 24 19  1  0  0  0  0
 25 22  1  0  0  0  0
 25 27  1  0  0  0  0
 26 25  2  0  0  0  0
 27 34  1  0  0  0  0
 27 28  2  0  0  0  0
 28 54  1  0  0  0  0
 28 29  1  0  0  0  0
 29 31  1  0  0  0  0
 29 30  2  0  0  0  0
 31 35  1  0  0  0  0
 32 31  1  0  0  0  0
 33 32  2  0  0  0  0
 34 32  1  0  0  0  0
 35 58  1  0  0  0  0
 36  3  1  0  0  0  0
 38  9  1  0  0  0  0
 40  9  1  0  0  0  0
 42 15  1  0  0  0  0
 43 15  1  0  0  0  0
 45 16  1  0  0  0  0
 46 20  1  0  0  0  0
 50 23  1  0  0  0  0
 51 23  1  0  0  0  0
 53 24  1  0  0  0  0
 55 34  1  0  0  0  0
 56 35  1  0  0  0  0
 57 35  1  0  0  0  0
M  END
>  <Pose>
1

>  <Score>
-7.25

$$$$
