
 OpenBabel03232203513D

 35 38  0  0  1  0  0  0  0  0999 V2000
   -3.0150   18.2480  -12.8970 Cl  0  0  0  0  0  0  0  0  0  0  0  0
   -3.5500   19.3360  -11.6200 C   0  0  0  0  0  0  0  0  0  0  0  0
   -2.6910   19.5910  -10.5740 C   0  0  0  0  0  0  0  0  0  0  0  0
   -3.1090   20.4220   -9.6060 N   0  0  0  0  0  0  0  0  0  0  0  0
   -4.3320   21.0130   -9.6240 C   0  0  0  0  0  0  0  0  0  0  0  0
   -5.1780   20.7720  -10.6400 N   0  0  0  0  0  0  0  0  0  0  0  0
   -6.2990   21.4570  -10.4330 N   0  0  0  0  0  0  0  0  0  0  0  0
   -6.2100   22.1570   -9.2840 C   0  0  0  0  0  0  0  0  0  0  0  0
   -4.9770   21.8610   -8.8030 N   0  0  0  0  0  0  0  0  0  0  0  0
   -7.1900   23.0130   -8.7030 N   0  0  0  0  0  0  0  0  0  0  0  0
   -7.2910   23.3490   -7.3260 C   0  0  0  0  0  0  0  0  0  0  0  0
   -6.4060   23.2650   -6.4370 O   0  0  0  0  0  0  0  0  0  0  0  0
   -8.6780   23.8530   -7.0440 C   0  0  2  0  0  0  0  0  0  0  0  0
   -9.2980   24.0870   -8.3760 C   0  0  1  0  0  0  0  0  0  0  0  0
   -9.6340   25.5390   -8.6660 C   0  0  0  0  0  0  0  0  0  0  0  0
   -8.4030   26.3310   -8.3460 C   0  0  0  0  0  0  0  0  0  0  0  0
   -7.8930   26.1200   -7.1460 C   0  0  0  0  0  0  0  0  0  0  0  0
   -8.5780   25.1460   -6.2630 C   0  0  0  0  0  0  0  0  0  0  0  0
   -8.2530   23.7010   -9.3430 C   0  0  0  0  0  0  0  0  0  0  0  0
   -8.2850   23.9450  -10.5930 O   0  0  0  0  0  0  0  0  0  0  0  0
   -4.7890   19.9370  -11.6340 C   0  0  0  0  0  0  0  0  0  0  0  0
   -5.5880   19.7090  -12.5970 O   0  0  0  0  0  0  0  0  0  0  0  0
   -1.3350   18.9450  -10.5400 C   0  0  0  0  0  0  0  0  0  0  0  0
   -2.4600   20.6190   -8.8080 H   0  0  0  0  0  0  0  0  0  0  0  0
   -9.2180   23.0920   -6.4370 H   0  0  0  0  0  0  0  0  0  0  0  0
  -10.2020   23.4450   -8.4540 H   0  0  0  0  0  0  0  0  0  0  0  0
   -9.8650   25.6440   -9.7410 H   0  0  0  0  0  0  0  0  0  0  0  0
  -10.4630   25.8580   -8.0130 H   0  0  0  0  0  0  0  0  0  0  0  0
   -7.9950   27.0150   -9.0760 H   0  0  0  0  0  0  0  0  0  0  0  0
   -7.0130   26.6370   -6.8190 H   0  0  0  0  0  0  0  0  0  0  0  0
   -7.9900   25.0010   -5.3260 H   0  0  0  0  0  0  0  0  0  0  0  0
   -9.6100   25.5000   -6.0280 H   0  0  0  0  0  0  0  0  0  0  0  0
   -1.4160   17.8510  -10.5100 H   0  0  0  0  0  0  0  0  0  0  0  0
   -0.7340   19.2670  -11.4280 H   0  0  0  0  0  0  0  0  0  0  0  0
   -0.7760   19.2550   -9.6340 H   0  0  0  0  0  0  0  0  0  0  0  0
  1  2  1  0  0  0  0
  2  3  2  0  0  0  0
  3 23  1  0  0  0  0
  3  4  1  0  0  0  0
  4 24  1  0  0  0  0
  5  4  1  0  0  0  0
  5  9  2  0  0  0  0
  6  7  1  0  0  0  0
  6  5  1  0  0  0  0
  7  8  2  0  0  0  0
  8  9  1  0  0  0  0
  8 10  1  0  0  0  0
 10 11  1  0  0  0  0
 11 13  1  0  0  0  0
 11 12  2  0  0  0  0
 13 25  1  1  0  0  0
 13 18  1  0  0  0  0
 14 26  1  6  0  0  0
 14 13  1  0  0  0  0
 15 14  1  0  0  0  0
 15 16  1  0  0  0  0
 15 28  1  0  0  0  0
 16 17  2  0  0  0  0
 17 30  1  0  0  0  0
 17 18  1  0  0  0  0
 18 32  1  0  0  0  0
 18 31  1  0  0  0  0
 19 10  1  0  0  0  0
 19 14  1  0  0  0  0
 20 19  2  0  0  0  0
 21  2  1  0  0  0  0
 21  6  1  0  0  0  0
 22 21  2  0  0  0  0
 23 33  1  0  0  0  0
 23 35  1  0  0  0  0
 27 15  1  0  0  0  0
 29 16  1  0  0  0  0
 34 23  1  0  0  0  0
M  END
>  <Pose>
1

>  <Score>
-6.13

$$$$
