
 OpenBabel03232203513D

 49 52  0  0  1  0  0  0  0  0999 V2000
   -4.1930   20.4550  -10.0310 Cl  0  0  0  0  0  0  0  0  0  0  0  0
   -3.2010   19.3660  -10.9770 C   0  0  0  0  0  0  0  0  0  0  0  0
   -3.5820   18.9570  -12.2470 C   0  0  0  0  0  0  0  0  0  0  0  0
   -2.7860   18.1030  -12.9660 C   0  0  0  0  0  0  0  0  0  0  0  0
   -1.5720   17.6040  -12.4720 C   0  0  0  0  0  0  0  0  0  0  0  0
   -1.2180   18.0190  -11.2190 C   0  0  0  0  0  0  0  0  0  0  0  0
   -2.0140   18.8850  -10.4790 C   0  0  0  0  0  0  0  0  0  0  0  0
   -0.7970   16.7190  -13.2510 N   0  0  0  0  0  0  0  0  0  0  0  0
   -0.3170   15.4530  -12.9040 C   0  0  0  0  0  0  0  0  0  0  0  0
   -1.1000   14.4690  -12.8850 O   0  0  0  0  0  0  0  0  0  0  0  0
    1.1310   15.2190  -12.5410 C   0  0  0  0  0  0  0  0  0  0  0  0
    1.4290   13.8480  -12.9130 N   0  0  0  0  0  0  0  0  0  0  0  0
    2.2570   13.8090  -14.1360 C   0  0  0  0  0  0  0  0  0  0  0  0
    1.9390   12.4080  -14.6990 C   0  0  0  0  0  0  0  0  0  0  0  0
    1.7980   11.5900  -13.4850 N   0  0  0  0  0  0  0  0  0  0  0  0
    2.7250   11.8930  -12.4420 C   0  0  0  0  0  0  0  0  0  0  0  0
    2.2810   13.2450  -11.8590 C   0  0  0  0  0  0  0  0  0  0  0  0
    0.7860   10.6190  -13.4410 C   0  0  2  0  0  0  0  0  0  0  0  0
   -0.5240   10.9790  -13.6030 N   0  0  0  0  0  0  0  0  0  0  0  0
   -1.5410   10.1190  -13.5600 C   0  0  0  0  0  0  0  0  0  0  0  0
   -1.2960    8.8210  -13.3470 N   0  0  0  0  0  0  0  0  0  0  0  0
   -0.0650    8.3500  -13.1770 C   0  0  0  0  0  0  0  0  0  0  0  0
    0.4480    7.1240  -12.9490 N   0  0  0  0  0  0  0  0  0  0  0  0
    1.7450    7.2730  -12.8620 N   0  0  0  0  0  0  0  0  0  0  0  0
    2.0810    8.5440  -13.0250 N   0  0  0  0  0  0  0  0  0  0  0  0
    0.9920    9.2640  -13.2230 C   0  0  0  0  0  0  0  0  0  0  0  0
   -0.2520    5.8610  -12.8150 C   0  0  0  0  0  0  0  0  0  0  0  0
   -1.3020    5.6960  -13.8930 C   0  0  0  0  0  0  0  0  0  0  0  0
   -4.5150   19.3420  -12.6290 H   0  0  0  0  0  0  0  0  0  0  0  0
   -3.1000   17.7980  -13.9500 H   0  0  0  0  0  0  0  0  0  0  0  0
   -0.3150   17.6960  -10.7350 H   0  0  0  0  0  0  0  0  0  0  0  0
   -1.6770   19.1810   -9.4830 H   0  0  0  0  0  0  0  0  0  0  0  0
   -0.5230   17.0760  -14.2200 H   0  0  0  0  0  0  0  0  0  0  0  0
    1.7250   15.9710  -13.0630 H   0  0  0  0  0  0  0  0  0  0  0  0
    1.1690   15.3880  -11.4460 H   0  0  0  0  0  0  0  0  0  0  0  0
    3.3310   13.8130  -13.9170 H   0  0  0  0  0  0  0  0  0  0  0  0
    2.0130   14.6100  -14.8190 H   0  0  0  0  0  0  0  0  0  0  0  0
    0.9820   12.5320  -15.2340 H   0  0  0  0  0  0  0  0  0  0  0  0
    2.7340   12.0440  -15.3450 H   0  0  0  0  0  0  0  0  0  0  0  0
    3.7640   11.9990  -12.8510 H   0  0  0  0  0  0  0  0  0  0  0  0
    2.7150   11.1860  -11.6080 H   0  0  0  0  0  0  0  0  0  0  0  0
    1.7550   13.1120  -10.9260 H   0  0  0  0  0  0  0  0  0  0  0  0
    3.1900   13.8600  -11.6780 H   0  0  0  0  0  0  0  0  0  0  0  0
   -2.5660   10.4930  -13.7010 H   0  0  0  0  0  0  0  0  0  0  0  0
    0.4920    5.0420  -12.8890 H   0  0  0  0  0  0  0  0  0  0  0  0
   -0.7590    5.7440  -11.8380 H   0  0  0  0  0  0  0  0  0  0  0  0
   -0.7970    5.2230  -14.7640 H   0  0  0  0  0  0  0  0  0  0  0  0
   -2.1050    5.0600  -13.4750 H   0  0  0  0  0  0  0  0  0  0  0  0
   -1.7600    6.6800  -14.1590 H   0  0  0  0  0  0  0  0  0  0  0  0
  2  7  1  0  0  0  0
  2  1  1  0  0  0  0
  3  2  2  0  0  0  0
  4  5  2  0  0  0  0
  4  3  1  0  0  0  0
  5  6  1  0  0  0  0
  6 31  1  0  0  0  0
  6  7  2  0  0  0  0
  7 32  1  0  0  0  0
  8  9  1  0  0  0  0
  8  5  1  0  0  0  0
  9 10  2  0  0  0  0
  9 11  1  0  0  0  0
 11 35  1  0  0  0  0
 12 11  1  0  0  0  0
 12 17  1  0  0  0  0
 13 36  1  0  0  0  0
 13 12  1  0  0  0  0
 14 13  1  0  0  0  0
 14 15  1  0  0  0  0
 15 16  1  0  0  0  0
 16 17  1  0  0  0  0
 16 41  1  0  0  0  0
 17 43  1  0  0  0  0
 17 42  1  0  0  0  0
 18 15  1  1  0  0  0
 18 26  1  0  0  0  0
 19 20  2  0  0  0  0
 19 18  1  0  0  0  0
 20 21  1  0  0  0  0
 21 22  1  0  0  0  0
 22 23  1  0  0  0  0
 23 24  1  0  0  0  0
 23 27  1  0  0  0  0
 25 24  2  0  0  0  0
 26 22  2  0  0  0  0
 26 25  1  0  0  0  0
 27 46  1  0  0  0  0
 28 48  1  0  0  0  0
 28 27  1  0  0  0  0
 29  3  1  0  0  0  0
 30  4  1  0  0  0  0
 33  8  1  0  0  0  0
 34 11  1  0  0  0  0
 37 13  1  0  0  0  0
 38 14  1  0  0  0  0
 39 14  1  0  0  0  0
 40 16  1  0  0  0  0
 44 20  1  0  0  0  0
 45 27  1  0  0  0  0
 47 28  1  0  0  0  0
 49 28  1  0  0  0  0
M  END
>  <Pose>
1

>  <Score>
-6.54

$$$$
