
 OpenBabel03232203513D

 49 52  0  0  1  0  0  0  0  0999 V2000
    1.0370    7.4210  -11.5170 Cl  0  0  0  0  0  0  0  0  0  0  0  0
    1.6600    8.3430  -12.8700 C   0  0  0  0  0  0  0  0  0  0  0  0
    1.2110    8.0930  -14.1440 C   0  0  0  0  0  0  0  0  0  0  0  0
    1.7510    8.8600  -15.1470 C   0  0  0  0  0  0  0  0  0  0  0  0
    2.7080    9.8530  -14.9240 C   0  0  0  0  0  0  0  0  0  0  0  0
    3.1610   10.1090  -13.6560 C   0  0  0  0  0  0  0  0  0  0  0  0
    2.6000    9.3150  -12.6380 C   0  0  0  0  0  0  0  0  0  0  0  0
    4.1120   11.0920  -13.3040 N   0  0  0  0  0  0  0  0  0  0  0  0
    3.7730   12.3370  -12.7490 C   0  0  0  0  0  0  0  0  0  0  0  0
    4.0950   13.4150  -13.2720 O   0  0  0  0  0  0  0  0  0  0  0  0
    2.9870   12.4310  -11.4710 C   0  0  0  0  0  0  0  0  0  0  0  0
    2.1610   13.5960  -11.4220 N   0  0  0  0  0  0  0  0  0  0  0  0
    2.3900   14.6500  -10.6070 C   0  0  0  0  0  0  0  0  0  0  0  0
    1.5630   15.7160  -10.6200 N   0  0  0  0  0  0  0  0  0  0  0  0
    0.4920   15.7960  -11.4180 C   0  0  0  0  0  0  0  0  0  0  0  0
   -0.3370   16.8520  -11.4380 N   0  0  0  0  0  0  0  0  0  0  0  0
   -1.4180   16.9580  -12.2290 C   0  0  0  0  0  0  0  0  0  0  0  0
   -1.6660   15.9070  -13.0570 N   0  0  0  0  0  0  0  0  0  0  0  0
   -0.8630   14.8310  -13.0690 C   0  0  0  0  0  0  0  0  0  0  0  0
    0.2440   14.7330  -12.2530 C   0  0  1  0  0  0  0  0  0  0  0  0
    1.0810   13.6360  -12.2510 C   0  0  0  0  0  0  0  0  0  0  0  0
    0.8010   12.6970  -13.0360 O   0  0  0  0  0  0  0  0  0  0  0  0
   -2.2660   18.0900  -12.2200 N   0  0  0  0  0  0  0  0  0  0  0  0
   -3.1910   18.2660  -13.3150 C   0  0  0  0  0  0  0  0  0  0  0  0
   -4.5170   18.7860  -12.7610 C   0  0  0  0  0  0  0  0  0  0  0  0
   -4.3290   19.8670  -11.9030 O   0  0  0  0  0  0  0  0  0  0  0  0
   -3.6990   19.3670  -10.7630 C   0  0  0  0  0  0  0  0  0  0  0  0
   -2.2520   19.0800  -11.1680 C   0  0  0  0  0  0  0  0  0  0  0  0
    0.2520    7.1050  -14.4070 O   0  0  0  0  0  0  0  0  0  0  0  0
   -1.0340    7.2070  -13.8410 C   0  0  0  0  0  0  0  0  0  0  0  0
    1.4070    8.6770  -16.1740 H   0  0  0  0  0  0  0  0  0  0  0  0
    3.0720   10.3860  -15.7630 H   0  0  0  0  0  0  0  0  0  0  0  0
    2.9680    9.5280  -11.6280 H   0  0  0  0  0  0  0  0  0  0  0  0
    5.1520   10.8780  -13.4720 H   0  0  0  0  0  0  0  0  0  0  0  0
    2.3560   11.5480  -11.3120 H   0  0  0  0  0  0  0  0  0  0  0  0
    3.7120   12.4840  -10.6360 H   0  0  0  0  0  0  0  0  0  0  0  0
    3.2560   14.5830   -9.9640 H   0  0  0  0  0  0  0  0  0  0  0  0
   -1.0490   13.9760  -13.7300 H   0  0  0  0  0  0  0  0  0  0  0  0
   -2.8170   19.0000  -14.0620 H   0  0  0  0  0  0  0  0  0  0  0  0
   -3.3970   17.2720  -13.7530 H   0  0  0  0  0  0  0  0  0  0  0  0
   -5.1250   19.1500  -13.6120 H   0  0  0  0  0  0  0  0  0  0  0  0
   -5.0200   17.9860  -12.1790 H   0  0  0  0  0  0  0  0  0  0  0  0
   -4.1860   18.4230  -10.4810 H   0  0  0  0  0  0  0  0  0  0  0  0
   -3.7210   20.0530   -9.9130 H   0  0  0  0  0  0  0  0  0  0  0  0
   -1.7560   20.0230  -11.4780 H   0  0  0  0  0  0  0  0  0  0  0  0
   -1.7680   18.6150  -10.2830 H   0  0  0  0  0  0  0  0  0  0  0  0
   -1.4160    8.2300  -14.0580 H   0  0  0  0  0  0  0  0  0  0  0  0
   -1.0350    7.0840  -12.7500 H   0  0  0  0  0  0  0  0  0  0  0  0
   -1.7270    6.5140  -14.3600 H   0  0  0  0  0  0  0  0  0  0  0  0
  2  7  1  0  0  0  0
  2  1  1  0  0  0  0
  3  2  2  0  0  0  0
  4  5  2  0  0  0  0
  4  3  1  0  0  0  0
  5  6  1  0  0  0  0
  6  8  1  0  0  0  0
  6  7  2  0  0  0  0
  7 33  1  0  0  0  0
  8  9  1  0  0  0  0
  9 11  1  0  0  0  0
 10  9  2  0  0  0  0
 11 12  1  0  0  0  0
 11 35  1  0  0  0  0
 11 36  1  0  0  0  0
 12 13  1  0  0  0  0
 13 37  1  0  0  0  0
 14 13  1  0  0  0  0
 15 14  2  0  0  0  0
 16 15  1  0  0  0  0
 17 23  1  0  0  0  0
 17 16  2  0  0  0  0
 18 17  1  0  0  0  0
 19 18  2  0  0  0  0
 20 19  1  6  0  0  0
 20 21  1  0  0  0  0
 20 15  1  0  0  0  0
 21 12  1  0  0  0  0
 22 21  2  0  0  0  0
 23 28  1  0  0  0  0
 24 25  1  0  0  0  0
 24 23  1  0  0  0  0
 25 42  1  0  0  0  0
 25 26  1  0  0  0  0
 26 27  1  0  0  0  0
 27 43  1  0  0  0  0
 27 44  1  0  0  0  0
 28 27  1  0  0  0  0
 28 46  1  0  0  0  0
 29  3  1  0  0  0  0
 29 30  1  0  0  0  0
 30 48  1  0  0  0  0
 31  4  1  0  0  0  0
 32  5  1  0  0  0  0
 34  8  1  0  0  0  0
 38 19  1  0  0  0  0
 39 24  1  0  0  0  0
 40 24  1  0  0  0  0
 41 25  1  0  0  0  0
 45 28  1  0  0  0  0
 47 30  1  0  0  0  0
 49 30  1  0  0  0  0
M  END
>  <Pose>
1

>  <Score>
-8.00

$$$$
