
 OpenBabel03232203513D

 42 45  0  0  1  0  0  0  0  0999 V2000
    1.5880   14.5110  -11.7510 S   0  0  0  0  0  0  0  0  0  0  0  0
    1.9040   14.6710  -10.3030 O   0  0  0  0  0  0  0  0  0  0  0  0
    2.1100   15.7110  -12.4970 O   0  0  0  0  0  0  0  0  0  0  0  0
   -0.1170   14.4580  -11.9830 N   0  0  0  0  0  0  0  0  0  0  0  0
   -0.5870   15.4960  -12.8450 C   0  0  0  0  0  0  0  0  0  0  0  0
   -1.7600   16.1690  -12.1540 C   0  0  1  0  0  0  0  0  0  0  0  0
   -1.4370   15.9290  -10.6940 C   0  0  0  0  0  0  0  0  0  0  0  0
   -0.8510   14.5140  -10.7590 C   0  0  0  0  0  0  0  0  0  0  0  0
   -1.6660   17.5610  -12.4060 O   0  0  0  0  0  0  0  0  0  0  0  0
   -2.5540   18.4700  -11.8540 C   0  0  0  0  0  0  0  0  0  0  0  0
   -3.7570   18.5870  -12.4870 N   0  0  0  0  0  0  0  0  0  0  0  0
   -4.6400   19.4600  -11.9740 C   0  0  0  0  0  0  0  0  0  0  0  0
   -4.3660   20.2210  -10.8550 C   0  0  0  0  0  0  0  0  0  0  0  0
   -3.1310   20.0610  -10.2560 C   0  0  0  0  0  0  0  0  0  0  0  0
   -2.2450   19.1820  -10.7710 N   0  0  0  0  0  0  0  0  0  0  0  0
   -5.5260   21.3570  -10.1970 Cl  0  0  0  0  0  0  0  0  0  0  0  0
    2.3710   13.0770  -12.3740 C   0  0  0  0  0  0  0  0  0  0  0  0
    1.6620   12.1650  -13.1290 C   0  0  0  0  0  0  0  0  0  0  0  0
    2.2340   11.0150  -13.6450 C   0  0  0  0  0  0  0  0  0  0  0  0
    3.5700   10.7460  -13.4080 C   0  0  0  0  0  0  0  0  0  0  0  0
    4.2680   11.6570  -12.6570 C   0  0  0  0  0  0  0  0  0  0  0  0
    3.7020   12.8030  -12.1420 C   0  0  0  0  0  0  0  0  0  0  0  0
    4.1020    9.5840  -13.9430 O   0  0  0  0  0  0  0  0  0  0  0  0
    3.3260    8.4410  -14.2560 C   0  0  0  0  0  0  0  0  0  0  0  0
    1.9110    8.7750  -14.6460 C   0  0  0  0  0  0  0  0  0  0  0  0
    1.5370   10.0990  -14.3990 O   0  0  0  0  0  0  0  0  0  0  0  0
   -1.0010   15.0200  -13.7630 H   0  0  0  0  0  0  0  0  0  0  0  0
    0.1750   16.2060  -13.1650 H   0  0  0  0  0  0  0  0  0  0  0  0
   -2.7180   15.7350  -12.4630 H   0  0  0  0  0  0  0  0  0  0  0  0
   -0.7130   16.6490  -10.3210 H   0  0  0  0  0  0  0  0  0  0  0  0
   -2.3760   15.8610  -10.1100 H   0  0  0  0  0  0  0  0  0  0  0  0
   -0.2140   14.3570   -9.8580 H   0  0  0  0  0  0  0  0  0  0  0  0
   -1.6850   13.8060  -10.7670 H   0  0  0  0  0  0  0  0  0  0  0  0
   -5.6090   19.6020  -12.4260 H   0  0  0  0  0  0  0  0  0  0  0  0
   -2.8850   20.6530   -9.3620 H   0  0  0  0  0  0  0  0  0  0  0  0
    0.6090   12.3690  -13.3200 H   0  0  0  0  0  0  0  0  0  0  0  0
    5.3260   11.4260  -12.4800 H   0  0  0  0  0  0  0  0  0  0  0  0
    4.2680   13.5010  -11.5570 H   0  0  0  0  0  0  0  0  0  0  0  0
    3.8470    7.8830  -15.0530 H   0  0  0  0  0  0  0  0  0  0  0  0
    3.3480    7.7940  -13.3330 H   0  0  0  0  0  0  0  0  0  0  0  0
    1.7930    8.4930  -15.7250 H   0  0  0  0  0  0  0  0  0  0  0  0
    1.2400    8.1100  -14.0620 H   0  0  0  0  0  0  0  0  0  0  0  0
  1  2  2  0  0  0  0
  3  1  2  0  0  0  0
  4  1  1  0  0  0  0
  4  8  1  0  0  0  0
  5  6  1  0  0  0  0
  5  4  1  0  0  0  0
  6 29  1  6  0  0  0
  6  7  1  0  0  0  0
  7 30  1  0  0  0  0
  7 31  1  0  0  0  0
  8  7  1  0  0  0  0
  8 32  1  0  0  0  0
  9  6  1  0  0  0  0
  9 10  1  0  0  0  0
 10 15  2  0  0  0  0
 11 12  1  0  0  0  0
 11 10  2  0  0  0  0
 12 13  2  0  0  0  0
 13 14  1  0  0  0  0
 13 16  1  0  0  0  0
 14 35  1  0  0  0  0
 15 14  1  0  0  0  0
 17 22  1  0  0  0  0
 17  1  1  0  0  0  0
 18 17  2  0  0  0  0
 19 20  2  0  0  0  0
 19 18  1  0  0  0  0
 20 21  1  0  0  0  0
 21 37  1  0  0  0  0
 21 22  2  0  0  0  0
 22 38  1  0  0  0  0
 23 20  1  0  0  0  0
 24 23  1  0  0  0  0
 24 40  1  0  0  0  0
 25 26  1  0  0  0  0
 25 24  1  0  0  0  0
 25 42  1  0  0  0  0
 26 19  1  0  0  0  0
 27  5  1  0  0  0  0
 28  5  1  0  0  0  0
 33  8  1  0  0  0  0
 34 12  1  0  0  0  0
 36 18  1  0  0  0  0
 39 24  1  0  0  0  0
 41 25  1  0  0  0  0
M  END
>  <Pose>
1

>  <Score>
-6.05

$$$$
