
 OpenBabel03232203513D

 52 55  0  0  0  0  0  0  0  0999 V2000
    1.0490    7.0360  -11.0100 Cl  0  0  0  0  0  0  0  0  0  0  0  0
    1.8490    8.0320  -12.2230 C   0  0  0  0  0  0  0  0  0  0  0  0
    1.8290    9.3980  -12.2080 C   0  0  0  0  0  0  0  0  0  0  0  0
    2.4630   10.1840  -13.1820 C   0  0  0  0  0  0  0  0  0  0  0  0
    3.1250    9.5320  -14.1780 C   0  0  0  0  0  0  0  0  0  0  0  0
    3.1490    8.1450  -14.1960 C   0  0  0  0  0  0  0  0  0  0  0  0
    2.5230    7.3800  -13.2340 C   0  0  0  0  0  0  0  0  0  0  0  0
    2.3740   11.6620  -13.0520 C   0  0  0  0  0  0  0  0  0  0  0  0
    1.0730   12.2190  -13.2140 N   0  0  0  0  0  0  0  0  0  0  0  0
    0.7640   13.5030  -12.8830 C   0  0  0  0  0  0  0  0  0  0  0  0
   -0.5690   13.6880  -13.1400 C   0  0  0  0  0  0  0  0  0  0  0  0
   -1.0180   12.5260  -13.6120 N   0  0  0  0  0  0  0  0  0  0  0  0
   -0.0210   11.6040  -13.6690 C   0  0  0  0  0  0  0  0  0  0  0  0
   -0.1800   10.2620  -14.1760 N   0  0  0  0  0  0  0  0  0  0  0  0
   -0.9690    9.3790  -13.3480 C   0  0  0  0  0  0  0  0  0  0  0  0
   -1.1850    8.0150  -13.9500 C   0  0  0  0  0  0  0  0  0  0  0  0
   -1.5690    8.1910  -15.3030 N   0  0  0  0  0  0  0  0  0  0  0  0
   -0.5320    8.7750  -16.0870 C   0  0  0  0  0  0  0  0  0  0  0  0
    0.3650    9.7540  -15.3880 C   0  0  0  0  0  0  0  0  0  0  0  0
   -2.8280    8.8620  -15.3940 C   0  0  0  0  0  0  0  0  0  0  0  0
   -4.0030    7.9440  -15.4450 C   0  0  0  0  0  0  0  0  0  0  0  0
   -4.8090    7.7880  -14.5140 O   0  0  0  0  0  0  0  0  0  0  0  0
   -4.1560    7.2220  -16.6760 N   0  0  0  0  0  0  0  0  0  0  0  0
   -1.1050   14.8980  -12.9020 N   0  0  0  0  0  0  0  0  0  0  0  0
   -0.3580   15.9270  -12.4210 C   0  0  0  0  0  0  0  0  0  0  0  0
   -0.8560   17.0750  -12.1940 O   0  0  0  0  0  0  0  0  0  0  0  0
    0.9520   15.7770  -12.1610 N   0  0  0  0  0  0  0  0  0  0  0  0
    1.5030   14.5770  -12.3910 C   0  0  0  0  0  0  0  0  0  0  0  0
    2.7240   14.4700  -12.1400 O   0  0  0  0  0  0  0  0  0  0  0  0
   -2.5000   15.1430  -13.1600 C   0  0  0  0  0  0  0  0  0  0  0  0
    1.2880    9.8780  -11.4030 H   0  0  0  0  0  0  0  0  0  0  0  0
    3.6380   10.0860  -14.9490 H   0  0  0  0  0  0  0  0  0  0  0  0
    3.6840    7.6310  -14.9980 H   0  0  0  0  0  0  0  0  0  0  0  0
    2.5710    6.2840  -13.2880 H   0  0  0  0  0  0  0  0  0  0  0  0
    2.8020   11.9030  -12.0580 H   0  0  0  0  0  0  0  0  0  0  0  0
    3.0930   12.1180  -13.7780 H   0  0  0  0  0  0  0  0  0  0  0  0
   -0.3740    9.1940  -12.3950 H   0  0  0  0  0  0  0  0  0  0  0  0
   -1.8860    9.8810  -13.0030 H   0  0  0  0  0  0  0  0  0  0  0  0
   -1.9710    7.5120  -13.3700 H   0  0  0  0  0  0  0  0  0  0  0  0
   -0.2750    7.3770  -13.8420 H   0  0  0  0  0  0  0  0  0  0  0  0
   -1.0450    9.2550  -16.9730 H   0  0  0  0  0  0  0  0  0  0  0  0
    0.0720    7.9240  -16.5050 H   0  0  0  0  0  0  0  0  0  0  0  0
    0.6130   10.5480  -16.1290 H   0  0  0  0  0  0  0  0  0  0  0  0
    1.3680    9.2470  -15.2180 H   0  0  0  0  0  0  0  0  0  0  0  0
   -3.0300    9.5340  -14.5150 H   0  0  0  0  0  0  0  0  0  0  0  0
   -2.8380    9.4380  -16.3580 H   0  0  0  0  0  0  0  0  0  0  0  0
   -3.4020    7.2030  -17.3990 H   0  0  0  0  0  0  0  0  0  0  0  0
   -5.0250    6.7190  -16.8410 H   0  0  0  0  0  0  0  0  0  0  0  0
    1.5330   16.5850  -11.7840 H   0  0  0  0  0  0  0  0  0  0  0  0
   -2.8220   14.4550  -13.9760 H   0  0  0  0  0  0  0  0  0  0  0  0
   -2.6740   16.1810  -13.4830 H   0  0  0  0  0  0  0  0  0  0  0  0
   -3.0850   14.9820  -12.2270 H   0  0  0  0  0  0  0  0  0  0  0  0
  2  3  1  0  0  0  0
  2  1  1  0  0  0  0
  3 31  1  0  0  0  0
  4  8  1  0  0  0  0
  4  3  2  0  0  0  0
  5  4  1  0  0  0  0
  6  5  2  0  0  0  0
  6  7  1  0  0  0  0
  7  2  2  0  0  0  0
  8 35  1  0  0  0  0
  9  8  1  0  0  0  0
  9 10  1  0  0  0  0
 10 28  1  0  0  0  0
 11 24  1  0  0  0  0
 11 10  2  0  0  0  0
 12 11  1  0  0  0  0
 13 12  2  0  0  0  0
 13  9  1  0  0  0  0
 14 13  1  0  0  0  0
 14 15  1  0  0  0  0
 15 38  1  0  0  0  0
 15 37  1  0  0  0  0
 16 40  1  0  0  0  0
 16 39  1  0  0  0  0
 16 15  1  0  0  0  0
 17 16  1  0  0  0  0
 18 19  1  0  0  0  0
 18 17  1  0  0  0  0
 19 44  1  0  0  0  0
 19 14  1  0  0  0  0
 20 17  1  0  0  0  0
 20 45  1  0  0  0  0
 21 20  1  0  0  0  0
 21 22  2  0  0  0  0
 23 21  1  0  0  0  0
 24 25  1  0  0  0  0
 25 26  2  0  0  0  0
 25 27  1  0  0  0  0
 27 49  1  0  0  0  0
 28 27  1  0  0  0  0
 28 29  2  0  0  0  0
 30 24  1  0  0  0  0
 30 52  1  0  0  0  0
 32  5  1  0  0  0  0
 33  6  1  0  0  0  0
 34  7  1  0  0  0  0
 36  8  1  0  0  0  0
 41 18  1  0  0  0  0
 42 18  1  0  0  0  0
 43 19  1  0  0  0  0
 46 20  1  0  0  0  0
 47 23  1  0  0  0  0
 48 23  1  0  0  0  0
 50 30  1  0  0  0  0
 51 30  1  0  0  0  0
M  END
>  <Pose>
1

>  <Score>
-4.53

$$$$
