
 OpenBabel03232203513D

 50 53  0  0  1  0  0  0  0  0999 V2000
    0.3680   14.3450  -12.6450 Cl  0  0  0  0  0  0  0  0  0  0  0  0
    0.7140   12.6980  -13.1350 C   0  0  0  0  0  0  0  0  0  0  0  0
    2.0060   12.1920  -13.1410 C   0  0  0  0  0  0  0  0  0  0  0  0
    2.1970   10.8710  -13.5420 C   0  0  0  0  0  0  0  0  0  0  0  0
    1.1550   10.0700  -13.9270 C   0  0  0  0  0  0  0  0  0  0  0  0
   -0.1360   10.5700  -13.9240 C   0  0  0  0  0  0  0  0  0  0  0  0
   -0.3270   11.8780  -13.5270 C   0  0  0  0  0  0  0  0  0  0  0  0
    1.4080    8.6850  -14.3190 C   0  0  2  0  0  0  0  0  0  0  0  0
    0.6120    7.6640  -13.7610 N   0  0  0  0  0  4  0  0  0  0  0  0
    1.1890    7.1770  -12.5800 C   0  0  0  0  0  0  0  0  0  0  0  0
    1.0420    6.2380  -11.6780 C   0  0  0  0  0  0  0  0  0  0  0  0
    1.9550    6.1150  -10.5360 C   0  0  0  0  0  0  0  0  0  0  0  0
    2.8320    7.2220  -10.1730 C   0  0  0  0  0  0  0  0  0  0  0  0
    2.8160    8.3970  -11.1180 C   0  0  0  0  0  0  0  0  0  0  0  0
    2.3660    8.0160  -12.4090 N   0  0  0  0  0  0  0  0  0  0  0  0
    2.7830    8.2460  -13.7860 C   0  0  2  0  0  0  0  0  0  0  0  0
    3.8490    9.2580  -13.8540 C   0  0  0  0  0  0  0  0  0  0  0  0
   -0.7660    7.7390  -13.9370 C   0  0  0  0  0  0  0  0  0  0  0  0
   -1.3830    6.6650  -14.5570 C   0  0  0  0  0  0  0  0  0  0  0  0
   -2.7340    6.6200  -14.8020 C   0  0  0  0  0  0  0  0  0  0  0  0
   -3.5860    7.6670  -14.4350 C   0  0  0  0  0  0  0  0  0  0  0  0
   -2.9480    8.7180  -13.8240 C   0  0  0  0  0  0  0  0  0  0  0  0
   -1.5970    8.7560  -13.5830 C   0  0  0  0  0  0  0  0  0  0  0  0
   -4.9440    7.6090  -14.6820 O   0  0  0  0  0  0  0  0  0  0  0  0
   -5.6080    8.7430  -15.1790 C   0  0  0  0  0  0  0  0  0  0  0  0
    1.4800    8.5320  -15.6840 O   0  0  0  0  0  0  0  0  0  0  0  0
    2.8270   12.8160  -12.8380 H   0  0  0  0  0  0  0  0  0  0  0  0
    3.2420   10.5700  -13.5060 H   0  0  0  0  0  0  0  0  0  0  0  0
   -0.9350    9.9130  -14.2220 H   0  0  0  0  0  0  0  0  0  0  0  0
   -1.3530   12.2180  -13.5450 H   0  0  0  0  0  0  0  0  0  0  0  0
    0.8430    6.8090  -14.4450 H   0  0  0  0  0  0  0  0  0  0  0  0
    0.2280    5.4880  -11.7760 H   0  0  0  0  0  0  0  0  0  0  0  0
    2.5480    5.1700  -10.6880 H   0  0  0  0  0  0  0  0  0  0  0  0
    1.2830    5.8640   -9.6520 H   0  0  0  0  0  0  0  0  0  0  0  0
    3.8950    6.8360  -10.0400 H   0  0  0  0  0  0  0  0  0  0  0  0
    2.5640    7.6160   -9.1610 H   0  0  0  0  0  0  0  0  0  0  0  0
    3.8530    8.7730  -11.1920 H   0  0  0  0  0  0  0  0  0  0  0  0
    2.2370    9.2430  -10.6940 H   0  0  0  0  0  0  0  0  0  0  0  0
    3.0960    7.3140  -14.2380 H   0  0  0  0  0  0  0  0  0  0  0  0
    4.0960    9.5020  -14.9020 H   0  0  0  0  0  0  0  0  0  0  0  0
    3.7890   10.1050  -13.1640 H   0  0  0  0  0  0  0  0  0  0  0  0
    4.7790    8.6980  -13.5180 H   0  0  0  0  0  0  0  0  0  0  0  0
   -0.8270    5.7660  -14.8800 H   0  0  0  0  0  0  0  0  0  0  0  0
   -3.2200    5.7740  -15.2930 H   0  0  0  0  0  0  0  0  0  0  0  0
   -3.5860    9.5640  -13.5220 H   0  0  0  0  0  0  0  0  0  0  0  0
   -1.2410    9.6310  -13.1070 H   0  0  0  0  0  0  0  0  0  0  0  0
   -5.5010    8.8360  -16.2940 H   0  0  0  0  0  0  0  0  0  0  0  0
   -5.2790    9.7000  -14.7550 H   0  0  0  0  0  0  0  0  0  0  0  0
   -6.7200    8.6740  -15.0150 H   0  0  0  0  0  0  0  0  0  0  0  0
    1.0220    7.7630  -16.0680 H   0  0  0  0  0  0  0  0  0  0  0  0
  2  1  1  0  0  0  0
  3  2  1  0  0  0  0
  3 27  1  0  0  0  0
  4 28  1  0  0  0  0
  4  3  2  0  0  0  0
  5  6  2  0  0  0  0
  5  4  1  0  0  0  0
  6  7  1  0  0  0  0
  7  2  2  0  0  0  0
  8 26  1  6  0  0  0
  8  5  1  0  0  0  0
  8 16  1  0  0  0  0
  8  9  1  0  0  0  0
  9 10  1  0  0  0  0
 10 15  1  0  0  0  0
 10 11  2  0  0  0  0
 11 12  1  0  0  0  0
 12 13  1  0  0  0  0
 12 34  1  0  0  0  0
 13 35  1  0  0  0  0
 13 36  1  0  0  0  0
 14 38  1  0  0  0  0
 14 13  1  0  0  0  0
 15 14  1  0  0  0  0
 16 39  1  6  0  0  0
 16 15  1  0  0  0  0
 17 16  1  0  0  0  0
 17 42  1  0  0  0  0
 17 41  1  0  0  0  0
 18  9  1  0  0  0  0
 18 23  1  0  0  0  0
 19 18  2  0  0  0  0
 20 19  1  0  0  0  0
 20 21  2  0  0  0  0
 21 22  1  0  0  0  0
 22 23  2  0  0  0  0
 22 45  1  0  0  0  0
 23 46  1  0  0  0  0
 24 21  1  0  0  0  0
 25 49  1  0  0  0  0
 25 48  1  0  0  0  0
 25 24  1  0  0  0  0
 29  6  1  0  0  0  0
 30  7  1  0  0  0  0
 31  9  1  0  0  0  0
 32 11  1  0  0  0  0
 33 12  1  0  0  0  0
 37 14  1  0  0  0  0
 40 17  1  0  0  0  0
 43 19  1  0  0  0  0
 44 20  1  0  0  0  0
 47 25  1  0  0  0  0
 50 26  1  0  0  0  0
M  END
>  <Pose>
1

>  <Score>
-3.24

$$$$
