
 OpenBabel03232203513D

 41 44  0  0  0  0  0  0  0  0999 V2000
   -4.1880   19.1920  -13.1520 Cl  0  0  0  0  0  0  0  0  0  0  0  0
   -2.8520   18.0640  -12.8940 C   0  0  0  0  0  0  0  0  0  0  0  0
   -2.5160   17.1320  -13.8540 C   0  0  0  0  0  0  0  0  0  0  0  0
   -1.4600   16.2770  -13.5950 C   0  0  0  0  0  0  0  0  0  0  0  0
   -0.7350   16.3200  -12.4220 C   0  0  0  0  0  0  0  0  0  0  0  0
   -1.1010   17.2660  -11.4870 C   0  0  0  0  0  0  0  0  0  0  0  0
   -2.1570   18.1470  -11.7050 C   0  0  0  0  0  0  0  0  0  0  0  0
    0.3390   15.4360  -12.1830 N   0  0  0  0  0  0  0  0  0  0  0  0
    0.6760   14.3480  -12.9150 C   0  0  0  0  0  0  0  0  0  0  0  0
    0.0530   13.9710  -13.9420 O   0  0  0  0  0  0  0  0  0  0  0  0
    1.7880   13.7180  -12.3830 C   0  0  0  0  0  0  0  0  0  0  0  0
    2.1320   14.4240  -11.3170 C   0  0  0  0  0  0  0  0  0  0  0  0
    3.2160   13.8060  -10.8010 N   0  0  0  0  0  0  0  0  0  0  0  0
    3.5080   12.7400  -11.5590 N   0  0  0  0  0  0  0  0  0  0  0  0
    2.6260   12.6780  -12.5430 N   0  0  0  0  0  0  0  0  0  0  0  0
    2.5690   11.6860  -13.5960 C   0  0  0  0  0  0  0  0  0  0  0  0
    1.7800   10.4860  -13.2210 C   0  0  0  0  0  0  0  0  0  0  0  0
    0.4870   10.2510  -13.6320 C   0  0  0  0  0  0  0  0  0  0  0  0
   -0.2430    9.1330  -13.2820 C   0  0  0  0  0  0  0  0  0  0  0  0
    0.3420    8.1880  -12.4730 C   0  0  0  0  0  0  0  0  0  0  0  0
    1.6320    8.3820  -12.0390 C   0  0  0  0  0  0  0  0  0  0  0  0
    2.3420    9.5130  -12.4060 C   0  0  0  0  0  0  0  0  0  0  0  0
   -1.5530    8.9920  -13.7560 O   0  0  0  0  0  0  0  0  0  0  0  0
   -2.5640    9.9190  -13.4160 C   0  0  0  0  0  0  0  0  0  0  0  0
    1.2480   15.4750  -11.1930 C   0  0  0  0  0  0  0  0  0  0  0  0
    1.3090   16.3270  -10.2800 O   0  0  0  0  0  0  0  0  0  0  0  0
   -3.0860   17.1020  -14.7690 H   0  0  0  0  0  0  0  0  0  0  0  0
   -1.1850   15.5440  -14.3330 H   0  0  0  0  0  0  0  0  0  0  0  0
   -0.5190   17.2830  -10.5730 H   0  0  0  0  0  0  0  0  0  0  0  0
   -2.4060   18.8770  -10.9310 H   0  0  0  0  0  0  0  0  0  0  0  0
    3.7320   14.1130   -9.9560 H   0  0  0  0  0  0  0  0  0  0  0  0
    4.2820   12.0540  -11.4340 H   0  0  0  0  0  0  0  0  0  0  0  0
    2.1410   12.1290  -14.5160 H   0  0  0  0  0  0  0  0  0  0  0  0
    3.6290   11.3400  -13.7750 H   0  0  0  0  0  0  0  0  0  0  0  0
   -0.0030   10.9960  -14.2810 H   0  0  0  0  0  0  0  0  0  0  0  0
   -0.2160    7.2890  -12.1790 H   0  0  0  0  0  0  0  0  0  0  0  0
    2.0880    7.6360  -11.4030 H   0  0  0  0  0  0  0  0  0  0  0  0
    3.3550    9.6570  -12.0600 H   0  0  0  0  0  0  0  0  0  0  0  0
   -2.9180    9.7830  -12.3670 H   0  0  0  0  0  0  0  0  0  0  0  0
   -3.4390    9.7670  -14.0690 H   0  0  0  0  0  0  0  0  0  0  0  0
   -2.1650   10.9600  -13.4860 H   0  0  0  0  0  0  0  0  0  0  0  0
  1  2  1  0  0  0  0
  2  7  1  0  0  0  0
  3  4  1  0  0  0  0
  3  2  2  0  0  0  0
  4  5  2  0  0  0  0
  5  8  1  0  0  0  0
  5  6  1  0  0  0  0
  6 29  1  0  0  0  0
  7  6  2  0  0  0  0
  7 30  1  0  0  0  0
  8 25  1  0  0  0  0
  9 11  1  0  0  0  0
  9  8  1  0  0  0  0
 10  9  2  0  0  0  0
 11 12  2  0  0  0  0
 12 25  1  0  0  0  0
 12 13  1  0  0  0  0
 13 31  1  0  0  0  0
 14 32  1  0  0  0  0
 14 13  1  0  0  0  0
 15 11  1  0  0  0  0
 15 14  1  0  0  0  0
 16 17  1  0  0  0  0
 16 15  1  0  0  0  0
 17 22  1  0  0  0  0
 18 19  1  0  0  0  0
 18 17  2  0  0  0  0
 19 20  2  0  0  0  0
 20 36  1  0  0  0  0
 20 21  1  0  0  0  0
 21 37  1  0  0  0  0
 22 38  1  0  0  0  0
 22 21  2  0  0  0  0
 23 24  1  0  0  0  0
 23 19  1  0  0  0  0
 24 39  1  0  0  0  0
 25 26  2  0  0  0  0
 27  3  1  0  0  0  0
 28  4  1  0  0  0  0
 33 16  1  0  0  0  0
 34 16  1  0  0  0  0
 35 18  1  0  0  0  0
 40 24  1  0  0  0  0
 41 24  1  0  0  0  0
M  END
>  <Pose>
1

>  <Score>
-5.92

$$$$
