
 OpenBabel03232203513D

 56 59  0  0  1  0  0  0  0  0999 V2000
    3.3880   11.6180  -13.3310 S   0  0  0  0  0  0  0  0  0  0  0  0
    3.7040   11.9860  -14.7260 O   0  0  0  0  0  0  0  0  0  0  0  0
    4.6110   11.8580  -12.4790 O   0  0  0  0  0  0  0  0  0  0  0  0
    2.0880   12.4880  -12.6460 N   0  0  0  0  0  0  0  0  0  0  0  0
    0.8530   12.3280  -13.3110 C   0  0  0  0  0  0  0  0  0  0  0  0
   -0.2320   12.9780  -12.4260 C   0  0  0  0  0  0  0  0  0  0  0  0
    0.0630   14.3850  -12.5200 N   0  0  0  0  0  0  0  0  0  0  0  0
    1.3530   14.7300  -11.8840 C   0  0  0  0  0  0  0  0  0  0  0  0
    2.4190   13.7370  -12.1020 C   0  0  0  0  0  0  0  0  0  0  0  0
   -0.6800   15.4090  -13.1050 C   0  0  0  0  0  0  0  0  0  0  0  0
    0.0720   16.3040  -13.7160 O   0  0  0  0  0  0  0  0  0  0  0  0
   -2.0840   15.7150  -13.2010 C   0  0  0  0  0  0  0  0  0  0  0  0
   -2.5000   17.0720  -13.0140 N   0  0  0  0  0  0  0  0  0  0  0  0
   -3.4550   17.7680  -13.8170 C   0  0  0  0  0  0  0  0  0  0  0  0
   -4.0430   17.2480  -14.8250 O   0  0  0  0  0  0  0  0  0  0  0  0
   -3.6040   19.0710  -13.2950 N   0  0  0  0  0  0  0  0  0  0  0  0
   -3.0600   19.0840  -11.9460 C   0  0  1  0  0  0  0  0  0  0  0  0
   -2.3580   20.3450  -11.5820 C   0  0  1  0  0  0  0  0  0  0  0  0
   -2.5800   20.5810  -10.0840 C   0  0  0  0  0  0  0  0  0  0  0  0
   -4.0240   21.0210   -9.9400 C   0  0  0  0  0  0  0  0  0  0  0  0
   -4.9100   20.0750  -10.7140 C   0  0  0  0  0  0  0  0  0  0  0  0
   -4.2030   18.7600  -11.0090 C   0  0  0  0  0  0  0  0  0  0  0  0
   -0.8610   20.2980  -11.7810 C   0  0  0  0  0  0  0  0  0  0  0  0
   -2.0650   17.9710  -11.9910 C   0  0  0  0  0  0  0  0  0  0  0  0
   -1.0510   17.8440  -11.2780 O   0  0  0  0  0  0  0  0  0  0  0  0
    2.9730    9.8970  -13.2400 C   0  0  0  0  0  0  0  0  0  0  0  0
    1.7010    9.1220  -12.4140 S   0  0  0  0  0  0  0  0  0  0  0  0
    2.0330    7.5110  -12.8490 C   0  0  0  0  0  0  0  0  0  0  0  0
    3.1470    7.6230  -13.6400 C   0  0  0  0  0  0  0  0  0  0  0  0
    3.6290    8.8620  -13.8390 C   0  0  0  0  0  0  0  0  0  0  0  0
    1.1540    6.0440  -12.3910 Cl  0  0  0  0  0  0  0  0  0  0  0  0
    0.8420   12.8050  -14.3130 H   0  0  0  0  0  0  0  0  0  0  0  0
    0.6420   11.2590  -13.4630 H   0  0  0  0  0  0  0  0  0  0  0  0
   -1.2140   12.6450  -12.6900 H   0  0  0  0  0  0  0  0  0  0  0  0
    0.0710   12.6300  -11.3830 H   0  0  0  0  0  0  0  0  0  0  0  0
    1.1210   14.8020  -10.7960 H   0  0  0  0  0  0  0  0  0  0  0  0
    1.6670   15.7480  -12.1900 H   0  0  0  0  0  0  0  0  0  0  0  0
    3.2080   14.2080  -12.7630 H   0  0  0  0  0  0  0  0  0  0  0  0
    2.9770   13.5590  -11.1350 H   0  0  0  0  0  0  0  0  0  0  0  0
   -2.5330   15.3270  -14.1850 H   0  0  0  0  0  0  0  0  0  0  0  0
   -2.6900   15.0860  -12.4580 H   0  0  0  0  0  0  0  0  0  0  0  0
   -4.0220   19.8870  -13.7660 H   0  0  0  0  0  0  0  0  0  0  0  0
   -2.7810   21.2130  -12.1380 H   0  0  0  0  0  0  0  0  0  0  0  0
   -2.4470   19.6170   -9.5820 H   0  0  0  0  0  0  0  0  0  0  0  0
   -1.8850   21.3440   -9.6860 H   0  0  0  0  0  0  0  0  0  0  0  0
   -4.0760   22.0640  -10.3580 H   0  0  0  0  0  0  0  0  0  0  0  0
   -4.3520   21.0630   -8.8920 H   0  0  0  0  0  0  0  0  0  0  0  0
   -5.1760   20.5600  -11.6770 H   0  0  0  0  0  0  0  0  0  0  0  0
   -5.8670   19.9040  -10.1640 H   0  0  0  0  0  0  0  0  0  0  0  0
   -4.9630   18.1390  -11.5650 H   0  0  0  0  0  0  0  0  0  0  0  0
   -3.8900   18.2650  -10.0850 H   0  0  0  0  0  0  0  0  0  0  0  0
   -0.5380   19.6790  -12.6240 H   0  0  0  0  0  0  0  0  0  0  0  0
   -0.5090   21.3540  -11.9750 H   0  0  0  0  0  0  0  0  0  0  0  0
   -0.3200   20.0140  -10.8320 H   0  0  0  0  0  0  0  0  0  0  0  0
    3.5900    6.6930  -14.0730 H   0  0  0  0  0  0  0  0  0  0  0  0
    4.5260    9.0540  -14.4640 H   0  0  0  0  0  0  0  0  0  0  0  0
  1 26  1  0  0  0  0
  1  4  1  0  0  0  0
  1  3  2  0  0  0  0
  2  1  2  0  0  0  0
  4  9  1  0  0  0  0
  5  4  1  0  0  0  0
  5  6  1  0  0  0  0
  6 35  1  0  0  0  0
  7  6  1  0  0  0  0
  7  8  1  0  0  0  0
  8 36  1  0  0  0  0
  9  8  1  0  0  0  0
  9 39  1  0  0  0  0
 10  7  1  0  0  0  0
 11 10  2  0  0  0  0
 12 10  1  0  0  0  0
 12 13  1  0  0  0  0
 12 41  1  0  0  0  0
 13 24  1  0  0  0  0
 14 16  1  0  0  0  0
 14 13  1  0  0  0  0
 15 14  2  0  0  0  0
 16 17  1  0  0  0  0
 17 24  1  1  0  0  0
 17 18  1  0  0  0  0
 17 22  1  0  0  0  0
 18 43  1  6  0  0  0
 18 19  1  0  0  0  0
 19 20  1  0  0  0  0
 19 45  1  0  0  0  0
 19 44  1  0  0  0  0
 20 47  1  0  0  0  0
 21 49  1  0  0  0  0
 21 20  1  0  0  0  0
 22 21  1  0  0  0  0
 22 51  1  0  0  0  0
 23 18  1  0  0  0  0
 23 54  1  0  0  0  0
 24 25  2  0  0  0  0
 26 27  1  0  0  0  0
 28 27  1  0  0  0  0
 28 31  1  0  0  0  0
 29 28  2  0  0  0  0
 30 29  1  0  0  0  0
 30 26  2  0  0  0  0
 32  5  1  0  0  0  0
 33  5  1  0  0  0  0
 34  6  1  0  0  0  0
 37  8  1  0  0  0  0
 38  9  1  0  0  0  0
 40 12  1  0  0  0  0
 42 16  1  0  0  0  0
 46 20  1  0  0  0  0
 48 21  1  0  0  0  0
 50 22  1  0  0  0  0
 52 23  1  0  0  0  0
 53 23  1  0  0  0  0
 55 29  1  0  0  0  0
 56 30  1  0  0  0  0
M  END
>  <Pose>
1

>  <Score>
-6.10

$$$$
