
 OpenBabel03232203513D

 55 58  0  0  1  0  0  0  0  0999 V2000
    5.7450    7.5470  -13.4020 Cl  0  0  0  0  0  0  0  0  0  0  0  0
    3.9690    7.4080  -13.4730 C   0  0  0  0  0  0  0  0  0  0  0  0
    3.3210    6.3230  -12.9340 C   0  0  0  0  0  0  0  0  0  0  0  0
    1.9310    6.2220  -12.9840 C   0  0  0  0  0  0  0  0  0  0  0  0
    1.1340    7.2090  -13.5770 C   0  0  0  0  0  0  0  0  0  0  0  0
    1.8170    8.2790  -14.1050 C   0  0  0  0  0  0  0  0  0  0  0  0
    3.1930    8.3930  -14.0630 C   0  0  0  0  0  0  0  0  0  0  0  0
   -0.3050    7.0210  -13.5410 C   0  0  2  0  0  0  0  0  0  0  0  0
   -0.8750    7.0000  -14.9570 C   0  0  0  0  0  0  0  0  0  0  0  0
   -2.2900    6.4910  -14.7690 C   0  0  0  0  0  0  0  0  0  0  0  0
   -3.0720    7.4540  -14.0770 N   0  0  0  0  0  0  0  0  0  0  0  0
   -2.5630    7.8630  -12.7410 C   0  0  0  0  0  0  0  0  0  0  0  0
   -1.0760    7.9280  -12.6560 C   0  0  0  0  0  0  0  0  0  0  0  0
   -4.2410    8.0470  -14.5350 C   0  0  0  0  0  0  0  0  0  0  0  0
   -5.1960    7.2280  -14.8930 O   0  0  0  0  0  0  0  0  0  0  0  0
   -4.6110    9.4600  -14.7050 C   0  0  0  0  0  0  0  0  0  0  0  0
   -5.9650    9.7710  -14.8410 N   0  0  0  0  0  0  0  0  0  0  0  0
   -6.7250   10.5540  -13.9180 C   0  0  0  0  0  0  0  0  0  0  0  0
   -6.4210   10.3890  -12.7070 O   0  0  0  0  0  0  0  0  0  0  0  0
   -7.7480   11.4550  -14.3710 C   0  0  0  0  0  0  0  0  0  0  0  0
   -8.5620   11.3850  -15.3730 C   0  0  0  0  0  0  0  0  0  0  0  0
   -8.5760   10.2940  -16.2970 N   0  0  0  0  0  0  0  0  0  0  0  0
   -9.4910   10.2320  -17.3690 N   0  0  0  0  0  0  0  0  0  0  0  0
  -10.4400   11.2540  -17.5740 C   0  0  0  0  0  0  0  0  0  0  0  0
  -11.2440   11.1580  -18.5470 O   0  0  0  0  0  0  0  0  0  0  0  0
  -10.4600   12.3790  -16.6590 C   0  0  0  0  0  0  0  0  0  0  0  0
   -9.5710   12.4470  -15.6110 C   0  0  0  0  0  0  0  0  0  0  0  0
   -9.6730   13.5240  -14.7780 C   0  0  0  0  0  0  0  0  0  0  0  0
  -10.6280   14.5320  -14.9520 C   0  0  0  0  0  0  0  0  0  0  0  0
  -11.4890   14.4180  -16.0090 C   0  0  0  0  0  0  0  0  0  0  0  0
  -11.4250   13.3390  -16.8860 C   0  0  0  0  0  0  0  0  0  0  0  0
   -0.5470    5.6890  -13.0730 O   0  0  0  0  0  0  0  0  0  0  0  0
    3.9290    5.5480  -12.4660 H   0  0  0  0  0  0  0  0  0  0  0  0
    1.4890    5.3470  -12.5460 H   0  0  0  0  0  0  0  0  0  0  0  0
    1.2100    9.0520  -14.5650 H   0  0  0  0  0  0  0  0  0  0  0  0
    3.6940    9.2630  -14.4930 H   0  0  0  0  0  0  0  0  0  0  0  0
   -0.8210    7.9670  -15.4480 H   0  0  0  0  0  0  0  0  0  0  0  0
   -0.2970    6.2880  -15.5520 H   0  0  0  0  0  0  0  0  0  0  0  0
   -2.1570    5.6410  -13.9820 H   0  0  0  0  0  0  0  0  0  0  0  0
   -2.6520    5.9970  -15.6410 H   0  0  0  0  0  0  0  0  0  0  0  0
   -3.0540    8.8180  -12.4190 H   0  0  0  0  0  0  0  0  0  0  0  0
   -2.9360    7.0840  -12.0440 H   0  0  0  0  0  0  0  0  0  0  0  0
   -0.7820    9.0040  -12.7270 H   0  0  0  0  0  0  0  0  0  0  0  0
   -0.8180    7.6860  -11.5710 H   0  0  0  0  0  0  0  0  0  0  0  0
   -4.1270    9.9930  -13.8140 H   0  0  0  0  0  0  0  0  0  0  0  0
   -4.0140    9.9140  -15.5800 H   0  0  0  0  0  0  0  0  0  0  0  0
   -6.5080    9.4950  -15.7030 H   0  0  0  0  0  0  0  0  0  0  0  0
   -7.8370   12.3690  -13.7330 H   0  0  0  0  0  0  0  0  0  0  0  0
   -7.8980    9.5010  -16.2040 H   0  0  0  0  0  0  0  0  0  0  0  0
   -9.4800    9.4170  -18.0260 H   0  0  0  0  0  0  0  0  0  0  0  0
   -9.0260   13.6450  -13.9500 H   0  0  0  0  0  0  0  0  0  0  0  0
  -10.6590   15.3660  -14.2560 H   0  0  0  0  0  0  0  0  0  0  0  0
  -12.2350   15.2100  -16.1250 H   0  0  0  0  0  0  0  0  0  0  0  0
  -12.1340   13.3040  -17.7040 H   0  0  0  0  0  0  0  0  0  0  0  0
   -0.7680    5.7690  -12.1120 H   0  0  0  0  0  0  0  0  0  0  0  0
  2  1  1  0  0  0  0
  2  3  1  0  0  0  0
  3 33  1  0  0  0  0
  4  3  2  0  0  0  0
  4 34  1  0  0  0  0
  5  8  1  0  0  0  0
  5  4  1  0  0  0  0
  6  7  1  0  0  0  0
  6  5  2  0  0  0  0
  7  2  2  0  0  0  0
  8 32  1  1  0  0  0
  8 13  1  0  0  0  0
  9 10  1  0  0  0  0
  9  8  1  0  0  0  0
 10 11  1  0  0  0  0
 10 39  1  0  0  0  0
 11 12  1  0  0  0  0
 12 13  1  0  0  0  0
 12 41  1  0  0  0  0
 12 42  1  0  0  0  0
 13 44  1  0  0  0  0
 14 11  1  0  0  0  0
 15 14  2  0  0  0  0
 16 14  1  0  0  0  0
 16 45  1  0  0  0  0
 17 16  1  0  0  0  0
 17 18  1  0  0  0  0
 18 19  2  0  0  0  0
 20 18  1  0  0  0  0
 20 48  1  0  0  0  0
 21 20  2  0  0  0  0
 22 49  1  0  0  0  0
 22 21  1  0  0  0  0
 23 22  1  0  0  0  0
 24 23  1  0  0  0  0
 24 26  1  0  0  0  0
 25 24  2  0  0  0  0
 26 27  1  0  0  0  0
 27 21  1  0  0  0  0
 27 28  2  0  0  0  0
 28 51  1  0  0  0  0
 29 28  1  0  0  0  0
 29 52  1  0  0  0  0
 30 29  2  0  0  0  0
 31 26  2  0  0  0  0
 31 30  1  0  0  0  0
 32 55  1  0  0  0  0
 35  6  1  0  0  0  0
 36  7  1  0  0  0  0
 37  9  1  0  0  0  0
 38  9  1  0  0  0  0
 40 10  1  0  0  0  0
 43 13  1  0  0  0  0
 46 16  1  0  0  0  0
 47 17  1  0  0  0  0
 50 23  1  0  0  0  0
 53 30  1  0  0  0  0
 54 31  1  0  0  0  0
M  END
>  <Pose>
1

>  <Score>
-7.27

$$$$
