
 OpenBabel03232203513D

 42 45  0  0  0  0  0  0  0  0999 V2000
   -5.6020   21.3860  -10.5510 Cl  0  0  0  0  0  0  0  0  0  0  0  0
   -4.2140   20.3140  -10.7230 C   0  0  0  0  0  0  0  0  0  0  0  0
   -4.1560   19.3370  -11.7030 C   0  0  0  0  0  0  0  0  0  0  0  0
   -3.0910   18.4780  -11.8710 C   0  0  0  0  0  0  0  0  0  0  0  0
   -2.7850   17.4730  -12.7100 N   0  0  0  0  0  0  0  0  0  0  0  0
   -1.5760   16.9600  -12.4170 C   0  0  0  0  0  0  0  0  0  0  0  0
   -1.1270   17.6680  -11.3680 N   0  0  0  0  0  0  0  0  0  0  0  0
   -2.0130   18.6120  -10.9920 C   0  0  0  0  0  0  0  0  0  0  0  0
   -2.0570   19.5780  -10.0130 C   0  0  0  0  0  0  0  0  0  0  0  0
   -3.1270   20.4240   -9.8620 C   0  0  0  0  0  0  0  0  0  0  0  0
   -0.8780   15.8290  -13.1190 C   0  0  0  0  0  0  0  0  0  0  0  0
   -0.2220   14.9740  -12.1470 N   0  0  0  0  0  0  0  0  0  0  0  0
    1.1600   14.7040  -12.1800 C   0  0  0  0  0  0  0  0  0  0  0  0
    1.9360   15.6730  -12.2460 O   0  0  0  0  0  0  0  0  0  0  0  0
    1.7100   13.3380  -12.1400 C   0  0  0  0  0  0  0  0  0  0  0  0
    2.6870   13.0580  -11.0650 C   0  0  0  0  0  0  0  0  0  0  0  0
    1.3250   12.5230  -10.8590 C   0  0  0  0  0  0  0  0  0  0  0  0
    1.6560   12.5150  -13.3110 N   0  0  0  0  0  0  0  0  0  0  0  0
    0.3710   12.1770  -13.7810 C   0  0  0  0  0  0  0  0  0  0  0  0
    0.0330   10.7890  -13.2500 C   0  0  0  0  0  0  0  0  0  0  0  0
    0.8300    9.8470  -13.8550 O   0  0  0  0  0  0  0  0  0  0  0  0
    2.0770   10.2890  -14.2220 C   0  0  0  0  0  0  0  0  0  0  0  0
    2.5630   11.4440  -13.3700 C   0  0  0  0  0  0  0  0  0  0  0  0
   -5.0050   19.2350  -12.3890 H   0  0  0  0  0  0  0  0  0  0  0  0
   -0.2040   17.5060  -10.9050 H   0  0  0  0  0  0  0  0  0  0  0  0
   -1.2210   19.6690   -9.3460 H   0  0  0  0  0  0  0  0  0  0  0  0
   -3.1910   21.1980   -9.0990 H   0  0  0  0  0  0  0  0  0  0  0  0
   -0.1540   16.1900  -13.8400 H   0  0  0  0  0  0  0  0  0  0  0  0
   -1.6650   15.2220  -13.6010 H   0  0  0  0  0  0  0  0  0  0  0  0
   -0.8040   14.5400  -11.3940 H   0  0  0  0  0  0  0  0  0  0  0  0
    3.0100   13.8470  -10.3570 H   0  0  0  0  0  0  0  0  0  0  0  0
    3.5100   12.3200  -11.2090 H   0  0  0  0  0  0  0  0  0  0  0  0
    0.6030   13.0330  -10.1800 H   0  0  0  0  0  0  0  0  0  0  0  0
    1.1760   11.4560  -10.9430 H   0  0  0  0  0  0  0  0  0  0  0  0
   -0.4360   12.8900  -13.6290 H   0  0  0  0  0  0  0  0  0  0  0  0
    0.4400   12.0430  -14.9030 H   0  0  0  0  0  0  0  0  0  0  0  0
    0.1980   10.7780  -12.1570 H   0  0  0  0  0  0  0  0  0  0  0  0
   -1.0540   10.6110  -13.4790 H   0  0  0  0  0  0  0  0  0  0  0  0
    2.7920    9.4360  -14.0210 H   0  0  0  0  0  0  0  0  0  0  0  0
    2.1790   10.4960  -15.3080 H   0  0  0  0  0  0  0  0  0  0  0  0
    2.8690   11.0060  -12.4010 H   0  0  0  0  0  0  0  0  0  0  0  0
    3.5240   11.7860  -13.8510 H   0  0  0  0  0  0  0  0  0  0  0  0
  2  1  1  0  0  0  0
  2 10  1  0  0  0  0
  3  2  2  0  0  0  0
  4  3  1  0  0  0  0
  4  8  2  0  0  0  0
  5  6  2  0  0  0  0
  5  4  1  0  0  0  0
  6  7  1  0  0  0  0
  7  8  1  0  0  0  0
  7 25  1  0  0  0  0
  8  9  1  0  0  0  0
  9 10  2  0  0  0  0
  9 26  1  0  0  0  0
 10 27  1  0  0  0  0
 11  6  1  0  0  0  0
 11 12  1  0  0  0  0
 12 30  1  0  0  0  0
 13 12  1  0  0  0  0
 13 15  1  0  0  0  0
 14 13  2  0  0  0  0
 15 16  1  0  0  0  0
 15 17  1  0  0  0  0
 16 17  1  0  0  0  0
 16 31  1  0  0  0  0
 17 33  1  0  0  0  0
 18 15  1  0  0  0  0
 19 35  1  0  0  0  0
 19 18  1  0  0  0  0
 19 20  1  0  0  0  0
 20 37  1  0  0  0  0
 21 20  1  0  0  0  0
 22 39  1  0  0  0  0
 22 21  1  0  0  0  0
 22 23  1  0  0  0  0
 23 18  1  0  0  0  0
 23 41  1  0  0  0  0
 24  3  1  0  0  0  0
 28 11  1  0  0  0  0
 29 11  1  0  0  0  0
 32 16  1  0  0  0  0
 34 17  1  0  0  0  0
 36 19  1  0  0  0  0
 38 20  1  0  0  0  0
 40 22  1  0  0  0  0
 42 23  1  0  0  0  0
M  END
>  <Pose>
1

>  <Score>
-5.87

$$$$
