
 OpenBabel03232203513D

 45 48  0  0  0  0  0  0  0  0999 V2000
   -2.0570   10.0470  -13.3120 Cl  0  0  0  0  0  0  0  0  0  0  0  0
   -1.6940   11.7410  -13.5600 C   0  0  0  0  0  0  0  0  0  0  0  0
   -2.7270   12.6140  -13.7200 C   0  0  0  0  0  0  0  0  0  0  0  0
   -2.4790   13.9760  -13.9210 C   0  0  0  0  0  0  0  0  0  0  0  0
   -1.2250   14.4890  -13.9660 C   0  0  0  0  0  0  0  0  0  0  0  0
   -0.1840   13.5630  -13.7970 C   0  0  0  0  0  0  0  0  0  0  0  0
   -0.4050   12.2200  -13.5990 C   0  0  0  0  0  0  0  0  0  0  0  0
   -0.9140   15.9080  -14.1200 C   0  0  0  0  0  0  0  0  0  0  0  0
   -1.1610   16.7570  -12.9840 N   0  0  0  0  0  0  0  0  0  0  0  0
   -2.3100   17.4850  -12.8430 C   0  0  0  0  0  0  0  0  0  0  0  0
   -2.2730   18.1930  -11.6740 C   0  0  0  0  0  0  0  0  0  0  0  0
   -1.1040   17.8770  -11.1320 N   0  0  0  0  0  0  0  0  0  0  0  0
   -0.4000   16.9960  -11.9150 C   0  0  0  0  0  0  0  0  0  0  0  0
    0.8700   16.5010  -11.5450 N   0  0  0  0  0  0  0  0  0  0  0  0
    1.6470   17.2770  -10.5880 C   0  0  0  0  0  0  0  0  0  0  0  0
    2.3660   16.1990   -9.7560 C   0  0  0  0  0  0  0  0  0  0  0  0
    1.5590   15.0070   -9.6180 N   0  0  0  0  0  0  0  0  0  0  0  0
    1.3460   14.2940  -10.8590 C   0  0  0  0  0  0  0  0  0  0  0  0
    1.5230   15.3180  -11.9710 C   0  0  0  0  0  0  0  0  0  0  0  0
   -3.2910   18.9870  -11.2950 N   0  0  0  0  0  0  0  0  0  0  0  0
   -4.3900   19.0960  -12.0860 C   0  0  0  0  0  0  0  0  0  0  0  0
   -5.3120   19.8470  -11.6940 O   0  0  0  0  0  0  0  0  0  0  0  0
   -4.4740   18.4200  -13.2450 N   0  0  0  0  0  0  0  0  0  0  0  0
   -3.4530   17.6310  -13.6120 C   0  0  0  0  0  0  0  0  0  0  0  0
   -3.5790   17.0220  -14.6970 O   0  0  0  0  0  0  0  0  0  0  0  0
   -3.1680   19.7030  -10.0380 C   0  0  0  0  0  0  0  0  0  0  0  0
   -3.7550   12.2890  -13.6970 H   0  0  0  0  0  0  0  0  0  0  0  0
   -3.3420   14.6100  -14.0500 H   0  0  0  0  0  0  0  0  0  0  0  0
    0.8400   13.9540  -13.8290 H   0  0  0  0  0  0  0  0  0  0  0  0
    0.3970   11.5060  -13.4690 H   0  0  0  0  0  0  0  0  0  0  0  0
   -1.3580   16.3460  -15.0660 H   0  0  0  0  0  0  0  0  0  0  0  0
    0.1830   15.9610  -14.3700 H   0  0  0  0  0  0  0  0  0  0  0  0
    1.0270   17.9160   -9.9530 H   0  0  0  0  0  0  0  0  0  0  0  0
    2.4420   17.8690  -11.0650 H   0  0  0  0  0  0  0  0  0  0  0  0
    3.3840   16.0100  -10.1450 H   0  0  0  0  0  0  0  0  0  0  0  0
    2.4700   16.6150   -8.7240 H   0  0  0  0  0  0  0  0  0  0  0  0
    2.0690   14.3750   -8.9790 H   0  0  0  0  0  0  0  0  0  0  0  0
    0.3530   13.8030  -10.9090 H   0  0  0  0  0  0  0  0  0  0  0  0
    2.1020   13.4870  -11.0040 H   0  0  0  0  0  0  0  0  0  0  0  0
    2.6650   15.4770  -11.9700 H   0  0  0  0  0  0  0  0  0  0  0  0
    1.3570   14.9490  -12.9660 H   0  0  0  0  0  0  0  0  0  0  0  0
   -5.3370   18.5390  -13.8140 H   0  0  0  0  0  0  0  0  0  0  0  0
   -2.3790   20.4900  -10.1130 H   0  0  0  0  0  0  0  0  0  0  0  0
   -2.8760   19.0180   -9.1960 H   0  0  0  0  0  0  0  0  0  0  0  0
   -4.0940   20.2070   -9.7410 H   0  0  0  0  0  0  0  0  0  0  0  0
  2  1  1  0  0  0  0
  3 27  1  0  0  0  0
  3  2  2  0  0  0  0
  4  3  1  0  0  0  0
  5  4  2  0  0  0  0
  5  6  1  0  0  0  0
  6  7  2  0  0  0  0
  7  2  1  0  0  0  0
  7 30  1  0  0  0  0
  8  5  1  0  0  0  0
  8  9  1  0  0  0  0
  9 10  1  0  0  0  0
  9 13  1  0  0  0  0
 10 11  2  0  0  0  0
 11 20  1  0  0  0  0
 11 12  1  0  0  0  0
 13 14  1  0  0  0  0
 13 12  2  0  0  0  0
 14 15  1  0  0  0  0
 15 33  1  0  0  0  0
 15 16  1  0  0  0  0
 16 17  1  0  0  0  0
 16 36  1  0  0  0  0
 17 37  1  0  0  0  0
 18 17  1  0  0  0  0
 19 40  1  0  0  0  0
 19 14  1  0  0  0  0
 19 18  1  0  0  0  0
 20 26  1  0  0  0  0
 21 22  2  0  0  0  0
 21 20  1  0  0  0  0
 23 21  1  0  0  0  0
 24 23  1  0  0  0  0
 24 10  1  0  0  0  0
 25 24  2  0  0  0  0
 26 45  1  0  0  0  0
 26 44  1  0  0  0  0
 28  4  1  0  0  0  0
 29  6  1  0  0  0  0
 31  8  1  0  0  0  0
 32  8  1  0  0  0  0
 34 15  1  0  0  0  0
 35 16  1  0  0  0  0
 38 18  1  0  0  0  0
 39 18  1  0  0  0  0
 41 19  1  0  0  0  0
 42 23  1  0  0  0  0
 43 26  1  0  0  0  0
M  END
>  <Pose>
1

>  <Score>
-5.64

$$$$
