
 OpenBabel03232203513D

 34 37  0  0  1  0  0  0  0  0999 V2000
   -1.3910   18.1710  -11.3960 Cl  0  0  0  0  0  0  0  0  0  0  0  0
   -0.6580   16.6390  -11.8570 C   0  0  0  0  0  0  0  0  0  0  0  0
   -0.8750   16.0860  -13.0950 C   0  0  0  0  0  0  0  0  0  0  0  0
   -0.2990   14.8870  -13.4470 C   0  0  0  0  0  0  0  0  0  0  0  0
    0.5210   14.1820  -12.5860 C   0  0  0  0  0  0  0  0  0  0  0  0
    0.7270   14.7520  -11.3490 C   0  0  0  0  0  0  0  0  0  0  0  0
    0.1600   15.9490  -10.9770 C   0  0  0  0  0  0  0  0  0  0  0  0
    1.0920   12.9450  -12.9970 N   0  0  0  0  0  0  0  0  0  0  0  0
    0.5340   11.9720  -13.8920 C   0  0  0  0  0  0  0  0  0  0  0  0
   -0.7280   11.8690  -14.0740 O   0  0  0  0  0  0  0  0  0  0  0  0
    1.6190   11.1880  -14.5030 C   0  0  1  0  0  0  0  0  0  0  0  0
    2.7720   11.4090  -13.5530 C   0  0  2  0  0  0  0  0  0  0  0  0
    3.1550   10.0850  -12.9280 C   0  0  2  0  0  0  0  0  0  0  0  0
    3.7320    9.2450  -14.0770 C   0  0  0  0  0  0  0  0  0  0  0  0
    2.5870    9.0330  -15.0250 C   0  0  0  0  0  0  0  0  0  0  0  0
    2.7180    8.3310  -15.9920 O   0  0  0  0  0  0  0  0  0  0  0  0
    1.3050    9.7430  -14.6890 C   0  0  1  0  0  0  0  0  0  0  0  0
    0.8300    9.1250  -13.3700 C   0  0  0  0  0  0  0  0  0  0  0  0
    1.9570    9.3460  -12.3990 C   0  0  0  0  0  0  0  0  0  0  0  0
    1.8690    8.9380  -11.2730 O   0  0  0  0  0  0  0  0  0  0  0  0
    2.3530   12.4290  -12.5940 C   0  0  0  0  0  0  0  0  0  0  0  0
    2.9980   12.7880  -11.5840 O   0  0  0  0  0  0  0  0  0  0  0  0
   -1.5100   16.6160  -13.7820 H   0  0  0  0  0  0  0  0  0  0  0  0
   -0.4670   14.4390  -14.4350 H   0  0  0  0  0  0  0  0  0  0  0  0
    1.3580   14.2470  -10.6340 H   0  0  0  0  0  0  0  0  0  0  0  0
    0.3260   16.4010   -9.9910 H   0  0  0  0  0  0  0  0  0  0  0  0
    1.8450   11.6110  -15.5200 H   0  0  0  0  0  0  0  0  0  0  0  0
    3.6470   11.7470  -14.1520 H   0  0  0  0  0  0  0  0  0  0  0  0
    3.8880   10.2170  -12.1130 H   0  0  0  0  0  0  0  0  0  0  0  0
    4.4400    9.9310  -14.6160 H   0  0  0  0  0  0  0  0  0  0  0  0
    4.1800    8.3170  -13.7300 H   0  0  0  0  0  0  0  0  0  0  0  0
    0.5930    9.6040  -15.5020 H   0  0  0  0  0  0  0  0  0  0  0  0
    0.6890    8.0330  -13.5880 H   0  0  0  0  0  0  0  0  0  0  0  0
   -0.1030    9.5760  -13.0180 H   0  0  0  0  0  0  0  0  0  0  0  0
  2  1  1  0  0  0  0
  2  7  1  0  0  0  0
  3  2  2  0  0  0  0
  4  3  1  0  0  0  0
  4  5  2  0  0  0  0
  5  6  1  0  0  0  0
  6  7  2  0  0  0  0
  6 25  1  0  0  0  0
  7 26  1  0  0  0  0
  8 21  1  0  0  0  0
  8  5  1  0  0  0  0
  9  8  1  0  0  0  0
 10  9  2  0  0  0  0
 11 27  1  6  0  0  0
 11  9  1  0  0  0  0
 11 12  1  0  0  0  0
 12 28  1  6  0  0  0
 12 13  1  0  0  0  0
 12 21  1  0  0  0  0
 13 19  1  0  0  0  0
 13 29  1  1  0  0  0
 14 31  1  0  0  0  0
 14 13  1  0  0  0  0
 15 17  1  0  0  0  0
 15 14  1  0  0  0  0
 16 15  2  0  0  0  0
 17 32  1  6  0  0  0
 17 11  1  0  0  0  0
 17 18  1  0  0  0  0
 18 34  1  0  0  0  0
 18 19  1  0  0  0  0
 19 20  2  0  0  0  0
 21 22  2  0  0  0  0
 23  3  1  0  0  0  0
 24  4  1  0  0  0  0
 30 14  1  0  0  0  0
 33 18  1  0  0  0  0
M  END
>  <Pose>
1

>  <Score>
-4.61

$$$$
