
 OpenBabel03232203513D

 57 61  0  0  1  0  0  0  0  0999 V2000
   -1.1860   16.4630  -12.7420 Cl  0  0  0  0  0  0  0  0  0  0  0  0
   -0.2150   15.0030  -12.8290 C   0  0  0  0  0  0  0  0  0  0  0  0
   -0.6910   13.8360  -13.3950 C   0  0  0  0  0  0  0  0  0  0  0  0
    0.0750   12.7020  -13.4580 C   0  0  0  0  0  0  0  0  0  0  0  0
    1.3750   12.6730  -12.9540 C   0  0  0  0  0  0  0  0  0  0  0  0
    1.8600   13.8270  -12.3890 C   0  0  0  0  0  0  0  0  0  0  0  0
    1.0710   14.9510  -12.3380 C   0  0  0  0  0  0  0  0  0  0  0  0
    2.1950   11.4320  -13.0550 C   0  0  1  0  0  0  0  0  0  0  0  0
    3.3030   11.5630  -12.2590 O   0  0  0  0  0  0  0  0  0  0  0  0
    1.4020   10.1780  -12.8000 C   0  0  2  0  0  0  0  0  0  0  0  0
    2.3640    9.1880  -12.3340 N   0  0  0  0  0  0  0  0  0  0  0  0
    1.9810    7.9230  -12.9280 C   0  0  1  0  0  0  0  0  0  0  0  0
    1.4190    8.3420  -14.2560 C   0  0  2  0  0  0  0  0  0  0  0  0
    0.7120    9.6340  -13.9940 C   0  0  1  0  0  0  0  0  0  0  0  0
   -0.7110    9.2760  -13.7410 C   0  0  0  0  0  0  0  0  0  0  0  0
   -1.5890   10.0150  -13.2360 O   0  0  0  0  0  0  0  0  0  0  0  0
   -0.8760    7.9140  -14.1940 N   0  0  0  0  0  0  0  0  0  0  0  0
    0.3400    7.4740  -14.7610 C   0  0  0  0  0  0  0  0  0  0  0  0
    0.5040    6.5160  -15.5560 O   0  0  0  0  0  0  0  0  0  0  0  0
   -2.0780    7.1430  -14.0700 C   0  0  0  0  0  0  0  0  0  0  0  0
   -2.5930    6.5350  -15.3200 C   0  0  0  0  0  0  0  0  0  0  0  0
   -4.0550    6.6540  -15.5710 C   0  0  0  0  0  0  0  0  0  0  0  0
   -4.4370    7.9140  -16.0120 O   0  0  0  0  0  0  0  0  0  0  0  0
   -5.2910    8.5040  -15.0570 C   0  0  0  0  0  0  0  0  0  0  0  0
    3.1380    7.0090  -13.0860 C   0  0  0  0  0  0  0  0  0  0  0  0
    2.8730    5.8990  -12.3200 C   0  0  0  0  0  0  0  0  0  0  0  0
    3.8030    4.8690  -12.2880 C   0  0  0  0  0  0  0  0  0  0  0  0
    4.9600    4.9850  -13.0210 C   0  0  0  0  0  0  0  0  0  0  0  0
    5.2360    6.0980  -13.7970 C   0  0  0  0  0  0  0  0  0  0  0  0
    4.3040    7.1140  -13.8190 C   0  0  0  0  0  0  0  0  0  0  0  0
    1.6050    6.0250  -11.6500 N   0  0  0  0  0  0  0  0  0  0  0  0
    1.0520    7.2760  -12.0180 C   0  0  0  0  0  0  0  0  0  0  0  0
   -0.0400    7.6980  -11.6040 O   0  0  0  0  0  0  0  0  0  0  0  0
   -1.7080   13.8270  -13.8000 H   0  0  0  0  0  0  0  0  0  0  0  0
   -0.3120   11.7760  -13.9110 H   0  0  0  0  0  0  0  0  0  0  0  0
    2.8610   13.8920  -11.9850 H   0  0  0  0  0  0  0  0  0  0  0  0
    1.4410   15.8800  -11.8920 H   0  0  0  0  0  0  0  0  0  0  0  0
    2.5180   11.4010  -14.1610 H   0  0  0  0  0  0  0  0  0  0  0  0
    3.0450   11.3270  -11.3310 H   0  0  0  0  0  0  0  0  0  0  0  0
    0.6980   10.3570  -11.9360 H   0  0  0  0  0  0  0  0  0  0  0  0
    2.3720    9.1460  -11.3100 H   0  0  0  0  0  0  0  0  0  0  0  0
    2.2370    8.4490  -14.9940 H   0  0  0  0  0  0  0  0  0  0  0  0
    0.7280   10.3060  -14.8680 H   0  0  0  0  0  0  0  0  0  0  0  0
   -2.8570    7.7790  -13.6080 H   0  0  0  0  0  0  0  0  0  0  0  0
   -1.9370    6.2980  -13.3340 H   0  0  0  0  0  0  0  0  0  0  0  0
   -2.0880    7.0800  -16.1750 H   0  0  0  0  0  0  0  0  0  0  0  0
   -2.2570    5.4760  -15.4690 H   0  0  0  0  0  0  0  0  0  0  0  0
   -4.6870    6.4160  -14.7000 H   0  0  0  0  0  0  0  0  0  0  0  0
   -4.3110    5.9220  -16.3760 H   0  0  0  0  0  0  0  0  0  0  0  0
   -6.1980    7.8940  -14.9000 H   0  0  0  0  0  0  0  0  0  0  0  0
   -4.7460    8.5250  -14.0880 H   0  0  0  0  0  0  0  0  0  0  0  0
   -5.5270    9.5500  -15.3330 H   0  0  0  0  0  0  0  0  0  0  0  0
    3.5940    3.9780  -11.6760 H   0  0  0  0  0  0  0  0  0  0  0  0
    5.6780    4.1680  -12.9860 H   0  0  0  0  0  0  0  0  0  0  0  0
    6.1670    6.1210  -14.3460 H   0  0  0  0  0  0  0  0  0  0  0  0
    4.5140    8.0030  -14.4320 H   0  0  0  0  0  0  0  0  0  0  0  0
    1.2170    5.2880  -11.0190 H   0  0  0  0  0  0  0  0  0  0  0  0
  2  1  1  0  0  0  0
  2  7  1  0  0  0  0
  3  2  2  0  0  0  0
  4  3  1  0  0  0  0
  4  5  2  0  0  0  0
  5  6  1  0  0  0  0
  6  7  2  0  0  0  0
  6 36  1  0  0  0  0
  7 37  1  0  0  0  0
  8 38  1  6  0  0  0
  8  5  1  0  0  0  0
  8 10  1  0  0  0  0
  8  9  1  0  0  0  0
  9 39  1  0  0  0  0
 10 11  1  0  0  0  0
 10 40  1  1  0  0  0
 11 41  1  0  0  0  0
 12 25  1  6  0  0  0
 12 11  1  0  0  0  0
 12 32  1  0  0  0  0
 13 42  1  6  0  0  0
 13 14  1  0  0  0  0
 13 12  1  0  0  0  0
 14 43  1  6  0  0  0
 14 15  1  0  0  0  0
 14 10  1  0  0  0  0
 15 16  2  0  0  0  0
 17 20  1  0  0  0  0
 17 15  1  0  0  0  0
 18 13  1  0  0  0  0
 18 17  1  0  0  0  0
 19 18  2  0  0  0  0
 20 44  1  0  0  0  0
 20 45  1  0  0  0  0
 21 20  1  0  0  0  0
 22 21  1  0  0  0  0
 22 48  1  0  0  0  0
 23 22  1  0  0  0  0
 23 24  1  0  0  0  0
 24 50  1  0  0  0  0
 24 51  1  0  0  0  0
 25 26  1  0  0  0  0
 26 27  2  0  0  0  0
 26 31  1  0  0  0  0
 27 53  1  0  0  0  0
 28 54  1  0  0  0  0
 28 27  1  0  0  0  0
 29 28  2  0  0  0  0
 30 29  1  0  0  0  0
 30 25  2  0  0  0  0
 31 57  1  0  0  0  0
 32 31  1  0  0  0  0
 32 33  2  0  0  0  0
 34  3  1  0  0  0  0
 35  4  1  0  0  0  0
 46 21  1  0  0  0  0
 47 21  1  0  0  0  0
 49 22  1  0  0  0  0
 52 24  1  0  0  0  0
 55 29  1  0  0  0  0
 56 30  1  0  0  0  0
M  END
>  <Pose>
1

>  <Score>
-6.09

$$$$
