
 OpenBabel03232203513D

 48 51  0  0  1  0  0  0  0  0999 V2000
    2.7960    5.6490  -12.0390 Cl  0  0  0  0  0  0  0  0  0  0  0  0
    1.6900    6.8880  -12.5920 C   0  0  0  0  0  0  0  0  0  0  0  0
    2.1270    7.9030  -13.4370 C   0  0  0  0  0  0  0  0  0  0  0  0
    1.2460    8.8720  -13.8650 C   0  0  0  0  0  0  0  0  0  0  0  0
   -0.0790    8.8820  -13.4840 C   0  0  0  0  0  0  0  0  0  0  0  0
   -0.5190    7.8800  -12.6480 C   0  0  0  0  0  0  0  0  0  0  0  0
    0.3590    6.9100  -12.2190 C   0  0  0  0  0  0  0  0  0  0  0  0
   -1.0440    9.9010  -13.9260 C   0  0  0  0  0  0  0  0  0  0  0  0
   -0.9610   11.1320  -13.0760 C   0  0  0  0  0  0  0  0  0  0  0  0
   -1.8800   11.2830  -12.1980 O   0  0  0  0  0  0  0  0  0  0  0  0
    0.0710   12.0670  -13.2360 N   0  0  0  0  0  0  0  0  0  0  0  0
    1.3320   11.9290  -12.5790 C   0  0  0  0  0  0  0  0  0  0  0  0
    2.0480   13.2270  -12.3330 C   0  0  0  0  0  0  0  0  0  0  0  0
    1.0770   14.3460  -12.2820 C   0  0  2  0  0  0  0  0  0  0  0  0
   -0.0110   14.3770  -13.1350 C   0  0  0  0  0  0  0  0  0  0  0  0
   -0.8900   15.3840  -13.1010 N   0  0  0  0  0  0  0  0  0  0  0  0
   -0.7780   16.4230  -12.2450 C   0  0  2  0  0  0  0  0  0  0  0  0
    0.2860   16.3960  -11.4070 N   0  0  0  0  0  0  0  0  0  0  0  0
    1.1960   15.4070  -11.4030 C   0  0  0  0  0  0  0  0  0  0  0  0
    2.2740   15.4110  -10.5310 O   0  0  0  0  0  0  0  0  0  0  0  0
   -1.7300   17.4560  -12.2480 N   0  0  0  0  0  0  0  0  0  0  0  0
   -2.2330   17.9910  -11.0180 C   0  0  0  0  0  0  0  0  0  0  0  0
   -2.7500   19.4000  -11.3420 C   0  0  0  0  0  0  0  0  0  0  0  0
   -3.7850   19.3540  -12.2420 O   0  0  0  0  0  0  0  0  0  0  0  0
   -3.5920   18.5650  -13.3440 C   0  0  0  0  0  0  0  0  0  0  0  0
   -2.2120   17.9860  -13.4890 C   0  0  0  0  0  0  0  0  0  0  0  0
   -0.1340   13.2090  -14.0850 C   0  0  0  0  0  0  0  0  0  0  0  0
    3.1600    7.9030  -13.7390 H   0  0  0  0  0  0  0  0  0  0  0  0
    1.5780    9.6700  -14.5250 H   0  0  0  0  0  0  0  0  0  0  0  0
   -1.5660    7.8320  -12.3090 H   0  0  0  0  0  0  0  0  0  0  0  0
    0.0170    6.1050  -11.5510 H   0  0  0  0  0  0  0  0  0  0  0  0
   -2.0640    9.4420  -13.8760 H   0  0  0  0  0  0  0  0  0  0  0  0
   -0.8310   10.1220  -14.9940 H   0  0  0  0  0  0  0  0  0  0  0  0
    1.2830   11.2890  -11.6690 H   0  0  0  0  0  0  0  0  0  0  0  0
    2.0180   11.3470  -13.2750 H   0  0  0  0  0  0  0  0  0  0  0  0
    2.8070   13.4540  -13.1390 H   0  0  0  0  0  0  0  0  0  0  0  0
    2.6540   13.2040  -11.3960 H   0  0  0  0  0  0  0  0  0  0  0  0
    2.2150   15.0120   -9.5900 H   0  0  0  0  0  0  0  0  0  0  0  0
   -1.4360   18.1410  -10.2530 H   0  0  0  0  0  0  0  0  0  0  0  0
   -3.0470   17.3770  -10.5610 H   0  0  0  0  0  0  0  0  0  0  0  0
   -1.8980   19.9310  -11.8150 H   0  0  0  0  0  0  0  0  0  0  0  0
   -3.0430   19.9340  -10.4380 H   0  0  0  0  0  0  0  0  0  0  0  0
   -4.3320   17.7340  -13.3730 H   0  0  0  0  0  0  0  0  0  0  0  0
   -3.7710   19.1980  -14.2560 H   0  0  0  0  0  0  0  0  0  0  0  0
   -1.5180   18.7620  -13.9180 H   0  0  0  0  0  0  0  0  0  0  0  0
   -2.2940   17.1550  -14.2250 H   0  0  0  0  0  0  0  0  0  0  0  0
   -1.1400   13.1920  -14.5440 H   0  0  0  0  0  0  0  0  0  0  0  0
    0.6330   13.2930  -14.8860 H   0  0  0  0  0  0  0  0  0  0  0  0
  2  7  1  0  0  0  0
  2  1  1  0  0  0  0
  3  2  2  0  0  0  0
  4  5  2  0  0  0  0
  4  3  1  0  0  0  0
  5  6  1  0  0  0  0
  6 30  1  0  0  0  0
  6  7  2  0  0  0  0
  7 31  1  0  0  0  0
  8 32  1  0  0  0  0
  8  5  1  0  0  0  0
  8  9  1  0  0  0  0
  9 10  2  0  0  0  0
 11  9  1  0  0  0  0
 11 12  1  0  0  0  0
 12 13  1  0  0  0  0
 12 34  1  0  0  0  0
 13 14  1  0  0  0  0
 13 37  1  0  0  0  0
 14 15  1  6  0  0  0
 14 19  1  0  0  0  0
 15 16  2  0  0  0  0
 16 17  1  0  0  0  0
 17 21  1  1  0  0  0
 17 18  1  0  0  0  0
 18 19  2  0  0  0  0
 19 20  1  0  0  0  0
 20 38  1  0  0  0  0
 21 22  1  0  0  0  0
 22 40  1  0  0  0  0
 22 39  1  0  0  0  0
 23 22  1  0  0  0  0
 23 42  1  0  0  0  0
 24 23  1  0  0  0  0
 25 24  1  0  0  0  0
 26 25  1  0  0  0  0
 26 21  1  0  0  0  0
 27 11  1  0  0  0  0
 27 15  1  0  0  0  0
 28  3  1  0  0  0  0
 29  4  1  0  0  0  0
 33  8  1  0  0  0  0
 35 12  1  0  0  0  0
 36 13  1  0  0  0  0
 41 23  1  0  0  0  0
 43 25  1  0  0  0  0
 44 25  1  0  0  0  0
 45 26  1  0  0  0  0
 46 26  1  0  0  0  0
 47 27  1  0  0  0  0
 48 27  1  0  0  0  0
M  END
>  <Pose>
1

>  <Score>
-5.90

$$$$
