
 OpenBabel03232203513D

 52 55  0  0  0  0  0  0  0  0999 V2000
   -4.0460   19.3650  -12.0500 Cl  0  0  0  0  0  0  0  0  0  0  0  0
   -2.7860   18.2310  -12.4270 C   0  0  0  0  0  0  0  0  0  0  0  0
   -1.7920   17.9310  -11.4940 C   0  0  0  0  0  0  0  0  0  0  0  0
   -0.7920   17.0270  -11.8020 C   0  0  0  0  0  0  0  0  0  0  0  0
   -0.7510   16.3970  -13.0430 C   0  0  0  0  0  0  0  0  0  0  0  0
   -1.7230   16.6880  -13.9600 C   0  0  0  0  0  0  0  0  0  0  0  0
   -2.7310   17.6000  -13.6480 C   0  0  0  0  0  0  0  0  0  0  0  0
    0.3430   15.4330  -13.3330 C   0  0  0  0  0  0  0  0  0  0  0  0
    0.9830   14.9530  -12.0930 C   0  0  0  0  0  0  0  0  0  0  0  0
    0.3060   15.0040  -11.0320 O   0  0  0  0  0  0  0  0  0  0  0  0
    2.2910   14.4460  -12.0320 N   0  0  0  0  0  0  0  0  0  0  0  0
    2.6820   13.4710  -10.9990 C   0  0  0  0  0  0  0  0  0  0  0  0
    3.6350   12.4690  -11.6320 C   0  0  0  0  0  0  0  0  0  0  0  0
    3.3100   12.4210  -13.0440 N   0  0  0  0  0  0  0  0  0  0  0  0
    3.7100   13.5860  -13.8140 C   0  0  0  0  0  0  0  0  0  0  0  0
    3.3620   14.8100  -12.9490 C   0  0  0  0  0  0  0  0  0  0  0  0
    2.6340   11.3160  -13.6240 C   0  0  0  0  0  0  0  0  0  0  0  0
    3.2270   10.6020  -14.6490 C   0  0  0  0  0  0  0  0  0  0  0  0
    2.5500    9.5520  -15.1980 N   0  0  0  0  0  0  0  0  0  0  0  0
    1.3490    9.1830  -14.7970 N   0  0  0  0  0  0  0  0  0  0  0  0
    0.7040    9.8450  -13.7870 C   0  0  0  0  0  0  0  0  0  0  0  0
    1.3830   10.8920  -13.2420 C   0  0  0  0  0  0  0  0  0  0  0  0
   -0.5820    9.3990  -13.4080 N   0  0  0  0  0  0  0  0  0  0  0  0
   -0.9120    7.9860  -13.4100 C   0  0  0  0  0  0  0  0  0  0  0  0
   -2.2840    7.7580  -14.0460 C   0  0  0  0  0  0  0  0  0  0  0  0
   -3.2270    8.6360  -13.5510 O   0  0  0  0  0  0  0  0  0  0  0  0
   -2.8370    9.9220  -13.8930 C   0  0  0  0  0  0  0  0  0  0  0  0
   -1.6330   10.2990  -13.0100 C   0  0  0  0  0  0  0  0  0  0  0  0
   -1.8260   18.4160  -10.5420 H   0  0  0  0  0  0  0  0  0  0  0  0
   -0.0020   16.7700  -11.0980 H   0  0  0  0  0  0  0  0  0  0  0  0
   -1.7370   16.2210  -14.9490 H   0  0  0  0  0  0  0  0  0  0  0  0
   -3.4810   17.8090  -14.3910 H   0  0  0  0  0  0  0  0  0  0  0  0
    1.1040   16.0080  -13.9360 H   0  0  0  0  0  0  0  0  0  0  0  0
   -0.0300   14.5930  -13.9520 H   0  0  0  0  0  0  0  0  0  0  0  0
    1.7460   13.0030  -10.6600 H   0  0  0  0  0  0  0  0  0  0  0  0
    3.1370   13.9910  -10.1310 H   0  0  0  0  0  0  0  0  0  0  0  0
    3.6020   11.4800  -11.1530 H   0  0  0  0  0  0  0  0  0  0  0  0
    4.6770   12.8490  -11.5430 H   0  0  0  0  0  0  0  0  0  0  0  0
    3.2350   13.6720  -14.7910 H   0  0  0  0  0  0  0  0  0  0  0  0
    4.8160   13.5590  -13.8850 H   0  0  0  0  0  0  0  0  0  0  0  0
    3.1500   15.6900  -13.5520 H   0  0  0  0  0  0  0  0  0  0  0  0
    4.2370   15.0610  -12.3030 H   0  0  0  0  0  0  0  0  0  0  0  0
    4.1900   10.8190  -15.0420 H   0  0  0  0  0  0  0  0  0  0  0  0
    0.9170   11.4460  -12.4470 H   0  0  0  0  0  0  0  0  0  0  0  0
   -0.1840    7.3780  -13.9840 H   0  0  0  0  0  0  0  0  0  0  0  0
   -1.0040    7.6460  -12.3620 H   0  0  0  0  0  0  0  0  0  0  0  0
   -2.5900    6.7280  -13.8200 H   0  0  0  0  0  0  0  0  0  0  0  0
   -2.2350    7.8450  -15.1450 H   0  0  0  0  0  0  0  0  0  0  0  0
   -3.6370   10.6610  -13.8090 H   0  0  0  0  0  0  0  0  0  0  0  0
   -2.4160    9.8820  -14.9360 H   0  0  0  0  0  0  0  0  0  0  0  0
   -1.4250   11.3580  -13.1010 H   0  0  0  0  0  0  0  0  0  0  0  0
   -1.9220   10.0210  -11.9590 H   0  0  0  0  0  0  0  0  0  0  0  0
  2  1  1  0  0  0  0
  2  3  1  0  0  0  0
  3 29  1  0  0  0  0
  4  3  2  0  0  0  0
  4 30  1  0  0  0  0
  5  4  1  0  0  0  0
  6  7  1  0  0  0  0
  6  5  2  0  0  0  0
  7  2  2  0  0  0  0
  8  5  1  0  0  0  0
  8  9  1  0  0  0  0
  9 11  1  0  0  0  0
  9 10  2  0  0  0  0
 11 12  1  0  0  0  0
 12 35  1  0  0  0  0
 12 36  1  0  0  0  0
 13 38  1  0  0  0  0
 13 37  1  0  0  0  0
 13 12  1  0  0  0  0
 14 13  1  0  0  0  0
 15 14  1  0  0  0  0
 15 16  1  0  0  0  0
 16 42  1  0  0  0  0
 16 11  1  0  0  0  0
 17 22  1  0  0  0  0
 17 14  1  0  0  0  0
 18 17  2  0  0  0  0
 19 20  2  0  0  0  0
 19 18  1  0  0  0  0
 20 21  1  0  0  0  0
 21 23  1  0  0  0  0
 21 22  2  0  0  0  0
 22 44  1  0  0  0  0
 23 28  1  0  0  0  0
 24 23  1  0  0  0  0
 24 46  1  0  0  0  0
 25 47  1  0  0  0  0
 25 26  1  0  0  0  0
 25 24  1  0  0  0  0
 27 49  1  0  0  0  0
 27 26  1  0  0  0  0
 27 28  1  0  0  0  0
 28 52  1  0  0  0  0
 31  6  1  0  0  0  0
 32  7  1  0  0  0  0
 33  8  1  0  0  0  0
 34  8  1  0  0  0  0
 39 15  1  0  0  0  0
 40 15  1  0  0  0  0
 41 16  1  0  0  0  0
 43 18  1  0  0  0  0
 45 24  1  0  0  0  0
 48 25  1  0  0  0  0
 50 27  1  0  0  0  0
 51 28  1  0  0  0  0
M  END
>  <Pose>
1

>  <Score>
-5.49

$$$$
