
 OpenBabel03232203513D

 42 45  0  0  0  0  0  0  0  0999 V2000
   -6.3370   21.5230  -10.3400 Cl  0  0  0  0  0  0  0  0  0  0  0  0
   -4.7590   20.8020  -10.3600 C   0  0  0  0  0  0  0  0  0  0  0  0
   -4.3730   19.7970  -11.2390 C   0  0  0  0  0  0  0  0  0  0  0  0
   -3.1240   19.2810  -11.2130 C   0  0  0  0  0  0  0  0  0  0  0  0
   -2.2590   19.8020  -10.2710 C   0  0  0  0  0  0  0  0  0  0  0  0
   -2.5770   20.7800   -9.3900 C   0  0  0  0  0  0  0  0  0  0  0  0
   -3.8200   21.3110   -9.4050 C   0  0  0  0  0  0  0  0  0  0  0  0
   -2.6450   18.2300  -12.0830 N   0  0  0  0  0  0  0  0  0  0  0  0
   -3.3130   17.8930  -13.1660 N   0  0  0  0  0  0  0  0  0  0  0  0
   -2.6800   17.0230  -13.6630 N   0  0  0  0  0  0  0  0  0  0  0  0
   -1.6530   16.4320  -13.3970 C   0  0  0  0  0  0  0  0  0  0  0  0
   -1.6040   17.4420  -12.0440 C   0  0  0  0  0  0  0  0  0  0  0  0
   -0.4240   15.7250  -13.0800 C   0  0  0  0  0  0  0  0  0  0  0  0
   -0.7770   14.4020  -13.3250 O   0  0  0  0  0  0  0  0  0  0  0  0
    0.8620   15.8180  -12.6680 N   0  0  0  0  0  0  0  0  0  0  0  0
    2.0870   16.0070  -13.3870 C   0  0  0  0  0  0  0  0  0  0  0  0
    3.2540   15.4140  -12.5700 C   0  0  0  0  0  0  0  0  0  0  0  0
    2.6470   14.2730  -11.8710 N   0  0  0  0  0  0  0  0  0  0  0  0
    1.7380   14.5270  -10.8020 C   0  0  0  0  0  0  0  0  0  0  0  0
    1.0450   15.7960  -11.1810 C   0  0  0  0  0  0  0  0  0  0  0  0
    2.8780   12.9830  -12.3360 C   0  0  0  0  0  0  0  0  0  0  0  0
    1.8500   12.2340  -12.9190 N   0  0  0  0  0  0  0  0  0  0  0  0
    1.9610   11.0470  -13.4030 C   0  0  0  0  0  0  0  0  0  0  0  0
    3.1840   10.3590  -13.4060 C   0  0  0  0  0  0  0  0  0  0  0  0
    4.2090   11.0920  -12.8230 C   0  0  0  0  0  0  0  0  0  0  0  0
    4.0340   12.2700  -12.3530 N   0  0  0  0  0  0  0  0  0  0  0  0
   -5.1160   19.3960  -11.9210 H   0  0  0  0  0  0  0  0  0  0  0  0
   -1.2320   19.3310  -10.2800 H   0  0  0  0  0  0  0  0  0  0  0  0
   -1.8380   21.1420   -8.6820 H   0  0  0  0  0  0  0  0  0  0  0  0
   -4.1630   22.0690   -8.7730 H   0  0  0  0  0  0  0  0  0  0  0  0
   -0.8610   17.3730  -11.3670 H   0  0  0  0  0  0  0  0  0  0  0  0
    2.3530   17.0930  -13.4210 H   0  0  0  0  0  0  0  0  0  0  0  0
    2.1410   15.5120  -14.3460 H   0  0  0  0  0  0  0  0  0  0  0  0
    4.0800   15.0740  -13.1900 H   0  0  0  0  0  0  0  0  0  0  0  0
    3.5910   16.1850  -11.8390 H   0  0  0  0  0  0  0  0  0  0  0  0
    2.2670   14.6960   -9.8480 H   0  0  0  0  0  0  0  0  0  0  0  0
    1.0400   13.6350  -10.6630 H   0  0  0  0  0  0  0  0  0  0  0  0
    1.5220   16.7470  -10.8730 H   0  0  0  0  0  0  0  0  0  0  0  0
    0.0360   15.7570  -10.7430 H   0  0  0  0  0  0  0  0  0  0  0  0
    1.1230   10.4590  -13.8140 H   0  0  0  0  0  0  0  0  0  0  0  0
    3.3310    9.3710  -13.7930 H   0  0  0  0  0  0  0  0  0  0  0  0
    5.2110   10.6000  -12.7600 H   0  0  0  0  0  0  0  0  0  0  0  0
  2  1  1  0  0  0  0
  2  7  1  0  0  0  0
  3  4  1  0  0  0  0
  3  2  2  0  0  0  0
  4  5  2  0  0  0  0
  5  6  1  0  0  0  0
  6 29  1  0  0  0  0
  7  6  2  0  0  0  0
  7 30  1  0  0  0  0
  8 12  1  0  0  0  0
  8  4  1  0  0  0  0
  9  8  1  0  0  0  0
 10 11  1  0  0  0  0
 10  9  2  0  0  0  0
 11 13  1  0  0  0  0
 11 12  2  0  0  0  0
 12 31  1  0  0  0  0
 13 15  1  0  0  0  0
 14 13  2  0  0  0  0
 15 20  1  0  0  0  0
 16 15  1  0  0  0  0
 16 17  1  0  0  0  0
 17 18  1  0  0  0  0
 17 35  1  0  0  0  0
 18 19  1  0  0  0  0
 19 37  1  0  0  0  0
 19 36  1  0  0  0  0
 20 38  1  0  0  0  0
 20 19  1  0  0  0  0
 20 39  1  0  0  0  0
 21 18  1  0  0  0  0
 22 21  2  0  0  0  0
 23 22  1  0  0  0  0
 24 23  2  0  0  0  0
 24 25  1  0  0  0  0
 25 42  1  0  0  0  0
 25 26  2  0  0  0  0
 26 21  1  0  0  0  0
 27  3  1  0  0  0  0
 28  5  1  0  0  0  0
 32 16  1  0  0  0  0
 33 16  1  0  0  0  0
 34 17  1  0  0  0  0
 40 23  1  0  0  0  0
 41 24  1  0  0  0  0
M  END
>  <Pose>
1

>  <Score>
-6.16

$$$$
