
 OpenBabel03232203513D

 33 36  0  0  1  0  0  0  0  0999 V2000
   -1.0230   16.6110  -12.7420 Cl  0  0  0  0  0  0  0  0  0  0  0  0
    0.2190   15.4420  -12.3500 C   0  0  0  0  0  0  0  0  0  0  0  0
    0.2620   14.2030  -12.9530 C   0  0  0  0  0  0  0  0  0  0  0  0
    1.2410   13.2700  -12.6510 C   0  0  0  0  0  0  0  0  0  0  0  0
    2.1830   13.6350  -11.7100 C   0  0  0  0  0  0  0  0  0  0  0  0
    2.1410   14.8830  -11.1030 C   0  0  0  0  0  0  0  0  0  0  0  0
    1.1620   15.8070  -11.4110 C   0  0  0  0  0  0  0  0  0  0  0  0
    1.2860   11.9910  -13.2710 N   0  0  0  0  0  0  0  0  0  0  0  0
    0.1840   11.1630  -13.6870 C   0  0  0  0  0  0  0  0  0  0  0  0
   -1.0230   11.4220  -13.4700 O   0  0  0  0  0  0  0  0  0  0  0  0
    0.6890    9.9880  -14.3930 C   0  0  2  0  0  0  0  0  0  0  0  0
    0.5870    8.7000  -13.6450 C   0  0  1  0  0  0  0  0  0  0  0  0
    1.6520    7.9800  -14.2430 O   0  0  0  0  0  0  0  0  0  0  0  0
    2.6870    8.8680  -13.8520 C   0  0  1  0  0  0  0  0  0  0  0  0
    2.2150   10.1570  -14.4780 C   0  0  2  0  0  0  0  0  0  0  0  0
    2.4840   11.2900  -13.5900 C   0  0  0  0  0  0  0  0  0  0  0  0
    3.6140   11.6210  -13.1550 O   0  0  0  0  0  0  0  0  0  0  0  0
    2.4360    8.9530  -12.3980 C   0  0  0  0  0  0  0  0  0  0  0  0
    1.0980    8.8100  -12.2610 C   0  0  0  0  0  0  0  0  0  0  0  0
   -0.7110    7.9870  -13.7800 C   0  0  0  0  0  0  0  0  0  0  0  0
   -0.6750    6.8180  -13.0320 O   0  0  0  0  0  0  0  0  0  0  0  0
   -0.4780   13.9080  -13.6970 H   0  0  0  0  0  0  0  0  0  0  0  0
    2.9610   12.9160  -11.4590 H   0  0  0  0  0  0  0  0  0  0  0  0
    2.8910   15.1570  -10.3650 H   0  0  0  0  0  0  0  0  0  0  0  0
    1.1460   16.7770  -10.9240 H   0  0  0  0  0  0  0  0  0  0  0  0
    0.2600    9.8430  -15.3990 H   0  0  0  0  0  0  0  0  0  0  0  0
    3.6670    8.5400  -14.1500 H   0  0  0  0  0  0  0  0  0  0  0  0
    2.5540   10.3030  -15.5050 H   0  0  0  0  0  0  0  0  0  0  0  0
    3.1340    9.0950  -11.6010 H   0  0  0  0  0  0  0  0  0  0  0  0
    0.5500    8.7830  -11.3300 H   0  0  0  0  0  0  0  0  0  0  0  0
   -0.8130    7.6970  -14.8580 H   0  0  0  0  0  0  0  0  0  0  0  0
   -1.5870    8.6080  -13.5400 H   0  0  0  0  0  0  0  0  0  0  0  0
   -1.3500    6.8500  -12.3140 H   0  0  0  0  0  0  0  0  0  0  0  0
  1  2  1  0  0  0  0
  2  7  1  0  0  0  0
  3  4  1  0  0  0  0
  3  2  2  0  0  0  0
  4  5  2  0  0  0  0
  5 23  1  0  0  0  0
  5  6  1  0  0  0  0
  6 24  1  0  0  0  0
  7  6  2  0  0  0  0
  7 25  1  0  0  0  0
  8  4  1  0  0  0  0
  9 10  2  0  0  0  0
  9  8  1  0  0  0  0
 11 26  1  6  0  0  0
 11  9  1  0  0  0  0
 11 12  1  0  0  0  0
 12 20  1  6  0  0  0
 12 19  1  0  0  0  0
 13 14  1  0  0  0  0
 13 12  1  0  0  0  0
 14 27  1  6  0  0  0
 14 18  1  0  0  0  0
 15 28  1  6  0  0  0
 15 11  1  0  0  0  0
 15 14  1  0  0  0  0
 15 16  1  0  0  0  0
 16  8  1  0  0  0  0
 16 17  2  0  0  0  0
 18 19  2  0  0  0  0
 18 29  1  0  0  0  0
 19 30  1  0  0  0  0
 20 32  1  0  0  0  0
 20 21  1  0  0  0  0
 21 33  1  0  0  0  0
 22  3  1  0  0  0  0
 31 20  1  0  0  0  0
M  END
>  <Pose>
1

>  <Score>
-4.76

$$$$
