
 OpenBabel03232203513D

 41 44  0  0  0  0  0  0  0  0999 V2000
    1.7740   14.8460  -11.1480 Cl  0  0  0  0  0  0  0  0  0  0  0  0
    1.7530   13.4800  -12.2310 C   0  0  0  0  0  0  0  0  0  0  0  0
    2.9020   12.7560  -12.5080 C   0  0  0  0  0  0  0  0  0  0  0  0
    2.9030   11.6710  -13.3650 C   0  0  0  0  0  0  0  0  0  0  0  0
    1.7020   11.3160  -13.9500 C   0  0  0  0  0  0  0  0  0  0  0  0
    0.5660   12.0490  -13.6620 C   0  0  0  0  0  0  0  0  0  0  0  0
    0.5460   13.1380  -12.8080 C   0  0  0  0  0  0  0  0  0  0  0  0
   -0.7170   13.8870  -12.5340 C   0  0  0  0  0  0  0  0  0  0  0  0
   -0.6570   15.2510  -13.1530 C   0  0  0  0  0  0  0  0  0  0  0  0
    0.1940   15.4290  -14.0920 O   0  0  0  0  0  0  0  0  0  0  0  0
   -1.5120   16.2940  -12.7100 N   0  0  0  0  0  0  0  0  0  0  0  0
   -2.8640   16.3160  -13.1450 C   0  0  0  0  0  0  0  0  0  0  0  0
   -3.1800   17.7340  -13.6400 C   0  0  0  0  0  0  0  0  0  0  0  0
   -3.0340   18.5630  -12.3820 C   0  0  0  0  0  0  0  0  0  0  0  0
   -1.9790   18.3170  -11.5280 C   0  0  0  0  0  0  0  0  0  0  0  0
   -1.8730   19.0670  -10.3940 N   0  0  0  0  0  0  0  0  0  0  0  0
   -2.7510   20.0320  -10.0780 C   0  0  0  0  0  0  0  0  0  0  0  0
   -3.7740   20.2590  -10.9220 N   0  0  0  0  0  0  0  0  0  0  0  0
   -3.9340   19.5420  -12.0740 C   0  0  0  0  0  0  0  0  0  0  0  0
   -4.9850   19.7730  -12.9420 O   0  0  0  0  0  0  0  0  0  0  0  0
   -0.9750   17.2780  -11.8310 C   0  0  0  0  0  0  0  0  0  0  0  0
    1.7040   10.2330  -14.8040 O   0  0  0  0  0  0  0  0  0  0  0  0
    2.7050    9.2360  -14.8460 C   0  0  0  0  0  0  0  0  0  0  0  0
    3.9820    9.6190  -14.1870 C   0  0  0  0  0  0  0  0  0  0  0  0
    4.0120   10.9230  -13.6720 O   0  0  0  0  0  0  0  0  0  0  0  0
    3.8480   13.0140  -12.0640 H   0  0  0  0  0  0  0  0  0  0  0  0
   -0.3740   11.7620  -14.1290 H   0  0  0  0  0  0  0  0  0  0  0  0
   -0.8010   13.9660  -11.4280 H   0  0  0  0  0  0  0  0  0  0  0  0
   -1.6040   13.3560  -12.8810 H   0  0  0  0  0  0  0  0  0  0  0  0
   -3.5850   16.1020  -12.3040 H   0  0  0  0  0  0  0  0  0  0  0  0
   -3.1050   15.5680  -13.9240 H   0  0  0  0  0  0  0  0  0  0  0  0
   -4.1840   17.8130  -14.0580 H   0  0  0  0  0  0  0  0  0  0  0  0
   -2.4000   17.9920  -14.3820 H   0  0  0  0  0  0  0  0  0  0  0  0
   -2.6520   20.6230   -9.1680 H   0  0  0  0  0  0  0  0  0  0  0  0
   -5.4100   18.9740  -13.3980 H   0  0  0  0  0  0  0  0  0  0  0  0
   -0.0370   17.7330  -12.2540 H   0  0  0  0  0  0  0  0  0  0  0  0
   -0.6580   16.8540  -10.8460 H   0  0  0  0  0  0  0  0  0  0  0  0
    2.2860    8.3570  -14.2730 H   0  0  0  0  0  0  0  0  0  0  0  0
    2.8260    8.8590  -15.8800 H   0  0  0  0  0  0  0  0  0  0  0  0
    4.2580    8.9360  -13.3450 H   0  0  0  0  0  0  0  0  0  0  0  0
    4.8090    9.4910  -14.9420 H   0  0  0  0  0  0  0  0  0  0  0  0
  2  1  1  0  0  0  0
  3  2  1  0  0  0  0
  3 26  1  0  0  0  0
  4  3  2  0  0  0  0
  5  6  2  0  0  0  0
  5  4  1  0  0  0  0
  6  7  1  0  0  0  0
  7  8  1  0  0  0  0
  7  2  2  0  0  0  0
  8 28  1  0  0  0  0
  9 11  1  0  0  0  0
  9  8  1  0  0  0  0
 10  9  2  0  0  0  0
 11 21  1  0  0  0  0
 12 11  1  0  0  0  0
 12 30  1  0  0  0  0
 13 12  1  0  0  0  0
 13 14  1  0  0  0  0
 14 19  1  0  0  0  0
 14 15  2  0  0  0  0
 15 16  1  0  0  0  0
 16 17  2  0  0  0  0
 17 34  1  0  0  0  0
 18 17  1  0  0  0  0
 19 18  2  0  0  0  0
 20 19  1  0  0  0  0
 21 15  1  0  0  0  0
 21 37  1  0  0  0  0
 22  5  1  0  0  0  0
 23 22  1  0  0  0  0
 23 38  1  0  0  0  0
 23 24  1  0  0  0  0
 24 25  1  0  0  0  0
 24 40  1  0  0  0  0
 25  4  1  0  0  0  0
 27  6  1  0  0  0  0
 29  8  1  0  0  0  0
 31 12  1  0  0  0  0
 32 13  1  0  0  0  0
 33 13  1  0  0  0  0
 35 20  1  0  0  0  0
 36 21  1  0  0  0  0
 39 23  1  0  0  0  0
 41 24  1  0  0  0  0
M  END
>  <Pose>
1

>  <Score>
-6.70

$$$$
