
 OpenBabel03232203513D

 36 39  0  0  0  0  0  0  0  0999 V2000
    2.7940    5.3000  -12.2070 Cl  0  0  0  0  0  0  0  0  0  0  0  0
    1.4870    6.4020  -12.5840 C   0  0  0  0  0  0  0  0  0  0  0  0
    1.6730    7.7620  -12.7120 C   0  0  0  0  0  0  0  0  0  0  0  0
    0.6510    8.6420  -13.0070 C   0  0  0  0  0  0  0  0  0  0  0  0
   -0.6150    8.1160  -13.1800 C   0  0  0  0  0  0  0  0  0  0  0  0
   -0.8130    6.7570  -13.0550 C   0  0  0  0  0  0  0  0  0  0  0  0
    0.2090    5.8780  -12.7590 C   0  0  0  0  0  0  0  0  0  0  0  0
   -1.7250    9.0400  -13.4990 C   0  0  0  0  0  0  0  0  0  0  0  0
   -2.9560    8.8220  -13.7020 N   0  0  0  0  0  0  0  0  0  0  0  0
   -3.7170   10.0200  -13.9880 C   0  0  0  0  0  0  0  0  0  0  0  0
   -2.7180   11.1300  -13.9340 C   0  0  0  0  0  0  0  0  0  0  0  0
   -1.4840   10.4350  -13.6210 N   0  0  0  0  0  0  0  0  0  0  0  0
   -0.1470   10.8960  -13.4270 C   0  0  0  0  0  0  0  0  0  0  0  0
    0.3700   12.1370  -13.4800 N   0  0  0  0  0  0  0  0  0  0  0  0
    1.6690   12.1190  -13.2360 N   0  0  0  0  0  0  0  0  0  0  0  0
    1.9680   10.8140  -13.0230 C   0  0  0  0  0  0  0  0  0  0  0  0
    3.1220   10.4110  -12.7590 O   0  0  0  0  0  0  0  0  0  0  0  0
    0.8720   10.0460  -13.1360 N   0  0  0  0  0  0  0  0  0  0  0  0
    2.5740   13.2520  -13.2030 C   0  0  0  0  0  0  0  0  0  0  0  0
    2.8280   13.6520  -11.7430 C   0  0  0  0  0  0  0  0  0  0  0  0
    2.0270   14.8540  -11.3970 C   0  0  0  0  0  0  0  0  0  0  0  0
    1.8040   15.8080  -12.1840 O   0  0  0  0  0  0  0  0  0  0  0  0
    1.4780   14.9310  -10.0910 N   0  0  0  0  0  0  0  0  0  0  0  0
    2.6760    8.1380  -12.5700 H   0  0  0  0  0  0  0  0  0  0  0  0
   -1.8140    6.3780  -13.1960 H   0  0  0  0  0  0  0  0  0  0  0  0
    0.0550    4.8080  -12.6580 H   0  0  0  0  0  0  0  0  0  0  0  0
   -4.5420   10.1640  -13.2620 H   0  0  0  0  0  0  0  0  0  0  0  0
   -4.1310    9.8850  -15.0180 H   0  0  0  0  0  0  0  0  0  0  0  0
   -2.9690   11.9160  -13.1970 H   0  0  0  0  0  0  0  0  0  0  0  0
   -2.6350   11.6090  -14.9520 H   0  0  0  0  0  0  0  0  0  0  0  0
    3.5660   12.9230  -13.5880 H   0  0  0  0  0  0  0  0  0  0  0  0
    2.1890   14.1080  -13.7560 H   0  0  0  0  0  0  0  0  0  0  0  0
    3.9010   13.8590  -11.5780 H   0  0  0  0  0  0  0  0  0  0  0  0
    2.5050   12.8380  -11.0480 H   0  0  0  0  0  0  0  0  0  0  0  0
    0.4640   15.0220   -9.9010 H   0  0  0  0  0  0  0  0  0  0  0  0
    2.1360   14.8950   -9.2860 H   0  0  0  0  0  0  0  0  0  0  0  0
  2  1  1  0  0  0  0
  3  2  1  0  0  0  0
  3 24  1  0  0  0  0
  4  3  2  0  0  0  0
  5  6  1  0  0  0  0
  5  4  1  0  0  0  0
  6  7  1  0  0  0  0
  7 26  1  0  0  0  0
  7  2  2  0  0  0  0
  8  5  2  0  0  0  0
  9  8  1  0  0  0  0
 10 11  1  0  0  0  0
 10  9  1  0  0  0  0
 10 27  1  0  0  0  0
 11 12  1  0  0  0  0
 11 29  1  0  0  0  0
 12  8  1  0  0  0  0
 12 13  1  0  0  0  0
 13 18  1  0  0  0  0
 14 13  2  0  0  0  0
 14 15  1  0  0  0  0
 15 19  1  0  0  0  0
 15 16  1  0  0  0  0
 16 17  2  0  0  0  0
 18 16  1  0  0  0  0
 18  4  1  0  0  0  0
 19 20  1  0  0  0  0
 20 33  1  0  0  0  0
 20 21  1  0  0  0  0
 20 34  1  0  0  0  0
 21 23  1  0  0  0  0
 22 21  2  0  0  0  0
 23 35  1  0  0  0  0
 23 36  1  0  0  0  0
 25  6  1  0  0  0  0
 28 10  1  0  0  0  0
 30 11  1  0  0  0  0
 31 19  1  0  0  0  0
 32 19  1  0  0  0  0
M  END
>  <Pose>
1

>  <Score>
-6.13

$$$$
