
 OpenBabel03232203513D

 46 49  0  0  1  0  0  0  0  0999 V2000
    6.0100    6.1480  -14.7590 Cl  0  0  0  0  0  0  0  0  0  0  0  0
    5.4500    7.6930  -14.1410 C   0  0  0  0  0  0  0  0  0  0  0  0
    4.1380    8.0890  -14.3040 C   0  0  0  0  0  0  0  0  0  0  0  0
    3.6900    9.3220  -13.8120 C   0  0  0  0  0  0  0  0  0  0  0  0
    4.6170   10.1020  -13.1680 C   0  0  0  0  0  0  0  0  0  0  0  0
    5.9490    9.6950  -13.0050 C   0  0  0  0  0  0  0  0  0  0  0  0
    6.3790    8.4810  -13.4930 C   0  0  0  0  0  0  0  0  0  0  0  0
    4.1970   11.3310  -12.6680 O   0  0  0  0  0  0  0  0  0  0  0  0
    2.9000   11.7980  -12.7920 C   0  0  0  0  0  0  0  0  0  0  0  0
    1.9650   11.0090  -13.4430 C   0  0  0  0  0  0  0  0  0  0  0  0
    2.2770    9.6960  -14.0170 C   0  0  2  0  0  0  0  0  0  0  0  0
    1.4040    8.6570  -13.3780 C   0  0  0  0  0  0  0  0  0  0  0  0
    1.3260    8.5460  -12.0070 C   0  0  0  0  0  0  0  0  0  0  0  0
    0.5310    7.5980  -11.4390 N   0  0  0  0  0  0  0  0  0  0  0  0
   -0.1910    6.7510  -12.2150 C   0  0  0  0  0  0  0  0  0  0  0  0
   -0.9170    5.8840  -11.6530 O   0  0  0  0  0  0  0  0  0  0  0  0
   -0.1350    6.8350  -13.5530 N   0  0  0  0  0  0  0  0  0  0  0  0
    0.6500    7.7710  -14.1210 C   0  0  0  0  0  0  0  0  0  0  0  0
    0.6910    7.8360  -15.3580 O   0  0  0  0  0  0  0  0  0  0  0  0
   -0.9240    5.9080  -14.3580 C   0  0  0  0  0  0  0  0  0  0  0  0
    0.4900    7.5330   -9.9820 C   0  0  0  0  0  0  0  0  0  0  0  0
    2.0520    9.3980  -11.2220 O   0  0  0  0  0  0  0  0  0  0  0  0
    0.6850   11.5170  -13.5390 C   0  0  0  0  0  0  0  0  0  0  0  0
   -0.2160   10.8380  -14.1260 O   0  0  0  0  0  0  0  0  0  0  0  0
    0.3030   12.7070  -13.0500 N   0  0  0  0  0  0  0  0  0  0  0  0
    1.2510   13.4440  -12.4210 C   0  0  0  0  0  0  0  0  0  0  0  0
    0.8710   14.5580  -11.9690 O   0  0  0  0  0  0  0  0  0  0  0  0
    2.5120   12.9890  -12.3030 N   0  0  0  0  0  0  0  0  0  0  0  0
    3.4680   13.8360  -11.6180 C   0  0  0  0  0  0  0  0  0  0  0  0
   -1.0700   13.1980  -13.1770 C   0  0  0  0  0  0  0  0  0  0  0  0
    3.4170    7.4540  -14.8180 H   0  0  0  0  0  0  0  0  0  0  0  0
    6.6260   10.3670  -12.4830 H   0  0  0  0  0  0  0  0  0  0  0  0
    7.4100    8.1850  -13.3580 H   0  0  0  0  0  0  0  0  0  0  0  0
    2.0010    9.7140  -15.0940 H   0  0  0  0  0  0  0  0  0  0  0  0
   -0.5720    5.8290  -15.3860 H   0  0  0  0  0  0  0  0  0  0  0  0
   -1.9700    6.3190  -14.3400 H   0  0  0  0  0  0  0  0  0  0  0  0
   -0.9750    4.9350  -13.8190 H   0  0  0  0  0  0  0  0  0  0  0  0
    1.4740    7.8810   -9.5960 H   0  0  0  0  0  0  0  0  0  0  0  0
   -0.2980    8.2580   -9.6230 H   0  0  0  0  0  0  0  0  0  0  0  0
    0.2460    6.5110   -9.6430 H   0  0  0  0  0  0  0  0  0  0  0  0
    3.3560   13.6700  -10.5180 H   0  0  0  0  0  0  0  0  0  0  0  0
    4.5070   13.6030  -11.8990 H   0  0  0  0  0  0  0  0  0  0  0  0
    3.2890   14.9100  -11.8600 H   0  0  0  0  0  0  0  0  0  0  0  0
   -1.5270   13.0250  -12.1620 H   0  0  0  0  0  0  0  0  0  0  0  0
   -1.1190   14.2400  -13.4870 H   0  0  0  0  0  0  0  0  0  0  0  0
   -1.6150   12.5510  -13.8670 H   0  0  0  0  0  0  0  0  0  0  0  0
  1  2  1  0  0  0  0
  2  7  1  0  0  0  0
  3  2  2  0  0  0  0
  3  4  1  0  0  0  0
  4  5  2  0  0  0  0
  5  6  1  0  0  0  0
  5  8  1  0  0  0  0
  6 32  1  0  0  0  0
  7 33  1  0  0  0  0
  7  6  2  0  0  0  0
  9  8  1  0  0  0  0
  9 28  1  0  0  0  0
 10  9  2  0  0  0  0
 11 34  1  6  0  0  0
 11  4  1  0  0  0  0
 11 10  1  0  0  0  0
 11 12  1  0  0  0  0
 12 13  1  0  0  0  0
 13 14  1  0  0  0  0
 13 22  2  0  0  0  0
 14 21  1  0  0  0  0
 15 16  2  0  0  0  0
 15 14  1  0  0  0  0
 17 15  1  0  0  0  0
 18 17  1  0  0  0  0
 18 12  1  0  0  0  0
 19 18  2  0  0  0  0
 20 36  1  0  0  0  0
 20 37  1  0  0  0  0
 20 17  1  0  0  0  0
 21 40  1  0  0  0  0
 21 39  1  0  0  0  0
 21 38  1  0  0  0  0
 23 10  1  0  0  0  0
 23 25  1  0  0  0  0
 24 23  2  0  0  0  0
 25 26  1  0  0  0  0
 26 28  1  0  0  0  0
 26 27  2  0  0  0  0
 28 29  1  0  0  0  0
 29 41  1  0  0  0  0
 30 25  1  0  0  0  0
 30 44  1  0  0  0  0
 31  3  1  0  0  0  0
 35 20  1  0  0  0  0
 42 29  1  0  0  0  0
 43 29  1  0  0  0  0
 45 30  1  0  0  0  0
 46 30  1  0  0  0  0
M  END
>  <Pose>
1

>  <Score>
-2.78

$$$$
