
 OpenBabel03232203513D

 43 46  0  0  0  0  0  0  0  0999 V2000
    2.7260   13.6480  -11.7140 S   0  0  0  0  0  0  0  0  0  0  0  0
    4.0080   14.3670  -11.8880 O   0  0  0  0  0  0  0  0  0  0  0  0
    2.5220   13.3130  -10.2530 O   0  0  0  0  0  0  0  0  0  0  0  0
    1.4190   14.5850  -12.2440 N   0  0  0  0  0  0  0  0  0  0  0  0
    0.3640   13.8430  -12.8620 C   0  0  0  0  0  0  0  0  0  0  0  0
   -0.9080   14.6320  -13.0200 C   0  0  0  0  0  0  0  0  0  0  0  0
   -0.6580   16.0220  -13.3270 N   0  0  0  0  0  0  0  0  0  0  0  0
    0.6590   16.5740  -13.4980 C   0  0  0  0  0  0  0  0  0  0  0  0
    1.7640   15.8080  -12.8770 C   0  0  0  0  0  0  0  0  0  0  0  0
   -1.7760   16.8880  -13.4710 C   0  0  0  0  0  0  0  0  0  0  0  0
   -2.4810   16.8860  -14.5350 O   0  0  0  0  0  0  0  0  0  0  0  0
   -2.1530   17.8120  -12.4020 C   0  0  0  0  0  0  0  0  0  0  0  0
   -1.3560   18.0620  -11.3020 C   0  0  0  0  0  0  0  0  0  0  0  0
   -1.7680   18.9270  -10.3570 N   0  0  0  0  0  0  0  0  0  0  0  0
   -2.9400   19.5840  -10.4150 C   0  0  0  0  0  0  0  0  0  0  0  0
   -3.7280   19.3530  -11.4800 N   0  0  0  0  0  0  0  0  0  0  0  0
   -4.9070   20.0020  -11.5570 C   0  0  0  0  0  0  0  0  0  0  0  0
   -5.3230   20.8880  -10.5830 C   0  0  0  0  0  0  0  0  0  0  0  0
   -4.5370   21.1480   -9.4770 C   0  0  0  0  0  0  0  0  0  0  0  0
   -3.3310   20.4710   -9.4190 C   0  0  0  0  0  0  0  0  0  0  0  0
   -3.3520   18.4940  -12.4480 C   0  0  0  0  0  0  0  0  0  0  0  0
   -4.0880   18.2770  -13.4420 O   0  0  0  0  0  0  0  0  0  0  0  0
    2.7520   12.1360  -12.6370 C   0  0  0  0  0  0  0  0  0  0  0  0
    4.0710   11.1300  -13.0320 S   0  0  0  0  0  0  0  0  0  0  0  0
    3.2400    9.9270  -13.9090 C   0  0  0  0  0  0  0  0  0  0  0  0
    1.9420   10.3530  -13.8650 C   0  0  0  0  0  0  0  0  0  0  0  0
    1.6870   11.4910  -13.2110 C   0  0  0  0  0  0  0  0  0  0  0  0
    3.8650    8.4650  -14.7000 Cl  0  0  0  0  0  0  0  0  0  0  0  0
    0.6960   13.5410  -13.8770 H   0  0  0  0  0  0  0  0  0  0  0  0
    0.1980   12.9220  -12.2680 H   0  0  0  0  0  0  0  0  0  0  0  0
   -1.5890   14.1960  -13.7740 H   0  0  0  0  0  0  0  0  0  0  0  0
   -1.4320   14.5970  -12.0430 H   0  0  0  0  0  0  0  0  0  0  0  0
    0.6300   17.5950  -13.0140 H   0  0  0  0  0  0  0  0  0  0  0  0
    0.8480   16.7970  -14.5800 H   0  0  0  0  0  0  0  0  0  0  0  0
    2.5100   15.5630  -13.6890 H   0  0  0  0  0  0  0  0  0  0  0  0
    2.3500   16.4230  -12.1310 H   0  0  0  0  0  0  0  0  0  0  0  0
   -0.4100   17.5390  -11.2430 H   0  0  0  0  0  0  0  0  0  0  0  0
   -5.5390   19.8100  -12.4200 H   0  0  0  0  0  0  0  0  0  0  0  0
   -6.2760   21.4110  -10.6470 H   0  0  0  0  0  0  0  0  0  0  0  0
   -4.8310   21.8360   -8.6950 H   0  0  0  0  0  0  0  0  0  0  0  0
   -2.6990   20.6600   -8.5620 H   0  0  0  0  0  0  0  0  0  0  0  0
    1.1500    9.7560  -14.3640 H   0  0  0  0  0  0  0  0  0  0  0  0
    0.6720   11.9400  -13.1060 H   0  0  0  0  0  0  0  0  0  0  0  0
  1  3  2  0  0  0  0
  2  1  2  0  0  0  0
  4  1  1  0  0  0  0
  5 30  1  0  0  0  0
  5  4  1  0  0  0  0
  6  5  1  0  0  0  0
  6 32  1  0  0  0  0
  7  6  1  0  0  0  0
  8  7  1  0  0  0  0
  8 33  1  0  0  0  0
  8  9  1  0  0  0  0
  9  4  1  0  0  0  0
  9 36  1  0  0  0  0
 10  7  1  0  0  0  0
 10 12  1  0  0  0  0
 11 10  2  0  0  0  0
 12 13  2  0  0  0  0
 13 37  1  0  0  0  0
 13 14  1  0  0  0  0
 15 14  2  0  0  0  0
 15 20  1  0  0  0  0
 16 15  1  0  0  0  0
 17 16  1  0  0  0  0
 17 18  2  0  0  0  0
 18 19  1  0  0  0  0
 19 20  2  0  0  0  0
 19 40  1  0  0  0  0
 20 41  1  0  0  0  0
 21 12  1  0  0  0  0
 21 16  1  0  0  0  0
 22 21  2  0  0  0  0
 23  1  1  0  0  0  0
 24 23  1  0  0  0  0
 25 26  2  0  0  0  0
 25 24  1  0  0  0  0
 26 27  1  0  0  0  0
 27 43  1  0  0  0  0
 27 23  2  0  0  0  0
 28 25  1  0  0  0  0
 29  5  1  0  0  0  0
 31  6  1  0  0  0  0
 34  8  1  0  0  0  0
 35  9  1  0  0  0  0
 38 17  1  0  0  0  0
 39 18  1  0  0  0  0
 42 26  1  0  0  0  0
M  END
>  <Pose>
1

>  <Score>
-6.18

$$$$
