
 OpenBabel03232203513D

 41 44  0  0  0  0  0  0  0  0999 V2000
   -2.4770   19.2740  -10.2050 B   0  0  0  0  0  0  0  0  0  0  0  0
   -1.9550   18.0530  -11.5890 C   0  0  0  0  0  0  0  0  0  0  0  0
   -0.8560   17.2530  -11.4340 C   0  0  0  0  0  0  0  0  0  0  0  0
   -0.4880   16.3700  -12.4460 C   0  0  0  0  0  0  0  0  0  0  0  0
   -1.2770   16.3550  -13.5780 C   0  0  0  0  0  0  0  0  0  0  0  0
   -2.3700   17.1560  -13.7220 C   0  0  0  0  0  0  0  0  0  0  0  0
   -2.7480   18.0390  -12.7230 C   0  0  0  0  0  0  0  0  0  0  0  0
   -0.8810   15.4510  -14.5890 O   0  0  0  0  0  0  0  0  0  0  0  0
    0.1440   15.7900  -15.5040 C   0  0  0  0  0  0  0  0  0  0  0  0
    0.7270   15.5700  -12.3300 C   0  0  0  0  0  0  0  0  0  0  0  0
    0.9900   14.2830  -12.5360 N   0  0  0  0  0  0  0  0  0  0  0  0
    2.3060   14.0290  -12.2730 C   0  0  0  0  0  0  0  0  0  0  0  0
    2.8260   15.2200  -11.8960 N   0  0  0  0  0  0  0  0  0  0  0  0
    1.9030   16.1420  -11.9240 N   0  0  0  0  0  0  0  0  0  0  0  0
    2.5870   12.7330  -12.4740 N   0  0  0  0  0  0  0  0  0  0  0  0
    1.4830   12.1080  -12.8650 C   0  0  0  0  0  0  0  0  0  0  0  0
    0.4720   13.0830  -12.9030 C   0  0  0  0  0  0  0  0  0  0  0  0
   -0.7700   12.7320  -13.2570 N   0  0  0  0  0  0  0  0  0  0  0  0
   -1.0010   11.4290  -13.5720 C   0  0  0  0  0  0  0  0  0  0  0  0
   -2.1880   11.1250  -13.9060 O   0  0  0  0  0  0  0  0  0  0  0  0
   -0.0800   10.4690  -13.5530 N   0  0  0  0  0  0  0  0  0  0  0  0
    1.1590   10.8140  -13.1980 C   0  0  0  0  0  0  0  0  0  0  0  0
    2.0680    9.9450  -13.1640 O   0  0  0  0  0  0  0  0  0  0  0  0
   -0.4130    9.0790  -13.9100 C   0  0  0  0  0  0  0  0  0  0  0  0
   -1.8570   13.6680  -13.2820 C   0  0  0  0  0  0  0  0  0  0  0  0
    3.8760   12.0940  -12.3000 C   0  0  0  0  0  0  0  0  0  0  0  0
   -0.2520   17.2820  -10.5380 H   0  0  0  0  0  0  0  0  0  0  0  0
   -2.9590   17.0990  -14.6460 H   0  0  0  0  0  0  0  0  0  0  0  0
   -3.6150   18.6740  -12.8370 H   0  0  0  0  0  0  0  0  0  0  0  0
    0.0950   15.0380  -16.3260 H   0  0  0  0  0  0  0  0  0  0  0  0
    0.0060   16.7920  -15.9380 H   0  0  0  0  0  0  0  0  0  0  0  0
    1.1470   15.7480  -15.0730 H   0  0  0  0  0  0  0  0  0  0  0  0
   -0.9440    8.5640  -13.1080 H   0  0  0  0  0  0  0  0  0  0  0  0
   -1.0680    9.1440  -14.8220 H   0  0  0  0  0  0  0  0  0  0  0  0
    0.5140    8.5970  -14.2420 H   0  0  0  0  0  0  0  0  0  0  0  0
   -2.8140   13.0360  -13.4050 H   0  0  0  0  0  0  0  0  0  0  0  0
   -1.8820   14.3090  -14.1540 H   0  0  0  0  0  0  0  0  0  0  0  0
   -1.9980   14.1090  -12.3040 H   0  0  0  0  0  0  0  0  0  0  0  0
    3.7330   11.0790  -11.8530 H   0  0  0  0  0  0  0  0  0  0  0  0
    4.3360   11.9810  -13.3030 H   0  0  0  0  0  0  0  0  0  0  0  0
    4.5250   12.6440  -11.5850 H   0  0  0  0  0  0  0  0  0  0  0  0
  2  3  1  0  0  0  0
  2  1  1  0  0  0  0
  3 27  1  0  0  0  0
  4 10  1  0  0  0  0
  4  3  2  0  0  0  0
  5  4  1  0  0  0  0
  6  5  2  0  0  0  0
  6  7  1  0  0  0  0
  7  2  2  0  0  0  0
  8  5  1  0  0  0  0
  9 32  1  0  0  0  0
  9  8  1  0  0  0  0
 10 14  2  0  0  0  0
 11 10  1  0  0  0  0
 11 12  1  0  0  0  0
 12 13  2  0  0  0  0
 14 13  1  0  0  0  0
 15 26  1  0  0  0  0
 15 12  1  0  0  0  0
 16 15  1  0  0  0  0
 17 16  2  0  0  0  0
 17 11  1  0  0  0  0
 18 17  1  0  0  0  0
 19 21  1  0  0  0  0
 19 18  1  0  0  0  0
 20 19  2  0  0  0  0
 21 22  1  0  0  0  0
 22 23  2  0  0  0  0
 22 16  1  0  0  0  0
 24 21  1  0  0  0  0
 24 33  1  0  0  0  0
 25 18  1  0  0  0  0
 25 38  1  0  0  0  0
 26 39  1  0  0  0  0
 26 41  1  0  0  0  0
 28  6  1  0  0  0  0
 29  7  1  0  0  0  0
 30  9  1  0  0  0  0
 31  9  1  0  0  0  0
 34 24  1  0  0  0  0
 35 24  1  0  0  0  0
 36 25  1  0  0  0  0
 37 25  1  0  0  0  0
 40 26  1  0  0  0  0
M  END
>  <Pose>
1

>  <Score>
-5.03

$$$$
