
 OpenBabel03232203513D

 35 37  0  0  1  0  0  0  0  0999 V2000
   -1.8420    5.6910  -14.0630 B   0  0  0  0  0  0  0  0  0  0  0  0
   -1.2190    7.4830  -13.9220 C   0  0  0  0  0  0  0  0  0  0  0  0
    0.0820    7.8040  -14.3140 C   0  0  0  0  0  0  0  0  0  0  0  0
    0.5630    9.1170  -14.2280 C   0  0  0  0  0  0  0  0  0  0  0  0
   -0.3260   10.0550  -13.7340 C   0  0  0  0  0  0  0  0  0  0  0  0
   -1.6120    9.7170  -13.3510 C   0  0  0  0  0  0  0  0  0  0  0  0
   -2.0660    8.4310  -13.4400 C   0  0  0  0  0  0  0  0  0  0  0  0
    0.1620   11.3280  -13.6470 O   0  0  0  0  0  0  0  0  0  0  0  0
   -0.7090   12.4210  -13.7650 C   0  0  0  0  0  0  0  0  0  0  0  0
    1.9010    9.3630  -14.7530 C   0  0  2  0  0  0  0  0  0  0  0  0
    2.7290    8.2000  -14.1380 C   0  0  2  0  0  0  0  0  0  0  0  0
    2.2530    8.3600  -12.6810 C   0  0  0  0  0  0  0  0  0  0  0  0
    1.8630    7.4360  -11.9900 O   0  0  0  0  0  0  0  0  0  0  0  0
    2.3390    9.7430  -12.2680 N   0  0  0  0  0  0  0  0  0  0  0  0
    3.2430   10.5610  -13.0970 C   0  0  1  0  0  0  0  0  0  0  0  0
    4.4410    9.7180  -13.2180 N   0  0  0  0  0  0  0  0  0  0  0  0
    4.1790    8.5400  -14.0060 C   0  0  0  0  0  0  0  0  0  0  0  0
    5.0710    7.8530  -14.5360 O   0  0  0  0  0  0  0  0  0  0  0  0
    2.6250   10.5790  -14.5220 C   0  0  0  0  0  0  0  0  0  0  0  0
    3.5150   11.9120  -12.6000 C   0  0  0  0  0  0  0  0  0  0  0  0
    0.6590    6.9760  -14.6840 H   0  0  0  0  0  0  0  0  0  0  0  0
   -2.2230   10.5170  -12.9830 H   0  0  0  0  0  0  0  0  0  0  0  0
   -3.1030    8.2480  -13.1070 H   0  0  0  0  0  0  0  0  0  0  0  0
   -1.3740   12.3060  -14.6340 H   0  0  0  0  0  0  0  0  0  0  0  0
   -1.3810   12.3410  -12.8450 H   0  0  0  0  0  0  0  0  0  0  0  0
   -0.2060   13.3950  -13.7150 H   0  0  0  0  0  0  0  0  0  0  0  0
    1.8720    9.0850  -15.8390 H   0  0  0  0  0  0  0  0  0  0  0  0
    2.5570    7.2400  -14.5390 H   0  0  0  0  0  0  0  0  0  0  0  0
    1.8130   10.1380  -11.4840 H   0  0  0  0  0  0  0  0  0  0  0  0
    5.3420    9.9530  -12.7850 H   0  0  0  0  0  0  0  0  0  0  0  0
    3.5390   10.5600  -15.1990 H   0  0  0  0  0  0  0  0  0  0  0  0
    2.1850   11.5370  -14.7830 H   0  0  0  0  0  0  0  0  0  0  0  0
    4.6170   12.1280  -12.8170 H   0  0  0  0  0  0  0  0  0  0  0  0
    2.9300   12.7200  -13.0720 H   0  0  0  0  0  0  0  0  0  0  0  0
    3.3870   11.9890  -11.5230 H   0  0  0  0  0  0  0  0  0  0  0  0
  1  2  1  0  0  0  0
  2  7  1  0  0  0  0
  3  4  1  0  0  0  0
  3  2  2  0  0  0  0
  4  5  2  0  0  0  0
  5  8  1  0  0  0  0
  5  6  1  0  0  0  0
  6 22  1  0  0  0  0
  7  6  2  0  0  0  0
  7 23  1  0  0  0  0
  9 26  1  0  0  0  0
  9  8  1  0  0  0  0
  9 25  1  0  0  0  0
 10 27  1  6  0  0  0
 10 19  1  0  0  0  0
 10  4  1  0  0  0  0
 10 11  1  0  0  0  0
 11 28  1  6  0  0  0
 11 17  1  0  0  0  0
 11 12  1  0  0  0  0
 12 14  1  0  0  0  0
 12 13  2  0  0  0  0
 14 29  1  0  0  0  0
 15 20  1  1  0  0  0
 15 14  1  0  0  0  0
 16 15  1  0  0  0  0
 16 30  1  0  0  0  0
 17 16  1  0  0  0  0
 18 17  2  0  0  0  0
 19 15  1  0  0  0  0
 20 35  1  0  0  0  0
 21  3  1  0  0  0  0
 24  9  1  0  0  0  0
 31 19  1  0  0  0  0
 32 19  1  0  0  0  0
 33 20  1  0  0  0  0
 34 20  1  0  0  0  0
M  END
>  <Pose>
1

>  <Score>
-5.02

$$$$
