
 OpenBabel03232203513D

 48 51  0  0  0  0  0  0  0  0999 V2000
   -1.4680   16.7740  -13.4690 B   0  0  0  0  0  0  0  0  0  0  0  0
   -0.2890   15.9720  -12.2050 C   0  0  0  0  0  0  0  0  0  0  0  0
    0.8320   15.2610  -12.5230 C   0  0  0  0  0  0  0  0  0  0  0  0
    1.6690   14.6900  -11.5890 C   0  0  0  0  0  0  0  0  0  0  0  0
    1.3290   14.8650  -10.2440 C   0  0  0  0  0  0  0  0  0  0  0  0
    0.2170   15.5670   -9.8670 C   0  0  0  0  0  0  0  0  0  0  0  0
   -0.5900   16.1200  -10.8540 C   0  0  0  0  0  0  0  0  0  0  0  0
    2.1550   14.3070   -9.2880 O   0  0  0  0  0  0  0  0  0  0  0  0
    3.1500   15.0810   -8.6710 C   0  0  0  0  0  0  0  0  0  0  0  0
    2.8660   13.9500  -11.9500 C   0  0  0  0  0  0  0  0  0  0  0  0
    2.9090   12.7900  -12.5440 C   0  0  0  0  0  0  0  0  0  0  0  0
    1.7940   12.0660  -12.9350 O   0  0  0  0  0  0  0  0  0  0  0  0
    2.1400   10.8720  -13.5390 C   0  0  0  0  0  0  0  0  0  0  0  0
    3.5090   10.7320  -13.5830 C   0  0  0  0  0  0  0  0  0  0  0  0
    4.0720    9.6060  -14.1470 C   0  0  0  0  0  0  0  0  0  0  0  0
    3.2530    8.6240  -14.6620 C   0  0  0  0  0  0  0  0  0  0  0  0
    1.8550    8.7920  -14.6030 C   0  0  0  0  0  0  0  0  0  0  0  0
    1.2770    9.8940  -14.0540 C   0  0  0  0  0  0  0  0  0  0  0  0
   -0.1400   10.1270  -13.9840 C   0  0  0  0  0  0  0  0  0  0  0  0
   -0.9330    9.6890  -12.9110 N   0  0  0  0  0  4  0  0  0  0  0  0
   -2.3550    9.7810  -13.1040 C   0  0  0  0  0  0  0  0  0  0  0  0
   -2.9470    8.6310  -13.8810 C   0  0  0  0  0  0  0  0  0  0  0  0
   -1.9970    7.7500  -14.3790 O   0  0  0  0  0  0  0  0  0  0  0  0
   -1.2980    7.2660  -13.2790 C   0  0  0  0  0  0  0  0  0  0  0  0
   -0.5960    8.3180  -12.4860 C   0  0  0  0  0  0  0  0  0  0  0  0
    1.1510    7.7140  -15.1640 O   0  0  0  0  0  0  0  0  0  0  0  0
    4.0370   11.9460  -12.9530 C   0  0  0  0  0  0  0  0  0  0  0  0
    5.2430   12.2300  -12.7850 O   0  0  0  0  0  0  0  0  0  0  0  0
    1.0660   15.1470  -13.5850 H   0  0  0  0  0  0  0  0  0  0  0  0
   -0.0940   15.7290   -8.8290 H   0  0  0  0  0  0  0  0  0  0  0  0
   -1.4870   16.6870  -10.5640 H   0  0  0  0  0  0  0  0  0  0  0  0
    3.9660   14.4040   -8.2690 H   0  0  0  0  0  0  0  0  0  0  0  0
    2.7140   15.5970   -7.7770 H   0  0  0  0  0  0  0  0  0  0  0  0
    3.6730   15.7720   -9.3630 H   0  0  0  0  0  0  0  0  0  0  0  0
    3.8400   14.4020  -11.7020 H   0  0  0  0  0  0  0  0  0  0  0  0
    5.1560    9.5070  -14.1780 H   0  0  0  0  0  0  0  0  0  0  0  0
    3.6340    7.7230  -15.1150 H   0  0  0  0  0  0  0  0  0  0  0  0
   -0.3950   11.2380  -14.1150 H   0  0  0  0  0  0  0  0  0  0  0  0
   -0.6650    9.7120  -14.9270 H   0  0  0  0  0  0  0  0  0  0  0  0
   -0.6990   10.2450  -12.0630 H   0  0  0  0  0  0  0  0  0  0  0  0
   -2.8050    9.7180  -12.0670 H   0  0  0  0  0  0  0  0  0  0  0  0
   -2.6500   10.7510  -13.5030 H   0  0  0  0  0  0  0  0  0  0  0  0
   -3.6520    8.0070  -13.2600 H   0  0  0  0  0  0  0  0  0  0  0  0
   -3.5780    9.0260  -14.7030 H   0  0  0  0  0  0  0  0  0  0  0  0
   -0.4910    6.5940  -13.6980 H   0  0  0  0  0  0  0  0  0  0  0  0
   -1.9750    6.6120  -12.6570 H   0  0  0  0  0  0  0  0  0  0  0  0
    0.5080    8.2090  -12.4900 H   0  0  0  0  0  0  0  0  0  0  0  0
   -0.8970    8.1950  -11.4240 H   0  0  0  0  0  0  0  0  0  0  0  0
  1  2  1  0  0  0  0
  2  7  1  0  0  0  0
  3  2  2  0  0  0  0
  3  4  1  0  0  0  0
  4  5  2  0  0  0  0
  5  6  1  0  0  0  0
  5  8  1  0  0  0  0
  6 30  1  0  0  0  0
  7 31  1  0  0  0  0
  7  6  2  0  0  0  0
  8  9  1  0  0  0  0
  9 32  1  0  0  0  0
  9 33  1  0  0  0  0
 10 35  1  0  0  0  0
 10  4  1  0  0  0  0
 11 10  2  0  0  0  0
 12 11  1  0  0  0  0
 13 12  1  0  0  0  0
 14 13  1  0  0  0  0
 14 27  1  0  0  0  0
 15 14  2  0  0  0  0
 16 17  2  0  0  0  0
 16 15  1  0  0  0  0
 17 18  1  0  0  0  0
 18 19  1  0  0  0  0
 18 13  2  0  0  0  0
 19 20  1  0  0  0  0
 20 25  1  0  0  0  0
 20 40  1  0  0  0  0
 21 20  1  0  0  0  0
 21 41  1  0  0  0  0
 22 43  1  0  0  0  0
 22 21  1  0  0  0  0
 23 22  1  0  0  0  0
 23 24  1  0  0  0  0
 24 46  1  0  0  0  0
 24 25  1  0  0  0  0
 25 48  1  0  0  0  0
 26 17  1  0  0  0  0
 27 28  2  0  0  0  0
 27 11  1  0  0  0  0
 29  3  1  0  0  0  0
 34  9  1  0  0  0  0
 36 15  1  0  0  0  0
 37 16  1  0  0  0  0
 38 19  1  0  0  0  0
 39 19  1  0  0  0  0
 42 21  1  0  0  0  0
 44 22  1  0  0  0  0
 45 24  1  0  0  0  0
 47 25  1  0  0  0  0
M  END
>  <Pose>
1

>  <Score>
-3.78

$$$$
