
 OpenBabel03232203513D

 49 52  0  0  0  0  0  0  0  0999 V2000
    1.1070   11.4470  -13.4090 S   0  0  0  0  0  0  0  0  0  0  0  0
    0.0850   12.3940  -14.0240 O   0  0  0  0  0  0  0  0  0  0  0  0
    2.3130   11.5300  -14.3360 O   0  0  0  0  0  0  0  0  0  0  0  0
    1.5510   12.0720  -11.9150 N   0  0  0  0  0  0  0  0  0  0  0  0
    0.4600   12.4340  -11.0440 C   0  0  0  0  0  0  0  0  0  0  0  0
    0.6160   13.9110  -10.6880 C   0  0  0  0  0  0  0  0  0  0  0  0
    1.0040   14.6370  -11.8380 N   0  0  0  0  0  0  0  0  0  0  0  0
    2.4760   14.3670  -12.1590 C   0  0  0  0  0  0  0  0  0  0  0  0
    2.6820   12.9230  -11.8730 C   0  0  0  0  0  0  0  0  0  0  0  0
    0.3150   15.4470  -12.6930 C   0  0  0  0  0  0  0  0  0  0  0  0
    0.9180   15.4320  -13.9310 O   0  0  0  0  0  0  0  0  0  0  0  0
   -0.8080   16.2990  -12.7360 C   0  0  0  0  0  0  0  0  0  0  0  0
   -1.3920   17.2320  -12.0590 C   0  0  0  0  0  0  0  0  0  0  0  0
   -0.9280   17.7120  -10.8260 N   0  0  0  0  0  0  0  0  0  0  0  0
   -1.5180   18.7710  -10.1000 N   0  0  0  0  0  0  0  0  0  0  0  0
   -2.6490   19.4040  -10.6250 C   0  0  0  0  0  0  0  0  0  0  0  0
   -3.1850   20.3480   -9.9890 O   0  0  0  0  0  0  0  0  0  0  0  0
   -3.1840   18.9410  -11.9180 C   0  0  0  0  0  0  0  0  0  0  0  0
   -2.6020   17.9050  -12.6230 C   0  0  0  0  0  0  0  0  0  0  0  0
   -3.1590   17.5420  -13.8070 C   0  0  0  0  0  0  0  0  0  0  0  0
   -4.2910   18.2130  -14.2810 C   0  0  0  0  0  0  0  0  0  0  0  0
   -4.8740   19.2420  -13.5860 C   0  0  0  0  0  0  0  0  0  0  0  0
   -4.3050   19.6060  -12.3840 C   0  0  0  0  0  0  0  0  0  0  0  0
    0.5530    9.8190  -13.4050 C   0  0  0  0  0  0  0  0  0  0  0  0
    1.4300    8.7640  -13.4420 C   0  0  0  0  0  0  0  0  0  0  0  0
    0.9610    7.4630  -13.4380 C   0  0  0  0  0  0  0  0  0  0  0  0
   -0.3850    7.1740  -13.4000 C   0  0  0  0  0  0  0  0  0  0  0  0
   -1.2750    8.2340  -13.3640 C   0  0  0  0  0  0  0  0  0  0  0  0
   -0.7890    9.5400  -13.3670 C   0  0  0  0  0  0  0  0  0  0  0  0
   -0.9270    5.5080  -13.3980 Cl  0  0  0  0  0  0  0  0  0  0  0  0
   -0.5350   12.2040  -11.4410 H   0  0  0  0  0  0  0  0  0  0  0  0
    0.5830   11.8710  -10.0980 H   0  0  0  0  0  0  0  0  0  0  0  0
    1.5330   13.8970   -9.9760 H   0  0  0  0  0  0  0  0  0  0  0  0
   -0.1650   14.3250  -10.0790 H   0  0  0  0  0  0  0  0  0  0  0  0
    2.9970   15.0130  -11.4310 H   0  0  0  0  0  0  0  0  0  0  0  0
    2.6780   14.6940  -13.1880 H   0  0  0  0  0  0  0  0  0  0  0  0
    3.1210   12.8450  -10.8340 H   0  0  0  0  0  0  0  0  0  0  0  0
    3.4620   12.4770  -12.5310 H   0  0  0  0  0  0  0  0  0  0  0  0
   -1.4070   16.0840  -13.7090 H   0  0  0  0  0  0  0  0  0  0  0  0
   -0.1320   17.2730  -10.3580 H   0  0  0  0  0  0  0  0  0  0  0  0
   -1.0730   19.0470   -9.1750 H   0  0  0  0  0  0  0  0  0  0  0  0
   -2.7580   16.7430  -14.4080 H   0  0  0  0  0  0  0  0  0  0  0  0
   -4.6970   17.8920  -15.2210 H   0  0  0  0  0  0  0  0  0  0  0  0
   -5.7530   19.7720  -13.9410 H   0  0  0  0  0  0  0  0  0  0  0  0
   -4.7260   20.4210  -11.7850 H   0  0  0  0  0  0  0  0  0  0  0  0
    2.5060    8.8860  -13.4740 H   0  0  0  0  0  0  0  0  0  0  0  0
    1.6470    6.6070  -13.4670 H   0  0  0  0  0  0  0  0  0  0  0  0
   -2.3410    8.0200  -13.3320 H   0  0  0  0  0  0  0  0  0  0  0  0
   -1.5650   10.3170  -13.3360 H   0  0  0  0  0  0  0  0  0  0  0  0
  1 24  1  0  0  0  0
  1  4  1  0  0  0  0
  2  1  2  0  0  0  0
  3  1  2  0  0  0  0
  4  9  1  0  0  0  0
  4  5  1  0  0  0  0
  5  6  1  0  0  0  0
  5 32  1  0  0  0  0
  6 34  1  0  0  0  0
  6 33  1  0  0  0  0
  7  6  1  0  0  0  0
  8  9  1  0  0  0  0
  8  7  1  0  0  0  0
  8 35  1  0  0  0  0
  9 37  1  0  0  0  0
 10  7  1  0  0  0  0
 11 10  2  0  0  0  0
 12 10  1  0  0  0  0
 12 13  2  0  0  0  0
 13 14  1  0  0  0  0
 14 40  1  0  0  0  0
 14 15  1  0  0  0  0
 15 41  1  0  0  0  0
 16 15  1  0  0  0  0
 16 17  2  0  0  0  0
 18 16  1  0  0  0  0
 19 13  1  0  0  0  0
 19 18  2  0  0  0  0
 20 19  1  0  0  0  0
 21 20  2  0  0  0  0
 21 22  1  0  0  0  0
 22 23  2  0  0  0  0
 23 18  1  0  0  0  0
 23 45  1  0  0  0  0
 24 29  1  0  0  0  0
 25 26  1  0  0  0  0
 25 24  2  0  0  0  0
 26 27  2  0  0  0  0
 27 30  1  0  0  0  0
 27 28  1  0  0  0  0
 28 48  1  0  0  0  0
 29 28  2  0  0  0  0
 29 49  1  0  0  0  0
 31  5  1  0  0  0  0
 36  8  1  0  0  0  0
 38  9  1  0  0  0  0
 39 12  1  0  0  0  0
 42 20  1  0  0  0  0
 43 21  1  0  0  0  0
 44 22  1  0  0  0  0
 46 25  1  0  0  0  0
 47 26  1  0  0  0  0
M  END
>  <Pose>
1

>  <Score>
-6.09

$$$$
