
 OpenBabel03232203513D

 49 52  0  0  1  0  0  0  0  0999 V2000
    3.9750    6.1160  -14.4240 B   0  0  0  0  0  0  0  0  0  0  0  0
    3.4450    7.8880  -13.9380 C   0  0  0  0  0  0  0  0  0  0  0  0
    4.0510    8.9990  -14.4790 C   0  0  0  0  0  0  0  0  0  0  0  0
    3.6730   10.2910  -14.1320 C   0  0  0  0  0  0  0  0  0  0  0  0
    2.6610   10.4980  -13.2190 C   0  0  0  0  0  0  0  0  0  0  0  0
    2.0520    9.3790  -12.6760 C   0  0  0  0  0  0  0  0  0  0  0  0
    2.4260    8.0960  -13.0190 C   0  0  0  0  0  0  0  0  0  0  0  0
    2.2170   11.8150  -12.8130 C   0  0  0  0  0  0  0  0  0  0  0  0
    2.9740   12.6070  -11.9550 C   0  0  0  0  0  0  0  0  0  0  0  0
    2.5900   13.8030  -11.5750 O   0  0  0  0  0  0  0  0  0  0  0  0
    1.4650   14.3490  -11.9720 C   0  0  0  0  0  0  0  0  0  0  0  0
    0.6490   13.6410  -12.8230 C   0  0  0  0  0  0  0  0  0  0  0  0
   -0.5190   14.2500  -13.2130 C   0  0  0  0  0  0  0  0  0  0  0  0
   -0.8910   15.5040  -12.7980 C   0  0  0  0  0  0  0  0  0  0  0  0
   -0.0700   16.2460  -11.9260 C   0  0  0  0  0  0  0  0  0  0  0  0
    1.0970   15.6300  -11.5400 C   0  0  0  0  0  0  0  0  0  0  0  0
   -0.4800   17.5030  -11.5320 O   0  0  0  0  0  0  0  0  0  0  0  0
   -1.7280   18.0340  -11.6770 C   0  0  2  0  0  0  0  0  0  0  0  0
   -2.0510   18.3450  -13.0260 O   0  0  0  0  0  0  0  0  0  0  0  0
   -3.4280   18.3520  -13.0810 C   0  0  1  0  0  0  0  0  0  0  0  0
   -4.0770   19.4180  -12.2550 C   0  0  2  0  0  0  0  0  0  0  0  0
   -3.4450   19.5560  -10.8910 C   0  0  1  0  0  0  0  0  0  0  0  0
   -1.9460   19.3420  -10.9390 C   0  0  1  0  0  0  0  0  0  0  0  0
   -1.4800   19.2780   -9.6310 O   0  0  0  0  0  0  0  0  0  0  0  0
   -3.7880   20.7850  -10.3410 O   0  0  0  0  0  0  0  0  0  0  0  0
   -5.4080   19.0240  -12.0410 O   0  0  0  0  0  0  0  0  0  0  0  0
   -3.9610   18.4030  -14.4910 C   0  0  0  0  0  0  0  0  0  0  0  0
   -4.8850   17.3900  -14.7370 O   0  0  0  0  0  0  0  0  0  0  0  0
    1.0220   12.3820  -13.2410 C   0  0  0  0  0  0  0  0  0  0  0  0
    0.2760   11.7320  -14.0210 O   0  0  0  0  0  0  0  0  0  0  0  0
    4.8520    8.8560  -15.2010 H   0  0  0  0  0  0  0  0  0  0  0  0
    4.1440   11.1590  -14.5520 H   0  0  0  0  0  0  0  0  0  0  0  0
    1.2500    9.5410  -11.9530 H   0  0  0  0  0  0  0  0  0  0  0  0
    1.9490    7.2190  -12.5940 H   0  0  0  0  0  0  0  0  0  0  0  0
    3.9130   12.1590  -11.6190 H   0  0  0  0  0  0  0  0  0  0  0  0
   -1.1550   13.6750  -13.8890 H   0  0  0  0  0  0  0  0  0  0  0  0
   -1.8130   15.9770  -13.1100 H   0  0  0  0  0  0  0  0  0  0  0  0
    1.7660   16.1430  -10.8760 H   0  0  0  0  0  0  0  0  0  0  0  0
   -2.5090   17.3490  -11.3100 H   0  0  0  0  0  0  0  0  0  0  0  0
   -3.7690   17.3650  -12.6580 H   0  0  0  0  0  0  0  0  0  0  0  0
   -4.1180   20.4070  -12.7790 H   0  0  0  0  0  0  0  0  0  0  0  0
   -3.8560   18.7580  -10.2390 H   0  0  0  0  0  0  0  0  0  0  0  0
   -1.4220   20.1320  -11.5180 H   0  0  0  0  0  0  0  0  0  0  0  0
   -0.7030   19.8720   -9.5060 H   0  0  0  0  0  0  0  0  0  0  0  0
   -3.0950   21.4900  -10.5280 H   0  0  0  0  0  0  0  0  0  0  0  0
   -5.9480   19.1570  -12.8600 H   0  0  0  0  0  0  0  0  0  0  0  0
   -3.1410   18.4000  -15.2370 H   0  0  0  0  0  0  0  0  0  0  0  0
   -4.5140   19.3650  -14.6670 H   0  0  0  0  0  0  0  0  0  0  0  0
   -5.6360   17.8320  -15.2430 H   0  0  0  0  0  0  0  0  0  0  0  0
  1  2  1  0  0  0  0
  2  7  1  0  0  0  0
  3  4  1  0  0  0  0
  3  2  2  0  0  0  0
  4  5  2  0  0  0  0
  5  8  1  0  0  0  0
  5  6  1  0  0  0  0
  6 33  1  0  0  0  0
  7  6  2  0  0  0  0
  7 34  1  0  0  0  0
  8  9  2  0  0  0  0
  9 35  1  0  0  0  0
  9 10  1  0  0  0  0
 11 10  1  0  0  0  0
 11 16  1  0  0  0  0
 12 11  2  0  0  0  0
 13 12  1  0  0  0  0
 13 14  2  0  0  0  0
 14 15  1  0  0  0  0
 15 16  2  0  0  0  0
 15 17  1  0  0  0  0
 16 38  1  0  0  0  0
 18 17  1  0  0  0  0
 18 39  1  1  0  0  0
 18 23  1  0  0  0  0
 19 18  1  0  0  0  0
 20 19  1  0  0  0  0
 20 40  1  1  0  0  0
 20 21  1  0  0  0  0
 21 41  1  6  0  0  0
 21 26  1  0  0  0  0
 21 22  1  0  0  0  0
 22 25  1  0  0  0  0
 22 42  1  1  0  0  0
 23 43  1  6  0  0  0
 23 22  1  0  0  0  0
 23 24  1  0  0  0  0
 24 44  1  0  0  0  0
 27 20  1  0  0  0  0
 28 27  1  0  0  0  0
 29 12  1  0  0  0  0
 29  8  1  0  0  0  0
 30 29  2  0  0  0  0
 31  3  1  0  0  0  0
 32  4  1  0  0  0  0
 36 13  1  0  0  0  0
 37 14  1  0  0  0  0
 45 25  1  0  0  0  0
 46 26  1  0  0  0  0
 47 27  1  0  0  0  0
 48 27  1  0  0  0  0
 49 28  1  0  0  0  0
M  END
>  <Pose>
1

>  <Score>
-7.54

$$$$
