
 OpenBabel03232203513D

 52 55  0  0  0  0  0  0  0  0999 V2000
   10.5110    2.4880  -11.3290 Cl  0  0  0  0  0  0  0  0  0  0  0  0
    9.2080    3.5190  -11.9670 C   0  0  0  0  0  0  0  0  0  0  0  0
    9.0570    4.8520  -11.6010 C   0  0  0  0  0  0  0  0  0  0  0  0
    7.9990    5.6210  -12.0490 C   0  0  0  0  0  0  0  0  0  0  0  0
    7.0300    5.0560  -12.9010 C   0  0  0  0  0  0  0  0  0  0  0  0
    7.2060    3.7640  -13.2450 C   0  0  0  0  0  0  0  0  0  0  0  0
    8.2540    2.9740  -12.8090 C   0  0  0  0  0  0  0  0  0  0  0  0
    5.9000    5.9250  -13.2890 C   0  0  0  0  0  0  0  0  0  0  0  0
    6.1020    7.1890  -13.7930 C   0  0  0  0  0  0  0  0  0  0  0  0
    4.9860    8.0040  -14.0330 C   0  0  0  0  0  0  0  0  0  0  0  0
    3.7060    7.5630  -13.7790 C   0  0  0  0  0  0  0  0  0  0  0  0
    2.5390    8.2990  -13.9820 C   0  0  0  0  0  0  0  0  0  0  0  0
    2.7770    9.6030  -14.4840 C   0  0  0  0  0  0  0  0  0  0  0  0
    4.0550   10.0880  -14.7490 C   0  0  0  0  0  0  0  0  0  0  0  0
    5.1540    9.2770  -14.5150 C   0  0  0  0  0  0  0  0  0  0  0  0
    1.7620   10.5000  -14.7510 O   0  0  0  0  0  0  0  0  0  0  0  0
    1.2110    7.9750  -13.5950 C   0  0  0  0  0  0  0  0  0  0  0  0
    0.7900    7.7070  -12.2440 N   0  0  0  0  0  4  0  0  0  0  0  0
   -0.6170    8.1390  -12.0120 C   0  0  0  0  0  0  0  0  0  0  0  0
   -1.4500    7.8070  -13.1990 C   0  0  0  0  0  0  0  0  0  0  0  0
   -1.5190    6.4030  -13.5330 N   0  0  0  0  0  0  0  0  0  0  0  0
   -0.3560    5.6800  -13.1450 C   0  0  0  0  0  0  0  0  0  0  0  0
    0.5610    6.2290  -12.1560 C   0  0  0  0  0  0  0  0  0  0  0  0
   -1.7670    6.2350  -14.9730 C   0  0  0  0  0  0  0  0  0  0  0  0
   -3.1800    6.6110  -15.3550 C   0  0  0  0  0  0  0  0  0  0  0  0
   -3.3280    6.8280  -16.7160 O   0  0  0  0  0  0  0  0  0  0  0  0
    3.5680    6.3870  -13.3130 O   0  0  0  0  0  0  0  0  0  0  0  0
    4.5650    5.5390  -13.0500 C   0  0  0  0  0  0  0  0  0  0  0  0
    4.3550    4.4050  -12.6030 O   0  0  0  0  0  0  0  0  0  0  0  0
    9.8000    5.2580  -10.9380 H   0  0  0  0  0  0  0  0  0  0  0  0
    7.8960    6.6560  -11.7460 H   0  0  0  0  0  0  0  0  0  0  0  0
    6.5090    3.2580  -13.9040 H   0  0  0  0  0  0  0  0  0  0  0  0
    8.3550    1.9440  -13.1160 H   0  0  0  0  0  0  0  0  0  0  0  0
    7.0810    7.5750  -14.0140 H   0  0  0  0  0  0  0  0  0  0  0  0
    4.2370   11.0470  -15.1690 H   0  0  0  0  0  0  0  0  0  0  0  0
    6.1750    9.6720  -14.6800 H   0  0  0  0  0  0  0  0  0  0  0  0
    1.1570    6.8110  -13.9710 H   0  0  0  0  0  0  0  0  0  0  0  0
    0.4570    8.3420  -14.2500 H   0  0  0  0  0  0  0  0  0  0  0  0
    1.3860    7.9190  -11.4770 H   0  0  0  0  0  0  0  0  0  0  0  0
   -0.7220    9.1390  -11.6370 H   0  0  0  0  0  0  0  0  0  0  0  0
   -0.9800    7.4660  -11.1510 H   0  0  0  0  0  0  0  0  0  0  0  0
   -1.1680    8.4040  -14.0750 H   0  0  0  0  0  0  0  0  0  0  0  0
   -2.5000    8.1130  -12.9240 H   0  0  0  0  0  0  0  0  0  0  0  0
    0.1800    5.3660  -14.0700 H   0  0  0  0  0  0  0  0  0  0  0  0
   -0.7210    4.6760  -12.7110 H   0  0  0  0  0  0  0  0  0  0  0  0
    1.5720    5.7630  -12.2090 H   0  0  0  0  0  0  0  0  0  0  0  0
    0.1120    6.0570  -11.1280 H   0  0  0  0  0  0  0  0  0  0  0  0
   -1.5820    5.1830  -15.2010 H   0  0  0  0  0  0  0  0  0  0  0  0
   -1.0970    6.8520  -15.6040 H   0  0  0  0  0  0  0  0  0  0  0  0
   -3.6390    7.3700  -14.7320 H   0  0  0  0  0  0  0  0  0  0  0  0
   -3.7770    5.6650  -15.1060 H   0  0  0  0  0  0  0  0  0  0  0  0
   -3.9570    6.1270  -17.0790 H   0  0  0  0  0  0  0  0  0  0  0  0
  2  3  1  0  0  0  0
  2  1  1  0  0  0  0
  3 30  1  0  0  0  0
  4 31  1  0  0  0  0
  4  3  2  0  0  0  0
  5  4  1  0  0  0  0
  6  5  2  0  0  0  0
  6  7  1  0  0  0  0
  7  2  2  0  0  0  0
  8 28  1  0  0  0  0
  8  5  1  0  0  0  0
  9  8  2  0  0  0  0
 10  9  1  0  0  0  0
 10 11  1  0  0  0  0
 11 27  1  0  0  0  0
 12 11  2  0  0  0  0
 12 17  1  0  0  0  0
 13 12  1  0  0  0  0
 14 15  1  0  0  0  0
 14 13  2  0  0  0  0
 15 10  2  0  0  0  0
 16 13  1  0  0  0  0
 17 18  1  0  0  0  0
 18 23  1  0  0  0  0
 18 19  1  0  0  0  0
 18 39  1  0  0  0  0
 19 40  1  0  0  0  0
 19 41  1  0  0  0  0
 20 43  1  0  0  0  0
 20 19  1  0  0  0  0
 21 20  1  0  0  0  0
 21 22  1  0  0  0  0
 22 45  1  0  0  0  0
 22 23  1  0  0  0  0
 23 47  1  0  0  0  0
 24 21  1  0  0  0  0
 25 51  1  0  0  0  0
 25 24  1  0  0  0  0
 25 50  1  0  0  0  0
 26 25  1  0  0  0  0
 27 28  1  0  0  0  0
 28 29  2  0  0  0  0
 32  6  1  0  0  0  0
 33  7  1  0  0  0  0
 34  9  1  0  0  0  0
 35 14  1  0  0  0  0
 36 15  1  0  0  0  0
 37 17  1  0  0  0  0
 38 17  1  0  0  0  0
 42 20  1  0  0  0  0
 44 22  1  0  0  0  0
 46 23  1  0  0  0  0
 48 24  1  0  0  0  0
 49 24  1  0  0  0  0
 52 26  1  0  0  0  0
M  END
>  <Pose>
1

>  <Score>
-5.98

$$$$
