
 OpenBabel03232203513D

 54 57  0  0  0  0  0  0  0  0999 V2000
   -2.5370    9.9720  -13.4060 B   0  0  0  0  0  0  0  0  0  0  0  0
   -2.0120   11.7880  -13.6600 C   0  0  0  0  0  0  0  0  0  0  0  0
   -0.6870   12.1590  -13.6080 C   0  0  0  0  0  0  0  0  0  0  0  0
   -0.3210   13.4920  -13.7950 C   0  0  0  0  0  0  0  0  0  0  0  0
   -1.2940   14.4190  -14.0290 C   0  0  0  0  0  0  0  0  0  0  0  0
   -2.6120   14.0680  -14.0830 C   0  0  0  0  0  0  0  0  0  0  0  0
   -2.9730   12.7560  -13.9000 C   0  0  0  0  0  0  0  0  0  0  0  0
   -0.8500   15.8620  -14.1880 C   0  0  0  0  0  0  0  0  0  0  0  0
   -1.1760   16.6390  -13.0190 N   0  0  0  0  0  0  0  0  0  0  0  0
   -2.2980   17.4230  -12.9090 C   0  0  0  0  0  0  0  0  0  0  0  0
   -2.2970   18.0590  -11.6830 C   0  0  0  0  0  0  0  0  0  0  0  0
   -1.1810   17.6480  -11.0740 N   0  0  0  0  0  0  0  0  0  0  0  0
   -0.4950   16.7790  -11.8820 C   0  0  0  0  0  0  0  0  0  0  0  0
    0.6660   16.1230  -11.4420 N   0  0  0  0  0  0  0  0  0  0  0  0
    1.8900   15.8820  -12.1180 C   0  0  0  0  0  0  0  0  0  0  0  0
    2.5950   14.6200  -11.6090 C   0  0  0  0  0  0  0  0  0  0  0  0
    1.7650   13.6580  -11.0110 N   0  0  0  0  0  0  0  0  0  0  0  0
    0.8280   14.1090  -10.0590 C   0  0  0  0  0  0  0  0  0  0  0  0
    0.6430   15.6090  -10.0450 C   0  0  0  0  0  0  0  0  0  0  0  0
    1.5650   12.4130  -11.6290 C   0  0  0  0  0  0  0  0  0  0  0  0
    2.6850   11.8510  -12.3990 C   0  0  0  0  0  0  0  0  0  0  0  0
    3.8480   11.7430  -11.9280 O   0  0  0  0  0  0  0  0  0  0  0  0
    2.4780   11.4170  -13.6910 O   0  0  0  0  0  0  0  0  0  0  0  0
    3.1770   10.3370  -14.2480 C   0  0  0  0  0  0  0  0  0  0  0  0
   -3.3010   18.8840  -11.3290 N   0  0  0  0  0  0  0  0  0  0  0  0
   -4.3040   19.0730  -12.1980 C   0  0  0  0  0  0  0  0  0  0  0  0
   -5.2350   19.8450  -11.8570 O   0  0  0  0  0  0  0  0  0  0  0  0
   -4.3410   18.4730  -13.3930 N   0  0  0  0  0  0  0  0  0  0  0  0
   -3.3400   17.6300  -13.7880 C   0  0  0  0  0  0  0  0  0  0  0  0
   -3.4060   17.0820  -14.9140 O   0  0  0  0  0  0  0  0  0  0  0  0
   -3.2580   19.5370  -10.0330 C   0  0  0  0  0  0  0  0  0  0  0  0
    0.1080   11.4290  -13.4220 H   0  0  0  0  0  0  0  0  0  0  0  0
    0.7490   13.7330  -13.7490 H   0  0  0  0  0  0  0  0  0  0  0  0
   -3.3750   14.8050  -14.2540 H   0  0  0  0  0  0  0  0  0  0  0  0
   -4.0170   12.4870  -13.9440 H   0  0  0  0  0  0  0  0  0  0  0  0
   -1.3410   16.1630  -15.1100 H   0  0  0  0  0  0  0  0  0  0  0  0
    0.2640   15.8290  -14.3200 H   0  0  0  0  0  0  0  0  0  0  0  0
    1.7750   15.6860  -13.2170 H   0  0  0  0  0  0  0  0  0  0  0  0
    2.6010   16.7000  -11.8930 H   0  0  0  0  0  0  0  0  0  0  0  0
    3.1830   14.1310  -12.4300 H   0  0  0  0  0  0  0  0  0  0  0  0
    3.3890   14.8840  -10.8440 H   0  0  0  0  0  0  0  0  0  0  0  0
    1.2140   13.8350   -9.0430 H   0  0  0  0  0  0  0  0  0  0  0  0
   -0.1290   13.5760  -10.1760 H   0  0  0  0  0  0  0  0  0  0  0  0
    1.4790   16.1330   -9.5400 H   0  0  0  0  0  0  0  0  0  0  0  0
   -0.3130   15.8330   -9.5560 H   0  0  0  0  0  0  0  0  0  0  0  0
    0.6060   12.3980  -12.2030 H   0  0  0  0  0  0  0  0  0  0  0  0
    1.3730   11.6630  -10.8000 H   0  0  0  0  0  0  0  0  0  0  0  0
    4.0080   10.6920  -14.9020 H   0  0  0  0  0  0  0  0  0  0  0  0
    2.4490    9.8140  -14.9320 H   0  0  0  0  0  0  0  0  0  0  0  0
    3.6140    9.6410  -13.5080 H   0  0  0  0  0  0  0  0  0  0  0  0
   -5.1380   18.6310  -14.0620 H   0  0  0  0  0  0  0  0  0  0  0  0
   -3.2670   18.7360   -9.2650 H   0  0  0  0  0  0  0  0  0  0  0  0
   -2.2960   20.0920   -9.8960 H   0  0  0  0  0  0  0  0  0  0  0  0
   -4.0870   20.2510   -9.9580 H   0  0  0  0  0  0  0  0  0  0  0  0
  2  3  1  0  0  0  0
  2  1  1  0  0  0  0
  3 32  1  0  0  0  0
  4 33  1  0  0  0  0
  4  3  2  0  0  0  0
  5  4  1  0  0  0  0
  6  5  2  0  0  0  0
  6  7  1  0  0  0  0
  7  2  2  0  0  0  0
  8  5  1  0  0  0  0
  8  9  1  0  0  0  0
  9 10  1  0  0  0  0
  9 13  1  0  0  0  0
 10 11  2  0  0  0  0
 11 25  1  0  0  0  0
 11 12  1  0  0  0  0
 13 14  1  0  0  0  0
 13 12  2  0  0  0  0
 14 19  1  0  0  0  0
 15 39  1  0  0  0  0
 15 16  1  0  0  0  0
 15 14  1  0  0  0  0
 16 17  1  0  0  0  0
 16 41  1  0  0  0  0
 17 18  1  0  0  0  0
 18 19  1  0  0  0  0
 18 42  1  0  0  0  0
 19 45  1  0  0  0  0
 19 44  1  0  0  0  0
 20 17  1  0  0  0  0
 20 47  1  0  0  0  0
 21 22  2  0  0  0  0
 21 20  1  0  0  0  0
 23 21  1  0  0  0  0
 24 23  1  0  0  0  0
 24 50  1  0  0  0  0
 25 31  1  0  0  0  0
 26 27  2  0  0  0  0
 26 25  1  0  0  0  0
 28 26  1  0  0  0  0
 29 28  1  0  0  0  0
 29 10  1  0  0  0  0
 30 29  2  0  0  0  0
 31 54  1  0  0  0  0
 31 53  1  0  0  0  0
 31 52  1  0  0  0  0
 34  6  1  0  0  0  0
 35  7  1  0  0  0  0
 36  8  1  0  0  0  0
 37  8  1  0  0  0  0
 38 15  1  0  0  0  0
 40 16  1  0  0  0  0
 43 18  1  0  0  0  0
 46 20  1  0  0  0  0
 48 24  1  0  0  0  0
 49 24  1  0  0  0  0
 51 28  1  0  0  0  0
M  END
>  <Pose>
1

>  <Score>
-4.83

$$$$
