
 OpenBabel03232203513D

 38 41  0  0  1  0  0  0  0  0999 V2000
    0.9900   15.2450  -11.5660 Cl  0  0  0  0  0  0  0  0  0  0  0  0
    1.9420   13.8220  -11.9300 C   0  0  0  0  0  0  0  0  0  0  0  0
    1.3780   12.7460  -12.6160 C   0  0  0  0  0  0  0  0  0  0  0  0
    2.0850   11.6200  -12.9180 C   0  0  0  0  0  0  0  0  0  0  0  0
    3.4110   11.5930  -12.5070 C   0  0  0  0  0  0  0  0  0  0  0  0
    3.9860   12.6450  -11.8290 C   0  0  0  0  0  0  0  0  0  0  0  0
    3.2550   13.7730  -11.5330 C   0  0  0  0  0  0  0  0  0  0  0  0
    1.2060   10.6800  -13.6420 C   0  0  2  0  0  0  0  0  0  0  0  0
    1.0310    9.4110  -12.8450 C   0  0  0  0  0  0  0  0  0  0  0  0
    1.3050    8.2250  -13.3130 C   0  0  0  0  0  0  0  0  0  0  0  0
    1.8000    8.0350  -14.6360 N   0  0  0  0  0  0  0  0  0  0  0  0
    1.9940    9.1750  -15.4540 C   0  0  0  0  0  0  0  0  0  0  0  0
    1.7210   10.3750  -14.9940 C   0  0  0  0  0  0  0  0  0  0  0  0
    1.9350   11.5200  -15.8680 C   0  0  0  0  0  0  0  0  0  0  0  0
    2.1050   12.4400  -16.5490 N   0  0  0  0  0  0  0  0  0  0  0  0
    2.4870    9.0650  -16.7930 N   0  0  0  0  0  0  0  0  0  0  0  0
    1.0160    7.2220  -12.2680 C   0  0  0  0  0  0  0  0  0  0  0  0
    0.5610    7.9310  -11.1820 O   0  0  0  0  0  0  0  0  0  0  0  0
    0.5480    9.2740  -11.4770 C   0  0  0  0  0  0  0  0  0  0  0  0
    0.1890   10.2420  -10.7200 O   0  0  0  0  0  0  0  0  0  0  0  0
    2.2660    6.4130  -12.0030 C   0  0  0  0  0  0  0  0  0  0  0  0
   -0.0710    6.2540  -12.6990 C   0  0  0  0  0  0  0  0  0  0  0  0
   -0.0950   11.3840  -13.7280 C   0  0  0  0  0  0  0  0  0  0  0  0
   -1.1680   10.9440  -14.2780 O   0  0  0  0  0  0  0  0  0  0  0  0
    0.0480   12.6350  -13.0940 N   0  0  0  0  0  0  0  0  0  0  0  0
    4.0180   10.7300  -12.7180 H   0  0  0  0  0  0  0  0  0  0  0  0
    5.0270   12.6320  -11.5020 H   0  0  0  0  0  0  0  0  0  0  0  0
    3.6780   14.6150  -11.0020 H   0  0  0  0  0  0  0  0  0  0  0  0
    2.0210    7.0900  -15.0160 H   0  0  0  0  0  0  0  0  0  0  0  0
    2.6620    9.9050  -17.3600 H   0  0  0  0  0  0  0  0  0  0  0  0
    2.6610    8.1270  -17.1730 H   0  0  0  0  0  0  0  0  0  0  0  0
    2.1480    5.7520  -11.1260 H   0  0  0  0  0  0  0  0  0  0  0  0
    3.1790    7.0180  -11.9990 H   0  0  0  0  0  0  0  0  0  0  0  0
    2.3680    5.7140  -12.8850 H   0  0  0  0  0  0  0  0  0  0  0  0
   -0.8840    6.8980  -13.1390 H   0  0  0  0  0  0  0  0  0  0  0  0
   -0.4480    5.7660  -11.7790 H   0  0  0  0  0  0  0  0  0  0  0  0
    0.2860    5.4850  -13.3880 H   0  0  0  0  0  0  0  0  0  0  0  0
   -0.7370   13.3490  -13.0100 H   0  0  0  0  0  0  0  0  0  0  0  0
  2  1  1  0  0  0  0
  2  7  1  0  0  0  0
  3  2  2  0  0  0  0
  4  3  1  0  0  0  0
  4  5  2  0  0  0  0
  5  6  1  0  0  0  0
  6  7  2  0  0  0  0
  6 27  1  0  0  0  0
  7 28  1  0  0  0  0
  8 13  1  6  0  0  0
  8  4  1  0  0  0  0
  8  9  1  0  0  0  0
  9 19  1  0  0  0  0
 10  9  2  0  0  0  0
 10 17  1  0  0  0  0
 11 10  1  0  0  0  0
 12 13  2  0  0  0  0
 12 11  1  0  0  0  0
 14 13  1  0  0  0  0
 15 14  3  0  0  0  0
 16 12  1  0  0  0  0
 17 21  1  0  0  0  0
 17 18  1  0  0  0  0
 19 18  1  0  0  0  0
 19 20  2  0  0  0  0
 21 33  1  0  0  0  0
 21 32  1  0  0  0  0
 22 17  1  0  0  0  0
 22 36  1  0  0  0  0
 23  8  1  0  0  0  0
 23 25  1  0  0  0  0
 24 23  2  0  0  0  0
 25 38  1  0  0  0  0
 25  3  1  0  0  0  0
 26  5  1  0  0  0  0
 29 11  1  0  0  0  0
 30 16  1  0  0  0  0
 31 16  1  0  0  0  0
 34 21  1  0  0  0  0
 35 22  1  0  0  0  0
 37 22  1  0  0  0  0
M  END
>  <Pose>
1

>  <Score>
-3.98

$$$$
