
 OpenBabel03232203513D

 36 39  0  0  1  0  0  0  0  0999 V2000
    2.2510   16.1180   -9.9560 Cl  0  0  0  0  0  0  0  0  0  0  0  0
    2.1140   14.7290  -11.0200 C   0  0  0  0  0  0  0  0  0  0  0  0
    1.0430   14.6060  -11.8810 C   0  0  0  0  0  0  0  0  0  0  0  0
    0.9440   13.5070  -12.7170 C   0  0  0  0  0  0  0  0  0  0  0  0
    1.8820   12.4970  -12.7390 C   0  0  0  0  0  0  0  0  0  0  0  0
    2.9540   12.6290  -11.8690 C   0  0  0  0  0  0  0  0  0  0  0  0
    3.0590   13.7250  -11.0340 C   0  0  0  0  0  0  0  0  0  0  0  0
    1.7880   11.3590  -13.5980 N   0  0  0  0  0  0  0  0  0  0  0  0
    2.8540   10.6490  -14.2460 C   0  0  0  0  0  0  0  0  0  0  0  0
    4.0750   10.9380  -14.1960 O   0  0  0  0  0  0  0  0  0  0  0  0
    2.3070    9.5000  -15.0030 C   0  0  1  0  0  0  0  0  0  0  0  0
    2.9560    8.3060  -14.7060 O   0  0  0  0  0  0  0  0  0  0  0  0
    2.6910    7.9970  -13.4480 N   0  0  1  0  0  0  0  0  0  0  0  0
    1.4990    8.5860  -13.0200 C   0  0  1  0  0  0  0  0  0  0  0  0
    0.9820    9.2870  -14.2780 C   0  0  1  0  0  0  0  0  0  0  0  0
    0.5910   10.6880  -13.9900 C   0  0  0  0  0  0  0  0  0  0  0  0
   -0.5480   11.2400  -14.0560 O   0  0  0  0  0  0  0  0  0  0  0  0
    0.4770    7.7580  -12.3670 C   0  0  0  0  0  0  0  0  0  0  0  0
    0.7850    6.3320  -12.1270 C   0  0  0  0  0  0  0  0  0  0  0  0
    2.2640    6.1960  -11.8380 C   0  0  0  0  0  0  0  0  0  0  0  0
    2.9850    6.6770  -13.0710 C   0  0  0  0  0  0  0  0  0  0  0  0
    0.2680   15.3830  -11.9030 H   0  0  0  0  0  0  0  0  0  0  0  0
    0.1090   13.4040  -13.3920 H   0  0  0  0  0  0  0  0  0  0  0  0
    3.6980   11.8380  -11.8820 H   0  0  0  0  0  0  0  0  0  0  0  0
    3.8910   13.8290  -10.3580 H   0  0  0  0  0  0  0  0  0  0  0  0
    2.1840    9.6760  -16.0670 H   0  0  0  0  0  0  0  0  0  0  0  0
    1.7690    9.4320  -12.3170 H   0  0  0  0  0  0  0  0  0  0  0  0
    0.2600    8.7140  -14.8390 H   0  0  0  0  0  0  0  0  0  0  0  0
   -0.4600    7.7940  -13.0000 H   0  0  0  0  0  0  0  0  0  0  0  0
    0.1300    8.2040  -11.3860 H   0  0  0  0  0  0  0  0  0  0  0  0
    0.2510    5.9640  -11.2180 H   0  0  0  0  0  0  0  0  0  0  0  0
    0.5560    5.6540  -12.9720 H   0  0  0  0  0  0  0  0  0  0  0  0
    2.4780    5.1160  -11.7190 H   0  0  0  0  0  0  0  0  0  0  0  0
    2.5710    6.7130  -10.9250 H   0  0  0  0  0  0  0  0  0  0  0  0
    2.7970    5.9310  -13.8820 H   0  0  0  0  0  0  0  0  0  0  0  0
    4.0860    6.5930  -12.8490 H   0  0  0  0  0  0  0  0  0  0  0  0
  2  1  1  0  0  0  0
  3  2  2  0  0  0  0
  4  3  1  0  0  0  0
  5  4  2  0  0  0  0
  5  6  1  0  0  0  0
  6  7  2  0  0  0  0
  7  2  1  0  0  0  0
  7 25  1  0  0  0  0
  8  5  1  0  0  0  0
  9 10  2  0  0  0  0
  9  8  1  0  0  0  0
 11 26  1  6  0  0  0
 11 12  1  0  0  0  0
 11 15  1  0  0  0  0
 11  9  1  0  0  0  0
 13 12  1  6  0  0  0
 13 21  1  0  0  0  0
 13 14  1  0  0  0  0
 14 18  1  0  0  0  0
 14 27  1  1  0  0  0
 15 28  1  6  0  0  0
 15 16  1  0  0  0  0
 15 14  1  0  0  0  0
 16  8  1  0  0  0  0
 17 16  2  0  0  0  0
 18 19  1  0  0  0  0
 18 30  1  0  0  0  0
 19 20  1  0  0  0  0
 19 31  1  0  0  0  0
 20 33  1  0  0  0  0
 20 34  1  0  0  0  0
 21 36  1  0  0  0  0
 21 20  1  0  0  0  0
 22  3  1  0  0  0  0
 23  4  1  0  0  0  0
 24  6  1  0  0  0  0
 29 18  1  0  0  0  0
 32 19  1  0  0  0  0
 35 21  1  0  0  0  0
M  END
>  <Pose>
1

>  <Score>
-4.34

$$$$
