
 OpenBabel03232203513D

 52 55  0  0  0  0  0  0  0  0999 V2000
    8.1090    2.0310  -12.5330 B   0  0  0  0  0  0  0  0  0  0  0  0
    8.2890    3.9190  -12.4030 C   0  0  0  0  0  0  0  0  0  0  0  0
    9.2220    4.4280  -11.5130 C   0  0  0  0  0  0  0  0  0  0  0  0
    9.3310    5.8030  -11.4330 C   0  0  0  0  0  0  0  0  0  0  0  0
    8.5460    6.6230  -12.2020 C   0  0  0  0  0  0  0  0  0  0  0  0
    7.6030    6.1350  -13.1050 C   0  0  0  0  0  0  0  0  0  0  0  0
    7.5080    4.7620  -13.1710 C   0  0  0  0  0  0  0  0  0  0  0  0
    6.8210    7.0560  -13.9040 C   0  0  0  0  0  0  0  0  0  0  0  0
    5.8390    7.7280  -13.4090 N   0  0  0  0  0  0  0  0  0  0  0  0
    5.0620    8.6170  -14.1340 N   0  0  0  0  0  0  0  0  0  0  0  0
    3.8220    9.0810  -13.6150 C   0  0  0  0  0  0  0  0  0  0  0  0
    3.6460   10.3670  -13.3550 N   0  0  0  0  0  4  0  0  0  0  0  0
    2.5000   10.8970  -12.8920 C   0  0  0  0  0  0  0  0  0  0  0  0
    1.4770   10.0390  -12.6870 N   0  0  0  0  0  0  0  0  0  0  0  0
    1.5960    8.7080  -12.9350 C   0  0  0  0  0  0  0  0  0  0  0  0
    2.7840    8.2460  -13.4000 N   0  0  0  0  0  0  0  0  0  0  0  0
    0.5150    7.8270  -12.7310 N   0  0  0  0  0  0  0  0  0  0  0  0
   -0.6490    7.8590  -13.5790 C   0  0  0  0  0  0  0  0  0  0  0  0
   -0.8320    6.4150  -14.0690 C   0  0  0  0  0  0  0  0  0  0  0  0
   -0.8620    5.5720  -12.9780 O   0  0  0  0  0  0  0  0  0  0  0  0
    0.3980    5.4940  -12.3860 C   0  0  0  0  0  0  0  0  0  0  0  0
    0.5670    6.8520  -11.6710 C   0  0  0  0  0  0  0  0  0  0  0  0
    2.3550   12.3020  -12.6290 N   0  0  0  0  0  0  0  0  0  0  0  0
    1.1030   12.9740  -12.8290 C   0  0  0  0  0  0  0  0  0  0  0  0
    0.9930   14.3480  -12.2920 C   0  0  0  0  0  0  0  0  0  0  0  0
    2.2080   14.9490  -11.9900 O   0  0  0  0  0  0  0  0  0  0  0  0
    3.0270   14.1210  -11.2350 C   0  0  0  0  0  0  0  0  0  0  0  0
    3.5000   13.0230  -12.1560 C   0  0  0  0  0  0  0  0  0  0  0  0
    8.6610    8.0150  -12.1140 O   0  0  0  0  0  0  0  0  0  0  0  0
   10.0240    3.6040  -10.7270 O   0  0  0  0  0  0  0  0  0  0  0  0
   10.0720    6.1870  -10.7240 H   0  0  0  0  0  0  0  0  0  0  0  0
    6.7660    4.3610  -13.8780 H   0  0  0  0  0  0  0  0  0  0  0  0
    7.0610    7.1920  -14.9460 H   0  0  0  0  0  0  0  0  0  0  0  0
    5.3780    8.9450  -15.0540 H   0  0  0  0  0  0  0  0  0  0  0  0
   -1.5380    8.1580  -12.9880 H   0  0  0  0  0  0  0  0  0  0  0  0
   -0.4960    8.5310  -14.4610 H   0  0  0  0  0  0  0  0  0  0  0  0
   -1.7610    6.3790  -14.6660 H   0  0  0  0  0  0  0  0  0  0  0  0
    0.0490    6.2030  -14.7240 H   0  0  0  0  0  0  0  0  0  0  0  0
    1.1640    5.5040  -13.2180 H   0  0  0  0  0  0  0  0  0  0  0  0
    0.5050    4.6470  -11.7140 H   0  0  0  0  0  0  0  0  0  0  0  0
   -0.3780    6.9740  -11.0660 H   0  0  0  0  0  0  0  0  0  0  0  0
    1.4740    6.8870  -11.0600 H   0  0  0  0  0  0  0  0  0  0  0  0
    0.8990   12.9500  -13.9350 H   0  0  0  0  0  0  0  0  0  0  0  0
    0.3120   12.3360  -12.3280 H   0  0  0  0  0  0  0  0  0  0  0  0
    0.3220   14.3730  -11.3960 H   0  0  0  0  0  0  0  0  0  0  0  0
    0.4980   14.9920  -13.0630 H   0  0  0  0  0  0  0  0  0  0  0  0
    3.8380   14.7310  -10.8280 H   0  0  0  0  0  0  0  0  0  0  0  0
    2.4700   13.6020  -10.4110 H   0  0  0  0  0  0  0  0  0  0  0  0
    4.1650   12.3780  -11.5220 H   0  0  0  0  0  0  0  0  0  0  0  0
    4.1250   13.4110  -12.9880 H   0  0  0  0  0  0  0  0  0  0  0  0
    9.1360    8.5060  -12.8650 H   0  0  0  0  0  0  0  0  0  0  0  0
   10.0450    3.6380   -9.7190 H   0  0  0  0  0  0  0  0  0  0  0  0
  1  2  1  0  0  0  0
  2  3  1  0  0  0  0
  3  4  2  0  0  0  0
  3 30  1  0  0  0  0
  4 31  1  0  0  0  0
  5 29  1  0  0  0  0
  5  4  1  0  0  0  0
  6  5  2  0  0  0  0
  7  6  1  0  0  0  0
  7  2  2  0  0  0  0
  8  9  2  0  0  0  0
  8  6  1  0  0  0  0
 10 11  1  0  0  0  0
 10  9  1  0  0  0  0
 11 16  1  0  0  0  0
 11 12  2  0  0  0  0
 12 13  2  0  0  0  0
 13 14  1  0  0  0  0
 13 23  1  0  0  0  0
 15 17  1  0  0  0  0
 15 14  2  0  0  0  0
 16 15  1  0  0  0  0
 17 22  1  0  0  0  0
 18 35  1  0  0  0  0
 18 17  1  0  0  0  0
 19 18  1  0  0  0  0
 19 20  1  0  0  0  0
 20 21  1  0  0  0  0
 21 40  1  0  0  0  0
 21 22  1  0  0  0  0
 22 41  1  0  0  0  0
 22 42  1  0  0  0  0
 23 28  1  0  0  0  0
 24 23  1  0  0  0  0
 24 44  1  0  0  0  0
 24 25  1  0  0  0  0
 25 26  1  0  0  0  0
 25 45  1  0  0  0  0
 26 27  1  0  0  0  0
 27 47  1  0  0  0  0
 27 48  1  0  0  0  0
 28 49  1  0  0  0  0
 28 27  1  0  0  0  0
 30 52  1  0  0  0  0
 32  7  1  0  0  0  0
 33  8  1  0  0  0  0
 34 10  1  0  0  0  0
 36 18  1  0  0  0  0
 37 19  1  0  0  0  0
 38 19  1  0  0  0  0
 39 21  1  0  0  0  0
 43 24  1  0  0  0  0
 46 25  1  0  0  0  0
 50 28  1  0  0  0  0
 51 29  1  0  0  0  0
M  END
>  <Pose>
1

>  <Score>
-6.96

$$$$
