
 OpenBabel03232203513D

 56 59  0  0  1  0  0  0  0  0999 V2000
   -4.0930   20.6220  -10.0440 Cl  0  0  0  0  0  0  0  0  0  0  0  0
   -3.4350   19.4520  -11.1910 C   0  0  0  0  0  0  0  0  0  0  0  0
   -2.3020   18.7850  -10.8560 C   0  0  0  0  0  0  0  0  0  0  0  0
   -1.8040   17.8660  -11.7860 C   0  0  0  0  0  0  0  0  0  0  0  0
   -2.4090   17.6370  -12.9730 C   0  0  0  0  0  0  0  0  0  0  0  0
   -1.6640   16.6980  -13.6300 N   0  0  0  0  0  0  0  0  0  0  0  0
   -0.6110   16.3290  -12.8970 C   0  0  0  0  0  0  0  0  0  0  0  0
   -0.6820   17.0640  -11.7150 C   0  0  0  0  0  0  0  0  0  0  0  0
    0.4520   15.4050  -13.1870 C   0  0  0  0  0  0  0  0  0  0  0  0
    0.0600   14.3800  -13.9560 O   0  0  0  0  0  0  0  0  0  0  0  0
    1.7870   15.3490  -12.8450 N   0  0  0  0  0  0  0  0  0  0  0  0
    1.9650   15.1830  -11.3750 C   0  0  0  0  0  0  0  0  0  0  0  0
    2.0020   13.7030  -11.0470 C   0  0  0  0  0  0  0  0  0  0  0  0
    2.3780   12.9740  -12.2800 C   0  0  1  0  0  0  0  0  0  0  0  0
    3.7120   13.4170  -12.7860 C   0  0  2  0  0  0  0  0  0  0  0  0
    3.4490   14.0810  -14.1490 C   0  0  0  0  0  0  0  0  0  0  0  0
    2.8570   15.4540  -13.7760 C   0  0  0  0  0  0  0  0  0  0  0  0
    4.6450   12.3880  -12.9000 O   0  0  0  0  0  0  0  0  0  0  0  0
    2.2980   11.5480  -12.2700 N   0  0  0  0  0  0  0  0  0  0  0  0
    2.0370   10.9430  -13.5520 C   0  0  0  0  0  0  0  0  0  0  0  0
    0.7060   11.3210  -14.0810 C   0  0  0  0  0  0  0  0  0  0  0  0
   -0.2730   10.9440  -13.0550 N   0  0  0  0  0  0  0  0  0  0  0  0
    0.2630   10.3120  -11.8780 C   0  0  0  0  0  0  0  0  0  0  0  0
    1.4260   11.0250  -11.2540 C   0  0  0  0  0  0  0  0  0  0  0  0
   -1.6630   11.1940  -13.2690 C   0  0  0  0  0  0  0  0  0  0  0  0
   -2.0720   12.3610  -13.3170 O   0  0  0  0  0  0  0  0  0  0  0  0
   -2.5810   10.0220  -13.4270 C   0  0  0  0  0  0  0  0  0  0  0  0
   -3.5520   18.3180  -13.2960 C   0  0  0  0  0  0  0  0  0  0  0  0
   -4.0720   19.2360  -12.3960 C   0  0  0  0  0  0  0  0  0  0  0  0
   -1.7990   18.9450   -9.9250 H   0  0  0  0  0  0  0  0  0  0  0  0
   -1.9510   16.3570  -14.5560 H   0  0  0  0  0  0  0  0  0  0  0  0
    0.0220   16.9940  -10.9110 H   0  0  0  0  0  0  0  0  0  0  0  0
    1.1270   15.6280  -10.8340 H   0  0  0  0  0  0  0  0  0  0  0  0
    2.8780   15.7310  -11.0990 H   0  0  0  0  0  0  0  0  0  0  0  0
    1.0720   13.3630  -10.5670 H   0  0  0  0  0  0  0  0  0  0  0  0
    2.8140   13.6330  -10.2550 H   0  0  0  0  0  0  0  0  0  0  0  0
    1.5550   13.2700  -13.0350 H   0  0  0  0  0  0  0  0  0  0  0  0
    4.1990   14.2210  -12.1720 H   0  0  0  0  0  0  0  0  0  0  0  0
    4.3480   14.2090  -14.7350 H   0  0  0  0  0  0  0  0  0  0  0  0
    2.6480   13.4680  -14.6230 H   0  0  0  0  0  0  0  0  0  0  0  0
    2.7090   16.0170  -14.6720 H   0  0  0  0  0  0  0  0  0  0  0  0
    3.7520   15.9740  -13.2600 H   0  0  0  0  0  0  0  0  0  0  0  0
    5.3470   12.5820  -12.1970 H   0  0  0  0  0  0  0  0  0  0  0  0
    2.0830    9.8320  -13.3940 H   0  0  0  0  0  0  0  0  0  0  0  0
    2.8750   11.2140  -14.2450 H   0  0  0  0  0  0  0  0  0  0  0  0
    0.6460   12.3730  -14.3630 H   0  0  0  0  0  0  0  0  0  0  0  0
    0.5120   10.6670  -14.9710 H   0  0  0  0  0  0  0  0  0  0  0  0
    0.5460    9.2710  -12.1870 H   0  0  0  0  0  0  0  0  0  0  0  0
   -0.5570   10.1730  -11.1050 H   0  0  0  0  0  0  0  0  0  0  0  0
    2.0030   10.2640  -10.6700 H   0  0  0  0  0  0  0  0  0  0  0  0
    1.1020   11.7720  -10.5070 H   0  0  0  0  0  0  0  0  0  0  0  0
   -2.0010    9.0870  -13.4440 H   0  0  0  0  0  0  0  0  0  0  0  0
   -3.3000   10.0320  -12.5640 H   0  0  0  0  0  0  0  0  0  0  0  0
   -3.1470   10.1490  -14.3500 H   0  0  0  0  0  0  0  0  0  0  0  0
   -4.0650   18.1570  -14.2350 H   0  0  0  0  0  0  0  0  0  0  0  0
   -4.9650   19.8010  -12.5950 H   0  0  0  0  0  0  0  0  0  0  0  0
  2  3  1  0  0  0  0
  2  1  1  0  0  0  0
  3 30  1  0  0  0  0
  4  8  1  0  0  0  0
  4  3  2  0  0  0  0
  5  4  1  0  0  0  0
  6  5  1  0  0  0  0
  6  7  1  0  0  0  0
  7  8  2  0  0  0  0
  8 32  1  0  0  0  0
  9  7  1  0  0  0  0
  9 11  1  0  0  0  0
 10  9  2  0  0  0  0
 11 12  1  0  0  0  0
 12 34  1  0  0  0  0
 12 13  1  0  0  0  0
 12 33  1  0  0  0  0
 13 35  1  0  0  0  0
 13 36  1  0  0  0  0
 14 37  1  6  0  0  0
 14 19  1  0  0  0  0
 14 13  1  0  0  0  0
 15 14  1  0  0  0  0
 15 38  1  1  0  0  0
 16 17  1  0  0  0  0
 16 15  1  0  0  0  0
 17 42  1  0  0  0  0
 17 11  1  0  0  0  0
 18 15  1  0  0  0  0
 18 43  1  0  0  0  0
 19 24  1  0  0  0  0
 20 44  1  0  0  0  0
 20 19  1  0  0  0  0
 21 20  1  0  0  0  0
 21 22  1  0  0  0  0
 22 23  1  0  0  0  0
 23 24  1  0  0  0  0
 23 49  1  0  0  0  0
 24 50  1  0  0  0  0
 24 51  1  0  0  0  0
 25 22  1  0  0  0  0
 26 25  2  0  0  0  0
 27 25  1  0  0  0  0
 27 53  1  0  0  0  0
 28  5  2  0  0  0  0
 28 29  1  0  0  0  0
 29  2  2  0  0  0  0
 31  6  1  0  0  0  0
 39 16  1  0  0  0  0
 40 16  1  0  0  0  0
 41 17  1  0  0  0  0
 45 20  1  0  0  0  0
 46 21  1  0  0  0  0
 47 21  1  0  0  0  0
 48 23  1  0  0  0  0
 52 27  1  0  0  0  0
 54 27  1  0  0  0  0
 55 28  1  0  0  0  0
 56 29  1  0  0  0  0
M  END
>  <Pose>
1

>  <Score>
-5.18

$$$$
