
 OpenBabel03232203513D

 46 49  0  0  0  0  0  0  0  0999 V2000
   -2.2210   10.7720  -13.5120 Cl  0  0  0  0  0  0  0  0  0  0  0  0
   -0.8930    9.6260  -13.4100 C   0  0  0  0  0  0  0  0  0  0  0  0
    0.3890   10.0620  -13.7320 C   0  0  0  0  0  0  0  0  0  0  0  0
    1.4350    9.1530  -13.6480 C   0  0  0  0  0  0  0  0  0  0  0  0
    1.1460    7.8480  -13.2440 C   0  0  0  0  0  0  0  0  0  0  0  0
   -0.1170    7.4360  -12.9330 C   0  0  0  0  0  0  0  0  0  0  0  0
   -1.1450    8.3250  -13.0140 C   0  0  0  0  0  0  0  0  0  0  0  0
    2.2960    7.2460  -13.2630 O   0  0  0  0  0  0  0  0  0  0  0  0
    3.2610    8.0470  -13.6380 C   0  0  0  0  0  0  0  0  0  0  0  0
    4.4660    7.6920  -13.7340 O   0  0  0  0  0  0  0  0  0  0  0  0
    2.7440    9.2630  -13.8880 N   0  0  0  0  0  0  0  0  0  0  0  0
    3.5150   10.3920  -14.3220 C   0  0  0  0  0  0  0  0  0  0  0  0
    3.4000   11.5080  -13.3430 C   0  0  0  0  0  0  0  0  0  0  0  0
    4.3340   11.8500  -12.4400 N   0  0  0  0  0  0  0  0  0  0  0  0
    3.9200   12.8470  -11.7100 O   0  0  0  0  0  0  0  0  0  0  0  0
    2.7130   13.1630  -12.1340 C   0  0  0  0  0  0  0  0  0  0  0  0
    2.3770   12.3490  -13.1390 N   0  0  0  0  0  0  0  0  0  0  0  0
    1.9300   14.2790  -11.5060 C   0  0  0  0  0  0  0  0  0  0  0  0
    2.4640   14.6370  -10.4000 O   0  0  0  0  0  0  0  0  0  0  0  0
    0.8310   14.7650  -12.1110 N   0  0  0  0  0  0  0  0  0  0  0  0
   -0.3050   15.2680  -12.7170 C   0  0  0  0  0  0  0  0  0  0  0  0
   -0.3950   16.7980  -12.6720 C   0  0  0  0  0  0  0  0  0  0  0  0
   -1.6360   17.3090  -12.2440 N   0  0  0  0  0  0  0  0  0  0  0  0
   -2.4790   17.5920  -13.3390 C   0  0  0  0  0  0  0  0  0  0  0  0
   -3.4830   18.6580  -13.0510 C   0  0  0  0  0  0  0  0  0  0  0  0
   -3.9800   18.4730  -11.7870 O   0  0  0  0  0  0  0  0  0  0  0  0
   -3.0530   18.6760  -10.7830 C   0  0  0  0  0  0  0  0  0  0  0  0
   -1.6960   18.1220  -11.1000 C   0  0  0  0  0  0  0  0  0  0  0  0
    0.6240   11.0560  -14.0370 H   0  0  0  0  0  0  0  0  0  0  0  0
   -0.2890    6.4060  -12.6180 H   0  0  0  0  0  0  0  0  0  0  0  0
   -2.1550    7.9940  -12.7650 H   0  0  0  0  0  0  0  0  0  0  0  0
    3.1700   10.6870  -15.3290 H   0  0  0  0  0  0  0  0  0  0  0  0
    4.5950   10.1520  -14.4390 H   0  0  0  0  0  0  0  0  0  0  0  0
    0.2700   15.0040  -10.8820 H   0  0  0  0  0  0  0  0  0  0  0  0
   -1.2380   14.9460  -12.1620 H   0  0  0  0  0  0  0  0  0  0  0  0
   -0.4660   14.9980  -13.7740 H   0  0  0  0  0  0  0  0  0  0  0  0
   -0.1530   17.2600  -13.6530 H   0  0  0  0  0  0  0  0  0  0  0  0
    0.3940   17.1220  -11.9690 H   0  0  0  0  0  0  0  0  0  0  0  0
   -1.8920   17.8260  -14.2530 H   0  0  0  0  0  0  0  0  0  0  0  0
   -3.0790   16.6710  -13.6110 H   0  0  0  0  0  0  0  0  0  0  0  0
   -3.0720   19.6780  -13.1820 H   0  0  0  0  0  0  0  0  0  0  0  0
   -4.3720   18.5550  -13.7450 H   0  0  0  0  0  0  0  0  0  0  0  0
   -3.4770   18.2510   -9.8390 H   0  0  0  0  0  0  0  0  0  0  0  0
   -2.9590   19.7660  -10.6250 H   0  0  0  0  0  0  0  0  0  0  0  0
   -1.3680   17.5730  -10.1650 H   0  0  0  0  0  0  0  0  0  0  0  0
   -0.9630   18.9440  -11.2180 H   0  0  0  0  0  0  0  0  0  0  0  0
  1  2  1  0  0  0  0
  2  7  1  0  0  0  0
  3  4  1  0  0  0  0
  3  2  2  0  0  0  0
  4  5  2  0  0  0  0
  5  6  1  0  0  0  0
  6 30  1  0  0  0  0
  7  6  2  0  0  0  0
  7 31  1  0  0  0  0
  8  5  1  0  0  0  0
  9  8  1  0  0  0  0
 10  9  2  0  0  0  0
 11  4  1  0  0  0  0
 11  9  1  0  0  0  0
 12 11  1  0  0  0  0
 12 13  1  0  0  0  0
 13 17  1  0  0  0  0
 13 14  2  0  0  0  0
 14 15  1  0  0  0  0
 16 15  1  0  0  0  0
 16 18  1  0  0  0  0
 17 16  2  0  0  0  0
 18 19  2  0  0  0  0
 20 18  1  0  0  0  0
 20 34  1  0  0  0  0
 21 22  1  0  0  0  0
 21 35  1  0  0  0  0
 21 20  1  0  0  0  0
 22 23  1  0  0  0  0
 22 38  1  0  0  0  0
 23 28  1  0  0  0  0
 24 25  1  0  0  0  0
 24 23  1  0  0  0  0
 25 26  1  0  0  0  0
 26 27  1  0  0  0  0
 27 44  1  0  0  0  0
 27 43  1  0  0  0  0
 28 27  1  0  0  0  0
 28 45  1  0  0  0  0
 29  3  1  0  0  0  0
 32 12  1  0  0  0  0
 33 12  1  0  0  0  0
 36 21  1  0  0  0  0
 37 22  1  0  0  0  0
 39 24  1  0  0  0  0
 40 24  1  0  0  0  0
 41 25  1  0  0  0  0
 42 25  1  0  0  0  0
 46 28  1  0  0  0  0
M  END
>  <Pose>
1

>  <Score>
-7.66

$$$$
