
 OpenBabel03232203513D

 41 45  0  0  1  0  0  0  0  0999 V2000
   -4.5400   21.2570   -9.9370 Cl  0  0  0  0  0  0  0  0  0  0  0  0
   -3.4200   20.0220  -10.5210 C   0  0  0  0  0  0  0  0  0  0  0  0
   -2.2010   19.8160   -9.9220 C   0  0  0  0  0  0  0  0  0  0  0  0
   -1.3490   18.8370  -10.4030 C   0  0  0  0  0  0  0  0  0  0  0  0
   -1.6650   18.0400  -11.4770 C   0  0  0  0  0  0  0  0  0  0  0  0
   -2.8920   18.2450  -12.0810 C   0  0  0  0  0  0  0  0  0  0  0  0
   -3.7510   19.2290  -11.5970 C   0  0  0  0  0  0  0  0  0  0  0  0
   -0.7940   17.0240  -11.9820 N   0  0  0  0  0  0  0  0  0  0  0  0
    0.4470   16.5590  -11.4720 C   0  0  0  0  0  0  0  0  0  0  0  0
    0.9580   16.9050  -10.3740 O   0  0  0  0  0  0  0  0  0  0  0  0
    1.0760   15.5880  -12.4280 C   0  0  1  0  0  0  0  0  0  0  0  0
    1.3430   14.2770  -11.7670 C   0  0  2  0  0  0  0  0  0  0  0  0
    0.7700   13.3160  -12.6360 O   0  0  0  0  0  0  0  0  0  0  0  0
   -0.5170   13.9090  -12.6990 C   0  0  2  0  0  0  0  0  0  0  0  0
   -0.1130   15.2360  -13.3340 C   0  0  1  0  0  0  0  0  0  0  0  0
   -1.0970   16.2940  -13.1640 C   0  0  0  0  0  0  0  0  0  0  0  0
   -2.0530   16.5080  -13.9530 O   0  0  0  0  0  0  0  0  0  0  0  0
   -0.8180   14.0490  -11.2550 C   0  0  0  0  0  0  0  0  0  0  0  0
    0.3730   14.1580  -10.6310 C   0  0  0  0  0  0  0  0  0  0  0  0
   -1.5010   13.1370  -13.4740 C   0  0  0  0  0  0  0  0  0  0  0  0
    2.7340   13.9780  -11.4080 C   0  0  0  0  0  0  0  0  0  0  0  0
    2.7980   12.6670  -10.9310 O   0  0  0  0  0  0  0  0  0  0  0  0
    2.9910   11.8300  -12.0010 C   0  0  0  0  0  0  0  0  0  0  0  0
    3.7010   12.7160  -12.9910 C   0  0  0  0  0  0  0  0  0  0  0  0
    3.5300   14.0100  -12.5540 O   0  0  0  0  0  0  0  0  0  0  0  0
   -1.9240   20.4200   -9.0840 H   0  0  0  0  0  0  0  0  0  0  0  0
   -0.3720   18.6530   -9.9420 H   0  0  0  0  0  0  0  0  0  0  0  0
   -3.1820   17.6390  -12.9310 H   0  0  0  0  0  0  0  0  0  0  0  0
   -4.7100   19.3990  -12.0560 H   0  0  0  0  0  0  0  0  0  0  0  0
    1.9100   16.0170  -12.9820 H   0  0  0  0  0  0  0  0  0  0  0  0
    0.2000   15.0410  -14.3570 H   0  0  0  0  0  0  0  0  0  0  0  0
   -1.7570   14.0700  -10.7170 H   0  0  0  0  0  0  0  0  0  0  0  0
    0.6040   14.1650   -9.5790 H   0  0  0  0  0  0  0  0  0  0  0  0
   -1.6350   13.4770  -14.5270 H   0  0  0  0  0  0  0  0  0  0  0  0
   -2.5260   13.1590  -13.0080 H   0  0  0  0  0  0  0  0  0  0  0  0
   -1.2630   12.0430  -13.5500 H   0  0  0  0  0  0  0  0  0  0  0  0
    3.1320   14.7050  -10.7000 H   0  0  0  0  0  0  0  0  0  0  0  0
    3.6490   10.9860  -11.6440 H   0  0  0  0  0  0  0  0  0  0  0  0
    2.0850   11.3560  -12.3960 H   0  0  0  0  0  0  0  0  0  0  0  0
    3.2270   12.5220  -13.9870 H   0  0  0  0  0  0  0  0  0  0  0  0
    4.7750   12.3950  -12.9910 H   0  0  0  0  0  0  0  0  0  0  0  0
  2  1  1  0  0  0  0
  2  3  1  0  0  0  0
  3 26  1  0  0  0  0
  4 27  1  0  0  0  0
  4  3  2  0  0  0  0
  5  4  1  0  0  0  0
  6  7  1  0  0  0  0
  6  5  2  0  0  0  0
  7  2  2  0  0  0  0
  8  5  1  0  0  0  0
  8  9  1  0  0  0  0
  9 10  2  0  0  0  0
 11 30  1  6  0  0  0
 11 12  1  0  0  0  0
 11  9  1  0  0  0  0
 12 21  1  1  0  0  0
 12 19  1  0  0  0  0
 13 12  1  0  0  0  0
 14 20  1  6  0  0  0
 14 13  1  0  0  0  0
 14 18  1  0  0  0  0
 15 31  1  6  0  0  0
 15 16  1  0  0  0  0
 15 14  1  0  0  0  0
 15 11  1  0  0  0  0
 16  8  1  0  0  0  0
 17 16  2  0  0  0  0
 18 32  1  0  0  0  0
 18 19  2  0  0  0  0
 19 33  1  0  0  0  0
 20 35  1  0  0  0  0
 21 22  1  0  0  0  0
 21 37  1  0  0  0  0
 23 38  1  0  0  0  0
 23 22  1  0  0  0  0
 24 41  1  0  0  0  0
 24 25  1  0  0  0  0
 24 23  1  0  0  0  0
 25 21  1  0  0  0  0
 28  6  1  0  0  0  0
 29  7  1  0  0  0  0
 34 20  1  0  0  0  0
 36 20  1  0  0  0  0
 39 23  1  0  0  0  0
 40 24  1  0  0  0  0
M  END
>  <Pose>
1

>  <Score>
-4.03

$$$$
