
 OpenBabel03232203513D

 49 52  0  0  0  0  0  0  0  0999 V2000
  -10.5330   13.1010  -16.5700 Cl  0  0  0  0  0  0  0  0  0  0  0  0
   -9.3330   12.0540  -15.8030 C   0  0  0  0  0  0  0  0  0  0  0  0
   -8.7800   12.3940  -14.5960 C   0  0  0  0  0  0  0  0  0  0  0  0
   -7.8490   11.5280  -14.0670 C   0  0  0  0  0  0  0  0  0  0  0  0
   -7.4760   10.3550  -14.7190 C   0  0  0  0  0  0  0  0  0  0  0  0
   -8.0640   10.0550  -15.9400 C   0  0  0  0  0  0  0  0  0  0  0  0
   -8.9960   10.9120  -16.4800 C   0  0  0  0  0  0  0  0  0  0  0  0
   -6.5110    9.4790  -14.1480 N   0  0  0  0  0  0  0  0  0  0  0  0
   -5.6490    8.6330  -14.8670 C   0  0  0  0  0  0  0  0  0  0  0  0
   -6.1040    7.5210  -15.2490 O   0  0  0  0  0  0  0  0  0  0  0  0
   -4.3130    8.9530  -15.1800 N   0  0  0  0  0  0  0  0  0  0  0  0
   -3.7390   10.2190  -15.1890 N   0  0  0  0  0  0  0  0  0  0  0  0
   -3.2300   10.7380  -13.9750 C   0  0  0  0  0  0  0  0  0  0  0  0
   -4.0240   10.9300  -12.9990 O   0  0  0  0  0  0  0  0  0  0  0  0
   -1.8180   11.0480  -13.8700 C   0  0  0  0  0  0  0  0  0  0  0  0
   -0.8510   10.1720  -13.9960 N   0  0  0  0  0  0  0  0  0  0  0  0
    0.3920   10.7340  -13.8520 N   0  0  0  0  0  0  0  0  0  0  0  0
    0.1640   12.1220  -13.6070 C   0  0  0  0  0  0  0  0  0  0  0  0
    0.9640   13.1250  -13.3950 N   0  0  0  0  0  0  0  0  0  0  0  0
    0.4760   14.4400  -13.1750 N   0  0  0  0  0  0  0  0  0  0  0  0
   -0.8990   14.7330  -13.1730 C   0  0  0  0  0  0  0  0  0  0  0  0
   -1.3700   15.9570  -12.9770 C   0  0  0  0  0  0  0  0  0  0  0  0
   -1.8150   13.6210  -13.4060 C   0  0  0  0  0  0  0  0  0  0  0  0
   -3.0270   13.8560  -13.4070 O   0  0  0  0  0  0  0  0  0  0  0  0
   -1.2470   12.3280  -13.6180 N   0  0  0  0  0  0  0  0  0  0  0  0
    1.6430   10.0640  -13.9800 C   0  0  0  0  0  0  0  0  0  0  0  0
    2.7750   10.5340  -13.3610 C   0  0  0  0  0  0  0  0  0  0  0  0
    4.0070    9.8990  -13.4180 C   0  0  0  0  0  0  0  0  0  0  0  0
    4.1420    8.7230  -14.1290 C   0  0  0  0  0  0  0  0  0  0  0  0
    3.0190    8.2320  -14.7620 C   0  0  0  0  0  0  0  0  0  0  0  0
    1.7940    8.8930  -14.6870 C   0  0  0  0  0  0  0  0  0  0  0  0
    5.4410    7.9860  -14.1850 C   0  0  0  0  0  0  0  0  0  0  0  0
   -9.0640   13.3100  -14.0740 H   0  0  0  0  0  0  0  0  0  0  0  0
   -7.3780   11.7550  -13.1050 H   0  0  0  0  0  0  0  0  0  0  0  0
   -7.7510    9.1280  -16.4190 H   0  0  0  0  0  0  0  0  0  0  0  0
   -9.4520   10.6490  -17.4430 H   0  0  0  0  0  0  0  0  0  0  0  0
   -6.4680    9.4880  -13.0990 H   0  0  0  0  0  0  0  0  0  0  0  0
   -3.6300    8.1680  -15.4360 H   0  0  0  0  0  0  0  0  0  0  0  0
   -3.6950   10.7350  -16.0800 H   0  0  0  0  0  0  0  0  0  0  0  0
    1.2050   15.1720  -13.0150 H   0  0  0  0  0  0  0  0  0  0  0  0
   -0.7400   16.8130  -12.8070 H   0  0  0  0  0  0  0  0  0  0  0  0
   -2.4380   16.1440  -12.9910 H   0  0  0  0  0  0  0  0  0  0  0  0
    2.6760   11.4690  -12.7910 H   0  0  0  0  0  0  0  0  0  0  0  0
    4.8730   10.2970  -12.9210 H   0  0  0  0  0  0  0  0  0  0  0  0
    3.1410    7.3070  -15.3240 H   0  0  0  0  0  0  0  0  0  0  0  0
    0.9270    8.4810  -15.2010 H   0  0  0  0  0  0  0  0  0  0  0  0
    6.1680    8.4200  -14.8750 H   0  0  0  0  0  0  0  0  0  0  0  0
    5.3070    6.9240  -14.4290 H   0  0  0  0  0  0  0  0  0  0  0  0
    5.9120    7.9800  -13.1530 H   0  0  0  0  0  0  0  0  0  0  0  0
  1  2  1  0  0  0  0
  2  3  1  0  0  0  0
  3 33  1  0  0  0  0
  3  4  2  0  0  0  0
  4 34  1  0  0  0  0
  5  8  1  0  0  0  0
  5  4  1  0  0  0  0
  6  5  2  0  0  0  0
  7  6  1  0  0  0  0
  7  2  2  0  0  0  0
  8 37  1  0  0  0  0
  9  8  1  0  0  0  0
 10  9  2  0  0  0  0
 11  9  1  0  0  0  0
 12 11  1  0  0  0  0
 12 13  1  0  0  0  0
 13 15  1  0  0  0  0
 13 14  2  0  0  0  0
 15 25  1  0  0  0  0
 16 15  2  0  0  0  0
 16 17  1  0  0  0  0
 17 18  1  0  0  0  0
 18 19  2  0  0  0  0
 19 20  1  0  0  0  0
 20 21  1  0  0  0  0
 20 40  1  0  0  0  0
 21 22  2  0  0  0  0
 22 41  1  0  0  0  0
 23 21  1  0  0  0  0
 24 23  2  0  0  0  0
 25 18  1  0  0  0  0
 25 23  1  0  0  0  0
 26 17  1  0  0  0  0
 26 27  1  0  0  0  0
 27 43  1  0  0  0  0
 28 27  2  0  0  0  0
 28 44  1  0  0  0  0
 29 28  1  0  0  0  0
 30 31  1  0  0  0  0
 30 29  2  0  0  0  0
 31 26  2  0  0  0  0
 32 29  1  0  0  0  0
 32 49  1  0  0  0  0
 35  6  1  0  0  0  0
 36  7  1  0  0  0  0
 38 11  1  0  0  0  0
 39 12  1  0  0  0  0
 42 22  1  0  0  0  0
 45 30  1  0  0  0  0
 46 31  1  0  0  0  0
 47 32  1  0  0  0  0
 48 32  1  0  0  0  0
M  END
>  <Pose>
1

>  <Score>
-6.88

$$$$
