
 OpenBabel03232203513D

 54 57  0  0  0  0  0  0  0  0999 V2000
    8.2380    3.4800  -13.2630 B   0  0  0  0  0  0  0  0  0  0  0  0
    6.4110    4.0220  -13.2360 C   0  0  0  0  0  0  0  0  0  0  0  0
    6.0600    5.3450  -13.3880 C   0  0  0  0  0  0  0  0  0  0  0  0
    4.7430    5.7370  -13.3690 C   0  0  0  0  0  0  0  0  0  0  0  0
    3.7810    4.7660  -13.1940 C   0  0  0  0  0  0  0  0  0  0  0  0
    4.1230    3.4210  -13.0380 C   0  0  0  0  0  0  0  0  0  0  0  0
    5.4520    3.0320  -13.0580 C   0  0  0  0  0  0  0  0  0  0  0  0
    2.4570    5.1890  -13.1790 O   0  0  0  0  0  0  0  0  0  0  0  0
    1.8730    5.8980  -12.1110 C   0  0  0  0  0  0  0  0  0  0  0  0
    4.3590    7.1350  -13.5300 C   0  0  0  0  0  0  0  0  0  0  0  0
    4.3360    7.7300  -14.6620 N   0  0  0  0  0  0  0  0  0  0  0  0
    3.9720    9.0660  -14.8330 N   0  0  0  0  0  0  0  0  0  0  0  0
    2.8060    9.6270  -14.2430 C   0  0  0  0  0  0  0  0  0  0  0  0
    1.6480    8.9450  -14.1030 N   0  0  0  0  0  4  0  0  0  0  0  0
    0.5680    9.5020  -13.5430 C   0  0  0  0  0  0  0  0  0  0  0  0
    0.6530   10.7710  -13.1140 N   0  0  0  0  0  0  0  0  0  0  0  0
    1.7850   11.5160  -13.2230 C   0  0  0  0  0  0  0  0  0  0  0  0
    2.8430   10.8850  -13.8020 N   0  0  0  0  0  0  0  0  0  0  0  0
    1.8670   12.8460  -12.7710 N   0  0  0  0  0  0  0  0  0  0  0  0
    2.9380   13.2810  -11.9240 C   0  0  0  0  0  0  0  0  0  0  0  0
    2.3010   13.9450  -10.7050 C   0  0  0  0  0  0  0  0  0  0  0  0
    1.4780   14.9530  -11.1770 O   0  0  0  0  0  0  0  0  0  0  0  0
    0.3910   14.4790  -11.8720 C   0  0  0  0  0  0  0  0  0  0  0  0
    0.8660   13.7970  -13.1550 C   0  0  0  0  0  0  0  0  0  0  0  0
   -0.6490    8.7840  -13.3950 N   0  0  0  0  0  0  0  0  0  0  0  0
   -0.7400    7.3580  -13.6180 C   0  0  0  0  0  0  0  0  0  0  0  0
   -2.0040    6.9990  -14.3850 C   0  0  0  0  0  0  0  0  0  0  0  0
   -3.1060    7.6810  -13.8580 O   0  0  0  0  0  0  0  0  0  0  0  0
   -2.9570    9.0440  -13.9580 C   0  0  0  0  0  0  0  0  0  0  0  0
   -1.8600    9.4730  -13.0090 C   0  0  0  0  0  0  0  0  0  0  0  0
    6.8130    6.1300  -13.5280 H   0  0  0  0  0  0  0  0  0  0  0  0
    3.3440    2.6670  -12.9010 H   0  0  0  0  0  0  0  0  0  0  0  0
    5.6920    1.9900  -12.9380 H   0  0  0  0  0  0  0  0  0  0  0  0
    1.4380    5.1360  -11.4150 H   0  0  0  0  0  0  0  0  0  0  0  0
    2.5670    6.5910  -11.6110 H   0  0  0  0  0  0  0  0  0  0  0  0
    1.0120    6.4850  -12.5040 H   0  0  0  0  0  0  0  0  0  0  0  0
    4.0760    7.7130  -12.6620 H   0  0  0  0  0  0  0  0  0  0  0  0
    4.6130    9.6530  -15.4330 H   0  0  0  0  0  0  0  0  0  0  0  0
    3.5950   12.4270  -11.6140 H   0  0  0  0  0  0  0  0  0  0  0  0
    3.5280   14.0660  -12.4500 H   0  0  0  0  0  0  0  0  0  0  0  0
    3.1370   14.4100  -10.1460 H   0  0  0  0  0  0  0  0  0  0  0  0
    1.7870   13.2130  -10.0780 H   0  0  0  0  0  0  0  0  0  0  0  0
   -0.1670   13.6990  -11.3000 H   0  0  0  0  0  0  0  0  0  0  0  0
   -0.2600   15.3180  -12.1390 H   0  0  0  0  0  0  0  0  0  0  0  0
    0.0190   13.3410  -13.7000 H   0  0  0  0  0  0  0  0  0  0  0  0
    1.3490   14.6050  -13.7540 H   0  0  0  0  0  0  0  0  0  0  0  0
   -0.8780    6.8990  -12.5970 H   0  0  0  0  0  0  0  0  0  0  0  0
    0.1290    6.9460  -14.1400 H   0  0  0  0  0  0  0  0  0  0  0  0
   -1.8290    7.2280  -15.4440 H   0  0  0  0  0  0  0  0  0  0  0  0
   -2.2080    5.9150  -14.1950 H   0  0  0  0  0  0  0  0  0  0  0  0
   -2.7140    9.2950  -15.0110 H   0  0  0  0  0  0  0  0  0  0  0  0
   -3.9150    9.5170  -13.7240 H   0  0  0  0  0  0  0  0  0  0  0  0
   -2.1430    9.1360  -12.0070 H   0  0  0  0  0  0  0  0  0  0  0  0
   -1.7160   10.5650  -13.0050 H   0  0  0  0  0  0  0  0  0  0  0  0
  1  2  1  0  0  0  0
  2  7  1  0  0  0  0
  3  4  1  0  0  0  0
  3  2  2  0  0  0  0
  4  5  2  0  0  0  0
  5  8  1  0  0  0  0
  5  6  1  0  0  0  0
  6 32  1  0  0  0  0
  7  6  2  0  0  0  0
  7 33  1  0  0  0  0
  8  9  1  0  0  0  0
  9 35  1  0  0  0  0
  9 34  1  0  0  0  0
 10  4  1  0  0  0  0
 10 37  1  0  0  0  0
 11 10  2  0  0  0  0
 12 11  1  0  0  0  0
 12 13  1  0  0  0  0
 13 14  2  0  0  0  0
 13 18  1  0  0  0  0
 14 15  2  0  0  0  0
 15 25  1  0  0  0  0
 15 16  1  0  0  0  0
 17 16  2  0  0  0  0
 17 19  1  0  0  0  0
 18 17  1  0  0  0  0
 19 20  1  0  0  0  0
 20 39  1  0  0  0  0
 20 21  1  0  0  0  0
 21 41  1  0  0  0  0
 21 42  1  0  0  0  0
 22 21  1  0  0  0  0
 23 43  1  0  0  0  0
 23 22  1  0  0  0  0
 24 19  1  0  0  0  0
 24 23  1  0  0  0  0
 25 30  1  0  0  0  0
 26 25  1  0  0  0  0
 26 47  1  0  0  0  0
 27 50  1  0  0  0  0
 27 28  1  0  0  0  0
 27 26  1  0  0  0  0
 29 28  1  0  0  0  0
 29 52  1  0  0  0  0
 29 30  1  0  0  0  0
 30 54  1  0  0  0  0
 30 53  1  0  0  0  0
 31  3  1  0  0  0  0
 36  9  1  0  0  0  0
 38 12  1  0  0  0  0
 40 20  1  0  0  0  0
 44 23  1  0  0  0  0
 45 24  1  0  0  0  0
 46 24  1  0  0  0  0
 48 26  1  0  0  0  0
 49 27  1  0  0  0  0
 51 29  1  0  0  0  0
M  END
>  <Pose>
1

>  <Score>
-6.66

$$$$
