
 OpenBabel03232203513D

 38 41  0  0  1  0  0  0  0  0999 V2000
    0.8390    7.4860  -12.9860 B   0  0  0  0  0  0  0  0  0  0  0  0
   -0.3680    8.9290  -13.2840 C   0  0  0  0  0  0  0  0  0  0  0  0
    0.0770   10.2250  -13.4090 C   0  0  0  0  0  0  0  0  0  0  0  0
   -0.7850   11.3090  -13.6300 C   0  0  0  0  0  0  0  0  0  0  0  0
   -2.1160   11.0120  -13.7160 C   0  0  0  0  0  0  0  0  0  0  0  0
   -2.5590    9.6940  -13.5880 C   0  0  0  0  0  0  0  0  0  0  0  0
   -1.7020    8.6620  -13.3750 C   0  0  0  0  0  0  0  0  0  0  0  0
   -0.2430   12.6040  -13.7460 N   0  0  0  0  0  0  0  0  0  0  0  0
   -0.5870   13.7030  -12.9440 C   0  0  0  0  0  0  0  0  0  0  0  0
   -1.5140   13.7380  -12.1220 O   0  0  0  0  0  0  0  0  0  0  0  0
    0.2120   14.9720  -13.0590 C   0  0  2  0  0  0  0  0  0  0  0  0
   -0.1100   15.9950  -12.0010 C   0  0  0  0  0  0  0  0  0  0  0  0
   -1.0390   16.6840  -12.9090 N   0  0  2  0  0  0  0  0  0  0  0  0
   -0.3690   15.9920  -13.9950 C   0  0  0  0  0  0  0  0  0  0  0  0
   -2.1000   17.6110  -12.7130 C   0  0  1  0  0  0  0  0  0  0  0  0
   -3.1450   17.7060  -13.5760 N   0  0  0  0  0  0  0  0  0  0  0  0
   -4.1510   18.6040  -13.3650 C   0  0  0  0  0  0  0  0  0  0  0  0
   -4.1420   19.4170  -12.3040 N   0  0  0  0  0  0  0  0  0  0  0  0
   -3.1470   19.3780  -11.4170 C   0  0  0  0  0  0  0  0  0  0  0  0
   -2.9100   20.0780  -10.2900 N   0  0  0  0  0  0  0  0  0  0  0  0
   -1.7740   19.6260   -9.8040 N   0  0  0  0  0  0  0  0  0  0  0  0
   -1.2810   18.6590  -10.5870 N   0  0  0  0  0  0  0  0  0  0  0  0
   -2.1300   18.4700  -11.6320 C   0  0  0  0  0  0  0  0  0  0  0  0
   -3.7260   21.1330   -9.6960 C   0  0  0  0  0  0  0  0  0  0  0  0
    1.1420   10.4120  -13.3340 H   0  0  0  0  0  0  0  0  0  0  0  0
   -2.8580   11.7970  -13.8860 H   0  0  0  0  0  0  0  0  0  0  0  0
   -3.6400    9.5140  -13.6660 H   0  0  0  0  0  0  0  0  0  0  0  0
   -2.0710    7.6420  -13.2790 H   0  0  0  0  0  0  0  0  0  0  0  0
    0.5010   12.7420  -14.5240 H   0  0  0  0  0  0  0  0  0  0  0  0
    1.3000   14.8000  -13.1250 H   0  0  0  0  0  0  0  0  0  0  0  0
   -0.7000   15.6260  -11.1360 H   0  0  0  0  0  0  0  0  0  0  0  0
    0.7010   16.6770  -11.7300 H   0  0  0  0  0  0  0  0  0  0  0  0
   -1.0520   15.5380  -14.7440 H   0  0  0  0  0  0  0  0  0  0  0  0
    0.3630   16.6610  -14.4680 H   0  0  0  0  0  0  0  0  0  0  0  0
   -4.9480   18.6230  -14.0920 H   0  0  0  0  0  0  0  0  0  0  0  0
   -3.6090   21.1680   -8.6010 H   0  0  0  0  0  0  0  0  0  0  0  0
   -4.8230   20.9280   -9.8720 H   0  0  0  0  0  0  0  0  0  0  0  0
   -3.5280   22.1120  -10.1350 H   0  0  0  0  0  0  0  0  0  0  0  0
  2  1  1  0  0  0  0
  3 25  1  0  0  0  0
  3  2  2  0  0  0  0
  4  3  1  0  0  0  0
  5  4  2  0  0  0  0
  5  6  1  0  0  0  0
  6  7  2  0  0  0  0
  7  2  1  0  0  0  0
  7 28  1  0  0  0  0
  8  4  1  0  0  0  0
  8  9  1  0  0  0  0
  9 10  2  0  0  0  0
 11 30  1  6  0  0  0
 11  9  1  0  0  0  0
 11 12  1  0  0  0  0
 12 32  1  0  0  0  0
 12 31  1  0  0  0  0
 13 14  1  6  0  0  0
 13 15  1  0  0  0  0
 13 12  1  0  0  0  0
 14 11  1  0  0  0  0
 15 16  1  1  0  0  0
 15 23  1  0  0  0  0
 16 17  2  0  0  0  0
 17 18  1  0  0  0  0
 18 19  1  0  0  0  0
 19 20  1  0  0  0  0
 20 21  1  0  0  0  0
 20 24  1  0  0  0  0
 22 21  2  0  0  0  0
 23 19  2  0  0  0  0
 23 22  1  0  0  0  0
 24 36  1  0  0  0  0
 26  5  1  0  0  0  0
 27  6  1  0  0  0  0
 29  8  1  0  0  0  0
 33 14  1  0  0  0  0
 34 14  1  0  0  0  0
 35 17  1  0  0  0  0
 37 24  1  0  0  0  0
 38 24  1  0  0  0  0
M  END
>  <Pose>
1

>  <Score>
-7.22

$$$$
