
 OpenBabel03232203513D

 48 52  0  0  1  0  0  0  0  0999 V2000
   -0.7650    6.9030  -14.0200 Cl  0  0  0  0  0  0  0  0  0  0  0  0
   -0.4630    8.6180  -13.7280 C   0  0  0  0  0  0  0  0  0  0  0  0
    0.8230    9.0520  -13.4960 C   0  0  0  0  0  0  0  0  0  0  0  0
    1.0920   10.3790  -13.2650 C   0  0  0  0  0  0  0  0  0  0  0  0
    0.0840   11.3220  -13.2580 C   0  0  0  0  0  0  0  0  0  0  0  0
   -1.1970   10.8700  -13.4910 C   0  0  0  0  0  0  0  0  0  0  0  0
   -1.4820    9.5440  -13.7240 C   0  0  0  0  0  0  0  0  0  0  0  0
    0.4240   12.6780  -13.0140 N   0  0  0  0  0  0  0  0  0  0  0  0
    1.7490   13.1410  -12.7730 C   0  0  0  0  0  0  0  0  0  0  0  0
    2.0300   14.4040  -12.5510 C   0  0  0  0  0  0  0  0  0  0  0  0
    1.0790   15.4590  -12.5180 N   0  0  0  0  0  0  0  0  0  0  0  0
    0.6410   16.0130  -13.7770 C   0  0  0  0  0  0  0  0  0  0  0  0
   -0.8660   16.0070  -13.7950 C   0  0  0  0  0  0  0  0  0  0  0  0
   -1.4560   16.4780  -12.5580 N   0  0  1  0  0  0  0  0  0  0  0  0
   -0.9730   15.9360  -11.3040 C   0  0  0  0  0  0  0  0  0  0  0  0
    0.5310   16.0120  -11.3000 C   0  0  0  0  0  0  0  0  0  0  0  0
   -2.4940   17.4600  -12.5910 C   0  0  2  0  0  0  0  0  0  0  0  0
   -3.3180   17.4970  -13.6570 N   0  0  0  0  0  0  0  0  0  0  0  0
   -4.3210   18.4170  -13.7290 C   0  0  0  0  0  0  0  0  0  0  0  0
   -4.5100   19.3120  -12.7350 N   0  0  0  0  0  0  0  0  0  0  0  0
   -3.7240   19.3250  -11.6530 C   0  0  0  0  0  0  0  0  0  0  0  0
   -3.6890   20.0850  -10.5440 N   0  0  0  0  0  0  0  0  0  0  0  0
   -2.6890   19.6500   -9.7980 N   0  0  0  0  0  0  0  0  0  0  0  0
   -2.0670   18.6050  -10.4140 C   0  0  0  0  0  0  0  0  0  0  0  0
   -2.7020   18.3760  -11.5940 C   0  0  0  0  0  0  0  0  0  0  0  0
   -4.5800   21.1970  -10.1970 C   0  0  0  0  0  0  0  0  0  0  0  0
    2.7920   12.1790  -12.7790 N   0  0  0  0  0  0  0  0  0  0  0  0
    2.4770   10.8280  -13.0190 C   0  0  0  0  0  0  0  0  0  0  0  0
    3.3610    9.9100  -13.0390 O   0  0  0  0  0  0  0  0  0  0  0  0
    1.6270    8.3140  -13.5010 H   0  0  0  0  0  0  0  0  0  0  0  0
   -2.0010   11.5880  -13.4900 H   0  0  0  0  0  0  0  0  0  0  0  0
   -2.4810    9.1910  -13.9060 H   0  0  0  0  0  0  0  0  0  0  0  0
   -0.3300   13.3970  -13.0060 H   0  0  0  0  0  0  0  0  0  0  0  0
    3.0650   14.6900  -12.3730 H   0  0  0  0  0  0  0  0  0  0  0  0
    0.9630   17.0660  -13.9120 H   0  0  0  0  0  0  0  0  0  0  0  0
    0.9780   15.3970  -14.6360 H   0  0  0  0  0  0  0  0  0  0  0  0
   -1.1520   16.7300  -14.6180 H   0  0  0  0  0  0  0  0  0  0  0  0
   -1.2980   15.0400  -14.1390 H   0  0  0  0  0  0  0  0  0  0  0  0
   -1.3570   16.6090  -10.4820 H   0  0  0  0  0  0  0  0  0  0  0  0
   -1.2840   14.8910  -11.1280 H   0  0  0  0  0  0  0  0  0  0  0  0
    0.9780   15.5630  -10.3940 H   0  0  0  0  0  0  0  0  0  0  0  0
    0.7840   17.1120  -11.3040 H   0  0  0  0  0  0  0  0  0  0  0  0
   -4.9620   18.4090  -14.6090 H   0  0  0  0  0  0  0  0  0  0  0  0
   -1.2190   18.0440  -10.0510 H   0  0  0  0  0  0  0  0  0  0  0  0
   -4.7780   21.2140   -9.1020 H   0  0  0  0  0  0  0  0  0  0  0  0
   -5.5770   21.0350  -10.6800 H   0  0  0  0  0  0  0  0  0  0  0  0
   -4.1260   22.1670  -10.4700 H   0  0  0  0  0  0  0  0  0  0  0  0
    3.7900   12.4400  -12.6110 H   0  0  0  0  0  0  0  0  0  0  0  0
  1  2  1  0  0  0  0
  2  7  2  0  0  0  0
  2  3  1  0  0  0  0
  3  4  2  0  0  0  0
  4  5  1  0  0  0  0
  4 28  1  0  0  0  0
  5  8  1  0  0  0  0
  6 31  1  0  0  0  0
  6  5  2  0  0  0  0
  7  6  1  0  0  0  0
  8 33  1  0  0  0  0
  8  9  1  0  0  0  0
  9 10  2  0  0  0  0
 10 11  1  0  0  0  0
 10 34  1  0  0  0  0
 11 16  1  0  0  0  0
 12 11  1  0  0  0  0
 13 12  1  0  0  0  0
 14 13  1  1  0  0  0
 14 15  1  0  0  0  0
 15 16  1  0  0  0  0
 15 40  1  0  0  0  0
 15 39  1  0  0  0  0
 16 41  1  0  0  0  0
 17 18  1  6  0  0  0
 17 14  1  0  0  0  0
 17 25  1  0  0  0  0
 19 18  2  0  0  0  0
 19 20  1  0  0  0  0
 20 21  1  0  0  0  0
 21 25  2  0  0  0  0
 21 22  1  0  0  0  0
 22 26  1  0  0  0  0
 22 23  1  0  0  0  0
 24 44  1  0  0  0  0
 24 23  2  0  0  0  0
 25 24  1  0  0  0  0
 26 45  1  0  0  0  0
 27  9  1  0  0  0  0
 27 48  1  0  0  0  0
 28 27  1  0  0  0  0
 29 28  2  0  0  0  0
 30  3  1  0  0  0  0
 32  7  1  0  0  0  0
 35 12  1  0  0  0  0
 36 12  1  0  0  0  0
 37 13  1  0  0  0  0
 38 13  1  0  0  0  0
 42 16  1  0  0  0  0
 43 19  1  0  0  0  0
 46 26  1  0  0  0  0
 47 26  1  0  0  0  0
M  END
>  <Pose>
1

>  <Score>
-6.85

$$$$
