
 OpenBabel03232203513D

 54 57  0  0  1  0  0  0  0  0999 V2000
    1.5620   10.8510  -13.6980 S   0  0  0  0  0  0  0  0  0  0  0  0
    0.8340   12.1540  -14.0540 O   0  0  0  0  0  0  0  0  0  0  0  0
    2.3930   10.5510  -14.9210 O   0  0  0  0  0  0  0  0  0  0  0  0
    2.4790   11.1490  -12.3180 N   0  0  0  0  0  0  0  0  0  0  0  0
    1.9390   12.2850  -11.5420 C   0  0  0  0  0  0  0  0  0  0  0  0
    2.1100   13.5040  -12.3700 C   0  0  2  0  0  0  0  0  0  0  0  0
    3.3010   13.7300  -12.9540 O   0  0  0  0  0  0  0  0  0  0  0  0
    4.1950   12.7380  -13.0780 C   0  0  0  0  0  0  0  0  0  0  0  0
    3.8610   11.4300  -12.4480 C   0  0  0  0  0  0  0  0  0  0  0  0
    1.7620   14.6700  -11.5070 C   0  0  0  0  0  0  0  0  0  0  0  0
    2.1410   14.6300  -10.3070 O   0  0  0  0  0  0  0  0  0  0  0  0
    1.0450   15.8030  -11.9370 N   0  0  0  0  0  0  0  0  0  0  0  0
    0.8210   16.9840  -11.1250 C   0  0  0  0  0  0  0  0  0  0  0  0
    0.1180   18.0030  -12.0000 C   0  0  0  0  0  0  0  0  0  0  0  0
   -1.1680   17.5350  -12.4820 N   0  0  0  0  0  0  0  0  0  0  0  0
   -1.0210   16.2270  -13.0360 C   0  0  0  0  0  0  0  0  0  0  0  0
    0.4510   15.8740  -13.2810 C   0  0  0  0  0  0  0  0  0  0  0  0
   -2.1130   17.6450  -11.4180 C   0  0  0  0  0  0  0  0  0  0  0  0
   -2.7830   18.9890  -11.3340 C   0  0  0  0  0  0  0  0  0  0  0  0
   -2.5130   19.7140  -10.0170 C   0  0  0  0  0  0  0  0  0  0  0  0
   -3.8850   19.2660  -10.4110 C   0  0  0  0  0  0  0  0  0  0  0  0
    0.3130    9.6690  -13.4690 C   0  0  0  0  0  0  0  0  0  0  0  0
    0.5980    8.3310  -13.3030 C   0  0  0  0  0  0  0  0  0  0  0  0
   -0.3920    7.3760  -13.1790 C   0  0  0  0  0  0  0  0  0  0  0  0
   -1.7100    7.7580  -13.2170 C   0  0  0  0  0  0  0  0  0  0  0  0
   -2.0170    9.1010  -13.3810 C   0  0  0  0  0  0  0  0  0  0  0  0
   -1.0330   10.0410  -13.5050 C   0  0  0  0  0  0  0  0  0  0  0  0
    2.2770    7.7770  -13.1550 Cl  0  0  0  0  0  0  0  0  0  0  0  0
    2.5410   12.3640  -10.6380 H   0  0  0  0  0  0  0  0  0  0  0  0
    0.8860   12.1500  -11.2970 H   0  0  0  0  0  0  0  0  0  0  0  0
    1.3320   13.5330  -13.1970 H   0  0  0  0  0  0  0  0  0  0  0  0
    5.1730   13.0930  -12.6300 H   0  0  0  0  0  0  0  0  0  0  0  0
    4.4330   12.5720  -14.1440 H   0  0  0  0  0  0  0  0  0  0  0  0
    4.4070   10.5820  -12.8540 H   0  0  0  0  0  0  0  0  0  0  0  0
    4.2440   11.4830  -11.3630 H   0  0  0  0  0  0  0  0  0  0  0  0
    0.2530   16.7350  -10.2260 H   0  0  0  0  0  0  0  0  0  0  0  0
    1.7840   17.4540  -10.8380 H   0  0  0  0  0  0  0  0  0  0  0  0
   -0.0430   18.9280  -11.3740 H   0  0  0  0  0  0  0  0  0  0  0  0
    0.8070   18.2960  -12.7950 H   0  0  0  0  0  0  0  0  0  0  0  0
   -1.5090   16.1820  -14.0170 H   0  0  0  0  0  0  0  0  0  0  0  0
   -1.3940   15.4580  -12.3270 H   0  0  0  0  0  0  0  0  0  0  0  0
    0.4480   14.8390  -13.6770 H   0  0  0  0  0  0  0  0  0  0  0  0
    0.9520   16.6010  -13.9200 H   0  0  0  0  0  0  0  0  0  0  0  0
   -2.8310   16.8100  -11.4660 H   0  0  0  0  0  0  0  0  0  0  0  0
   -1.5470   17.5030  -10.4610 H   0  0  0  0  0  0  0  0  0  0  0  0
   -2.6890   19.6280  -12.2360 H   0  0  0  0  0  0  0  0  0  0  0  0
   -1.9900   19.1750   -9.2100 H   0  0  0  0  0  0  0  0  0  0  0  0
   -2.2780   20.7930  -10.0490 H   0  0  0  0  0  0  0  0  0  0  0  0
   -4.5870   20.0790  -10.6590 H   0  0  0  0  0  0  0  0  0  0  0  0
   -4.3230   18.5000   -9.7430 H   0  0  0  0  0  0  0  0  0  0  0  0
   -0.1700    6.3230  -13.0500 H   0  0  0  0  0  0  0  0  0  0  0  0
   -2.4740    7.0050  -13.1180 H   0  0  0  0  0  0  0  0  0  0  0  0
   -3.0650    9.3540  -13.4030 H   0  0  0  0  0  0  0  0  0  0  0  0
   -1.2570   11.0940  -13.6330 H   0  0  0  0  0  0  0  0  0  0  0  0
  1 22  1  0  0  0  0
  1  4  1  0  0  0  0
  2  1  2  0  0  0  0
  3  1  2  0  0  0  0
  4  5  1  0  0  0  0
  5 30  1  0  0  0  0
  5 29  1  0  0  0  0
  6 31  1  6  0  0  0
  6  5  1  0  0  0  0
  6 10  1  0  0  0  0
  7  6  1  0  0  0  0
  8  7  1  0  0  0  0
  8 32  1  0  0  0  0
  8  9  1  0  0  0  0
  9  4  1  0  0  0  0
  9 35  1  0  0  0  0
 10 11  2  0  0  0  0
 12 10  1  0  0  0  0
 12 13  1  0  0  0  0
 13 37  1  0  0  0  0
 13 36  1  0  0  0  0
 14 38  1  0  0  0  0
 14 13  1  0  0  0  0
 15 14  1  0  0  0  0
 15 18  1  0  0  0  0
 16 15  1  0  0  0  0
 16 41  1  0  0  0  0
 17 16  1  0  0  0  0
 17 12  1  0  0  0  0
 18 19  1  0  0  0  0
 18 45  1  0  0  0  0
 19 21  1  0  0  0  0
 19 20  1  0  0  0  0
 20 47  1  0  0  0  0
 21 20  1  0  0  0  0
 21 50  1  0  0  0  0
 22 23  1  0  0  0  0
 23 24  2  0  0  0  0
 23 28  1  0  0  0  0
 24 51  1  0  0  0  0
 25 24  1  0  0  0  0
 25 52  1  0  0  0  0
 26 25  2  0  0  0  0
 27 22  2  0  0  0  0
 27 26  1  0  0  0  0
 33  8  1  0  0  0  0
 34  9  1  0  0  0  0
 39 14  1  0  0  0  0
 40 16  1  0  0  0  0
 42 17  1  0  0  0  0
 43 17  1  0  0  0  0
 44 18  1  0  0  0  0
 46 19  1  0  0  0  0
 48 20  1  0  0  0  0
 49 21  1  0  0  0  0
 53 26  1  0  0  0  0
 54 27  1  0  0  0  0
M  END
>  <Pose>
1

>  <Score>
-4.92

$$$$
