
 OpenBabel03232203513D

 56 59  0  0  0  0  0  0  0  0999 V2000
    3.6640   13.2020  -11.8020 B   0  0  0  0  0  0  0  0  0  0  0  0
    1.9980   14.0470  -12.1740 C   0  0  0  0  0  0  0  0  0  0  0  0
    0.9360   13.2910  -12.7000 C   0  0  0  0  0  0  0  0  0  0  0  0
   -0.2350   13.9100  -12.9570 C   0  0  0  0  0  0  0  0  0  0  0  0
   -0.4150   15.2530  -12.7130 C   0  0  0  0  0  0  0  0  0  0  0  0
    0.6570   15.9880  -12.1840 C   0  0  0  0  0  0  0  0  0  0  0  0
    1.8710   15.3890  -11.9140 C   0  0  0  0  0  0  0  0  0  0  0  0
   -1.6360   15.8530  -12.9830 O   0  0  0  0  0  0  0  0  0  0  0  0
   -1.8740   17.2090  -13.1290 C   0  0  0  0  0  0  0  0  0  0  0  0
   -1.3870   13.1150  -13.4150 C   0  0  0  0  0  0  0  0  0  0  0  0
   -1.1930   11.7900  -13.4240 C   0  0  0  0  0  0  0  0  0  0  0  0
   -0.0040   11.1750  -13.0480 O   0  0  0  0  0  0  0  0  0  0  0  0
   -0.1650    9.7860  -13.1500 C   0  0  0  0  0  0  0  0  0  0  0  0
   -1.4070    9.4370  -13.5830 C   0  0  0  0  0  0  0  0  0  0  0  0
   -1.7840    8.1230  -13.7320 C   0  0  0  0  0  0  0  0  0  0  0  0
   -0.8820    7.1070  -13.4340 C   0  0  0  0  0  0  0  0  0  0  0  0
    0.3910    7.4720  -12.9920 C   0  0  0  0  0  0  0  0  0  0  0  0
    0.7590    8.7710  -12.8500 C   0  0  0  0  0  0  0  0  0  0  0  0
    2.1370    9.2310  -12.5740 C   0  0  0  0  0  0  0  0  0  0  0  0
    3.0160    9.0360  -13.6290 N   0  0  0  0  0  4  0  0  0  0  0  0
    4.0560   10.1110  -13.7030 C   0  0  0  0  0  0  0  0  0  0  0  0
    5.3880    9.3340  -13.8460 C   0  0  0  0  0  0  0  0  0  0  0  0
    5.1080    7.9820  -14.2150 N   0  0  0  0  0  0  0  0  0  0  0  0
    4.1920    7.8160  -15.2740 C   0  0  0  0  0  0  0  0  0  0  0  0
    2.8240    8.5410  -14.9100 C   0  0  0  0  0  0  0  0  0  0  0  0
    5.7180    6.9570  -13.5270 C   0  0  0  0  0  0  0  0  0  0  0  0
    7.2020    6.9380  -13.3490 C   0  0  0  0  0  0  0  0  0  0  0  0
    7.5760    7.5940  -12.1650 O   0  0  0  0  0  0  0  0  0  0  0  0
    1.2350    6.3960  -12.7160 O   0  0  0  0  0  0  0  0  0  0  0  0
   -2.1180   10.7350  -13.7820 C   0  0  0  0  0  0  0  0  0  0  0  0
   -3.2790   10.8850  -14.1830 O   0  0  0  0  0  0  0  0  0  0  0  0
    1.1430   12.2440  -12.8530 H   0  0  0  0  0  0  0  0  0  0  0  0
    0.5600   17.0430  -11.9800 H   0  0  0  0  0  0  0  0  0  0  0  0
    2.6900   16.0100  -11.5040 H   0  0  0  0  0  0  0  0  0  0  0  0
   -1.3080   17.7150  -13.9110 H   0  0  0  0  0  0  0  0  0  0  0  0
   -2.9610   17.3490  -13.3720 H   0  0  0  0  0  0  0  0  0  0  0  0
   -1.6950   17.7580  -12.1560 H   0  0  0  0  0  0  0  0  0  0  0  0
   -2.3030   13.5430  -13.7360 H   0  0  0  0  0  0  0  0  0  0  0  0
   -2.7900    7.8950  -14.0820 H   0  0  0  0  0  0  0  0  0  0  0  0
   -1.1970    6.0810  -13.5630 H   0  0  0  0  0  0  0  0  0  0  0  0
    2.0600   10.3390  -12.2850 H   0  0  0  0  0  0  0  0  0  0  0  0
    2.4690    8.7760  -11.6030 H   0  0  0  0  0  0  0  0  0  0  0  0
    3.6790    8.2460  -13.1270 H   0  0  0  0  0  0  0  0  0  0  0  0
    4.0370   10.7000  -12.7740 H   0  0  0  0  0  0  0  0  0  0  0  0
    3.8590   10.6940  -14.6150 H   0  0  0  0  0  0  0  0  0  0  0  0
    5.9930    9.8540  -14.6020 H   0  0  0  0  0  0  0  0  0  0  0  0
    5.8730    9.3780  -12.8760 H   0  0  0  0  0  0  0  0  0  0  0  0
    4.5620    8.3840  -16.1400 H   0  0  0  0  0  0  0  0  0  0  0  0
    4.0180    6.7970  -15.5470 H   0  0  0  0  0  0  0  0  0  0  0  0
    2.7030    9.4180  -15.6210 H   0  0  0  0  0  0  0  0  0  0  0  0
    2.0370    7.8310  -15.1360 H   0  0  0  0  0  0  0  0  0  0  0  0
    5.3020    6.9010  -12.4460 H   0  0  0  0  0  0  0  0  0  0  0  0
    5.4020    5.9470  -13.9300 H   0  0  0  0  0  0  0  0  0  0  0  0
    7.7990    7.3220  -14.1740 H   0  0  0  0  0  0  0  0  0  0  0  0
    7.5260    5.8610  -13.2140 H   0  0  0  0  0  0  0  0  0  0  0  0
    6.8420    8.2440  -11.9100 H   0  0  0  0  0  0  0  0  0  0  0  0
  2  7  1  0  0  0  0
  2  1  1  0  0  0  0
  3  2  2  0  0  0  0
  4  5  2  0  0  0  0
  4  3  1  0  0  0  0
  5  6  1  0  0  0  0
  6 33  1  0  0  0  0
  6  7  2  0  0  0  0
  7 34  1  0  0  0  0
  8  5  1  0  0  0  0
  9  8  1  0  0  0  0
  9 37  1  0  0  0  0
 10  4  1  0  0  0  0
 11 10  2  0  0  0  0
 11 12  1  0  0  0  0
 13 12  1  0  0  0  0
 13 18  1  0  0  0  0
 14 13  2  0  0  0  0
 15 14  1  0  0  0  0
 15 16  2  0  0  0  0
 16 17  1  0  0  0  0
 17 18  2  0  0  0  0
 17 29  1  0  0  0  0
 18 19  1  0  0  0  0
 19 41  1  0  0  0  0
 19 42  1  0  0  0  0
 20 43  1  0  0  0  0
 20 19  1  0  0  0  0
 21 20  1  0  0  0  0
 21 44  1  0  0  0  0
 22 21  1  0  0  0  0
 22 47  1  0  0  0  0
 23 22  1  0  0  0  0
 23 26  1  0  0  0  0
 24 25  1  0  0  0  0
 24 23  1  0  0  0  0
 25 20  1  0  0  0  0
 26 27  1  0  0  0  0
 26 52  1  0  0  0  0
 27 55  1  0  0  0  0
 27 28  1  0  0  0  0
 28 56  1  0  0  0  0
 30 14  1  0  0  0  0
 30 11  1  0  0  0  0
 31 30  2  0  0  0  0
 32  3  1  0  0  0  0
 35  9  1  0  0  0  0
 36  9  1  0  0  0  0
 38 10  1  0  0  0  0
 39 15  1  0  0  0  0
 40 16  1  0  0  0  0
 45 21  1  0  0  0  0
 46 22  1  0  0  0  0
 48 24  1  0  0  0  0
 49 24  1  0  0  0  0
 50 25  1  0  0  0  0
 51 25  1  0  0  0  0
 53 26  1  0  0  0  0
 54 27  1  0  0  0  0
M  END
>  <Pose>
1

>  <Score>
-5.27

$$$$
