
 OpenBabel03232203513D

 46 49  0  0  1  0  0  0  0  0999 V2000
   -0.8290    4.9830  -11.8160 Cl  0  0  0  0  0  0  0  0  0  0  0  0
   -0.4810    6.4890  -12.6360 C   0  0  0  0  0  0  0  0  0  0  0  0
    0.8520    6.7650  -12.9750 C   0  0  0  0  0  0  0  0  0  0  0  0
    1.1570    7.9360  -13.6180 C   0  0  0  0  0  0  0  0  0  0  0  0
    0.0960    8.8030  -13.9030 C   0  0  0  0  0  0  0  0  0  0  0  0
   -1.2090    8.5220  -13.5650 C   0  0  0  0  0  0  0  0  0  0  0  0
   -1.5210    7.3410  -12.9170 C   0  0  0  0  0  0  0  0  0  0  0  0
   -2.5250    9.6290  -13.9350 Cl  0  0  0  0  0  0  0  0  0  0  0  0
    2.5250    8.3070  -14.0100 C   0  0  2  0  0  0  0  0  0  0  0  0
    3.4890    7.2630  -13.6230 C   0  0  0  0  0  0  0  0  0  0  0  0
    3.1650    6.1070  -12.9850 C   0  0  0  0  0  0  0  0  0  0  0  0
    4.0990    5.1700  -12.6470 N   0  0  0  0  0  0  0  0  0  0  0  0
    5.3660    5.4230  -12.9640 C   0  0  0  0  0  0  0  0  0  0  0  0
    6.2720    4.5810  -12.6700 O   0  0  0  0  0  0  0  0  0  0  0  0
    5.7320    6.5570  -13.5970 N   0  0  0  0  0  0  0  0  0  0  0  0
    4.8250    7.4800  -13.9330 C   0  0  0  0  0  0  0  0  0  0  0  0
    5.1650    8.5380  -14.5230 O   0  0  0  0  0  0  0  0  0  0  0  0
    7.1350    6.7730  -13.9190 C   0  0  0  0  0  0  0  0  0  0  0  0
    3.7200    3.9500  -11.9670 C   0  0  0  0  0  0  0  0  0  0  0  0
    1.8560    5.8660  -12.6670 O   0  0  0  0  0  0  0  0  0  0  0  0
    2.9100    9.6460  -13.4530 C   0  0  0  0  0  0  0  0  0  0  0  0
    2.5210   10.0500  -12.1990 C   0  0  0  0  0  0  0  0  0  0  0  0
    2.8410   11.2450  -11.6780 N   0  0  0  0  0  0  0  0  0  0  0  0
    3.5800   12.0870  -12.4260 C   0  0  0  0  0  0  0  0  0  0  0  0
    3.8740   13.2110  -11.9250 O   0  0  0  0  0  0  0  0  0  0  0  0
    3.9820   11.7320  -13.6590 N   0  0  0  0  0  0  0  0  0  0  0  0
    3.6740   10.5430  -14.1970 C   0  0  0  0  0  0  0  0  0  0  0  0
    4.0350   10.1850  -15.3430 O   0  0  0  0  0  0  0  0  0  0  0  0
    4.7710   12.6700  -14.4230 C   0  0  0  0  0  0  0  0  0  0  0  0
    2.4180   11.6420  -10.3480 C   0  0  0  0  0  0  0  0  0  0  0  0
    1.7640    9.1870  -11.4340 O   0  0  0  0  0  0  0  0  0  0  0  0
    0.3310    9.7310  -14.4120 H   0  0  0  0  0  0  0  0  0  0  0  0
   -2.5310    7.0910  -12.6380 H   0  0  0  0  0  0  0  0  0  0  0  0
    2.6010    8.4110  -15.1310 H   0  0  0  0  0  0  0  0  0  0  0  0
    7.7520    5.9350  -13.4970 H   0  0  0  0  0  0  0  0  0  0  0  0
    7.5170    7.7420  -13.5620 H   0  0  0  0  0  0  0  0  0  0  0  0
    7.3270    6.7360  -15.0150 H   0  0  0  0  0  0  0  0  0  0  0  0
    2.6450    3.9840  -11.6600 H   0  0  0  0  0  0  0  0  0  0  0  0
    4.2920    3.8000  -11.0280 H   0  0  0  0  0  0  0  0  0  0  0  0
    3.8370    3.1060  -12.6710 H   0  0  0  0  0  0  0  0  0  0  0  0
    5.5350   12.1350  -15.0050 H   0  0  0  0  0  0  0  0  0  0  0  0
    5.2910   13.4050  -13.7730 H   0  0  0  0  0  0  0  0  0  0  0  0
    4.1120   13.3010  -15.0880 H   0  0  0  0  0  0  0  0  0  0  0  0
    3.3680   11.8120   -9.7590 H   0  0  0  0  0  0  0  0  0  0  0  0
    1.9030   12.6290  -10.3410 H   0  0  0  0  0  0  0  0  0  0  0  0
    1.8740   10.8490   -9.8320 H   0  0  0  0  0  0  0  0  0  0  0  0
  2  1  1  0  0  0  0
  3 20  1  0  0  0  0
  3  2  2  0  0  0  0
  4  3  1  0  0  0  0
  5  4  2  0  0  0  0
  5  6  1  0  0  0  0
  6  7  2  0  0  0  0
  7 33  1  0  0  0  0
  7  2  1  0  0  0  0
  8  6  1  0  0  0  0
  9 34  1  6  0  0  0
  9 10  1  0  0  0  0
  9  4  1  0  0  0  0
  9 21  1  0  0  0  0
 10 11  2  0  0  0  0
 11 20  1  0  0  0  0
 11 12  1  0  0  0  0
 12 19  1  0  0  0  0
 13 14  2  0  0  0  0
 13 12  1  0  0  0  0
 15 13  1  0  0  0  0
 16 10  1  0  0  0  0
 16 15  1  0  0  0  0
 17 16  2  0  0  0  0
 18 15  1  0  0  0  0
 18 36  1  0  0  0  0
 18 35  1  0  0  0  0
 19 38  1  0  0  0  0
 19 39  1  0  0  0  0
 21 22  1  0  0  0  0
 22 23  1  0  0  0  0
 22 31  2  0  0  0  0
 23 30  1  0  0  0  0
 24 25  2  0  0  0  0
 24 23  1  0  0  0  0
 26 24  1  0  0  0  0
 27 26  1  0  0  0  0
 27 21  1  0  0  0  0
 28 27  2  0  0  0  0
 29 42  1  0  0  0  0
 29 26  1  0  0  0  0
 30 45  1  0  0  0  0
 30 46  1  0  0  0  0
 30 44  1  0  0  0  0
 32  5  1  0  0  0  0
 37 18  1  0  0  0  0
 40 19  1  0  0  0  0
 41 29  1  0  0  0  0
 43 29  1  0  0  0  0
M  END
>  <Pose>
1

>  <Score>
-3.31

$$$$
