
 OpenBabel03232203513D

 51 55  0  0  1  0  0  0  0  0999 V2000
    4.5490    4.2010  -11.8370 Cl  0  0  0  0  0  0  0  0  0  0  0  0
    4.4690    5.6570  -12.8060 C   0  0  0  0  0  0  0  0  0  0  0  0
    3.3500    6.4420  -12.8560 C   0  0  0  0  0  0  0  0  0  0  0  0
    3.3290    7.5950  -13.6440 C   0  0  0  0  0  0  0  0  0  0  0  0
    4.4510    7.9060  -14.3520 C   0  0  0  0  0  0  0  0  0  0  0  0
    5.6020    7.1030  -14.3030 C   0  0  0  0  0  0  0  0  0  0  0  0
    5.6220    5.9740  -13.5330 C   0  0  0  0  0  0  0  0  0  0  0  0
    4.2130    9.1070  -15.0800 N   0  0  0  0  0  0  0  0  0  0  0  0
    2.9070    9.5620  -14.8220 C   0  0  0  0  0  0  0  0  0  0  0  0
    2.4050   10.6130  -15.3330 O   0  0  0  0  0  0  0  0  0  0  0  0
    2.2930    8.6120  -13.8880 C   0  0  1  0  0  0  0  0  0  0  0  0
    1.1610    7.9220  -14.4660 N   0  0  0  0  0  0  0  0  0  0  0  0
   -0.0330    8.2660  -13.7620 C   0  0  2  0  0  0  0  0  0  0  0  0
    0.3420    9.3760  -12.8620 C   0  0  1  0  0  0  0  0  0  0  0  0
    1.8210    9.2700  -12.6130 C   0  0  2  0  0  0  0  0  0  0  0  0
    2.2340   10.6870  -12.5140 C   0  0  0  0  0  0  0  0  0  0  0  0
    3.2760   11.1630  -11.9990 O   0  0  0  0  0  0  0  0  0  0  0  0
    1.2310   11.5310  -13.1210 N   0  0  0  0  0  0  0  0  0  0  0  0
    0.2230   10.6650  -13.6280 C   0  0  0  0  0  0  0  0  0  0  0  0
   -0.5880   10.9610  -14.5370 O   0  0  0  0  0  0  0  0  0  0  0  0
    1.2690   12.9760  -13.1900 C   0  0  0  0  0  0  0  0  0  0  0  0
    0.1710   13.6360  -12.4020 C   0  0  1  0  0  0  0  0  0  0  0  0
    0.7100   14.2410  -11.2690 O   0  0  0  0  0  0  0  0  0  0  0  0
    1.0120   15.5410  -11.6070 C   0  0  0  0  0  0  0  0  0  0  0  0
    0.0710   15.9700  -12.7110 C   0  0  0  0  0  0  0  0  0  0  0  0
   -0.5880   14.6770  -13.1470 C   0  0  0  0  0  0  0  0  0  0  0  0
   -0.6650    7.0870  -13.0720 C   0  0  0  0  0  0  0  0  0  0  0  0
    0.1400    6.4880  -12.0240 C   0  0  0  0  0  0  0  0  0  0  0  0
    0.5460    5.3120  -12.1380 O   0  0  0  0  0  0  0  0  0  0  0  0
    0.4790    7.2140  -10.8610 N   0  0  0  0  0  0  0  0  0  0  0  0
    2.4780    6.1980  -12.3040 H   0  0  0  0  0  0  0  0  0  0  0  0
    6.4510    7.3980  -14.8810 H   0  0  0  0  0  0  0  0  0  0  0  0
    6.5150    5.3690  -13.5070 H   0  0  0  0  0  0  0  0  0  0  0  0
    4.9010    9.6020  -15.7240 H   0  0  0  0  0  0  0  0  0  0  0  0
    1.2590    6.8830  -14.4390 H   0  0  0  0  0  0  0  0  0  0  0  0
   -0.7450    8.6730  -14.5400 H   0  0  0  0  0  0  0  0  0  0  0  0
   -0.2410    9.4510  -11.9210 H   0  0  0  0  0  0  0  0  0  0  0  0
    2.0750    8.6910  -11.7070 H   0  0  0  0  0  0  0  0  0  0  0  0
    2.2510   13.3420  -12.8260 H   0  0  0  0  0  0  0  0  0  0  0  0
    1.2090   13.2960  -14.2670 H   0  0  0  0  0  0  0  0  0  0  0  0
   -0.5350   12.8570  -12.0490 H   0  0  0  0  0  0  0  0  0  0  0  0
    0.8300   16.1680  -10.7050 H   0  0  0  0  0  0  0  0  0  0  0  0
    2.0760   15.6900  -11.8830 H   0  0  0  0  0  0  0  0  0  0  0  0
   -0.7050   16.6370  -12.2980 H   0  0  0  0  0  0  0  0  0  0  0  0
    0.6210   16.4220  -13.5600 H   0  0  0  0  0  0  0  0  0  0  0  0
   -0.5890   14.5440  -14.2320 H   0  0  0  0  0  0  0  0  0  0  0  0
   -1.6790   14.6820  -12.8500 H   0  0  0  0  0  0  0  0  0  0  0  0
   -1.6170    7.4700  -12.6040 H   0  0  0  0  0  0  0  0  0  0  0  0
   -1.0090    6.3700  -13.8490 H   0  0  0  0  0  0  0  0  0  0  0  0
   -0.0990    7.0960   -9.9960 H   0  0  0  0  0  0  0  0  0  0  0  0
    1.2770    7.8740  -10.7950 H   0  0  0  0  0  0  0  0  0  0  0  0
  2  1  1  0  0  0  0
  3  2  1  0  0  0  0
  3 31  1  0  0  0  0
  4  3  2  0  0  0  0
  5  6  2  0  0  0  0
  5  4  1  0  0  0  0
  6  7  1  0  0  0  0
  7 33  1  0  0  0  0
  7  2  2  0  0  0  0
  8  9  1  0  0  0  0
  8  5  1  0  0  0  0
 10  9  2  0  0  0  0
 11  9  1  6  0  0  0
 11  4  1  0  0  0  0
 11 15  1  0  0  0  0
 12 35  1  0  0  0  0
 12 11  1  0  0  0  0
 12 13  1  0  0  0  0
 13 36  1  6  0  0  0
 13 27  1  0  0  0  0
 13 14  1  0  0  0  0
 14 15  1  0  0  0  0
 14 37  1  1  0  0  0
 15 16  1  0  0  0  0
 15 38  1  1  0  0  0
 16 17  2  0  0  0  0
 18 16  1  0  0  0  0
 19 18  1  0  0  0  0
 19 14  1  0  0  0  0
 20 19  2  0  0  0  0
 21 18  1  0  0  0  0
 21 39  1  0  0  0  0
 21 22  1  0  0  0  0
 22 41  1  1  0  0  0
 22 23  1  0  0  0  0
 24 23  1  0  0  0  0
 24 42  1  0  0  0  0
 25 44  1  0  0  0  0
 25 24  1  0  0  0  0
 26 47  1  0  0  0  0
 26 25  1  0  0  0  0
 26 22  1  0  0  0  0
 27 48  1  0  0  0  0
 27 28  1  0  0  0  0
 28 30  1  0  0  0  0
 29 28  2  0  0  0  0
 30 51  1  0  0  0  0
 30 50  1  0  0  0  0
 32  6  1  0  0  0  0
 34  8  1  0  0  0  0
 40 21  1  0  0  0  0
 43 24  1  0  0  0  0
 45 25  1  0  0  0  0
 46 26  1  0  0  0  0
 49 27  1  0  0  0  0
M  END
>  <Pose>
1

>  <Score>
-5.55

$$$$
