
 OpenBabel03232203513D

 45 49  0  0  0  0  0  0  0  0999 V2000
   -8.0550   23.7120   -8.6920 Cl  0  0  0  0  0  0  0  0  0  0  0  0
   -6.7930   22.6300   -9.1920 C   0  0  0  0  0  0  0  0  0  0  0  0
   -5.5420   22.7380   -8.6390 C   0  0  0  0  0  0  0  0  0  0  0  0
   -4.5370   21.8820   -9.0330 C   0  0  0  0  0  0  0  0  0  0  0  0
   -4.7460   20.9060   -9.9790 C   0  0  0  0  0  0  0  0  0  0  0  0
   -6.0110   20.8220  -10.5170 C   0  0  0  0  0  0  0  0  0  0  0  0
   -7.0320   21.6720  -10.1340 C   0  0  0  0  0  0  0  0  0  0  0  0
   -3.7520   19.9960  -10.4240 N   0  0  0  0  0  0  0  0  0  0  0  0
   -2.6390   19.6510   -9.8000 N   0  0  0  0  0  0  0  0  0  0  0  0
   -1.9370   18.7790  -10.4980 N   0  0  0  0  0  0  0  0  0  0  0  0
   -2.5840   18.5100  -11.6450 C   0  0  0  0  0  0  0  0  0  0  0  0
   -3.7240   19.2850  -11.5790 C   0  0  0  0  0  0  0  0  0  0  0  0
   -4.5890   19.2200  -12.6170 N   0  0  0  0  0  0  0  0  0  0  0  0
   -4.3100   18.4160  -13.6600 C   0  0  0  0  0  0  0  0  0  0  0  0
   -3.1880   17.6560  -13.7170 N   0  0  0  0  0  0  0  0  0  0  0  0
   -2.2950   17.6830  -12.7110 C   0  0  0  0  0  0  0  0  0  0  0  0
   -1.1080   16.8910  -12.7560 N   0  0  0  0  0  0  0  0  0  0  0  0
   -0.8990   15.9760  -11.6490 C   0  0  0  0  0  0  0  0  0  0  0  0
    0.0050   14.8180  -12.0640 C   0  0  0  0  0  0  0  0  0  0  0  0
    1.0120   15.2420  -12.9680 N   0  0  0  0  0  0  0  0  0  0  0  0
    0.4580   15.7600  -14.2570 C   0  0  0  0  0  0  0  0  0  0  0  0
   -0.2300   17.0560  -13.8720 C   0  0  0  0  0  0  0  0  0  0  0  0
    2.3790   15.2220  -12.7530 C   0  0  0  0  0  0  0  0  0  0  0  0
    3.0350   16.2040  -13.3480 O   0  0  0  0  0  0  0  0  0  0  0  0
    3.2510   14.3340  -11.9980 C   0  0  0  0  0  0  0  0  0  0  0  0
    2.6410   13.2290  -11.2210 C   0  0  0  0  0  0  0  0  0  0  0  0
    3.6320   12.9660  -12.3310 C   0  0  0  0  0  0  0  0  0  0  0  0
   -5.3840   23.5200   -7.8860 H   0  0  0  0  0  0  0  0  0  0  0  0
   -3.5670   21.9950   -8.5770 H   0  0  0  0  0  0  0  0  0  0  0  0
   -6.2060   20.0560  -11.2690 H   0  0  0  0  0  0  0  0  0  0  0  0
   -8.0090   21.5350  -10.6130 H   0  0  0  0  0  0  0  0  0  0  0  0
   -5.0180   18.3700  -14.4970 H   0  0  0  0  0  0  0  0  0  0  0  0
   -0.5110   16.5250  -10.7730 H   0  0  0  0  0  0  0  0  0  0  0  0
   -1.8650   15.5260  -11.3460 H   0  0  0  0  0  0  0  0  0  0  0  0
   -0.6600   14.1090  -12.6740 H   0  0  0  0  0  0  0  0  0  0  0  0
    0.2600   14.2610  -11.1880 H   0  0  0  0  0  0  0  0  0  0  0  0
    1.2520   15.9280  -14.9800 H   0  0  0  0  0  0  0  0  0  0  0  0
   -0.3060   15.0550  -14.5860 H   0  0  0  0  0  0  0  0  0  0  0  0
    0.5920   17.7930  -13.6910 H   0  0  0  0  0  0  0  0  0  0  0  0
   -0.7800   17.4080  -14.7700 H   0  0  0  0  0  0  0  0  0  0  0  0
    4.0820   14.9050  -11.4280 H   0  0  0  0  0  0  0  0  0  0  0  0
    1.5740   12.9830  -11.3180 H   0  0  0  0  0  0  0  0  0  0  0  0
    3.0030   13.0090  -10.1820 H   0  0  0  0  0  0  0  0  0  0  0  0
    4.6720   12.6300  -11.9950 H   0  0  0  0  0  0  0  0  0  0  0  0
    3.2870   12.3530  -13.1510 H   0  0  0  0  0  0  0  0  0  0  0  0
  2  1  1  0  0  0  0
  2  3  1  0  0  0  0
  3 28  1  0  0  0  0
  4  3  2  0  0  0  0
  4 29  1  0  0  0  0
  5  4  1  0  0  0  0
  6  7  1  0  0  0  0
  6  5  2  0  0  0  0
  7  2  2  0  0  0  0
  8  5  1  0  0  0  0
  8  9  1  0  0  0  0
 10  9  2  0  0  0  0
 11 12  2  0  0  0  0
 11 10  1  0  0  0  0
 12  8  1  0  0  0  0
 13 12  1  0  0  0  0
 14 13  2  0  0  0  0
 15 14  1  0  0  0  0
 15 16  2  0  0  0  0
 16 11  1  0  0  0  0
 17 16  1  0  0  0  0
 17 18  1  0  0  0  0
 18 34  1  0  0  0  0
 18 33  1  0  0  0  0
 19 18  1  0  0  0  0
 19 36  1  0  0  0  0
 20 23  1  0  0  0  0
 20 19  1  0  0  0  0
 21 22  1  0  0  0  0
 21 20  1  0  0  0  0
 22 39  1  0  0  0  0
 22 17  1  0  0  0  0
 23 25  1  0  0  0  0
 24 23  2  0  0  0  0
 25 41  1  0  0  0  0
 25 26  1  0  0  0  0
 26 43  1  0  0  0  0
 27 25  1  0  0  0  0
 27 44  1  0  0  0  0
 27 26  1  0  0  0  0
 30  6  1  0  0  0  0
 31  7  1  0  0  0  0
 32 14  1  0  0  0  0
 35 19  1  0  0  0  0
 37 21  1  0  0  0  0
 38 21  1  0  0  0  0
 40 22  1  0  0  0  0
 42 26  1  0  0  0  0
 45 27  1  0  0  0  0
M  END
>  <Pose>
1

>  <Score>
-6.25

$$$$
