
 OpenBabel03232203513D

 41 44  0  0  1  0  0  0  0  0999 V2000
   -0.7160   12.7990  -13.4680 S   0  0  0  0  0  0  0  0  0  0  0  0
   -1.5060   12.5660  -12.2000 O   0  0  0  0  0  0  0  0  0  0  0  0
   -1.7060   12.8230  -14.5950 O   0  0  0  0  0  0  0  0  0  0  0  0
    0.1080   14.2450  -13.3500 N   0  0  0  0  0  0  0  0  0  0  0  0
    0.8760   14.5050  -12.2170 C   0  0  0  0  0  0  0  0  0  0  0  0
    0.8480   15.9510  -11.7820 C   0  0  0  0  0  0  0  0  0  0  0  0
   -0.3970   16.6590  -12.1610 C   0  0  2  0  0  0  0  0  0  0  0  0
   -0.9550   16.3310  -13.3730 C   0  0  0  0  0  0  0  0  0  0  0  0
   -2.0780   16.9200  -13.7990 N   0  0  0  0  0  0  0  0  0  0  0  0
   -2.6810   17.8690  -13.0110 C   0  0  1  0  0  0  0  0  0  0  0  0
   -2.1180   18.1790  -11.8250 N   0  0  0  0  0  0  0  0  0  0  0  0
   -2.8860   19.1150  -11.2600 N   0  0  0  0  0  0  0  0  0  0  0  0
   -3.9130   19.4050  -12.0490 C   0  0  0  0  0  0  0  0  0  0  0  0
   -3.8220   18.6210  -13.1970 C   0  0  0  0  0  0  0  0  0  0  0  0
   -0.9970   17.6210  -11.3490 C   0  0  0  0  0  0  0  0  0  0  0  0
   -0.4750   17.9100  -10.2460 O   0  0  0  0  0  0  0  0  0  0  0  0
   -0.2910   15.3070  -14.1960 C   0  0  0  0  0  0  0  0  0  0  0  0
    0.3060   11.3960  -13.6850 C   0  0  0  0  0  0  0  0  0  0  0  0
   -0.1940   10.1080  -13.7720 C   0  0  0  0  0  0  0  0  0  0  0  0
    0.6640    9.0330  -13.9440 C   0  0  0  0  0  0  0  0  0  0  0  0
    2.0280    9.1880  -14.0370 C   0  0  0  0  0  0  0  0  0  0  0  0
    2.5270   10.4690  -13.9510 C   0  0  0  0  0  0  0  0  0  0  0  0
    1.6750   11.5380  -13.7800 C   0  0  0  0  0  0  0  0  0  0  0  0
    2.8780    8.0840  -14.2130 O   0  0  0  0  0  0  0  0  0  0  0  0
    4.2260    8.2910  -14.5900 C   0  0  0  0  0  0  0  0  0  0  0  0
    0.0130    7.4090  -14.0520 Cl  0  0  0  0  0  0  0  0  0  0  0  0
    0.6320   13.8240  -11.3600 H   0  0  0  0  0  0  0  0  0  0  0  0
    1.9590   14.2880  -12.4630 H   0  0  0  0  0  0  0  0  0  0  0  0
    1.0790   16.0610  -10.7020 H   0  0  0  0  0  0  0  0  0  0  0  0
    1.6780   16.5150  -12.3010 H   0  0  0  0  0  0  0  0  0  0  0  0
   -2.7150   19.5630  -10.3310 H   0  0  0  0  0  0  0  0  0  0  0  0
   -4.6960   20.1120  -11.8720 H   0  0  0  0  0  0  0  0  0  0  0  0
   -4.5040   18.6320  -14.0150 H   0  0  0  0  0  0  0  0  0  0  0  0
   -0.9200   14.9150  -15.0030 H   0  0  0  0  0  0  0  0  0  0  0  0
    0.6460   15.7900  -14.6020 H   0  0  0  0  0  0  0  0  0  0  0  0
   -1.2700    9.9970  -13.6980 H   0  0  0  0  0  0  0  0  0  0  0  0
    3.6150   10.6070  -14.0240 H   0  0  0  0  0  0  0  0  0  0  0  0
    2.0910   12.5420  -13.7150 H   0  0  0  0  0  0  0  0  0  0  0  0
    4.6400    9.0420  -13.8580 H   0  0  0  0  0  0  0  0  0  0  0  0
    4.8210    7.3670  -14.4030 H   0  0  0  0  0  0  0  0  0  0  0  0
    4.3210    8.6450  -15.6280 H   0  0  0  0  0  0  0  0  0  0  0  0
  1  4  1  0  0  0  0
  1  2  2  0  0  0  0
  3  1  2  0  0  0  0
  4  5  1  0  0  0  0
  5  6  1  0  0  0  0
  5 27  1  0  0  0  0
  6 29  1  0  0  0  0
  7  8  1  6  0  0  0
  7  6  1  0  0  0  0
  7 15  1  0  0  0  0
  9  8  2  0  0  0  0
 10  9  1  6  0  0  0
 10 11  1  0  0  0  0
 11 15  1  0  0  0  0
 11 12  1  0  0  0  0
 12 31  1  0  0  0  0
 13 32  1  0  0  0  0
 13 12  1  0  0  0  0
 14 10  1  0  0  0  0
 14 13  2  0  0  0  0
 15 16  2  0  0  0  0
 17  8  1  0  0  0  0
 17  4  1  0  0  0  0
 18  1  1  0  0  0  0
 19 36  1  0  0  0  0
 19 18  1  0  0  0  0
 20 19  2  0  0  0  0
 21 22  2  0  0  0  0
 21 20  1  0  0  0  0
 22 23  1  0  0  0  0
 23 38  1  0  0  0  0
 23 18  2  0  0  0  0
 24 21  1  0  0  0  0
 25 40  1  0  0  0  0
 25 24  1  0  0  0  0
 25 39  1  0  0  0  0
 26 20  1  0  0  0  0
 28  5  1  0  0  0  0
 30  6  1  0  0  0  0
 33 14  1  0  0  0  0
 34 17  1  0  0  0  0
 35 17  1  0  0  0  0
 37 22  1  0  0  0  0
 41 25  1  0  0  0  0
M  END
>  <Pose>
1

>  <Score>
-5.72

$$$$
