
 OpenBabel03232203513D

 41 43  0  0  1  0  0  0  0  0999 V2000
   -4.1490   20.5980  -10.1760 Cl  0  0  0  0  0  0  0  0  0  0  0  0
   -3.2980   19.4060  -11.1540 C   0  0  0  0  0  0  0  0  0  0  0  0
   -2.1340   18.8440  -10.6750 C   0  0  0  0  0  0  0  0  0  0  0  0
   -1.4830   17.9140  -11.4530 C   0  0  0  0  0  0  0  0  0  0  0  0
   -1.9470   17.5100  -12.7100 C   0  0  0  0  0  0  0  0  0  0  0  0
   -3.1000   18.0720  -13.1760 C   0  0  0  0  0  0  0  0  0  0  0  0
   -3.7760   19.0190  -12.3980 C   0  0  0  0  0  0  0  0  0  0  0  0
   -1.1740   16.5260  -13.4230 C   0  0  0  0  0  0  0  0  0  0  0  0
   -0.7650   16.7930  -14.5890 O   0  0  0  0  0  0  0  0  0  0  0  0
   -0.8860   15.2710  -12.8040 N   0  0  0  0  0  0  0  0  0  0  0  0
   -0.4540   14.1930  -13.6430 C   0  0  0  0  0  0  0  0  0  0  0  0
   -0.4000   12.8460  -13.0390 C   0  0  2  0  0  0  0  0  0  0  0  0
    0.8870   12.2350  -12.9080 N   0  0  1  0  0  0  0  0  0  0  0  0
    0.8370   11.5050  -11.6180 C   0  0  0  0  0  0  0  0  0  0  0  0
   -0.5010   10.7560  -11.6720 C   0  0  0  0  0  0  0  0  0  0  0  0
   -0.9580   10.5530  -13.0320 N   0  0  1  0  0  0  0  0  0  0  0  0
   -1.3090   11.8150  -13.6870 C   0  0  0  0  0  0  0  0  0  0  0  0
    0.1740   10.0370  -13.7820 C   0  0  0  0  0  0  0  0  0  0  0  0
    1.1680   11.1890  -13.8700 C   0  0  0  0  0  0  0  0  0  0  0  0
   -1.6490   19.2240   -9.4310 O   0  0  0  0  0  0  0  0  0  0  0  0
   -1.5870   18.3100   -8.3530 C   0  0  0  0  0  0  0  0  0  0  0  0
   -0.5660   17.4930  -11.0390 H   0  0  0  0  0  0  0  0  0  0  0  0
   -3.5150   17.8120  -14.1240 H   0  0  0  0  0  0  0  0  0  0  0  0
   -4.6870   19.4500  -12.7880 H   0  0  0  0  0  0  0  0  0  0  0  0
   -0.9970   15.1910  -11.7930 H   0  0  0  0  0  0  0  0  0  0  0  0
   -1.0700   14.1510  -14.5530 H   0  0  0  0  0  0  0  0  0  0  0  0
    0.5970   14.4460  -13.9640 H   0  0  0  0  0  0  0  0  0  0  0  0
   -0.8520   12.9680  -11.9970 H   0  0  0  0  0  0  0  0  0  0  0  0
    0.8090   12.2930  -10.8440 H   0  0  0  0  0  0  0  0  0  0  0  0
    1.6880   10.8250  -11.5450 H   0  0  0  0  0  0  0  0  0  0  0  0
   -0.2750    9.7470  -11.2670 H   0  0  0  0  0  0  0  0  0  0  0  0
   -1.2380   11.2320  -11.0170 H   0  0  0  0  0  0  0  0  0  0  0  0
   -1.1380   11.6870  -14.7560 H   0  0  0  0  0  0  0  0  0  0  0  0
   -2.3710   12.0650  -13.4690 H   0  0  0  0  0  0  0  0  0  0  0  0
   -0.2030    9.7890  -14.7930 H   0  0  0  0  0  0  0  0  0  0  0  0
    0.5550    9.1720  -13.2280 H   0  0  0  0  0  0  0  0  0  0  0  0
    1.3440   11.5150  -14.8880 H   0  0  0  0  0  0  0  0  0  0  0  0
    2.1430   10.7270  -13.5140 H   0  0  0  0  0  0  0  0  0  0  0  0
   -0.8860   17.5050   -8.6600 H   0  0  0  0  0  0  0  0  0  0  0  0
   -2.5810   17.8150   -8.1940 H   0  0  0  0  0  0  0  0  0  0  0  0
   -1.2180   18.8220   -7.4650 H   0  0  0  0  0  0  0  0  0  0  0  0
  2  3  1  0  0  0  0
  2  1  1  0  0  0  0
  3 20  1  0  0  0  0
  4 22  1  0  0  0  0
  4  3  2  0  0  0  0
  5  4  1  0  0  0  0
  6  5  2  0  0  0  0
  6  7  1  0  0  0  0
  7  2  2  0  0  0  0
  8 10  1  0  0  0  0
  8  5  1  0  0  0  0
  9  8  2  0  0  0  0
 10 25  1  0  0  0  0
 11 12  1  0  0  0  0
 11 10  1  0  0  0  0
 12 13  1  0  0  0  0
 12 28  1  1  0  0  0
 13 19  1  6  0  0  0
 13 14  1  0  0  0  0
 14 30  1  0  0  0  0
 14 29  1  0  0  0  0
 15 14  1  0  0  0  0
 15 31  1  0  0  0  0
 15 32  1  0  0  0  0
 16 18  1  6  0  0  0
 16 15  1  0  0  0  0
 17 34  1  0  0  0  0
 17 12  1  0  0  0  0
 17 16  1  0  0  0  0
 18 36  1  0  0  0  0
 19 18  1  0  0  0  0
 19 38  1  0  0  0  0
 20 21  1  0  0  0  0
 21 40  1  0  0  0  0
 21 41  1  0  0  0  0
 23  6  1  0  0  0  0
 24  7  1  0  0  0  0
 26 11  1  0  0  0  0
 27 11  1  0  0  0  0
 33 17  1  0  0  0  0
 35 18  1  0  0  0  0
 37 19  1  0  0  0  0
 39 21  1  0  0  0  0
M  END
>  <Pose>
1

>  <Score>
-4.91

$$$$
