
 OpenBabel03232203513D

 47 50  0  0  1  0  0  0  0  0999 V2000
   -3.8400    6.6440  -15.3010 Cl  0  0  0  0  0  0  0  0  0  0  0  0
   -2.4290    6.9060  -14.3070 C   0  0  0  0  0  0  0  0  0  0  0  0
   -2.0840    8.1510  -13.7970 C   0  0  0  0  0  0  0  0  0  0  0  0
   -0.9770    8.3340  -13.0220 C   0  0  0  0  0  0  0  0  0  0  0  0
   -0.1490    7.2720  -12.7160 C   0  0  0  0  0  0  0  0  0  0  0  0
   -0.4840    6.0390  -13.2170 C   0  0  0  0  0  0  0  0  0  0  0  0
   -1.6080    5.8550  -14.0030 C   0  0  0  0  0  0  0  0  0  0  0  0
    1.0070    7.4970  -11.8720 C   0  0  2  0  0  0  0  0  0  0  0  0
    2.0380    8.3530  -12.1890 N   0  0  0  0  0  4  0  0  0  0  0  0
    2.7770    7.6800  -13.2360 C   0  0  0  0  0  0  0  0  0  0  0  0
    3.3190    8.0250  -14.3590 C   0  0  0  0  0  0  0  0  0  0  0  0
    4.0330    7.0930  -15.2510 C   0  0  0  0  0  0  0  0  0  0  0  0
    4.0890    5.6780  -14.7950 C   0  0  0  0  0  0  0  0  0  0  0  0
    3.8890    5.4890  -13.3290 C   0  0  0  0  0  0  0  0  0  0  0  0
    2.8440    6.3360  -12.7940 N   0  0  0  0  0  0  0  0  0  0  0  0
    1.7580    6.1340  -11.8390 C   0  0  0  0  0  0  0  0  0  0  0  0
    1.8880    9.7120  -12.4160 C   0  0  0  0  0  0  0  0  0  0  0  0
    2.7260   10.7030  -12.0340 C   0  0  0  0  0  0  0  0  0  0  0  0
    2.4430   12.0310  -12.3500 C   0  0  0  0  0  0  0  0  0  0  0  0
    1.3120   12.4010  -13.0580 C   0  0  0  0  0  0  0  0  0  0  0  0
    0.4770   11.3710  -13.4340 C   0  0  0  0  0  0  0  0  0  0  0  0
    0.7270   10.0570  -13.1390 C   0  0  0  0  0  0  0  0  0  0  0  0
    1.0670   13.7330  -13.3510 O   0  0  0  0  0  0  0  0  0  0  0  0
    0.8080   14.6320  -12.3040 C   0  0  0  0  0  0  0  0  0  0  0  0
    0.5890    7.6480  -10.5190 O   0  0  0  0  0  0  0  0  0  0  0  0
   -2.7580    8.9770  -14.0560 H   0  0  0  0  0  0  0  0  0  0  0  0
   -0.7830    9.3500  -12.6630 H   0  0  0  0  0  0  0  0  0  0  0  0
    0.0820    5.1400  -13.0300 H   0  0  0  0  0  0  0  0  0  0  0  0
   -1.8700    4.8640  -14.3990 H   0  0  0  0  0  0  0  0  0  0  0  0
    2.7460    8.2870  -11.3680 H   0  0  0  0  0  0  0  0  0  0  0  0
    3.2620    9.0460  -14.7170 H   0  0  0  0  0  0  0  0  0  0  0  0
    5.0340    7.4970  -15.5450 H   0  0  0  0  0  0  0  0  0  0  0  0
    3.4530    7.1180  -16.2230 H   0  0  0  0  0  0  0  0  0  0  0  0
    5.1080    5.2820  -15.0710 H   0  0  0  0  0  0  0  0  0  0  0  0
    3.3250    5.0340  -15.3140 H   0  0  0  0  0  0  0  0  0  0  0  0
    4.8640    5.6840  -12.7980 H   0  0  0  0  0  0  0  0  0  0  0  0
    3.6260    4.4390  -13.0960 H   0  0  0  0  0  0  0  0  0  0  0  0
    2.2290    6.0050  -10.8440 H   0  0  0  0  0  0  0  0  0  0  0  0
    1.0990    5.3100  -12.1190 H   0  0  0  0  0  0  0  0  0  0  0  0
    3.6180   10.4450  -11.4860 H   0  0  0  0  0  0  0  0  0  0  0  0
    3.1600   12.7790  -12.0120 H   0  0  0  0  0  0  0  0  0  0  0  0
   -0.4110   11.6850  -13.9950 H   0  0  0  0  0  0  0  0  0  0  0  0
    0.0240    9.2870  -13.4830 H   0  0  0  0  0  0  0  0  0  0  0  0
   -0.1730   14.4190  -11.8340 H   0  0  0  0  0  0  0  0  0  0  0  0
    0.8980   15.6890  -12.6350 H   0  0  0  0  0  0  0  0  0  0  0  0
    1.5670   14.5410  -11.4740 H   0  0  0  0  0  0  0  0  0  0  0  0
   -0.3960    7.7530  -10.5570 H   0  0  0  0  0  0  0  0  0  0  0  0
  1  2  1  0  0  0  0
  2  7  2  0  0  0  0
  2  3  1  0  0  0  0
  3  4  2  0  0  0  0
  4  5  1  0  0  0  0
  4 27  1  0  0  0  0
  5  8  1  0  0  0  0
  6 28  1  0  0  0  0
  6  5  2  0  0  0  0
  7  6  1  0  0  0  0
  8 16  1  0  0  0  0
  8 25  1  1  0  0  0
  9  8  1  0  0  0  0
  9 30  1  0  0  0  0
 10 15  1  0  0  0  0
 10  9  1  0  0  0  0
 11 10  2  0  0  0  0
 12 13  1  0  0  0  0
 12 11  1  0  0  0  0
 13 14  1  0  0  0  0
 14 37  1  0  0  0  0
 14 36  1  0  0  0  0
 14 15  1  0  0  0  0
 15 16  1  0  0  0  0
 16 38  1  0  0  0  0
 17  9  1  0  0  0  0
 17 18  1  0  0  0  0
 18 40  1  0  0  0  0
 19 18  2  0  0  0  0
 19 41  1  0  0  0  0
 20 19  1  0  0  0  0
 21 22  1  0  0  0  0
 21 20  2  0  0  0  0
 22 17  2  0  0  0  0
 23 20  1  0  0  0  0
 23 24  1  0  0  0  0
 24 44  1  0  0  0  0
 24 46  1  0  0  0  0
 26  3  1  0  0  0  0
 29  7  1  0  0  0  0
 31 11  1  0  0  0  0
 32 12  1  0  0  0  0
 33 12  1  0  0  0  0
 34 13  1  0  0  0  0
 35 13  1  0  0  0  0
 39 16  1  0  0  0  0
 42 21  1  0  0  0  0
 43 22  1  0  0  0  0
 45 24  1  0  0  0  0
 47 25  1  0  0  0  0
M  END
>  <Pose>
1

>  <Score>
-3.62

$$$$
