
 OpenBabel03232203513D

 38 40  0  0  1  0  0  0  0  0999 V2000
    2.2710   15.3520  -11.4790 Cl  0  0  0  0  0  0  0  0  0  0  0  0
    1.5450   13.9680  -12.2670 C   0  0  0  0  0  0  0  0  0  0  0  0
    0.2010   13.9760  -12.5770 C   0  0  0  0  0  0  0  0  0  0  0  0
   -0.3010   12.8560  -13.2010 C   0  0  0  0  0  0  0  0  0  0  0  0
   -1.5220   12.7580  -13.5310 O   0  0  0  0  0  0  0  0  0  0  0  0
    0.5090   11.8230  -13.4780 N   0  0  0  0  0  0  0  0  0  0  0  0
    1.7970   11.7720  -13.2000 N   0  0  0  0  0  0  0  0  0  0  0  0
    2.6380   10.6310  -13.5180 C   0  0  1  0  0  0  0  0  0  0  0  0
    2.3620    9.4430  -12.6210 C   0  0  0  0  0  0  0  0  0  0  0  0
    1.1510    8.6720  -13.1180 C   0  0  0  0  0  0  0  0  0  0  0  0
   -0.0890    9.5360  -13.1150 C   0  0  0  0  0  0  0  0  0  0  0  0
   -0.0500   10.6360  -14.1430 C   0  0  2  0  0  0  0  0  0  0  0  0
    0.9290   10.2520  -15.1950 C   0  0  0  0  0  0  0  0  0  0  0  0
    2.2250   10.2020  -14.9060 C   0  0  0  0  0  0  0  0  0  0  0  0
    2.3200   12.8720  -12.5800 C   0  0  0  0  0  0  0  0  0  0  0  0
    3.5650   12.8520  -12.2980 O   0  0  0  0  0  0  0  0  0  0  0  0
   -0.6590   15.0720  -12.2800 N   0  0  0  0  0  0  0  0  0  0  0  0
   -0.5660   16.3720  -12.8860 C   0  0  0  0  0  0  0  0  0  0  0  0
   -0.7510   16.3100  -14.3930 C   0  0  0  0  0  0  0  0  0  0  0  0
   -1.5250   17.3780  -12.3450 C   0  0  0  0  0  0  0  0  0  0  0  0
    3.6990   10.8810  -13.5090 H   0  0  0  0  0  0  0  0  0  0  0  0
    2.2820    9.7100  -11.5600 H   0  0  0  0  0  0  0  0  0  0  0  0
    3.2320    8.7580  -12.7180 H   0  0  0  0  0  0  0  0  0  0  0  0
    0.9700    7.8530  -12.3950 H   0  0  0  0  0  0  0  0  0  0  0  0
    1.3590    8.3040  -14.1350 H   0  0  0  0  0  0  0  0  0  0  0  0
   -0.1560    9.9680  -12.0740 H   0  0  0  0  0  0  0  0  0  0  0  0
   -0.9790    8.8840  -13.2160 H   0  0  0  0  0  0  0  0  0  0  0  0
   -1.0500   10.8600  -14.5650 H   0  0  0  0  0  0  0  0  0  0  0  0
    0.5960   10.0110  -16.2060 H   0  0  0  0  0  0  0  0  0  0  0  0
    2.9680    9.8710  -15.6210 H   0  0  0  0  0  0  0  0  0  0  0  0
   -1.4030   14.8530  -11.5500 H   0  0  0  0  0  0  0  0  0  0  0  0
    0.4600   16.7570  -12.7200 H   0  0  0  0  0  0  0  0  0  0  0  0
   -1.7640   15.9280  -14.6520 H   0  0  0  0  0  0  0  0  0  0  0  0
   -0.6960   17.3490  -14.7620 H   0  0  0  0  0  0  0  0  0  0  0  0
    0.0510   15.7280  -14.8900 H   0  0  0  0  0  0  0  0  0  0  0  0
   -1.4160   18.2950  -12.9730 H   0  0  0  0  0  0  0  0  0  0  0  0
   -1.3170   17.6670  -11.2850 H   0  0  0  0  0  0  0  0  0  0  0  0
   -2.5620   17.0440  -12.4810 H   0  0  0  0  0  0  0  0  0  0  0  0
  2  1  1  0  0  0  0
  3 17  1  0  0  0  0
  3  2  2  0  0  0  0
  4  3  1  0  0  0  0
  5  4  2  0  0  0  0
  6  4  1  0  0  0  0
  6  7  1  0  0  0  0
  7 15  1  0  0  0  0
  8 21  1  1  0  0  0
  8  7  1  0  0  0  0
  8  9  1  0  0  0  0
  9 22  1  0  0  0  0
 10 11  1  0  0  0  0
 10  9  1  0  0  0  0
 10 24  1  0  0  0  0
 11 26  1  0  0  0  0
 12 28  1  6  0  0  0
 12  6  1  0  0  0  0
 12 11  1  0  0  0  0
 13 14  2  0  0  0  0
 13 12  1  0  0  0  0
 14  8  1  0  0  0  0
 15 16  2  0  0  0  0
 15  2  1  0  0  0  0
 17 31  1  0  0  0  0
 18 32  1  0  0  0  0
 18 20  1  0  0  0  0
 18 17  1  0  0  0  0
 19 18  1  0  0  0  0
 20 37  1  0  0  0  0
 23  9  1  0  0  0  0
 25 10  1  0  0  0  0
 27 11  1  0  0  0  0
 29 13  1  0  0  0  0
 30 14  1  0  0  0  0
 33 19  1  0  0  0  0
 34 19  1  0  0  0  0
 35 19  1  0  0  0  0
 36 20  1  0  0  0  0
 38 20  1  0  0  0  0
M  END
>  <Pose>
1

>  <Score>
-5.00

$$$$
