
 OpenBabel03232203513D

 36 39  0  0  1  0  0  0  0  0999 V2000
   -2.6130   13.5340  -13.2280 Cl  0  0  0  0  0  0  0  0  0  0  0  0
   -0.9920   12.8710  -13.1740 C   0  0  0  0  0  0  0  0  0  0  0  0
    0.0140   13.6650  -12.6640 C   0  0  0  0  0  0  0  0  0  0  0  0
    1.2840   13.0750  -12.6560 C   0  0  0  0  0  0  0  0  0  0  0  0
    2.2310   13.7480  -12.2050 O   0  0  0  0  0  0  0  0  0  0  0  0
    1.4770   11.8320  -13.1140 N   0  0  0  0  0  0  0  0  0  0  0  0
    0.5060   11.0760  -13.6020 N   0  0  0  0  0  0  0  0  0  0  0  0
    0.8860    9.7450  -14.0530 C   0  0  1  0  0  0  0  0  0  0  0  0
    1.9700    9.9370  -15.0970 C   0  0  1  0  0  0  0  0  0  0  0  0
    3.0330   10.8120  -14.5890 C   0  0  1  0  0  0  0  0  0  0  0  0
    2.7960   11.1970  -13.1220 C   0  0  2  0  0  0  0  0  0  0  0  0
    2.5850    9.9010  -12.3900 C   0  0  0  0  0  0  0  0  0  0  0  0
    1.6050    9.1500  -12.8640 C   0  0  0  0  0  0  0  0  0  0  0  0
    3.3100    9.3340  -14.8960 C   0  0  0  0  0  0  0  0  0  0  0  0
   -0.7210   11.5870  -13.6350 C   0  0  0  0  0  0  0  0  0  0  0  0
   -1.6500   10.8760  -14.0970 O   0  0  0  0  0  0  0  0  0  0  0  0
   -0.1760   14.9870  -12.1680 N   0  0  0  0  0  0  0  0  0  0  0  0
   -0.2430   16.1610  -12.9600 C   0  0  0  0  0  0  0  0  0  0  0  0
   -1.1180   16.0470  -14.1810 C   0  0  0  0  0  0  0  0  0  0  0  0
   -0.7350   17.3780  -12.1880 C   0  0  0  0  0  0  0  0  0  0  0  0
    0.0520    9.1360  -14.3870 H   0  0  0  0  0  0  0  0  0  0  0  0
    1.6030    9.9600  -16.1370 H   0  0  0  0  0  0  0  0  0  0  0  0
    3.5560   11.5550  -15.2200 H   0  0  0  0  0  0  0  0  0  0  0  0
    3.5810   11.8110  -12.7080 H   0  0  0  0  0  0  0  0  0  0  0  0
    3.2220    9.6760  -11.5560 H   0  0  0  0  0  0  0  0  0  0  0  0
    1.2810    8.1940  -12.5020 H   0  0  0  0  0  0  0  0  0  0  0  0
    3.9150    9.0940  -15.7730 H   0  0  0  0  0  0  0  0  0  0  0  0
    3.4320    8.7150  -13.9610 H   0  0  0  0  0  0  0  0  0  0  0  0
   -0.2720   15.0640  -11.1330 H   0  0  0  0  0  0  0  0  0  0  0  0
    0.7680   16.4310  -13.3240 H   0  0  0  0  0  0  0  0  0  0  0  0
   -0.6990   15.3850  -14.9650 H   0  0  0  0  0  0  0  0  0  0  0  0
   -1.2050   17.0540  -14.6890 H   0  0  0  0  0  0  0  0  0  0  0  0
   -2.1400   15.7370  -13.9830 H   0  0  0  0  0  0  0  0  0  0  0  0
   -0.6440   18.2370  -12.9130 H   0  0  0  0  0  0  0  0  0  0  0  0
   -0.0480   17.6240  -11.3600 H   0  0  0  0  0  0  0  0  0  0  0  0
   -1.7880   17.3200  -11.9170 H   0  0  0  0  0  0  0  0  0  0  0  0
  1  2  1  0  0  0  0
  2  3  2  0  0  0  0
  3  4  1  0  0  0  0
  3 17  1  0  0  0  0
  4  5  2  0  0  0  0
  6  4  1  0  0  0  0
  7  6  1  0  0  0  0
  8 21  1  6  0  0  0
  8  7  1  0  0  0  0
  8 13  1  0  0  0  0
  9 22  1  6  0  0  0
  9 14  1  0  0  0  0
  9 10  1  0  0  0  0
  9  8  1  0  0  0  0
 10 23  1  6  0  0  0
 10 11  1  0  0  0  0
 11  6  1  0  0  0  0
 11 24  1  1  0  0  0
 11 12  1  0  0  0  0
 12 25  1  0  0  0  0
 13 26  1  0  0  0  0
 13 12  2  0  0  0  0
 14 10  1  0  0  0  0
 14 28  1  0  0  0  0
 15  7  1  0  0  0  0
 15  2  1  0  0  0  0
 16 15  2  0  0  0  0
 17 29  1  0  0  0  0
 18 20  1  0  0  0  0
 18 17  1  0  0  0  0
 19 33  1  0  0  0  0
 19 18  1  0  0  0  0
 20 36  1  0  0  0  0
 20 35  1  0  0  0  0
 27 14  1  0  0  0  0
 30 18  1  0  0  0  0
 31 19  1  0  0  0  0
 32 19  1  0  0  0  0
 34 20  1  0  0  0  0
M  END
>  <Pose>
1

>  <Score>
-4.05

$$$$
