
 OpenBabel03232203513D

 59 62  0  0  1  0  0  0  0  0999 V2000
    2.0350   15.2010  -10.6130 Cl  0  0  0  0  0  0  0  0  0  0  0  0
    1.2050   14.3010  -11.9460 C   0  0  2  0  0  0  0  0  0  0  0  0
    0.2840   14.9570  -12.6380 C   0  0  2  0  0  0  0  0  0  0  0  0
   -0.3980   14.1550  -13.6830 C   0  0  0  0  0  0  0  0  0  0  0  0
   -0.0260   12.9400  -13.8390 N   0  0  0  0  0  0  0  0  0  0  0  0
    0.9380   12.3110  -13.1170 N   0  0  0  0  0  0  0  0  0  0  0  0
    1.5540   12.9700  -12.1750 C   0  0  0  0  0  0  0  0  0  0  0  0
    2.4820   12.4760  -11.4480 O   0  0  0  0  0  0  0  0  0  0  0  0
    1.4030   11.0210  -13.6250 C   0  0  0  0  0  0  0  0  0  0  0  0
    0.6790    9.8790  -13.5030 C   0  0  0  0  0  0  0  0  0  0  0  0
    1.0860    8.7040  -14.0970 C   0  0  0  0  0  0  0  0  0  0  0  0
    2.2610    8.6560  -14.8470 C   0  0  0  0  0  0  0  0  0  0  0  0
    2.9870    9.8420  -14.9470 C   0  0  0  0  0  0  0  0  0  0  0  0
    2.5730   10.9740  -14.3610 C   0  0  0  0  0  0  0  0  0  0  0  0
    0.1190   16.3310  -12.7210 N   0  0  0  0  0  0  0  0  0  0  0  0
    0.4230   17.4180  -11.8910 C   0  0  0  0  0  0  0  0  0  0  0  0
   -0.9310   18.1600  -11.5920 C   0  0  0  0  0  0  0  0  0  0  0  0
   -2.0960   17.5180  -11.9480 N   0  0  0  0  0  0  0  0  0  0  0  0
   -2.0800   16.5750  -13.0330 C   0  0  0  0  0  0  0  0  0  0  0  0
   -0.7770   16.7590  -13.8780 C   0  0  0  0  0  0  0  0  0  0  0  0
   -3.2280   18.4240  -12.3390 C   0  0  0  0  0  0  0  0  0  0  0  0
   -3.9480   18.8510  -11.1480 C   0  0  0  0  0  0  0  0  0  0  0  0
   -3.9790   18.5360  -10.0770 O   0  0  0  0  0  0  0  0  0  0  0  0
   -4.9770   20.1590  -11.5330 N   0  0  0  0  0  0  0  0  0  0  0  0
   -4.6650   20.9290  -10.2780 C   0  0  0  0  0  0  0  0  0  0  0  0
   -3.5670   21.2130   -9.8850 O   0  0  0  0  0  0  0  0  0  0  0  0
   -5.8880   21.3020   -9.6050 N   0  0  0  0  0  0  0  0  0  0  0  0
   -6.3790   22.6070   -9.3680 C   0  0  0  0  0  0  0  0  0  0  0  0
   -7.8100   22.8980   -9.5670 C   0  0  0  0  0  0  0  0  0  0  0  0
   -8.5150   22.6790   -8.2240 C   0  0  0  0  0  0  0  0  0  0  0  0
   -7.4400   23.1150   -7.2550 C   0  0  0  0  0  0  0  0  0  0  0  0
   -6.1340   22.8540   -7.8650 C   0  0  0  0  0  0  0  0  0  0  0  0
   -1.1410   14.7470  -14.1700 H   0  0  0  0  0  0  0  0  0  0  0  0
   -0.2310    9.8810  -12.9030 H   0  0  0  0  0  0  0  0  0  0  0  0
    0.5200    7.8260  -14.0440 H   0  0  0  0  0  0  0  0  0  0  0  0
    2.5310    7.7300  -15.3010 H   0  0  0  0  0  0  0  0  0  0  0  0
    3.8870    9.7750  -15.5610 H   0  0  0  0  0  0  0  0  0  0  0  0
    3.1610   11.8770  -14.4650 H   0  0  0  0  0  0  0  0  0  0  0  0
    0.9860   17.2520  -10.9820 H   0  0  0  0  0  0  0  0  0  0  0  0
    1.0650   18.1180  -12.4990 H   0  0  0  0  0  0  0  0  0  0  0  0
   -0.7840   19.1610  -12.1030 H   0  0  0  0  0  0  0  0  0  0  0  0
   -0.8400   18.4530  -10.5010 H   0  0  0  0  0  0  0  0  0  0  0  0
   -2.0020   15.5040  -12.7230 H   0  0  0  0  0  0  0  0  0  0  0  0
   -2.8650   16.7990  -13.7520 H   0  0  0  0  0  0  0  0  0  0  0  0
   -0.7260   16.1310  -14.7150 H   0  0  0  0  0  0  0  0  0  0  0  0
   -0.6770   17.8660  -14.0050 H   0  0  0  0  0  0  0  0  0  0  0  0
   -2.7280   19.2090  -12.8890 H   0  0  0  0  0  0  0  0  0  0  0  0
   -3.8840   17.8470  -12.9980 H   0  0  0  0  0  0  0  0  0  0  0  0
   -5.1350   19.7580  -12.1750 H   0  0  0  0  0  0  0  0  0  0  0  0
   -6.4720   20.4810   -9.2320 H   0  0  0  0  0  0  0  0  0  0  0  0
   -5.7970   23.3690  -10.0130 H   0  0  0  0  0  0  0  0  0  0  0  0
   -7.9140   23.9890   -9.7770 H   0  0  0  0  0  0  0  0  0  0  0  0
   -8.3080   22.3220  -10.3740 H   0  0  0  0  0  0  0  0  0  0  0  0
   -8.7560   21.6050   -8.0710 H   0  0  0  0  0  0  0  0  0  0  0  0
   -9.4290   23.3220   -8.1340 H   0  0  0  0  0  0  0  0  0  0  0  0
   -7.5520   22.4110   -6.3530 H   0  0  0  0  0  0  0  0  0  0  0  0
   -7.5620   24.1530   -6.8850 H   0  0  0  0  0  0  0  0  0  0  0  0
   -5.3250   23.5890   -7.6770 H   0  0  0  0  0  0  0  0  0  0  0  0
   -5.7780   21.8340   -7.4350 H   0  0  0  0  0  0  0  0  0  0  0  0
  2  1  1  1  0  0  0
  3 15  1  6  0  0  0
  3  2  1  0  0  0  0
  4  3  1  0  0  0  0
  5  4  2  0  0  0  0
  5  6  1  0  0  0  0
  6  7  1  0  0  0  0
  7  2  1  0  0  0  0
  7  8  2  0  0  0  0
  9 10  1  0  0  0  0
  9  6  1  0  0  0  0
 10 34  1  0  0  0  0
 11 35  1  0  0  0  0
 11 10  2  0  0  0  0
 12 11  1  0  0  0  0
 13 12  2  0  0  0  0
 13 14  1  0  0  0  0
 14  9  2  0  0  0  0
 15 16  1  0  0  0  0
 16 17  1  0  0  0  0
 16 39  1  0  0  0  0
 17 42  1  0  0  0  0
 18 17  1  0  0  0  0
 19 43  1  0  0  0  0
 19 18  1  0  0  0  0
 20 19  1  0  0  0  0
 20 15  1  0  0  0  0
 21 18  1  0  0  0  0
 21 22  1  0  0  0  0
 22 23  2  0  0  0  0
 24 22  1  0  0  0  0
 24 25  1  0  0  0  0
 25 26  2  0  0  0  0
 25 27  1  0  0  0  0
 27 28  1  0  0  0  0
 27 50  1  0  0  0  0
 28 32  1  0  0  0  0
 29 28  1  0  0  0  0
 29 30  1  0  0  0  0
 30 55  1  0  0  0  0
 30 54  1  0  0  0  0
 30 31  1  0  0  0  0
 31 57  1  0  0  0  0
 31 56  1  0  0  0  0
 32 58  1  0  0  0  0
 32 59  1  0  0  0  0
 32 31  1  0  0  0  0
 33  4  1  0  0  0  0
 36 12  1  0  0  0  0
 37 13  1  0  0  0  0
 38 14  1  0  0  0  0
 40 16  1  0  0  0  0
 41 17  1  0  0  0  0
 44 19  1  0  0  0  0
 45 20  1  0  0  0  0
 46 20  1  0  0  0  0
 47 21  1  0  0  0  0
 48 21  1  0  0  0  0
 49 24  1  0  0  0  0
 51 28  1  0  0  0  0
 52 29  1  0  0  0  0
 53 29  1  0  0  0  0
M  END
>  <Pose>
1

>  <Score>
-6.64

$$$$
