
 OpenBabel03232203513D

 56 59  0  0  1  0  0  0  0  0999 V2000
   -1.5830   18.7190  -10.3320 Cl  0  0  0  0  0  0  0  0  0  0  0  0
   -1.2960   17.6680  -11.7030 C   0  0  0  0  0  0  0  0  0  0  0  0
   -2.0360   17.9140  -12.8560 C   0  0  0  0  0  0  0  0  0  0  0  0
   -1.7840   17.0690  -13.9160 C   0  0  0  0  0  0  0  0  0  0  0  0
   -0.8770   16.0830  -13.8030 N   0  0  0  0  0  0  0  0  0  0  0  0
   -0.1650   15.8340  -12.7180 N   0  0  0  0  0  0  0  0  0  0  0  0
   -0.3790   16.6360  -11.6580 C   0  0  0  0  0  0  0  0  0  0  0  0
    0.2890   16.4180  -10.6090 O   0  0  0  0  0  0  0  0  0  0  0  0
    0.7840   14.7600  -12.6700 C   0  0  0  0  0  0  0  0  0  0  0  0
    0.4380   13.5110  -13.1320 C   0  0  0  0  0  0  0  0  0  0  0  0
    1.3560   12.4560  -13.0900 C   0  0  0  0  0  0  0  0  0  0  0  0
    2.6260   12.6330  -12.5900 C   0  0  0  0  0  0  0  0  0  0  0  0
    2.9820   13.8810  -12.1270 C   0  0  0  0  0  0  0  0  0  0  0  0
    2.0590   14.9210  -12.1720 C   0  0  0  0  0  0  0  0  0  0  0  0
   -2.9890   18.9630  -12.9270 N   0  0  0  0  0  0  0  0  0  0  0  0
   -2.6340   20.3500  -12.7440 C   0  0  0  0  0  0  0  0  0  0  0  0
   -3.6270   21.0160  -11.8430 C   0  0  0  0  0  0  0  0  0  0  0  0
   -4.4340   19.9790  -11.2520 N   0  0  0  0  0  0  0  0  0  0  0  0
   -5.2690   19.4210  -12.2550 C   0  0  0  0  0  0  0  0  0  0  0  0
   -4.3630   18.6220  -13.1960 C   0  0  0  0  0  0  0  0  0  0  0  0
   -4.9890   20.2590   -9.9890 C   0  0  0  0  0  0  0  0  0  0  0  0
   -4.7480   21.6200   -9.4990 C   0  0  0  0  0  0  0  0  0  0  0  0
   -3.5260   21.9880   -9.4460 O   0  0  0  0  0  0  0  0  0  0  0  0
   -5.7340   22.5500   -9.0890 N   0  0  0  0  0  0  0  0  0  0  0  0
   -7.1390   22.4290   -9.3900 C   0  0  0  0  0  0  0  0  0  0  0  0
   -7.9440   22.8610   -8.2030 C   0  0  1  0  0  0  0  0  0  0  0  0
   -7.1050   23.1090   -7.1500 O   0  0  0  0  0  0  0  0  0  0  0  0
   -7.2560   24.3890   -6.6930 C   0  0  0  0  0  0  0  0  0  0  0  0
   -8.6920   24.7180   -7.0450 C   0  0  0  0  0  0  0  0  0  0  0  0
   -8.7030   24.1520   -8.4750 C   0  0  0  0  0  0  0  0  0  0  0  0
   -2.3490   17.2400  -14.8300 H   0  0  0  0  0  0  0  0  0  0  0  0
   -0.5710   13.3660  -13.5300 H   0  0  0  0  0  0  0  0  0  0  0  0
    1.0910   11.4760  -13.4500 H   0  0  0  0  0  0  0  0  0  0  0  0
    3.3720   11.8330  -12.5420 H   0  0  0  0  0  0  0  0  0  0  0  0
    3.9830   14.0160  -11.7330 H   0  0  0  0  0  0  0  0  0  0  0  0
    2.3300   15.9050  -11.8100 H   0  0  0  0  0  0  0  0  0  0  0  0
   -2.4830   20.8870  -13.7030 H   0  0  0  0  0  0  0  0  0  0  0  0
   -1.6350   20.4390  -12.2220 H   0  0  0  0  0  0  0  0  0  0  0  0
   -4.3340   21.6200  -12.4890 H   0  0  0  0  0  0  0  0  0  0  0  0
   -3.1910   21.6300  -11.0530 H   0  0  0  0  0  0  0  0  0  0  0  0
   -6.1150   18.8310  -11.8830 H   0  0  0  0  0  0  0  0  0  0  0  0
   -5.6860   20.2600  -12.8620 H   0  0  0  0  0  0  0  0  0  0  0  0
   -4.6380   18.7890  -14.2680 H   0  0  0  0  0  0  0  0  0  0  0  0
   -4.5650   17.5510  -12.9440 H   0  0  0  0  0  0  0  0  0  0  0  0
   -4.6650   19.5200   -9.2030 H   0  0  0  0  0  0  0  0  0  0  0  0
   -6.1090   20.1200  -10.0790 H   0  0  0  0  0  0  0  0  0  0  0  0
   -5.4200   23.3670   -8.5270 H   0  0  0  0  0  0  0  0  0  0  0  0
   -7.4070   21.3680   -9.6440 H   0  0  0  0  0  0  0  0  0  0  0  0
   -7.3710   23.0590  -10.2610 H   0  0  0  0  0  0  0  0  0  0  0  0
   -8.6990   22.1110   -7.9230 H   0  0  0  0  0  0  0  0  0  0  0  0
   -6.6180   25.0630   -7.2960 H   0  0  0  0  0  0  0  0  0  0  0  0
   -7.0610   24.4670   -5.6100 H   0  0  0  0  0  0  0  0  0  0  0  0
   -8.9280   25.7780   -7.0100 H   0  0  0  0  0  0  0  0  0  0  0  0
   -9.3610   24.0690   -6.4430 H   0  0  0  0  0  0  0  0  0  0  0  0
   -8.0780   24.8590   -9.0680 H   0  0  0  0  0  0  0  0  0  0  0  0
   -9.7110   24.0100   -8.8510 H   0  0  0  0  0  0  0  0  0  0  0  0
  2  7  1  0  0  0  0
  2  1  1  0  0  0  0
  3  2  2  0  0  0  0
  4  5  2  0  0  0  0
  4  3  1  0  0  0  0
  5  6  1  0  0  0  0
  6  9  1  0  0  0  0
  6  7  1  0  0  0  0
  7  8  2  0  0  0  0
  9 14  1  0  0  0  0
 10 11  1  0  0  0  0
 10  9  2  0  0  0  0
 11 12  2  0  0  0  0
 12 34  1  0  0  0  0
 12 13  1  0  0  0  0
 13 35  1  0  0  0  0
 14 13  2  0  0  0  0
 14 36  1  0  0  0  0
 15  3  1  0  0  0  0
 15 16  1  0  0  0  0
 16 38  1  0  0  0  0
 16 17  1  0  0  0  0
 17 18  1  0  0  0  0
 17 40  1  0  0  0  0
 18 21  1  0  0  0  0
 19 41  1  0  0  0  0
 19 18  1  0  0  0  0
 20 44  1  0  0  0  0
 20 15  1  0  0  0  0
 20 19  1  0  0  0  0
 21 22  1  0  0  0  0
 21 45  1  0  0  0  0
 22 23  2  0  0  0  0
 22 24  1  0  0  0  0
 24 47  1  0  0  0  0
 25 24  1  0  0  0  0
 25 26  1  0  0  0  0
 26 50  1  1  0  0  0
 26 27  1  0  0  0  0
 27 28  1  0  0  0  0
 28 52  1  0  0  0  0
 29 53  1  0  0  0  0
 29 28  1  0  0  0  0
 29 54  1  0  0  0  0
 30 26  1  0  0  0  0
 30 29  1  0  0  0  0
 31  4  1  0  0  0  0
 32 10  1  0  0  0  0
 33 11  1  0  0  0  0
 37 16  1  0  0  0  0
 39 17  1  0  0  0  0
 42 19  1  0  0  0  0
 43 20  1  0  0  0  0
 46 21  1  0  0  0  0
 48 25  1  0  0  0  0
 49 25  1  0  0  0  0
 51 28  1  0  0  0  0
 55 30  1  0  0  0  0
 56 30  1  0  0  0  0
M  END
>  <Pose>
1

>  <Score>
-5.26

$$$$
