
 OpenBabel03232203513D

 55 58  0  0  0  0  0  0  0  0999 V2000
   -0.1720    9.1290  -13.0040 S   0  0  0  0  0  0  0  0  0  0  0  0
    1.1030    9.1980  -13.8230 O   0  0  0  0  0  0  0  0  0  0  0  0
    0.1300    8.5960  -11.6490 O   0  0  0  0  0  0  0  0  0  0  0  0
   -0.7700   10.7960  -12.8350 N   0  0  0  0  0  0  0  0  0  0  0  0
   -0.2480   11.2650  -11.5860 C   0  0  0  0  0  0  0  0  0  0  0  0
   -0.1400   12.7980  -11.4860 C   0  0  0  0  0  0  0  0  0  0  0  0
    0.6500   13.2230  -12.5990 N   0  0  0  0  0  0  0  0  0  0  0  0
   -0.1110   12.9880  -13.7950 C   0  0  0  0  0  0  0  0  0  0  0  0
   -0.0720   11.4950  -13.9710 C   0  0  0  0  0  0  0  0  0  0  0  0
    1.5130   14.2940  -12.4500 C   0  0  0  0  0  0  0  0  0  0  0  0
    0.9240   15.6300  -12.3410 C   0  0  0  0  0  0  0  0  0  0  0  0
    1.7130   16.5680  -12.8010 O   0  0  0  0  0  0  0  0  0  0  0  0
   -0.2790   16.0660  -11.8630 N   0  0  0  0  0  0  0  0  0  0  0  0
   -1.3910   16.5330  -12.6930 C   0  0  0  0  0  0  0  0  0  0  0  0
   -2.0610   17.6590  -12.0100 C   0  0  0  0  0  0  0  0  0  0  0  0
   -3.1470   18.3340  -12.6140 C   0  0  0  0  0  0  0  0  0  0  0  0
   -3.6940   19.4440  -12.0950 C   0  0  0  0  0  0  0  0  0  0  0  0
   -3.1890   19.9990  -10.8780 C   0  0  0  0  0  0  0  0  0  0  0  0
   -2.1560   19.3780  -10.2990 C   0  0  0  0  0  0  0  0  0  0  0  0
   -1.5630   18.2220  -10.8210 C   0  0  0  0  0  0  0  0  0  0  0  0
   -3.8170   17.6540  -14.1180 Cl  0  0  0  0  0  0  0  0  0  0  0  0
   -1.3010    8.1170  -13.8160 C   0  0  0  0  0  0  0  0  0  0  0  0
   -2.6100    8.6140  -13.8740 C   0  0  0  0  0  0  0  0  0  0  0  0
   -3.6420    7.9830  -14.5730 C   0  0  0  0  0  0  0  0  0  0  0  0
   -3.3500    6.8000  -15.2450 C   0  0  0  0  0  0  0  0  0  0  0  0
   -2.0560    6.3190  -15.1730 C   0  0  0  0  0  0  0  0  0  0  0  0
   -1.0370    6.9580  -14.4780 C   0  0  0  0  0  0  0  0  0  0  0  0
   -4.4150    6.2320  -15.9200 O   0  0  0  0  0  0  0  0  0  0  0  0
   -5.3320    7.1340  -16.5970 C   0  0  0  0  0  0  0  0  0  0  0  0
   -5.6690    8.3410  -15.7870 C   0  0  0  0  0  0  0  0  0  0  0  0
   -4.9250    8.5010  -14.6040 O   0  0  0  0  0  0  0  0  0  0  0  0
   -1.0430   10.9950  -10.8070 H   0  0  0  0  0  0  0  0  0  0  0  0
    0.6740   10.8140  -11.1960 H   0  0  0  0  0  0  0  0  0  0  0  0
   -1.1440   13.2200  -11.5450 H   0  0  0  0  0  0  0  0  0  0  0  0
    0.3420   13.1190  -10.5730 H   0  0  0  0  0  0  0  0  0  0  0  0
   -1.1460   13.2920  -13.6740 H   0  0  0  0  0  0  0  0  0  0  0  0
    0.4280   13.4130  -14.6830 H   0  0  0  0  0  0  0  0  0  0  0  0
    1.0120   11.1620  -13.8510 H   0  0  0  0  0  0  0  0  0  0  0  0
   -0.5700   11.1980  -14.8720 H   0  0  0  0  0  0  0  0  0  0  0  0
    2.1520   14.2720  -13.4350 H   0  0  0  0  0  0  0  0  0  0  0  0
    2.3330   14.1530  -11.6940 H   0  0  0  0  0  0  0  0  0  0  0  0
   -0.5510   16.0780  -10.8240 H   0  0  0  0  0  0  0  0  0  0  0  0
   -0.8390   17.0120  -13.5820 H   0  0  0  0  0  0  0  0  0  0  0  0
   -2.0210   15.7210  -12.9780 H   0  0  0  0  0  0  0  0  0  0  0  0
   -4.5070   19.9200  -12.5740 H   0  0  0  0  0  0  0  0  0  0  0  0
   -3.6390   20.8770  -10.4840 H   0  0  0  0  0  0  0  0  0  0  0  0
   -1.7210   19.7660   -9.3720 H   0  0  0  0  0  0  0  0  0  0  0  0
   -0.7250   17.7960  -10.3260 H   0  0  0  0  0  0  0  0  0  0  0  0
   -2.8220    9.5470  -13.3150 H   0  0  0  0  0  0  0  0  0  0  0  0
   -1.8830    5.4070  -15.6810 H   0  0  0  0  0  0  0  0  0  0  0  0
   -0.0480    6.5470  -14.4720 H   0  0  0  0  0  0  0  0  0  0  0  0
   -4.8010    7.3940  -17.5720 H   0  0  0  0  0  0  0  0  0  0  0  0
   -6.2450    6.5880  -16.8360 H   0  0  0  0  0  0  0  0  0  0  0  0
   -6.7300    8.3330  -15.5130 H   0  0  0  0  0  0  0  0  0  0  0  0
   -5.4860    9.2250  -16.4610 H   0  0  0  0  0  0  0  0  0  0  0  0
  1  4  1  0  0  0  0
  1  3  2  0  0  0  0
  2  1  2  0  0  0  0
  4  5  1  0  0  0  0
  5  6  1  0  0  0  0
  5 33  1  0  0  0  0
  5 32  1  0  0  0  0
  6 35  1  0  0  0  0
  7 10  1  0  0  0  0
  7  6  1  0  0  0  0
  8 36  1  0  0  0  0
  8  7  1  0  0  0  0
  9 38  1  0  0  0  0
  9  8  1  0  0  0  0
  9  4  1  0  0  0  0
 10 11  1  0  0  0  0
 10 41  1  0  0  0  0
 11 13  1  0  0  0  0
 12 11  2  0  0  0  0
 13 42  1  0  0  0  0
 14 15  1  0  0  0  0
 14 13  1  0  0  0  0
 15 20  1  0  0  0  0
 16 17  1  0  0  0  0
 16 15  2  0  0  0  0
 17 18  2  0  0  0  0
 18 46  1  0  0  0  0
 18 19  1  0  0  0  0
 19 47  1  0  0  0  0
 20 48  1  0  0  0  0
 20 19  2  0  0  0  0
 21 16  1  0  0  0  0
 22  1  1  0  0  0  0
 23 22  1  0  0  0  0
 23 49  1  0  0  0  0
 24 23  2  0  0  0  0
 25 26  2  0  0  0  0
 25 24  1  0  0  0  0
 26 27  1  0  0  0  0
 27 51  1  0  0  0  0
 27 22  2  0  0  0  0
 28 25  1  0  0  0  0
 29 28  1  0  0  0  0
 29 30  1  0  0  0  0
 30 54  1  0  0  0  0
 30 31  1  0  0  0  0
 31 24  1  0  0  0  0
 34  6  1  0  0  0  0
 37  8  1  0  0  0  0
 39  9  1  0  0  0  0
 40 10  1  0  0  0  0
 43 14  1  0  0  0  0
 44 14  1  0  0  0  0
 45 17  1  0  0  0  0
 50 26  1  0  0  0  0
 52 29  1  0  0  0  0
 53 29  1  0  0  0  0
 55 30  1  0  0  0  0
M  END
>  <Pose>
1

>  <Score>
-5.40

$$$$
