
 OpenBabel03232203513D

 56 59  0  0  0  0  0  0  0  0999 V2000
   -1.0540   16.1830  -12.8680 S   0  0  0  0  0  0  0  0  0  0  0  0
   -1.9100   14.9790  -13.1190 O   0  0  0  0  0  0  0  0  0  0  0  0
   -0.4380   16.5960  -14.1720 O   0  0  0  0  0  0  0  0  0  0  0  0
    0.1420   15.7930  -11.7090 N   0  0  0  0  0  0  0  0  0  0  0  0
   -0.1640   14.6780  -10.8880 C   0  0  0  0  0  0  0  0  0  0  0  0
    0.2520   13.3520  -11.4670 C   0  0  0  0  0  0  0  0  0  0  0  0
    1.5310   13.4270  -12.1410 N   0  0  0  0  0  0  0  0  0  0  0  0
    2.2980   14.6390  -11.9260 C   0  0  0  0  0  0  0  0  0  0  0  0
    1.4730   15.8750  -12.1940 C   0  0  0  0  0  0  0  0  0  0  0  0
    1.9570   12.3620  -12.9450 C   0  0  0  0  0  0  0  0  0  0  0  0
    3.1630   12.0180  -12.9140 O   0  0  0  0  0  0  0  0  0  0  0  0
    1.0320   11.6190  -13.8390 C   0  0  0  0  0  0  0  0  0  0  0  0
    1.0310   10.2090  -13.5670 N   0  0  0  0  0  0  0  0  0  0  0  0
    2.1920    9.3910  -13.5630 C   0  0  0  0  0  0  0  0  0  0  0  0
    3.3750    9.8080  -13.8020 O   0  0  0  0  0  0  0  0  0  0  0  0
    1.8780    8.0380  -13.2610 N   0  0  0  0  0  0  0  0  0  0  0  0
    0.4320    7.9280  -13.2860 C   0  0  0  0  0  0  0  0  0  0  0  0
   -0.1080    7.2300  -12.0710 C   0  0  0  0  0  0  0  0  0  0  0  0
   -0.1100    5.7340  -12.1820 C   0  0  0  0  0  0  0  0  0  0  0  0
   -0.7320    5.2240  -13.4490 C   0  0  0  0  0  0  0  0  0  0  0  0
   -1.1380    6.3400  -14.3850 C   0  0  0  0  0  0  0  0  0  0  0  0
    0.0620    7.2400  -14.5790 C   0  0  0  0  0  0  0  0  0  0  0  0
   -0.0440    9.3340  -13.2550 C   0  0  0  0  0  0  0  0  0  0  0  0
   -1.2060    9.7290  -12.9980 O   0  0  0  0  0  0  0  0  0  0  0  0
    2.8480    6.9790  -12.9810 C   0  0  0  0  0  0  0  0  0  0  0  0
   -2.0620   17.5390  -12.3350 C   0  0  0  0  0  0  0  0  0  0  0  0
   -1.9730   18.4220  -10.8860 S   0  0  0  0  0  0  0  0  0  0  0  0
   -3.2520   19.5120  -11.1480 C   0  0  0  0  0  0  0  0  0  0  0  0
   -3.7260   19.1540  -12.3810 C   0  0  0  0  0  0  0  0  0  0  0  0
   -3.1040   18.1250  -13.0000 C   0  0  0  0  0  0  0  0  0  0  0  0
   -3.8560   20.8130  -10.0980 Cl  0  0  0  0  0  0  0  0  0  0  0  0
   -1.2750   14.6350  -10.7630 H   0  0  0  0  0  0  0  0  0  0  0  0
    0.3000   14.8020   -9.8900 H   0  0  0  0  0  0  0  0  0  0  0  0
   -0.5280   12.9120  -12.1220 H   0  0  0  0  0  0  0  0  0  0  0  0
    0.3910   12.6540  -10.6010 H   0  0  0  0  0  0  0  0  0  0  0  0
    3.1710   14.6660  -12.6160 H   0  0  0  0  0  0  0  0  0  0  0  0
    2.6930   14.6890  -10.9020 H   0  0  0  0  0  0  0  0  0  0  0  0
    1.5370   16.1860  -13.2740 H   0  0  0  0  0  0  0  0  0  0  0  0
    1.9880   16.7130  -11.6400 H   0  0  0  0  0  0  0  0  0  0  0  0
    1.3030   11.7650  -14.8910 H   0  0  0  0  0  0  0  0  0  0  0  0
    0.0290   12.0810  -13.7020 H   0  0  0  0  0  0  0  0  0  0  0  0
    0.4840    7.5010  -11.1760 H   0  0  0  0  0  0  0  0  0  0  0  0
   -1.1580    7.5800  -11.9190 H   0  0  0  0  0  0  0  0  0  0  0  0
   -0.7000    5.3490  -11.3100 H   0  0  0  0  0  0  0  0  0  0  0  0
    0.9200    5.3510  -12.0500 H   0  0  0  0  0  0  0  0  0  0  0  0
   -0.0130    4.5290  -13.9300 H   0  0  0  0  0  0  0  0  0  0  0  0
   -1.6700    4.6400  -13.2280 H   0  0  0  0  0  0  0  0  0  0  0  0
   -1.4310    5.9020  -15.3490 H   0  0  0  0  0  0  0  0  0  0  0  0
   -1.9410    6.9190  -13.9170 H   0  0  0  0  0  0  0  0  0  0  0  0
   -0.1660    7.9550  -15.3940 H   0  0  0  0  0  0  0  0  0  0  0  0
    0.9100    6.6130  -14.9280 H   0  0  0  0  0  0  0  0  0  0  0  0
    2.6310    6.0670  -13.5720 H   0  0  0  0  0  0  0  0  0  0  0  0
    3.8500    7.3450  -13.2250 H   0  0  0  0  0  0  0  0  0  0  0  0
    2.8200    6.8090  -11.8850 H   0  0  0  0  0  0  0  0  0  0  0  0
   -4.5900   19.7020  -12.8410 H   0  0  0  0  0  0  0  0  0  0  0  0
   -3.4420   17.7790  -14.0160 H   0  0  0  0  0  0  0  0  0  0  0  0
  1 26  1  0  0  0  0
  1  4  1  0  0  0  0
  2  1  2  0  0  0  0
  3  1  2  0  0  0  0
  4  5  1  0  0  0  0
  5 32  1  0  0  0  0
  5 33  1  0  0  0  0
  6  5  1  0  0  0  0
  6 35  1  0  0  0  0
  7  8  1  0  0  0  0
  7  6  1  0  0  0  0
  8 37  1  0  0  0  0
  9  8  1  0  0  0  0
  9  4  1  0  0  0  0
  9 39  1  0  0  0  0
 10 11  2  0  0  0  0
 10  7  1  0  0  0  0
 12 41  1  0  0  0  0
 12 13  1  0  0  0  0
 12 10  1  0  0  0  0
 13 14  1  0  0  0  0
 13 23  1  0  0  0  0
 14 16  1  0  0  0  0
 15 14  2  0  0  0  0
 16 25  1  0  0  0  0
 17 16  1  0  0  0  0
 17 23  1  0  0  0  0
 17 18  1  0  0  0  0
 18 43  1  0  0  0  0
 18 42  1  0  0  0  0
 19 18  1  0  0  0  0
 19 45  1  0  0  0  0
 19 44  1  0  0  0  0
 20 47  1  0  0  0  0
 20 19  1  0  0  0  0
 21 49  1  0  0  0  0
 21 20  1  0  0  0  0
 22 21  1  0  0  0  0
 22 17  1  0  0  0  0
 23 24  2  0  0  0  0
 25 54  1  0  0  0  0
 26 27  1  0  0  0  0
 28 27  1  0  0  0  0
 28 31  1  0  0  0  0
 29 28  2  0  0  0  0
 30 29  1  0  0  0  0
 30 26  2  0  0  0  0
 34  6  1  0  0  0  0
 36  8  1  0  0  0  0
 38  9  1  0  0  0  0
 40 12  1  0  0  0  0
 46 20  1  0  0  0  0
 48 21  1  0  0  0  0
 50 22  1  0  0  0  0
 51 22  1  0  0  0  0
 52 25  1  0  0  0  0
 53 25  1  0  0  0  0
 55 29  1  0  0  0  0
 56 30  1  0  0  0  0
M  END
>  <Pose>
1

>  <Score>
-5.83

$$$$
