
 OpenBabel03232203513D

 68 71  0  0  0  0  0  0  0  0999 V2000
   -0.4580   11.9720  -13.5450 S   0  0  0  0  0  0  0  0  0  0  0  0
   -1.3110   11.4220  -12.4290 O   0  0  0  0  0  0  0  0  0  0  0  0
   -1.3110   11.8700  -14.7910 O   0  0  0  0  0  0  0  0  0  0  0  0
    0.1330   13.4960  -13.2480 N   0  0  0  0  0  0  0  0  0  0  0  0
    1.2250   13.7460  -12.4430 C   0  0  0  0  0  0  0  0  0  0  0  0
    0.9110   14.8220  -11.4380 C   0  0  0  0  0  0  0  0  0  0  0  0
    0.2100   15.9490  -11.9390 N   0  0  0  0  0  0  0  0  0  0  0  0
    0.1220   15.9210  -13.3640 C   0  0  0  0  0  0  0  0  0  0  0  0
   -0.4920   14.6040  -13.8290 C   0  0  0  0  0  0  0  0  0  0  0  0
   -1.0630   16.1740  -11.3180 C   0  0  0  0  0  0  0  0  0  0  0  0
   -1.3090   17.6400  -11.1040 C   0  0  0  0  0  0  0  0  0  0  0  0
   -0.3320   18.4060  -11.2520 O   0  0  0  0  0  0  0  0  0  0  0  0
   -2.5920   18.1290  -10.7510 N   0  0  0  0  0  0  0  0  0  0  0  0
   -2.6610   19.4070  -10.1050 C   0  0  0  0  0  0  0  0  0  0  0  0
   -3.6430   20.3730  -10.6460 C   0  0  0  0  0  0  0  0  0  0  0  0
   -4.7670   19.6240  -11.3190 C   0  0  0  0  0  0  0  0  0  0  0  0
   -4.5040   19.4050  -12.8120 C   0  0  0  0  0  0  0  0  0  0  0  0
   -4.5410   20.7290  -13.5500 C   0  0  0  0  0  0  0  0  0  0  0  0
   -4.0310   21.7920  -12.5950 C   0  0  0  0  0  0  0  0  0  0  0  0
   -2.9340   21.1350  -11.7840 C   0  0  0  0  0  0  0  0  0  0  0  0
   -4.1590   21.3570   -9.7740 N   0  0  0  0  0  0  0  0  0  0  0  0
   -4.0000   22.7230  -10.1270 C   0  0  0  0  0  0  0  0  0  0  0  0
   -4.2400   23.5240   -8.8330 C   0  0  0  0  0  0  0  0  0  0  0  0
   -5.5300   23.3390   -8.3960 O   0  0  0  0  0  0  0  0  0  0  0  0
   -6.2710   22.4750   -9.1630 C   0  0  0  0  0  0  0  0  0  0  0  0
   -5.5430   21.1520   -9.4040 C   0  0  0  0  0  0  0  0  0  0  0  0
    0.8770   10.8380  -13.7290 C   0  0  0  0  0  0  0  0  0  0  0  0
    2.1630   11.2740  -13.8810 C   0  0  0  0  0  0  0  0  0  0  0  0
    3.2050   10.3960  -14.0240 C   0  0  0  0  0  0  0  0  0  0  0  0
    2.9430    9.0440  -14.0150 C   0  0  0  0  0  0  0  0  0  0  0  0
    1.6440    8.5990  -13.8620 C   0  0  0  0  0  0  0  0  0  0  0  0
    0.6080    9.4870  -13.7190 C   0  0  0  0  0  0  0  0  0  0  0  0
    4.2990    7.9450  -14.2000 Cl  0  0  0  0  0  0  0  0  0  0  0  0
    2.1540   14.1040  -12.9750 H   0  0  0  0  0  0  0  0  0  0  0  0
    1.5810   12.8540  -11.8620 H   0  0  0  0  0  0  0  0  0  0  0  0
    1.8830   15.1870  -11.0120 H   0  0  0  0  0  0  0  0  0  0  0  0
    0.3970   14.3250  -10.5870 H   0  0  0  0  0  0  0  0  0  0  0  0
    1.1550   15.9810  -13.8110 H   0  0  0  0  0  0  0  0  0  0  0  0
   -0.5330   16.7280  -13.7100 H   0  0  0  0  0  0  0  0  0  0  0  0
   -1.5990   14.6610  -13.6180 H   0  0  0  0  0  0  0  0  0  0  0  0
   -0.4010   14.5810  -14.9550 H   0  0  0  0  0  0  0  0  0  0  0  0
   -1.2140   15.5890  -10.3880 H   0  0  0  0  0  0  0  0  0  0  0  0
   -1.8540   15.8480  -12.0240 H   0  0  0  0  0  0  0  0  0  0  0  0
   -3.4290   17.5290  -10.9810 H   0  0  0  0  0  0  0  0  0  0  0  0
   -2.8490   19.2080   -9.0260 H   0  0  0  0  0  0  0  0  0  0  0  0
   -1.6500   19.9130  -10.1870 H   0  0  0  0  0  0  0  0  0  0  0  0
   -5.7300   20.1940  -11.2780 H   0  0  0  0  0  0  0  0  0  0  0  0
   -4.8900   18.6020  -10.8960 H   0  0  0  0  0  0  0  0  0  0  0  0
   -5.3360   18.7820  -13.1910 H   0  0  0  0  0  0  0  0  0  0  0  0
   -3.5670   18.8480  -12.9870 H   0  0  0  0  0  0  0  0  0  0  0  0
   -3.8580   20.6620  -14.4230 H   0  0  0  0  0  0  0  0  0  0  0  0
   -5.5640   20.9170  -13.8810 H   0  0  0  0  0  0  0  0  0  0  0  0
   -3.6340   22.6830  -13.1390 H   0  0  0  0  0  0  0  0  0  0  0  0
   -4.8390   22.0930  -11.8980 H   0  0  0  0  0  0  0  0  0  0  0  0
   -2.2710   21.9110  -11.4100 H   0  0  0  0  0  0  0  0  0  0  0  0
   -2.3240   20.4280  -12.3830 H   0  0  0  0  0  0  0  0  0  0  0  0
   -2.9670   22.9990  -10.4250 H   0  0  0  0  0  0  0  0  0  0  0  0
   -4.7330   23.1250  -10.8530 H   0  0  0  0  0  0  0  0  0  0  0  0
   -3.5620   23.0470   -8.0700 H   0  0  0  0  0  0  0  0  0  0  0  0
   -3.9550   24.5690   -8.9730 H   0  0  0  0  0  0  0  0  0  0  0  0
   -6.6250   22.9140  -10.1330 H   0  0  0  0  0  0  0  0  0  0  0  0
   -7.2060   22.2050   -8.6110 H   0  0  0  0  0  0  0  0  0  0  0  0
   -5.5740   20.5860   -8.4540 H   0  0  0  0  0  0  0  0  0  0  0  0
   -6.1390   20.6170  -10.1640 H   0  0  0  0  0  0  0  0  0  0  0  0
    2.3910   12.3510  -13.8910 H   0  0  0  0  0  0  0  0  0  0  0  0
    4.2280   10.7580  -14.1460 H   0  0  0  0  0  0  0  0  0  0  0  0
    1.4510    7.5240  -13.8560 H   0  0  0  0  0  0  0  0  0  0  0  0
   -0.4100    9.1100  -13.6000 H   0  0  0  0  0  0  0  0  0  0  0  0
  1  4  1  0  0  0  0
  1  2  2  0  0  0  0
  3  1  2  0  0  0  0
  4  5  1  0  0  0  0
  5 35  1  0  0  0  0
  5  6  1  0  0  0  0
  6 36  1  0  0  0  0
  6 37  1  0  0  0  0
  7  6  1  0  0  0  0
  7 10  1  0  0  0  0
  8  7  1  0  0  0  0
  9 40  1  0  0  0  0
  9  8  1  0  0  0  0
  9  4  1  0  0  0  0
 10 11  1  0  0  0  0
 10 42  1  0  0  0  0
 11 13  1  0  0  0  0
 12 11  2  0  0  0  0
 13 14  1  0  0  0  0
 14 45  1  0  0  0  0
 15 14  1  0  0  0  0
 15 21  1  0  0  0  0
 16 47  1  0  0  0  0
 16 48  1  0  0  0  0
 16 15  1  0  0  0  0
 17 16  1  0  0  0  0
 18 17  1  0  0  0  0
 18 19  1  0  0  0  0
 19 54  1  0  0  0  0
 19 20  1  0  0  0  0
 20 55  1  0  0  0  0
 20 15  1  0  0  0  0
 21 26  1  0  0  0  0
 22 21  1  0  0  0  0
 22 23  1  0  0  0  0
 23 24  1  0  0  0  0
 23 59  1  0  0  0  0
 25 62  1  0  0  0  0
 25 24  1  0  0  0  0
 26 25  1  0  0  0  0
 26 63  1  0  0  0  0
 27 32  1  0  0  0  0
 27  1  1  0  0  0  0
 28 27  2  0  0  0  0
 29 30  2  0  0  0  0
 29 28  1  0  0  0  0
 30 31  1  0  0  0  0
 31 67  1  0  0  0  0
 31 32  2  0  0  0  0
 32 68  1  0  0  0  0
 33 30  1  0  0  0  0
 34  5  1  0  0  0  0
 38  8  1  0  0  0  0
 39  8  1  0  0  0  0
 41  9  1  0  0  0  0
 43 10  1  0  0  0  0
 44 13  1  0  0  0  0
 46 14  1  0  0  0  0
 49 17  1  0  0  0  0
 50 17  1  0  0  0  0
 51 18  1  0  0  0  0
 52 18  1  0  0  0  0
 53 19  1  0  0  0  0
 56 20  1  0  0  0  0
 57 22  1  0  0  0  0
 58 22  1  0  0  0  0
 60 23  1  0  0  0  0
 61 25  1  0  0  0  0
 64 26  1  0  0  0  0
 65 28  1  0  0  0  0
 66 29  1  0  0  0  0
M  END
>  <Pose>
1

>  <Score>
-3.70

$$$$
