
 OpenBabel03232203513D

 38 41  0  0  0  0  0  0  0  0999 V2000
    3.6500    9.1040  -15.1610 Cl  0  0  0  0  0  0  0  0  0  0  0  0
    3.1160   10.4300  -14.1480 C   0  0  0  0  0  0  0  0  0  0  0  0
    1.7730   10.7460  -13.9930 C   0  0  0  0  0  0  0  0  0  0  0  0
    1.3200   11.7780  -13.2180 C   0  0  0  0  0  0  0  0  0  0  0  0
    2.2160   12.5590  -12.5460 C   0  0  0  0  0  0  0  0  0  0  0  0
    3.5720   12.2650  -12.6800 C   0  0  0  0  0  0  0  0  0  0  0  0
    4.0100   11.2190  -13.4690 C   0  0  0  0  0  0  0  0  0  0  0  0
    1.8810   13.6990  -11.6770 C   0  0  0  0  0  0  0  0  0  0  0  0
    0.4230   13.6750  -11.3590 C   0  0  0  0  0  0  0  0  0  0  0  0
   -0.3960   14.2210  -12.5420 C   0  0  0  0  0  0  0  0  0  0  0  0
    0.0300   15.6260  -12.6080 N   0  0  0  0  0  0  0  0  0  0  0  0
    1.3970   15.8150  -12.9790 C   0  0  0  0  0  0  0  0  0  0  0  0
    2.3620   15.0200  -12.1480 C   0  0  0  0  0  0  0  0  0  0  0  0
   -0.9120   16.6390  -12.3080 C   0  0  0  0  0  0  0  0  0  0  0  0
   -0.7240   17.4230  -11.2320 N   0  0  0  0  0  0  0  0  0  0  0  0
   -1.5210   18.4030  -10.8560 N   0  0  0  0  0  0  0  0  0  0  0  0
   -1.5250   19.2870   -9.8540 N   0  0  0  0  0  0  0  0  0  0  0  0
   -2.5740   20.0740   -9.9360 N   0  0  0  0  0  0  0  0  0  0  0  0
   -3.2540   19.7110  -10.9890 N   0  0  0  0  0  0  0  0  0  0  0  0
   -2.6110   18.6700  -11.5730 C   0  0  0  0  0  0  0  0  0  0  0  0
   -2.8720   17.9040  -12.6960 C   0  0  0  0  0  0  0  0  0  0  0  0
   -2.0280   16.8820  -13.0750 C   0  0  0  0  0  0  0  0  0  0  0  0
    2.5430   13.4220  -10.4530 O   0  0  0  0  0  0  0  0  0  0  0  0
    1.0460   10.1500  -14.5160 H   0  0  0  0  0  0  0  0  0  0  0  0
    0.2720   12.0190  -13.0930 H   0  0  0  0  0  0  0  0  0  0  0  0
    4.3450   12.8270  -12.1890 H   0  0  0  0  0  0  0  0  0  0  0  0
    5.0920   11.0010  -13.5710 H   0  0  0  0  0  0  0  0  0  0  0  0
    0.0590   12.6440  -11.1720 H   0  0  0  0  0  0  0  0  0  0  0  0
    0.1500   14.2870  -10.4840 H   0  0  0  0  0  0  0  0  0  0  0  0
   -1.4710   14.1350  -12.3320 H   0  0  0  0  0  0  0  0  0  0  0  0
   -0.1050   13.7630  -13.4980 H   0  0  0  0  0  0  0  0  0  0  0  0
    1.4960   15.4420  -14.0430 H   0  0  0  0  0  0  0  0  0  0  0  0
    1.7020   16.8780  -12.9840 H   0  0  0  0  0  0  0  0  0  0  0  0
    2.5490   15.6570  -11.2280 H   0  0  0  0  0  0  0  0  0  0  0  0
    3.3390   14.9740  -12.6480 H   0  0  0  0  0  0  0  0  0  0  0  0
   -3.7620   18.1490  -13.2500 H   0  0  0  0  0  0  0  0  0  0  0  0
   -2.2300   16.2870  -13.9470 H   0  0  0  0  0  0  0  0  0  0  0  0
    2.4900   14.2630   -9.9020 H   0  0  0  0  0  0  0  0  0  0  0  0
  1  2  1  0  0  0  0
  2  3  2  0  0  0  0
  2  7  1  0  0  0  0
  3  4  1  0  0  0  0
  4 25  1  0  0  0  0
  4  5  2  0  0  0  0
  5  8  1  0  0  0  0
  6  5  1  0  0  0  0
  6 26  1  0  0  0  0
  7  6  2  0  0  0  0
  8  9  1  0  0  0  0
  8 23  1  0  0  0  0
  9 28  1  0  0  0  0
  9 29  1  0  0  0  0
 10 30  1  0  0  0  0
 10  9  1  0  0  0  0
 11 10  1  0  0  0  0
 11 14  1  0  0  0  0
 12 11  1  0  0  0  0
 12 13  1  0  0  0  0
 13  8  1  0  0  0  0
 13 34  1  0  0  0  0
 14 15  2  0  0  0  0
 15 16  1  0  0  0  0
 16 17  1  0  0  0  0
 18 17  2  0  0  0  0
 19 18  1  0  0  0  0
 20 19  2  0  0  0  0
 20 16  1  0  0  0  0
 21 20  1  0  0  0  0
 22 21  2  0  0  0  0
 22 14  1  0  0  0  0
 23 38  1  0  0  0  0
 24  3  1  0  0  0  0
 27  7  1  0  0  0  0
 31 10  1  0  0  0  0
 32 12  1  0  0  0  0
 33 12  1  0  0  0  0
 35 13  1  0  0  0  0
 36 21  1  0  0  0  0
 37 22  1  0  0  0  0
M  END
>  <Pose>
1

>  <Score>
-6.49

$$$$
