
 OpenBabel03232203513D

 50 53  0  0  1  0  0  0  0  0999 V2000
   -2.1710    6.6170  -14.5070 S   0  0  0  0  0  0  0  0  0  0  0  0
   -2.0220    5.2600  -13.8930 O   0  0  0  0  0  0  0  0  0  0  0  0
   -2.0010    6.4390  -15.9960 O   0  0  0  0  0  0  0  0  0  0  0  0
   -3.7190    7.2480  -14.2180 N   0  0  0  0  0  0  0  0  0  0  0  0
   -4.6200    7.1910  -15.3060 C   0  0  0  0  0  0  0  0  0  0  0  0
   -5.7210    8.2180  -15.2740 C   0  0  0  0  0  0  0  0  0  0  0  0
   -5.2660    9.5220  -14.8810 N   0  0  0  0  0  0  0  0  0  0  0  0
   -3.9390    9.6110  -14.3260 C   0  0  0  0  0  0  0  0  0  0  0  0
   -3.7690    8.4090  -13.4000 C   0  0  0  0  0  0  0  0  0  0  0  0
   -6.1030   10.6390  -15.0390 C   0  0  0  0  0  0  0  0  0  0  0  0
   -5.6100   11.6560  -15.6020 O   0  0  0  0  0  0  0  0  0  0  0  0
   -7.5210   10.6940  -14.5870 C   0  0  2  0  0  0  0  0  0  0  0  0
   -8.3420   11.3850  -15.5110 N   0  0  0  0  0  0  0  0  0  0  0  0
   -8.4730   12.7930  -15.3190 C   0  0  2  0  0  0  0  0  0  0  0  0
   -8.3260   12.9660  -13.5290 S   0  0  0  0  0  0  0  0  0  0  0  0
   -7.6620   11.2830  -13.2150 C   0  0  0  0  0  0  0  0  0  0  0  0
   -9.9260   13.0450  -15.6750 C   0  0  0  0  0  0  0  0  0  0  0  0
   -9.9930   12.2470  -16.9830 C   0  0  0  0  0  0  0  0  0  0  0  0
   -9.1470   11.0960  -16.6780 C   0  0  0  0  0  0  0  0  0  0  0  0
   -9.1480   10.0250  -17.3560 O   0  0  0  0  0  0  0  0  0  0  0  0
   -7.5470   13.6490  -16.0860 C   0  0  0  0  0  0  0  0  0  0  0  0
   -0.8800    7.6910  -13.9800 C   0  0  0  0  0  0  0  0  0  0  0  0
    0.4400    7.3320  -14.1430 C   0  0  0  0  0  0  0  0  0  0  0  0
    1.4720    8.1470  -13.7420 C   0  0  0  0  0  0  0  0  0  0  0  0
    1.2300    9.3740  -13.1500 C   0  0  0  0  0  0  0  0  0  0  0  0
   -0.1060    9.7070  -12.9990 C   0  0  0  0  0  0  0  0  0  0  0  0
   -1.1460    8.9040  -13.3960 C   0  0  0  0  0  0  0  0  0  0  0  0
    2.5200   10.4360  -12.6260 Cl  0  0  0  0  0  0  0  0  0  0  0  0
   -5.0250    6.1650  -15.4180 H   0  0  0  0  0  0  0  0  0  0  0  0
   -4.0350    7.3900  -16.2470 H   0  0  0  0  0  0  0  0  0  0  0  0
   -6.5270    7.8150  -14.6220 H   0  0  0  0  0  0  0  0  0  0  0  0
   -6.1930    8.2660  -16.2990 H   0  0  0  0  0  0  0  0  0  0  0  0
   -3.7580   10.5570  -13.7830 H   0  0  0  0  0  0  0  0  0  0  0  0
   -3.2240    9.4980  -15.1740 H   0  0  0  0  0  0  0  0  0  0  0  0
   -4.5510    8.3850  -12.6400 H   0  0  0  0  0  0  0  0  0  0  0  0
   -2.7930    8.4910  -12.8540 H   0  0  0  0  0  0  0  0  0  0  0  0
   -7.8480    9.6370  -14.4850 H   0  0  0  0  0  0  0  0  0  0  0  0
   -8.3950   10.7680  -12.5730 H   0  0  0  0  0  0  0  0  0  0  0  0
   -6.7110   11.3480  -12.6480 H   0  0  0  0  0  0  0  0  0  0  0  0
  -10.5310   12.5570  -14.8780 H   0  0  0  0  0  0  0  0  0  0  0  0
  -10.1540   14.0990  -15.8250 H   0  0  0  0  0  0  0  0  0  0  0  0
  -11.0600   11.9570  -17.1510 H   0  0  0  0  0  0  0  0  0  0  0  0
   -9.5750   12.8690  -17.7800 H   0  0  0  0  0  0  0  0  0  0  0  0
   -8.0500   14.6490  -16.2450 H   0  0  0  0  0  0  0  0  0  0  0  0
   -6.6120   13.9110  -15.5210 H   0  0  0  0  0  0  0  0  0  0  0  0
   -7.3310   13.2770  -17.1050 H   0  0  0  0  0  0  0  0  0  0  0  0
    0.6500    6.3620  -14.6110 H   0  0  0  0  0  0  0  0  0  0  0  0
    2.5120    7.8490  -13.8780 H   0  0  0  0  0  0  0  0  0  0  0  0
   -0.2700   10.6820  -12.5280 H   0  0  0  0  0  0  0  0  0  0  0  0
   -2.1540    9.2310  -13.2450 H   0  0  0  0  0  0  0  0  0  0  0  0
  1  4  1  0  0  0  0
  1 22  1  0  0  0  0
  1  2  2  0  0  0  0
  3  1  2  0  0  0  0
  4  9  1  0  0  0  0
  5  6  1  0  0  0  0
  5  4  1  0  0  0  0
  6  7  1  0  0  0  0
  6 31  1  0  0  0  0
  7  8  1  0  0  0  0
  8 33  1  0  0  0  0
  8  9  1  0  0  0  0
  9 36  1  0  0  0  0
  9 35  1  0  0  0  0
 10  7  1  0  0  0  0
 10 12  1  0  0  0  0
 11 10  2  0  0  0  0
 12 37  1  1  0  0  0
 12 16  1  0  0  0  0
 13 14  1  0  0  0  0
 13 12  1  0  0  0  0
 14 21  1  6  0  0  0
 14 15  1  0  0  0  0
 15 16  1  0  0  0  0
 16 39  1  0  0  0  0
 16 38  1  0  0  0  0
 17 14  1  0  0  0  0
 17 40  1  0  0  0  0
 18 19  1  0  0  0  0
 18 17  1  0  0  0  0
 19 13  1  0  0  0  0
 20 19  2  0  0  0  0
 21 45  1  0  0  0  0
 22 27  1  0  0  0  0
 23 22  2  0  0  0  0
 23 24  1  0  0  0  0
 24 25  2  0  0  0  0
 25 26  1  0  0  0  0
 25 28  1  0  0  0  0
 26 49  1  0  0  0  0
 27 50  1  0  0  0  0
 27 26  2  0  0  0  0
 29  5  1  0  0  0  0
 30  5  1  0  0  0  0
 32  6  1  0  0  0  0
 34  8  1  0  0  0  0
 41 17  1  0  0  0  0
 42 18  1  0  0  0  0
 43 18  1  0  0  0  0
 44 21  1  0  0  0  0
 46 21  1  0  0  0  0
 47 23  1  0  0  0  0
 48 24  1  0  0  0  0
M  END
>  <Pose>
1

>  <Score>
-4.84

$$$$
