
 OpenBabel03232203513D

 44 47  0  0  1  0  0  0  0  0999 V2000
   -5.0310   18.6220  -15.0960 B   0  0  0  0  0  0  0  0  0  0  0  0
   -3.9550   18.5800  -13.5140 C   0  0  0  0  0  0  0  0  0  0  0  0
   -2.8360   17.7780  -13.4190 C   0  0  0  0  0  0  0  0  0  0  0  0
   -2.0480   17.7400  -12.2810 C   0  0  0  0  0  0  0  0  0  0  0  0
   -2.4400   18.5500  -11.2370 C   0  0  0  0  0  0  0  0  0  0  0  0
   -3.5490   19.3620  -11.2930 C   0  0  0  0  0  0  0  0  0  0  0  0
   -4.3270   19.3880  -12.4400 C   0  0  0  0  0  0  0  0  0  0  0  0
   -4.0370   20.4620   -9.8080 B   0  0  0  0  0  0  0  0  0  0  0  0
   -0.9340   16.8190  -12.4460 C   0  0  0  0  0  0  0  0  0  0  0  0
    0.0060   16.5060  -11.6350 N   0  0  0  0  0  0  0  0  0  0  0  0
    1.0120   15.5900  -11.9590 N   0  0  0  0  0  0  0  0  0  0  0  0
    1.5940   14.8450  -10.9090 C   0  0  0  0  0  0  0  0  0  0  0  0
    1.2760   15.0690   -9.7220 O   0  0  0  0  0  0  0  0  0  0  0  0
    2.6040   13.7680  -11.1560 C   0  0  0  0  0  0  0  0  0  0  0  0
    2.5730   13.3040  -12.5150 N   0  0  0  0  0  0  0  0  0  0  0  0
    1.9420   12.0900  -12.9020 C   0  0  0  0  0  0  0  0  0  0  0  0
    0.8000   12.1500  -13.4090 O   0  0  0  0  0  0  0  0  0  0  0  0
    2.5700   10.7450  -12.7350 C   0  0  2  0  0  0  0  0  0  0  0  0
    2.1740    9.8560  -13.7380 O   0  0  0  0  0  0  0  0  0  0  0  0
    1.3380    8.7590  -13.5460 C   0  0  0  0  0  0  0  0  0  0  0  0
    1.1910    8.3080  -12.2600 C   0  0  0  0  0  0  0  0  0  0  0  0
    0.3610    7.2090  -12.0380 C   0  0  0  0  0  0  0  0  0  0  0  0
   -0.3070    6.5700  -13.0570 C   0  0  0  0  0  0  0  0  0  0  0  0
   -0.1350    7.0530  -14.3400 C   0  0  0  0  0  0  0  0  0  0  0  0
    0.6830    8.1360  -14.5650 C   0  0  0  0  0  0  0  0  0  0  0  0
    1.8520    8.9360  -11.2410 O   0  0  0  0  0  0  0  0  0  0  0  0
    2.4200   10.2120  -11.3540 C   0  0  0  0  0  0  0  0  0  0  0  0
   -1.0750   16.2650  -13.7970 C   0  0  0  0  0  0  0  0  0  0  0  0
   -0.2820   15.4220  -14.2960 O   0  0  0  0  0  0  0  0  0  0  0  0
   -2.2310   16.8730  -14.3370 N   0  0  0  0  0  0  0  0  0  0  0  0
   -1.8590   18.5540  -10.3300 H   0  0  0  0  0  0  0  0  0  0  0  0
   -5.1890   20.0110  -12.5060 H   0  0  0  0  0  0  0  0  0  0  0  0
    1.2800   15.5080  -12.9620 H   0  0  0  0  0  0  0  0  0  0  0  0
    3.5930   14.2390  -10.9660 H   0  0  0  0  0  0  0  0  0  0  0  0
    2.4940   12.9400  -10.4200 H   0  0  0  0  0  0  0  0  0  0  0  0
    3.0210   13.8520  -13.2870 H   0  0  0  0  0  0  0  0  0  0  0  0
    3.6690   10.9330  -12.9150 H   0  0  0  0  0  0  0  0  0  0  0  0
    0.2610    6.8710  -11.0140 H   0  0  0  0  0  0  0  0  0  0  0  0
   -0.9410    5.7230  -12.8410 H   0  0  0  0  0  0  0  0  0  0  0  0
   -0.6740    6.5360  -15.1520 H   0  0  0  0  0  0  0  0  0  0  0  0
    0.8010    8.4920  -15.5790 H   0  0  0  0  0  0  0  0  0  0  0  0
    3.4240   10.1980  -10.8270 H   0  0  0  0  0  0  0  0  0  0  0  0
    1.7830   10.9060  -10.7570 H   0  0  0  0  0  0  0  0  0  0  0  0
   -2.5970   16.6850  -15.2860 H   0  0  0  0  0  0  0  0  0  0  0  0
  1  2  1  0  0  0  0
  2  3  2  0  0  0  0
  2  7  1  0  0  0  0
  3  4  1  0  0  0  0
  4  5  2  0  0  0  0
  5 31  1  0  0  0  0
  6  5  1  0  0  0  0
  6  8  1  0  0  0  0
  7  6  2  0  0  0  0
  9  4  1  0  0  0  0
  9 10  2  0  0  0  0
 11 10  1  0  0  0  0
 11 12  1  0  0  0  0
 12 13  2  0  0  0  0
 14 34  1  0  0  0  0
 14 12  1  0  0  0  0
 14 35  1  0  0  0  0
 15 14  1  0  0  0  0
 16 18  1  0  0  0  0
 16 15  1  0  0  0  0
 17 16  2  0  0  0  0
 18 37  1  6  0  0  0
 18 27  1  0  0  0  0
 19 20  1  0  0  0  0
 19 18  1  0  0  0  0
 20 21  1  0  0  0  0
 21 22  2  0  0  0  0
 21 26  1  0  0  0  0
 22 38  1  0  0  0  0
 23 39  1  0  0  0  0
 23 22  1  0  0  0  0
 24 23  2  0  0  0  0
 25 24  1  0  0  0  0
 25 20  2  0  0  0  0
 27 26  1  0  0  0  0
 27 42  1  0  0  0  0
 27 43  1  0  0  0  0
 28  9  1  0  0  0  0
 29 28  2  0  0  0  0
 30 28  1  0  0  0  0
 30  3  1  0  0  0  0
 32  7  1  0  0  0  0
 33 11  1  0  0  0  0
 36 15  1  0  0  0  0
 40 24  1  0  0  0  0
 41 25  1  0  0  0  0
 44 30  1  0  0  0  0
M  END
>  <Pose>
1

>  <Score>
-7.20

$$$$
