
 OpenBabel03232203513D

 39 42  0  0  0  0  0  0  0  0999 V2000
   -0.6970   16.0900  -14.1130 Cl  0  0  0  0  0  0  0  0  0  0  0  0
   -1.5580   17.2160  -13.0740 C   0  0  0  0  0  0  0  0  0  0  0  0
   -1.0080   17.4930  -11.8390 C   0  0  0  0  0  0  0  0  0  0  0  0
   -1.6980   18.3790  -11.0400 C   0  0  0  0  0  0  0  0  0  0  0  0
   -2.8740   18.9850  -11.3950 C   0  0  0  0  0  0  0  0  0  0  0  0
   -3.3910   18.6720  -12.6580 C   0  0  0  0  0  0  0  0  0  0  0  0
   -2.7500   17.7990  -13.4970 C   0  0  0  0  0  0  0  0  0  0  0  0
   -3.5860   19.9190  -10.5350 C   0  0  0  0  0  0  0  0  0  0  0  0
   -3.1280   20.9880   -9.8770 N   0  0  0  0  0  0  0  0  0  0  0  0
   -4.1430   21.5560   -9.2070 N   0  0  0  0  0  0  0  0  0  0  0  0
   -5.2360   20.8510   -9.4380 N   0  0  0  0  0  0  0  0  0  0  0  0
   -4.8970   19.8490  -10.2530 N   0  0  0  0  0  0  0  0  0  0  0  0
    0.2550   16.8770  -11.3920 C   0  0  0  0  0  0  0  0  0  0  0  0
    1.1570   17.6480  -10.9920 O   0  0  0  0  0  0  0  0  0  0  0  0
    0.4830   15.4990  -11.3930 N   0  0  0  0  0  0  0  0  0  0  0  0
    1.3540   14.7050  -12.1580 C   0  0  0  0  0  0  0  0  0  0  0  0
    2.2640   13.7450  -11.5200 C   0  0  0  0  0  0  0  0  0  0  0  0
    2.9210   12.7230  -12.3310 C   0  0  0  0  0  0  0  0  0  0  0  0
    2.3460   11.7480  -13.0430 N   0  0  0  0  0  0  0  0  0  0  0  0
    3.2980   11.0700  -13.6630 C   0  0  0  0  0  0  0  0  0  0  0  0
    4.4730   11.6240  -13.3360 N   0  0  0  0  0  0  0  0  0  0  0  0
    4.2410   12.6240  -12.5300 N   0  0  0  0  0  0  0  0  0  0  0  0
    3.0280    9.9950  -14.4830 C   0  0  0  0  0  0  0  0  0  0  0  0
    1.7020    9.6360  -14.6430 C   0  0  0  0  0  0  0  0  0  0  0  0
    0.7250   10.3430  -13.9970 C   0  0  0  0  0  0  0  0  0  0  0  0
    1.0540   11.3990  -13.1990 C   0  0  0  0  0  0  0  0  0  0  0  0
   -1.2690   18.5980  -10.0730 H   0  0  0  0  0  0  0  0  0  0  0  0
   -4.3280   19.1630  -12.9260 H   0  0  0  0  0  0  0  0  0  0  0  0
   -3.1670   17.5700  -14.4680 H   0  0  0  0  0  0  0  0  0  0  0  0
   -4.0980   22.4070   -8.6010 H   0  0  0  0  0  0  0  0  0  0  0  0
   -0.1250   14.9630  -10.6760 H   0  0  0  0  0  0  0  0  0  0  0  0
    0.7360   14.1250  -12.9320 H   0  0  0  0  0  0  0  0  0  0  0  0
    1.9750   15.3560  -12.8550 H   0  0  0  0  0  0  0  0  0  0  0  0
    1.7450   13.2660  -10.6220 H   0  0  0  0  0  0  0  0  0  0  0  0
    3.1000   14.3130  -10.9910 H   0  0  0  0  0  0  0  0  0  0  0  0
    3.8220    9.4720  -14.9660 H   0  0  0  0  0  0  0  0  0  0  0  0
    1.4310    8.8110  -15.2650 H   0  0  0  0  0  0  0  0  0  0  0  0
   -0.3160   10.0890  -14.1010 H   0  0  0  0  0  0  0  0  0  0  0  0
    0.3040   11.9820  -12.6720 H   0  0  0  0  0  0  0  0  0  0  0  0
  1  2  1  0  0  0  0
  2  3  1  0  0  0  0
  3 13  1  0  0  0  0
  3  4  2  0  0  0  0
  4 27  1  0  0  0  0
  5  4  1  0  0  0  0
  5  8  1  0  0  0  0
  6  5  2  0  0  0  0
  7  2  2  0  0  0  0
  7  6  1  0  0  0  0
  8 12  1  0  0  0  0
  8  9  2  0  0  0  0
  9 10  1  0  0  0  0
 10 30  1  0  0  0  0
 11 10  1  0  0  0  0
 12 11  2  0  0  0  0
 13 14  2  0  0  0  0
 15 13  1  0  0  0  0
 15 31  1  0  0  0  0
 16 17  1  0  0  0  0
 16 15  1  0  0  0  0
 17 35  1  0  0  0  0
 17 34  1  0  0  0  0
 18 17  1  0  0  0  0
 19 18  1  0  0  0  0
 20 21  2  0  0  0  0
 20 19  1  0  0  0  0
 21 22  1  0  0  0  0
 22 18  2  0  0  0  0
 23 20  1  0  0  0  0
 24 23  2  0  0  0  0
 24 25  1  0  0  0  0
 25 26  2  0  0  0  0
 26 19  1  0  0  0  0
 26 39  1  0  0  0  0
 28  6  1  0  0  0  0
 29  7  1  0  0  0  0
 32 16  1  0  0  0  0
 33 16  1  0  0  0  0
 36 23  1  0  0  0  0
 37 24  1  0  0  0  0
 38 25  1  0  0  0  0
M  END
>  <Pose>
1

>  <Score>
-7.56

$$$$
