
 OpenBabel03232203513D

 53 55  0  0  1  0  0  0  0  0999 V2000
    1.7800   14.6220  -12.1930 S   0  0  0  0  0  0  0  0  0  0  0  0
    1.9910   14.7690  -10.6850 O   0  0  0  0  0  0  0  0  0  0  0  0
    2.9410   15.4120  -12.8090 O   0  0  0  0  0  0  0  0  0  0  0  0
    1.9460   12.9730  -12.5460 N   0  0  0  0  0  0  0  0  0  0  0  0
    1.5560   12.5560  -13.8450 C   0  0  0  0  0  0  0  0  0  0  0  0
    1.7680   11.0790  -14.0870 C   0  0  1  0  0  0  0  0  0  0  0  0
    3.1860   10.7060  -13.8220 C   0  0  0  0  0  0  0  0  0  0  0  0
    3.6610   11.2230  -12.4750 C   0  0  0  0  0  0  0  0  0  0  0  0
    3.3870   12.6840  -12.3950 C   0  0  0  0  0  0  0  0  0  0  0  0
    0.7620   10.2110  -13.4420 C   0  0  0  0  0  0  0  0  0  0  0  0
   -0.3880   10.7560  -13.2540 O   0  0  0  0  0  0  0  0  0  0  0  0
    0.9200    8.8960  -13.0270 N   0  0  0  0  0  0  0  0  0  0  0  0
    1.5750    8.5650  -11.8010 C   0  0  0  0  0  0  0  0  0  0  0  0
    0.9760    7.3810  -11.0940 C   0  0  0  0  0  0  0  0  0  0  0  0
    0.2950    6.5090  -11.8850 O   0  0  0  0  0  0  0  0  0  0  0  0
   -0.5120    7.0550  -12.8620 C   0  0  0  0  0  0  0  0  0  0  0  0
    0.4460    7.7860  -13.8180 C   0  0  0  0  0  0  0  0  0  0  0  0
    0.3180   15.3870  -12.6540 C   0  0  0  0  0  0  0  0  0  0  0  0
   -0.4220   14.9830  -13.7380 C   0  0  0  0  0  0  0  0  0  0  0  0
   -1.6310   15.6010  -14.0210 C   0  0  0  0  0  0  0  0  0  0  0  0
   -2.1210   16.6400  -13.2250 C   0  0  0  0  0  0  0  0  0  0  0  0
   -1.3870   17.0580  -12.1370 C   0  0  0  0  0  0  0  0  0  0  0  0
   -0.1920   16.4320  -11.8730 C   0  0  0  0  0  0  0  0  0  0  0  0
   -1.8740   18.1400  -11.2920 C   0  0  0  0  0  0  0  0  0  0  0  0
   -1.1350   18.8780  -10.4470 N   0  0  0  0  0  0  0  0  0  0  0  0
   -1.8910   19.7580   -9.8490 O   0  0  0  0  0  0  0  0  0  0  0  0
   -3.1180   19.6250  -10.2760 C   0  0  0  0  0  0  0  0  0  0  0  0
   -3.1220   18.6210  -11.1740 N   0  0  0  0  0  0  0  0  0  0  0  0
   -4.3140   20.4330   -9.8530 C   0  0  0  0  0  0  0  0  0  0  0  0
    0.1110   13.7540  -14.8650 Cl  0  0  0  0  0  0  0  0  0  0  0  0
    0.4760   12.7920  -14.0560 H   0  0  0  0  0  0  0  0  0  0  0  0
    2.1490   13.1010  -14.5990 H   0  0  0  0  0  0  0  0  0  0  0  0
    1.6220   10.9540  -15.2040 H   0  0  0  0  0  0  0  0  0  0  0  0
    3.8200   11.2100  -14.5860 H   0  0  0  0  0  0  0  0  0  0  0  0
    3.3400    9.6160  -13.8750 H   0  0  0  0  0  0  0  0  0  0  0  0
    3.0890   10.7050  -11.6860 H   0  0  0  0  0  0  0  0  0  0  0  0
    4.7430   11.0590  -12.4360 H   0  0  0  0  0  0  0  0  0  0  0  0
    3.9050   13.2140  -13.2440 H   0  0  0  0  0  0  0  0  0  0  0  0
    3.7520   13.0690  -11.4280 H   0  0  0  0  0  0  0  0  0  0  0  0
    1.6060    9.4080  -11.0770 H   0  0  0  0  0  0  0  0  0  0  0  0
    2.6520    8.3480  -12.0530 H   0  0  0  0  0  0  0  0  0  0  0  0
    0.3040    7.7040  -10.2450 H   0  0  0  0  0  0  0  0  0  0  0  0
    1.8120    6.8330  -10.6060 H   0  0  0  0  0  0  0  0  0  0  0  0
   -1.1610    7.8270  -12.3700 H   0  0  0  0  0  0  0  0  0  0  0  0
   -1.0720    6.2680  -13.3570 H   0  0  0  0  0  0  0  0  0  0  0  0
    0.0150    8.0180  -14.7790 H   0  0  0  0  0  0  0  0  0  0  0  0
    1.3490    7.1020  -13.9150 H   0  0  0  0  0  0  0  0  0  0  0  0
   -2.2020   15.2700  -14.8730 H   0  0  0  0  0  0  0  0  0  0  0  0
   -3.0640   17.1170  -13.4530 H   0  0  0  0  0  0  0  0  0  0  0  0
    0.3630   16.7790  -11.0150 H   0  0  0  0  0  0  0  0  0  0  0  0
   -3.9690   21.2280   -9.1740 H   0  0  0  0  0  0  0  0  0  0  0  0
   -4.7910   20.8050  -10.7770 H   0  0  0  0  0  0  0  0  0  0  0  0
   -5.0060   19.7170   -9.3530 H   0  0  0  0  0  0  0  0  0  0  0  0
  1  2  2  0  0  0  0
  3  1  2  0  0  0  0
  4  9  1  0  0  0  0
  4  1  1  0  0  0  0
  5  4  1  0  0  0  0
  6 33  1  6  0  0  0
  6  5  1  0  0  0  0
  6  7  1  0  0  0  0
  6 10  1  0  0  0  0
  7  8  1  0  0  0  0
  8 37  1  0  0  0  0
  8  9  1  0  0  0  0
  8 36  1  0  0  0  0
  9 39  1  0  0  0  0
 10 11  2  0  0  0  0
 10 12  1  0  0  0  0
 12 13  1  0  0  0  0
 13 14  1  0  0  0  0
 13 40  1  0  0  0  0
 14 43  1  0  0  0  0
 14 42  1  0  0  0  0
 15 14  1  0  0  0  0
 16 44  1  0  0  0  0
 16 15  1  0  0  0  0
 17 12  1  0  0  0  0
 17 16  1  0  0  0  0
 18  1  1  0  0  0  0
 18 23  1  0  0  0  0
 19 18  2  0  0  0  0
 20 19  1  0  0  0  0
 20 21  2  0  0  0  0
 21 22  1  0  0  0  0
 22 23  2  0  0  0  0
 22 24  1  0  0  0  0
 23 50  1  0  0  0  0
 24 28  1  0  0  0  0
 24 25  2  0  0  0  0
 25 26  1  0  0  0  0
 27 29  1  0  0  0  0
 27 26  1  0  0  0  0
 28 27  2  0  0  0  0
 29 53  1  0  0  0  0
 29 51  1  0  0  0  0
 31  5  1  0  0  0  0
 32  5  1  0  0  0  0
 34  7  1  0  0  0  0
 35  7  1  0  0  0  0
 38  9  1  0  0  0  0
 41 13  1  0  0  0  0
 45 16  1  0  0  0  0
 46 17  1  0  0  0  0
 47 17  1  0  0  0  0
 48 20  1  0  0  0  0
 49 21  1  0  0  0  0
 52 29  1  0  0  0  0
M  END
>  <Pose>
1

>  <Score>
-6.30

$$$$
