
 OpenBabel03232203513D

 67 70  0  0  1  0  0  0  0  0999 V2000
    0.4310   11.6300  -13.9650 S   0  0  0  0  0  0  0  0  0  0  0  0
    0.9430   12.0310  -15.3470 O   0  0  0  0  0  0  0  0  0  0  0  0
   -1.0220   12.0890  -13.9780 O   0  0  0  0  0  0  0  0  0  0  0  0
    1.2500   12.5110  -12.8190 N   0  0  0  0  0  0  0  0  0  0  0  0
    0.8000   13.7980  -12.4640 C   0  0  0  0  0  0  0  0  0  0  0  0
    1.8350   14.8820  -12.6770 C   0  0  2  0  0  0  0  0  0  0  0  0
    3.2350   14.4120  -12.5840 C   0  0  0  0  0  0  0  0  0  0  0  0
    3.4640   13.0920  -11.9420 C   0  0  0  0  0  0  0  0  0  0  0  0
    2.4230   12.0400  -12.2260 C   0  0  0  0  0  0  0  0  0  0  0  0
    1.6130   16.0170  -11.7440 C   0  0  0  0  0  0  0  0  0  0  0  0
    2.5450   16.8440  -11.5920 O   0  0  0  0  0  0  0  0  0  0  0  0
    0.3580   16.1520  -11.0410 N   0  0  0  0  0  0  0  0  0  0  0  0
   -0.2770   17.4190  -11.0780 C   0  0  0  0  0  0  0  0  0  0  0  0
   -1.5870   17.5470  -11.7580 C   0  0  0  0  0  0  0  0  0  0  0  0
   -2.2390   18.8030  -11.7730 N   0  0  0  0  0  0  0  0  0  0  0  0
   -2.5490   19.4020  -10.5580 C   0  0  0  0  0  0  0  0  0  0  0  0
   -4.0070   19.5540  -10.2350 C   0  0  0  0  0  0  0  0  0  0  0  0
   -4.7640   19.9090  -11.3410 O   0  0  0  0  0  0  0  0  0  0  0  0
   -4.6620   18.8520  -12.2450 C   0  0  0  0  0  0  0  0  0  0  0  0
   -3.2550   18.8810  -12.7960 C   0  0  0  0  0  0  0  0  0  0  0  0
    0.4540    9.9140  -13.7940 C   0  0  0  0  0  0  0  0  0  0  0  0
   -0.7060    9.1780  -13.9800 C   0  0  0  0  0  0  0  0  0  0  0  0
   -0.7380    7.8090  -13.8690 C   0  0  0  0  0  0  0  0  0  0  0  0
    0.4450    7.1300  -13.5540 C   0  0  0  0  0  0  0  0  0  0  0  0
    1.5740    7.8580  -13.3730 C   0  0  0  0  0  0  0  0  0  0  0  0
    1.6050    9.2380  -13.4860 C   0  0  0  0  0  0  0  0  0  0  0  0
    3.2720   10.1680  -13.2010 B   0  0  0  0  0  0  0  0  0  0  0  0
    0.1960    5.6640  -13.4800 C   0  0  0  0  0  0  0  0  0  0  0  0
   -1.3000    5.6210  -13.2460 C   0  0  0  0  0  0  0  0  0  0  0  0
   -1.7290    6.8010  -14.0060 N   0  0  0  0  0  0  0  0  0  0  0  0
   -2.9220    6.8560  -14.7240 C   0  0  0  0  0  0  0  0  0  0  0  0
   -3.2660    5.8660  -15.4580 O   0  0  0  0  0  0  0  0  0  0  0  0
   -3.8380    7.9940  -14.7030 C   0  0  0  0  0  0  0  0  0  0  0  0
   -5.0980    7.7300  -15.5240 C   0  0  0  0  0  0  0  0  0  0  0  0
    0.5720   13.8020  -11.3580 H   0  0  0  0  0  0  0  0  0  0  0  0
   -0.1550   14.0130  -12.9700 H   0  0  0  0  0  0  0  0  0  0  0  0
    1.6340   15.2640  -13.7230 H   0  0  0  0  0  0  0  0  0  0  0  0
    3.8350   15.1630  -11.9840 H   0  0  0  0  0  0  0  0  0  0  0  0
    3.6900   14.3730  -13.6060 H   0  0  0  0  0  0  0  0  0  0  0  0
    4.4310   12.6750  -12.3310 H   0  0  0  0  0  0  0  0  0  0  0  0
    3.6540   13.2310  -10.8460 H   0  0  0  0  0  0  0  0  0  0  0  0
    2.8140   11.1540  -12.7580 H   0  0  0  0  0  0  0  0  0  0  0  0
    2.1440   11.6240  -11.2050 H   0  0  0  0  0  0  0  0  0  0  0  0
    0.0330   15.3090  -10.5600 H   0  0  0  0  0  0  0  0  0  0  0  0
    0.4300   18.1120  -11.6170 H   0  0  0  0  0  0  0  0  0  0  0  0
   -0.3350   17.7710   -9.9960 H   0  0  0  0  0  0  0  0  0  0  0  0
   -1.4870   17.1690  -12.8380 H   0  0  0  0  0  0  0  0  0  0  0  0
   -2.2800   16.7420  -11.3300 H   0  0  0  0  0  0  0  0  0  0  0  0
   -2.1920   20.5020  -10.6530 H   0  0  0  0  0  0  0  0  0  0  0  0
   -1.9340   19.0450   -9.7200 H   0  0  0  0  0  0  0  0  0  0  0  0
   -4.4000   18.5900   -9.8710 H   0  0  0  0  0  0  0  0  0  0  0  0
   -4.1840   20.3050   -9.4400 H   0  0  0  0  0  0  0  0  0  0  0  0
   -4.9550   17.9020  -11.7950 H   0  0  0  0  0  0  0  0  0  0  0  0
   -5.3420   19.0120  -13.1230 H   0  0  0  0  0  0  0  0  0  0  0  0
   -3.1330   19.9020  -13.2640 H   0  0  0  0  0  0  0  0  0  0  0  0
   -3.0920   18.1690  -13.6180 H   0  0  0  0  0  0  0  0  0  0  0  0
   -1.6460    9.6510  -14.2250 H   0  0  0  0  0  0  0  0  0  0  0  0
    2.5160    7.3560  -13.1250 H   0  0  0  0  0  0  0  0  0  0  0  0
    0.4920    5.1210  -14.3800 H   0  0  0  0  0  0  0  0  0  0  0  0
    0.6980    5.2390  -12.5930 H   0  0  0  0  0  0  0  0  0  0  0  0
   -1.7570    4.6940  -13.6460 H   0  0  0  0  0  0  0  0  0  0  0  0
   -1.5330    5.6830  -12.1830 H   0  0  0  0  0  0  0  0  0  0  0  0
   -4.1630    8.1040  -13.6200 H   0  0  0  0  0  0  0  0  0  0  0  0
   -3.4190    8.9490  -15.0280 H   0  0  0  0  0  0  0  0  0  0  0  0
   -5.9750    8.1030  -14.9730 H   0  0  0  0  0  0  0  0  0  0  0  0
   -5.1520    6.6360  -15.7170 H   0  0  0  0  0  0  0  0  0  0  0  0
   -4.9880    8.2450  -16.4990 H   0  0  0  0  0  0  0  0  0  0  0  0
  1 21  1  0  0  0  0
  1  4  1  0  0  0  0
  2  1  2  0  0  0  0
  3  1  2  0  0  0  0
  4  5  1  0  0  0  0
  4  9  1  0  0  0  0
  5 35  1  0  0  0  0
  6 37  1  6  0  0  0
  6  7  1  0  0  0  0
  6  5  1  0  0  0  0
  6 10  1  0  0  0  0
  7 38  1  0  0  0  0
  7  8  1  0  0  0  0
  8 41  1  0  0  0  0
  9  8  1  0  0  0  0
  9 43  1  0  0  0  0
 10 11  2  0  0  0  0
 10 12  1  0  0  0  0
 12 44  1  0  0  0  0
 13 12  1  0  0  0  0
 13 46  1  0  0  0  0
 14 48  1  0  0  0  0
 14 13  1  0  0  0  0
 15 14  1  0  0  0  0
 15 16  1  0  0  0  0
 16 17  1  0  0  0  0
 16 50  1  0  0  0  0
 17 51  1  0  0  0  0
 17 52  1  0  0  0  0
 18 17  1  0  0  0  0
 19 53  1  0  0  0  0
 19 18  1  0  0  0  0
 20 19  1  0  0  0  0
 20 15  1  0  0  0  0
 21 26  1  0  0  0  0
 22 23  1  0  0  0  0
 22 21  2  0  0  0  0
 23 24  2  0  0  0  0
 24 28  1  0  0  0  0
 24 25  1  0  0  0  0
 25 58  1  0  0  0  0
 26 25  2  0  0  0  0
 26 27  1  0  0  0  0
 28 29  1  0  0  0  0
 28 60  1  0  0  0  0
 29 62  1  0  0  0  0
 30 23  1  0  0  0  0
 30 29  1  0  0  0  0
 31 33  1  0  0  0  0
 31 30  1  0  0  0  0
 32 31  2  0  0  0  0
 33 63  1  0  0  0  0
 34 65  1  0  0  0  0
 34 33  1  0  0  0  0
 36  5  1  0  0  0  0
 39  7  1  0  0  0  0
 40  8  1  0  0  0  0
 42  9  1  0  0  0  0
 45 13  1  0  0  0  0
 47 14  1  0  0  0  0
 49 16  1  0  0  0  0
 54 19  1  0  0  0  0
 55 20  1  0  0  0  0
 56 20  1  0  0  0  0
 57 22  1  0  0  0  0
 59 28  1  0  0  0  0
 61 29  1  0  0  0  0
 64 33  1  0  0  0  0
 66 34  1  0  0  0  0
 67 34  1  0  0  0  0
M  END
>  <Pose>
1

>  <Score>
-6.77

$$$$
