
 OpenBabel03232203513D

 35 38  0  0  1  0  0  0  0  0999 V2000
   -0.9470   16.3750  -12.8120 Cl  0  0  0  0  0  0  0  0  0  0  0  0
    0.0620   14.9300  -12.7930 C   0  0  0  0  0  0  0  0  0  0  0  0
    1.3030   14.9510  -12.1850 C   0  0  0  0  0  0  0  0  0  0  0  0
    2.1050   13.8350  -12.1550 C   0  0  0  0  0  0  0  0  0  0  0  0
    1.6860   12.6350  -12.7430 C   0  0  0  0  0  0  0  0  0  0  0  0
    0.4460   12.6530  -13.3380 C   0  0  0  0  0  0  0  0  0  0  0  0
   -0.3770   13.7530  -13.3820 C   0  0  0  0  0  0  0  0  0  0  0  0
    2.5150   11.4820  -12.7020 N   0  0  0  0  0  0  0  0  0  0  0  0
    2.1960   10.1610  -12.2360 C   0  0  0  0  0  0  0  0  0  0  0  0
    1.1600    9.8930  -11.5780 O   0  0  0  0  0  0  0  0  0  0  0  0
    3.2460    9.1930  -12.6410 C   0  0  1  0  0  0  0  0  0  0  0  0
    2.7640    8.1410  -13.5850 C   0  0  1  0  0  0  0  0  0  0  0  0
    1.6510    8.7510  -14.4110 C   0  0  1  0  0  0  0  0  0  0  0  0
    2.4080    9.8210  -15.1960 C   0  0  1  0  0  0  0  0  0  0  0  0
    3.8690    9.6290  -14.8610 C   0  0  1  0  0  0  0  0  0  0  0  0
    4.2160   10.0480  -13.4660 C   0  0  1  0  0  0  0  0  0  0  0  0
    3.8630   11.4520  -13.1460 C   0  0  0  0  0  0  0  0  0  0  0  0
    4.6500   12.4230  -13.2590 O   0  0  0  0  0  0  0  0  0  0  0  0
    3.8600    8.0960  -14.6640 C   0  0  0  0  0  0  0  0  0  0  0  0
    2.2970    9.6040  -16.5680 O   0  0  0  0  0  0  0  0  0  0  0  0
    1.2230    7.7990  -15.3120 O   0  0  0  0  0  0  0  0  0  0  0  0
    1.6220   15.8860  -11.7320 H   0  0  0  0  0  0  0  0  0  0  0  0
    3.0710   13.8250  -11.6920 H   0  0  0  0  0  0  0  0  0  0  0  0
    0.0820   11.7360  -13.8080 H   0  0  0  0  0  0  0  0  0  0  0  0
   -1.3610   13.7460  -13.8600 H   0  0  0  0  0  0  0  0  0  0  0  0
    3.7920    8.7830  -11.7660 H   0  0  0  0  0  0  0  0  0  0  0  0
    2.5490    7.1750  -13.1660 H   0  0  0  0  0  0  0  0  0  0  0  0
    0.8560    9.1830  -13.7940 H   0  0  0  0  0  0  0  0  0  0  0  0
    2.0370   10.8160  -14.9770 H   0  0  0  0  0  0  0  0  0  0  0  0
    4.5650    9.9390  -15.6350 H   0  0  0  0  0  0  0  0  0  0  0  0
    5.2700    9.7980  -13.2610 H   0  0  0  0  0  0  0  0  0  0  0  0
    4.8060    7.7260  -14.2890 H   0  0  0  0  0  0  0  0  0  0  0  0
    3.4670    7.6180  -15.5820 H   0  0  0  0  0  0  0  0  0  0  0  0
    2.4340   10.4910  -17.0200 H   0  0  0  0  0  0  0  0  0  0  0  0
    1.1410    8.1110  -16.2420 H   0  0  0  0  0  0  0  0  0  0  0  0
  1  2  1  0  0  0  0
  2  3  1  0  0  0  0
  3  4  2  0  0  0  0
  3 22  1  0  0  0  0
  4 23  1  0  0  0  0
  5  8  1  0  0  0  0
  5  4  1  0  0  0  0
  6  5  2  0  0  0  0
  7  6  1  0  0  0  0
  7  2  2  0  0  0  0
  8  9  1  0  0  0  0
  9 10  2  0  0  0  0
 11  9  1  0  0  0  0
 11 26  1  1  0  0  0
 12 27  1  1  0  0  0
 12 11  1  0  0  0  0
 13 28  1  1  0  0  0
 13 12  1  0  0  0  0
 14 29  1  1  0  0  0
 14 15  1  0  0  0  0
 14 13  1  0  0  0  0
 15 30  1  6  0  0  0
 15 19  1  0  0  0  0
 15 16  1  0  0  0  0
 16 31  1  1  0  0  0
 16 17  1  0  0  0  0
 16 11  1  0  0  0  0
 17  8  1  0  0  0  0
 18 17  2  0  0  0  0
 19 32  1  0  0  0  0
 19 12  1  0  0  0  0
 20 14  1  0  0  0  0
 21 13  1  0  0  0  0
 24  6  1  0  0  0  0
 25  7  1  0  0  0  0
 33 19  1  0  0  0  0
 34 20  1  0  0  0  0
 35 21  1  0  0  0  0
M  END
>  <Pose>
1

>  <Score>
-4.21

$$$$
