
 OpenBabel03232203513D

 51 54  0  0  1  0  0  0  0  0999 V2000
   -5.2080    8.1730  -14.6520 Cl  0  0  0  0  0  0  0  0  0  0  0  0
   -3.4690    7.9710  -14.4040 C   0  0  0  0  0  0  0  0  0  0  0  0
   -2.7880    6.9340  -14.9920 C   0  0  0  0  0  0  0  0  0  0  0  0
   -1.4310    6.7920  -14.7880 C   0  0  0  0  0  0  0  0  0  0  0  0
   -0.7210    7.6650  -14.0040 C   0  0  0  0  0  0  0  0  0  0  0  0
   -1.3990    8.6970  -13.4180 C   0  0  0  0  0  0  0  0  0  0  0  0
   -2.7770    8.8580  -13.6140 C   0  0  0  0  0  0  0  0  0  0  0  0
    0.6760    7.4890  -13.8110 N   0  0  0  0  0  0  0  0  0  0  0  0
    1.1480    6.5420  -12.8640 C   0  0  0  0  0  0  0  0  0  0  0  0
    0.2660    5.8760  -12.2160 O   0  0  0  0  0  0  0  0  0  0  0  0
    2.5190    6.3540  -12.6590 N   0  0  0  0  0  0  0  0  0  0  0  0
    3.4680    7.1040  -13.3900 C   0  0  0  0  0  0  0  0  0  0  0  0
    4.6570    6.7360  -13.4520 O   0  0  0  0  0  0  0  0  0  0  0  0
    3.0510    8.3400  -14.0890 C   0  0  1  0  0  0  0  0  0  0  0  0
    1.6410    8.2350  -14.5370 C   0  0  0  0  0  0  0  0  0  0  0  0
    1.3020    8.8180  -15.5810 O   0  0  0  0  0  0  0  0  0  0  0  0
    3.1550    9.5230  -13.1670 C   0  0  0  0  0  0  0  0  0  0  0  0
    3.7730   10.6670  -13.3840 C   0  0  0  0  0  0  0  0  0  0  0  0
    3.6230   11.5580  -12.2060 C   0  0  2  0  0  0  0  0  0  0  0  0
    3.2650   10.6400  -11.1600 N   0  0  0  0  0  0  0  0  0  0  0  0
    2.5990    9.6230  -11.8600 N   0  0  0  0  0  0  0  0  0  0  0  0
    2.6130   12.5650  -12.5070 C   0  0  0  0  0  0  0  0  0  0  0  0
    1.4830   12.1780  -13.1950 C   0  0  0  0  0  0  0  0  0  0  0  0
    0.4700   13.0540  -13.5250 C   0  0  0  0  0  0  0  0  0  0  0  0
    0.6130   14.3930  -13.1360 C   0  0  0  0  0  0  0  0  0  0  0  0
    1.7240   14.8280  -12.4470 C   0  0  0  0  0  0  0  0  0  0  0  0
    2.6970   13.8940  -12.1520 C   0  0  0  0  0  0  0  0  0  0  0  0
    1.8150   16.1410  -12.0930 O   0  0  0  0  0  0  0  0  0  0  0  0
    1.9760   17.2300  -12.9560 C   0  0  0  0  0  0  0  0  0  0  0  0
   -0.3710   15.3060  -13.4410 O   0  0  0  0  0  0  0  0  0  0  0  0
   -0.6730   12.6740  -14.2170 O   0  0  0  0  0  0  0  0  0  0  0  0
   -1.5160   11.7310  -13.5870 C   0  0  0  0  0  0  0  0  0  0  0  0
   -3.3460    6.2490  -15.6080 H   0  0  0  0  0  0  0  0  0  0  0  0
   -0.9180    5.9680  -15.2630 H   0  0  0  0  0  0  0  0  0  0  0  0
   -0.8600    9.3920  -12.8000 H   0  0  0  0  0  0  0  0  0  0  0  0
   -3.3040    9.6720  -13.1500 H   0  0  0  0  0  0  0  0  0  0  0  0
    2.8160    5.6320  -11.9400 H   0  0  0  0  0  0  0  0  0  0  0  0
    3.7490    8.5000  -14.9350 H   0  0  0  0  0  0  0  0  0  0  0  0
    4.3090   10.8880  -14.3150 H   0  0  0  0  0  0  0  0  0  0  0  0
    4.6160   12.0230  -12.0050 H   0  0  0  0  0  0  0  0  0  0  0  0
    2.7280   11.0410  -10.3930 H   0  0  0  0  0  0  0  0  0  0  0  0
    1.8280    9.0450  -11.4700 H   0  0  0  0  0  0  0  0  0  0  0  0
    1.3380   11.1490  -13.5130 H   0  0  0  0  0  0  0  0  0  0  0  0
    3.5790   14.1950  -11.6180 H   0  0  0  0  0  0  0  0  0  0  0  0
    2.7080   17.0360  -13.7710 H   0  0  0  0  0  0  0  0  0  0  0  0
    2.2760   18.1560  -12.4730 H   0  0  0  0  0  0  0  0  0  0  0  0
    1.0040   17.4120  -13.4660 H   0  0  0  0  0  0  0  0  0  0  0  0
   -1.1240   15.4720  -12.7880 H   0  0  0  0  0  0  0  0  0  0  0  0
   -2.3110   11.3910  -14.2720 H   0  0  0  0  0  0  0  0  0  0  0  0
   -1.9090   12.0870  -12.6240 H   0  0  0  0  0  0  0  0  0  0  0  0
   -0.8970   10.8230  -13.3640 H   0  0  0  0  0  0  0  0  0  0  0  0
  1  2  1  0  0  0  0
  2  7  1  0  0  0  0
  3  4  1  0  0  0  0
  3  2  2  0  0  0  0
  4  5  2  0  0  0  0
  5  8  1  0  0  0  0
  5  6  1  0  0  0  0
  6 35  1  0  0  0  0
  7  6  2  0  0  0  0
  7 36  1  0  0  0  0
  8  9  1  0  0  0  0
  9 11  1  0  0  0  0
  9 10  2  0  0  0  0
 11 37  1  0  0  0  0
 12 11  1  0  0  0  0
 13 12  2  0  0  0  0
 14 38  1  6  0  0  0
 14 12  1  0  0  0  0
 14 17  1  0  0  0  0
 15 14  1  0  0  0  0
 15  8  1  0  0  0  0
 16 15  2  0  0  0  0
 17 21  1  0  0  0  0
 18 17  2  0  0  0  0
 18 19  1  0  0  0  0
 19 40  1  1  0  0  0
 19 20  1  0  0  0  0
 20 41  1  0  0  0  0
 21 42  1  0  0  0  0
 21 20  1  0  0  0  0
 22 19  1  0  0  0  0
 22 27  1  0  0  0  0
 23 22  2  0  0  0  0
 24 23  1  0  0  0  0
 24 25  2  0  0  0  0
 25 26  1  0  0  0  0
 26 27  2  0  0  0  0
 26 28  1  0  0  0  0
 27 44  1  0  0  0  0
 29 46  1  0  0  0  0
 29 28  1  0  0  0  0
 30 25  1  0  0  0  0
 30 48  1  0  0  0  0
 31 32  1  0  0  0  0
 31 24  1  0  0  0  0
 32 51  1  0  0  0  0
 32 50  1  0  0  0  0
 33  3  1  0  0  0  0
 34  4  1  0  0  0  0
 39 18  1  0  0  0  0
 43 23  1  0  0  0  0
 45 29  1  0  0  0  0
 47 29  1  0  0  0  0
 49 32  1  0  0  0  0
M  END
>  <Pose>
1

>  <Score>
-5.83

$$$$
