
 OpenBabel03232203513D

 47 50  0  0  1  0  0  0  0  0999 V2000
    3.6250    7.6630  -15.4290 Cl  0  0  0  0  0  0  0  0  0  0  0  0
    3.3090    9.1610  -14.5730 C   0  0  0  0  0  0  0  0  0  0  0  0
    2.1150    9.8460  -14.7470 C   0  0  0  0  0  0  0  0  0  0  0  0
    1.9000   11.0070  -14.0690 C   0  0  0  0  0  0  0  0  0  0  0  0
    2.8390   11.5420  -13.1960 C   0  0  0  0  0  0  0  0  0  0  0  0
    4.0230   10.8590  -13.0260 C   0  0  0  0  0  0  0  0  0  0  0  0
    4.2670    9.6660  -13.7100 C   0  0  0  0  0  0  0  0  0  0  0  0
    2.6090   12.7550  -12.4910 N   0  0  0  0  0  0  0  0  0  0  0  0
    2.5570   12.8240  -11.0720 C   0  0  0  0  0  0  0  0  0  0  0  0
    2.7200   11.7540  -10.4160 O   0  0  0  0  0  0  0  0  0  0  0  0
    2.3300   14.0450  -10.3980 N   0  0  0  0  0  0  0  0  0  0  0  0
    2.1480   15.2440  -11.1260 C   0  0  0  0  0  0  0  0  0  0  0  0
    2.1210   16.3820  -10.5390 O   0  0  0  0  0  0  0  0  0  0  0  0
    1.9820   15.2400  -12.5790 C   0  0  1  0  0  0  0  0  0  0  0  0
    2.4210   13.9780  -13.1880 C   0  0  0  0  0  0  0  0  0  0  0  0
    2.6640   13.9420  -14.4430 O   0  0  0  0  0  0  0  0  0  0  0  0
    0.5740   15.5810  -12.9400 C   0  0  0  0  0  0  0  0  0  0  0  0
   -0.5220   15.2690  -12.3020 C   0  0  0  0  0  0  0  0  0  0  0  0
   -1.6550   15.8430  -13.0690 C   0  0  2  0  0  0  0  0  0  0  0  0
   -1.0950   16.0980  -14.3790 N   0  0  0  0  0  0  0  0  0  0  0  0
    0.2560   16.3380  -14.1020 N   0  0  0  0  0  0  0  0  0  0  0  0
   -2.1180   17.1150  -12.4490 C   0  0  0  0  0  0  0  0  0  0  0  0
   -3.1740   17.8380  -12.9550 C   0  0  0  0  0  0  0  0  0  0  0  0
   -3.6110   19.0210  -12.3880 C   0  0  0  0  0  0  0  0  0  0  0  0
   -2.9830   19.5210  -11.2700 C   0  0  0  0  0  0  0  0  0  0  0  0
   -1.9270   18.8140  -10.7500 C   0  0  0  0  0  0  0  0  0  0  0  0
   -1.4990   17.6370  -11.3220 C   0  0  0  0  0  0  0  0  0  0  0  0
   -3.4030   20.7000  -10.6880 O   0  0  0  0  0  0  0  0  0  0  0  0
   -4.5080   20.6900   -9.8130 C   0  0  0  0  0  0  0  0  0  0  0  0
   -4.6780   19.7020  -12.9420 O   0  0  0  0  0  0  0  0  0  0  0  0
    1.3770    9.4550  -15.4120 H   0  0  0  0  0  0  0  0  0  0  0  0
    0.9540   11.5440  -14.2120 H   0  0  0  0  0  0  0  0  0  0  0  0
    4.7480   11.2840  -12.3440 H   0  0  0  0  0  0  0  0  0  0  0  0
    5.2160    9.1630  -13.5430 H   0  0  0  0  0  0  0  0  0  0  0  0
    2.2940   14.0740   -9.3460 H   0  0  0  0  0  0  0  0  0  0  0  0
    2.6480   16.0620  -12.9750 H   0  0  0  0  0  0  0  0  0  0  0  0
   -0.5460   14.6900  -11.3800 H   0  0  0  0  0  0  0  0  0  0  0  0
   -2.4990   15.1150  -13.1230 H   0  0  0  0  0  0  0  0  0  0  0  0
   -1.2180   15.2750  -15.0150 H   0  0  0  0  0  0  0  0  0  0  0  0
    0.8680   16.9700  -14.6810 H   0  0  0  0  0  0  0  0  0  0  0  0
   -3.6570   17.4210  -13.8440 H   0  0  0  0  0  0  0  0  0  0  0  0
   -1.4200   19.2040   -9.8580 H   0  0  0  0  0  0  0  0  0  0  0  0
   -0.6570   17.0660  -10.9140 H   0  0  0  0  0  0  0  0  0  0  0  0
   -4.3280   20.0860   -8.9040 H   0  0  0  0  0  0  0  0  0  0  0  0
   -4.7650   21.7360   -9.5600 H   0  0  0  0  0  0  0  0  0  0  0  0
   -5.3720   20.2830  -10.3800 H   0  0  0  0  0  0  0  0  0  0  0  0
   -5.2370   19.2930  -13.6640 H   0  0  0  0  0  0  0  0  0  0  0  0
  1  2  1  0  0  0  0
  2  7  1  0  0  0  0
  3  2  2  0  0  0  0
  3  4  1  0  0  0  0
  4  5  2  0  0  0  0
  5  6  1  0  0  0  0
  5  8  1  0  0  0  0
  6 33  1  0  0  0  0
  7 34  1  0  0  0  0
  7  6  2  0  0  0  0
  8  9  1  0  0  0  0
  9 10  2  0  0  0  0
  9 11  1  0  0  0  0
 11 35  1  0  0  0  0
 12 13  2  0  0  0  0
 12 11  1  0  0  0  0
 14 36  1  6  0  0  0
 14 12  1  0  0  0  0
 15 14  1  0  0  0  0
 15  8  1  0  0  0  0
 16 15  2  0  0  0  0
 17 14  1  0  0  0  0
 17 18  2  0  0  0  0
 18 37  1  0  0  0  0
 19 38  1  6  0  0  0
 19 22  1  0  0  0  0
 19 18  1  0  0  0  0
 20 21  1  0  0  0  0
 20 19  1  0  0  0  0
 21 17  1  0  0  0  0
 22 27  1  0  0  0  0
 23 22  2  0  0  0  0
 23 24  1  0  0  0  0
 24 25  2  0  0  0  0
 25 26  1  0  0  0  0
 25 28  1  0  0  0  0
 26 42  1  0  0  0  0
 27 43  1  0  0  0  0
 27 26  2  0  0  0  0
 28 29  1  0  0  0  0
 29 45  1  0  0  0  0
 29 44  1  0  0  0  0
 30 24  1  0  0  0  0
 31  3  1  0  0  0  0
 32  4  1  0  0  0  0
 39 20  1  0  0  0  0
 40 21  1  0  0  0  0
 41 23  1  0  0  0  0
 46 29  1  0  0  0  0
 47 30  1  0  0  0  0
M  END
>  <Pose>
1

>  <Score>
-4.83

$$$$
