
 OpenBabel03232203513D

 43 46  0  0  1  0  0  0  0  0999 V2000
    0.5300    6.3100  -14.9010 Cl  0  0  0  0  0  0  0  0  0  0  0  0
    0.8250    7.9460  -14.3900 C   0  0  0  0  0  0  0  0  0  0  0  0
   -0.1700    8.5990  -13.6740 C   0  0  0  0  0  0  0  0  0  0  0  0
    0.0420    9.8990  -13.2580 C   0  0  0  0  0  0  0  0  0  0  0  0
    1.2070   10.5930  -13.5190 C   0  0  0  0  0  0  0  0  0  0  0  0
    2.1850    9.9260  -14.2310 C   0  0  0  0  0  0  0  0  0  0  0  0
    2.0090    8.6250  -14.6650 C   0  0  0  0  0  0  0  0  0  0  0  0
    1.3980   11.9520  -13.0650 N   0  0  0  0  0  0  0  0  0  0  0  0
    2.5900   12.2270  -12.3120 C   0  0  0  0  0  0  0  0  0  0  0  0
    3.4370   11.3160  -12.0580 O   0  0  0  0  0  0  0  0  0  0  0  0
    2.7710   13.5630  -11.8690 N   0  0  0  0  0  0  0  0  0  0  0  0
    1.7910   14.5810  -12.1720 C   0  0  0  0  0  0  0  0  0  0  0  0
    2.1860   15.7530  -12.1720 O   0  0  0  0  0  0  0  0  0  0  0  0
    0.4240   14.1890  -12.4560 C   0  0  2  0  0  0  0  0  0  0  0  0
    0.4650   12.9850  -13.3400 C   0  0  0  0  0  0  0  0  0  0  0  0
   -0.2880   12.8200  -14.3330 O   0  0  0  0  0  0  0  0  0  0  0  0
   -0.4890   15.2050  -12.9280 C   0  0  0  0  0  0  0  0  0  0  0  0
   -1.6440   15.5810  -12.4300 C   0  0  0  0  0  0  0  0  0  0  0  0
   -2.2510   16.6680  -13.2370 C   0  0  2  0  0  0  0  0  0  0  0  0
   -1.1690   17.0570  -14.1110 N   0  0  0  0  0  0  0  0  0  0  0  0
   -0.2530   16.0080  -14.1040 N   0  0  0  0  0  0  0  0  0  0  0  0
   -2.6250   17.8400  -12.4370 C   0  0  0  0  0  0  0  0  0  0  0  0
   -1.8340   18.1680  -11.3460 C   0  0  0  0  0  0  0  0  0  0  0  0
   -2.1560   19.2610  -10.5770 C   0  0  0  0  0  0  0  0  0  0  0  0
   -3.2490   20.0460  -10.8590 C   0  0  0  0  0  0  0  0  0  0  0  0
   -4.0450   19.7350  -11.9360 C   0  0  0  0  0  0  0  0  0  0  0  0
   -3.7150   18.6240  -12.7140 C   0  0  0  0  0  0  0  0  0  0  0  0
   -1.3630   19.6020   -9.4730 O   0  0  0  0  0  0  0  0  0  0  0  0
   -1.1100    8.0760  -13.4500 H   0  0  0  0  0  0  0  0  0  0  0  0
   -0.7250   10.4050  -12.7060 H   0  0  0  0  0  0  0  0  0  0  0  0
    3.1100   10.4100  -14.4640 H   0  0  0  0  0  0  0  0  0  0  0  0
    2.7560    8.0730  -15.2260 H   0  0  0  0  0  0  0  0  0  0  0  0
    3.6240   13.7820  -11.3240 H   0  0  0  0  0  0  0  0  0  0  0  0
   -0.0020   13.8190  -11.4550 H   0  0  0  0  0  0  0  0  0  0  0  0
   -2.1720   15.2040  -11.5520 H   0  0  0  0  0  0  0  0  0  0  0  0
   -3.1230   16.2710  -13.8160 H   0  0  0  0  0  0  0  0  0  0  0  0
   -0.7480   17.9750  -13.8530 H   0  0  0  0  0  0  0  0  0  0  0  0
    0.4590   15.8770  -14.8540 H   0  0  0  0  0  0  0  0  0  0  0  0
   -0.9660   17.5540  -11.1150 H   0  0  0  0  0  0  0  0  0  0  0  0
   -3.5040   20.9130  -10.2480 H   0  0  0  0  0  0  0  0  0  0  0  0
   -4.9250   20.3140  -12.2140 H   0  0  0  0  0  0  0  0  0  0  0  0
   -4.3320   18.3690  -13.5650 H   0  0  0  0  0  0  0  0  0  0  0  0
   -0.6410   20.2920   -9.5840 H   0  0  0  0  0  0  0  0  0  0  0  0
  1  2  1  0  0  0  0
  2  3  1  0  0  0  0
  3 29  1  0  0  0  0
  3  4  2  0  0  0  0
  4 30  1  0  0  0  0
  5  4  1  0  0  0  0
  5  8  1  0  0  0  0
  6  5  2  0  0  0  0
  7  2  2  0  0  0  0
  7  6  1  0  0  0  0
  8  9  1  0  0  0  0
  9 10  2  0  0  0  0
  9 11  1  0  0  0  0
 11 33  1  0  0  0  0
 12 13  2  0  0  0  0
 12 11  1  0  0  0  0
 14 12  1  0  0  0  0
 14 34  1  1  0  0  0
 15  8  1  0  0  0  0
 15 14  1  0  0  0  0
 16 15  2  0  0  0  0
 17 14  1  0  0  0  0
 17 18  2  0  0  0  0
 18 35  1  0  0  0  0
 19 36  1  6  0  0  0
 19 22  1  0  0  0  0
 19 18  1  0  0  0  0
 20 21  1  0  0  0  0
 20 37  1  0  0  0  0
 20 19  1  0  0  0  0
 21 17  1  0  0  0  0
 22 23  1  0  0  0  0
 23 39  1  0  0  0  0
 23 24  2  0  0  0  0
 24 28  1  0  0  0  0
 25 24  1  0  0  0  0
 25 40  1  0  0  0  0
 26 25  2  0  0  0  0
 27 22  2  0  0  0  0
 27 26  1  0  0  0  0
 31  6  1  0  0  0  0
 32  7  1  0  0  0  0
 38 21  1  0  0  0  0
 41 26  1  0  0  0  0
 42 27  1  0  0  0  0
 43 28  1  0  0  0  0
M  END
>  <Pose>
1

>  <Score>
-6.50

$$$$
