
 OpenBabel03232203513D

 41 44  0  0  1  0  0  0  0  0999 V2000
    8.7690    4.2930  -13.3030 Cl  0  0  0  0  0  0  0  0  0  0  0  0
    7.2200    5.1170  -13.3390 C   0  0  0  0  0  0  0  0  0  0  0  0
    6.0450    4.4230  -13.5330 C   0  0  0  0  0  0  0  0  0  0  0  0
    4.8200    5.0800  -13.5620 C   0  0  0  0  0  0  0  0  0  0  0  0
    4.7340    6.4460  -13.3980 C   0  0  0  0  0  0  0  0  0  0  0  0
    5.9110    7.1360  -13.2030 C   0  0  0  0  0  0  0  0  0  0  0  0
    7.1300    6.4830  -13.1740 C   0  0  0  0  0  0  0  0  0  0  0  0
    3.4670    7.1440  -13.4240 N   0  0  0  0  0  0  0  0  0  0  0  0
    2.4360    6.8080  -12.5130 C   0  0  0  0  0  0  0  0  0  0  0  0
    2.6140    5.8990  -11.6640 O   0  0  0  0  0  0  0  0  0  0  0  0
    1.1910    7.5240  -12.5780 N   0  0  0  0  0  0  0  0  0  0  0  0
    0.9870    8.5530  -13.5370 C   0  0  0  0  0  0  0  0  0  0  0  0
   -0.1820    8.9250  -13.8050 O   0  0  0  0  0  0  0  0  0  0  0  0
    2.1510    9.1640  -14.2000 C   0  0  2  0  0  0  0  0  0  0  0  0
    3.2290    8.1750  -14.3680 C   0  0  0  0  0  0  0  0  0  0  0  0
    3.9890    8.2350  -15.3960 O   0  0  0  0  0  0  0  0  0  0  0  0
    2.6510   10.3450  -13.4200 C   0  0  0  0  0  0  0  0  0  0  0  0
    2.3340   10.7100  -12.2050 C   0  0  0  0  0  0  0  0  0  0  0  0
    3.0740   11.9340  -11.8580 C   0  0  1  0  0  0  0  0  0  0  0  0
    4.0980   12.0160  -12.8600 N   0  0  0  0  0  0  0  0  0  0  0  0
    3.5970   11.2670  -13.9360 N   0  0  0  0  0  0  0  0  0  0  0  0
    2.1260   13.0690  -11.9990 C   0  0  0  0  0  0  0  0  0  0  0  0
    2.2890   14.2050  -11.2430 C   0  0  0  0  0  0  0  0  0  0  0  0
    1.4240   15.2490  -11.3670 N   0  0  0  0  0  0  0  0  0  0  0  0
    0.3850   15.2280  -12.2170 C   0  0  0  0  0  0  0  0  0  0  0  0
    0.1920   14.1060  -12.9900 C   0  0  0  0  0  0  0  0  0  0  0  0
    1.0740   13.0210  -12.8750 C   0  0  0  0  0  0  0  0  0  0  0  0
    6.0920    3.3540  -13.6640 H   0  0  0  0  0  0  0  0  0  0  0  0
    3.8910    4.5520  -13.7110 H   0  0  0  0  0  0  0  0  0  0  0  0
    5.8580    8.2220  -13.0720 H   0  0  0  0  0  0  0  0  0  0  0  0
    8.0680    7.0210  -13.0230 H   0  0  0  0  0  0  0  0  0  0  0  0
    0.4050    7.3100  -11.9270 H   0  0  0  0  0  0  0  0  0  0  0  0
    1.9000    9.5730  -15.2050 H   0  0  0  0  0  0  0  0  0  0  0  0
    1.6350   10.1740  -11.5760 H   0  0  0  0  0  0  0  0  0  0  0  0
    3.4980   11.8960  -10.8260 H   0  0  0  0  0  0  0  0  0  0  0  0
    5.0000   11.6570  -12.5340 H   0  0  0  0  0  0  0  0  0  0  0  0
    3.9160   11.4210  -14.9200 H   0  0  0  0  0  0  0  0  0  0  0  0
    3.1290   14.2460  -10.5420 H   0  0  0  0  0  0  0  0  0  0  0  0
   -0.3030   16.0830  -12.3020 H   0  0  0  0  0  0  0  0  0  0  0  0
   -0.6390   14.0780  -13.6770 H   0  0  0  0  0  0  0  0  0  0  0  0
    0.9160   12.1600  -13.4750 H   0  0  0  0  0  0  0  0  0  0  0  0
  2  1  1  0  0  0  0
  2  7  1  0  0  0  0
  3  2  2  0  0  0  0
  4  3  1  0  0  0  0
  4  5  2  0  0  0  0
  5  6  1  0  0  0  0
  6  7  2  0  0  0  0
  6 30  1  0  0  0  0
  7 31  1  0  0  0  0
  8  5  1  0  0  0  0
  8  9  1  0  0  0  0
  9 10  2  0  0  0  0
 11  9  1  0  0  0  0
 11 32  1  0  0  0  0
 12 11  1  0  0  0  0
 13 12  2  0  0  0  0
 14 33  1  6  0  0  0
 14 12  1  0  0  0  0
 14 17  1  0  0  0  0
 15 14  1  0  0  0  0
 15  8  1  0  0  0  0
 16 15  2  0  0  0  0
 17 18  2  0  0  0  0
 18 19  1  0  0  0  0
 18 34  1  0  0  0  0
 19 35  1  1  0  0  0
 20 36  1  0  0  0  0
 20 19  1  0  0  0  0
 21 17  1  0  0  0  0
 21 20  1  0  0  0  0
 22 19  1  0  0  0  0
 22 23  1  0  0  0  0
 23 38  1  0  0  0  0
 24 23  2  0  0  0  0
 25 24  1  0  0  0  0
 26 27  1  0  0  0  0
 26 25  2  0  0  0  0
 27 22  2  0  0  0  0
 28  3  1  0  0  0  0
 29  4  1  0  0  0  0
 37 21  1  0  0  0  0
 39 25  1  0  0  0  0
 40 26  1  0  0  0  0
 41 27  1  0  0  0  0
M  END
>  <Pose>
1

>  <Score>
-6.28

$$$$
