
 OpenBabel03232203513D

 58 62  0  0  1  0  0  0  0  0999 V2000
    6.6750    2.7900  -12.8740 Cl  0  0  0  0  0  0  0  0  0  0  0  0
    6.4130    4.5040  -13.1140 C   0  0  0  0  0  0  0  0  0  0  0  0
    5.3010    4.9600  -13.7910 C   0  0  0  0  0  0  0  0  0  0  0  0
    5.0690    6.3010  -13.9960 C   0  0  0  0  0  0  0  0  0  0  0  0
    5.9890    7.1990  -13.5000 C   0  0  0  0  0  0  0  0  0  0  0  0
    7.0800    6.7360  -12.8340 C   0  0  0  0  0  0  0  0  0  0  0  0
    7.3300    5.4000  -12.6190 C   0  0  0  0  0  0  0  0  0  0  0  0
    3.8480    6.7700  -14.7370 C   0  0  0  0  0  0  0  0  0  0  0  0
    3.0830    7.6790  -13.9020 N   0  0  0  0  0  0  0  0  0  0  0  0
    2.2500    7.2180  -12.8450 C   0  0  0  0  0  0  0  0  0  0  0  0
    2.1000    5.9660  -12.6690 O   0  0  0  0  0  0  0  0  0  0  0  0
    1.5410    8.1150  -11.9270 C   0  0  1  0  0  0  0  0  0  0  0  0
    1.5490    9.4900  -12.3030 N   0  0  1  0  0  0  0  0  0  0  0  0
    2.7110    9.9560  -12.9880 C   0  0  0  0  0  0  0  0  0  0  0  0
    3.8420   10.4430  -12.1160 C   0  0  0  0  0  0  0  0  0  0  0  0
    3.6080   11.7770  -12.5660 N   0  0  0  0  0  0  0  0  0  0  0  0
    2.5190   11.4110  -13.3810 C   0  0  0  0  0  0  0  0  0  0  0  0
    3.4930   12.8220  -11.6140 C   0  0  0  0  0  0  0  0  0  0  0  0
    2.3350   13.7100  -11.7670 C   0  0  0  0  0  0  0  0  0  0  0  0
    1.2790   13.3330  -12.5600 C   0  0  0  0  0  0  0  0  0  0  0  0
    0.1640   14.1600  -12.7230 C   0  0  0  0  0  0  0  0  0  0  0  0
    0.1310   15.3730  -12.0750 C   0  0  0  0  0  0  0  0  0  0  0  0
    1.1740   15.7750  -11.2760 C   0  0  0  0  0  0  0  0  0  0  0  0
    2.2700   14.9270  -11.1350 C   0  0  0  0  0  0  0  0  0  0  0  0
   -0.9000   13.7840  -13.5190 O   0  0  0  0  0  0  0  0  0  0  0  0
   -1.2470   12.4140  -13.5800 C   0  0  0  0  0  0  0  0  0  0  0  0
    3.1360    9.0850  -14.1140 C   0  0  0  0  0  0  0  0  0  0  0  0
    3.5330    9.5320  -15.2200 O   0  0  0  0  0  0  0  0  0  0  0  0
    0.3860    9.7450  -13.1030 C   0  0  0  0  0  0  0  0  0  0  0  0
   -0.4180    8.4770  -13.1710 C   0  0  1  0  0  0  0  0  0  0  0  0
    0.0610    7.7110  -11.9720 C   0  0  0  0  0  0  0  0  0  0  0  0
   -1.7880    8.7040  -13.1480 O   0  0  0  0  0  0  0  0  0  0  0  0
    4.5730    4.2320  -14.1830 H   0  0  0  0  0  0  0  0  0  0  0  0
    5.8140    8.2400  -13.6530 H   0  0  0  0  0  0  0  0  0  0  0  0
    7.7990    7.4560  -12.4470 H   0  0  0  0  0  0  0  0  0  0  0  0
    8.2200    5.0560  -12.0790 H   0  0  0  0  0  0  0  0  0  0  0  0
    3.2420    5.8640  -14.9540 H   0  0  0  0  0  0  0  0  0  0  0  0
    4.2000    7.2760  -15.6570 H   0  0  0  0  0  0  0  0  0  0  0  0
    1.8800    7.9860  -10.8720 H   0  0  0  0  0  0  0  0  0  0  0  0
    3.7630   10.2180  -11.0540 H   0  0  0  0  0  0  0  0  0  0  0  0
    4.8390   10.0960  -12.5190 H   0  0  0  0  0  0  0  0  0  0  0  0
    1.5250   11.8200  -13.1800 H   0  0  0  0  0  0  0  0  0  0  0  0
    2.7450   11.5310  -14.4810 H   0  0  0  0  0  0  0  0  0  0  0  0
    3.5070   12.3280  -10.5950 H   0  0  0  0  0  0  0  0  0  0  0  0
    4.4660   13.3970  -11.6180 H   0  0  0  0  0  0  0  0  0  0  0  0
    1.2390   12.3950  -13.0980 H   0  0  0  0  0  0  0  0  0  0  0  0
   -0.7560   15.9970  -12.2240 H   0  0  0  0  0  0  0  0  0  0  0  0
    1.0930   16.7370  -10.7920 H   0  0  0  0  0  0  0  0  0  0  0  0
    3.0600   15.2950  -10.4950 H   0  0  0  0  0  0  0  0  0  0  0  0
   -2.0780   12.3330  -14.3160 H   0  0  0  0  0  0  0  0  0  0  0  0
   -0.3800   11.7900  -13.9030 H   0  0  0  0  0  0  0  0  0  0  0  0
   -1.5930   12.0280  -12.6010 H   0  0  0  0  0  0  0  0  0  0  0  0
    0.6280   10.0440  -14.1530 H   0  0  0  0  0  0  0  0  0  0  0  0
   -0.2250   10.5620  -12.6190 H   0  0  0  0  0  0  0  0  0  0  0  0
   -0.1070    7.8990  -14.0850 H   0  0  0  0  0  0  0  0  0  0  0  0
   -0.0530    6.6200  -12.0790 H   0  0  0  0  0  0  0  0  0  0  0  0
   -0.4170    8.1150  -11.0730 H   0  0  0  0  0  0  0  0  0  0  0  0
   -2.1000    8.5190  -12.2290 H   0  0  0  0  0  0  0  0  0  0  0  0
  2  1  1  0  0  0  0
  2  7  1  0  0  0  0
  3  2  2  0  0  0  0
  4  3  1  0  0  0  0
  4  5  2  0  0  0  0
  5  6  1  0  0  0  0
  6  7  2  0  0  0  0
  6 35  1  0  0  0  0
  7 36  1  0  0  0  0
  8  4  1  0  0  0  0
  8  9  1  0  0  0  0
  9 10  1  0  0  0  0
 10 11  2  0  0  0  0
 10 12  1  0  0  0  0
 12 39  1  1  0  0  0
 13 29  1  6  0  0  0
 13 12  1  0  0  0  0
 14 13  1  0  0  0  0
 14 15  1  0  0  0  0
 15 40  1  0  0  0  0
 16 15  1  0  0  0  0
 16 18  1  0  0  0  0
 17 42  1  0  0  0  0
 17 14  1  0  0  0  0
 17 16  1  0  0  0  0
 18 44  1  0  0  0  0
 19 18  1  0  0  0  0
 19 24  1  0  0  0  0
 20 19  2  0  0  0  0
 21 20  1  0  0  0  0
 21 22  2  0  0  0  0
 22 23  1  0  0  0  0
 23 24  2  0  0  0  0
 23 48  1  0  0  0  0
 24 49  1  0  0  0  0
 25 21  1  0  0  0  0
 26 25  1  0  0  0  0
 26 52  1  0  0  0  0
 27  9  1  0  0  0  0
 27 14  1  0  0  0  0
 28 27  2  0  0  0  0
 29 54  1  0  0  0  0
 30 55  1  6  0  0  0
 30 32  1  0  0  0  0
 30 29  1  0  0  0  0
 30 31  1  0  0  0  0
 31 12  1  0  0  0  0
 31 57  1  0  0  0  0
 32 58  1  0  0  0  0
 33  3  1  0  0  0  0
 34  5  1  0  0  0  0
 37  8  1  0  0  0  0
 38  8  1  0  0  0  0
 41 15  1  0  0  0  0
 43 17  1  0  0  0  0
 45 18  1  0  0  0  0
 46 20  1  0  0  0  0
 47 22  1  0  0  0  0
 50 26  1  0  0  0  0
 51 26  1  0  0  0  0
 53 29  1  0  0  0  0
 56 31  1  0  0  0  0
M  END
>  <Pose>
1

>  <Score>
-5.28

$$$$
