
 OpenBabel03232203513D

 55 59  0  0  1  0  0  0  0  0999 V2000
   -4.3440   20.9750   -9.6120 B   0  0  0  0  0  0  0  0  0  0  0  0
   -3.0830   19.7810  -10.3990 C   0  0  0  0  0  0  0  0  0  0  0  0
   -3.2480   18.9090  -11.4560 C   0  0  0  0  0  0  0  0  0  0  0  0
   -2.0850   18.2470  -11.6850 N   0  0  0  0  0  0  0  0  0  0  0  0
   -1.2200   18.6800  -10.8090 N   0  0  0  0  0  0  0  0  0  0  0  0
   -1.7550   19.6110   -9.9990 C   0  0  0  0  0  0  0  0  0  0  0  0
   -1.8140   17.2470  -12.6900 C   0  0  0  0  0  0  0  0  0  0  0  0
   -0.7940   16.2280  -12.2370 C   0  0  2  0  0  0  0  0  0  0  0  0
    0.4400   16.8770  -11.7080 C   0  0  0  0  0  0  0  0  0  0  0  0
   -0.5060   15.2900  -13.3610 C   0  0  0  0  0  0  0  0  0  0  0  0
   -0.8690   15.6570  -14.5080 O   0  0  0  0  0  0  0  0  0  0  0  0
    0.1390   14.0470  -13.1610 N   0  0  0  0  0  0  0  0  0  0  0  0
   -0.0530   12.9280  -13.9400 N   0  0  0  0  0  0  0  0  0  0  0  0
   -0.8010   11.8340  -13.4780 C   0  0  0  0  0  0  0  0  0  0  0  0
   -2.0390   12.0030  -13.2580 O   0  0  0  0  0  0  0  0  0  0  0  0
   -0.2420   10.4860  -13.2260 C   0  0  1  0  0  0  0  0  0  0  0  0
   -1.0790    9.4230  -13.9100 C   0  0  0  0  0  0  0  0  0  0  0  0
   -0.5230    8.0530  -13.6460 C   0  0  1  0  0  0  0  0  0  0  0  0
    0.8740    8.0080  -14.2680 C   0  0  0  0  0  0  0  0  0  0  0  0
    1.7370    9.0520  -13.6350 C   0  0  1  0  0  0  0  0  0  0  0  0
    1.1410   10.4270  -13.8350 C   0  0  0  0  0  0  0  0  0  0  0  0
    1.8540    8.7660  -12.1560 C   0  0  0  0  0  0  0  0  0  0  0  0
    0.4650    8.8210  -11.5620 C   0  0  2  0  0  0  0  0  0  0  0  0
   -0.3850    7.7460  -12.1880 C   0  0  0  0  0  0  0  0  0  0  0  0
   -0.1290   10.1920  -11.7460 C   0  0  0  0  0  0  0  0  0  0  0  0
   -1.3760    7.1030  -14.3340 N   0  0  1  0  0  0  0  0  0  0  0  0
   -1.2310    5.8010  -14.5080 N   0  0  0  0  0  0  0  0  0  0  0  0
   -2.2140    5.2880  -15.1850 N   0  0  0  0  0  0  0  0  0  0  0  0
   -3.0550    6.2630  -15.4830 C   0  0  0  0  0  0  0  0  0  0  0  0
   -2.5320    7.4020  -14.9500 N   0  0  0  0  0  0  0  0  0  0  0  0
   -4.1500   18.7710  -12.0150 H   0  0  0  0  0  0  0  0  0  0  0  0
   -1.3080   20.1580   -9.1820 H   0  0  0  0  0  0  0  0  0  0  0  0
   -1.4010   17.7540  -13.5780 H   0  0  0  0  0  0  0  0  0  0  0  0
   -2.7330   16.7100  -13.0100 H   0  0  0  0  0  0  0  0  0  0  0  0
   -1.2400   15.6150  -11.4260 H   0  0  0  0  0  0  0  0  0  0  0  0
    0.1030   17.6310  -10.9410 H   0  0  0  0  0  0  0  0  0  0  0  0
    1.0440   16.1450  -11.1250 H   0  0  0  0  0  0  0  0  0  0  0  0
    1.0160   17.4320  -12.4560 H   0  0  0  0  0  0  0  0  0  0  0  0
    0.8180   13.9890  -12.3510 H   0  0  0  0  0  0  0  0  0  0  0  0
    0.3660   12.8910  -14.9010 H   0  0  0  0  0  0  0  0  0  0  0  0
   -2.1520    9.5070  -13.5970 H   0  0  0  0  0  0  0  0  0  0  0  0
   -0.9620    9.5990  -15.0110 H   0  0  0  0  0  0  0  0  0  0  0  0
    1.3280    7.0190  -14.1680 H   0  0  0  0  0  0  0  0  0  0  0  0
    0.7190    8.3050  -15.3350 H   0  0  0  0  0  0  0  0  0  0  0  0
    2.7340    9.0520  -14.1060 H   0  0  0  0  0  0  0  0  0  0  0  0
    1.8270   11.1860  -13.4040 H   0  0  0  0  0  0  0  0  0  0  0  0
    1.0240   10.5830  -14.9310 H   0  0  0  0  0  0  0  0  0  0  0  0
    2.2450    7.7220  -12.0590 H   0  0  0  0  0  0  0  0  0  0  0  0
    2.5280    9.5040  -11.7100 H   0  0  0  0  0  0  0  0  0  0  0  0
    0.5890    8.6430  -10.4550 H   0  0  0  0  0  0  0  0  0  0  0  0
   -1.3600    7.6850  -11.6770 H   0  0  0  0  0  0  0  0  0  0  0  0
    0.1710    6.7870  -12.1100 H   0  0  0  0  0  0  0  0  0  0  0  0
    0.5350   10.9450  -11.3140 H   0  0  0  0  0  0  0  0  0  0  0  0
   -1.1430   10.1830  -11.3060 H   0  0  0  0  0  0  0  0  0  0  0  0
   -3.9720    6.1560  -16.0410 H   0  0  0  0  0  0  0  0  0  0  0  0
  2  6  1  0  0  0  0
  2  1  1  0  0  0  0
  3  2  2  0  0  0  0
  4  3  1  0  0  0  0
  4  5  1  0  0  0  0
  5  6  2  0  0  0  0
  6 32  1  0  0  0  0
  7  8  1  0  0  0  0
  7  4  1  0  0  0  0
  8  9  1  0  0  0  0
  8 35  1  1  0  0  0
  9 37  1  0  0  0  0
  9 36  1  0  0  0  0
 10 12  1  0  0  0  0
 10  8  1  0  0  0  0
 11 10  2  0  0  0  0
 12 39  1  0  0  0  0
 13 14  1  0  0  0  0
 13 12  1  0  0  0  0
 14 15  2  0  0  0  0
 16 14  1  6  0  0  0
 16 25  1  0  0  0  0
 17 18  1  0  0  0  0
 17 41  1  0  0  0  0
 17 16  1  0  0  0  0
 18 19  1  6  0  0  0
 18 24  1  0  0  0  0
 19 43  1  0  0  0  0
 19 20  1  0  0  0  0
 20 45  1  6  0  0  0
 20 22  1  0  0  0  0
 21 20  1  0  0  0  0
 21 46  1  0  0  0  0
 21 16  1  0  0  0  0
 22 48  1  0  0  0  0
 22 49  1  0  0  0  0
 22 23  1  0  0  0  0
 23 50  1  1  0  0  0
 24 52  1  0  0  0  0
 24 51  1  0  0  0  0
 24 23  1  0  0  0  0
 25 23  1  0  0  0  0
 25 53  1  0  0  0  0
 25 54  1  0  0  0  0
 26 30  1  1  0  0  0
 26 18  1  0  0  0  0
 27 26  1  0  0  0  0
 28 27  1  0  0  0  0
 29 28  2  0  0  0  0
 29 30  1  0  0  0  0
 31  3  1  0  0  0  0
 33  7  1  0  0  0  0
 34  7  1  0  0  0  0
 38  9  1  0  0  0  0
 40 13  1  0  0  0  0
 42 17  1  0  0  0  0
 44 19  1  0  0  0  0
 47 21  1  0  0  0  0
 55 29  1  0  0  0  0
M  END
>  <Pose>
1

>  <Score>
-5.74

$$$$
