
 OpenBabel03232203513D

 52 55  0  0  1  0  0  0  0  0999 V2000
   -5.0840   21.4000   -9.4620 Cl  0  0  0  0  0  0  0  0  0  0  0  0
   -4.3060   20.2780  -10.5480 C   0  0  0  0  0  0  0  0  0  0  0  0
   -4.9130   19.7340  -11.6520 C   0  0  0  0  0  0  0  0  0  0  0  0
   -4.2550   18.8550  -12.4750 C   0  0  0  0  0  0  0  0  0  0  0  0
   -2.9320   18.4730  -12.2250 C   0  0  0  0  0  0  0  0  0  0  0  0
   -2.3270   19.0130  -11.1290 C   0  0  0  0  0  0  0  0  0  0  0  0
   -2.9960   19.8940  -10.3090 C   0  0  0  0  0  0  0  0  0  0  0  0
   -2.2930   17.5460  -13.1340 C   0  0  0  0  0  0  0  0  0  0  0  0
   -2.9950   16.6270  -13.6730 O   0  0  0  0  0  0  0  0  0  0  0  0
   -0.8580   17.5930  -13.4880 C   0  0  0  0  0  0  0  0  0  0  0  0
   -0.2110   16.4020  -12.9290 N   0  0  0  0  0  0  0  0  0  0  0  0
    0.4630   16.2200  -11.8070 C   0  0  2  0  0  0  0  0  0  0  0  0
    0.8840   14.9320  -11.6950 N   0  0  0  0  0  0  0  0  0  0  0  0
    0.4670   14.2810  -12.7580 C   0  0  0  0  0  0  0  0  0  0  0  0
   -0.2290   15.2220  -13.5460 C   0  0  0  0  0  0  0  0  0  0  0  0
    0.6550   12.8830  -13.1590 C   0  0  0  0  0  0  0  0  0  0  0  0
   -0.2900   12.0690  -13.6940 C   0  0  0  0  0  0  0  0  0  0  0  0
   -0.0660   10.7250  -13.9890 C   0  0  0  0  0  0  0  0  0  0  0  0
    1.1540   10.1570  -13.7450 C   0  0  0  0  0  0  0  0  0  0  0  0
    2.1340   10.9550  -13.2060 C   0  0  0  0  0  0  0  0  0  0  0  0
    1.8950   12.2810  -12.9180 C   0  0  0  0  0  0  0  0  0  0  0  0
    1.4080    8.8050  -14.0330 O   0  0  0  0  0  0  0  0  0  0  0  0
    0.4360    7.8040  -13.8890 C   0  0  0  0  0  0  0  0  0  0  0  0
    1.6830   14.4450  -10.6060 C   0  0  0  0  0  0  0  0  0  0  0  0
    0.8300   14.2890   -9.3490 C   0  0  0  0  0  0  0  0  0  0  0  0
   -0.1630   15.4540   -9.4040 C   0  0  0  0  0  0  0  0  0  0  0  0
    0.6240   16.7350   -9.3910 C   0  0  0  0  0  0  0  0  0  0  0  0
    0.6850   17.3150  -10.8130 C   0  0  0  0  0  0  0  0  0  0  0  0
   -5.9380   20.0070  -11.8770 H   0  0  0  0  0  0  0  0  0  0  0  0
   -4.7760   18.4410  -13.3480 H   0  0  0  0  0  0  0  0  0  0  0  0
   -1.3150   18.7650  -10.8780 H   0  0  0  0  0  0  0  0  0  0  0  0
   -2.4740   20.3040   -9.4420 H   0  0  0  0  0  0  0  0  0  0  0  0
   -0.8230   17.5210  -14.6130 H   0  0  0  0  0  0  0  0  0  0  0  0
   -0.3610   18.5110  -13.1720 H   0  0  0  0  0  0  0  0  0  0  0  0
   -0.7000   14.9850  -14.5030 H   0  0  0  0  0  0  0  0  0  0  0  0
   -1.2430   12.4500  -13.9470 H   0  0  0  0  0  0  0  0  0  0  0  0
   -0.8530   10.1080  -14.4160 H   0  0  0  0  0  0  0  0  0  0  0  0
    3.0950   10.5030  -13.0150 H   0  0  0  0  0  0  0  0  0  0  0  0
    2.6710   12.8990  -12.4910 H   0  0  0  0  0  0  0  0  0  0  0  0
   -0.2640    7.8520  -14.7520 H   0  0  0  0  0  0  0  0  0  0  0  0
    0.8980    6.7920  -13.7790 H   0  0  0  0  0  0  0  0  0  0  0  0
   -0.1940    7.9370  -12.9620 H   0  0  0  0  0  0  0  0  0  0  0  0
    2.3970   13.6760  -10.8030 H   0  0  0  0  0  0  0  0  0  0  0  0
    2.3620   15.3410  -10.3080 H   0  0  0  0  0  0  0  0  0  0  0  0
    0.3250   13.3180   -9.3630 H   0  0  0  0  0  0  0  0  0  0  0  0
    1.4010   14.4110   -8.4280 H   0  0  0  0  0  0  0  0  0  0  0  0
   -0.7260   15.3830  -10.3750 H   0  0  0  0  0  0  0  0  0  0  0  0
   -0.9250   15.3850   -8.6150 H   0  0  0  0  0  0  0  0  0  0  0  0
    0.0760   17.4380   -8.7240 H   0  0  0  0  0  0  0  0  0  0  0  0
    1.6300   16.6370   -8.9410 H   0  0  0  0  0  0  0  0  0  0  0  0
    1.7200   17.6950  -11.0170 H   0  0  0  0  0  0  0  0  0  0  0  0
   -0.0070   18.1620  -10.9420 H   0  0  0  0  0  0  0  0  0  0  0  0
  2  7  1  0  0  0  0
  2  1  1  0  0  0  0
  3  2  2  0  0  0  0
  4  5  2  0  0  0  0
  4  3  1  0  0  0  0
  5  6  1  0  0  0  0
  6 31  1  0  0  0  0
  6  7  2  0  0  0  0
  7 32  1  0  0  0  0
  8  5  1  0  0  0  0
  9  8  2  0  0  0  0
 10 34  1  0  0  0  0
 10  8  1  0  0  0  0
 10 11  1  0  0  0  0
 12 11  1  1  0  0  0
 12 13  1  0  0  0  0
 12 28  1  0  0  0  0
 13 24  1  0  0  0  0
 14 13  1  0  0  0  0
 15 11  1  0  0  0  0
 15 14  2  0  0  0  0
 16 21  1  0  0  0  0
 16 14  1  0  0  0  0
 17 16  2  0  0  0  0
 18 19  2  0  0  0  0
 18 17  1  0  0  0  0
 19 20  1  0  0  0  0
 20 38  1  0  0  0  0
 20 21  2  0  0  0  0
 21 39  1  0  0  0  0
 22 23  1  0  0  0  0
 22 19  1  0  0  0  0
 23 41  1  0  0  0  0
 23 42  1  0  0  0  0
 24 44  1  0  0  0  0
 24 25  1  0  0  0  0
 25 46  1  0  0  0  0
 26 27  1  0  0  0  0
 26 25  1  0  0  0  0
 26 48  1  0  0  0  0
 27 50  1  0  0  0  0
 27 49  1  0  0  0  0
 28 27  1  0  0  0  0
 29  3  1  0  0  0  0
 30  4  1  0  0  0  0
 33 10  1  0  0  0  0
 35 15  1  0  0  0  0
 36 17  1  0  0  0  0
 37 18  1  0  0  0  0
 40 23  1  0  0  0  0
 43 24  1  0  0  0  0
 45 25  1  0  0  0  0
 47 26  1  0  0  0  0
 51 28  1  0  0  0  0
 52 28  1  0  0  0  0
M  END
>  <Pose>
1

>  <Score>
-4.48

$$$$
