
 OpenBabel03232203513D

 58 61  0  0  1  0  0  0  0  0999 V2000
    5.2450    4.7670  -13.4370 Cl  0  0  0  0  0  0  0  0  0  0  0  0
    4.4210    6.3410  -13.5460 C   0  0  0  0  0  0  0  0  0  0  0  0
    5.0980    7.4540  -13.9880 C   0  0  0  0  0  0  0  0  0  0  0  0
    4.4400    8.6910  -14.0550 C   0  0  0  0  0  0  0  0  0  0  0  0
    3.1090    8.8320  -13.6890 C   0  0  0  0  0  0  0  0  0  0  0  0
    2.4640    7.7170  -13.2600 C   0  0  0  0  0  0  0  0  0  0  0  0
    3.0930    6.4810  -13.1810 C   0  0  0  0  0  0  0  0  0  0  0  0
    2.5470   10.1990  -13.7770 C   0  0  1  0  0  0  0  0  0  0  0  0
    1.1200   10.2870  -13.4360 C   0  0  0  0  0  0  0  0  0  0  0  0
    0.6490   11.5340  -12.7300 C   0  0  0  0  0  0  0  0  0  0  0  0
    1.6120   12.5790  -12.6090 N   0  0  0  0  0  0  0  0  0  0  0  0
    2.9390   12.1220  -12.1530 C   0  0  0  0  0  0  0  0  0  0  0  0
    3.4880   11.0590  -12.9690 C   0  0  0  0  0  0  0  0  0  0  0  0
    1.3530   13.9700  -12.6100 C   0  0  0  0  0  0  0  0  0  0  0  0
    0.8420   14.5220  -13.5810 O   0  0  0  0  0  0  0  0  0  0  0  0
    1.7020   14.8130  -11.3910 C   0  0  1  0  0  0  0  0  0  0  0  0
    0.5650   15.6240  -11.0250 N   0  0  0  0  0  0  0  0  0  0  0  0
    0.5510   17.0180  -10.9920 C   0  0  0  0  0  0  0  0  0  0  0  0
    1.7060   17.5000  -11.5750 O   0  0  0  0  0  0  0  0  0  0  0  0
   -0.2670   18.0590  -10.5830 C   0  0  0  0  0  0  0  0  0  0  0  0
   -1.3790   18.7240  -10.6930 C   0  0  0  0  0  0  0  0  0  0  0  0
   -1.6200   19.8660   -9.8000 N   0  0  0  0  0  0  0  0  0  0  0  0
   -2.7260   20.6870   -9.9030 N   0  0  0  0  0  0  0  0  0  0  0  0
   -3.7020   20.4930  -10.8670 C   0  0  0  0  0  0  0  0  0  0  0  0
   -4.7260   21.2110  -10.9920 O   0  0  0  0  0  0  0  0  0  0  0  0
   -3.5450   19.3640  -11.8160 C   0  0  0  0  0  0  0  0  0  0  0  0
   -2.4290   18.5740  -11.6810 C   0  0  0  0  0  0  0  0  0  0  0  0
   -2.2730   17.5860  -12.6600 C   0  0  0  0  0  0  0  0  0  0  0  0
   -3.2020   17.4280  -13.6780 C   0  0  0  0  0  0  0  0  0  0  0  0
   -4.3070   18.2350  -13.7670 C   0  0  0  0  0  0  0  0  0  0  0  0
   -4.4740   19.2200  -12.8180 C   0  0  0  0  0  0  0  0  0  0  0  0
    2.6000   14.2600  -10.4200 C   0  0  0  0  0  0  0  0  0  0  0  0
    2.6740   10.6020  -15.1400 O   0  0  0  0  0  0  0  0  0  0  0  0
    6.1410    7.3550  -14.2840 H   0  0  0  0  0  0  0  0  0  0  0  0
    5.0090    9.5320  -14.4200 H   0  0  0  0  0  0  0  0  0  0  0  0
    1.4220    7.7310  -12.9640 H   0  0  0  0  0  0  0  0  0  0  0  0
    2.5960    5.5960  -12.8390 H   0  0  0  0  0  0  0  0  0  0  0  0
    0.7240    9.4150  -12.8490 H   0  0  0  0  0  0  0  0  0  0  0  0
    0.5310   10.2490  -14.4090 H   0  0  0  0  0  0  0  0  0  0  0  0
    0.4480   11.2290  -11.6320 H   0  0  0  0  0  0  0  0  0  0  0  0
   -0.3540   11.8820  -13.0420 H   0  0  0  0  0  0  0  0  0  0  0  0
    2.6600   11.6500  -11.1200 H   0  0  0  0  0  0  0  0  0  0  0  0
    3.6230   12.9340  -11.9380 H   0  0  0  0  0  0  0  0  0  0  0  0
    4.2790   11.4460  -13.6410 H   0  0  0  0  0  0  0  0  0  0  0  0
    4.0960   10.3850  -12.2590 H   0  0  0  0  0  0  0  0  0  0  0  0
    2.3590   15.6550  -11.9470 H   0  0  0  0  0  0  0  0  0  0  0  0
   -0.2560   15.0020  -10.7160 H   0  0  0  0  0  0  0  0  0  0  0  0
    0.3200   18.6380   -9.6920 H   0  0  0  0  0  0  0  0  0  0  0  0
   -0.8840   20.0280   -9.0610 H   0  0  0  0  0  0  0  0  0  0  0  0
   -2.8350   21.4910   -9.2240 H   0  0  0  0  0  0  0  0  0  0  0  0
   -1.4200   16.9970  -12.6410 H   0  0  0  0  0  0  0  0  0  0  0  0
   -3.0540   16.6330  -14.4290 H   0  0  0  0  0  0  0  0  0  0  0  0
   -4.9850   18.0660  -14.5840 H   0  0  0  0  0  0  0  0  0  0  0  0
   -5.3250   19.8870  -12.8450 H   0  0  0  0  0  0  0  0  0  0  0  0
    2.2050   14.1280   -9.3860 H   0  0  0  0  0  0  0  0  0  0  0  0
    3.5370   14.9000  -10.2540 H   0  0  0  0  0  0  0  0  0  0  0  0
    3.0680   13.2940  -10.7670 H   0  0  0  0  0  0  0  0  0  0  0  0
    1.8690   11.0450  -15.4570 H   0  0  0  0  0  0  0  0  0  0  0  0
  2  1  1  0  0  0  0
  2  7  1  0  0  0  0
  3  2  2  0  0  0  0
  4  3  1  0  0  0  0
  4  5  2  0  0  0  0
  5  6  1  0  0  0  0
  6  7  2  0  0  0  0
  6 36  1  0  0  0  0
  7 37  1  0  0  0  0
  8 33  1  6  0  0  0
  8  5  1  0  0  0  0
  8  9  1  0  0  0  0
  8 13  1  0  0  0  0
  9 38  1  0  0  0  0
  9 10  1  0  0  0  0
 10 11  1  0  0  0  0
 10 40  1  0  0  0  0
 11 12  1  0  0  0  0
 12 43  1  0  0  0  0
 12 42  1  0  0  0  0
 13 45  1  0  0  0  0
 13 12  1  0  0  0  0
 14 11  1  0  0  0  0
 14 16  1  0  0  0  0
 15 14  2  0  0  0  0
 16 46  1  6  0  0  0
 16 17  1  0  0  0  0
 16 32  1  0  0  0  0
 17 18  1  0  0  0  0
 17 47  1  0  0  0  0
 18 20  1  0  0  0  0
 19 18  2  0  0  0  0
 20 48  1  0  0  0  0
 21 20  2  0  0  0  0
 21 22  1  0  0  0  0
 22 49  1  0  0  0  0
 23 22  1  0  0  0  0
 23 50  1  0  0  0  0
 24 23  1  0  0  0  0
 25 24  2  0  0  0  0
 26 27  1  0  0  0  0
 26 24  1  0  0  0  0
 27 21  1  0  0  0  0
 28 51  1  0  0  0  0
 28 27  2  0  0  0  0
 29 28  1  0  0  0  0
 30 29  2  0  0  0  0
 30 31  1  0  0  0  0
 31 26  2  0  0  0  0
 32 56  1  0  0  0  0
 32 55  1  0  0  0  0
 34  3  1  0  0  0  0
 35  4  1  0  0  0  0
 39  9  1  0  0  0  0
 41 10  1  0  0  0  0
 44 13  1  0  0  0  0
 52 29  1  0  0  0  0
 53 30  1  0  0  0  0
 54 31  1  0  0  0  0
 57 32  1  0  0  0  0
 58 33  1  0  0  0  0
M  END
>  <Pose>
1

>  <Score>
-6.87

$$$$
