
 OpenBabel03232203513D

 58 61  0  0  0  0  0  0  0  0999 V2000
   -2.3130    8.8500  -13.4390 Cl  0  0  0  0  0  0  0  0  0  0  0  0
   -0.9700    9.9600  -13.3310 C   0  0  0  0  0  0  0  0  0  0  0  0
    0.2770    9.4420  -13.0540 C   0  0  0  0  0  0  0  0  0  0  0  0
    1.2990   10.4000  -13.0020 C   0  0  0  0  0  0  0  0  0  0  0  0
    1.0500   11.7070  -13.2110 N   0  0  0  0  0  0  0  0  0  0  0  0
   -0.1380   12.2080  -13.4750 N   0  0  0  0  0  0  0  0  0  0  0  0
   -1.1470   11.3310  -13.5340 C   0  0  0  0  0  0  0  0  0  0  0  0
   -2.3130   11.7280  -13.7820 O   0  0  0  0  0  0  0  0  0  0  0  0
   -0.3120   13.6070  -13.6820 C   0  0  0  0  0  0  0  0  0  0  0  0
   -0.5210   14.4870  -12.6320 C   0  0  0  0  0  0  0  0  0  0  0  0
   -0.6910   15.8440  -12.8150 C   0  0  0  0  0  0  0  0  0  0  0  0
   -0.6510   16.3380  -14.1020 C   0  0  0  0  0  0  0  0  0  0  0  0
   -0.4460   15.4880  -15.1740 C   0  0  0  0  0  0  0  0  0  0  0  0
   -0.2760   14.1160  -14.9550 C   0  0  0  0  0  0  0  0  0  0  0  0
    0.5210    8.0780  -12.8040 N   0  0  0  0  0  0  0  0  0  0  0  0
    0.2090    7.0800  -13.8230 C   0  0  0  0  0  0  0  0  0  0  0  0
    1.4230    6.2680  -14.2120 C   0  0  0  0  0  0  0  0  0  0  0  0
    2.4130    6.4240  -13.1740 N   0  0  0  0  0  0  0  0  0  0  0  0
    1.9180    6.3370  -11.8120 C   0  0  0  0  0  0  0  0  0  0  0  0
    1.1260    7.6160  -11.5470 C   0  0  0  0  0  0  0  0  0  0  0  0
    3.7840    6.6490  -13.4120 C   0  0  0  0  0  0  0  0  0  0  0  0
    4.1770    7.8110  -13.6560 O   0  0  0  0  0  0  0  0  0  0  0  0
    4.8030    5.5710  -13.3910 C   0  0  0  0  0  0  0  0  0  0  0  0
    5.8990    5.8880  -12.3990 C   0  0  0  0  0  0  0  0  0  0  0  0
    7.2160    6.1540  -13.0660 C   0  0  0  0  0  0  0  0  0  0  0  0
    8.3240    5.4300  -12.4850 N   0  0  0  0  0  0  0  0  0  0  0  0
    8.4630    4.0220  -12.4240 C   0  0  0  0  0  0  0  0  0  0  0  0
    7.6340    3.1580  -12.8690 O   0  0  0  0  0  0  0  0  0  0  0  0
    9.6690    3.6510  -11.7930 N   0  0  0  0  0  0  0  0  0  0  0  0
   10.3640    4.8560  -11.4000 C   0  0  0  0  0  0  0  0  0  0  0  0
    9.4980    5.9640  -11.8620 C   0  0  0  0  0  0  0  0  0  0  0  0
    9.7410    7.1820  -11.7320 O   0  0  0  0  0  0  0  0  0  0  0  0
   10.1430    2.3010  -11.5680 C   0  0  0  0  0  0  0  0  0  0  0  0
    2.2820   10.0300  -12.7770 H   0  0  0  0  0  0  0  0  0  0  0  0
   -0.5500   14.0830  -11.6280 H   0  0  0  0  0  0  0  0  0  0  0  0
   -0.8550   16.5250  -11.9680 H   0  0  0  0  0  0  0  0  0  0  0  0
   -0.7850   17.4020  -14.2380 H   0  0  0  0  0  0  0  0  0  0  0  0
   -0.4200   15.9120  -16.1630 H   0  0  0  0  0  0  0  0  0  0  0  0
   -0.1140   13.4400  -15.7840 H   0  0  0  0  0  0  0  0  0  0  0  0
   -0.5420    6.3960  -13.3040 H   0  0  0  0  0  0  0  0  0  0  0  0
   -0.2120    7.4780  -14.7490 H   0  0  0  0  0  0  0  0  0  0  0  0
    1.8350    6.5920  -15.1880 H   0  0  0  0  0  0  0  0  0  0  0  0
    1.1040    5.1920  -14.3140 H   0  0  0  0  0  0  0  0  0  0  0  0
    1.2160    5.4810  -11.7490 H   0  0  0  0  0  0  0  0  0  0  0  0
    2.7240    6.1900  -11.0690 H   0  0  0  0  0  0  0  0  0  0  0  0
    1.8970    8.3500  -11.2770 H   0  0  0  0  0  0  0  0  0  0  0  0
    0.3390    7.4020  -10.8490 H   0  0  0  0  0  0  0  0  0  0  0  0
    4.3530    4.5950  -13.1150 H   0  0  0  0  0  0  0  0  0  0  0  0
    5.2440    5.4190  -14.4060 H   0  0  0  0  0  0  0  0  0  0  0  0
    6.0450    5.0430  -11.7020 H   0  0  0  0  0  0  0  0  0  0  0  0
    5.6120    6.7700  -11.7760 H   0  0  0  0  0  0  0  0  0  0  0  0
    7.4600    7.2480  -13.0260 H   0  0  0  0  0  0  0  0  0  0  0  0
    7.2090    5.8970  -14.1450 H   0  0  0  0  0  0  0  0  0  0  0  0
   11.3740    4.9210  -11.8870 H   0  0  0  0  0  0  0  0  0  0  0  0
   10.5520    4.9100  -10.3110 H   0  0  0  0  0  0  0  0  0  0  0  0
   10.5930    1.9290  -12.5180 H   0  0  0  0  0  0  0  0  0  0  0  0
    9.2510    1.6330  -11.3960 H   0  0  0  0  0  0  0  0  0  0  0  0
   10.8540    2.2680  -10.7310 H   0  0  0  0  0  0  0  0  0  0  0  0
  1  2  1  0  0  0  0
  2  3  2  0  0  0  0
  3  4  1  0  0  0  0
  3 15  1  0  0  0  0
  4 34  1  0  0  0  0
  5  4  2  0  0  0  0
  6  5  1  0  0  0  0
  7  6  1  0  0  0  0
  7  2  1  0  0  0  0
  8  7  2  0  0  0  0
  9  6  1  0  0  0  0
  9 10  1  0  0  0  0
 10 35  1  0  0  0  0
 11 10  2  0  0  0  0
 11 36  1  0  0  0  0
 12 11  1  0  0  0  0
 13 14  1  0  0  0  0
 13 12  2  0  0  0  0
 14  9  2  0  0  0  0
 15 20  1  0  0  0  0
 16 40  1  0  0  0  0
 16 15  1  0  0  0  0
 17 16  1  0  0  0  0
 17 18  1  0  0  0  0
 18 19  1  0  0  0  0
 19 44  1  0  0  0  0
 19 20  1  0  0  0  0
 19 45  1  0  0  0  0
 20 46  1  0  0  0  0
 20 47  1  0  0  0  0
 21 23  1  0  0  0  0
 21 18  1  0  0  0  0
 22 21  2  0  0  0  0
 23 48  1  0  0  0  0
 23 24  1  0  0  0  0
 24 51  1  0  0  0  0
 24 50  1  0  0  0  0
 25 52  1  0  0  0  0
 25 26  1  0  0  0  0
 25 24  1  0  0  0  0
 26 27  1  0  0  0  0
 26 31  1  0  0  0  0
 27 29  1  0  0  0  0
 28 27  2  0  0  0  0
 29 33  1  0  0  0  0
 29 30  1  0  0  0  0
 30 55  1  0  0  0  0
 31 32  2  0  0  0  0
 31 30  1  0  0  0  0
 33 57  1  0  0  0  0
 33 58  1  0  0  0  0
 37 12  1  0  0  0  0
 38 13  1  0  0  0  0
 39 14  1  0  0  0  0
 41 16  1  0  0  0  0
 42 17  1  0  0  0  0
 43 17  1  0  0  0  0
 49 23  1  0  0  0  0
 53 25  1  0  0  0  0
 54 30  1  0  0  0  0
 56 33  1  0  0  0  0
M  END
>  <Pose>
1

>  <Score>
-5.34

$$$$
