
 OpenBabel03232203513D

 48 51  0  0  1  0  0  0  0  0999 V2000
   -0.1530   12.3550  -13.7810 Cl  0  0  0  0  0  0  0  0  0  0  0  0
    0.0480   13.8900  -12.9420 C   0  0  0  0  0  0  0  0  0  0  0  0
    1.1800   14.0600  -12.1820 C   0  0  0  0  0  0  0  0  0  0  0  0
    1.3070   15.2780  -11.5340 C   0  0  0  0  0  0  0  0  0  0  0  0
    0.3530   16.2160  -11.6690 N   0  0  0  0  0  0  0  0  0  0  0  0
   -0.7400   16.0660  -12.3980 N   0  0  0  0  0  0  0  0  0  0  0  0
   -0.8950   14.8950  -13.0390 C   0  0  0  0  0  0  0  0  0  0  0  0
   -1.9140   14.6790  -13.7550 O   0  0  0  0  0  0  0  0  0  0  0  0
   -1.7230   17.1070  -12.5020 C   0  0  0  0  0  0  0  0  0  0  0  0
   -2.0470   17.8710  -11.4000 C   0  0  0  0  0  0  0  0  0  0  0  0
   -3.0010   18.8880  -11.4860 C   0  0  0  0  0  0  0  0  0  0  0  0
   -3.6350   19.1430  -12.6760 C   0  0  0  0  0  0  0  0  0  0  0  0
   -3.3240   18.3910  -13.7800 C   0  0  0  0  0  0  0  0  0  0  0  0
   -2.3830   17.3950  -13.6790 C   0  0  0  0  0  0  0  0  0  0  0  0
    2.1310   13.0210  -12.0950 N   0  0  0  0  0  0  0  0  0  0  0  0
    3.4950   13.1870  -12.5840 C   0  0  0  0  0  0  0  0  0  0  0  0
    3.5970   12.2430  -13.7980 C   0  0  0  0  0  0  0  0  0  0  0  0
    3.1850   10.9230  -13.4370 N   0  0  0  0  0  0  0  0  0  0  0  0
    2.8540   10.6880  -12.0160 C   0  0  0  0  0  0  0  0  0  0  0  0
    1.8540   11.7160  -11.5230 C   0  0  0  0  0  0  0  0  0  0  0  0
    3.0840    9.8500  -14.3610 C   0  0  0  0  0  0  0  0  0  0  0  0
    3.8180    9.7960  -15.3920 O   0  0  0  0  0  0  0  0  0  0  0  0
    2.1340    8.7370  -14.1910 C   0  0  1  0  0  0  0  0  0  0  0  0
    2.5190    7.9110  -13.1810 O   0  0  0  0  0  0  0  0  0  0  0  0
    1.3790    7.3800  -12.5910 C   0  0  0  0  0  0  0  0  0  0  0  0
    0.4840    8.6090  -12.5250 C   0  0  0  0  0  0  0  0  0  0  0  0
    0.7330    9.2200  -13.8880 C   0  0  0  0  0  0  0  0  0  0  0  0
    2.1960   15.4220  -10.9320 H   0  0  0  0  0  0  0  0  0  0  0  0
   -1.5900   17.7280  -10.4360 H   0  0  0  0  0  0  0  0  0  0  0  0
   -3.2710   19.5010  -10.6330 H   0  0  0  0  0  0  0  0  0  0  0  0
   -4.3780   19.9230  -12.7710 H   0  0  0  0  0  0  0  0  0  0  0  0
   -3.7940   18.5530  -14.7300 H   0  0  0  0  0  0  0  0  0  0  0  0
   -2.1440   16.8100  -14.5450 H   0  0  0  0  0  0  0  0  0  0  0  0
    4.2000   12.8310  -11.8150 H   0  0  0  0  0  0  0  0  0  0  0  0
    3.6980   14.1880  -12.9570 H   0  0  0  0  0  0  0  0  0  0  0  0
    2.8600   12.6660  -14.5170 H   0  0  0  0  0  0  0  0  0  0  0  0
    4.6220   12.3210  -14.2130 H   0  0  0  0  0  0  0  0  0  0  0  0
    3.7980   10.8580  -11.4630 H   0  0  0  0  0  0  0  0  0  0  0  0
    2.5080    9.6650  -11.8760 H   0  0  0  0  0  0  0  0  0  0  0  0
    1.9190   11.7610  -10.4120 H   0  0  0  0  0  0  0  0  0  0  0  0
    0.8330   11.3610  -11.7650 H   0  0  0  0  0  0  0  0  0  0  0  0
    2.0800    8.2330  -15.1850 H   0  0  0  0  0  0  0  0  0  0  0  0
    0.9220    6.5770  -13.1970 H   0  0  0  0  0  0  0  0  0  0  0  0
    1.5740    7.0130  -11.5760 H   0  0  0  0  0  0  0  0  0  0  0  0
    0.8680    9.2990  -11.7630 H   0  0  0  0  0  0  0  0  0  0  0  0
   -0.5740    8.3230  -12.3870 H   0  0  0  0  0  0  0  0  0  0  0  0
    0.6510   10.3240  -13.8710 H   0  0  0  0  0  0  0  0  0  0  0  0
   -0.0060    8.7580  -14.5720 H   0  0  0  0  0  0  0  0  0  0  0  0
  1  2  1  0  0  0  0
  2  3  2  0  0  0  0
  3 15  1  0  0  0  0
  3  4  1  0  0  0  0
  4 28  1  0  0  0  0
  5  4  2  0  0  0  0
  6  5  1  0  0  0  0
  7  2  1  0  0  0  0
  7  6  1  0  0  0  0
  8  7  2  0  0  0  0
  9  6  1  0  0  0  0
  9 10  1  0  0  0  0
 10 29  1  0  0  0  0
 11 10  2  0  0  0  0
 11 30  1  0  0  0  0
 12 11  1  0  0  0  0
 13 14  1  0  0  0  0
 13 12  2  0  0  0  0
 14  9  2  0  0  0  0
 15 20  1  0  0  0  0
 16 15  1  0  0  0  0
 16 34  1  0  0  0  0
 17 18  1  0  0  0  0
 17 16  1  0  0  0  0
 18 19  1  0  0  0  0
 19 39  1  0  0  0  0
 19 20  1  0  0  0  0
 19 38  1  0  0  0  0
 20 40  1  0  0  0  0
 21 23  1  0  0  0  0
 21 18  1  0  0  0  0
 22 21  2  0  0  0  0
 23 42  1  6  0  0  0
 23 27  1  0  0  0  0
 23 24  1  0  0  0  0
 24 25  1  0  0  0  0
 25 26  1  0  0  0  0
 25 44  1  0  0  0  0
 26 46  1  0  0  0  0
 26 45  1  0  0  0  0
 27 47  1  0  0  0  0
 27 26  1  0  0  0  0
 31 12  1  0  0  0  0
 32 13  1  0  0  0  0
 33 14  1  0  0  0  0
 35 16  1  0  0  0  0
 36 17  1  0  0  0  0
 37 17  1  0  0  0  0
 41 20  1  0  0  0  0
 43 25  1  0  0  0  0
 48 27  1  0  0  0  0
M  END
>  <Pose>
1

>  <Score>
-5.48

$$$$
