
 OpenBabel03232203513D

 50 52  0  0  0  0  0  0  0  0999 V2000
   -3.7840   18.4910  -13.4340 Cl  0  0  0  0  0  0  0  0  0  0  0  0
   -3.5390   19.2520  -11.8790 C   0  0  0  0  0  0  0  0  0  0  0  0
   -2.3750   18.9940  -11.1830 C   0  0  0  0  0  0  0  0  0  0  0  0
   -2.2450   19.6260   -9.9590 C   0  0  0  0  0  0  0  0  0  0  0  0
   -3.1980   20.4440   -9.4740 N   0  0  0  0  0  0  0  0  0  0  0  0
   -4.3190   20.7030  -10.1280 N   0  0  0  0  0  0  0  0  0  0  0  0
   -4.4790   20.1050  -11.3220 C   0  0  0  0  0  0  0  0  0  0  0  0
   -5.5340   20.3440  -11.9460 O   0  0  0  0  0  0  0  0  0  0  0  0
   -5.3250   21.5750   -9.6050 C   0  0  0  0  0  0  0  0  0  0  0  0
   -5.0360   22.4570   -8.5840 C   0  0  0  0  0  0  0  0  0  0  0  0
   -6.0010   23.3010   -8.0740 C   0  0  0  0  0  0  0  0  0  0  0  0
   -7.2940   23.3050   -8.5560 C   0  0  0  0  0  0  0  0  0  0  0  0
   -7.5890   22.4260   -9.5770 C   0  0  0  0  0  0  0  0  0  0  0  0
   -6.6230   21.5850  -10.0810 C   0  0  0  0  0  0  0  0  0  0  0  0
   -1.3570   18.1280  -11.6880 N   0  0  0  0  0  0  0  0  0  0  0  0
   -1.5610   17.5070  -12.9670 C   0  0  0  0  0  0  0  0  0  0  0  0
   -1.0390   16.0880  -12.9840 C   0  0  0  0  0  0  0  0  0  0  0  0
    0.1330   15.9350  -12.1580 N   0  0  0  0  0  0  0  0  0  0  0  0
    0.8120   17.1200  -11.6920 C   0  0  0  0  0  0  0  0  0  0  0  0
   -0.1720   17.9220  -10.8800 C   0  0  0  0  0  0  0  0  0  0  0  0
    0.6010   14.6410  -11.8170 C   0  0  0  0  0  0  0  0  0  0  0  0
    0.0580   13.5920  -12.2930 O   0  0  0  0  0  0  0  0  0  0  0  0
    1.7430   14.4270  -10.8900 C   0  0  0  0  0  0  0  0  0  0  0  0
    2.9700   14.3930  -11.5690 O   0  0  0  0  0  0  0  0  0  0  0  0
    3.3180   13.2980  -12.3360 C   0  0  0  0  0  0  0  0  0  0  0  0
    4.2750   13.1700  -13.2610 N   0  0  0  0  0  0  0  0  0  0  0  0
    4.2710   11.9720  -13.7490 O   0  0  0  0  0  0  0  0  0  0  0  0
    3.3320   11.2320  -13.1970 C   0  0  0  0  0  0  0  0  0  0  0  0
    2.7040   12.0550  -12.2850 C   0  0  0  0  0  0  0  0  0  0  0  0
    3.0880    9.8220  -13.5510 C   0  0  0  0  0  0  0  0  0  0  0  0
   -1.3220   19.4270   -9.3950 H   0  0  0  0  0  0  0  0  0  0  0  0
   -4.0310   22.4770   -8.1850 H   0  0  0  0  0  0  0  0  0  0  0  0
   -5.7760   23.9930   -7.2730 H   0  0  0  0  0  0  0  0  0  0  0  0
   -8.0450   23.9750   -8.1470 H   0  0  0  0  0  0  0  0  0  0  0  0
   -8.6130   22.4480   -9.9390 H   0  0  0  0  0  0  0  0  0  0  0  0
   -6.8960   20.9150  -10.8780 H   0  0  0  0  0  0  0  0  0  0  0  0
   -2.6310   17.4740  -13.2480 H   0  0  0  0  0  0  0  0  0  0  0  0
   -1.0490   18.1490  -13.7270 H   0  0  0  0  0  0  0  0  0  0  0  0
   -1.8360   15.3780  -12.7590 H   0  0  0  0  0  0  0  0  0  0  0  0
   -0.7160   15.8760  -14.0380 H   0  0  0  0  0  0  0  0  0  0  0  0
    1.0430   17.7410  -12.6010 H   0  0  0  0  0  0  0  0  0  0  0  0
    1.7420   16.8950  -11.1440 H   0  0  0  0  0  0  0  0  0  0  0  0
   -0.4260   17.4100   -9.9240 H   0  0  0  0  0  0  0  0  0  0  0  0
    0.3080   18.9220  -10.6760 H   0  0  0  0  0  0  0  0  0  0  0  0
    1.6030   13.5300  -10.2570 H   0  0  0  0  0  0  0  0  0  0  0  0
    1.8040   15.2970  -10.1730 H   0  0  0  0  0  0  0  0  0  0  0  0
    1.8810   11.7490  -11.6600 H   0  0  0  0  0  0  0  0  0  0  0  0
    2.1310    9.4450  -13.1540 H   0  0  0  0  0  0  0  0  0  0  0  0
    3.9080    9.1510  -13.1600 H   0  0  0  0  0  0  0  0  0  0  0  0
    3.1120    9.7190  -14.6760 H   0  0  0  0  0  0  0  0  0  0  0  0
  2  7  1  0  0  0  0
  2  3  2  0  0  0  0
  3  4  1  0  0  0  0
  4  5  2  0  0  0  0
  4 31  1  0  0  0  0
  6  9  1  0  0  0  0
  6  5  1  0  0  0  0
  7  6  1  0  0  0  0
  8  7  2  0  0  0  0
  9 10  1  0  0  0  0
 10 32  1  0  0  0  0
 10 11  2  0  0  0  0
 11 33  1  0  0  0  0
 12 34  1  0  0  0  0
 12 11  1  0  0  0  0
 13 12  2  0  0  0  0
 14  9  2  0  0  0  0
 14 13  1  0  0  0  0
 15  3  1  0  0  0  0
 15 20  1  0  0  0  0
 16 15  1  0  0  0  0
 17 16  1  0  0  0  0
 17 39  1  0  0  0  0
 17 18  1  0  0  0  0
 18 21  1  0  0  0  0
 18 19  1  0  0  0  0
 19 42  1  0  0  0  0
 19 20  1  0  0  0  0
 20 44  1  0  0  0  0
 20 43  1  0  0  0  0
 21 23  1  0  0  0  0
 22 21  2  0  0  0  0
 23 45  1  0  0  0  0
 23 46  1  0  0  0  0
 24 23  1  0  0  0  0
 25 29  1  0  0  0  0
 25 24  1  0  0  0  0
 26 25  2  0  0  0  0
 27 26  1  0  0  0  0
 27 28  1  0  0  0  0
 28 29  2  0  0  0  0
 29 47  1  0  0  0  0
 30 28  1  0  0  0  0
 30 49  1  0  0  0  0
 30 48  1  0  0  0  0
 35 13  1  0  0  0  0
 36 14  1  0  0  0  0
 37 16  1  0  0  0  0
 38 16  1  0  0  0  0
 40 17  1  0  0  0  0
 41 19  1  0  0  0  0
 50 30  1  0  0  0  0
M  END
>  <Pose>
1

>  <Score>
-5.98

$$$$
