
 OpenBabel03232203513D

 55 58  0  0  1  0  0  0  0  0999 V2000
    2.2370   14.5820  -11.7910 B   0  0  0  0  0  0  0  0  0  0  0  0
    1.9000   12.8320  -12.4840 C   0  0  0  0  0  0  0  0  0  0  0  0
    2.8180   11.8550  -12.2300 C   0  0  0  0  0  0  0  0  0  0  0  0
    2.6110   10.5960  -12.7090 C   0  0  0  0  0  0  0  0  0  0  0  0
    1.5080   10.2250  -13.4540 C   0  0  0  0  0  0  0  0  0  0  0  0
    0.5960   11.2300  -13.6960 C   0  0  0  0  0  0  0  0  0  0  0  0
    0.7790   12.5280  -13.2210 C   0  0  0  0  0  0  0  0  0  0  0  0
    1.3880    8.8540  -13.9210 C   0  0  2  0  0  0  0  0  0  0  0  0
    0.2760    8.1230  -13.3900 N   0  0  0  0  0  0  0  0  0  0  0  0
    0.7220    7.1110  -12.5000 C   0  0  0  0  0  0  0  0  0  0  0  0
    0.0800    6.3840  -11.7040 O   0  0  0  0  0  0  0  0  0  0  0  0
    2.1930    6.9960  -12.6310 C   0  0  0  0  0  0  0  0  0  0  0  0
    2.9460    6.2090  -12.0050 O   0  0  0  0  0  0  0  0  0  0  0  0
    2.5600    7.9830  -13.6290 C   0  0  0  0  0  0  0  0  0  0  0  0
    3.7890    8.0630  -14.1530 C   0  0  0  0  0  0  0  0  0  0  0  0
    3.9550    9.1030  -15.0770 O   0  0  0  0  0  0  0  0  0  0  0  0
    4.8730    7.1510  -13.8070 C   0  0  0  0  0  0  0  0  0  0  0  0
    4.9180    5.8630  -13.7870 O   0  0  0  0  0  0  0  0  0  0  0  0
    6.0610    5.3660  -13.4200 C   0  0  0  0  0  0  0  0  0  0  0  0
    6.9140    6.4260  -13.1530 C   0  0  0  0  0  0  0  0  0  0  0  0
    6.1310    7.5540  -13.4070 C   0  0  0  0  0  0  0  0  0  0  0  0
    8.2020    6.1790  -12.7400 C   0  0  0  0  0  0  0  0  0  0  0  0
    8.6580    4.8900  -12.5880 C   0  0  0  0  0  0  0  0  0  0  0  0
    7.8110    3.8220  -12.8540 C   0  0  0  0  0  0  0  0  0  0  0  0
    6.5400    4.0770  -13.2630 C   0  0  0  0  0  0  0  0  0  0  0  0
    5.6740    3.0390  -13.5360 O   0  0  0  0  0  0  0  0  0  0  0  0
    4.3630    2.9200  -13.0020 C   0  0  0  0  0  0  0  0  0  0  0  0
   -1.1100    8.3550  -13.6910 C   0  0  0  0  0  0  0  0  0  0  0  0
   -1.7370    7.1570  -14.3820 C   0  0  0  0  0  0  0  0  0  0  0  0
   -3.1560    7.2200  -14.4550 N   0  0  0  0  0  4  0  0  0  0  0  0
   -3.7400    8.5030  -14.2060 C   0  0  0  0  0  0  0  0  0  0  0  0
   -3.6380    6.6740  -15.7170 C   0  0  0  0  0  0  0  0  0  0  0  0
    3.7230   12.0650  -11.6460 H   0  0  0  0  0  0  0  0  0  0  0  0
    3.3800    9.8440  -12.4800 H   0  0  0  0  0  0  0  0  0  0  0  0
   -0.2710   11.0020  -14.2660 H   0  0  0  0  0  0  0  0  0  0  0  0
    0.0550   13.2850  -13.4230 H   0  0  0  0  0  0  0  0  0  0  0  0
    1.1960    8.8850  -15.0380 H   0  0  0  0  0  0  0  0  0  0  0  0
    6.5020    8.5630  -13.2930 H   0  0  0  0  0  0  0  0  0  0  0  0
    8.8680    6.9970  -12.5290 H   0  0  0  0  0  0  0  0  0  0  0  0
    9.6560    4.6530  -12.2650 H   0  0  0  0  0  0  0  0  0  0  0  0
    8.2050    2.8030  -12.7250 H   0  0  0  0  0  0  0  0  0  0  0  0
    3.7520    2.3330  -13.7390 H   0  0  0  0  0  0  0  0  0  0  0  0
    4.4540    2.3840  -12.0480 H   0  0  0  0  0  0  0  0  0  0  0  0
    3.8550    3.8770  -12.8610 H   0  0  0  0  0  0  0  0  0  0  0  0
   -1.2620    9.2750  -14.2890 H   0  0  0  0  0  0  0  0  0  0  0  0
   -1.6770    8.5100  -12.7480 H   0  0  0  0  0  0  0  0  0  0  0  0
   -1.3980    6.2270  -13.8550 H   0  0  0  0  0  0  0  0  0  0  0  0
   -1.3410    7.0370  -15.4220 H   0  0  0  0  0  0  0  0  0  0  0  0
   -3.5390    6.5720  -13.7030 H   0  0  0  0  0  0  0  0  0  0  0  0
   -3.6080    8.7650  -13.1340 H   0  0  0  0  0  0  0  0  0  0  0  0
   -3.4130    9.2970  -14.8900 H   0  0  0  0  0  0  0  0  0  0  0  0
   -4.8430    8.3850  -14.3620 H   0  0  0  0  0  0  0  0  0  0  0  0
   -3.5840    7.4460  -16.4960 H   0  0  0  0  0  0  0  0  0  0  0  0
   -2.9860    5.8420  -16.0480 H   0  0  0  0  0  0  0  0  0  0  0  0
   -4.6750    6.3230  -15.5640 H   0  0  0  0  0  0  0  0  0  0  0  0
  2  3  1  0  0  0  0
  2  1  1  0  0  0  0
  3 33  1  0  0  0  0
  4 34  1  0  0  0  0
  4  3  2  0  0  0  0
  5  4  1  0  0  0  0
  6  5  2  0  0  0  0
  6  7  1  0  0  0  0
  7  2  2  0  0  0  0
  8 37  1  6  0  0  0
  8 14  1  0  0  0  0
  8  5  1  0  0  0  0
  8  9  1  0  0  0  0
  9 10  1  0  0  0  0
 10 11  2  0  0  0  0
 12 10  1  0  0  0  0
 12 13  2  0  0  0  0
 14 12  1  0  0  0  0
 15 17  1  0  0  0  0
 15 14  2  0  0  0  0
 16 15  1  0  0  0  0
 17 18  1  0  0  0  0
 17 21  2  0  0  0  0
 18 19  1  0  0  0  0
 19 25  2  0  0  0  0
 19 20  1  0  0  0  0
 20 22  2  0  0  0  0
 21 38  1  0  0  0  0
 21 20  1  0  0  0  0
 22 23  1  0  0  0  0
 22 39  1  0  0  0  0
 23 40  1  0  0  0  0
 24 41  1  0  0  0  0
 24 23  2  0  0  0  0
 25 24  1  0  0  0  0
 26 25  1  0  0  0  0
 26 27  1  0  0  0  0
 27 44  1  0  0  0  0
 27 43  1  0  0  0  0
 28  9  1  0  0  0  0
 28 46  1  0  0  0  0
 29 47  1  0  0  0  0
 29 28  1  0  0  0  0
 30 29  1  0  0  0  0
 30 31  1  0  0  0  0
 30 49  1  0  0  0  0
 31 50  1  0  0  0  0
 32 55  1  0  0  0  0
 32 30  1  0  0  0  0
 35  6  1  0  0  0  0
 36  7  1  0  0  0  0
 42 27  1  0  0  0  0
 45 28  1  0  0  0  0
 48 29  1  0  0  0  0
 51 31  1  0  0  0  0
 52 31  1  0  0  0  0
 53 32  1  0  0  0  0
 54 32  1  0  0  0  0
M  END
>  <Pose>
1

>  <Score>
-7.30

$$$$
