
 OpenBabel03232203513D

 49 52  0  0  1  0  0  0  0  0999 V2000
    1.6500    6.5930  -12.3820 B   0  0  0  0  0  0  0  0  0  0  0  0
    1.0310    8.3620  -12.7150 C   0  0  0  0  0  0  0  0  0  0  0  0
   -0.3100    8.6180  -12.8940 C   0  0  0  0  0  0  0  0  0  0  0  0
   -0.7710    9.8790  -13.1330 C   0  0  0  0  0  0  0  0  0  0  0  0
   -1.9970   10.4350  -13.3450 N   0  0  0  0  0  0  0  0  0  0  0  0
   -1.8650   11.7400  -13.5290 N   0  0  0  0  0  0  0  0  0  0  0  0
   -0.5760   12.0960  -13.4490 C   0  0  0  0  0  0  0  0  0  0  0  0
    0.1220   10.9200  -13.1990 C   0  0  0  0  0  0  0  0  0  0  0  0
    1.4800   10.6900  -13.0220 C   0  0  0  0  0  0  0  0  0  0  0  0
    1.9440    9.4160  -12.7800 C   0  0  0  0  0  0  0  0  0  0  0  0
    0.0360   13.3690  -13.5750 N   0  0  0  0  0  0  0  0  0  0  0  0
   -0.0940   14.3060  -14.6880 C   0  0  0  0  0  0  0  0  0  0  0  0
   -0.1600   15.6490  -13.9950 C   0  0  2  0  0  0  0  0  0  0  0  0
    0.9160   15.5110  -12.9250 C   0  0  0  0  0  0  0  0  0  0  0  0
    0.9140   14.0300  -12.6590 C   0  0  0  0  0  0  0  0  0  0  0  0
    1.5860   13.4440  -11.7580 O   0  0  0  0  0  0  0  0  0  0  0  0
   -1.4830   15.8830  -13.3680 C   0  0  0  0  0  0  0  0  0  0  0  0
   -2.4840   15.3110  -13.8660 O   0  0  0  0  0  0  0  0  0  0  0  0
   -1.6540   16.7200  -12.2420 N   0  0  0  0  0  0  0  0  0  0  0  0
   -1.9310   18.1290  -12.3500 C   0  0  0  0  0  0  0  0  0  0  0  0
   -2.3690   18.6630  -11.0030 C   0  0  0  0  0  0  0  0  0  0  0  0
   -3.1250   19.8880  -11.1020 N   0  0  0  0  0  0  0  0  0  0  0  0
   -4.4890   19.5290  -11.4760 C   0  0  0  0  0  0  0  0  0  0  0  0
   -5.2960   19.1520  -10.2370 C   0  0  0  0  0  0  0  0  0  0  0  0
   -5.5200   20.2240   -9.4050 O   0  0  0  0  0  0  0  0  0  0  0  0
   -4.5680   21.1900   -9.6330 C   0  0  0  0  0  0  0  0  0  0  0  0
   -3.1900   20.5970   -9.8450 C   0  0  0  0  0  0  0  0  0  0  0  0
   -1.0270    7.8100  -12.8450 H   0  0  0  0  0  0  0  0  0  0  0  0
   -2.8560    9.8290  -13.3420 H   0  0  0  0  0  0  0  0  0  0  0  0
    2.1830   11.5350  -13.0780 H   0  0  0  0  0  0  0  0  0  0  0  0
    3.0160    9.2530  -12.6440 H   0  0  0  0  0  0  0  0  0  0  0  0
   -0.9540   14.0950  -15.3340 H   0  0  0  0  0  0  0  0  0  0  0  0
    0.8260   14.2900  -15.3070 H   0  0  0  0  0  0  0  0  0  0  0  0
    0.1430   16.4590  -14.6790 H   0  0  0  0  0  0  0  0  0  0  0  0
    0.5200   15.9690  -11.9950 H   0  0  0  0  0  0  0  0  0  0  0  0
    1.8870   15.8810  -13.2430 H   0  0  0  0  0  0  0  0  0  0  0  0
   -1.5710   16.2710  -11.2950 H   0  0  0  0  0  0  0  0  0  0  0  0
   -2.8370   18.2170  -13.0130 H   0  0  0  0  0  0  0  0  0  0  0  0
   -1.1350   18.7170  -12.8030 H   0  0  0  0  0  0  0  0  0  0  0  0
   -1.4540   18.9070  -10.4030 H   0  0  0  0  0  0  0  0  0  0  0  0
   -2.9290   17.9040  -10.4220 H   0  0  0  0  0  0  0  0  0  0  0  0
   -5.0210   20.3140  -12.0090 H   0  0  0  0  0  0  0  0  0  0  0  0
   -4.4170   18.6140  -12.1070 H   0  0  0  0  0  0  0  0  0  0  0  0
   -6.2790   18.7720  -10.6370 H   0  0  0  0  0  0  0  0  0  0  0  0
   -4.8040   18.3460   -9.6570 H   0  0  0  0  0  0  0  0  0  0  0  0
   -4.8060   21.8550  -10.4850 H   0  0  0  0  0  0  0  0  0  0  0  0
   -4.5350   21.8300   -8.7180 H   0  0  0  0  0  0  0  0  0  0  0  0
   -2.4830   21.4650   -9.8230 H   0  0  0  0  0  0  0  0  0  0  0  0
   -2.9230   19.9500   -8.9790 H   0  0  0  0  0  0  0  0  0  0  0  0
  2  1  1  0  0  0  0
  3 28  1  0  0  0  0
  3  2  2  0  0  0  0
  4  3  1  0  0  0  0
  5 29  1  0  0  0  0
  5  4  1  0  0  0  0
  6  7  2  0  0  0  0
  6  5  1  0  0  0  0
  7  8  1  0  0  0  0
  8  4  2  0  0  0  0
  8  9  1  0  0  0  0
  9 10  2  0  0  0  0
 10  2  1  0  0  0  0
 10 31  1  0  0  0  0
 11  7  1  0  0  0  0
 11 15  1  0  0  0  0
 12 13  1  0  0  0  0
 12 11  1  0  0  0  0
 13 34  1  6  0  0  0
 13 17  1  0  0  0  0
 13 14  1  0  0  0  0
 14 15  1  0  0  0  0
 14 35  1  0  0  0  0
 15 16  2  0  0  0  0
 17 19  1  0  0  0  0
 18 17  2  0  0  0  0
 19 37  1  0  0  0  0
 20 19  1  0  0  0  0
 20 21  1  0  0  0  0
 21 41  1  0  0  0  0
 21 40  1  0  0  0  0
 22 21  1  0  0  0  0
 22 27  1  0  0  0  0
 23 22  1  0  0  0  0
 23 24  1  0  0  0  0
 24 45  1  0  0  0  0
 24 25  1  0  0  0  0
 26 25  1  0  0  0  0
 26 47  1  0  0  0  0
 27 48  1  0  0  0  0
 27 26  1  0  0  0  0
 27 49  1  0  0  0  0
 30  9  1  0  0  0  0
 32 12  1  0  0  0  0
 33 12  1  0  0  0  0
 36 14  1  0  0  0  0
 38 20  1  0  0  0  0
 39 20  1  0  0  0  0
 42 23  1  0  0  0  0
 43 23  1  0  0  0  0
 44 24  1  0  0  0  0
 46 26  1  0  0  0  0
M  END
>  <Pose>
1

>  <Score>
-5.87

$$$$
