
 OpenBabel03232203513D

 40 43  0  0  1  0  0  0  0  0999 V2000
   -6.5090   21.5070  -10.3260 Cl  0  0  0  0  0  0  0  0  0  0  0  0
   -4.9020   20.8150  -10.3670 C   0  0  0  0  0  0  0  0  0  0  0  0
   -4.4860   19.6820  -10.9990 N   0  0  0  0  0  0  0  0  0  0  0  0
   -3.1840   19.4580  -10.8110 C   0  0  0  0  0  0  0  0  0  0  0  0
   -2.7720   20.5300  -10.0090 C   0  0  0  0  0  0  0  0  0  0  0  0
   -3.8250   21.3690   -9.7310 C   0  0  0  0  0  0  0  0  0  0  0  0
   -3.8150   22.8350   -8.7750 Cl  0  0  0  0  0  0  0  0  0  0  0  0
   -2.3310   18.3920  -11.2670 C   0  0  0  0  0  0  0  0  0  0  0  0
   -1.1930   18.3410  -10.6000 O   0  0  0  0  0  0  0  0  0  0  0  0
   -2.5170   17.4470  -12.2640 N   0  0  0  0  0  0  0  0  0  0  0  0
   -3.2070   16.1850  -11.9000 C   0  0  0  0  0  0  0  0  0  0  0  0
   -2.2190   15.0810  -12.1650 C   0  0  0  0  0  0  0  0  0  0  0  0
   -1.0100   15.5000  -12.8010 N   0  0  0  0  0  0  0  0  0  0  0  0
   -0.9240   16.6030  -13.7480 C   0  0  0  0  0  0  0  0  0  0  0  0
   -2.1510   17.4930  -13.6310 C   0  0  0  0  0  0  0  0  0  0  0  0
    0.2080   14.8250  -12.5190 C   0  0  2  0  0  0  0  0  0  0  0  0
    1.1680   15.4050  -11.7730 N   0  0  0  0  0  0  0  0  0  0  0  0
    2.3350   14.7780  -11.4960 C   0  0  0  0  0  0  0  0  0  0  0  0
    2.5700   13.5400  -11.9650 N   0  0  0  0  0  0  0  0  0  0  0  0
    1.6640   12.8940  -12.7160 C   0  0  0  0  0  0  0  0  0  0  0  0
    1.6530   11.6790  -13.2950 N   0  0  0  0  0  0  0  0  0  0  0  0
    0.4990   11.5570  -13.9200 N   0  0  0  0  0  0  0  0  0  0  0  0
   -0.2500   12.6730  -13.7600 C   0  0  0  0  0  0  0  0  0  0  0  0
    0.4630   13.5570  -12.9930 C   0  0  0  0  0  0  0  0  0  0  0  0
    2.7030   10.6600  -13.2600 C   0  0  0  0  0  0  0  0  0  0  0  0
   -5.1810   19.1350  -11.5460 H   0  0  0  0  0  0  0  0  0  0  0  0
   -1.7680   20.7370   -9.6180 H   0  0  0  0  0  0  0  0  0  0  0  0
   -3.5390   16.2340  -10.8530 H   0  0  0  0  0  0  0  0  0  0  0  0
   -4.0900   16.0900  -12.5810 H   0  0  0  0  0  0  0  0  0  0  0  0
   -2.0510   14.5590  -11.2010 H   0  0  0  0  0  0  0  0  0  0  0  0
   -2.7240   14.3120  -12.8190 H   0  0  0  0  0  0  0  0  0  0  0  0
   -0.8220   16.2150  -14.7650 H   0  0  0  0  0  0  0  0  0  0  0  0
   -0.0350   17.1960  -13.4790 H   0  0  0  0  0  0  0  0  0  0  0  0
   -2.9410   16.9020  -14.2390 H   0  0  0  0  0  0  0  0  0  0  0  0
   -2.0290   18.4320  -14.1290 H   0  0  0  0  0  0  0  0  0  0  0  0
    3.0890   15.2650  -10.8960 H   0  0  0  0  0  0  0  0  0  0  0  0
   -1.2220   12.8360  -14.1610 H   0  0  0  0  0  0  0  0  0  0  0  0
    3.1410   10.6050  -14.2910 H   0  0  0  0  0  0  0  0  0  0  0  0
    2.3160    9.6800  -12.9480 H   0  0  0  0  0  0  0  0  0  0  0  0
    3.5050   10.9510  -12.5740 H   0  0  0  0  0  0  0  0  0  0  0  0
  2  1  1  0  0  0  0
  2  6  2  0  0  0  0
  3  4  1  0  0  0  0
  3  2  1  0  0  0  0
  4  5  2  0  0  0  0
  5  6  1  0  0  0  0
  5 27  1  0  0  0  0
  6  7  1  0  0  0  0
  8  4  1  0  0  0  0
  8  9  2  0  0  0  0
 10 11  1  0  0  0  0
 10  8  1  0  0  0  0
 11 28  1  0  0  0  0
 12 11  1  0  0  0  0
 12 30  1  0  0  0  0
 13 12  1  0  0  0  0
 14 15  1  0  0  0  0
 14 33  1  0  0  0  0
 14 13  1  0  0  0  0
 15 10  1  0  0  0  0
 16 13  1  6  0  0  0
 16 17  1  0  0  0  0
 17 18  2  0  0  0  0
 18 36  1  0  0  0  0
 19 18  1  0  0  0  0
 20 19  1  0  0  0  0
 21 25  1  0  0  0  0
 21 20  1  0  0  0  0
 22 23  2  0  0  0  0
 22 21  1  0  0  0  0
 23 24  1  0  0  0  0
 24 20  2  0  0  0  0
 24 16  1  0  0  0  0
 25 39  1  0  0  0  0
 25 40  1  0  0  0  0
 26  3  1  0  0  0  0
 29 11  1  0  0  0  0
 31 12  1  0  0  0  0
 32 14  1  0  0  0  0
 34 15  1  0  0  0  0
 35 15  1  0  0  0  0
 37 23  1  0  0  0  0
 38 25  1  0  0  0  0
M  END
>  <Pose>
1

>  <Score>
-5.86

$$$$
