
 OpenBabel03232203513D

 52 55  0  0  1  0  0  0  0  0999 V2000
   -3.2600    9.8470  -13.6110 Cl  0  0  0  0  0  0  0  0  0  0  0  0
   -1.7390    8.9890  -13.3840 C   0  0  0  0  0  0  0  0  0  0  0  0
   -0.5570    9.7140  -13.5940 C   0  0  0  0  0  0  0  0  0  0  0  0
    0.6220    9.0430  -13.4160 C   0  0  0  0  0  0  0  0  0  0  0  0
    0.6470    7.6840  -13.0400 C   0  0  0  0  0  0  0  0  0  0  0  0
   -0.5170    6.9850  -12.8380 C   0  0  0  0  0  0  0  0  0  0  0  0
   -1.7010    7.6650  -13.0180 C   0  0  0  0  0  0  0  0  0  0  0  0
    1.7190    9.9860  -13.6730 C   0  0  2  0  0  0  0  0  0  0  0  0
    2.6840    9.5320  -14.6090 N   0  0  0  0  0  0  0  0  0  0  0  0
    3.9450   10.0770  -14.3560 C   0  0  1  0  0  0  0  0  0  0  0  0
    3.8750   10.5830  -12.9320 C   0  0  2  0  0  0  0  0  0  0  0  0
    2.5240   10.2350  -12.3980 C   0  0  1  0  0  0  0  0  0  0  0  0
    2.0240   11.4110  -11.6390 C   0  0  0  0  0  0  0  0  0  0  0  0
    0.9610   11.4150  -10.9740 O   0  0  0  0  0  0  0  0  0  0  0  0
    2.9570   12.4770  -11.8160 N   0  0  0  0  0  0  0  0  0  0  0  0
    3.8690   12.0590  -12.8430 C   0  0  0  0  0  0  0  0  0  0  0  0
    4.5420   12.8350  -13.5400 O   0  0  0  0  0  0  0  0  0  0  0  0
    3.0120   13.7270  -11.1220 C   0  0  0  0  0  0  0  0  0  0  0  0
    1.7130   14.4250  -10.9320 C   0  0  0  0  0  0  0  0  0  0  0  0
    1.3190   15.3960  -11.9870 C   0  0  0  0  0  0  0  0  0  0  0  0
    0.2280   14.8370  -12.8940 C   0  0  0  0  0  0  0  0  0  0  0  0
    5.1520    9.2670  -14.6310 C   0  0  0  0  0  0  0  0  0  0  0  0
    5.1780    7.8660  -14.1680 C   0  0  0  0  0  0  0  0  0  0  0  0
    6.4360    7.3580  -13.6110 C   0  0  0  0  0  0  0  0  0  0  0  0
    7.5210    7.6060  -14.1690 O   0  0  0  0  0  0  0  0  0  0  0  0
    6.4940    6.5720  -12.4240 N   0  0  0  0  0  0  0  0  0  0  0  0
    1.0710   11.2450  -14.0510 C   0  0  0  0  0  0  0  0  0  0  0  0
    1.6040   12.3460  -14.3940 O   0  0  0  0  0  0  0  0  0  0  0  0
   -0.3310   11.0630  -13.9820 N   0  0  0  0  0  0  0  0  0  0  0  0
    1.6030    7.1850  -12.9100 H   0  0  0  0  0  0  0  0  0  0  0  0
   -0.5340    5.9430  -12.5490 H   0  0  0  0  0  0  0  0  0  0  0  0
   -2.6300    7.1340  -12.8640 H   0  0  0  0  0  0  0  0  0  0  0  0
    2.3700    9.4740  -15.5920 H   0  0  0  0  0  0  0  0  0  0  0  0
    4.0390   11.0100  -14.9930 H   0  0  0  0  0  0  0  0  0  0  0  0
    4.7070   10.2190  -12.3080 H   0  0  0  0  0  0  0  0  0  0  0  0
    2.5030    9.3710  -11.7330 H   0  0  0  0  0  0  0  0  0  0  0  0
    3.6600   14.4290  -11.7260 H   0  0  0  0  0  0  0  0  0  0  0  0
    3.5530   13.6400  -10.1480 H   0  0  0  0  0  0  0  0  0  0  0  0
    0.9090   13.6300  -10.9210 H   0  0  0  0  0  0  0  0  0  0  0  0
    1.6500   14.8610   -9.9030 H   0  0  0  0  0  0  0  0  0  0  0  0
    2.1080   15.7490  -12.6530 H   0  0  0  0  0  0  0  0  0  0  0  0
    0.9060   16.3000  -11.4530 H   0  0  0  0  0  0  0  0  0  0  0  0
    0.3680   13.7550  -13.0960 H   0  0  0  0  0  0  0  0  0  0  0  0
    0.2000   15.3760  -13.8680 H   0  0  0  0  0  0  0  0  0  0  0  0
   -0.7710   14.9350  -12.4240 H   0  0  0  0  0  0  0  0  0  0  0  0
    5.3870    9.3790  -15.7230 H   0  0  0  0  0  0  0  0  0  0  0  0
    6.0270    9.7910  -14.1390 H   0  0  0  0  0  0  0  0  0  0  0  0
    4.4020    7.6890  -13.3570 H   0  0  0  0  0  0  0  0  0  0  0  0
    4.8710    7.1390  -14.9600 H   0  0  0  0  0  0  0  0  0  0  0  0
    7.0300    6.8460  -11.5810 H   0  0  0  0  0  0  0  0  0  0  0  0
    5.9750    5.6780  -12.3970 H   0  0  0  0  0  0  0  0  0  0  0  0
   -1.0930   11.7570  -14.1690 H   0  0  0  0  0  0  0  0  0  0  0  0
  1  2  1  0  0  0  0
  2  7  1  0  0  0  0
  3  4  1  0  0  0  0
  3  2  2  0  0  0  0
  4  5  2  0  0  0  0
  5 30  1  0  0  0  0
  5  6  1  0  0  0  0
  6 31  1  0  0  0  0
  7 32  1  0  0  0  0
  7  6  2  0  0  0  0
  8 27  1  6  0  0  0
  8  4  1  0  0  0  0
  8 12  1  0  0  0  0
  9 10  1  0  0  0  0
  9  8  1  0  0  0  0
 10 34  1  6  0  0  0
 10 11  1  0  0  0  0
 11 16  1  0  0  0  0
 11 12  1  0  0  0  0
 11 35  1  1  0  0  0
 12 36  1  1  0  0  0
 12 13  1  0  0  0  0
 13 14  2  0  0  0  0
 15 13  1  0  0  0  0
 15 18  1  0  0  0  0
 16 15  1  0  0  0  0
 17 16  2  0  0  0  0
 18 19  1  0  0  0  0
 18 38  1  0  0  0  0
 19 39  1  0  0  0  0
 19 40  1  0  0  0  0
 20 42  1  0  0  0  0
 20 19  1  0  0  0  0
 21 45  1  0  0  0  0
 21 20  1  0  0  0  0
 22 10  1  0  0  0  0
 22 23  1  0  0  0  0
 22 47  1  0  0  0  0
 23 24  1  0  0  0  0
 23 48  1  0  0  0  0
 24 26  1  0  0  0  0
 25 24  2  0  0  0  0
 26 51  1  0  0  0  0
 26 50  1  0  0  0  0
 27 29  1  0  0  0  0
 28 27  2  0  0  0  0
 29  3  1  0  0  0  0
 33  9  1  0  0  0  0
 37 18  1  0  0  0  0
 41 20  1  0  0  0  0
 43 21  1  0  0  0  0
 44 21  1  0  0  0  0
 46 22  1  0  0  0  0
 49 23  1  0  0  0  0
 52 29  1  0  0  0  0
M  END
>  <Pose>
1

>  <Score>
-4.82

$$$$
