
 OpenBabel03232203513D

 62 65  0  0  1  0  0  0  0  0999 V2000
   -1.5220    6.2050  -13.9830 S   0  0  0  0  0  0  0  0  0  0  0  0
   -2.1320    5.6270  -15.2410 O   0  0  0  0  0  0  0  0  0  0  0  0
   -0.1930    5.4860  -13.7970 O   0  0  0  0  0  0  0  0  0  0  0  0
   -1.2060    7.8710  -14.0920 N   0  0  0  0  0  0  0  0  0  0  0  0
   -0.2250    8.2300  -15.0620 C   0  0  0  0  0  0  0  0  0  0  0  0
    1.1140    8.3760  -14.3660 C   0  0  0  0  0  0  0  0  0  0  0  0
    1.0410    9.5580  -13.5430 N   0  0  0  0  0  0  0  0  0  0  0  0
   -0.2380    9.8490  -13.0110 C   0  0  0  0  0  0  0  0  0  0  0  0
   -0.9930    8.5300  -12.8440 C   0  0  0  0  0  0  0  0  0  0  0  0
    1.8420   10.6480  -13.9760 C   0  0  0  0  0  0  0  0  0  0  0  0
    2.0770   11.5650  -12.8280 C   0  0  1  0  0  0  0  0  0  0  0  0
    3.4880   12.0410  -12.7340 C   0  0  0  0  0  0  0  0  0  0  0  0
    4.4070   11.5790  -13.4510 O   0  0  0  0  0  0  0  0  0  0  0  0
    3.6810   13.0380  -11.7810 O   0  0  0  0  0  0  0  0  0  0  0  0
    2.7190   13.9430  -11.3840 C   0  0  0  0  0  0  0  0  0  0  0  0
    1.5000   13.8590  -11.9610 C   0  0  0  0  0  0  0  0  0  0  0  0
    1.2740   12.8330  -12.9570 C   0  0  0  0  0  0  0  0  0  0  0  0
    0.4620   12.9720  -13.8870 O   0  0  0  0  0  0  0  0  0  0  0  0
    0.4270   14.7970  -11.6040 C   0  0  0  0  0  0  0  0  0  0  0  0
    0.4030   15.9950  -12.3380 N   0  0  0  0  0  0  0  0  0  0  0  0
    0.4940   17.2370  -11.6980 C   0  0  0  0  0  0  0  0  0  0  0  0
   -0.0800   18.3520  -12.6020 C   0  0  0  0  0  0  0  0  0  0  0  0
   -1.3480   17.8420  -13.0580 N   0  0  0  0  0  0  0  0  0  0  0  0
   -1.2470   16.7330  -13.9960 C   0  0  0  0  0  0  0  0  0  0  0  0
    0.0240   15.9460  -13.7030 C   0  0  0  0  0  0  0  0  0  0  0  0
   -2.5820   18.3640  -12.6220 C   0  0  0  0  0  0  0  0  0  0  0  0
   -2.7270   19.1560  -11.5050 C   0  0  0  0  0  0  0  0  0  0  0  0
   -3.9560   19.6430  -11.1270 C   0  0  0  0  0  0  0  0  0  0  0  0
   -5.1030   19.3690  -11.8350 C   0  0  0  0  0  0  0  0  0  0  0  0
   -4.9910   18.5830  -12.9520 C   0  0  0  0  0  0  0  0  0  0  0  0
   -3.7530   18.0900  -13.3360 C   0  0  0  0  0  0  0  0  0  0  0  0
   -4.0750   20.6400   -9.7020 Cl  0  0  0  0  0  0  0  0  0  0  0  0
   -2.5430    5.7650  -12.6270 C   0  0  0  0  0  0  0  0  0  0  0  0
   -0.4880    9.2730  -15.4070 H   0  0  0  0  0  0  0  0  0  0  0  0
   -0.2100    7.6030  -15.9470 H   0  0  0  0  0  0  0  0  0  0  0  0
    1.2480    7.5050  -13.6930 H   0  0  0  0  0  0  0  0  0  0  0  0
    1.9490    8.3940  -15.0680 H   0  0  0  0  0  0  0  0  0  0  0  0
   -0.8260   10.5960  -13.5710 H   0  0  0  0  0  0  0  0  0  0  0  0
   -0.1080   10.2620  -11.9740 H   0  0  0  0  0  0  0  0  0  0  0  0
   -0.3710    7.9050  -12.1510 H   0  0  0  0  0  0  0  0  0  0  0  0
   -1.9540    8.6960  -12.3030 H   0  0  0  0  0  0  0  0  0  0  0  0
    2.8430   10.3080  -14.3410 H   0  0  0  0  0  0  0  0  0  0  0  0
    1.3110   11.1340  -14.8270 H   0  0  0  0  0  0  0  0  0  0  0  0
    1.8130   11.0810  -11.8880 H   0  0  0  0  0  0  0  0  0  0  0  0
    2.8740   14.7100  -10.6460 H   0  0  0  0  0  0  0  0  0  0  0  0
    0.4860   14.9500  -10.4880 H   0  0  0  0  0  0  0  0  0  0  0  0
   -0.5560   14.2630  -11.7800 H   0  0  0  0  0  0  0  0  0  0  0  0
    1.5140   17.5720  -11.4550 H   0  0  0  0  0  0  0  0  0  0  0  0
   -0.2140   17.2750  -10.8190 H   0  0  0  0  0  0  0  0  0  0  0  0
   -0.0960   19.3200  -12.1160 H   0  0  0  0  0  0  0  0  0  0  0  0
    0.6540   18.4210  -13.4370 H   0  0  0  0  0  0  0  0  0  0  0  0
   -2.0870   16.0390  -13.9290 H   0  0  0  0  0  0  0  0  0  0  0  0
   -1.1040   17.1780  -15.0020 H   0  0  0  0  0  0  0  0  0  0  0  0
   -0.1690   14.8970  -13.9950 H   0  0  0  0  0  0  0  0  0  0  0  0
    0.8630   16.2960  -14.3390 H   0  0  0  0  0  0  0  0  0  0  0  0
   -1.8200   19.3820  -10.9270 H   0  0  0  0  0  0  0  0  0  0  0  0
   -6.0780   19.7660  -11.5190 H   0  0  0  0  0  0  0  0  0  0  0  0
   -5.8660   18.3300  -13.5580 H   0  0  0  0  0  0  0  0  0  0  0  0
   -3.6470   17.4680  -14.2210 H   0  0  0  0  0  0  0  0  0  0  0  0
   -3.6220    5.7230  -12.8680 H   0  0  0  0  0  0  0  0  0  0  0  0
   -2.2840    4.7310  -12.2530 H   0  0  0  0  0  0  0  0  0  0  0  0
   -2.4380    6.4290  -11.7460 H   0  0  0  0  0  0  0  0  0  0  0  0
  1  3  2  0  0  0  0
  1 33  1  0  0  0  0
  2  1  2  0  0  0  0
  4  1  1  0  0  0  0
  4  9  1  0  0  0  0
  5  6  1  0  0  0  0
  5  4  1  0  0  0  0
  6 36  1  0  0  0  0
  6  7  1  0  0  0  0
  7  8  1  0  0  0  0
  8  9  1  0  0  0  0
  8 39  1  0  0  0  0
  9 41  1  0  0  0  0
  9 40  1  0  0  0  0
 10  7  1  0  0  0  0
 10 11  1  0  0  0  0
 11 12  1  0  0  0  0
 11 44  1  1  0  0  0
 12 14  1  0  0  0  0
 13 12  2  0  0  0  0
 14 15  1  0  0  0  0
 15 45  1  0  0  0  0
 16 19  1  0  0  0  0
 16 15  2  0  0  0  0
 17 11  1  0  0  0  0
 17 16  1  0  0  0  0
 18 17  2  0  0  0  0
 19 46  1  0  0  0  0
 20 21  1  0  0  0  0
 20 19  1  0  0  0  0
 21 48  1  0  0  0  0
 21 49  1  0  0  0  0
 22 50  1  0  0  0  0
 22 21  1  0  0  0  0
 23 26  1  0  0  0  0
 23 22  1  0  0  0  0
 24 52  1  0  0  0  0
 24 25  1  0  0  0  0
 24 23  1  0  0  0  0
 25 20  1  0  0  0  0
 26 27  1  0  0  0  0
 27 28  2  0  0  0  0
 27 56  1  0  0  0  0
 28 32  1  0  0  0  0
 29 57  1  0  0  0  0
 29 28  1  0  0  0  0
 30 29  2  0  0  0  0
 31 30  1  0  0  0  0
 31 26  2  0  0  0  0
 33 61  1  0  0  0  0
 33 62  1  0  0  0  0
 34  5  1  0  0  0  0
 35  5  1  0  0  0  0
 37  6  1  0  0  0  0
 38  8  1  0  0  0  0
 42 10  1  0  0  0  0
 43 10  1  0  0  0  0
 47 19  1  0  0  0  0
 51 22  1  0  0  0  0
 53 24  1  0  0  0  0
 54 25  1  0  0  0  0
 55 25  1  0  0  0  0
 58 30  1  0  0  0  0
 59 31  1  0  0  0  0
 60 33  1  0  0  0  0
M  END
>  <Pose>
1

>  <Score>
-5.68

$$$$
