
 OpenBabel03222202113D

 50 53  0  0  0  0  0  0  0  0999 V2000
   20.4420   84.8630   18.0320 B   0  0  0  0  0  0  0  0  0  0  0  0
   19.9860   83.6130   19.3810 C   0  0  0  0  0  0  0  0  0  0  0  0
   19.6990   84.0450   20.6430 C   0  0  0  0  0  0  0  0  0  0  0  0
   19.3690   83.1020   21.6140 C   0  0  0  0  0  0  0  0  0  0  0  0
   19.3400   81.7520   21.2790 C   0  0  0  0  0  0  0  0  0  0  0  0
   19.6260   81.3110   20.0150 C   0  0  0  0  0  0  0  0  0  0  0  0
   19.9510   82.2540   19.0660 C   0  0  0  0  0  0  0  0  0  0  0  0
   20.2390   81.7960   17.7890 O   0  0  0  0  0  0  0  0  0  0  0  0
   19.5900   79.8940   19.6850 C   0  0  0  0  0  0  0  0  0  0  0  0
   20.1300   78.9810   20.4100 N   0  0  0  0  0  0  0  0  0  0  0  0
   20.0350   77.6090   19.9950 N   0  0  0  0  0  0  0  0  0  0  0  0
   20.7920   77.2270   18.8960 C   0  0  0  0  0  0  0  0  0  0  0  0
   20.8620   75.9630   18.6560 O   0  0  0  0  0  0  0  0  0  0  0  0
   21.5300   78.0570   17.9620 C   0  0  0  0  0  0  0  0  0  0  0  0
   22.2410   79.1820   18.2940 N   0  0  0  0  0  0  0  0  0  0  0  0
   22.7860   79.6830   17.2200 N   0  0  0  0  0  0  0  0  0  0  0  0
   22.4910   78.9660   16.1490 N   0  0  0  0  0  0  0  0  0  0  0  0
   21.7180   77.9540   16.5790 C   0  0  0  0  0  0  0  0  0  0  0  0
   21.1070   76.9030   15.7600 C   0  0  0  0  0  0  0  0  0  0  0  0
   19.6430   76.9460   15.7180 N   0  0  0  0  0  0  0  0  0  0  0  0
   19.1570   75.7060   15.0800 C   0  0  0  0  0  0  0  0  0  0  0  0
   19.9330   75.4400   13.8380 C   0  0  0  0  0  0  0  0  0  0  0  0
   19.8880   76.5430   13.0200 O   0  0  0  0  0  0  0  0  0  0  0  0
   19.0060   77.5110   13.4230 C   0  0  0  0  0  0  0  0  0  0  0  0
   19.2420   78.0480   14.8110 C   0  0  0  0  0  0  0  0  0  0  0  0
   22.9160   79.2880   14.8370 C   0  0  0  0  0  0  0  0  0  0  0  0
   23.1790   78.4700   13.7960 N   0  0  0  0  0  0  0  0  0  0  0  0
   23.5360   79.1770   12.7560 O   0  0  0  0  0  0  0  0  0  0  0  0
   23.5270   80.4530   13.0480 N   0  0  0  0  0  0  0  0  0  0  0  0
   23.1470   80.5590   14.3320 C   0  0  0  0  0  0  0  0  0  0  0  0
   23.0140   81.7830   15.0220 N   0  0  0  0  0  0  0  0  0  0  0  0
   18.9650   83.6700   23.3770 B   0  0  0  0  0  0  0  0  0  0  0  0
   19.7230   85.3860   20.9980 O   0  0  0  0  0  0  0  0  0  0  0  0
   19.0860   81.0280   22.0250 H   0  0  0  0  0  0  0  0  0  0  0  0
   21.1690   81.4630   17.5650 H   0  0  0  0  0  0  0  0  0  0  0  0
   19.0840   79.5700   18.7790 H   0  0  0  0  0  0  0  0  0  0  0  0
   19.3920   77.0080   20.5630 H   0  0  0  0  0  0  0  0  0  0  0  0
   21.3750   75.9040   16.1110 H   0  0  0  0  0  0  0  0  0  0  0  0
   21.4200   77.0240   14.7140 H   0  0  0  0  0  0  0  0  0  0  0  0
   19.1760   74.8650   15.7910 H   0  0  0  0  0  0  0  0  0  0  0  0
   18.1010   75.8980   14.8150 H   0  0  0  0  0  0  0  0  0  0  0  0
   20.9850   75.1650   14.0230 H   0  0  0  0  0  0  0  0  0  0  0  0
   19.4130   74.6110   13.2740 H   0  0  0  0  0  0  0  0  0  0  0  0
   19.1690   78.3870   12.7250 H   0  0  0  0  0  0  0  0  0  0  0  0
   17.9570   77.1860   13.2610 H   0  0  0  0  0  0  0  0  0  0  0  0
   18.2770   78.4250   15.1710 H   0  0  0  0  0  0  0  0  0  0  0  0
   19.9830   78.8410   14.7690 H   0  0  0  0  0  0  0  0  0  0  0  0
   22.2070   82.3950   14.8050 H   0  0  0  0  0  0  0  0  0  0  0  0
   23.6930   82.0960   15.7400 H   0  0  0  0  0  0  0  0  0  0  0  0
   19.7850   85.6680   21.9620 H   0  0  0  0  0  0  0  0  0  0  0  0
  1  2  1  0  0  0  0
  2  3  1  0  0  0  0
  3 33  1  0  0  0  0
  3  4  2  0  0  0  0
  4 32  1  0  0  0  0
  5  4  1  0  0  0  0
  5 34  1  0  0  0  0
  6  5  2  0  0  0  0
  7  2  2  0  0  0  0
  7  6  1  0  0  0  0
  8  7  1  0  0  0  0
  9  6  1  0  0  0  0
  9 10  2  0  0  0  0
 11 10  1  0  0  0  0
 11 37  1  0  0  0  0
 12 11  1  0  0  0  0
 13 12  2  0  0  0  0
 14 15  1  0  0  0  0
 14 12  1  0  0  0  0
 16 15  2  0  0  0  0
 17 18  1  0  0  0  0
 17 16  1  0  0  0  0
 18 14  2  0  0  0  0
 19 38  1  0  0  0  0
 19 18  1  0  0  0  0
 20 19  1  0  0  0  0
 21 20  1  0  0  0  0
 21 40  1  0  0  0  0
 22 42  1  0  0  0  0
 22 21  1  0  0  0  0
 23 24  1  0  0  0  0
 23 22  1  0  0  0  0
 24 25  1  0  0  0  0
 25 46  1  0  0  0  0
 25 20  1  0  0  0  0
 26 17  1  0  0  0  0
 27 26  2  0  0  0  0
 28 29  1  0  0  0  0
 28 27  1  0  0  0  0
 29 30  2  0  0  0  0
 30 26  1  0  0  0  0
 30 31  1  0  0  0  0
 31 49  1  0  0  0  0
 33 50  1  0  0  0  0
 35  8  1  0  0  0  0
 36  9  1  0  0  0  0
 39 19  1  0  0  0  0
 41 21  1  0  0  0  0
 43 22  1  0  0  0  0
 44 24  1  0  0  0  0
 45 24  1  0  0  0  0
 47 25  1  0  0  0  0
 48 31  1  0  0  0  0
M  END
>  <Pose>
1

>  <Score>
-7.91

$$$$
