
 OpenBabel03222202113D

 58 61  0  0  0  0  0  0  0  0999 V2000
   18.7630   79.3940   18.0630 B   0  0  0  0  0  0  0  0  0  0  0  0
   20.3260   78.6470   17.2390 C   0  0  0  0  0  0  0  0  0  0  0  0
   21.5560   79.1660   17.5360 C   0  0  0  0  0  0  0  0  0  0  0  0
   22.6890   78.6320   16.9240 C   0  0  0  0  0  0  0  0  0  0  0  0
   22.5650   77.5870   16.0190 C   0  0  0  0  0  0  0  0  0  0  0  0
   21.3420   77.0680   15.7080 C   0  0  0  0  0  0  0  0  0  0  0  0
   20.2430   77.6130   16.3320 C   0  0  0  0  0  0  0  0  0  0  0  0
   21.0830   76.1200   14.6040 C   0  0  0  0  0  0  0  0  0  0  0  0
   20.1940   76.0630   13.8600 N   0  0  0  0  0  0  0  0  0  0  0  0
   19.2010   75.9800   13.0110 N   0  0  0  0  0  0  0  0  0  0  0  0
   19.4580   76.8560   11.8440 C   0  0  0  0  0  0  0  0  0  0  0  0
   18.9560   76.6570   10.6400 N   0  0  0  0  0  4  0  0  0  0  0  0
   19.3920   77.3810    9.5690 C   0  0  0  0  0  0  0  0  0  0  0  0
   20.3570   78.2950    9.8290 N   0  0  0  0  0  0  0  0  0  0  0  0
   20.9050   78.5420   11.0340 C   0  0  0  0  0  0  0  0  0  0  0  0
   20.4240   77.7920   12.0510 N   0  0  0  0  0  0  0  0  0  0  0  0
   21.9910   79.3840   11.1960 N   0  0  0  0  0  0  0  0  0  0  0  0
   22.8210   79.5890   12.3190 C   0  0  0  0  0  0  0  0  0  0  0  0
   22.6540   81.0560   12.7240 C   0  0  0  0  0  0  0  0  0  0  0  0
   22.9420   81.8290   11.6210 O   0  0  0  0  0  0  0  0  0  0  0  0
   22.1250   81.6390   10.5300 C   0  0  0  0  0  0  0  0  0  0  0  0
   22.3410   80.1960    9.9920 C   0  0  0  0  0  0  0  0  0  0  0  0
   18.9420   77.1400    8.2500 N   0  0  0  0  0  0  0  0  0  0  0  0
   18.4070   78.2540    7.4510 C   0  0  0  0  0  0  0  0  0  0  0  0
   17.1000   77.7020    6.8250 C   0  0  0  0  0  0  0  0  0  0  0  0
   17.5210   76.7490    5.9420 O   0  0  0  0  0  0  0  0  0  0  0  0
   18.0360   75.6310    6.5350 C   0  0  0  0  0  0  0  0  0  0  0  0
   18.9600   75.8440    7.6890 C   0  0  0  0  0  0  0  0  0  0  0  0
   23.8700   79.2020   17.2820 O   0  0  0  0  0  0  0  0  0  0  0  0
   24.9360   79.5980   16.4940 C   0  0  0  0  0  0  0  0  0  0  0  0
   26.1320   78.6630   16.6060 C   0  0  0  0  0  0  0  0  0  0  0  0
   21.6280   80.2070   18.4370 O   0  0  0  0  0  0  0  0  0  0  0  0
   23.4260   77.1490   15.5570 H   0  0  0  0  0  0  0  0  0  0  0  0
   19.2610   77.2250   16.1520 H   0  0  0  0  0  0  0  0  0  0  0  0
   21.8590   75.3320   14.4550 H   0  0  0  0  0  0  0  0  0  0  0  0
   18.3450   75.4620   12.9780 H   0  0  0  0  0  0  0  0  0  0  0  0
   22.6920   78.9410   13.1840 H   0  0  0  0  0  0  0  0  0  0  0  0
   23.8950   79.5060   11.9280 H   0  0  0  0  0  0  0  0  0  0  0  0
   23.4590   81.2770   13.4700 H   0  0  0  0  0  0  0  0  0  0  0  0
   21.6490   81.1900   13.1320 H   0  0  0  0  0  0  0  0  0  0  0  0
   22.4160   82.2950    9.7250 H   0  0  0  0  0  0  0  0  0  0  0  0
   21.0410   81.8050   10.7300 H   0  0  0  0  0  0  0  0  0  0  0  0
   21.6560   80.0020    9.1980 H   0  0  0  0  0  0  0  0  0  0  0  0
   23.3910   80.0290    9.7980 H   0  0  0  0  0  0  0  0  0  0  0  0
   18.1090   79.0940    8.0790 H   0  0  0  0  0  0  0  0  0  0  0  0
   19.1050   78.5880    6.7070 H   0  0  0  0  0  0  0  0  0  0  0  0
   16.5870   78.5170    6.3360 H   0  0  0  0  0  0  0  0  0  0  0  0
   16.5180   77.2850    7.6870 H   0  0  0  0  0  0  0  0  0  0  0  0
   18.6070   75.0530    5.7440 H   0  0  0  0  0  0  0  0  0  0  0  0
   17.2100   74.9500    6.8220 H   0  0  0  0  0  0  0  0  0  0  0  0
   20.0090   75.5600    7.4170 H   0  0  0  0  0  0  0  0  0  0  0  0
   18.6300   75.1380    8.5160 H   0  0  0  0  0  0  0  0  0  0  0  0
   24.5680   79.5310   15.4150 H   0  0  0  0  0  0  0  0  0  0  0  0
   25.2670   80.6090   16.6950 H   0  0  0  0  0  0  0  0  0  0  0  0
   26.0340   77.9420   17.4210 H   0  0  0  0  0  0  0  0  0  0  0  0
   27.0560   79.2830   16.7350 H   0  0  0  0  0  0  0  0  0  0  0  0
   26.2590   78.1060   15.6450 H   0  0  0  0  0  0  0  0  0  0  0  0
   22.3570   80.3220   19.0990 H   0  0  0  0  0  0  0  0  0  0  0  0
  2  3  1  0  0  0  0
  2  1  1  0  0  0  0
  3 32  1  0  0  0  0
  4 29  1  0  0  0  0
  4  3  2  0  0  0  0
  5  4  1  0  0  0  0
  6  5  2  0  0  0  0
  6  7  1  0  0  0  0
  7  2  2  0  0  0  0
  8  6  1  0  0  0  0
  9  8  1  0  0  0  0
 10  9  1  0  0  0  0
 11 16  1  0  0  0  0
 11 10  1  0  0  0  0
 12 11  2  0  0  0  0
 13 14  1  0  0  0  0
 13 12  2  0  0  0  0
 14 15  2  0  0  0  0
 15 17  1  0  0  0  0
 15 16  1  0  0  0  0
 17 18  1  0  0  0  0
 18 19  1  0  0  0  0
 18 37  1  0  0  0  0
 19 40  1  0  0  0  0
 19 39  1  0  0  0  0
 20 19  1  0  0  0  0
 21 42  1  0  0  0  0
 21 20  1  0  0  0  0
 22 21  1  0  0  0  0
 22 17  1  0  0  0  0
 23 13  1  0  0  0  0
 24 45  1  0  0  0  0
 24 23  1  0  0  0  0
 25 24  1  0  0  0  0
 25 48  1  0  0  0  0
 26 27  1  0  0  0  0
 26 25  1  0  0  0  0
 27 50  1  0  0  0  0
 27 28  1  0  0  0  0
 28 23  1  0  0  0  0
 28 52  1  0  0  0  0
 30 31  1  0  0  0  0
 30 54  1  0  0  0  0
 30 29  1  0  0  0  0
 31 56  1  0  0  0  0
 31 55  1  0  0  0  0
 32 58  1  0  0  0  0
 33  5  1  0  0  0  0
 34  7  1  0  0  0  0
 35  8  1  0  0  0  0
 36 10  1  0  0  0  0
 38 18  1  0  0  0  0
 41 21  1  0  0  0  0
 43 22  1  0  0  0  0
 44 22  1  0  0  0  0
 46 24  1  0  0  0  0
 47 25  1  0  0  0  0
 49 27  1  0  0  0  0
 51 28  1  0  0  0  0
 53 30  1  0  0  0  0
 57 31  1  0  0  0  0
M  END
>  <Pose>
1

>  <Score>
-6.86

$$$$
