
 OpenBabel03222202113D

 64 67  0  0  1  0  0  0  0  0999 V2000
   20.7470   78.5250    9.5060 B   0  0  0  0  0  0  0  0  0  0  0  0
   19.8630   76.8630    9.7360 C   0  0  0  0  0  0  0  0  0  0  0  0
   19.5990   76.0740    8.6080 C   0  0  0  0  0  0  0  0  0  0  0  0
   18.9520   74.8570    8.7760 C   0  0  0  0  0  0  0  0  0  0  0  0
   18.5980   74.4760   10.0270 C   0  0  0  0  0  0  0  0  0  0  0  0
   18.8590   75.2570   11.1410 C   0  0  0  0  0  0  0  0  0  0  0  0
   19.4980   76.4650   11.0070 C   0  0  0  0  0  0  0  0  0  0  0  0
   18.4040   74.7120   12.4470 C   0  0  1  0  0  0  0  0  0  0  0  0
   18.6580   73.2870   12.4270 N   0  0  0  0  0  0  0  0  0  0  0  0
   19.7450   72.9460   13.2390 C   0  0  0  0  0  0  0  0  0  0  0  0
   20.2750   71.8280   13.3240 O   0  0  0  0  0  0  0  0  0  0  0  0
   20.1470   74.1490   13.9690 C   0  0  0  0  0  0  0  0  0  0  0  0
   21.1070   74.1610   14.7810 O   0  0  0  0  0  0  0  0  0  0  0  0
   19.2650   75.2270   13.5740 C   0  0  0  0  0  0  0  0  0  0  0  0
   19.2680   76.4290   14.0840 C   0  0  0  0  0  0  0  0  0  0  0  0
   18.4140   77.3930   13.5720 O   0  0  0  0  0  0  0  0  0  0  0  0
   20.1330   76.7950   15.1780 C   0  0  0  0  0  0  0  0  0  0  0  0
   21.2320   77.5860   14.8180 C   0  0  0  0  0  0  0  0  0  0  0  0
   22.1200   78.0390   15.7620 C   0  0  0  0  0  0  0  0  0  0  0  0
   21.9420   77.7170   17.0870 C   0  0  0  0  0  0  0  0  0  0  0  0
   20.8510   76.9350   17.4180 C   0  0  0  0  0  0  0  0  0  0  0  0
   19.9490   76.4730   16.4850 C   0  0  0  0  0  0  0  0  0  0  0  0
   22.9890   78.3080   17.8260 O   0  0  0  0  0  0  0  0  0  0  0  0
   24.0290   78.6680   16.9220 C   0  0  2  0  0  0  0  0  0  0  0  0
   23.3480   78.8790   15.5890 C   0  0  0  0  0  0  0  0  0  0  0  0
   25.0430   77.5530   16.7470 C   0  0  0  0  0  0  0  0  0  0  0  0
   17.8460   72.3890   11.6330 C   0  0  0  0  0  0  0  0  0  0  0  0
   16.7840   71.6600   12.3410 C   0  0  0  0  0  0  0  0  0  0  0  0
   16.4240   70.3040   11.8570 C   0  0  0  0  0  0  0  0  0  0  0  0
   15.1910   70.2490   11.1100 N   0  0  0  0  0  4  0  0  0  0  0  0
   15.5050   70.1480    9.6770 C   0  0  0  0  0  0  0  0  0  0  0  0
   14.5120   71.5170   11.3070 C   0  0  0  0  0  0  0  0  0  0  0  0
   18.6870   74.0670    7.6540 O   0  0  0  0  0  0  0  0  0  0  0  0
   17.6090   74.2990    6.7880 C   0  0  0  0  0  0  0  0  0  0  0  0
   19.9640   76.4720    7.3460 O   0  0  0  0  0  0  0  0  0  0  0  0
   18.0870   73.5080   10.1240 H   0  0  0  0  0  0  0  0  0  0  0  0
   19.6950   77.0600   11.8920 H   0  0  0  0  0  0  0  0  0  0  0  0
   17.3310   74.9130   12.6370 H   0  0  0  0  0  0  0  0  0  0  0  0
   21.4030   77.8650   13.7640 H   0  0  0  0  0  0  0  0  0  0  0  0
   20.6850   76.6630   18.4710 H   0  0  0  0  0  0  0  0  0  0  0  0
   19.0840   75.8800   16.7550 H   0  0  0  0  0  0  0  0  0  0  0  0
   24.5450   79.5980   17.1990 H   0  0  0  0  0  0  0  0  0  0  0  0
   23.9780   78.4920   14.7340 H   0  0  0  0  0  0  0  0  0  0  0  0
   23.1260   79.9250   15.3600 H   0  0  0  0  0  0  0  0  0  0  0  0
   24.5880   76.5900   17.0840 H   0  0  0  0  0  0  0  0  0  0  0  0
   25.9930   77.7850   17.2770 H   0  0  0  0  0  0  0  0  0  0  0  0
   25.2810   77.4410   15.6820 H   0  0  0  0  0  0  0  0  0  0  0  0
   17.3940   72.9820   10.8120 H   0  0  0  0  0  0  0  0  0  0  0  0
   18.5250   71.6700   11.0780 H   0  0  0  0  0  0  0  0  0  0  0  0
   15.8440   72.2840   12.2950 H   0  0  0  0  0  0  0  0  0  0  0  0
   17.0100   71.5950   13.4210 H   0  0  0  0  0  0  0  0  0  0  0  0
   17.1980   69.7820   11.2810 H   0  0  0  0  0  0  0  0  0  0  0  0
   16.2540   69.6680   12.7690 H   0  0  0  0  0  0  0  0  0  0  0  0
   14.5440   69.5060   11.3890 H   0  0  0  0  0  0  0  0  0  0  0  0
   15.9130   69.1310    9.4330 H   0  0  0  0  0  0  0  0  0  0  0  0
   14.6030   70.2940    9.0510 H   0  0  0  0  0  0  0  0  0  0  0  0
   16.2510   70.9410    9.4270 H   0  0  0  0  0  0  0  0  0  0  0  0
   13.4730   71.3820   11.6590 H   0  0  0  0  0  0  0  0  0  0  0  0
   14.5370   72.1350   10.3820 H   0  0  0  0  0  0  0  0  0  0  0  0
   15.0250   72.1400   12.0930 H   0  0  0  0  0  0  0  0  0  0  0  0
   16.6270   74.3310    7.3270 H   0  0  0  0  0  0  0  0  0  0  0  0
   17.8090   75.2790    6.2660 H   0  0  0  0  0  0  0  0  0  0  0  0
   17.5940   73.5100    6.0290 H   0  0  0  0  0  0  0  0  0  0  0  0
   20.9120   76.4390    7.0620 H   0  0  0  0  0  0  0  0  0  0  0  0
  1  2  1  0  0  0  0
  2  7  1  0  0  0  0
  3  4  1  0  0  0  0
  3  2  2  0  0  0  0
  4  5  2  0  0  0  0
  5 36  1  0  0  0  0
  5  6  1  0  0  0  0
  6  8  1  0  0  0  0
  7  6  2  0  0  0  0
  7 37  1  0  0  0  0
  8 38  1  1  0  0  0
  8 14  1  0  0  0  0
  9  8  1  0  0  0  0
  9 10  1  0  0  0  0
 10 11  2  0  0  0  0
 10 12  1  0  0  0  0
 12 13  2  0  0  0  0
 14 12  1  0  0  0  0
 14 15  2  0  0  0  0
 15 17  1  0  0  0  0
 16 15  1  0  0  0  0
 17 22  1  0  0  0  0
 18 17  2  0  0  0  0
 18 19  1  0  0  0  0
 19 20  2  0  0  0  0
 20 21  1  0  0  0  0
 20 23  1  0  0  0  0
 21 40  1  0  0  0  0
 22 41  1  0  0  0  0
 22 21  2  0  0  0  0
 24 42  1  1  0  0  0
 24 23  1  0  0  0  0
 25 19  1  0  0  0  0
 25 24  1  0  0  0  0
 26 24  1  0  0  0  0
 26 45  1  0  0  0  0
 26 46  1  0  0  0  0
 27 28  1  0  0  0  0
 27  9  1  0  0  0  0
 28 51  1  0  0  0  0
 29 28  1  0  0  0  0
 29 53  1  0  0  0  0
 30 32  1  0  0  0  0
 30 54  1  0  0  0  0
 30 29  1  0  0  0  0
 31 30  1  0  0  0  0
 32 58  1  0  0  0  0
 32 60  1  0  0  0  0
 33  4  1  0  0  0  0
 34 61  1  0  0  0  0
 34 33  1  0  0  0  0
 35  3  1  0  0  0  0
 39 18  1  0  0  0  0
 43 25  1  0  0  0  0
 44 25  1  0  0  0  0
 47 26  1  0  0  0  0
 48 27  1  0  0  0  0
 49 27  1  0  0  0  0
 50 28  1  0  0  0  0
 52 29  1  0  0  0  0
 55 31  1  0  0  0  0
 56 31  1  0  0  0  0
 57 31  1  0  0  0  0
 59 32  1  0  0  0  0
 62 34  1  0  0  0  0
 63 34  1  0  0  0  0
 64 35  1  0  0  0  0
M  END
>  <Pose>
1

>  <Score>
-6.31

$$$$
