
 OpenBabel03222202113D

 47 50  0  0  1  0  0  0  0  0999 V2000
   16.7960   75.3760    4.9430 B   0  0  0  0  0  0  0  0  0  0  0  0
   17.8420   75.6260    6.5350 C   0  0  0  0  0  0  0  0  0  0  0  0
   18.0770   76.8580    7.0330 C   0  0  0  0  0  0  0  0  0  0  0  0
   18.9070   77.0340    8.1780 C   0  0  0  0  0  0  0  0  0  0  0  0
   19.4530   75.9300    8.7350 C   0  0  0  0  0  0  0  0  0  0  0  0
   19.2110   74.6790    8.2020 C   0  0  0  0  0  0  0  0  0  0  0  0
   18.4120   74.5110    7.1120 C   0  0  0  0  0  0  0  0  0  0  0  0
   19.3800   78.4230    8.3420 C   0  0  0  0  0  0  0  0  0  0  0  0
   20.5200   78.7270    9.1050 N   0  0  2  0  0  4  0  0  0  0  0  0
   21.6540   77.9480    9.0750 C   0  0  0  0  0  0  0  0  0  0  0  0
   22.7490   78.5380    9.8420 N   0  0  2  0  0  0  0  0  0  0  0  0
   22.2850   78.7020   11.2100 C   0  0  0  0  0  0  0  0  0  0  0  0
   21.0710   79.4880   11.2840 N   0  0  2  0  0  0  0  0  0  0  0  0
   20.0170   78.9790   10.4990 C   0  0  0  0  0  0  0  0  0  0  0  0
   21.3870   80.8410   10.8770 C   0  0  0  0  0  0  0  0  0  0  0  0
   21.9150   80.7460    9.4670 C   0  0  2  0  0  0  0  0  0  0  0  0
   20.8610   80.1150    8.6330 C   0  0  0  0  0  0  0  0  0  0  0  0
   23.1420   79.8430    9.3700 C   0  0  0  0  0  0  0  0  0  0  0  0
   17.5360   77.9570    6.4690 O   0  0  0  0  0  0  0  0  0  0  0  0
   16.1180   78.1530    6.2930 C   0  0  0  0  0  0  0  0  0  0  0  0
   15.5720   79.4570    6.6600 C   0  0  0  0  0  0  0  0  0  0  0  0
   16.0090   80.5360    6.2870 O   0  0  0  0  0  0  0  0  0  0  0  0
   14.4370   79.4680    7.4790 O   0  0  0  0  0  0  0  0  0  0  0  0
   13.1490   79.7510    7.0000 C   0  0  0  0  0  0  0  0  0  0  0  0
   20.1300   76.0260    9.5820 H   0  0  0  0  0  0  0  0  0  0  0  0
   19.6970   73.8020    8.6840 H   0  0  0  0  0  0  0  0  0  0  0  0
   18.1870   73.5310    6.7240 H   0  0  0  0  0  0  0  0  0  0  0  0
   18.6190   79.2010    8.2350 H   0  0  0  0  0  0  0  0  0  0  0  0
   19.8990   78.6270    7.2090 H   0  0  0  0  0  0  0  0  0  0  0  0
   21.9560   77.6860    8.0580 H   0  0  0  0  0  0  0  0  0  0  0  0
   21.4300   76.9820    9.5990 H   0  0  0  0  0  0  0  0  0  0  0  0
   23.0580   79.2960   11.7470 H   0  0  0  0  0  0  0  0  0  0  0  0
   22.1970   77.7360   11.7280 H   0  0  0  0  0  0  0  0  0  0  0  0
   19.6060   78.0610   10.9340 H   0  0  0  0  0  0  0  0  0  0  0  0
   19.2340   79.7720   10.3690 H   0  0  0  0  0  0  0  0  0  0  0  0
   20.4150   81.3990   10.8030 H   0  0  0  0  0  0  0  0  0  0  0  0
   22.1130   81.3290   11.5230 H   0  0  0  0  0  0  0  0  0  0  0  0
   22.1230   81.7440    9.0190 H   0  0  0  0  0  0  0  0  0  0  0  0
   19.8940   80.6640    8.6120 H   0  0  0  0  0  0  0  0  0  0  0  0
   21.2000   79.9380    7.5720 H   0  0  0  0  0  0  0  0  0  0  0  0
   23.8910   80.2560   10.0460 H   0  0  0  0  0  0  0  0  0  0  0  0
   23.4240   79.8270    8.3090 H   0  0  0  0  0  0  0  0  0  0  0  0
   15.5850   77.2720    6.7720 H   0  0  0  0  0  0  0  0  0  0  0  0
   15.8990   78.0230    5.1830 H   0  0  0  0  0  0  0  0  0  0  0  0
   12.3770   79.4060    7.7200 H   0  0  0  0  0  0  0  0  0  0  0  0
   13.0240   79.2760    6.0010 H   0  0  0  0  0  0  0  0  0  0  0  0
   13.1050   80.8720    6.9010 H   0  0  0  0  0  0  0  0  0  0  0  0
  1  2  1  0  0  0  0
  2  3  2  0  0  0  0
  2  7  1  0  0  0  0
  3  4  1  0  0  0  0
  4  8  1  0  0  0  0
  4  5  2  0  0  0  0
  5 25  1  0  0  0  0
  6 26  1  0  0  0  0
  6  5  1  0  0  0  0
  7  6  2  0  0  0  0
  9  8  1  6  0  0  0
  9 14  1  0  0  0  0
 10  9  1  0  0  0  0
 10 31  1  0  0  0  0
 11 10  1  6  0  0  0
 11 12  1  0  0  0  0
 12 13  1  0  0  0  0
 12 33  1  0  0  0  0
 12 32  1  0  0  0  0
 13 14  1  6  0  0  0
 14 34  1  0  0  0  0
 15 13  1  0  0  0  0
 15 37  1  0  0  0  0
 16 38  1  6  0  0  0
 16 15  1  0  0  0  0
 17  9  1  0  0  0  0
 17 16  1  0  0  0  0
 18 16  1  0  0  0  0
 18 11  1  0  0  0  0
 18 41  1  0  0  0  0
 19  3  1  0  0  0  0
 20 19  1  0  0  0  0
 20 21  1  0  0  0  0
 20 43  1  0  0  0  0
 21 23  1  0  0  0  0
 22 21  2  0  0  0  0
 24 23  1  0  0  0  0
 24 45  1  0  0  0  0
 27  7  1  0  0  0  0
 28  8  1  0  0  0  0
 29  8  1  0  0  0  0
 30 10  1  0  0  0  0
 35 14  1  0  0  0  0
 36 15  1  0  0  0  0
 39 17  1  0  0  0  0
 40 17  1  0  0  0  0
 42 18  1  0  0  0  0
 44 20  1  0  0  0  0
 46 24  1  0  0  0  0
 47 24  1  0  0  0  0
M  END
>  <Pose>
1

>  <Score>
-5.43

$$$$
