
 OpenBabel03222202113D

 52 55  0  0  0  0  0  0  0  0999 V2000
   25.5380   76.4970   15.4000 B   0  0  0  0  0  0  0  0  0  0  0  0
   24.4800   78.0450   15.0810 C   0  0  0  0  0  0  0  0  0  0  0  0
   24.6120   79.1170   15.9490 C   0  0  0  0  0  0  0  0  0  0  0  0
   23.8290   80.2280   15.7000 C   0  0  0  0  0  0  0  0  0  0  0  0
   22.9600   80.2620   14.6400 C   0  0  0  0  0  0  0  0  0  0  0  0
   22.8120   79.1960   13.7530 C   0  0  0  0  0  0  0  0  0  0  0  0
   23.6000   78.0970   14.0170 C   0  0  0  0  0  0  0  0  0  0  0  0
   21.8920   79.3040   12.6390 C   0  0  0  0  0  0  0  0  0  0  0  0
   21.2840   78.2780   12.1510 N   0  0  0  0  0  0  0  0  0  0  0  0
   20.3990   78.3330   11.0870 N   0  0  0  0  0  0  0  0  0  0  0  0
   19.6940   77.1690   10.6740 C   0  0  0  0  0  0  0  0  0  0  0  0
   19.3290   77.0210    9.4110 N   0  0  0  0  0  4  0  0  0  0  0  0
   18.6870   75.9430    8.9280 C   0  0  0  0  0  0  0  0  0  0  0  0
   18.4060   74.9600    9.8110 N   0  0  0  0  0  0  0  0  0  0  0  0
   18.7530   75.0540   11.1230 C   0  0  0  0  0  0  0  0  0  0  0  0
   19.3990   76.1720   11.5360 N   0  0  0  0  0  0  0  0  0  0  0  0
   18.4680   74.0140   12.0300 N   0  0  0  0  0  0  0  0  0  0  0  0
   17.6860   72.8700   11.6370 C   0  0  0  0  0  0  0  0  0  0  0  0
   18.5380   71.6490   12.0160 C   0  0  0  0  0  0  0  0  0  0  0  0
   18.8990   71.7490   13.3440 O   0  0  0  0  0  0  0  0  0  0  0  0
   19.8190   72.7810   13.5230 C   0  0  0  0  0  0  0  0  0  0  0  0
   18.9800   74.0690   13.3760 C   0  0  0  0  0  0  0  0  0  0  0  0
   18.3150   75.8260    7.5450 N   0  0  0  0  0  0  0  0  0  0  0  0
   18.6620   74.6660    6.7740 C   0  0  0  0  0  0  0  0  0  0  0  0
   18.0190   74.5330    5.4480 C   0  0  0  0  0  0  0  0  0  0  0  0
   17.4540   75.7030    4.9600 O   0  0  0  0  0  0  0  0  0  0  0  0
   16.6540   76.3310    5.9050 C   0  0  0  0  0  0  0  0  0  0  0  0
   17.5820   76.9040    6.9480 C   0  0  0  0  0  0  0  0  0  0  0  0
   22.1690   81.3890   14.3950 O   0  0  0  0  0  0  0  0  0  0  0  0
   25.4910   79.0940   17.0300 O   0  0  0  0  0  0  0  0  0  0  0  0
   23.9450   81.0650   16.3960 H   0  0  0  0  0  0  0  0  0  0  0  0
   23.4930   77.2460   13.3270 H   0  0  0  0  0  0  0  0  0  0  0  0
   21.7030   80.2690   12.1980 H   0  0  0  0  0  0  0  0  0  0  0  0
   20.2500   79.2170   10.5870 H   0  0  0  0  0  0  0  0  0  0  0  0
   16.7390   72.8450   12.2120 H   0  0  0  0  0  0  0  0  0  0  0  0
   17.4980   72.8600   10.5340 H   0  0  0  0  0  0  0  0  0  0  0  0
   17.9430   70.7440   11.7990 H   0  0  0  0  0  0  0  0  0  0  0  0
   19.4330   71.6840   11.3470 H   0  0  0  0  0  0  0  0  0  0  0  0
   20.5100   72.7780   12.6280 H   0  0  0  0  0  0  0  0  0  0  0  0
   20.3460   72.7270   14.4730 H   0  0  0  0  0  0  0  0  0  0  0  0
   18.1010   73.9160   14.0680 H   0  0  0  0  0  0  0  0  0  0  0  0
   19.5570   74.9680   13.6110 H   0  0  0  0  0  0  0  0  0  0  0  0
   19.7840   74.6630    6.6860 H   0  0  0  0  0  0  0  0  0  0  0  0
   18.3720   73.7660    7.3980 H   0  0  0  0  0  0  0  0  0  0  0  0
   17.2550   73.7140    5.4560 H   0  0  0  0  0  0  0  0  0  0  0  0
   18.7970   74.2170    4.7060 H   0  0  0  0  0  0  0  0  0  0  0  0
   16.0540   77.0860    5.3910 H   0  0  0  0  0  0  0  0  0  0  0  0
   15.9930   75.6090    6.4560 H   0  0  0  0  0  0  0  0  0  0  0  0
   16.9100   77.4100    7.6900 H   0  0  0  0  0  0  0  0  0  0  0  0
   18.2510   77.6870    6.5320 H   0  0  0  0  0  0  0  0  0  0  0  0
   21.8200   81.5350   13.4520 H   0  0  0  0  0  0  0  0  0  0  0  0
   25.3540   78.5250   17.8510 H   0  0  0  0  0  0  0  0  0  0  0  0
  2  1  1  0  0  0  0
  2  3  1  0  0  0  0
  3 30  1  0  0  0  0
  4  3  2  0  0  0  0
  4 31  1  0  0  0  0
  5  4  1  0  0  0  0
  6  7  1  0  0  0  0
  6  5  2  0  0  0  0
  7  2  2  0  0  0  0
  8  6  1  0  0  0  0
  9  8  2  0  0  0  0
 10  9  1  0  0  0  0
 11 10  1  0  0  0  0
 11 16  1  0  0  0  0
 12 11  2  0  0  0  0
 13 12  2  0  0  0  0
 13 14  1  0  0  0  0
 14 15  2  0  0  0  0
 15 16  1  0  0  0  0
 15 17  1  0  0  0  0
 17 22  1  0  0  0  0
 18 19  1  0  0  0  0
 18 17  1  0  0  0  0
 18 35  1  0  0  0  0
 19 20  1  0  0  0  0
 20 21  1  0  0  0  0
 21 40  1  0  0  0  0
 22 21  1  0  0  0  0
 22 42  1  0  0  0  0
 22 41  1  0  0  0  0
 23 13  1  0  0  0  0
 24 44  1  0  0  0  0
 24 23  1  0  0  0  0
 25 45  1  0  0  0  0
 25 24  1  0  0  0  0
 26 25  1  0  0  0  0
 26 27  1  0  0  0  0
 27 48  1  0  0  0  0
 27 28  1  0  0  0  0
 28 23  1  0  0  0  0
 28 49  1  0  0  0  0
 29  5  1  0  0  0  0
 30 52  1  0  0  0  0
 32  7  1  0  0  0  0
 33  8  1  0  0  0  0
 34 10  1  0  0  0  0
 36 18  1  0  0  0  0
 37 19  1  0  0  0  0
 38 19  1  0  0  0  0
 39 21  1  0  0  0  0
 43 24  1  0  0  0  0
 46 25  1  0  0  0  0
 47 27  1  0  0  0  0
 50 28  1  0  0  0  0
 51 29  1  0  0  0  0
M  END
>  <Pose>
1

>  <Score>
-7.97

$$$$
