
 OpenBabel03222202113D

 52 55  0  0  0  0  0  0  0  0999 V2000
   22.8290   77.8710   16.6310 B   0  0  0  0  0  0  0  0  0  0  0  0
   22.7990   79.0040   15.0980 C   0  0  0  0  0  0  0  0  0  0  0  0
   23.5340   80.1760   15.0770 C   0  0  0  0  0  0  0  0  0  0  0  0
   23.4940   80.9820   13.9500 C   0  0  0  0  0  0  0  0  0  0  0  0
   22.7250   80.6080   12.8710 C   0  0  0  0  0  0  0  0  0  0  0  0
   22.0030   79.4260   12.9300 C   0  0  0  0  0  0  0  0  0  0  0  0
   22.0240   78.6080   14.0340 C   0  0  0  0  0  0  0  0  0  0  0  0
   21.2500   77.3910   14.0540 C   0  0  0  0  0  0  0  0  0  0  0  0
   20.1480   77.2330   14.7100 N   0  0  0  0  0  0  0  0  0  0  0  0
   19.4540   75.9920   14.6680 N   0  0  0  0  0  0  0  0  0  0  0  0
   19.1850   75.3290   13.4530 C   0  0  0  0  0  0  0  0  0  0  0  0
   18.7610   74.0630   13.4760 N   0  0  0  0  0  4  0  0  0  0  0  0
   18.4920   73.3670   12.3390 C   0  0  0  0  0  0  0  0  0  0  0  0
   18.6590   73.9760   11.1550 N   0  0  0  0  0  0  0  0  0  0  0  0
   19.0850   75.2470   11.0970 C   0  0  0  0  0  0  0  0  0  0  0  0
   19.3440   75.9130   12.2610 N   0  0  0  0  0  0  0  0  0  0  0  0
   19.2630   75.9020    9.8420 N   0  0  0  0  0  0  0  0  0  0  0  0
   19.4240   77.3290    9.7030 C   0  0  0  0  0  0  0  0  0  0  0  0
   18.5580   77.8620    8.5810 C   0  0  0  0  0  0  0  0  0  0  0  0
   17.8070   76.8680    7.9720 O   0  0  0  0  0  0  0  0  0  0  0  0
   18.6760   75.8750    7.4810 C   0  0  0  0  0  0  0  0  0  0  0  0
   19.2800   75.0990    8.6350 C   0  0  0  0  0  0  0  0  0  0  0  0
   18.0460   72.0370   12.4770 N   0  0  0  0  0  0  0  0  0  0  0  0
   16.6590   71.7850   12.7620 C   0  0  0  0  0  0  0  0  0  0  0  0
   16.1770   70.8590   11.6340 C   0  0  0  0  0  0  0  0  0  0  0  0
   16.9360   69.6950   11.7610 O   0  0  0  0  0  0  0  0  0  0  0  0
   18.2710   69.9020   11.4310 C   0  0  0  0  0  0  0  0  0  0  0  0
   18.9380   70.9110   12.3450 C   0  0  0  0  0  0  0  0  0  0  0  0
   22.7140   81.4430   11.7650 O   0  0  0  0  0  0  0  0  0  0  0  0
   24.3040   80.5480   16.1630 O   0  0  0  0  0  0  0  0  0  0  0  0
   24.0760   81.8950   13.9500 H   0  0  0  0  0  0  0  0  0  0  0  0
   21.4210   79.1910   12.0490 H   0  0  0  0  0  0  0  0  0  0  0  0
   21.5830   76.5200   13.4890 H   0  0  0  0  0  0  0  0  0  0  0  0
   19.1290   75.5450   15.5510 H   0  0  0  0  0  0  0  0  0  0  0  0
   20.4960   77.5060    9.3970 H   0  0  0  0  0  0  0  0  0  0  0  0
   19.2130   77.8850   10.6380 H   0  0  0  0  0  0  0  0  0  0  0  0
   19.1710   78.3410    7.7740 H   0  0  0  0  0  0  0  0  0  0  0  0
   17.8250   78.6170    8.9760 H   0  0  0  0  0  0  0  0  0  0  0  0
   18.0570   75.2050    6.8420 H   0  0  0  0  0  0  0  0  0  0  0  0
   19.4910   76.3360    6.8520 H   0  0  0  0  0  0  0  0  0  0  0  0
   20.3330   74.8600    8.4160 H   0  0  0  0  0  0  0  0  0  0  0  0
   18.6810   74.1540    8.7850 H   0  0  0  0  0  0  0  0  0  0  0  0
   16.0790   72.7320   12.7540 H   0  0  0  0  0  0  0  0  0  0  0  0
   16.5870   71.2600   13.7430 H   0  0  0  0  0  0  0  0  0  0  0  0
   15.1200   70.6180   11.7010 H   0  0  0  0  0  0  0  0  0  0  0  0
   16.4450   71.4020   10.6860 H   0  0  0  0  0  0  0  0  0  0  0  0
   18.4250   70.1490   10.3680 H   0  0  0  0  0  0  0  0  0  0  0  0
   18.7910   68.9330   11.6310 H   0  0  0  0  0  0  0  0  0  0  0  0
   19.0400   70.4340   13.3560 H   0  0  0  0  0  0  0  0  0  0  0  0
   19.9170   71.1860   11.9210 H   0  0  0  0  0  0  0  0  0  0  0  0
   21.9040   81.9600   11.4510 H   0  0  0  0  0  0  0  0  0  0  0  0
   24.9850   81.2850   16.0370 H   0  0  0  0  0  0  0  0  0  0  0  0
  2  1  1  0  0  0  0
  3  2  1  0  0  0  0
  3 30  1  0  0  0  0
  4  3  2  0  0  0  0
  5  6  2  0  0  0  0
  5  4  1  0  0  0  0
  6  7  1  0  0  0  0
  7  8  1  0  0  0  0
  7  2  2  0  0  0  0
  8  9  2  0  0  0  0
 10  9  1  0  0  0  0
 10 34  1  0  0  0  0
 11 12  2  0  0  0  0
 11 10  1  0  0  0  0
 13 23  1  0  0  0  0
 13 12  2  0  0  0  0
 14 13  1  0  0  0  0
 15 14  2  0  0  0  0
 15 16  1  0  0  0  0
 16 11  1  0  0  0  0
 17 15  1  0  0  0  0
 18 17  1  0  0  0  0
 18 36  1  0  0  0  0
 19 38  1  0  0  0  0
 19 18  1  0  0  0  0
 20 19  1  0  0  0  0
 21 20  1  0  0  0  0
 21 22  1  0  0  0  0
 22 42  1  0  0  0  0
 22 17  1  0  0  0  0
 23 24  1  0  0  0  0
 24 44  1  0  0  0  0
 25 45  1  0  0  0  0
 25 26  1  0  0  0  0
 25 24  1  0  0  0  0
 27 48  1  0  0  0  0
 27 26  1  0  0  0  0
 27 28  1  0  0  0  0
 28 23  1  0  0  0  0
 28 49  1  0  0  0  0
 29  5  1  0  0  0  0
 31  4  1  0  0  0  0
 32  6  1  0  0  0  0
 33  8  1  0  0  0  0
 35 18  1  0  0  0  0
 37 19  1  0  0  0  0
 39 21  1  0  0  0  0
 40 21  1  0  0  0  0
 41 22  1  0  0  0  0
 43 24  1  0  0  0  0
 46 25  1  0  0  0  0
 47 27  1  0  0  0  0
 50 28  1  0  0  0  0
 51 29  1  0  0  0  0
 52 30  1  0  0  0  0
M  END
>  <Pose>
1

>  <Score>
-7.13

$$$$
