
 OpenBabel03222202113D

 46 49  0  0  1  0  0  0  0  0999 V2000
   16.6830   74.8090    5.6950 B   0  0  0  0  0  0  0  0  0  0  0  0
   17.5790   76.0650    6.8140 C   0  0  0  0  0  0  0  0  0  0  0  0
   17.0230   77.3300    6.9710 C   0  0  0  0  0  0  0  0  0  0  0  0
   17.6840   78.2120    7.7810 C   0  0  0  0  0  0  0  0  0  0  0  0
   18.8570   77.9420    8.4510 C   0  0  0  0  0  0  0  0  0  0  0  0
   19.3820   76.6610    8.2660 C   0  0  0  0  0  0  0  0  0  0  0  0
   18.7530   75.7340    7.4590 C   0  0  0  0  0  0  0  0  0  0  0  0
   19.5310   78.8730    9.2870 N   0  0  0  0  0  0  0  0  0  0  0  0
   20.9530   79.1220    9.2360 C   0  0  0  0  0  0  0  0  0  0  0  0
   21.0270   80.5820    9.6240 C   0  0  1  0  0  0  0  0  0  0  0  0
   20.0800   80.6190   10.8110 C   0  0  0  0  0  0  0  0  0  0  0  0
   19.0140   79.7160   10.3010 C   0  0  0  0  0  0  0  0  0  0  0  0
   17.8360   79.7120   10.7160 O   0  0  0  0  0  0  0  0  0  0  0  0
   22.3970   80.9910    9.9980 C   0  0  0  0  0  0  0  0  0  0  0  0
   23.2610   81.2450    9.1260 O   0  0  0  0  0  0  0  0  0  0  0  0
   22.7300   81.0960   11.3650 N   0  0  0  0  0  0  0  0  0  0  0  0
   22.6710   79.9450   12.2310 C   0  0  0  0  0  0  0  0  0  0  0  0
   23.0920   80.2910   13.6180 C   0  0  0  0  0  0  0  0  0  0  0  0
   23.6280   79.4690   14.5540 N   0  0  0  0  0  0  0  0  0  0  0  0
   23.8720   80.1680   15.6750 C   0  0  0  0  0  0  0  0  0  0  0  0
   23.4720   81.4360   15.4000 N   0  0  0  0  0  0  0  0  0  0  0  0
   23.0040   81.5120   14.1710 N   0  0  0  0  0  0  0  0  0  0  0  0
   24.4670   79.2880   16.7340 C   0  0  0  0  0  0  0  0  0  0  0  0
   24.1810   77.9040   16.1950 C   0  0  0  0  0  0  0  0  0  0  0  0
   24.0090   78.0760   14.7010 C   0  0  0  0  0  0  0  0  0  0  0  0
   15.7560   77.6560    6.2610 C   0  0  0  0  0  0  0  0  0  0  0  0
   17.2320   79.2050    7.8950 H   0  0  0  0  0  0  0  0  0  0  0  0
   20.2950   76.3400    8.7420 H   0  0  0  0  0  0  0  0  0  0  0  0
   19.1440   74.7400    7.3070 H   0  0  0  0  0  0  0  0  0  0  0  0
   21.4290   78.4610    9.9980 H   0  0  0  0  0  0  0  0  0  0  0  0
   21.3820   78.9420    8.2290 H   0  0  0  0  0  0  0  0  0  0  0  0
   20.6000   81.1610    8.7880 H   0  0  0  0  0  0  0  0  0  0  0  0
   19.7260   81.6670   10.8930 H   0  0  0  0  0  0  0  0  0  0  0  0
   20.5540   80.2490   11.7210 H   0  0  0  0  0  0  0  0  0  0  0  0
   23.0220   82.0070   11.7620 H   0  0  0  0  0  0  0  0  0  0  0  0
   21.6640   79.4910   12.2660 H   0  0  0  0  0  0  0  0  0  0  0  0
   23.3530   79.1360   11.8500 H   0  0  0  0  0  0  0  0  0  0  0  0
   25.5420   79.5000   16.8200 H   0  0  0  0  0  0  0  0  0  0  0  0
   23.9110   79.3720   17.6910 H   0  0  0  0  0  0  0  0  0  0  0  0
   23.2850   77.4460   16.6680 H   0  0  0  0  0  0  0  0  0  0  0  0
   25.0380   77.2610   16.4570 H   0  0  0  0  0  0  0  0  0  0  0  0
   23.2400   77.4070   14.2810 H   0  0  0  0  0  0  0  0  0  0  0  0
   24.9790   77.8390   14.2170 H   0  0  0  0  0  0  0  0  0  0  0  0
   15.5090   78.7230    6.4120 H   0  0  0  0  0  0  0  0  0  0  0  0
   15.8070   77.3750    5.1920 H   0  0  0  0  0  0  0  0  0  0  0  0
   14.9550   77.0840    6.7980 H   0  0  0  0  0  0  0  0  0  0  0  0
  1  2  1  0  0  0  0
  2  3  2  0  0  0  0
  2  7  1  0  0  0  0
  3  4  1  0  0  0  0
  4 27  1  0  0  0  0
  4  5  2  0  0  0  0
  5  8  1  0  0  0  0
  6  5  1  0  0  0  0
  6 28  1  0  0  0  0
  7  6  2  0  0  0  0
  8 12  1  0  0  0  0
  9  8  1  0  0  0  0
  9 10  1  0  0  0  0
  9 30  1  0  0  0  0
 10 32  1  6  0  0  0
 10 14  1  0  0  0  0
 10 11  1  0  0  0  0
 11 33  1  0  0  0  0
 11 34  1  0  0  0  0
 12 13  2  0  0  0  0
 12 11  1  0  0  0  0
 14 16  1  0  0  0  0
 15 14  2  0  0  0  0
 16 35  1  0  0  0  0
 16 17  1  0  0  0  0
 17 36  1  0  0  0  0
 17 18  1  0  0  0  0
 18 22  2  0  0  0  0
 18 19  1  0  0  0  0
 19 25  1  0  0  0  0
 19 20  1  0  0  0  0
 20 23  1  0  0  0  0
 21 20  2  0  0  0  0
 22 21  1  0  0  0  0
 23 38  1  0  0  0  0
 23 39  1  0  0  0  0
 24 41  1  0  0  0  0
 24 40  1  0  0  0  0
 24 23  1  0  0  0  0
 25 24  1  0  0  0  0
 26 44  1  0  0  0  0
 26 46  1  0  0  0  0
 26  3  1  0  0  0  0
 29  7  1  0  0  0  0
 31  9  1  0  0  0  0
 37 17  1  0  0  0  0
 42 25  1  0  0  0  0
 43 25  1  0  0  0  0
 45 26  1  0  0  0  0
M  END
>  <Pose>
1

>  <Score>
-7.27

$$$$
