
 OpenBabel03222202113D

 41 43  0  0  1  0  0  0  0  0999 V2000
   23.9620   79.1290   16.8990 B   0  0  0  0  0  0  0  0  0  0  0  0
   22.2110   78.4250   17.2660 C   0  0  0  0  0  0  0  0  0  0  0  0
   21.7090   77.5080   16.3310 C   0  0  0  0  0  0  0  0  0  0  0  0
   20.4520   77.0180   16.6190 C   0  0  0  0  0  0  0  0  0  0  0  0
   19.7500   77.4190   17.7580 C   0  0  0  0  0  0  0  0  0  0  0  0
   20.2630   78.3200   18.6590 C   0  0  0  0  0  0  0  0  0  0  0  0
   21.5150   78.8140   18.3840 C   0  0  0  0  0  0  0  0  0  0  0  0
   19.4960   78.7360   19.8730 C   0  0  0  0  0  0  0  0  0  0  0  0
   22.4740   77.1460   15.1990 N   0  0  0  0  0  0  0  0  0  0  0  0
   22.6990   77.8780   14.0320 C   0  0  0  0  0  0  0  0  0  0  0  0
   23.8160   78.3440   13.7640 O   0  0  0  0  0  0  0  0  0  0  0  0
   21.5760   78.0980   13.0990 C   0  0  0  0  0  0  0  0  0  0  0  0
   21.8090   79.0390   12.0520 N   0  0  1  0  0  4  0  0  0  0  0  0
   20.6300   79.0220   11.1710 C   0  0  0  0  0  0  0  0  0  0  0  0
   20.5870   80.3530   10.4620 C   0  0  0  0  0  0  0  0  0  0  0  0
   21.9750   80.6840   10.1430 N   0  0  1  0  0  0  0  0  0  0  0  0
   22.5370   81.2360   11.3720 C   0  0  0  0  0  0  0  0  0  0  0  0
   22.0260   80.3990   12.5370 C   0  0  0  0  0  0  0  0  0  0  0  0
   22.7050   79.4570    9.8630 C   0  0  0  0  0  0  0  0  0  0  0  0
   22.9280   78.7150   11.1910 C   0  0  0  0  0  0  0  0  0  0  0  0
   19.9900   76.3040   15.9460 H   0  0  0  0  0  0  0  0  0  0  0  0
   18.7560   77.0230   17.9710 H   0  0  0  0  0  0  0  0  0  0  0  0
   21.9510   79.5290   19.0760 H   0  0  0  0  0  0  0  0  0  0  0  0
   19.8510   79.7160   20.2530 H   0  0  0  0  0  0  0  0  0  0  0  0
   19.5770   78.0060   20.6810 H   0  0  0  0  0  0  0  0  0  0  0  0
   18.4520   78.9040   19.5310 H   0  0  0  0  0  0  0  0  0  0  0  0
   22.9390   76.1910   15.2440 H   0  0  0  0  0  0  0  0  0  0  0  0
   20.6680   78.4790   13.6590 H   0  0  0  0  0  0  0  0  0  0  0  0
   21.2530   77.1480   12.6030 H   0  0  0  0  0  0  0  0  0  0  0  0
   20.7660   78.1640   10.4890 H   0  0  0  0  0  0  0  0  0  0  0  0
   19.7190   78.8370   11.7760 H   0  0  0  0  0  0  0  0  0  0  0  0
   20.1440   81.0900   11.1520 H   0  0  0  0  0  0  0  0  0  0  0  0
   19.9950   80.2820    9.5060 H   0  0  0  0  0  0  0  0  0  0  0  0
   22.1410   82.2620   11.5190 H   0  0  0  0  0  0  0  0  0  0  0  0
   23.6530   81.2330   11.3510 H   0  0  0  0  0  0  0  0  0  0  0  0
   22.8300   80.3710   13.2740 H   0  0  0  0  0  0  0  0  0  0  0  0
   21.0660   80.7610   12.9350 H   0  0  0  0  0  0  0  0  0  0  0  0
   22.1110   78.8700    9.1490 H   0  0  0  0  0  0  0  0  0  0  0  0
   23.6820   79.7200    9.4030 H   0  0  0  0  0  0  0  0  0  0  0  0
   23.8730   79.1300   11.6100 H   0  0  0  0  0  0  0  0  0  0  0  0
   22.9890   77.6530   10.9350 H   0  0  0  0  0  0  0  0  0  0  0  0
  1  2  1  0  0  0  0
  2  7  1  0  0  0  0
  3  4  1  0  0  0  0
  3  2  2  0  0  0  0
  4  5  2  0  0  0  0
  5 22  1  0  0  0  0
  5  6  1  0  0  0  0
  6  8  1  0  0  0  0
  7  6  2  0  0  0  0
  7 23  1  0  0  0  0
  8 24  1  0  0  0  0
  8 25  1  0  0  0  0
  9 27  1  0  0  0  0
  9  3  1  0  0  0  0
 10  9  1  0  0  0  0
 11 10  2  0  0  0  0
 12 28  1  0  0  0  0
 12 10  1  0  0  0  0
 13 18  1  0  0  0  0
 13 12  1  1  0  0  0
 14 31  1  0  0  0  0
 14 13  1  0  0  0  0
 15 32  1  0  0  0  0
 15 14  1  0  0  0  0
 16 19  1  1  0  0  0
 16 15  1  0  0  0  0
 16 17  1  0  0  0  0
 17 34  1  0  0  0  0
 17 18  1  0  0  0  0
 18 37  1  0  0  0  0
 18 36  1  0  0  0  0
 19 20  1  0  0  0  0
 20 40  1  0  0  0  0
 20 13  1  0  0  0  0
 21  4  1  0  0  0  0
 26  8  1  0  0  0  0
 29 12  1  0  0  0  0
 30 14  1  0  0  0  0
 33 15  1  0  0  0  0
 35 17  1  0  0  0  0
 38 19  1  0  0  0  0
 39 19  1  0  0  0  0
 41 20  1  0  0  0  0
M  END
>  <Pose>
1

>  <Score>
-5.55

$$$$
