
 OpenBabel03222202113D

 33 36  0  0  1  0  0  0  0  0999 V2000
   24.8370   77.9060   17.2050 B   0  0  0  0  0  0  0  0  0  0  0  0
   23.5860   78.5780   15.9280 C   0  0  0  0  0  0  0  0  0  0  0  0
   22.3360   79.0040   16.2980 C   0  0  0  0  0  0  0  0  0  0  0  0
   21.4590   79.4750   15.3500 C   0  0  0  0  0  0  0  0  0  0  0  0
   21.8050   79.5350   14.0070 C   0  0  0  0  0  0  0  0  0  0  0  0
   23.0530   79.1130   13.6150 C   0  0  0  0  0  0  0  0  0  0  0  0
   23.9390   78.6350   14.5870 C   0  0  0  0  0  0  0  0  0  0  0  0
   21.8790   78.9840   17.7120 C   0  0  1  0  0  0  0  0  0  0  0  0
   20.5900   79.4530   17.9700 C   0  0  1  0  0  0  0  0  0  0  0  0
   19.1910   79.0180   17.7080 C   0  0  0  0  0  0  0  0  0  0  0  0
   19.0260   78.3640   19.0310 N   0  0  0  0  0  0  0  0  0  0  0  0
   20.1360   77.7580   19.3140 C   0  0  2  0  0  0  0  0  0  0  0  0
   21.0300   77.9780   18.2210 C   0  0  2  0  0  0  0  0  0  0  0  0
   20.6990   76.9760   17.1640 C   0  0  0  0  0  0  0  0  0  0  0  0
   20.4110   76.1830   16.3340 N   0  0  0  0  0  0  0  0  0  0  0  0
   20.4010   77.0040   20.5180 N   0  0  0  0  0  0  0  0  0  0  0  0
   18.3830   80.1590   17.6600 O   0  0  0  0  0  0  0  0  0  0  0  0
   17.6350   80.0760   16.5010 C   0  0  0  0  0  0  0  0  0  0  0  0
   17.6020   78.5790   16.2430 C   0  0  0  0  0  0  0  0  0  0  0  0
   18.9200   78.2520   16.6470 O   0  0  0  0  0  0  0  0  0  0  0  0
   20.5310   80.3130   19.2060 C   0  0  0  0  0  0  0  0  0  0  0  0
   20.4790   81.0040   20.1630 N   0  0  0  0  0  0  0  0  0  0  0  0
   20.4440   79.8300   15.5880 H   0  0  0  0  0  0  0  0  0  0  0  0
   21.1330   79.9010   13.2530 H   0  0  0  0  0  0  0  0  0  0  0  0
   23.3350   79.1540   12.5920 H   0  0  0  0  0  0  0  0  0  0  0  0
   24.9360   78.2920   14.3230 H   0  0  0  0  0  0  0  0  0  0  0  0
   22.7470   79.2700   18.3720 H   0  0  0  0  0  0  0  0  0  0  0  0
   19.7230   76.9920   21.3040 H   0  0  0  0  0  0  0  0  0  0  0  0
   21.2780   76.4600   20.6200 H   0  0  0  0  0  0  0  0  0  0  0  0
   18.1940   80.5780   15.6820 H   0  0  0  0  0  0  0  0  0  0  0  0
   16.6170   80.5030   16.6220 H   0  0  0  0  0  0  0  0  0  0  0  0
   16.8630   78.0930   16.9160 H   0  0  0  0  0  0  0  0  0  0  0  0
   17.4250   78.3260   15.1900 H   0  0  0  0  0  0  0  0  0  0  0  0
  2  3  1  0  0  0  0
  2  1  1  0  0  0  0
  3  8  1  0  0  0  0
  4 23  1  0  0  0  0
  4  3  2  0  0  0  0
  5  4  1  0  0  0  0
  6  5  2  0  0  0  0
  6  7  1  0  0  0  0
  7  2  2  0  0  0  0
  8  9  1  0  0  0  0
  8 13  1  0  0  0  0
  8 27  1  1  0  0  0
  9 13  1  0  0  0  0
  9 21  1  1  0  0  0
 10  9  1  0  0  0  0
 10 11  1  0  0  0  0
 11 12  1  0  0  0  0
 12 16  1  6  0  0  0
 13 14  1  6  0  0  0
 13 12  1  0  0  0  0
 15 14  3  0  0  0  0
 16 29  1  0  0  0  0
 16 28  1  0  0  0  0
 17 10  1  0  0  0  0
 18 31  1  0  0  0  0
 18 17  1  0  0  0  0
 19 18  1  0  0  0  0
 19 20  1  0  0  0  0
 19 32  1  0  0  0  0
 20 10  1  0  0  0  0
 21 22  3  0  0  0  0
 24  5  1  0  0  0  0
 25  6  1  0  0  0  0
 26  7  1  0  0  0  0
 30 18  1  0  0  0  0
 33 19  1  0  0  0  0
M  END
>  <Pose>
1

>  <Score>
-5.35

$$$$
