
 OpenBabel03222202113D

 33 36  0  0  1  0  0  0  0  0999 V2000
   23.1380   81.1430   14.8650 B   0  0  0  0  0  0  0  0  0  0  0  0
   22.4290   80.2130   13.3330 C   0  0  0  0  0  0  0  0  0  0  0  0
   22.0130   78.9160   13.5270 C   0  0  0  0  0  0  0  0  0  0  0  0
   21.5030   78.2700   12.4060 C   0  0  0  0  0  0  0  0  0  0  0  0
   21.4170   78.8870   11.1730 C   0  0  0  0  0  0  0  0  0  0  0  0
   21.8470   80.1990   11.0130 C   0  0  0  0  0  0  0  0  0  0  0  0
   22.3510   80.8440   12.1110 C   0  0  0  0  0  0  0  0  0  0  0  0
   22.0810   78.2430   14.7770 N   0  0  0  0  0  0  0  0  0  0  0  0
   21.0520   77.5860   15.4980 C   0  0  0  0  0  0  0  0  0  0  0  0
   19.9010   77.4010   15.0650 O   0  0  0  0  0  0  0  0  0  0  0  0
   21.5290   77.1480   16.8290 C   0  0  2  0  0  0  0  0  0  0  0  0
   20.8410   77.8350   17.9570 C   0  0  1  0  0  0  0  0  0  0  0  0
   21.8810   78.3570   18.7700 O   0  0  0  0  0  0  0  0  0  0  0  0
   22.5650   79.0370   17.7280 C   0  0  1  0  0  0  0  0  0  0  0  0
   22.9230   77.7960   16.9020 C   0  0  2  0  0  0  0  0  0  0  0  0
   23.2980   78.1500   15.5250 C   0  0  0  0  0  0  0  0  0  0  0  0
   24.4420   78.3400   15.0580 O   0  0  0  0  0  0  0  0  0  0  0  0
   21.4510   79.7980   17.1240 C   0  0  0  0  0  0  0  0  0  0  0  0
   20.3330   79.1380   17.4270 C   0  0  0  0  0  0  0  0  0  0  0  0
   19.8470   77.0650   18.7200 C   0  0  0  0  0  0  0  0  0  0  0  0
   20.3660   76.8390   20.0090 O   0  0  0  0  0  0  0  0  0  0  0  0
   21.1690   77.2460   12.5350 H   0  0  0  0  0  0  0  0  0  0  0  0
   21.0120   78.3610   10.2990 H   0  0  0  0  0  0  0  0  0  0  0  0
   21.7640   80.6550   10.0320 H   0  0  0  0  0  0  0  0  0  0  0  0
   22.6890   81.8600   12.0160 H   0  0  0  0  0  0  0  0  0  0  0  0
   21.5930   76.0590   16.9310 H   0  0  0  0  0  0  0  0  0  0  0  0
   23.4060   79.6110   18.0580 H   0  0  0  0  0  0  0  0  0  0  0  0
   23.6390   77.1890   17.4520 H   0  0  0  0  0  0  0  0  0  0  0  0
   21.4430   80.7220   16.5350 H   0  0  0  0  0  0  0  0  0  0  0  0
   19.3040   79.4470   17.3220 H   0  0  0  0  0  0  0  0  0  0  0  0
   19.6960   76.0370   18.2950 H   0  0  0  0  0  0  0  0  0  0  0  0
   18.8640   77.5470   18.7600 H   0  0  0  0  0  0  0  0  0  0  0  0
   19.7460   76.2370   20.5140 H   0  0  0  0  0  0  0  0  0  0  0  0
  2  3  1  0  0  0  0
  2  1  1  0  0  0  0
  3  8  1  0  0  0  0
  4 22  1  0  0  0  0
  4  3  2  0  0  0  0
  5  4  1  0  0  0  0
  6  5  2  0  0  0  0
  6  7  1  0  0  0  0
  7  2  2  0  0  0  0
  8  9  1  0  0  0  0
  8 16  1  0  0  0  0
  9 11  1  0  0  0  0
 10  9  2  0  0  0  0
 11 15  1  0  0  0  0
 11 26  1  1  0  0  0
 11 12  1  0  0  0  0
 12 20  1  1  0  0  0
 12 13  1  0  0  0  0
 14 27  1  1  0  0  0
 14 13  1  0  0  0  0
 15 28  1  1  0  0  0
 15 14  1  0  0  0  0
 16 15  1  0  0  0  0
 17 16  2  0  0  0  0
 18 19  2  0  0  0  0
 18 14  1  0  0  0  0
 19 12  1  0  0  0  0
 20 32  1  0  0  0  0
 20 21  1  0  0  0  0
 21 33  1  0  0  0  0
 23  5  1  0  0  0  0
 24  6  1  0  0  0  0
 25  7  1  0  0  0  0
 29 18  1  0  0  0  0
 30 19  1  0  0  0  0
 31 20  1  0  0  0  0
M  END
>  <Pose>
1

>  <Score>
-5.17

$$$$
