
 OpenBabel03222202113D

 36 39  0  0  1  0  0  0  0  0999 V2000
   22.7540   79.9480   14.5520 B   0  0  0  0  0  0  0  0  0  0  0  0
   21.6380   78.4530   14.8250 C   0  0  0  0  0  0  0  0  0  0  0  0
   21.2330   77.6450   13.7760 C   0  0  0  0  0  0  0  0  0  0  0  0
   20.4110   76.5810   14.1250 C   0  0  0  0  0  0  0  0  0  0  0  0
   20.0120   76.3210   15.4120 C   0  0  0  0  0  0  0  0  0  0  0  0
   20.4200   77.1270   16.4270 C   0  0  0  0  0  0  0  0  0  0  0  0
   21.2320   78.1900   16.1350 C   0  0  0  0  0  0  0  0  0  0  0  0
   21.6260   77.8840   12.4340 N   0  0  0  0  0  0  0  0  0  0  0  0
   23.0020   77.9480   11.9050 C   0  0  0  0  0  0  0  0  0  0  0  0
   22.8320   78.8230   10.7520 C   0  0  2  0  0  0  0  0  0  0  0  0
   22.8840   80.2030   11.0110 O   0  0  0  0  0  0  0  0  0  0  0  0
   22.4840   80.6090    9.7100 C   0  0  2  0  0  0  0  0  0  0  0  0
   21.0820   79.9840    9.7300 C   0  0  1  0  0  0  0  0  0  0  0  0
   21.4190   78.5990   10.1880 C   0  0  2  0  0  0  0  0  0  0  0  0
   20.7170   78.1080   11.3620 C   0  0  0  0  0  0  0  0  0  0  0  0
   19.4890   77.9020   11.4440 O   0  0  0  0  0  0  0  0  0  0  0  0
   20.3500   80.7240   10.8080 C   0  0  0  0  0  0  0  0  0  0  0  0
   19.3290   81.3920   10.5910 O   0  0  0  0  0  0  0  0  0  0  0  0
   20.8410   80.6570   12.1050 O   0  0  0  0  0  0  0  0  0  0  0  0
   19.9860   81.0610   13.1820 C   0  0  0  0  0  0  0  0  0  0  0  0
   23.4330   79.8170    8.8730 C   0  0  0  0  0  0  0  0  0  0  0  0
   23.7450   78.7310    9.6160 C   0  0  0  0  0  0  0  0  0  0  0  0
   20.0520   75.9030   13.3640 H   0  0  0  0  0  0  0  0  0  0  0  0
   19.3690   75.4800   15.6380 H   0  0  0  0  0  0  0  0  0  0  0  0
   20.1110   76.9340   17.4540 H   0  0  0  0  0  0  0  0  0  0  0  0
   21.5540   78.8270   16.9450 H   0  0  0  0  0  0  0  0  0  0  0  0
   23.6090   78.4400   12.6910 H   0  0  0  0  0  0  0  0  0  0  0  0
   23.4100   76.9580   11.6750 H   0  0  0  0  0  0  0  0  0  0  0  0
   22.4960   81.6650    9.5580 H   0  0  0  0  0  0  0  0  0  0  0  0
   20.5870   80.0490    8.7690 H   0  0  0  0  0  0  0  0  0  0  0  0
   21.4490   77.8630    9.3600 H   0  0  0  0  0  0  0  0  0  0  0  0
   20.4460   80.8320   14.1560 H   0  0  0  0  0  0  0  0  0  0  0  0
   19.0000   80.5570   13.1280 H   0  0  0  0  0  0  0  0  0  0  0  0
   19.8450   82.1700   13.1540 H   0  0  0  0  0  0  0  0  0  0  0  0
   23.7860   80.0770    7.8810 H   0  0  0  0  0  0  0  0  0  0  0  0
   24.5030   78.0050    9.3700 H   0  0  0  0  0  0  0  0  0  0  0  0
  1  2  1  0  0  0  0
  2  7  1  0  0  0  0
  3  4  1  0  0  0  0
  3  2  2  0  0  0  0
  4  5  2  0  0  0  0
  5 24  1  0  0  0  0
  5  6  1  0  0  0  0
  6 25  1  0  0  0  0
  7  6  2  0  0  0  0
  7 26  1  0  0  0  0
  8  3  1  0  0  0  0
  9  8  1  0  0  0  0
  9 27  1  0  0  0  0
 10 22  1  6  0  0  0
 10 11  1  0  0  0  0
 10  9  1  0  0  0  0
 12 29  1  6  0  0  0
 12 13  1  0  0  0  0
 12 11  1  0  0  0  0
 13 30  1  6  0  0  0
 13 14  1  0  0  0  0
 13 17  1  0  0  0  0
 14 31  1  6  0  0  0
 14 10  1  0  0  0  0
 14 15  1  0  0  0  0
 15 16  2  0  0  0  0
 15  8  1  0  0  0  0
 17 19  1  0  0  0  0
 18 17  2  0  0  0  0
 19 20  1  0  0  0  0
 20 32  1  0  0  0  0
 21 22  2  0  0  0  0
 21 12  1  0  0  0  0
 23  4  1  0  0  0  0
 28  9  1  0  0  0  0
 33 20  1  0  0  0  0
 34 20  1  0  0  0  0
 35 21  1  0  0  0  0
 36 22  1  0  0  0  0
M  END
>  <Pose>
1

>  <Score>
-3.94

$$$$
