
 OpenBabel03222202113D

 35 38  0  0  0  0  0  0  0  0999 V2000
   20.4180   80.4520   18.4650 B   0  0  0  0  0  0  0  0  0  0  0  0
   20.5470   78.8140   17.5130 C   0  0  0  0  0  0  0  0  0  0  0  0
   21.0350   78.6400   16.2440 C   0  0  0  0  0  0  0  0  0  0  0  0
   20.9370   77.3300   15.9750 N   0  0  0  0  0  0  0  0  0  0  0  0
   20.4180   76.7070   17.0150 N   0  0  0  0  0  0  0  0  0  0  0  0
   20.1570   77.5940   18.0020 C   0  0  0  0  0  0  0  0  0  0  0  0
   19.5610   77.2830   19.3510 C   0  0  0  0  0  0  0  0  0  0  0  0
   21.3450   76.7150   14.7340 C   0  0  0  0  0  0  0  0  0  0  0  0
   20.3240   75.7190   14.2540 C   0  0  0  0  0  0  0  0  0  0  0  0
   18.9950   75.8990   14.1530 N   0  0  0  0  0  0  0  0  0  0  0  0
   18.4300   74.7830   13.6880 N   0  0  0  0  0  0  0  0  0  0  0  0
   19.3930   73.8610   13.4800 C   0  0  0  0  0  0  0  0  0  0  0  0
   20.5440   74.4600   13.8350 N   0  0  0  0  0  0  0  0  0  0  0  0
   19.0400   72.6160   12.9950 C   0  0  0  0  0  0  0  0  0  0  0  0
   17.7320   72.2770   12.7130 C   0  0  0  0  0  0  0  0  0  0  0  0
   17.6700   71.0110   12.2560 N   0  0  0  0  0  0  0  0  0  0  0  0
   18.9020   70.5400   12.2420 N   0  0  0  0  0  0  0  0  0  0  0  0
   19.7770   71.4910   12.6870 C   0  0  0  0  0  0  0  0  0  0  0  0
   16.4940   70.2620   11.8450 C   0  0  0  0  0  0  0  0  0  0  0  0
   16.8040   73.2250   12.9330 N   0  0  0  0  0  0  0  0  0  0  0  0
   17.1570   74.4480   13.4110 C   0  0  0  0  0  0  0  0  0  0  0  0
   21.5620   79.7320   15.3640 C   0  0  0  0  0  0  0  0  0  0  0  0
   18.7030   77.9570   19.4890 H   0  0  0  0  0  0  0  0  0  0  0  0
   20.2780   77.4540   20.1600 H   0  0  0  0  0  0  0  0  0  0  0  0
   19.1640   76.2480   19.3280 H   0  0  0  0  0  0  0  0  0  0  0  0
   22.3380   76.2030   14.8660 H   0  0  0  0  0  0  0  0  0  0  0  0
   21.4830   77.4650   13.9390 H   0  0  0  0  0  0  0  0  0  0  0  0
   20.8370   71.3990   12.7860 H   0  0  0  0  0  0  0  0  0  0  0  0
   16.3340   70.3080   10.7420 H   0  0  0  0  0  0  0  0  0  0  0  0
   16.5010   69.2230   12.2250 H   0  0  0  0  0  0  0  0  0  0  0  0
   15.5760   70.7340   12.2970 H   0  0  0  0  0  0  0  0  0  0  0  0
   16.4010   75.2190   13.5910 H   0  0  0  0  0  0  0  0  0  0  0  0
   22.6540   79.7170   15.4540 H   0  0  0  0  0  0  0  0  0  0  0  0
   21.1720   80.7110   15.7040 H   0  0  0  0  0  0  0  0  0  0  0  0
   21.2010   79.6140   14.3120 H   0  0  0  0  0  0  0  0  0  0  0  0
  2  6  1  0  0  0  0
  2  1  1  0  0  0  0
  3  2  2  0  0  0  0
  4  3  1  0  0  0  0
  4  5  1  0  0  0  0
  5  6  2  0  0  0  0
  6  7  1  0  0  0  0
  7 23  1  0  0  0  0
  7 24  1  0  0  0  0
  8 26  1  0  0  0  0
  8  4  1  0  0  0  0
  9  8  1  0  0  0  0
 10  9  2  0  0  0  0
 11 10  1  0  0  0  0
 12 11  1  0  0  0  0
 12 13  2  0  0  0  0
 13  9  1  0  0  0  0
 14 12  1  0  0  0  0
 15 20  1  0  0  0  0
 15 14  2  0  0  0  0
 16 15  1  0  0  0  0
 17 16  1  0  0  0  0
 17 18  2  0  0  0  0
 18 28  1  0  0  0  0
 18 14  1  0  0  0  0
 19 30  1  0  0  0  0
 19 16  1  0  0  0  0
 19 31  1  0  0  0  0
 20 21  2  0  0  0  0
 21 32  1  0  0  0  0
 21 11  1  0  0  0  0
 22 33  1  0  0  0  0
 22 34  1  0  0  0  0
 22  3  1  0  0  0  0
 25  7  1  0  0  0  0
 27  8  1  0  0  0  0
 29 19  1  0  0  0  0
 35 22  1  0  0  0  0
M  END
>  <Pose>
1

>  <Score>
-7.25

$$$$
