
 OpenBabel03222202113D

 54 57  0  0  0  0  0  0  0  0999 V2000
   18.1120   74.8390    6.1550 B   0  0  0  0  0  0  0  0  0  0  0  0
   18.7260   75.9100    7.6080 C   0  0  0  0  0  0  0  0  0  0  0  0
   18.7730   75.4080    8.8890 C   0  0  0  0  0  0  0  0  0  0  0  0
   19.2170   76.1780    9.9370 C   0  0  0  0  0  0  0  0  0  0  0  0
   19.6130   77.4710    9.6690 C   0  0  0  0  0  0  0  0  0  0  0  0
   19.5700   77.9920    8.3740 C   0  0  0  0  0  0  0  0  0  0  0  0
   19.1220   77.2100    7.3210 C   0  0  0  0  0  0  0  0  0  0  0  0
   20.0560   78.2280   10.7460 O   0  0  0  0  0  0  0  0  0  0  0  0
   20.1220   79.6360   10.7410 C   0  0  0  0  0  0  0  0  0  0  0  0
   19.2720   75.6580   11.2980 C   0  0  0  0  0  0  0  0  0  0  0  0
   19.4610   76.3990   12.3240 N   0  0  0  0  0  0  0  0  0  0  0  0
   19.5170   75.9180   13.6330 N   0  0  0  0  0  0  0  0  0  0  0  0
   20.1210   76.6460   14.6950 C   0  0  0  0  0  0  0  0  0  0  0  0
   19.4730   76.9560   15.8390 N   0  0  0  0  0  4  0  0  0  0  0  0
   20.0700   77.6440   16.8190 C   0  0  0  0  0  0  0  0  0  0  0  0
   21.3450   78.0270   16.6470 N   0  0  0  0  0  0  0  0  0  0  0  0
   22.0570   77.7500   15.5220 C   0  0  0  0  0  0  0  0  0  0  0  0
   21.3860   77.0470   14.5680 N   0  0  0  0  0  0  0  0  0  0  0  0
   23.3930   78.1540   15.3470 N   0  0  0  0  0  0  0  0  0  0  0  0
   24.3900   77.2460   14.8630 C   0  0  0  0  0  0  0  0  0  0  0  0
   25.5440   77.2780   15.8620 C   0  0  0  0  0  0  0  0  0  0  0  0
   25.9520   78.5960   15.9680 O   0  0  0  0  0  0  0  0  0  0  0  0
   25.0110   79.4040   16.5610 C   0  0  0  0  0  0  0  0  0  0  0  0
   23.7810   79.4990   15.6580 C   0  0  0  0  0  0  0  0  0  0  0  0
   19.3900   77.9700   18.0230 N   0  0  0  0  0  0  0  0  0  0  0  0
   18.5550   79.1440   18.1480 C   0  0  0  0  0  0  0  0  0  0  0  0
   18.7760   79.8380   19.4830 C   0  0  0  0  0  0  0  0  0  0  0  0
   18.8020   78.9030   20.5240 O   0  0  0  0  0  0  0  0  0  0  0  0
   19.8290   78.0010   20.3730 C   0  0  0  0  0  0  0  0  0  0  0  0
   19.5140   77.1180   19.1850 C   0  0  0  0  0  0  0  0  0  0  0  0
   18.4610   74.3820    9.1200 H   0  0  0  0  0  0  0  0  0  0  0  0
   19.8890   79.0200    8.1820 H   0  0  0  0  0  0  0  0  0  0  0  0
   19.0990   77.6330    6.3310 H   0  0  0  0  0  0  0  0  0  0  0  0
   21.1430   79.9100   10.3720 H   0  0  0  0  0  0  0  0  0  0  0  0
   19.3130   80.1110   10.1660 H   0  0  0  0  0  0  0  0  0  0  0  0
   20.0650   79.9960   11.7930 H   0  0  0  0  0  0  0  0  0  0  0  0
   19.1480   74.5980   11.4690 H   0  0  0  0  0  0  0  0  0  0  0  0
   19.0820   74.9700   13.8030 H   0  0  0  0  0  0  0  0  0  0  0  0
   23.9860   76.2060   14.7540 H   0  0  0  0  0  0  0  0  0  0  0  0
   24.7890   77.6210   13.8930 H   0  0  0  0  0  0  0  0  0  0  0  0
   26.3630   76.6970   15.3920 H   0  0  0  0  0  0  0  0  0  0  0  0
   25.2580   76.8260   16.8140 H   0  0  0  0  0  0  0  0  0  0  0  0
   24.6480   78.9860   17.5300 H   0  0  0  0  0  0  0  0  0  0  0  0
   25.4300   80.4070   16.6930 H   0  0  0  0  0  0  0  0  0  0  0  0
   22.9780   80.0830   16.1420 H   0  0  0  0  0  0  0  0  0  0  0  0
   24.1410   79.9930   14.7250 H   0  0  0  0  0  0  0  0  0  0  0  0
   17.4950   78.7600   18.1910 H   0  0  0  0  0  0  0  0  0  0  0  0
   18.6980   79.8640   17.3380 H   0  0  0  0  0  0  0  0  0  0  0  0
   19.7060   80.4170   19.4090 H   0  0  0  0  0  0  0  0  0  0  0  0
   17.8750   80.4730   19.6780 H   0  0  0  0  0  0  0  0  0  0  0  0
   20.7730   78.5650   20.2300 H   0  0  0  0  0  0  0  0  0  0  0  0
   19.9280   77.4280   21.2990 H   0  0  0  0  0  0  0  0  0  0  0  0
   18.5430   76.6490   19.3730 H   0  0  0  0  0  0  0  0  0  0  0  0
   20.2780   76.3390   19.0320 H   0  0  0  0  0  0  0  0  0  0  0  0
  1  2  1  0  0  0  0
  2  3  1  0  0  0  0
  3 31  1  0  0  0  0
  3  4  2  0  0  0  0
  4 10  1  0  0  0  0
  5  4  1  0  0  0  0
  5  8  1  0  0  0  0
  6  5  2  0  0  0  0
  7  2  2  0  0  0  0
  7  6  1  0  0  0  0
  9  8  1  0  0  0  0
  9 36  1  0  0  0  0
 10 37  1  0  0  0  0
 10 11  2  0  0  0  0
 11 12  1  0  0  0  0
 12 38  1  0  0  0  0
 12 13  1  0  0  0  0
 13 14  2  0  0  0  0
 14 15  2  0  0  0  0
 15 25  1  0  0  0  0
 16 15  1  0  0  0  0
 17 16  2  0  0  0  0
 18 13  1  0  0  0  0
 18 17  1  0  0  0  0
 19 17  1  0  0  0  0
 19 24  1  0  0  0  0
 20 19  1  0  0  0  0
 20 21  1  0  0  0  0
 21 22  1  0  0  0  0
 21 42  1  0  0  0  0
 22 23  1  0  0  0  0
 23 44  1  0  0  0  0
 23 43  1  0  0  0  0
 24 45  1  0  0  0  0
 24 23  1  0  0  0  0
 25 26  1  0  0  0  0
 25 30  1  0  0  0  0
 26 47  1  0  0  0  0
 26 27  1  0  0  0  0
 27 50  1  0  0  0  0
 27 28  1  0  0  0  0
 29 28  1  0  0  0  0
 29 52  1  0  0  0  0
 30 53  1  0  0  0  0
 30 29  1  0  0  0  0
 32  6  1  0  0  0  0
 33  7  1  0  0  0  0
 34  9  1  0  0  0  0
 35  9  1  0  0  0  0
 39 20  1  0  0  0  0
 40 20  1  0  0  0  0
 41 21  1  0  0  0  0
 46 24  1  0  0  0  0
 48 26  1  0  0  0  0
 49 27  1  0  0  0  0
 51 29  1  0  0  0  0
 54 30  1  0  0  0  0
M  END
>  <Pose>
1

>  <Score>
-7.16

$$$$
