
 OpenBabel03222202113D

 45 48  0  0  0  0  0  0  0  0999 V2000
   20.3200   80.7410   18.6050 B   0  0  0  0  0  0  0  0  0  0  0  0
   21.2890   79.5710   17.4520 C   0  0  0  0  0  0  0  0  0  0  0  0
   20.6120   78.7270   16.6200 C   0  0  0  0  0  0  0  0  0  0  0  0
   21.1620   77.8410   15.7450 C   0  0  0  0  0  0  0  0  0  0  0  0
   22.5760   77.8580   15.7610 C   0  0  0  0  0  0  0  0  0  0  0  0
   23.2990   78.6910   16.5810 C   0  0  0  0  0  0  0  0  0  0  0  0
   22.6520   79.5640   17.4420 C   0  0  0  0  0  0  0  0  0  0  0  0
   23.2610   77.0020   14.9150 O   0  0  0  0  0  0  0  0  0  0  0  0
   24.6060   76.6650   15.0550 C   0  0  0  0  0  0  0  0  0  0  0  0
   20.5080   76.9420   14.8370 C   0  0  0  0  0  0  0  0  0  0  0  0
   20.2360   76.8450   13.5540 N   0  0  0  0  0  0  0  0  0  0  0  0
   19.5420   75.6920   13.2960 C   0  0  0  0  0  0  0  0  0  0  0  0
   19.3960   75.0620   14.4830 N   0  0  0  0  0  0  0  0  0  0  0  0
   19.9570   75.7810   15.3950 N   0  0  0  0  0  0  0  0  0  0  0  0
   19.2760   75.6090   11.9900 N   0  0  0  0  0  0  0  0  0  0  0  0
   19.8010   76.7020   11.4120 C   0  0  0  0  0  0  0  0  0  0  0  0
   20.4150   77.4950   12.3750 C   0  0  0  0  0  0  0  0  0  0  0  0
   21.0340   78.6220   12.0810 N   0  0  0  0  0  0  0  0  0  0  0  0
   21.0440   78.9950   10.7630 C   0  0  0  0  0  0  0  0  0  0  0  0
   21.6020   80.0510   10.3730 O   0  0  0  0  0  0  0  0  0  0  0  0
   20.4540   78.2530    9.8020 N   0  0  0  0  0  0  0  0  0  0  0  0
   19.8340   77.1160   10.0940 C   0  0  0  0  0  0  0  0  0  0  0  0
   19.2680   76.3810    9.2460 O   0  0  0  0  0  0  0  0  0  0  0  0
   21.7720   79.4960   12.9430 C   0  0  0  0  0  0  0  0  0  0  0  0
   18.5670   74.5660   11.3080 C   0  0  0  0  0  0  0  0  0  0  0  0
   17.7850   73.7470   12.3140 C   0  0  0  0  0  0  0  0  0  0  0  0
   18.5500   72.6550   12.6710 O   0  0  0  0  0  0  0  0  0  0  0  0
   17.8780   71.4470   12.4190 C   0  0  0  0  0  0  0  0  0  0  0  0
   19.5320   78.7260   16.6400 H   0  0  0  0  0  0  0  0  0  0  0  0
   24.3740   78.7210   16.6080 H   0  0  0  0  0  0  0  0  0  0  0  0
   23.2040   80.2210   18.0890 H   0  0  0  0  0  0  0  0  0  0  0  0
   24.9240   76.5370   16.1100 H   0  0  0  0  0  0  0  0  0  0  0  0
   24.8600   75.6990   14.5470 H   0  0  0  0  0  0  0  0  0  0  0  0
   25.2250   77.4460   14.5600 H   0  0  0  0  0  0  0  0  0  0  0  0
   20.4690   78.5520    8.8050 H   0  0  0  0  0  0  0  0  0  0  0  0
   22.4290   78.9640   13.6460 H   0  0  0  0  0  0  0  0  0  0  0  0
   22.4400   80.1460   12.2780 H   0  0  0  0  0  0  0  0  0  0  0  0
   21.1250   80.2000   13.4530 H   0  0  0  0  0  0  0  0  0  0  0  0
   19.2110   73.9490   10.6570 H   0  0  0  0  0  0  0  0  0  0  0  0
   17.7860   75.0690   10.6650 H   0  0  0  0  0  0  0  0  0  0  0  0
   16.8430   73.3470   11.8630 H   0  0  0  0  0  0  0  0  0  0  0  0
   17.5630   74.4070   13.1750 H   0  0  0  0  0  0  0  0  0  0  0  0
   16.9410   71.4500   13.0170 H   0  0  0  0  0  0  0  0  0  0  0  0
   18.4770   70.6000   12.7820 H   0  0  0  0  0  0  0  0  0  0  0  0
   17.6400   71.3150   11.3620 H   0  0  0  0  0  0  0  0  0  0  0  0
  2  1  1  0  0  0  0
  3 29  1  0  0  0  0
  3  2  2  0  0  0  0
  4  5  2  0  0  0  0
  4  3  1  0  0  0  0
  5  6  1  0  0  0  0
  6 30  1  0  0  0  0
  6  7  2  0  0  0  0
  7  2  1  0  0  0  0
  7 31  1  0  0  0  0
  8  9  1  0  0  0  0
  8  5  1  0  0  0  0
  9 32  1  0  0  0  0
 10 14  2  0  0  0  0
 10  4  1  0  0  0  0
 11 10  1  0  0  0  0
 12 11  1  0  0  0  0
 12 13  2  0  0  0  0
 13 14  1  0  0  0  0
 15 12  1  0  0  0  0
 16 15  1  0  0  0  0
 16 17  2  0  0  0  0
 17 11  1  0  0  0  0
 18 17  1  0  0  0  0
 18 24  1  0  0  0  0
 19 18  1  0  0  0  0
 20 19  2  0  0  0  0
 21 22  1  0  0  0  0
 21 19  1  0  0  0  0
 22 16  1  0  0  0  0
 23 22  2  0  0  0  0
 24 38  1  0  0  0  0
 24 36  1  0  0  0  0
 25 15  1  0  0  0  0
 25 26  1  0  0  0  0
 26 27  1  0  0  0  0
 26 42  1  0  0  0  0
 28 27  1  0  0  0  0
 28 44  1  0  0  0  0
 28 43  1  0  0  0  0
 33  9  1  0  0  0  0
 34  9  1  0  0  0  0
 35 21  1  0  0  0  0
 37 24  1  0  0  0  0
 39 25  1  0  0  0  0
 40 25  1  0  0  0  0
 41 26  1  0  0  0  0
 45 28  1  0  0  0  0
M  END
>  <Pose>
1

>  <Score>
-5.87

$$$$
