
 OpenBabel03222202113D

 52 55  0  0  1  0  0  0  0  0999 V2000
   17.0770   75.8400    5.2410 B   0  0  0  0  0  0  0  0  0  0  0  0
   18.1530   75.9330    6.8360 C   0  0  0  0  0  0  0  0  0  0  0  0
   18.3770   77.1510    7.4330 C   0  0  0  0  0  0  0  0  0  0  0  0
   19.1560   77.2130    8.5680 C   0  0  0  0  0  0  0  0  0  0  0  0
   19.6980   76.0870    9.0990 C   0  0  0  0  0  0  0  0  0  0  0  0
   19.4610   74.8840    8.4920 C   0  0  0  0  0  0  0  0  0  0  0  0
   18.6830   74.7630    7.3390 C   0  0  0  0  0  0  0  0  0  0  0  0
   19.3340   78.5700    9.2090 C   0  0  0  0  0  0  0  0  0  0  0  0
   18.5810   79.4460    8.8230 O   0  0  0  0  0  0  0  0  0  0  0  0
   20.3430   78.6000   10.1670 N   0  0  0  0  0  0  0  0  0  0  0  0
   21.4150   79.5260   10.1950 C   0  0  1  0  0  0  0  0  0  0  0  0
   21.0020   80.9780   10.3780 C   0  0  0  0  0  0  0  0  0  0  0  0
   22.4720   79.1930   11.1390 C   0  0  0  0  0  0  0  0  0  0  0  0
   23.5810   78.8170   10.6440 O   0  0  0  0  0  0  0  0  0  0  0  0
   22.2960   79.2610   12.5510 N   0  0  0  0  0  0  0  0  0  0  0  0
   22.0640   78.0920   13.3610 C   0  0  0  0  0  0  0  0  0  0  0  0
   23.3400   78.0210   14.2340 C   0  0  0  0  0  0  0  0  0  0  0  0
   23.1790   79.1330   15.2350 C   0  0  2  0  0  0  0  0  0  0  0  0
   24.4960   79.3460   15.8320 N   0  0  0  0  0  0  0  0  0  0  0  0
   25.0380   78.1810   16.4270 C   0  0  0  0  0  0  0  0  0  0  0  0
   24.2210   77.6770   17.6030 C   0  0  0  0  0  0  0  0  0  0  0  0
   22.7790   77.9210   17.4140 C   0  0  0  0  0  0  0  0  0  0  0  0
   21.7470   77.5640   18.1970 N   0  0  0  0  0  0  0  0  0  0  0  0
   20.6190   78.0200   17.6080 C   0  0  0  0  0  0  0  0  0  0  0  0
   20.9700   78.6560   16.4620 N   0  0  0  0  0  0  0  0  0  0  0  0
   22.3080   78.6090   16.3120 C   0  0  0  0  0  0  0  0  0  0  0  0
   22.7070   80.4300   14.6790 C   0  0  0  0  0  0  0  0  0  0  0  0
   22.3590   80.5050   13.2310 C   0  0  0  0  0  0  0  0  0  0  0  0
   17.9520   78.0900    7.0480 H   0  0  0  0  0  0  0  0  0  0  0  0
   20.3120   76.1520   10.0230 H   0  0  0  0  0  0  0  0  0  0  0  0
   19.8800   73.9550    8.8890 H   0  0  0  0  0  0  0  0  0  0  0  0
   18.4770   73.8150    6.8580 H   0  0  0  0  0  0  0  0  0  0  0  0
   20.3660   77.8500   10.9220 H   0  0  0  0  0  0  0  0  0  0  0  0
   21.8070   79.5410    9.1330 H   0  0  0  0  0  0  0  0  0  0  0  0
   21.8430   81.5330   10.9010 H   0  0  0  0  0  0  0  0  0  0  0  0
   20.9430   81.5130    9.3620 H   0  0  0  0  0  0  0  0  0  0  0  0
   20.1040   81.1290   10.9370 H   0  0  0  0  0  0  0  0  0  0  0  0
   22.0210   77.1230   12.8420 H   0  0  0  0  0  0  0  0  0  0  0  0
   21.2450   78.1550   14.0690 H   0  0  0  0  0  0  0  0  0  0  0  0
   23.2440   77.0390   14.7350 H   0  0  0  0  0  0  0  0  0  0  0  0
   24.2460   78.0280   13.6470 H   0  0  0  0  0  0  0  0  0  0  0  0
   24.5080   80.1770   16.4760 H   0  0  0  0  0  0  0  0  0  0  0  0
   25.2130   77.4070   15.6730 H   0  0  0  0  0  0  0  0  0  0  0  0
   26.0340   78.4350   16.8460 H   0  0  0  0  0  0  0  0  0  0  0  0
   24.5290   78.1980   18.5510 H   0  0  0  0  0  0  0  0  0  0  0  0
   24.4370   76.5900   17.7060 H   0  0  0  0  0  0  0  0  0  0  0  0
   19.6060   77.8900   18.0060 H   0  0  0  0  0  0  0  0  0  0  0  0
   20.2250   79.0790   15.8730 H   0  0  0  0  0  0  0  0  0  0  0  0
   21.8070   80.7420   15.2480 H   0  0  0  0  0  0  0  0  0  0  0  0
   23.4630   81.2470   14.8800 H   0  0  0  0  0  0  0  0  0  0  0  0
   23.0600   81.1480   12.6810 H   0  0  0  0  0  0  0  0  0  0  0  0
   21.3420   80.9910   13.0910 H   0  0  0  0  0  0  0  0  0  0  0  0
  1  2  1  0  0  0  0
  2  7  2  0  0  0  0
  2  3  1  0  0  0  0
  3  4  2  0  0  0  0
  4  5  1  0  0  0  0
  4  8  1  0  0  0  0
  5 30  1  0  0  0  0
  6 31  1  0  0  0  0
  6  5  2  0  0  0  0
  7  6  1  0  0  0  0
  8 10  1  0  0  0  0
  9  8  2  0  0  0  0
 10 11  1  0  0  0  0
 10 33  1  0  0  0  0
 11 34  1  6  0  0  0
 11 12  1  0  0  0  0
 11 13  1  0  0  0  0
 12 35  1  0  0  0  0
 12 37  1  0  0  0  0
 13 15  1  0  0  0  0
 14 13  2  0  0  0  0
 15 28  1  0  0  0  0
 15 16  1  0  0  0  0
 16 39  1  0  0  0  0
 16 17  1  0  0  0  0
 17 40  1  0  0  0  0
 17 18  1  0  0  0  0
 18 19  1  0  0  0  0
 18 26  1  1  0  0  0
 19 20  1  0  0  0  0
 19 42  1  0  0  0  0
 20 44  1  0  0  0  0
 20 21  1  0  0  0  0
 21 46  1  0  0  0  0
 21 45  1  0  0  0  0
 22 21  1  0  0  0  0
 22 23  1  0  0  0  0
 24 47  1  0  0  0  0
 24 23  2  0  0  0  0
 25 24  1  0  0  0  0
 26 25  1  0  0  0  0
 26 22  2  0  0  0  0
 27 50  1  0  0  0  0
 27 18  1  0  0  0  0
 27 49  1  0  0  0  0
 28 27  1  0  0  0  0
 29  3  1  0  0  0  0
 32  7  1  0  0  0  0
 36 12  1  0  0  0  0
 38 16  1  0  0  0  0
 41 17  1  0  0  0  0
 43 20  1  0  0  0  0
 48 25  1  0  0  0  0
 51 28  1  0  0  0  0
 52 28  1  0  0  0  0
M  END
>  <Pose>
1

>  <Score>
-6.63

$$$$
