
 OpenBabel03222202113D

 49 52  0  0  0  0  0  0  0  0999 V2000
   24.8340   78.1470    9.8860 B   0  0  0  0  0  0  0  0  0  0  0  0
   23.1390   78.9710    9.9920 C   0  0  0  0  0  0  0  0  0  0  0  0
   22.0660   78.2630   10.5110 C   0  0  0  0  0  0  0  0  0  0  0  0
   20.8230   78.8310   10.5970 C   0  0  0  0  0  0  0  0  0  0  0  0
   20.5750   80.1060   10.1840 C   0  0  0  0  0  0  0  0  0  0  0  0
   21.6520   80.8270    9.6600 C   0  0  0  0  0  0  0  0  0  0  0  0
   22.9080   80.2580    9.5720 C   0  0  0  0  0  0  0  0  0  0  0  0
   19.6570   78.0860   11.1910 C   0  0  0  0  0  0  0  0  0  0  0  0
   18.5590   78.2800   10.5600 O   0  0  0  0  0  0  0  0  0  0  0  0
   19.8740   77.3360   12.2590 N   0  0  0  0  0  0  0  0  0  0  0  0
   20.1010   76.5510   13.3780 C   0  0  0  0  0  0  0  0  0  0  0  0
   21.0340   77.2280   14.3500 C   0  0  0  0  0  0  0  0  0  0  0  0
   21.8500   78.0570   13.8130 O   0  0  0  0  0  0  0  0  0  0  0  0
   21.0350   76.9920   15.7310 N   0  0  0  0  0  0  0  0  0  0  0  0
   22.2130   77.0780   16.5330 C   0  0  0  0  0  0  0  0  0  0  0  0
   21.9440   77.6290   17.9050 C   0  0  0  0  0  0  0  0  0  0  0  0
   20.6760   78.4460   18.0230 C   0  0  0  0  0  0  0  0  0  0  0  0
   20.4970   78.6000   19.4610 N   0  0  0  0  0  0  0  0  0  0  0  0
   19.4930   79.5060   19.8700 C   0  0  0  0  0  0  0  0  0  0  0  0
   19.0030   80.4970   18.8780 C   0  0  0  0  0  0  0  0  0  0  0  0
   20.0470   80.8190   17.8550 C   0  0  0  0  0  0  0  0  0  0  0  0
   20.3590   81.9540   17.2300 N   0  0  0  0  0  0  0  0  0  0  0  0
   21.3890   81.6520   16.4130 C   0  0  0  0  0  0  0  0  0  0  0  0
   21.7120   80.3450   16.5290 N   0  0  0  0  0  0  0  0  0  0  0  0
   20.8640   79.7960   17.4460 C   0  0  0  0  0  0  0  0  0  0  0  0
   19.4660   77.7890   17.4100 C   0  0  0  0  0  0  0  0  0  0  0  0
   19.8110   76.6630   16.4520 C   0  0  0  0  0  0  0  0  0  0  0  0
   22.2090   77.2630   10.8480 H   0  0  0  0  0  0  0  0  0  0  0  0
   19.5920   80.5250   10.2640 H   0  0  0  0  0  0  0  0  0  0  0  0
   21.4980   81.8360    9.3210 H   0  0  0  0  0  0  0  0  0  0  0  0
   23.7400   80.8170    9.1690 H   0  0  0  0  0  0  0  0  0  0  0  0
   18.5600   76.9030   12.2390 H   0  0  0  0  0  0  0  0  0  0  0  0
   20.5830   75.5540   13.0880 H   0  0  0  0  0  0  0  0  0  0  0  0
   19.1570   76.2250   13.8800 H   0  0  0  0  0  0  0  0  0  0  0  0
   22.5530   76.0080   16.6860 H   0  0  0  0  0  0  0  0  0  0  0  0
   23.0710   77.5550   16.0240 H   0  0  0  0  0  0  0  0  0  0  0  0
   21.9040   76.8140   18.6370 H   0  0  0  0  0  0  0  0  0  0  0  0
   22.7800   78.3240   18.1330 H   0  0  0  0  0  0  0  0  0  0  0  0
   20.2960   77.6150   19.7970 H   0  0  0  0  0  0  0  0  0  0  0  0
   19.9120   80.0950   20.7410 H   0  0  0  0  0  0  0  0  0  0  0  0
   18.6330   78.9240   20.3150 H   0  0  0  0  0  0  0  0  0  0  0  0
   18.0760   80.1150   18.3900 H   0  0  0  0  0  0  0  0  0  0  0  0
   18.6680   81.4280   19.4160 H   0  0  0  0  0  0  0  0  0  0  0  0
   21.8570   82.3780   15.7760 H   0  0  0  0  0  0  0  0  0  0  0  0
   22.4650   79.8610   16.0110 H   0  0  0  0  0  0  0  0  0  0  0  0
   18.9140   78.5560   16.7880 H   0  0  0  0  0  0  0  0  0  0  0  0
   18.7600   77.3790   18.1500 H   0  0  0  0  0  0  0  0  0  0  0  0
   19.9030   75.6870   16.9810 H   0  0  0  0  0  0  0  0  0  0  0  0
   18.9900   76.6020   15.7140 H   0  0  0  0  0  0  0  0  0  0  0  0
  1  2  1  0  0  0  0
  2  3  1  0  0  0  0
  3  4  2  0  0  0  0
  3 28  1  0  0  0  0
  4  8  1  0  0  0  0
  5 29  1  0  0  0  0
  5  4  1  0  0  0  0
  6  5  2  0  0  0  0
  7  6  1  0  0  0  0
  7  2  2  0  0  0  0
  8 10  1  0  0  0  0
  9  8  2  0  0  0  0
 10 11  1  0  0  0  0
 11 34  1  0  0  0  0
 11 12  1  0  0  0  0
 12 14  1  0  0  0  0
 13 12  2  0  0  0  0
 14 27  1  0  0  0  0
 14 15  1  0  0  0  0
 15 35  1  0  0  0  0
 15 16  1  0  0  0  0
 16 17  1  0  0  0  0
 16 38  1  0  0  0  0
 16 37  1  0  0  0  0
 17 18  1  0  0  0  0
 18 39  1  0  0  0  0
 18 19  1  0  0  0  0
 19 41  1  0  0  0  0
 19 40  1  0  0  0  0
 20 43  1  0  0  0  0
 20 19  1  0  0  0  0
 21 20  1  0  0  0  0
 22 21  1  0  0  0  0
 23 24  1  0  0  0  0
 23 22  2  0  0  0  0
 24 25  1  0  0  0  0
 25 21  2  0  0  0  0
 25 17  1  0  0  0  0
 26 17  1  0  0  0  0
 26 47  1  0  0  0  0
 27 48  1  0  0  0  0
 27 26  1  0  0  0  0
 30  6  1  0  0  0  0
 31  7  1  0  0  0  0
 32 10  1  0  0  0  0
 33 11  1  0  0  0  0
 36 15  1  0  0  0  0
 42 20  1  0  0  0  0
 44 23  1  0  0  0  0
 45 24  1  0  0  0  0
 46 26  1  0  0  0  0
 49 27  1  0  0  0  0
M  END
>  <Pose>
1

>  <Score>
-5.79

$$$$
