
 OpenBabel03222202113D

 49 52  0  0  0  0  0  0  0  0999 V2000
   18.3570   77.6950    7.9800 B   0  0  0  0  0  0  0  0  0  0  0  0
   19.2610   78.8190    9.2080 C   0  0  0  0  0  0  0  0  0  0  0  0
   20.6410   78.7640    9.2830 C   0  0  0  0  0  0  0  0  0  0  0  0
   21.3590   79.5570   10.1590 C   0  0  0  0  0  0  0  0  0  0  0  0
   20.6510   80.4270   10.9750 C   0  0  0  0  0  0  0  0  0  0  0  0
   19.2790   80.4760   10.8950 C   0  0  0  0  0  0  0  0  0  0  0  0
   18.5480   79.6930   10.0290 C   0  0  0  0  0  0  0  0  0  0  0  0
   22.8110   79.5220   10.2610 C   0  0  0  0  0  0  0  0  0  0  0  0
   23.5080   80.0280    9.3450 O   0  0  0  0  0  0  0  0  0  0  0  0
   23.4930   78.9380   11.3530 N   0  0  0  0  0  0  0  0  0  0  0  0
   23.8620   79.7040   12.5240 C   0  0  0  0  0  0  0  0  0  0  0  0
   23.5390   78.9770   13.7800 C   0  0  0  0  0  0  0  0  0  0  0  0
   24.3340   78.0720   14.1340 O   0  0  0  0  0  0  0  0  0  0  0  0
   22.4110   79.2480   14.5700 N   0  0  0  0  0  0  0  0  0  0  0  0
   22.1250   80.5640   15.0850 C   0  0  0  0  0  0  0  0  0  0  0  0
   22.2080   80.4730   16.5930 C   0  0  0  0  0  0  0  0  0  0  0  0
   21.3650   79.3190   17.0800 C   0  0  0  0  0  0  0  0  0  0  0  0
   22.2440   78.3620   17.7190 N   0  0  0  0  0  0  0  0  0  0  0  0
   21.5850   77.2690   18.3450 C   0  0  0  0  0  0  0  0  0  0  0  0
   20.3230   77.5640   19.0700 C   0  0  0  0  0  0  0  0  0  0  0  0
   19.9650   78.9970   19.1280 C   0  0  0  0  0  0  0  0  0  0  0  0
   19.1850   79.7200   19.9890 N   0  0  0  0  0  0  0  0  0  0  0  0
   19.2110   80.9860   19.5570 C   0  0  0  0  0  0  0  0  0  0  0  0
   19.9810   81.0640   18.4600 N   0  0  0  0  0  0  0  0  0  0  0  0
   20.4720   79.8350   18.1600 C   0  0  0  0  0  0  0  0  0  0  0  0
   20.5480   78.6580   16.0170 C   0  0  0  0  0  0  0  0  0  0  0  0
   21.4850   78.1950   14.8970 C   0  0  0  0  0  0  0  0  0  0  0  0
   21.1460   78.0860    8.6420 H   0  0  0  0  0  0  0  0  0  0  0  0
   21.1370   81.0850   11.6910 H   0  0  0  0  0  0  0  0  0  0  0  0
   18.7070   81.1500   11.5260 H   0  0  0  0  0  0  0  0  0  0  0  0
   17.4860   79.7060    9.9420 H   0  0  0  0  0  0  0  0  0  0  0  0
   23.7360   77.9290   11.3110 H   0  0  0  0  0  0  0  0  0  0  0  0
   23.3000   80.6600   12.5640 H   0  0  0  0  0  0  0  0  0  0  0  0
   24.9410   79.9300   12.4300 H   0  0  0  0  0  0  0  0  0  0  0  0
   21.0890   80.8810   14.8020 H   0  0  0  0  0  0  0  0  0  0  0  0
   22.7920   81.3430   14.6760 H   0  0  0  0  0  0  0  0  0  0  0  0
   21.9110   81.4270   17.0790 H   0  0  0  0  0  0  0  0  0  0  0  0
   23.2950   80.3010   16.8220 H   0  0  0  0  0  0  0  0  0  0  0  0
   22.8960   77.9740   16.9870 H   0  0  0  0  0  0  0  0  0  0  0  0
   22.3100   76.8490   19.1040 H   0  0  0  0  0  0  0  0  0  0  0  0
   21.4230   76.4050   17.6460 H   0  0  0  0  0  0  0  0  0  0  0  0
   20.3390   77.1860   20.1350 H   0  0  0  0  0  0  0  0  0  0  0  0
   19.4480   77.0090   18.6240 H   0  0  0  0  0  0  0  0  0  0  0  0
   18.6770   79.3070   20.8250 H   0  0  0  0  0  0  0  0  0  0  0  0
   18.6970   81.8150   20.0160 H   0  0  0  0  0  0  0  0  0  0  0  0
   19.7280   79.2730   15.6460 H   0  0  0  0  0  0  0  0  0  0  0  0
   20.1150   77.7370   16.4440 H   0  0  0  0  0  0  0  0  0  0  0  0
   20.9020   77.9400   13.9870 H   0  0  0  0  0  0  0  0  0  0  0  0
   21.9680   77.2810   15.2500 H   0  0  0  0  0  0  0  0  0  0  0  0
  1  2  1  0  0  0  0
  2  3  2  0  0  0  0
  2  7  1  0  0  0  0
  3  4  1  0  0  0  0
  4  8  1  0  0  0  0
  4  5  2  0  0  0  0
  5 29  1  0  0  0  0
  6  5  1  0  0  0  0
  6 30  1  0  0  0  0
  7  6  2  0  0  0  0
  8 10  1  0  0  0  0
  9  8  2  0  0  0  0
 10 11  1  0  0  0  0
 11 33  1  0  0  0  0
 11 12  1  0  0  0  0
 12 13  2  0  0  0  0
 12 14  1  0  0  0  0
 14 27  1  0  0  0  0
 14 15  1  0  0  0  0
 15 16  1  0  0  0  0
 16 38  1  0  0  0  0
 16 37  1  0  0  0  0
 16 17  1  0  0  0  0
 17 18  1  0  0  0  0
 17 25  1  0  0  0  0
 18 19  1  0  0  0  0
 19 20  1  0  0  0  0
 19 40  1  0  0  0  0
 20 21  1  0  0  0  0
 20 42  1  0  0  0  0
 21 22  1  0  0  0  0
 22 44  1  0  0  0  0
 23 22  1  0  0  0  0
 23 45  1  0  0  0  0
 24 23  2  0  0  0  0
 25 24  1  0  0  0  0
 25 21  2  0  0  0  0
 26 47  1  0  0  0  0
 26 17  1  0  0  0  0
 27 49  1  0  0  0  0
 27 26  1  0  0  0  0
 28  3  1  0  0  0  0
 31  7  1  0  0  0  0
 32 10  1  0  0  0  0
 34 11  1  0  0  0  0
 35 15  1  0  0  0  0
 36 15  1  0  0  0  0
 39 18  1  0  0  0  0
 41 19  1  0  0  0  0
 43 20  1  0  0  0  0
 46 26  1  0  0  0  0
 48 27  1  0  0  0  0
M  END
>  <Pose>
1

>  <Score>
-6.27

$$$$
