
 OpenBabel03222202113D

 48 51  0  0  1  0  0  0  0  0999 V2000
   25.7300   78.8950   16.9430 B   0  0  0  0  0  0  0  0  0  0  0  0
   24.0390   79.0770   16.0670 C   0  0  0  0  0  0  0  0  0  0  0  0
   22.9780   78.3050   16.4520 C   0  0  0  0  0  0  0  0  0  0  0  0
   21.7460   78.4310   15.8230 C   0  0  0  0  0  0  0  0  0  0  0  0
   21.6300   79.3380   14.8160 C   0  0  0  0  0  0  0  0  0  0  0  0
   22.7120   80.1160   14.4330 C   0  0  0  0  0  0  0  0  0  0  0  0
   23.9280   79.9900   15.0580 C   0  0  0  0  0  0  0  0  0  0  0  0
   20.6230   77.6040   16.2320 C   0  0  0  0  0  0  0  0  0  0  0  0
   19.6740   78.1540   16.9040 O   0  0  0  0  0  0  0  0  0  0  0  0
   20.5450   76.2330   15.9180 N   0  0  0  0  0  0  0  0  0  0  0  0
   20.5330   75.8680   14.5120 C   0  0  2  0  0  0  0  0  0  0  0  0
   20.0080   76.9990   13.6490 C   0  0  0  0  0  0  0  0  0  0  0  0
   19.5160   76.3080   12.4740 N   0  0  0  0  0  0  0  0  0  0  0  0
   19.5250   74.8730   12.6730 C   0  0  1  0  0  0  0  0  0  0  0  0
   19.5530   74.7710   14.2040 C   0  0  0  0  0  0  0  0  0  0  0  0
   18.2930   74.3170   12.1160 C   0  0  0  0  0  0  0  0  0  0  0  0
   17.5470   73.5900   12.7870 O   0  0  0  0  0  0  0  0  0  0  0  0
   17.9720   74.6350   10.7710 N   0  0  0  0  0  0  0  0  0  0  0  0
   18.4600   75.8680   10.1950 C   0  0  1  0  0  0  0  0  0  0  0  0
   19.0450   76.7800   11.2030 C   0  0  0  0  0  0  0  0  0  0  0  0
   19.1370   78.0110   10.9520 O   0  0  0  0  0  0  0  0  0  0  0  0
   19.3960   75.6340    9.0290 C   0  0  0  0  0  0  0  0  0  0  0  0
   18.7090   75.6150    7.7270 C   0  0  0  0  0  0  0  0  0  0  0  0
   18.7810   74.4890    6.9270 C   0  0  0  0  0  0  0  0  0  0  0  0
   18.1420   74.4640    5.7090 C   0  0  0  0  0  0  0  0  0  0  0  0
   17.4110   75.5340    5.2280 C   0  0  0  0  0  0  0  0  0  0  0  0
   17.3380   76.6580    6.0230 C   0  0  0  0  0  0  0  0  0  0  0  0
   17.9730   76.7010    7.2490 C   0  0  0  0  0  0  0  0  0  0  0  0
   23.0410   77.5680   17.2570 H   0  0  0  0  0  0  0  0  0  0  0  0
   20.6760   79.4580   14.2990 H   0  0  0  0  0  0  0  0  0  0  0  0
   22.6220   80.8360   13.6360 H   0  0  0  0  0  0  0  0  0  0  0  0
   24.7970   80.5870   14.7780 H   0  0  0  0  0  0  0  0  0  0  0  0
   20.5050   75.5350   16.6740 H   0  0  0  0  0  0  0  0  0  0  0  0
   21.5160   75.5980   14.1340 H   0  0  0  0  0  0  0  0  0  0  0  0
   19.1660   77.5420   14.1300 H   0  0  0  0  0  0  0  0  0  0  0  0
   20.8100   77.7240   13.3890 H   0  0  0  0  0  0  0  0  0  0  0  0
   20.4240   74.3830   12.2450 H   0  0  0  0  0  0  0  0  0  0  0  0
   19.9290   73.7610   14.4290 H   0  0  0  0  0  0  0  0  0  0  0  0
   18.5360   74.9710   14.5600 H   0  0  0  0  0  0  0  0  0  0  0  0
   17.3890   74.0100   10.1690 H   0  0  0  0  0  0  0  0  0  0  0  0
   17.5480   76.3600    9.7400 H   0  0  0  0  0  0  0  0  0  0  0  0
   20.1830   76.4110    9.0560 H   0  0  0  0  0  0  0  0  0  0  0  0
   19.8600   74.6460    9.1800 H   0  0  0  0  0  0  0  0  0  0  0  0
   19.3280   73.5980    7.2130 H   0  0  0  0  0  0  0  0  0  0  0  0
   18.1940   73.5870    5.0790 H   0  0  0  0  0  0  0  0  0  0  0  0
   16.9180   75.4750    4.2550 H   0  0  0  0  0  0  0  0  0  0  0  0
   16.7610   77.5030    5.6430 H   0  0  0  0  0  0  0  0  0  0  0  0
   17.8960   77.6010    7.8470 H   0  0  0  0  0  0  0  0  0  0  0  0
  2  3  1  0  0  0  0
  2  1  1  0  0  0  0
  3 29  1  0  0  0  0
  4  8  1  0  0  0  0
  4  3  2  0  0  0  0
  5  4  1  0  0  0  0
  6  5  2  0  0  0  0
  6  7  1  0  0  0  0
  7  2  2  0  0  0  0
  8  9  2  0  0  0  0
 10  8  1  0  0  0  0
 10 33  1  0  0  0  0
 11 34  1  6  0  0  0
 11 10  1  0  0  0  0
 12 35  1  0  0  0  0
 12 11  1  0  0  0  0
 13 14  1  0  0  0  0
 13 12  1  0  0  0  0
 14 37  1  6  0  0  0
 14 15  1  0  0  0  0
 15 38  1  0  0  0  0
 15 11  1  0  0  0  0
 15 39  1  0  0  0  0
 16 14  1  0  0  0  0
 16 17  2  0  0  0  0
 18 16  1  0  0  0  0
 19 41  1  6  0  0  0
 19 18  1  0  0  0  0
 19 20  1  0  0  0  0
 20 13  1  0  0  0  0
 21 20  2  0  0  0  0
 22 42  1  0  0  0  0
 22 43  1  0  0  0  0
 22 19  1  0  0  0  0
 23 22  1  0  0  0  0
 24 44  1  0  0  0  0
 24 23  2  0  0  0  0
 25 24  1  0  0  0  0
 26 25  2  0  0  0  0
 26 27  1  0  0  0  0
 27 28  2  0  0  0  0
 28 23  1  0  0  0  0
 28 48  1  0  0  0  0
 30  5  1  0  0  0  0
 31  6  1  0  0  0  0
 32  7  1  0  0  0  0
 36 12  1  0  0  0  0
 40 18  1  0  0  0  0
 45 25  1  0  0  0  0
 46 26  1  0  0  0  0
 47 27  1  0  0  0  0
M  END
>  <Pose>
1

>  <Score>
-6.35

$$$$
