
 OpenBabel03222202113D

 42 45  0  0  1  0  0  0  0  0999 V2000
   15.5030   75.4530    5.0260 B   0  0  0  0  0  0  0  0  0  0  0  0
   17.0480   75.5220    6.1300 C   0  0  0  0  0  0  0  0  0  0  0  0
   17.6340   76.7060    6.5070 C   0  0  0  0  0  0  0  0  0  0  0  0
   18.7630   76.7550    7.2880 C   0  0  0  0  0  0  0  0  0  0  0  0
   19.3320   75.5810    7.7100 C   0  0  0  0  0  0  0  0  0  0  0  0
   18.7730   74.3610    7.3510 C   0  0  0  0  0  0  0  0  0  0  0  0
   17.6490   74.3480    6.5740 C   0  0  0  0  0  0  0  0  0  0  0  0
   19.3830   78.0770    7.6820 C   0  0  0  0  0  0  0  0  0  0  0  0
   19.0050   79.0060    6.9040 O   0  0  0  0  0  0  0  0  0  0  0  0
   20.2290   78.1220    8.7630 N   0  0  0  0  0  0  0  0  0  0  0  0
   21.0520   78.1670    9.8040 C   0  0  2  0  0  0  0  0  0  0  0  0
   20.3320   77.8920   11.1760 C   0  0  0  0  0  0  0  0  0  0  0  0
   21.2860   78.3170   12.1440 N   0  0  0  0  0  0  0  0  0  0  0  0
   22.2280   79.2310   11.5160 C   0  0  1  0  0  0  0  0  0  0  0  0
   21.6210   79.5600   10.2140 C   0  0  0  0  0  0  0  0  0  0  0  0
   22.5340   80.3490   12.4230 C   0  0  0  0  0  0  0  0  0  0  0  0
   22.6410   81.4990   11.9620 O   0  0  0  0  0  0  0  0  0  0  0  0
   22.7040   80.1190   13.8070 N   0  0  0  0  0  0  0  0  0  0  0  0
   21.9580   79.0630   14.4540 C   0  0  2  0  0  0  0  0  0  0  0  0
   22.8610   78.5420   15.5540 C   0  0  0  0  0  0  0  0  0  0  0  0
   24.0500   79.4370   15.5320 C   0  0  0  0  0  0  0  0  0  0  0  0
   23.5150   80.7130   14.8650 C   0  0  0  0  0  0  0  0  0  0  0  0
   21.4850   78.0420   13.5260 C   0  0  0  0  0  0  0  0  0  0  0  0
   21.2390   76.8580   13.9490 O   0  0  0  0  0  0  0  0  0  0  0  0
   17.2030   77.6480    6.1920 H   0  0  0  0  0  0  0  0  0  0  0  0
   20.2140   75.5460    8.3120 H   0  0  0  0  0  0  0  0  0  0  0  0
   19.2510   73.4400    7.7060 H   0  0  0  0  0  0  0  0  0  0  0  0
   17.1920   73.4000    6.2820 H   0  0  0  0  0  0  0  0  0  0  0  0
   21.3010   78.1090    7.8980 H   0  0  0  0  0  0  0  0  0  0  0  0
   21.9530   77.5010    9.9150 H   0  0  0  0  0  0  0  0  0  0  0  0
   19.4100   78.4650   11.1250 H   0  0  0  0  0  0  0  0  0  0  0  0
   20.1000   76.8160   11.1950 H   0  0  0  0  0  0  0  0  0  0  0  0
   23.2000   78.7090   11.3290 H   0  0  0  0  0  0  0  0  0  0  0  0
   22.3250   79.8950    9.4290 H   0  0  0  0  0  0  0  0  0  0  0  0
   20.7430   80.2210   10.2780 H   0  0  0  0  0  0  0  0  0  0  0  0
   21.0640   79.4880   15.0060 H   0  0  0  0  0  0  0  0  0  0  0  0
   23.1450   77.4680   15.3270 H   0  0  0  0  0  0  0  0  0  0  0  0
   22.4000   78.5920   16.5570 H   0  0  0  0  0  0  0  0  0  0  0  0
   24.8320   78.9670   14.8890 H   0  0  0  0  0  0  0  0  0  0  0  0
   24.4740   79.6570   16.5340 H   0  0  0  0  0  0  0  0  0  0  0  0
   22.9360   81.2780   15.5910 H   0  0  0  0  0  0  0  0  0  0  0  0
   24.3710   81.2830   14.5210 H   0  0  0  0  0  0  0  0  0  0  0  0
  1  2  1  0  0  0  0
  2  3  2  0  0  0  0
  2  7  1  0  0  0  0
  3  4  1  0  0  0  0
  4  8  1  0  0  0  0
  4  5  2  0  0  0  0
  5 26  1  0  0  0  0
  6 27  1  0  0  0  0
  6  5  1  0  0  0  0
  7  6  2  0  0  0  0
  8 10  1  0  0  0  0
  9  8  2  0  0  0  0
 10 11  1  0  0  0  0
 11 30  1  6  0  0  0
 11 15  1  0  0  0  0
 11 12  1  0  0  0  0
 12 32  1  0  0  0  0
 12 13  1  0  0  0  0
 13 23  1  0  0  0  0
 14 33  1  6  0  0  0
 14 13  1  0  0  0  0
 14 16  1  0  0  0  0
 15 35  1  0  0  0  0
 15 14  1  0  0  0  0
 16 18  1  0  0  0  0
 17 16  2  0  0  0  0
 18 19  1  0  0  0  0
 18 22  1  0  0  0  0
 19 36  1  1  0  0  0
 19 20  1  0  0  0  0
 20 38  1  0  0  0  0
 21 20  1  0  0  0  0
 21 40  1  0  0  0  0
 22 21  1  0  0  0  0
 22 41  1  0  0  0  0
 23 24  2  0  0  0  0
 23 19  1  0  0  0  0
 25  3  1  0  0  0  0
 28  7  1  0  0  0  0
 29 10  1  0  0  0  0
 31 12  1  0  0  0  0
 34 15  1  0  0  0  0
 37 20  1  0  0  0  0
 39 21  1  0  0  0  0
 42 22  1  0  0  0  0
M  END
>  <Pose>
1

>  <Score>
-6.11

$$$$
