
 OpenBabel03222202113D

 35 38  0  0  1  0  0  0  0  0999 V2000
   16.8210   70.9680   12.1720 B   0  0  0  0  0  0  0  0  0  0  0  0
   17.7320   72.6140   11.8850 C   0  0  0  0  0  0  0  0  0  0  0  0
   18.4080   73.1850   12.9350 C   0  0  0  0  0  0  0  0  0  0  0  0
   19.0930   74.3860   12.7760 C   0  0  0  0  0  0  0  0  0  0  0  0
   19.0740   74.9800   11.5520 C   0  0  0  0  0  0  0  0  0  0  0  0
   18.3940   74.4030   10.5020 C   0  0  0  0  0  0  0  0  0  0  0  0
   17.7110   73.2190   10.6340 C   0  0  0  0  0  0  0  0  0  0  0  0
   19.7880   74.9530   13.9150 C   0  0  0  0  0  0  0  0  0  0  0  0
   20.2680   74.1620   14.7460 O   0  0  0  0  0  0  0  0  0  0  0  0
   19.9180   76.3430   14.0750 N   0  0  0  0  0  0  0  0  0  0  0  0
   20.9200   76.9920   14.8240 N   0  0  0  0  0  0  0  0  0  0  0  0
   20.8420   77.0640   16.2610 C   0  0  0  0  0  0  0  0  0  0  0  0
   19.9370   76.5940   17.0200 O   0  0  0  0  0  0  0  0  0  0  0  0
   22.0030   77.7860   16.7450 C   0  0  1  0  0  0  0  0  0  0  0  0
   23.0410   77.7470   15.6060 C   0  0  2  0  0  0  0  0  0  0  0  0
   23.6800   79.0980   15.5910 C   0  0  2  0  0  0  0  0  0  0  0  0
   23.3220   79.6350   16.9910 C   0  0  0  0  0  0  0  0  0  0  0  0
   21.8250   79.2950   16.8300 C   0  0  1  0  0  0  0  0  0  0  0  0
   21.5990   79.8740   15.4740 C   0  0  0  0  0  0  0  0  0  0  0  0
   22.7580   80.0040   14.8140 C   0  0  0  0  0  0  0  0  0  0  0  0
   22.0900   77.6540   14.4300 C   0  0  0  0  0  0  0  0  0  0  0  0
   22.3400   78.1090   13.2910 O   0  0  0  0  0  0  0  0  0  0  0  0
   18.4090   72.6900   13.9040 H   0  0  0  0  0  0  0  0  0  0  0  0
   19.5810   75.9020   11.3760 H   0  0  0  0  0  0  0  0  0  0  0  0
   18.3700   74.8710    9.5100 H   0  0  0  0  0  0  0  0  0  0  0  0
   17.1690   72.7290    9.8570 H   0  0  0  0  0  0  0  0  0  0  0  0
   19.1800   76.9300   13.5710 H   0  0  0  0  0  0  0  0  0  0  0  0
   22.4160   77.4380   17.6940 H   0  0  0  0  0  0  0  0  0  0  0  0
   23.7080   76.8940   15.6630 H   0  0  0  0  0  0  0  0  0  0  0  0
   24.7070   79.1550   15.3360 H   0  0  0  0  0  0  0  0  0  0  0  0
   23.4640   80.7210   17.0490 H   0  0  0  0  0  0  0  0  0  0  0  0
   23.7870   79.0660   17.7940 H   0  0  0  0  0  0  0  0  0  0  0  0
   21.2150   79.6570   17.6220 H   0  0  0  0  0  0  0  0  0  0  0  0
   20.6370   80.1650   15.0430 H   0  0  0  0  0  0  0  0  0  0  0  0
   23.0560   80.5590   13.9660 H   0  0  0  0  0  0  0  0  0  0  0  0
  2  1  1  0  0  0  0
  2  3  1  0  0  0  0
  3 23  1  0  0  0  0
  4  3  2  0  0  0  0
  4  8  1  0  0  0  0
  5  4  1  0  0  0  0
  6  7  1  0  0  0  0
  6  5  2  0  0  0  0
  7  2  2  0  0  0  0
  8 10  1  0  0  0  0
  8  9  2  0  0  0  0
 10 11  1  0  0  0  0
 11 12  1  0  0  0  0
 12 14  1  0  0  0  0
 12 13  2  0  0  0  0
 14 18  1  0  0  0  0
 14 28  1  1  0  0  0
 15 29  1  1  0  0  0
 15 14  1  0  0  0  0
 16 30  1  6  0  0  0
 16 15  1  0  0  0  0
 16 17  1  0  0  0  0
 17 31  1  0  0  0  0
 17 32  1  0  0  0  0
 18 17  1  0  0  0  0
 18 33  1  1  0  0  0
 19 18  1  0  0  0  0
 20 19  1  0  0  0  0
 20 16  1  0  0  0  0
 21 11  1  0  0  0  0
 21 15  1  0  0  0  0
 22 21  2  0  0  0  0
 24  5  1  0  0  0  0
 25  6  1  0  0  0  0
 26  7  1  0  0  0  0
 27 10  1  0  0  0  0
 34 19  1  0  0  0  0
 35 20  1  0  0  0  0
M  END
>  <Pose>
1

>  <Score>
-5.66

$$$$
