
 OpenBabel03222202113D

 44 47  0  0  0  0  0  0  0  0999 V2000
   23.6580   77.8260   14.8730 B   0  0  0  0  0  0  0  0  0  0  0  0
   21.9190   77.4150   15.5450 C   0  0  0  0  0  0  0  0  0  0  0  0
   21.0560   76.6840   14.7180 C   0  0  0  0  0  0  0  0  0  0  0  0
   19.7670   76.3210   15.1370 C   0  0  0  0  0  0  0  0  0  0  0  0
   19.3850   76.7220   16.3850 C   0  0  0  0  0  0  0  0  0  0  0  0
   20.2350   77.4600   17.2380 C   0  0  0  0  0  0  0  0  0  0  0  0
   21.5330   77.8020   16.7760 C   0  0  0  0  0  0  0  0  0  0  0  0
   19.0510   75.2360   14.4130 C   0  0  0  0  0  0  0  0  0  0  0  0
   18.9970   75.2460   13.0770 C   0  0  0  0  0  0  0  0  0  0  0  0
   19.5280   76.1660   12.2720 O   0  0  0  0  0  0  0  0  0  0  0  0
   19.2910   75.8180   10.9180 C   0  0  0  0  0  0  0  0  0  0  0  0
   18.6010   74.6570   10.8310 C   0  0  0  0  0  0  0  0  0  0  0  0
   18.3520   74.1370    9.5630 C   0  0  0  0  0  0  0  0  0  0  0  0
   18.7740   74.7960    8.4510 C   0  0  0  0  0  0  0  0  0  0  0  0
   19.4480   75.9940    8.5730 C   0  0  0  0  0  0  0  0  0  0  0  0
   19.7340   76.5630    9.7910 C   0  0  0  0  0  0  0  0  0  0  0  0
   19.9910   77.9580   10.0880 C   0  0  0  0  0  0  0  0  0  0  0  0
   20.8670   78.7630   10.7210 N   0  0  0  0  0  4  0  0  0  0  0  0
   22.2560   78.7900   10.5690 C   0  0  0  0  0  0  0  0  0  0  0  0
   22.7560   79.8560    9.5690 C   0  0  0  0  0  0  0  0  0  0  0  0
   22.5220   81.1460    9.9840 O   0  0  0  0  0  0  0  0  0  0  0  0
   21.2680   81.2190   10.6000 C   0  0  0  0  0  0  0  0  0  0  0  0
   20.3820   80.1530   10.2190 C   0  0  0  0  0  0  0  0  0  0  0  0
   19.8510   76.6390    7.4010 O   0  0  0  0  0  0  0  0  0  0  0  0
   18.3630   74.2280   12.2290 C   0  0  0  0  0  0  0  0  0  0  0  0
   17.7460   73.2130   12.6040 O   0  0  0  0  0  0  0  0  0  0  0  0
   21.4300   76.3870   13.7930 H   0  0  0  0  0  0  0  0  0  0  0  0
   18.4350   76.4900   16.7880 H   0  0  0  0  0  0  0  0  0  0  0  0
   20.0030   77.7910   18.2240 H   0  0  0  0  0  0  0  0  0  0  0  0
   22.1970   78.3420   17.4110 H   0  0  0  0  0  0  0  0  0  0  0  0
   18.5470   74.4590   14.9420 H   0  0  0  0  0  0  0  0  0  0  0  0
   17.8200   73.2260    9.4780 H   0  0  0  0  0  0  0  0  0  0  0  0
   18.5880   74.3740    7.4380 H   0  0  0  0  0  0  0  0  0  0  0  0
   20.2990   78.2820    8.8540 H   0  0  0  0  0  0  0  0  0  0  0  0
   18.9290   78.5180    9.9120 H   0  0  0  0  0  0  0  0  0  0  0  0
   20.6250   78.7990   11.7820 H   0  0  0  0  0  0  0  0  0  0  0  0
   22.7240   77.8320   10.2870 H   0  0  0  0  0  0  0  0  0  0  0  0
   22.7710   79.1160   11.5680 H   0  0  0  0  0  0  0  0  0  0  0  0
   22.3610   79.6090    8.5630 H   0  0  0  0  0  0  0  0  0  0  0  0
   23.8810   79.7250    9.5710 H   0  0  0  0  0  0  0  0  0  0  0  0
   21.2870   81.3550   11.6850 H   0  0  0  0  0  0  0  0  0  0  0  0
   20.7810   82.1720   10.1910 H   0  0  0  0  0  0  0  0  0  0  0  0
   20.3170   79.9600    9.0890 H   0  0  0  0  0  0  0  0  0  0  0  0
   19.4040   80.2190   10.6080 H   0  0  0  0  0  0  0  0  0  0  0  0
  1  2  1  0  0  0  0
  2  7  1  0  0  0  0
  3  4  1  0  0  0  0
  3  2  2  0  0  0  0
  4  5  2  0  0  0  0
  5 28  1  0  0  0  0
  5  6  1  0  0  0  0
  6 29  1  0  0  0  0
  7  6  2  0  0  0  0
  7 30  1  0  0  0  0
  8 31  1  0  0  0  0
  8  4  1  0  0  0  0
  9  8  2  0  0  0  0
 10  9  1  0  0  0  0
 11 10  1  0  0  0  0
 12 11  1  0  0  0  0
 12 25  1  0  0  0  0
 13 12  2  0  0  0  0
 14 15  2  0  0  0  0
 14 13  1  0  0  0  0
 15 16  1  0  0  0  0
 16 17  1  0  0  0  0
 16 11  2  0  0  0  0
 17 18  1  0  0  0  0
 18 36  1  0  0  0  0
 19 18  1  0  0  0  0
 19 38  1  0  0  0  0
 20 40  1  0  0  0  0
 20 21  1  0  0  0  0
 20 19  1  0  0  0  0
 21 22  1  0  0  0  0
 22 41  1  0  0  0  0
 23 22  1  0  0  0  0
 23 44  1  0  0  0  0
 23 18  1  0  0  0  0
 24 15  1  0  0  0  0
 25 26  2  0  0  0  0
 25  9  1  0  0  0  0
 27  3  1  0  0  0  0
 32 13  1  0  0  0  0
 33 14  1  0  0  0  0
 34 17  1  0  0  0  0
 35 17  1  0  0  0  0
 37 19  1  0  0  0  0
 39 20  1  0  0  0  0
 42 22  1  0  0  0  0
 43 23  1  0  0  0  0
M  END
>  <Pose>
1

>  <Score>
-6.49

$$$$
