
 OpenBabel03222202113D

 52 55  0  0  0  0  0  0  0  0999 V2000
   16.1810   78.9120    6.4460 B   0  0  0  0  0  0  0  0  0  0  0  0
   17.6440   78.1190    7.3990 C   0  0  0  0  0  0  0  0  0  0  0  0
   18.4020   78.8500    8.3130 C   0  0  0  0  0  0  0  0  0  0  0  0
   19.4670   78.2410    8.9490 C   0  0  0  0  0  0  0  0  0  0  0  0
   19.7300   76.9160    8.6520 C   0  0  0  0  0  0  0  0  0  0  0  0
   18.9600   76.2380    7.7520 C   0  0  0  0  0  0  0  0  0  0  0  0
   17.9000   76.7900    7.0820 C   0  0  0  0  0  0  0  0  0  0  0  0
   20.4340   78.9250    9.8290 C   0  0  0  0  0  0  0  0  0  0  0  0
   20.1520   79.2650   11.0560 N   0  0  0  0  0  0  0  0  0  0  0  0
   20.9200   79.8880   11.9210 N   0  0  0  0  0  0  0  0  0  0  0  0
   22.1030   80.1830   12.5350 C   0  0  0  0  0  0  0  0  0  0  0  0
   23.1430   80.6550   12.0250 O   0  0  0  0  0  0  0  0  0  0  0  0
   22.1350   79.9160   14.0320 C   0  0  0  0  0  0  0  0  0  0  0  0
   22.3550   80.6960   15.0350 N   0  0  0  0  0  0  0  0  0  0  0  0
   22.0780   80.0640   16.1710 N   0  0  0  0  0  0  0  0  0  0  0  0
   21.6470   78.8100   15.8770 N   0  0  0  0  0  0  0  0  0  0  0  0
   21.6880   78.6570   14.5950 C   0  0  0  0  0  0  0  0  0  0  0  0
   21.4290   77.5650   13.6620 C   0  0  0  0  0  0  0  0  0  0  0  0
   20.1520   77.1920   13.2530 N   0  0  0  0  0  0  0  0  0  0  0  0
   19.6260   76.5180   12.2180 C   0  0  0  0  0  0  0  0  0  0  0  0
   19.1190   75.1440   12.7340 C   0  0  0  0  0  0  0  0  0  0  0  0
   19.8670   74.8290   13.8980 N   0  0  0  0  0  0  0  0  0  0  0  0
   19.4980   75.6750   14.9920 C   0  0  0  0  0  0  0  0  0  0  0  0
   19.2360   77.0770   14.4260 C   0  0  0  0  0  0  0  0  0  0  0  0
   20.1460   73.4900   14.2030 C   0  0  0  0  0  0  0  0  0  0  0  0
   20.8590   78.1330   16.8960 C   0  0  0  0  0  0  0  0  0  0  0  0
   21.5200   76.9820   17.4630 N   0  0  0  0  0  0  0  0  0  0  0  0
   20.8040   76.4340   18.3260 O   0  0  0  0  0  0  0  0  0  0  0  0
   19.6850   77.0840   18.4260 N   0  0  0  0  0  0  0  0  0  0  0  0
   19.7350   78.1470   17.5250 C   0  0  0  0  0  0  0  0  0  0  0  0
   18.6380   79.0270   17.4330 N   0  0  0  0  0  0  0  0  0  0  0  0
   18.1640   79.8690    8.5070 H   0  0  0  0  0  0  0  0  0  0  0  0
   20.5660   76.4570    9.1690 H   0  0  0  0  0  0  0  0  0  0  0  0
   19.1670   75.1670    7.5280 H   0  0  0  0  0  0  0  0  0  0  0  0
   17.3290   76.2220    6.3760 H   0  0  0  0  0  0  0  0  0  0  0  0
   21.3800   79.2640    9.4670 H   0  0  0  0  0  0  0  0  0  0  0  0
   20.1440   80.6900   12.4230 H   0  0  0  0  0  0  0  0  0  0  0  0
   21.9760   78.0160   12.6460 H   0  0  0  0  0  0  0  0  0  0  0  0
   22.0620   76.6810   13.7820 H   0  0  0  0  0  0  0  0  0  0  0  0
   20.1480   76.3920   11.2910 H   0  0  0  0  0  0  0  0  0  0  0  0
   18.6450   77.0630   11.9000 H   0  0  0  0  0  0  0  0  0  0  0  0
   18.0710   75.2190   12.9600 H   0  0  0  0  0  0  0  0  0  0  0  0
   19.3450   74.4240   11.9420 H   0  0  0  0  0  0  0  0  0  0  0  0
   20.2910   75.7750   15.7950 H   0  0  0  0  0  0  0  0  0  0  0  0
   18.6030   75.2840   15.4860 H   0  0  0  0  0  0  0  0  0  0  0  0
   19.3840   77.8760   15.1060 H   0  0  0  0  0  0  0  0  0  0  0  0
   18.2390   77.1110   14.0280 H   0  0  0  0  0  0  0  0  0  0  0  0
   19.6780   72.8470   13.4020 H   0  0  0  0  0  0  0  0  0  0  0  0
   21.2690   73.3380   14.1290 H   0  0  0  0  0  0  0  0  0  0  0  0
   19.7800   73.1690   15.1790 H   0  0  0  0  0  0  0  0  0  0  0  0
   17.7320   78.5290   17.1200 H   0  0  0  0  0  0  0  0  0  0  0  0
   18.5450   80.0100   17.6020 H   0  0  0  0  0  0  0  0  0  0  0  0
  1  2  1  0  0  0  0
  2  3  1  0  0  0  0
  3 32  1  0  0  0  0
  3  4  2  0  0  0  0
  4  8  1  0  0  0  0
  5  4  1  0  0  0  0
  5 33  1  0  0  0  0
  6  5  2  0  0  0  0
  7  2  2  0  0  0  0
  7  6  1  0  0  0  0
  8  9  2  0  0  0  0
  9 10  1  0  0  0  0
 10 37  1  0  0  0  0
 10 11  1  0  0  0  0
 11 13  1  0  0  0  0
 12 11  2  0  0  0  0
 13 17  2  0  0  0  0
 13 14  1  0  0  0  0
 14 15  2  0  0  0  0
 16 15  1  0  0  0  0
 16 26  1  0  0  0  0
 17 16  1  0  0  0  0
 18 39  1  0  0  0  0
 18 17  1  0  0  0  0
 19 18  1  0  0  0  0
 19 24  1  0  0  0  0
 20 21  1  0  0  0  0
 20 19  1  0  0  0  0
 21 42  1  0  0  0  0
 21 22  1  0  0  0  0
 22 25  1  0  0  0  0
 22 23  1  0  0  0  0
 23 45  1  0  0  0  0
 23 44  1  0  0  0  0
 24 23  1  0  0  0  0
 24 46  1  0  0  0  0
 25 50  1  0  0  0  0
 26 27  2  0  0  0  0
 26 30  1  0  0  0  0
 27 28  1  0  0  0  0
 28 29  1  0  0  0  0
 30 29  2  0  0  0  0
 31 30  1  0  0  0  0
 31 52  1  0  0  0  0
 34  6  1  0  0  0  0
 35  7  1  0  0  0  0
 36  8  1  0  0  0  0
 38 18  1  0  0  0  0
 40 20  1  0  0  0  0
 41 20  1  0  0  0  0
 43 21  1  0  0  0  0
 47 24  1  0  0  0  0
 48 25  1  0  0  0  0
 49 25  1  0  0  0  0
 51 31  1  0  0  0  0
M  END
>  <Pose>
1

>  <Score>
-7.70

$$$$
