
 OpenBabel03222202113D

 62 66  0  0  1  0  0  0  0  0999 V2000
   19.1160   78.8590    9.1610 B   0  0  0  0  0  0  0  0  0  0  0  0
   20.5320   78.8760   10.4510 C   0  0  0  0  0  0  0  0  0  0  0  0
   20.4400   78.1440   11.6060 C   0  0  0  0  0  0  0  0  0  0  0  0
   21.4510   78.1210   12.5880 C   0  0  0  0  0  0  0  0  0  0  0  0
   22.5370   78.9060   12.2690 C   0  0  0  0  0  0  0  0  0  0  0  0
   22.6500   79.6510   11.1150 C   0  0  0  0  0  0  0  0  0  0  0  0
   21.6360   79.6400   10.1850 C   0  0  0  0  0  0  0  0  0  0  0  0
   21.2730   77.3150   13.7580 C   0  0  2  0  0  0  0  0  0  0  0  0
   20.2180   76.3660   13.8400 N   0  0  0  0  0  0  0  0  0  0  0  0
   20.3290   75.8560   15.2100 C   0  0  0  0  0  0  0  0  0  0  0  0
   19.9770   74.7330   15.6050 O   0  0  0  0  0  0  0  0  0  0  0  0
   20.9340   76.9380   16.0030 C   0  0  0  0  0  0  0  0  0  0  0  0
   21.2070   76.9420   17.2250 O   0  0  0  0  0  0  0  0  0  0  0  0
   21.1550   78.0330   15.0610 C   0  0  0  0  0  0  0  0  0  0  0  0
   21.1860   79.3110   15.3350 C   0  0  0  0  0  0  0  0  0  0  0  0
   21.3510   80.1970   14.2480 O   0  0  0  0  0  0  0  0  0  0  0  0
   21.0680   79.8370   16.6870 C   0  0  0  0  0  0  0  0  0  0  0  0
   20.0650   80.4640   17.3190 N   0  0  0  0  0  0  0  0  0  0  0  0
   20.4500   80.7970   18.5540 C   0  0  0  0  0  0  0  0  0  0  0  0
   21.7300   80.3670   18.7070 N   0  0  0  0  0  0  0  0  0  0  0  0
   22.1470   79.7700   17.5830 C   0  0  0  0  0  0  0  0  0  0  0  0
   23.4840   79.1610   17.3320 C   0  0  0  0  0  0  0  0  0  0  0  0
   19.5920   81.4490   19.4370 C   0  0  0  0  0  0  0  0  0  0  0  0
   18.3200   81.7380   18.9830 C   0  0  0  0  0  0  0  0  0  0  0  0
   17.9530   81.3780   17.6990 C   0  0  0  0  0  0  0  0  0  0  0  0
   18.8170   80.7360   16.8460 C   0  0  0  0  0  0  0  0  0  0  0  0
   20.0740   81.7960   20.7970 C   0  0  0  0  0  0  0  0  0  0  0  0
   19.2290   75.8570   12.9060 C   0  0  0  0  0  0  0  0  0  0  0  0
   18.7080   74.4950   13.2120 C   0  0  0  0  0  0  0  0  0  0  0  0
   18.6290   73.6440   12.0420 N   0  0  0  0  0  4  0  0  0  0  0  0
   19.8360   72.8670   11.8700 C   0  0  0  0  0  0  0  0  0  0  0  0
   19.8900   71.7610   12.9280 C   0  0  0  0  0  0  0  0  0  0  0  0
   18.8230   70.9040   12.6370 O   0  0  0  0  0  0  0  0  0  0  0  0
   17.6580   71.6180   12.9840 C   0  0  0  0  0  0  0  0  0  0  0  0
   17.4480   72.8040   12.0730 C   0  0  0  0  0  0  0  0  0  0  0  0
   19.5310   77.5530   11.7580 H   0  0  0  0  0  0  0  0  0  0  0  0
   23.3530   78.9370   12.9430 H   0  0  0  0  0  0  0  0  0  0  0  0
   23.5180   80.2550   10.9010 H   0  0  0  0  0  0  0  0  0  0  0  0
   21.6720   80.2020    9.2680 H   0  0  0  0  0  0  0  0  0  0  0  0
   22.2260   76.6970   13.9000 H   0  0  0  0  0  0  0  0  0  0  0  0
   24.1360   79.9340   16.8770 H   0  0  0  0  0  0  0  0  0  0  0  0
   23.3480   78.3460   16.6110 H   0  0  0  0  0  0  0  0  0  0  0  0
   23.9190   78.7930   18.2950 H   0  0  0  0  0  0  0  0  0  0  0  0
   17.6220   82.2500   19.6540 H   0  0  0  0  0  0  0  0  0  0  0  0
   16.9600   81.6000   17.3360 H   0  0  0  0  0  0  0  0  0  0  0  0
   18.5450   80.4500   15.8440 H   0  0  0  0  0  0  0  0  0  0  0  0
   19.3150   82.4240   21.3070 H   0  0  0  0  0  0  0  0  0  0  0  0
   21.0310   82.3730   20.7120 H   0  0  0  0  0  0  0  0  0  0  0  0
   20.2500   80.9220   21.4300 H   0  0  0  0  0  0  0  0  0  0  0  0
   18.3630   76.5580   12.9330 H   0  0  0  0  0  0  0  0  0  0  0  0
   19.6190   75.9380   11.8580 H   0  0  0  0  0  0  0  0  0  0  0  0
   19.4880   74.0280   13.8960 H   0  0  0  0  0  0  0  0  0  0  0  0
   17.7770   74.4080   13.7430 H   0  0  0  0  0  0  0  0  0  0  0  0
   18.5410   74.2490   11.1880 H   0  0  0  0  0  0  0  0  0  0  0  0
   20.6850   73.5390   12.0940 H   0  0  0  0  0  0  0  0  0  0  0  0
   19.9600   72.4830   10.8570 H   0  0  0  0  0  0  0  0  0  0  0  0
   20.8640   71.2630   12.9170 H   0  0  0  0  0  0  0  0  0  0  0  0
   19.6610   72.2190   13.9040 H   0  0  0  0  0  0  0  0  0  0  0  0
   17.8460   72.0290   14.0050 H   0  0  0  0  0  0  0  0  0  0  0  0
   16.7690   70.9870   12.9680 H   0  0  0  0  0  0  0  0  0  0  0  0
   16.6320   73.4100   12.5210 H   0  0  0  0  0  0  0  0  0  0  0  0
   17.1130   72.5150   11.0580 H   0  0  0  0  0  0  0  0  0  0  0  0
  1  2  1  0  0  0  0
  2  3  1  0  0  0  0
  3 36  1  0  0  0  0
  3  4  2  0  0  0  0
  4  8  1  0  0  0  0
  5  4  1  0  0  0  0
  5 37  1  0  0  0  0
  6  5  2  0  0  0  0
  7  2  2  0  0  0  0
  7  6  1  0  0  0  0
  8  9  1  0  0  0  0
  8 40  1  1  0  0  0
  8 14  1  0  0  0  0
  9 10  1  0  0  0  0
 10 11  2  0  0  0  0
 10 12  1  0  0  0  0
 12 13  2  0  0  0  0
 14 15  2  0  0  0  0
 14 12  1  0  0  0  0
 15 17  1  0  0  0  0
 16 15  1  0  0  0  0
 17 18  1  0  0  0  0
 17 21  2  0  0  0  0
 18 19  1  0  0  0  0
 19 20  2  0  0  0  0
 19 23  1  0  0  0  0
 21 20  1  0  0  0  0
 22 21  1  0  0  0  0
 22 43  1  0  0  0  0
 23 27  1  0  0  0  0
 24 23  2  0  0  0  0
 24 44  1  0  0  0  0
 25 24  1  0  0  0  0
 26 18  1  0  0  0  0
 26 25  2  0  0  0  0
 27 47  1  0  0  0  0
 27 49  1  0  0  0  0
 28 50  1  0  0  0  0
 28 29  1  0  0  0  0
 28  9  1  0  0  0  0
 29 53  1  0  0  0  0
 29 52  1  0  0  0  0
 30 35  1  0  0  0  0
 30 29  1  0  0  0  0
 31 30  1  0  0  0  0
 31 55  1  0  0  0  0
 31 32  1  0  0  0  0
 32 58  1  0  0  0  0
 33 32  1  0  0  0  0
 33 34  1  0  0  0  0
 34 59  1  0  0  0  0
 35 61  1  0  0  0  0
 35 34  1  0  0  0  0
 38  6  1  0  0  0  0
 39  7  1  0  0  0  0
 41 22  1  0  0  0  0
 42 22  1  0  0  0  0
 45 25  1  0  0  0  0
 46 26  1  0  0  0  0
 48 27  1  0  0  0  0
 51 28  1  0  0  0  0
 54 30  1  0  0  0  0
 56 31  1  0  0  0  0
 57 32  1  0  0  0  0
 60 34  1  0  0  0  0
 62 35  1  0  0  0  0
M  END
>  <Pose>
1

>  <Score>
-4.12

$$$$
