
 OpenBabel03222202113D

 38 41  0  0  1  0  0  0  0  0999 V2000
   25.5730   79.1710   16.4520 B   0  0  0  0  0  0  0  0  0  0  0  0
   23.8540   78.7980   15.7190 C   0  0  0  0  0  0  0  0  0  0  0  0
   23.3070   79.5840   14.7320 C   0  0  0  0  0  0  0  0  0  0  0  0
   22.0450   79.3360   14.1720 C   0  0  0  0  0  0  0  0  0  0  0  0
   21.3690   78.2540   14.6630 C   0  0  0  0  0  0  0  0  0  0  0  0
   21.9330   77.4620   15.6660 C   0  0  0  0  0  0  0  0  0  0  0  0
   23.1580   77.7250   16.1910 C   0  0  0  0  0  0  0  0  0  0  0  0
   21.5620   80.1920   13.1630 N   0  0  0  0  0  0  0  0  0  0  0  0
   21.9940   80.1990   11.8280 C   0  0  0  0  0  0  0  0  0  0  0  0
   23.1070   79.8330   11.4250 O   0  0  0  0  0  0  0  0  0  0  0  0
   21.0560   80.6870   10.7580 C   0  0  2  0  0  0  0  0  0  0  0  0
   19.7220   79.9870   10.7500 C   0  0  0  0  0  0  0  0  0  0  0  0
   20.1810   79.0620    9.7030 N   0  0  1  0  0  0  0  0  0  0  0  0
   21.2330   80.0230    9.4240 C   0  0  0  0  0  0  0  0  0  0  0  0
   19.7260   77.7970    9.2400 C   0  0  1  0  0  0  0  0  0  0  0  0
   20.1410   76.6310    9.7980 N   0  0  0  0  0  0  0  0  0  0  0  0
   19.6870   75.4290    9.3350 C   0  0  0  0  0  0  0  0  0  0  0  0
   18.8220   75.3610    8.3180 N   0  0  0  0  0  0  0  0  0  0  0  0
   18.3730   76.4670    7.7230 C   0  0  0  0  0  0  0  0  0  0  0  0
   17.5170   76.6620    6.7000 N   0  0  0  0  0  0  0  0  0  0  0  0
   17.4360   77.9630    6.5260 N   0  0  0  0  0  0  0  0  0  0  0  0
   18.2140   78.6020    7.4070 N   0  0  0  0  0  0  0  0  0  0  0  0
   18.8330   77.6800    8.1930 C   0  0  0  0  0  0  0  0  0  0  0  0
   16.8040   75.6550    5.9180 C   0  0  0  0  0  0  0  0  0  0  0  0
   23.8800   80.4310   14.3730 H   0  0  0  0  0  0  0  0  0  0  0  0
   20.3790   77.9880   14.2840 H   0  0  0  0  0  0  0  0  0  0  0  0
   21.3450   76.6060   16.0230 H   0  0  0  0  0  0  0  0  0  0  0  0
   23.5760   77.0920   16.9730 H   0  0  0  0  0  0  0  0  0  0  0  0
   20.7940   80.8980   13.4640 H   0  0  0  0  0  0  0  0  0  0  0  0
   20.9280   81.7830   10.7540 H   0  0  0  0  0  0  0  0  0  0  0  0
   19.4870   79.3830   11.6510 H   0  0  0  0  0  0  0  0  0  0  0  0
   18.8770   80.5690   10.3700 H   0  0  0  0  0  0  0  0  0  0  0  0
   22.2440   79.5790    9.3030 H   0  0  0  0  0  0  0  0  0  0  0  0
   20.9550   80.6380    8.5560 H   0  0  0  0  0  0  0  0  0  0  0  0
   20.0600   74.5450    9.8280 H   0  0  0  0  0  0  0  0  0  0  0  0
   15.8460   76.0430    5.5360 H   0  0  0  0  0  0  0  0  0  0  0  0
   16.5300   74.7730    6.5690 H   0  0  0  0  0  0  0  0  0  0  0  0
   17.4080   75.2520    5.1040 H   0  0  0  0  0  0  0  0  0  0  0  0
  2  7  1  0  0  0  0
  2  1  1  0  0  0  0
  3  2  2  0  0  0  0
  4  5  2  0  0  0  0
  4  3  1  0  0  0  0
  5  6  1  0  0  0  0
  6 27  1  0  0  0  0
  6  7  2  0  0  0  0
  7 28  1  0  0  0  0
  8 29  1  0  0  0  0
  8  4  1  0  0  0  0
  9  8  1  0  0  0  0
 10  9  2  0  0  0  0
 11 30  1  6  0  0  0
 11  9  1  0  0  0  0
 12 11  1  0  0  0  0
 12 31  1  0  0  0  0
 13 14  1  1  0  0  0
 13 12  1  0  0  0  0
 14 11  1  0  0  0  0
 15 23  1  1  0  0  0
 15 13  1  0  0  0  0
 15 16  1  0  0  0  0
 17 16  2  0  0  0  0
 17 35  1  0  0  0  0
 18 17  1  0  0  0  0
 19 23  2  0  0  0  0
 19 18  1  0  0  0  0
 20 19  1  0  0  0  0
 21 20  1  0  0  0  0
 21 22  2  0  0  0  0
 22 23  1  0  0  0  0
 24 37  1  0  0  0  0
 24 20  1  0  0  0  0
 25  3  1  0  0  0  0
 26  5  1  0  0  0  0
 32 12  1  0  0  0  0
 33 14  1  0  0  0  0
 34 14  1  0  0  0  0
 36 24  1  0  0  0  0
 38 24  1  0  0  0  0
M  END
>  <Pose>
1

>  <Score>
-7.27

$$$$
