
 OpenBabel03222202113D

 25 28  0  0  1  0  0  0  0  0999 V2000
   17.6370   71.6410   12.3260 B   0  0  0  0  0  0  0  0  0  0  0  0
   18.2900   73.4310   12.3920 C   0  0  0  0  0  0  0  0  0  0  0  0
   18.5550   74.0660   13.5940 C   0  0  0  0  0  0  0  0  0  0  0  0
   19.0240   75.3450   13.7200 C   0  0  0  0  0  0  0  0  0  0  0  0
   19.2320   76.0070   12.4910 C   0  0  0  0  0  0  0  0  0  0  0  0
   18.9800   75.4090   11.2810 C   0  0  0  0  0  0  0  0  0  0  0  0
   18.5080   74.1170   11.2250 C   0  0  0  0  0  0  0  0  0  0  0  0
   19.3070   76.0280   14.9210 N   0  0  0  0  0  0  0  0  0  0  0  0
   20.5410   76.6490   15.2230 C   0  0  1  0  0  0  0  0  0  0  0  0
   21.4610   77.0690   14.3620 N   0  0  0  0  0  0  0  0  0  0  0  0
   22.6230   77.6560   14.6930 C   0  0  0  0  0  0  0  0  0  0  0  0
   23.6850   78.1530   14.0350 N   0  0  0  0  0  0  0  0  0  0  0  0
   24.5700   78.6240   14.8570 O   0  0  0  0  0  0  0  0  0  0  0  0
   24.1220   78.4510   16.0490 N   0  0  0  0  0  0  0  0  0  0  0  0
   22.9180   77.8560   16.0350 C   0  0  0  0  0  0  0  0  0  0  0  0
   22.0190   77.4490   16.9430 N   0  0  0  0  0  0  0  0  0  0  0  0
   22.0720   77.5290   18.2700 N   0  0  0  0  0  0  0  0  0  0  0  0
   20.9380   76.9900   18.7440 N   0  0  0  0  0  0  0  0  0  0  0  0
   20.2070   76.5860   17.7040 N   0  0  0  0  0  0  0  0  0  0  0  0
   20.8670   76.8650   16.5770 C   0  0  0  0  0  0  0  0  0  0  0  0
   18.3670   73.4810   14.4670 H   0  0  0  0  0  0  0  0  0  0  0  0
   19.5990   77.0160   12.4990 H   0  0  0  0  0  0  0  0  0  0  0  0
   19.1450   75.9340   10.3430 H   0  0  0  0  0  0  0  0  0  0  0  0
   18.3090   73.6430   10.2790 H   0  0  0  0  0  0  0  0  0  0  0  0
   18.5180   76.0600   15.6290 H   0  0  0  0  0  0  0  0  0  0  0  0
  1  2  1  0  0  0  0
  2  3  1  0  0  0  0
  3  4  2  0  0  0  0
  3 21  1  0  0  0  0
  4  8  1  0  0  0  0
  5 22  1  0  0  0  0
  5  4  1  0  0  0  0
  6  5  2  0  0  0  0
  7  6  1  0  0  0  0
  7  2  2  0  0  0  0
  8 25  1  0  0  0  0
  9  8  1  6  0  0  0
  9 20  1  0  0  0  0
 10 11  2  0  0  0  0
 10  9  1  0  0  0  0
 11 15  1  0  0  0  0
 12 11  1  0  0  0  0
 12 13  1  0  0  0  0
 13 14  1  0  0  0  0
 15 14  2  0  0  0  0
 15 16  1  0  0  0  0
 16 17  1  0  0  0  0
 17 18  2  0  0  0  0
 19 18  1  0  0  0  0
 20 16  1  0  0  0  0
 20 19  2  0  0  0  0
 23  6  1  0  0  0  0
 24  7  1  0  0  0  0
M  END
>  <Pose>
1

>  <Score>
-5.93

$$$$
