
 OpenBabel03222202113D

 33 36  0  0  1  0  0  0  0  0999 V2000
   26.4600   79.2500   16.7730 B   0  0  0  0  0  0  0  0  0  0  0  0
   24.8770   78.4150   16.1080 C   0  0  0  0  0  0  0  0  0  0  0  0
   23.6570   78.8950   16.4650 C   0  0  0  0  0  0  0  0  0  0  0  0
   22.4480   78.3660   16.0410 C   0  0  0  0  0  0  0  0  0  0  0  0
   22.5220   77.2790   15.2010 C   0  0  0  0  0  0  0  0  0  0  0  0
   23.7600   76.7600   14.8150 C   0  0  0  0  0  0  0  0  0  0  0  0
   24.9360   77.3230   15.2650 C   0  0  0  0  0  0  0  0  0  0  0  0
   21.1800   78.9230   16.4580 N   0  0  0  0  0  0  0  0  0  0  0  0
   20.0210   78.1970   16.8430 C   0  0  0  0  0  0  0  0  0  0  0  0
   19.7410   77.0050   16.4510 O   0  0  0  0  0  0  0  0  0  0  0  0
   19.2150   79.0290   17.7480 C   0  0  1  0  0  0  0  0  0  0  0  0
   19.6060   78.7070   19.1580 C   0  0  1  0  0  0  0  0  0  0  0  0
   20.9020   79.2830   19.1830 O   0  0  0  0  0  0  0  0  0  0  0  0
   20.4840   80.6130   18.9120 C   0  0  1  0  0  0  0  0  0  0  0  0
   19.7860   80.4090   17.5800 C   0  0  1  0  0  0  0  0  0  0  0  0
   20.8490   80.2970   16.5610 C   0  0  0  0  0  0  0  0  0  0  0  0
   21.3540   81.2530   15.9170 O   0  0  0  0  0  0  0  0  0  0  0  0
   19.4970   80.7960   20.0000 C   0  0  0  0  0  0  0  0  0  0  0  0
   18.9510   79.5770   20.1720 C   0  0  0  0  0  0  0  0  0  0  0  0
   19.5980   77.2670   19.5070 C   0  0  0  0  0  0  0  0  0  0  0  0
   20.9180   76.8330   19.6450 O   0  0  0  0  0  0  0  0  0  0  0  0
   23.6120   79.7610   17.1350 H   0  0  0  0  0  0  0  0  0  0  0  0
   21.6300   76.8110   14.8280 H   0  0  0  0  0  0  0  0  0  0  0  0
   23.8510   75.9090   14.1570 H   0  0  0  0  0  0  0  0  0  0  0  0
   25.9130   76.9650   15.0000 H   0  0  0  0  0  0  0  0  0  0  0  0
   18.1260   78.9750   17.5660 H   0  0  0  0  0  0  0  0  0  0  0  0
   21.2960   81.3170   18.8930 H   0  0  0  0  0  0  0  0  0  0  0  0
   19.0370   81.1810   17.3570 H   0  0  0  0  0  0  0  0  0  0  0  0
   19.2430   81.6890   20.5560 H   0  0  0  0  0  0  0  0  0  0  0  0
   18.1940   79.3230   20.9090 H   0  0  0  0  0  0  0  0  0  0  0  0
   19.1070   77.0590   20.4790 H   0  0  0  0  0  0  0  0  0  0  0  0
   19.1100   76.6540   18.7450 H   0  0  0  0  0  0  0  0  0  0  0  0
   20.9500   75.8460   19.7030 H   0  0  0  0  0  0  0  0  0  0  0  0
  2  3  1  0  0  0  0
  2  1  1  0  0  0  0
  3 22  1  0  0  0  0
  4  8  1  0  0  0  0
  4  3  2  0  0  0  0
  5  4  1  0  0  0  0
  6  5  2  0  0  0  0
  6  7  1  0  0  0  0
  7  2  2  0  0  0  0
  8 16  1  0  0  0  0
  8  9  1  0  0  0  0
  9 11  1  0  0  0  0
 10  9  2  0  0  0  0
 11 26  1  6  0  0  0
 11 12  1  0  0  0  0
 12 13  1  0  0  0  0
 12 20  1  1  0  0  0
 12 19  1  0  0  0  0
 14 27  1  6  0  0  0
 14 13  1  0  0  0  0
 14 18  1  0  0  0  0
 15 28  1  6  0  0  0
 15 11  1  0  0  0  0
 15 14  1  0  0  0  0
 16 15  1  0  0  0  0
 17 16  2  0  0  0  0
 18 19  2  0  0  0  0
 18 29  1  0  0  0  0
 19 30  1  0  0  0  0
 20 21  1  0  0  0  0
 20 31  1  0  0  0  0
 21 33  1  0  0  0  0
 23  5  1  0  0  0  0
 24  6  1  0  0  0  0
 25  7  1  0  0  0  0
 32 20  1  0  0  0  0
M  END
>  <Pose>
1

>  <Score>
-5.42

$$$$
