
 OpenBabel03222202113D

 37 40  0  0  1  0  0  0  0  0999 V2000
   22.2910   80.3700   11.8000 B   0  0  0  0  0  0  0  0  0  0  0  0
   22.7250   79.6990   13.5270 C   0  0  0  0  0  0  0  0  0  0  0  0
   21.8360   79.8610   14.5940 C   0  0  0  0  0  0  0  0  0  0  0  0
   22.1310   79.3830   15.8510 C   0  0  0  0  0  0  0  0  0  0  0  0
   23.3320   78.7400   16.0200 C   0  0  0  0  0  0  0  0  0  0  0  0
   24.2260   78.5750   14.9520 C   0  0  0  0  0  0  0  0  0  0  0  0
   23.9290   79.0550   13.6950 C   0  0  0  0  0  0  0  0  0  0  0  0
   21.2120   79.5540   16.9110 N   0  0  0  0  0  0  0  0  0  0  0  0
   20.6390   78.5020   17.7170 C   0  0  0  0  0  0  0  0  0  0  0  0
   21.0950   77.3740   17.9360 O   0  0  0  0  0  0  0  0  0  0  0  0
   19.3510   79.0120   18.2710 C   0  0  1  0  0  0  0  0  0  0  0  0
   19.0670   78.5720   19.5510 O   0  0  0  0  0  0  0  0  0  0  0  0
   18.3510   79.6320   20.0540 N   0  0  0  0  0  0  0  0  0  0  0  0
   19.0930   80.7930   19.6410 C   0  0  0  0  0  0  0  0  0  0  0  0
   19.7260   80.4540   18.5440 C   0  0  0  0  0  0  0  0  0  0  0  0
   20.6350   80.7710   17.4350 C   0  0  0  0  0  0  0  0  0  0  0  0
   20.8380   81.9280   17.0500 O   0  0  0  0  0  0  0  0  0  0  0  0
   19.1690   82.0820   20.2740 C   0  0  0  0  0  0  0  0  0  0  0  0
   18.7430   82.2990   21.5830 C   0  0  0  0  0  0  0  0  0  0  0  0
   18.9450   83.5880   21.9130 N   0  0  0  0  0  0  0  0  0  0  0  0
   19.4790   84.1530   20.8440 N   0  0  0  0  0  0  0  0  0  0  0  0
   19.6360   83.2990   19.8340 C   0  0  0  0  0  0  0  0  0  0  0  0
   20.2110   83.5670   18.4730 C   0  0  0  0  0  0  0  0  0  0  0  0
   18.6300   84.2230   23.2030 C   0  0  0  0  0  0  0  0  0  0  0  0
   20.9180   80.3690   14.4140 H   0  0  0  0  0  0  0  0  0  0  0  0
   23.5870   78.3580   16.9850 H   0  0  0  0  0  0  0  0  0  0  0  0
   25.1720   78.0600   15.1190 H   0  0  0  0  0  0  0  0  0  0  0  0
   24.6360   78.9170   12.8760 H   0  0  0  0  0  0  0  0  0  0  0  0
   18.5260   78.9300   17.5530 H   0  0  0  0  0  0  0  0  0  0  0  0
   17.4840   79.6280   20.6020 H   0  0  0  0  0  0  0  0  0  0  0  0
   18.3120   81.5550   22.2480 H   0  0  0  0  0  0  0  0  0  0  0  0
   19.5120   84.1120   17.8360 H   0  0  0  0  0  0  0  0  0  0  0  0
   20.6070   82.6450   18.0510 H   0  0  0  0  0  0  0  0  0  0  0  0
   21.0780   84.2530   18.6590 H   0  0  0  0  0  0  0  0  0  0  0  0
   19.5720   84.0890   23.8080 H   0  0  0  0  0  0  0  0  0  0  0  0
   17.7810   83.7260   23.6810 H   0  0  0  0  0  0  0  0  0  0  0  0
   18.5220   85.2900   23.0300 H   0  0  0  0  0  0  0  0  0  0  0  0
  1  2  1  0  0  0  0
  2  7  2  0  0  0  0
  2  3  1  0  0  0  0
  3  4  2  0  0  0  0
  4  5  1  0  0  0  0
  4  8  1  0  0  0  0
  5 26  1  0  0  0  0
  6 27  1  0  0  0  0
  6  5  2  0  0  0  0
  7  6  1  0  0  0  0
  8 16  1  0  0  0  0
  8  9  1  0  0  0  0
  9 10  2  0  0  0  0
  9 11  1  0  0  0  0
 11 29  1  6  0  0  0
 11 15  1  0  0  0  0
 11 12  1  0  0  0  0
 12 13  1  0  0  0  0
 13 30  1  0  0  0  0
 14 13  1  0  0  0  0
 14 18  1  0  0  0  0
 15 14  2  0  0  0  0
 16 15  1  0  0  0  0
 17 16  2  0  0  0  0
 18 19  2  0  0  0  0
 19 20  1  0  0  0  0
 19 31  1  0  0  0  0
 20 24  1  0  0  0  0
 21 20  1  0  0  0  0
 22 18  1  0  0  0  0
 22 21  2  0  0  0  0
 23 34  1  0  0  0  0
 23 22  1  0  0  0  0
 24 36  1  0  0  0  0
 24 35  1  0  0  0  0
 25  3  1  0  0  0  0
 28  7  1  0  0  0  0
 32 23  1  0  0  0  0
 33 23  1  0  0  0  0
 37 24  1  0  0  0  0
M  END
>  <Pose>
1

>  <Score>
-6.06

$$$$
