
 OpenBabel03222202113D

 52 55  0  0  1  0  0  0  0  0999 V2000
   19.5570   83.3540   20.3740 B   0  0  0  0  0  0  0  0  0  0  0  0
   19.5990   81.7190   19.4300 C   0  0  0  0  0  0  0  0  0  0  0  0
   20.5070   81.5570   18.3900 C   0  0  0  0  0  0  0  0  0  0  0  0
   20.5970   80.3900   17.6540 C   0  0  0  0  0  0  0  0  0  0  0  0
   19.7260   79.3860   18.0150 C   0  0  0  0  0  0  0  0  0  0  0  0
   18.8020   79.4770   19.0350 C   0  0  0  0  0  0  0  0  0  0  0  0
   18.7470   80.6590   19.7410 C   0  0  0  0  0  0  0  0  0  0  0  0
   21.5480   80.2860   16.6140 N   0  0  0  0  0  0  0  0  0  0  0  0
   21.7200   79.1180   15.7620 C   0  0  0  0  0  0  0  0  0  0  0  0
   21.7590   79.8750   14.4180 C   0  0  1  0  0  0  0  0  0  0  0  0
   22.9470   80.7860   14.7490 C   0  0  0  0  0  0  0  0  0  0  0  0
   22.5230   81.1950   16.1170 C   0  0  0  0  0  0  0  0  0  0  0  0
   22.9600   82.1910   16.7390 O   0  0  0  0  0  0  0  0  0  0  0  0
   21.9880   78.9900   13.2930 C   0  0  0  0  0  0  0  0  0  0  0  0
   22.3430   77.8080   13.5290 O   0  0  0  0  0  0  0  0  0  0  0  0
   21.8090   79.4650   11.9770 N   0  0  0  0  0  0  0  0  0  0  0  0
   20.7990   80.4480   11.6110 C   0  0  0  0  0  0  0  0  0  0  0  0
   20.4060   80.2300   10.1550 C   0  0  0  0  0  0  0  0  0  0  0  0
   20.5870   78.8580    9.7240 N   0  0  0  0  0  0  0  0  0  0  0  0
   21.9760   78.5600    9.6820 C   0  0  0  0  0  0  0  0  0  0  0  0
   22.6940   78.9270   10.9360 C   0  0  0  0  0  0  0  0  0  0  0  0
   19.7480   77.9530   10.4250 C   0  0  0  0  0  0  0  0  0  0  0  0
   19.7450   76.5550    9.8620 C   0  0  0  0  0  0  0  0  0  0  0  0
   19.2060   76.4590    8.5360 N   0  0  0  0  0  0  0  0  0  0  0  0
   18.8570   77.4450    7.7070 C   0  0  0  0  0  0  0  0  0  0  0  0
   18.3860   76.9210    6.5550 N   0  0  0  0  0  0  0  0  0  0  0  0
   18.4360   75.5870    6.6520 C   0  0  0  0  0  0  0  0  0  0  0  0
   18.9510   75.3090    7.8970 C   0  0  0  0  0  0  0  0  0  0  0  0
   21.1740   82.3630   18.1350 H   0  0  0  0  0  0  0  0  0  0  0  0
   19.7650   78.4600   17.4630 H   0  0  0  0  0  0  0  0  0  0  0  0
   18.1250   78.6790   19.3060 H   0  0  0  0  0  0  0  0  0  0  0  0
   18.0380   80.7850   20.5550 H   0  0  0  0  0  0  0  0  0  0  0  0
   20.8520   78.4360   15.7940 H   0  0  0  0  0  0  0  0  0  0  0  0
   22.6850   78.6450   15.9740 H   0  0  0  0  0  0  0  0  0  0  0  0
   20.8430   80.4700   14.4050 H   0  0  0  0  0  0  0  0  0  0  0  0
   23.8820   80.1990   14.7430 H   0  0  0  0  0  0  0  0  0  0  0  0
   22.9910   81.6420   14.0550 H   0  0  0  0  0  0  0  0  0  0  0  0
   21.2580   81.4460   11.7560 H   0  0  0  0  0  0  0  0  0  0  0  0
   19.8860   80.4050   12.2010 H   0  0  0  0  0  0  0  0  0  0  0  0
   21.0360   80.8740    9.5410 H   0  0  0  0  0  0  0  0  0  0  0  0
   19.3510   80.5230    9.9650 H   0  0  0  0  0  0  0  0  0  0  0  0
   22.1320   77.4800    9.4430 H   0  0  0  0  0  0  0  0  0  0  0  0
   22.4010   79.1430    8.8180 H   0  0  0  0  0  0  0  0  0  0  0  0
   23.2440   78.0390   11.3180 H   0  0  0  0  0  0  0  0  0  0  0  0
   23.4570   79.7250   10.6940 H   0  0  0  0  0  0  0  0  0  0  0  0
   20.0350   77.8440   11.5010 H   0  0  0  0  0  0  0  0  0  0  0  0
   18.6810   78.3260   10.4340 H   0  0  0  0  0  0  0  0  0  0  0  0
   20.7760   76.1190    9.9300 H   0  0  0  0  0  0  0  0  0  0  0  0
   19.1400   75.9310   10.5840 H   0  0  0  0  0  0  0  0  0  0  0  0
   18.9250   78.5010    7.8830 H   0  0  0  0  0  0  0  0  0  0  0  0
   18.1190   74.8830    5.8740 H   0  0  0  0  0  0  0  0  0  0  0  0
   19.1030   74.2860    8.2480 H   0  0  0  0  0  0  0  0  0  0  0  0
  2  7  1  0  0  0  0
  2  1  1  0  0  0  0
  3  2  2  0  0  0  0
  4  5  2  0  0  0  0
  4  3  1  0  0  0  0
  5  6  1  0  0  0  0
  6 31  1  0  0  0  0
  6  7  2  0  0  0  0
  7 32  1  0  0  0  0
  8  4  1  0  0  0  0
  9 33  1  0  0  0  0
  9 34  1  0  0  0  0
  9  8  1  0  0  0  0
 10 35  1  6  0  0  0
 10 11  1  0  0  0  0
 10  9  1  0  0  0  0
 11 12  1  0  0  0  0
 12  8  1  0  0  0  0
 12 13  2  0  0  0  0
 14 15  2  0  0  0  0
 14 10  1  0  0  0  0
 16 14  1  0  0  0  0
 17 38  1  0  0  0  0
 17 16  1  0  0  0  0
 17 39  1  0  0  0  0
 18 17  1  0  0  0  0
 19 18  1  0  0  0  0
 19 22  1  0  0  0  0
 20 19  1  0  0  0  0
 20 21  1  0  0  0  0
 21 44  1  0  0  0  0
 21 16  1  0  0  0  0
 22 47  1  0  0  0  0
 22 46  1  0  0  0  0
 23 48  1  0  0  0  0
 23 22  1  0  0  0  0
 23 49  1  0  0  0  0
 24 23  1  0  0  0  0
 25 50  1  0  0  0  0
 25 24  1  0  0  0  0
 26 27  1  0  0  0  0
 26 25  2  0  0  0  0
 27 28  2  0  0  0  0
 28 52  1  0  0  0  0
 28 24  1  0  0  0  0
 29  3  1  0  0  0  0
 30  5  1  0  0  0  0
 36 11  1  0  0  0  0
 37 11  1  0  0  0  0
 40 18  1  0  0  0  0
 41 18  1  0  0  0  0
 42 20  1  0  0  0  0
 43 20  1  0  0  0  0
 45 21  1  0  0  0  0
 51 27  1  0  0  0  0
M  END
>  <Pose>
1

>  <Score>
-6.42

$$$$
