
 OpenBabel03222202113D

 45 48  0  0  1  0  0  0  0  0999 V2000
   20.2230   77.2680   19.5650 B   0  0  0  0  0  0  0  0  0  0  0  0
   20.5350   78.8840   18.5960 C   0  0  0  0  0  0  0  0  0  0  0  0
   21.4950   78.9740   17.6260 C   0  0  0  0  0  0  0  0  0  0  0  0
   21.7460   80.1510   16.8970 C   0  0  0  0  0  0  0  0  0  0  0  0
   20.9250   81.2430   17.2430 C   0  0  0  0  0  0  0  0  0  0  0  0
   19.9600   81.1560   18.2160 C   0  0  0  0  0  0  0  0  0  0  0  0
   19.7620   79.9720   18.8980 C   0  0  0  0  0  0  0  0  0  0  0  0
   22.6610   80.1700   16.0000 O   0  0  0  0  0  0  0  0  0  0  0  0
   23.5180   80.1600   15.0310 C   0  0  0  0  0  0  0  0  0  0  0  0
   23.0560   81.0250   13.8480 C   0  0  0  0  0  0  0  0  0  0  0  0
   22.9080   80.2240   12.6710 N   0  0  0  0  0  0  0  0  0  0  0  0
   22.0050   80.5560   11.6230 C   0  0  0  0  0  0  0  0  0  0  0  0
   22.5300   81.1790   10.6350 O   0  0  0  0  0  0  0  0  0  0  0  0
   20.5630   80.2380   11.6140 C   0  0  0  0  0  0  0  0  0  0  0  0
   20.1190   79.4910   10.4690 N   0  0  0  0  0  0  0  0  0  0  0  0
   18.7590   79.5410   10.0050 C   0  0  0  0  0  0  0  0  0  0  0  0
   17.7470   79.9450   10.6310 O   0  0  0  0  0  0  0  0  0  0  0  0
   18.7390   79.0260    8.6360 C   0  0  1  0  0  0  0  0  0  0  0  0
   20.1910   78.6550    8.2750 C   0  0  2  0  0  0  0  0  0  0  0  0
   20.1420   77.2730    7.7270 C   0  0  2  0  0  0  0  0  0  0  0  0
   18.7140   77.2450    7.1420 C   0  0  0  0  0  0  0  0  0  0  0  0
   18.0710   77.6880    8.4720 C   0  0  1  0  0  0  0  0  0  0  0  0
   18.7520   76.7090    9.3860 C   0  0  0  0  0  0  0  0  0  0  0  0
   19.9210   76.3490    8.8670 C   0  0  0  0  0  0  0  0  0  0  0  0
   20.8630   78.6250    9.6000 C   0  0  0  0  0  0  0  0  0  0  0  0
   21.8750   77.9820    9.9280 O   0  0  0  0  0  0  0  0  0  0  0  0
   22.1140   78.1060   17.3830 H   0  0  0  0  0  0  0  0  0  0  0  0
   21.1070   82.1460   16.6940 H   0  0  0  0  0  0  0  0  0  0  0  0
   19.3370   81.9970   18.4730 H   0  0  0  0  0  0  0  0  0  0  0  0
   19.0010   79.9190   19.6580 H   0  0  0  0  0  0  0  0  0  0  0  0
   24.5040   80.6490   15.3550 H   0  0  0  0  0  0  0  0  0  0  0  0
   23.8370   79.1490   14.6140 H   0  0  0  0  0  0  0  0  0  0  0  0
   22.1470   81.5920   14.1130 H   0  0  0  0  0  0  0  0  0  0  0  0
   23.8760   81.7960   13.7420 H   0  0  0  0  0  0  0  0  0  0  0  0
   23.4820   79.3610   12.5720 H   0  0  0  0  0  0  0  0  0  0  0  0
   20.0270   81.2350   11.5940 H   0  0  0  0  0  0  0  0  0  0  0  0
   20.2570   79.7320   12.5790 H   0  0  0  0  0  0  0  0  0  0  0  0
   18.3260   79.7450    7.8890 H   0  0  0  0  0  0  0  0  0  0  0  0
   20.6320   79.4070    7.5990 H   0  0  0  0  0  0  0  0  0  0  0  0
   20.8950   76.9880    7.0290 H   0  0  0  0  0  0  0  0  0  0  0  0
   18.5790   77.9820    6.3530 H   0  0  0  0  0  0  0  0  0  0  0  0
   18.4060   76.2220    6.8920 H   0  0  0  0  0  0  0  0  0  0  0  0
   17.0080   77.6670    8.4710 H   0  0  0  0  0  0  0  0  0  0  0  0
   18.3910   76.3230   10.3320 H   0  0  0  0  0  0  0  0  0  0  0  0
   20.6240   75.5770    9.1370 H   0  0  0  0  0  0  0  0  0  0  0  0
  2  7  1  0  0  0  0
  2  1  1  0  0  0  0
  3  2  2  0  0  0  0
  4  5  2  0  0  0  0
  4  3  1  0  0  0  0
  5  6  1  0  0  0  0
  6 29  1  0  0  0  0
  6  7  2  0  0  0  0
  7 30  1  0  0  0  0
  8  4  1  0  0  0  0
  9 31  1  0  0  0  0
  9  8  1  0  0  0  0
 10 33  1  0  0  0  0
 10  9  1  0  0  0  0
 11 10  1  0  0  0  0
 12 11  1  0  0  0  0
 13 12  2  0  0  0  0
 14 12  1  0  0  0  0
 14 37  1  0  0  0  0
 15 14  1  0  0  0  0
 16 15  1  0  0  0  0
 16 17  2  0  0  0  0
 18 38  1  6  0  0  0
 18 16  1  0  0  0  0
 19 39  1  6  0  0  0
 19 18  1  0  0  0  0
 19 25  1  0  0  0  0
 20 40  1  6  0  0  0
 20 19  1  0  0  0  0
 20 24  1  0  0  0  0
 21 20  1  0  0  0  0
 21 22  1  0  0  0  0
 22 43  1  1  0  0  0
 22 18  1  0  0  0  0
 22 23  1  0  0  0  0
 23 44  1  0  0  0  0
 24 45  1  0  0  0  0
 24 23  2  0  0  0  0
 25 26  2  0  0  0  0
 25 15  1  0  0  0  0
 27  3  1  0  0  0  0
 28  5  1  0  0  0  0
 32  9  1  0  0  0  0
 34 10  1  0  0  0  0
 35 11  1  0  0  0  0
 36 14  1  0  0  0  0
 41 21  1  0  0  0  0
 42 21  1  0  0  0  0
M  END
>  <Pose>
1

>  <Score>
-5.98

$$$$
