
 OpenBabel03222202113D

 58 61  0  0  1  0  0  0  0  0999 V2000
   17.1900   71.0720   11.6560 B   0  0  0  0  0  0  0  0  0  0  0  0
   17.9910   72.5360   12.5600 C   0  0  0  0  0  0  0  0  0  0  0  0
   19.1890   72.3410   13.2060 C   0  0  0  0  0  0  0  0  0  0  0  0
   19.7780   73.3900   13.8630 C   0  0  0  0  0  0  0  0  0  0  0  0
   19.1950   74.6620   13.8960 C   0  0  0  0  0  0  0  0  0  0  0  0
   17.9950   74.7900   13.2270 C   0  0  0  0  0  0  0  0  0  0  0  0
   17.3700   73.7560   12.5550 C   0  0  0  0  0  0  0  0  0  0  0  0
   19.8430   75.7580   14.5930 C   0  0  0  0  0  0  0  0  0  0  0  0
   19.4930   76.0150   15.7630 O   0  0  0  0  0  0  0  0  0  0  0  0
   20.8760   76.5320   13.9290 C   0  0  2  0  0  0  0  0  0  0  0  0
   21.8990   77.1580   14.8460 C   0  0  1  0  0  0  0  0  0  0  0  0
   22.5530   78.1030   13.9700 N   0  0  0  0  0  0  0  0  0  0  0  0
   21.5520   78.5810   13.0780 C   0  0  0  0  0  0  0  0  0  0  0  0
   21.6910   79.5310   12.2460 O   0  0  0  0  0  0  0  0  0  0  0  0
   20.3290   77.7840   13.2880 C   0  0  0  0  0  0  0  0  0  0  0  0
   19.1640   78.0970   12.9970 O   0  0  0  0  0  0  0  0  0  0  0  0
   23.9290   78.5330   13.9350 C   0  0  0  0  0  0  0  0  0  0  0  0
   24.3700   79.2340   15.1840 C   0  0  0  0  0  0  0  0  0  0  0  0
   24.8120   78.3950   16.2300 N   0  0  0  0  0  4  0  0  0  0  0  0
   25.5840   79.2110   17.1720 C   0  0  0  0  0  0  0  0  0  0  0  0
   26.9000   79.6400   16.6140 C   0  0  0  0  0  0  0  0  0  0  0  0
   27.2940   78.9670   15.4840 O   0  0  0  0  0  0  0  0  0  0  0  0
   27.0610   77.6190   15.6000 C   0  0  0  0  0  0  0  0  0  0  0  0
   25.6180   77.2850   15.8630 C   0  0  0  0  0  0  0  0  0  0  0  0
   21.3450   77.7450   16.0560 C   0  0  0  0  0  0  0  0  0  0  0  0
   21.1940   79.1300   16.2100 C   0  0  0  0  0  0  0  0  0  0  0  0
   20.6640   79.6790   17.3590 C   0  0  0  0  0  0  0  0  0  0  0  0
   20.2570   78.8780   18.4100 C   0  0  0  0  0  0  0  0  0  0  0  0
   20.3960   77.5120   18.2800 C   0  0  0  0  0  0  0  0  0  0  0  0
   20.9310   76.9760   17.1190 C   0  0  0  0  0  0  0  0  0  0  0  0
   19.7200   79.4040   19.5780 O   0  0  0  0  0  0  0  0  0  0  0  0
   20.5120   81.0450   17.5170 O   0  0  0  0  0  0  0  0  0  0  0  0
   20.0840   81.6480   18.7110 C   0  0  0  0  0  0  0  0  0  0  0  0
   19.6320   71.3640   13.1800 H   0  0  0  0  0  0  0  0  0  0  0  0
   20.7170   73.2920   14.3870 H   0  0  0  0  0  0  0  0  0  0  0  0
   17.4820   75.7410   13.2010 H   0  0  0  0  0  0  0  0  0  0  0  0
   16.4400   73.8740   12.0410 H   0  0  0  0  0  0  0  0  0  0  0  0
   21.3990   75.9880   13.1140 H   0  0  0  0  0  0  0  0  0  0  0  0
   22.5780   76.3320   15.1500 H   0  0  0  0  0  0  0  0  0  0  0  0
   24.0000   79.2840   13.1020 H   0  0  0  0  0  0  0  0  0  0  0  0
   24.6400   77.7400   13.7050 H   0  0  0  0  0  0  0  0  0  0  0  0
   23.5460   79.8890   15.5920 H   0  0  0  0  0  0  0  0  0  0  0  0
   25.1760   79.9410   14.8990 H   0  0  0  0  0  0  0  0  0  0  0  0
   23.9970   78.0330   16.7990 H   0  0  0  0  0  0  0  0  0  0  0  0
   24.9810   80.0450   17.5780 H   0  0  0  0  0  0  0  0  0  0  0  0
   25.8000   78.5320   18.0420 H   0  0  0  0  0  0  0  0  0  0  0  0
   26.8250   80.7230   16.3440 H   0  0  0  0  0  0  0  0  0  0  0  0
   27.7340   79.5220   17.3660 H   0  0  0  0  0  0  0  0  0  0  0  0
   27.4430   77.1080   14.6680 H   0  0  0  0  0  0  0  0  0  0  0  0
   27.7430   77.2380   16.4090 H   0  0  0  0  0  0  0  0  0  0  0  0
   25.2470   76.6950   15.0050 H   0  0  0  0  0  0  0  0  0  0  0  0
   25.6150   76.5660   16.7360 H   0  0  0  0  0  0  0  0  0  0  0  0
   21.5140   79.7620   15.3830 H   0  0  0  0  0  0  0  0  0  0  0  0
   20.0750   76.8960   19.1090 H   0  0  0  0  0  0  0  0  0  0  0  0
   21.0150   75.9210   17.0660 H   0  0  0  0  0  0  0  0  0  0  0  0
   19.1590   81.1600   19.1180 H   0  0  0  0  0  0  0  0  0  0  0  0
   19.7840   82.6930   18.4820 H   0  0  0  0  0  0  0  0  0  0  0  0
   20.8460   81.6830   19.4980 H   0  0  0  0  0  0  0  0  0  0  0  0
  1  2  1  0  0  0  0
  2  3  1  0  0  0  0
  3  4  2  0  0  0  0
  4  5  1  0  0  0  0
  4 35  1  0  0  0  0
  5  8  1  0  0  0  0
  6  5  2  0  0  0  0
  7  2  2  0  0  0  0
  7  6  1  0  0  0  0
  8  9  2  0  0  0  0
 10 38  1  6  0  0  0
 10  8  1  0  0  0  0
 10 11  1  0  0  0  0
 11 39  1  1  0  0  0
 11 25  1  0  0  0  0
 12 11  1  0  0  0  0
 13 15  1  0  0  0  0
 13 12  1  0  0  0  0
 14 13  2  0  0  0  0
 15 10  1  0  0  0  0
 16 15  2  0  0  0  0
 17 12  1  0  0  0  0
 17 18  1  0  0  0  0
 18 42  1  0  0  0  0
 18 19  1  0  0  0  0
 19 44  1  0  0  0  0
 19 20  1  0  0  0  0
 20 45  1  0  0  0  0
 20 46  1  0  0  0  0
 21 20  1  0  0  0  0
 21 48  1  0  0  0  0
 22 23  1  0  0  0  0
 22 21  1  0  0  0  0
 23 24  1  0  0  0  0
 23 50  1  0  0  0  0
 24 19  1  0  0  0  0
 24 52  1  0  0  0  0
 25 26  2  0  0  0  0
 25 30  1  0  0  0  0
 26 27  1  0  0  0  0
 27 32  1  0  0  0  0
 27 28  2  0  0  0  0
 28 31  1  0  0  0  0
 29 28  1  0  0  0  0
 29 54  1  0  0  0  0
 30 29  2  0  0  0  0
 32 33  1  0  0  0  0
 33 56  1  0  0  0  0
 33 58  1  0  0  0  0
 34  3  1  0  0  0  0
 36  6  1  0  0  0  0
 37  7  1  0  0  0  0
 40 17  1  0  0  0  0
 41 17  1  0  0  0  0
 43 18  1  0  0  0  0
 47 21  1  0  0  0  0
 49 23  1  0  0  0  0
 51 24  1  0  0  0  0
 53 26  1  0  0  0  0
 55 30  1  0  0  0  0
 57 33  1  0  0  0  0
M  END
>  <Pose>
1

>  <Score>
-4.45

$$$$
