
 OpenBabel03222202113D

 48 51  0  0  1  0  0  0  0  0999 V2000
   17.4340   71.3020   12.3690 B   0  0  0  0  0  0  0  0  0  0  0  0
   18.3900   72.8150   13.0070 C   0  0  0  0  0  0  0  0  0  0  0  0
   19.6730   72.7420   13.5100 C   0  0  0  0  0  0  0  0  0  0  0  0
   20.3400   73.8610   13.9660 C   0  0  0  0  0  0  0  0  0  0  0  0
   19.7590   75.1120   13.9450 C   0  0  0  0  0  0  0  0  0  0  0  0
   18.4800   75.1840   13.4440 C   0  0  0  0  0  0  0  0  0  0  0  0
   17.8070   74.0760   12.9870 C   0  0  0  0  0  0  0  0  0  0  0  0
   20.4700   76.3030   14.4320 C   0  0  0  0  0  0  0  0  0  0  0  0
   21.5240   76.6220   13.7850 O   0  0  0  0  0  0  0  0  0  0  0  0
   20.0470   77.0590   15.5280 N   0  0  0  0  0  0  0  0  0  0  0  0
   20.3830   76.6670   16.8720 C   0  0  2  0  0  0  0  0  0  0  0  0
   19.3930   77.1840   17.8880 C   0  0  0  0  0  0  0  0  0  0  0  0
   19.9610   78.4380   18.3340 N   0  0  0  0  0  0  0  0  0  0  0  0
   21.3760   78.4860   18.0050 C   0  0  1  0  0  0  0  0  0  0  0  0
   21.7160   77.2720   17.2140 C   0  0  0  0  0  0  0  0  0  0  0  0
   21.5800   79.7520   17.2630 C   0  0  0  0  0  0  0  0  0  0  0  0
   22.2160   79.7360   16.1860 O   0  0  0  0  0  0  0  0  0  0  0  0
   21.0400   80.9410   17.8110 N   0  0  0  0  0  0  0  0  0  0  0  0
   19.9990   80.9620   18.8130 C   0  0  1  0  0  0  0  0  0  0  0  0
   19.4540   79.5870   18.9990 C   0  0  0  0  0  0  0  0  0  0  0  0
   18.4670   79.3990   19.7970 O   0  0  0  0  0  0  0  0  0  0  0  0
   20.4960   81.5640   20.1050 C   0  0  0  0  0  0  0  0  0  0  0  0
   19.7850   82.8350   20.4220 C   0  0  0  0  0  0  0  0  0  0  0  0
   19.8270   83.9110   19.5330 C   0  0  0  0  0  0  0  0  0  0  0  0
   19.1510   85.0600   19.8770 C   0  0  0  0  0  0  0  0  0  0  0  0
   18.4380   85.1930   21.0560 C   0  0  0  0  0  0  0  0  0  0  0  0
   18.4260   84.1060   21.8990 C   0  0  0  0  0  0  0  0  0  0  0  0
   19.0830   82.9310   21.6090 C   0  0  0  0  0  0  0  0  0  0  0  0
   20.1260   71.7470   13.5240 H   0  0  0  0  0  0  0  0  0  0  0  0
   21.3260   73.7230   14.3390 H   0  0  0  0  0  0  0  0  0  0  0  0
   17.9860   76.1390   13.4070 H   0  0  0  0  0  0  0  0  0  0  0  0
   16.7870   74.1420   12.5890 H   0  0  0  0  0  0  0  0  0  0  0  0
   19.4840   77.9150   15.3900 H   0  0  0  0  0  0  0  0  0  0  0  0
   20.3700   75.5720   16.9390 H   0  0  0  0  0  0  0  0  0  0  0  0
   18.4280   77.2930   17.3840 H   0  0  0  0  0  0  0  0  0  0  0  0
   19.2630   76.5260   18.7560 H   0  0  0  0  0  0  0  0  0  0  0  0
   21.9610   78.4780   18.9480 H   0  0  0  0  0  0  0  0  0  0  0  0
   22.3350   77.4980   16.3360 H   0  0  0  0  0  0  0  0  0  0  0  0
   22.2690   76.5470   17.8430 H   0  0  0  0  0  0  0  0  0  0  0  0
   21.4410   81.8440   17.4440 H   0  0  0  0  0  0  0  0  0  0  0  0
   19.1620   81.5660   18.4060 H   0  0  0  0  0  0  0  0  0  0  0  0
   21.5850   81.7460   20.0730 H   0  0  0  0  0  0  0  0  0  0  0  0
   20.2400   80.8450   20.9080 H   0  0  0  0  0  0  0  0  0  0  0  0
   20.3870   83.7930   18.6190 H   0  0  0  0  0  0  0  0  0  0  0  0
   19.1720   85.9170   19.1890 H   0  0  0  0  0  0  0  0  0  0  0  0
   17.9250   86.1210   21.2740 H   0  0  0  0  0  0  0  0  0  0  0  0
   17.8650   84.1970   22.8360 H   0  0  0  0  0  0  0  0  0  0  0  0
   19.0680   82.0840   22.2770 H   0  0  0  0  0  0  0  0  0  0  0  0
  1  2  1  0  0  0  0
  2  3  1  0  0  0  0
  3 29  1  0  0  0  0
  3  4  2  0  0  0  0
  4 30  1  0  0  0  0
  5  4  1  0  0  0  0
  5  8  1  0  0  0  0
  6  5  2  0  0  0  0
  7  2  2  0  0  0  0
  7  6  1  0  0  0  0
  8 10  1  0  0  0  0
  9  8  2  0  0  0  0
 10 11  1  0  0  0  0
 11 34  1  1  0  0  0
 11 15  1  0  0  0  0
 11 12  1  0  0  0  0
 12 13  1  0  0  0  0
 12 36  1  0  0  0  0
 13 20  1  0  0  0  0
 14 13  1  0  0  0  0
 14 37  1  1  0  0  0
 15 39  1  0  0  0  0
 15 14  1  0  0  0  0
 16 18  1  0  0  0  0
 16 14  1  0  0  0  0
 17 16  2  0  0  0  0
 18 19  1  0  0  0  0
 19 41  1  6  0  0  0
 19 20  1  0  0  0  0
 19 22  1  0  0  0  0
 20 21  2  0  0  0  0
 22 23  1  0  0  0  0
 22 43  1  0  0  0  0
 23 28  1  0  0  0  0
 24 25  1  0  0  0  0
 24 23  2  0  0  0  0
 25 26  2  0  0  0  0
 26 46  1  0  0  0  0
 26 27  1  0  0  0  0
 27 47  1  0  0  0  0
 28 27  2  0  0  0  0
 28 48  1  0  0  0  0
 31  6  1  0  0  0  0
 32  7  1  0  0  0  0
 33 10  1  0  0  0  0
 35 12  1  0  0  0  0
 38 15  1  0  0  0  0
 40 18  1  0  0  0  0
 42 22  1  0  0  0  0
 44 24  1  0  0  0  0
 45 25  1  0  0  0  0
M  END
>  <Pose>
1

>  <Score>
-8.13

$$$$
