
 OpenBabel03222202113D

 42 45  0  0  1  0  0  0  0  0999 V2000
   19.3940   79.5820   18.7250 B   0  0  0  0  0  0  0  0  0  0  0  0
   20.5500   79.4160   17.2290 C   0  0  0  0  0  0  0  0  0  0  0  0
   21.1560   80.5430   16.7000 C   0  0  0  0  0  0  0  0  0  0  0  0
   22.0020   80.4780   15.6160 C   0  0  0  0  0  0  0  0  0  0  0  0
   22.2780   79.2700   15.0140 C   0  0  0  0  0  0  0  0  0  0  0  0
   21.6850   78.1570   15.5290 C   0  0  0  0  0  0  0  0  0  0  0  0
   20.8260   78.2040   16.6240 C   0  0  0  0  0  0  0  0  0  0  0  0
   23.1900   79.2370   13.8540 C   0  0  0  0  0  0  0  0  0  0  0  0
   24.4090   79.0490   14.0470 O   0  0  0  0  0  0  0  0  0  0  0  0
   22.7070   79.4140   12.5320 N   0  0  0  0  0  0  0  0  0  0  0  0
   22.2260   80.6910   12.1210 C   0  0  2  0  0  0  0  0  0  0  0  0
   20.7240   80.8260   12.2190 C   0  0  0  0  0  0  0  0  0  0  0  0
   20.2630   80.2450   10.9710 N   0  0  0  0  0  0  0  0  0  0  0  0
   21.3090   80.3710    9.9760 C   0  0  1  0  0  0  0  0  0  0  0  0
   22.5420   80.8640   10.6560 C   0  0  0  0  0  0  0  0  0  0  0  0
   21.4780   79.0270    9.3670 C   0  0  0  0  0  0  0  0  0  0  0  0
   22.5930   78.4910    9.1670 O   0  0  0  0  0  0  0  0  0  0  0  0
   20.3360   78.2860    8.9810 N   0  0  0  0  0  0  0  0  0  0  0  0
   19.0440   78.4630    9.6120 C   0  0  2  0  0  0  0  0  0  0  0  0
   18.1670   78.6450    8.4150 C   0  0  0  0  0  0  0  0  0  0  0  0
   18.7380   77.5930    7.4560 C   0  0  0  0  0  0  0  0  0  0  0  0
   20.1430   77.2760    7.9770 C   0  0  0  0  0  0  0  0  0  0  0  0
   19.0600   79.6150   10.5480 C   0  0  0  0  0  0  0  0  0  0  0  0
   17.9580   80.0760   11.0060 O   0  0  0  0  0  0  0  0  0  0  0  0
   20.9750   81.5120   17.1330 H   0  0  0  0  0  0  0  0  0  0  0  0
   22.4780   81.3770   15.2040 H   0  0  0  0  0  0  0  0  0  0  0  0
   21.8590   77.2010   15.1080 H   0  0  0  0  0  0  0  0  0  0  0  0
   20.3620   77.3120   17.0230 H   0  0  0  0  0  0  0  0  0  0  0  0
   22.6910   78.6300   11.8320 H   0  0  0  0  0  0  0  0  0  0  0  0
   22.7420   81.4790   12.7030 H   0  0  0  0  0  0  0  0  0  0  0  0
   20.4760   81.8950   12.2730 H   0  0  0  0  0  0  0  0  0  0  0  0
   20.3470   80.3270   13.1070 H   0  0  0  0  0  0  0  0  0  0  0  0
   21.0120   81.0630    9.1450 H   0  0  0  0  0  0  0  0  0  0  0  0
   23.4720   80.3840   10.3530 H   0  0  0  0  0  0  0  0  0  0  0  0
   22.6510   81.9720   10.4860 H   0  0  0  0  0  0  0  0  0  0  0  0
   18.7200   77.5540   10.1610 H   0  0  0  0  0  0  0  0  0  0  0  0
   17.1240   78.4260    8.6710 H   0  0  0  0  0  0  0  0  0  0  0  0
   18.2840   79.6740    7.9790 H   0  0  0  0  0  0  0  0  0  0  0  0
   18.7690   77.9830    6.4180 H   0  0  0  0  0  0  0  0  0  0  0  0
   18.1600   76.6600    7.4950 H   0  0  0  0  0  0  0  0  0  0  0  0
   20.1860   76.2540    8.3990 H   0  0  0  0  0  0  0  0  0  0  0  0
   20.8780   77.3320    7.1510 H   0  0  0  0  0  0  0  0  0  0  0  0
  2  1  1  0  0  0  0
  3 25  1  0  0  0  0
  3  2  1  0  0  0  0
  4  3  2  0  0  0  0
  5  6  2  0  0  0  0
  5  4  1  0  0  0  0
  6  7  1  0  0  0  0
  7 28  1  0  0  0  0
  7  2  2  0  0  0  0
  8  9  2  0  0  0  0
  8  5  1  0  0  0  0
 10  8  1  0  0  0  0
 11 12  1  0  0  0  0
 11 10  1  0  0  0  0
 11 30  1  1  0  0  0
 12 31  1  0  0  0  0
 12 32  1  0  0  0  0
 13 12  1  0  0  0  0
 14 33  1  6  0  0  0
 14 15  1  0  0  0  0
 14 13  1  0  0  0  0
 15 11  1  0  0  0  0
 16 14  1  0  0  0  0
 17 16  2  0  0  0  0
 18 16  1  0  0  0  0
 18 19  1  0  0  0  0
 19 36  1  1  0  0  0
 19 23  1  0  0  0  0
 20 37  1  0  0  0  0
 20 19  1  0  0  0  0
 21 40  1  0  0  0  0
 21 22  1  0  0  0  0
 21 20  1  0  0  0  0
 22 41  1  0  0  0  0
 22 18  1  0  0  0  0
 23 13  1  0  0  0  0
 23 24  2  0  0  0  0
 26  4  1  0  0  0  0
 27  6  1  0  0  0  0
 29 10  1  0  0  0  0
 34 15  1  0  0  0  0
 35 15  1  0  0  0  0
 38 20  1  0  0  0  0
 39 21  1  0  0  0  0
 42 22  1  0  0  0  0
M  END
>  <Pose>
1

>  <Score>
-5.95

$$$$
