
 OpenBabel03222202113D

 35 38  0  0  1  0  0  0  0  0999 V2000
   17.7600   77.7100    7.7250 B   0  0  0  0  0  0  0  0  0  0  0  0
   19.0430   78.4760    8.9180 C   0  0  0  0  0  0  0  0  0  0  0  0
   18.6340   79.3540    9.8790 C   0  0  0  0  0  0  0  0  0  0  0  0
   19.5460   79.9130   10.7510 C   0  0  0  0  0  0  0  0  0  0  0  0
   20.8990   79.5990   10.6720 C   0  0  0  0  0  0  0  0  0  0  0  0
   21.2930   78.7120    9.6970 C   0  0  0  0  0  0  0  0  0  0  0  0
   20.3960   78.1500    8.8260 C   0  0  0  0  0  0  0  0  0  0  0  0
   21.8120   80.2010   11.6140 C   0  0  0  0  0  0  0  0  0  0  0  0
   22.9460   80.5820   11.1760 O   0  0  0  0  0  0  0  0  0  0  0  0
   21.4500   80.3530   12.9690 N   0  0  0  0  0  0  0  0  0  0  0  0
   22.1920   79.7320   14.0070 N   0  0  0  0  0  0  0  0  0  0  0  0
   22.9270   80.3330   15.0670 C   0  0  0  0  0  0  0  0  0  0  0  0
   23.1330   81.5940   15.1050 O   0  0  0  0  0  0  0  0  0  0  0  0
   23.3740   79.3050   16.0430 C   0  0  2  0  0  0  0  0  0  0  0  0
   22.6800   78.0590   15.5250 C   0  0  1  0  0  0  0  0  0  0  0  0
   21.4810   78.0020   16.4470 C   0  0  1  0  0  0  0  0  0  0  0  0
   22.2500   78.1490   17.7770 C   0  0  0  0  0  0  0  0  0  0  0  0
   22.7790   79.5450   17.4010 C   0  0  2  0  0  0  0  0  0  0  0  0
   21.4470   80.2050   17.1570 C   0  0  0  0  0  0  0  0  0  0  0  0
   20.7570   79.3040   16.4690 C   0  0  0  0  0  0  0  0  0  0  0  0
   22.3010   78.3280   14.1270 C   0  0  0  0  0  0  0  0  0  0  0  0
   22.1190   77.4640   13.2420 O   0  0  0  0  0  0  0  0  0  0  0  0
   17.6050   79.6170    9.9690 H   0  0  0  0  0  0  0  0  0  0  0  0
   19.1770   80.6100   11.4950 H   0  0  0  0  0  0  0  0  0  0  0  0
   22.3560   78.4520    9.6190 H   0  0  0  0  0  0  0  0  0  0  0  0
   20.6850   77.4520    8.0500 H   0  0  0  0  0  0  0  0  0  0  0  0
   20.6240   80.9230   13.2240 H   0  0  0  0  0  0  0  0  0  0  0  0
   24.4760   79.2080   16.0610 H   0  0  0  0  0  0  0  0  0  0  0  0
   23.3120   77.1880   15.6700 H   0  0  0  0  0  0  0  0  0  0  0  0
   20.8880   77.1210   16.3920 H   0  0  0  0  0  0  0  0  0  0  0  0
   21.5540   78.1840   18.6220 H   0  0  0  0  0  0  0  0  0  0  0  0
   23.0410   77.4070   17.8470 H   0  0  0  0  0  0  0  0  0  0  0  0
   23.3880   79.9950   18.1430 H   0  0  0  0  0  0  0  0  0  0  0  0
   21.2120   81.1900   17.5070 H   0  0  0  0  0  0  0  0  0  0  0  0
   19.8080   79.5030   15.9990 H   0  0  0  0  0  0  0  0  0  0  0  0
  1  2  1  0  0  0  0
  2  3  1  0  0  0  0
  3 23  1  0  0  0  0
  3  4  2  0  0  0  0
  4 24  1  0  0  0  0
  5  4  1  0  0  0  0
  5  8  1  0  0  0  0
  6  5  2  0  0  0  0
  7  2  2  0  0  0  0
  7  6  1  0  0  0  0
  8 10  1  0  0  0  0
  9  8  2  0  0  0  0
 10 27  1  0  0  0  0
 10 11  1  0  0  0  0
 11 21  1  0  0  0  0
 11 12  1  0  0  0  0
 12 13  2  0  0  0  0
 12 14  1  0  0  0  0
 14 28  1  1  0  0  0
 14 18  1  0  0  0  0
 15 29  1  1  0  0  0
 15 14  1  0  0  0  0
 15 16  1  0  0  0  0
 16 30  1  6  0  0  0
 16 20  1  0  0  0  0
 16 17  1  0  0  0  0
 17 32  1  0  0  0  0
 17 31  1  0  0  0  0
 18 17  1  0  0  0  0
 18 33  1  1  0  0  0
 19 18  1  0  0  0  0
 19 34  1  0  0  0  0
 20 19  2  0  0  0  0
 21 15  1  0  0  0  0
 22 21  2  0  0  0  0
 25  6  1  0  0  0  0
 26  7  1  0  0  0  0
 35 20  1  0  0  0  0
M  END
>  <Pose>
1

>  <Score>
-5.80

$$$$
