
 OpenBabel03222202113D

 49 52  0  0  1  0  0  0  0  0999 V2000
   17.3440   78.4070    6.8710 B   0  0  0  0  0  0  0  0  0  0  0  0
   18.4310   78.3210    8.4330 C   0  0  0  0  0  0  0  0  0  0  0  0
   19.1550   77.2020    8.7870 C   0  0  0  0  0  0  0  0  0  0  0  0
   19.9360   77.1570    9.9220 C   0  0  0  0  0  0  0  0  0  0  0  0
   20.0270   78.2650   10.7750 C   0  0  0  0  0  0  0  0  0  0  0  0
   19.2980   79.3750   10.4060 C   0  0  0  0  0  0  0  0  0  0  0  0
   18.5070   79.4220    9.2600 C   0  0  0  0  0  0  0  0  0  0  0  0
   20.8830   78.1970   11.9460 C   0  0  0  0  0  0  0  0  0  0  0  0
   20.6490   77.3110   12.8800 C   0  0  0  0  0  0  0  0  0  0  0  0
   21.3990   77.0800   14.1560 C   0  0  2  0  0  0  0  0  0  0  0  0
   20.3000   76.7900   15.0690 N   0  0  0  0  0  0  0  0  0  0  0  0
   19.3980   75.9760   14.2940 C   0  0  0  0  0  0  0  0  0  0  0  0
   18.5980   75.1590   14.7780 O   0  0  0  0  0  0  0  0  0  0  0  0
   19.6080   76.2960   12.8740 C   0  0  0  0  0  0  0  0  0  0  0  0
   19.0230   75.8020   11.8740 O   0  0  0  0  0  0  0  0  0  0  0  0
   20.1700   77.2160   16.4330 C   0  0  0  0  0  0  0  0  0  0  0  0
   21.4730   77.0710   17.2040 C   0  0  0  0  0  0  0  0  0  0  0  0
   21.7890   78.4260   17.8350 C   0  0  0  0  0  0  0  0  0  0  0  0
   20.6740   78.9260   18.6150 N   0  0  0  0  0  0  0  0  0  0  0  0
   20.0170   78.2890   19.6120 C   0  0  0  0  0  0  0  0  0  0  0  0
   19.0470   79.0950   20.0780 N   0  0  0  0  0  0  0  0  0  0  0  0
   19.0590   80.2520   19.4000 C   0  0  0  0  0  0  0  0  0  0  0  0
   20.0870   80.1260   18.4870 C   0  0  0  0  0  0  0  0  0  0  0  0
   22.1690   78.2880   14.5400 C   0  0  0  0  0  0  0  0  0  0  0  0
   23.4960   78.1630   14.7040 N   0  0  0  0  0  0  0  0  0  0  0  0
   24.2920   79.1810   15.0380 C   0  0  0  0  0  0  0  0  0  0  0  0
   23.7190   80.4170   15.2230 C   0  0  0  0  0  0  0  0  0  0  0  0
   22.3640   80.5920   15.0650 C   0  0  0  0  0  0  0  0  0  0  0  0
   21.5900   79.5140   14.7210 C   0  0  0  0  0  0  0  0  0  0  0  0
   21.9750   79.0740   12.1060 O   0  0  0  0  0  0  0  0  0  0  0  0
   19.0830   76.3460    8.1250 H   0  0  0  0  0  0  0  0  0  0  0  0
   20.5050   76.2740   10.1980 H   0  0  0  0  0  0  0  0  0  0  0  0
   19.3500   80.2630   11.0220 H   0  0  0  0  0  0  0  0  0  0  0  0
   17.9480   80.3360    9.0180 H   0  0  0  0  0  0  0  0  0  0  0  0
   22.0840   76.2220   14.0640 H   0  0  0  0  0  0  0  0  0  0  0  0
   19.4600   76.5110   16.9420 H   0  0  0  0  0  0  0  0  0  0  0  0
   19.7990   78.2270   16.5860 H   0  0  0  0  0  0  0  0  0  0  0  0
   21.4060   76.3480   18.0240 H   0  0  0  0  0  0  0  0  0  0  0  0
   22.3100   76.8470   16.5210 H   0  0  0  0  0  0  0  0  0  0  0  0
   22.6890   78.2780   18.4750 H   0  0  0  0  0  0  0  0  0  0  0  0
   22.0940   79.1600   17.0390 H   0  0  0  0  0  0  0  0  0  0  0  0
   20.2170   77.2980   19.9920 H   0  0  0  0  0  0  0  0  0  0  0  0
   18.3670   78.8720   20.8590 H   0  0  0  0  0  0  0  0  0  0  0  0
   18.4230   81.1170   19.5130 H   0  0  0  0  0  0  0  0  0  0  0  0
   20.3870   80.8850   17.7620 H   0  0  0  0  0  0  0  0  0  0  0  0
   25.3740   79.0680   15.1690 H   0  0  0  0  0  0  0  0  0  0  0  0
   24.3610   81.2610   15.4980 H   0  0  0  0  0  0  0  0  0  0  0  0
   21.9030   81.5600   15.2080 H   0  0  0  0  0  0  0  0  0  0  0  0
   20.5130   79.5890   14.5750 H   0  0  0  0  0  0  0  0  0  0  0  0
  1  2  1  0  0  0  0
  2  3  2  0  0  0  0
  2  7  1  0  0  0  0
  3  4  1  0  0  0  0
  4 32  1  0  0  0  0
  4  5  2  0  0  0  0
  5  8  1  0  0  0  0
  6  5  1  0  0  0  0
  6 33  1  0  0  0  0
  7  6  2  0  0  0  0
  8 30  1  0  0  0  0
  8  9  2  0  0  0  0
  9 10  1  0  0  0  0
 10 35  1  6  0  0  0
 10 24  1  0  0  0  0
 10 11  1  0  0  0  0
 11 16  1  0  0  0  0
 12 13  2  0  0  0  0
 12 11  1  0  0  0  0
 14  9  1  0  0  0  0
 14 12  1  0  0  0  0
 15 14  2  0  0  0  0
 16 37  1  0  0  0  0
 16 36  1  0  0  0  0
 16 17  1  0  0  0  0
 17 18  1  0  0  0  0
 17 38  1  0  0  0  0
 18 40  1  0  0  0  0
 18 19  1  0  0  0  0
 19 20  1  0  0  0  0
 20 42  1  0  0  0  0
 20 21  1  0  0  0  0
 21 43  1  0  0  0  0
 22 44  1  0  0  0  0
 22 21  1  0  0  0  0
 23 19  1  0  0  0  0
 23 22  2  0  0  0  0
 24 25  2  0  0  0  0
 24 29  1  0  0  0  0
 25 26  1  0  0  0  0
 26 46  1  0  0  0  0
 26 27  2  0  0  0  0
 27 47  1  0  0  0  0
 28 48  1  0  0  0  0
 28 27  1  0  0  0  0
 29 28  2  0  0  0  0
 31  3  1  0  0  0  0
 34  7  1  0  0  0  0
 39 17  1  0  0  0  0
 41 18  1  0  0  0  0
 45 23  1  0  0  0  0
 49 29  1  0  0  0  0
M  END
>  <Pose>
1

>  <Score>
-6.42

$$$$
