
 OpenBabel03222202113D

 55 59  0  0  1  0  0  0  0  0999 V2000
   16.7490   75.3050    4.0670 B   0  0  0  0  0  0  0  0  0  0  0  0
   17.7070   75.7050    5.6860 C   0  0  0  0  0  0  0  0  0  0  0  0
   17.5310   76.9520    6.2420 C   0  0  0  0  0  0  0  0  0  0  0  0
   18.2010   77.2600    7.3920 C   0  0  0  0  0  0  0  0  0  0  0  0
   19.0480   76.3320    7.9960 C   0  0  0  0  0  0  0  0  0  0  0  0
   19.2130   75.1070    7.4390 C   0  0  0  0  0  0  0  0  0  0  0  0
   18.5440   74.7830    6.2780 C   0  0  0  0  0  0  0  0  0  0  0  0
   19.7420   76.7940    9.1870 C   0  0  0  0  0  0  0  0  0  0  0  0
   19.6100   76.1740   10.3300 C   0  0  0  0  0  0  0  0  0  0  0  0
   20.2670   76.5290   11.6390 C   0  0  2  0  0  0  0  0  0  0  0  0
   19.3050   76.1320   12.6080 N   0  0  0  0  0  0  0  0  0  0  0  0
   18.5680   75.0200   12.0440 C   0  0  0  0  0  0  0  0  0  0  0  0
   17.8820   74.1690   12.6590 O   0  0  0  0  0  0  0  0  0  0  0  0
   18.7550   75.0400   10.5970 C   0  0  0  0  0  0  0  0  0  0  0  0
   18.2450   74.2060    9.7750 O   0  0  0  0  0  0  0  0  0  0  0  0
   19.0000   76.5750   13.9550 C   0  0  0  0  0  0  0  0  0  0  0  0
   19.9890   76.1790   15.0030 C   0  0  0  0  0  0  0  0  0  0  0  0
   20.2790   77.2520   15.9410 N   0  0  0  0  0  4  0  0  0  0  0  0
   21.7160   77.3210   16.2220 C   0  0  0  0  0  0  0  0  0  0  0  0
   21.8890   78.5790   17.0850 C   0  0  0  0  0  0  0  0  0  0  0  0
   21.1770   78.5100   18.2570 O   0  0  0  0  0  0  0  0  0  0  0  0
   19.8350   78.2050   18.0900 C   0  0  0  0  0  0  0  0  0  0  0  0
   19.6330   77.0000   17.2040 C   0  0  0  0  0  0  0  0  0  0  0  0
   20.7200   77.9140   11.6500 C   0  0  1  0  0  0  0  0  0  0  0  0
   21.6110   78.4610   12.5330 C   0  0  0  0  0  0  0  0  0  0  0  0
   21.9940   79.7760   12.4710 C   0  0  0  0  0  0  0  0  0  0  0  0
   21.4720   80.5840   11.4970 C   0  0  0  0  0  0  0  0  0  0  0  0
   20.5610   80.0860   10.5710 C   0  0  0  0  0  0  0  0  0  0  0  0
   20.2000   78.7660   10.6620 C   0  0  1  0  0  0  0  0  0  0  0  0
   22.9170   80.2720   13.4120 N   0  0  0  0  0  0  0  0  0  0  0  0
   23.8630   79.5730   13.8580 O   0  0  0  0  0  0  0  0  0  0  0  0
   22.7720   81.5680   13.8530 O   0  0  0  0  0  0  0  0  0  0  0  0
   20.5800   77.9300    9.1380 O   0  0  0  0  0  0  0  0  0  0  0  0
   16.8760   77.7070    5.7980 H   0  0  0  0  0  0  0  0  0  0  0  0
   18.0660   78.2590    7.8460 H   0  0  0  0  0  0  0  0  0  0  0  0
   19.9040   74.3840    7.8980 H   0  0  0  0  0  0  0  0  0  0  0  0
   18.6780   73.7950    5.8310 H   0  0  0  0  0  0  0  0  0  0  0  0
   21.1380   75.8310   11.7450 H   0  0  0  0  0  0  0  0  0  0  0  0
   18.0250   76.1130   14.2300 H   0  0  0  0  0  0  0  0  0  0  0  0
   18.8780   77.6780   14.0010 H   0  0  0  0  0  0  0  0  0  0  0  0
   20.9130   75.7260   14.6760 H   0  0  0  0  0  0  0  0  0  0  0  0
   19.4580   75.3480   15.5920 H   0  0  0  0  0  0  0  0  0  0  0  0
   20.0160   78.1840   15.6110 H   0  0  0  0  0  0  0  0  0  0  0  0
   22.3070   77.4970   15.3030 H   0  0  0  0  0  0  0  0  0  0  0  0
   22.0690   76.4810   16.8260 H   0  0  0  0  0  0  0  0  0  0  0  0
   22.9380   78.7660   17.3170 H   0  0  0  0  0  0  0  0  0  0  0  0
   21.5260   79.4240   16.4390 H   0  0  0  0  0  0  0  0  0  0  0  0
   19.4610   77.9040   19.1130 H   0  0  0  0  0  0  0  0  0  0  0  0
   19.2210   79.0520   17.7550 H   0  0  0  0  0  0  0  0  0  0  0  0
   18.5520   76.8740   17.0170 H   0  0  0  0  0  0  0  0  0  0  0  0
   20.0620   76.0930   17.6890 H   0  0  0  0  0  0  0  0  0  0  0  0
   22.0190   77.8350   13.3040 H   0  0  0  0  0  0  0  0  0  0  0  0
   21.7320   81.6280   11.3920 H   0  0  0  0  0  0  0  0  0  0  0  0
   20.1450   80.7320    9.7940 H   0  0  0  0  0  0  0  0  0  0  0  0
   19.4790   78.3740    9.9290 H   0  0  0  0  0  0  0  0  0  0  0  0
  1  2  1  0  0  0  0
  2  3  2  0  0  0  0
  2  7  1  0  0  0  0
  3  4  1  0  0  0  0
  4 35  1  0  0  0  0
  4  5  2  0  0  0  0
  5  8  1  0  0  0  0
  6 36  1  0  0  0  0
  6  5  1  0  0  0  0
  7  6  2  0  0  0  0
  8  9  2  0  0  0  0
  9 14  1  0  0  0  0
  9 10  1  0  0  0  0
 10 24  1  0  0  0  0
 10 38  1  1  0  0  0
 10 11  1  0  0  0  0
 11 16  1  0  0  0  0
 12 11  1  0  0  0  0
 12 13  2  0  0  0  0
 14 12  1  0  0  0  0
 15 14  2  0  0  0  0
 16 40  1  0  0  0  0
 16 39  1  0  0  0  0
 16 17  1  0  0  0  0
 17 42  1  0  0  0  0
 17 18  1  0  0  0  0
 18 19  1  0  0  0  0
 18 23  1  0  0  0  0
 19 45  1  0  0  0  0
 19 20  1  0  0  0  0
 20 46  1  0  0  0  0
 20 21  1  0  0  0  0
 22 21  1  0  0  0  0
 22 48  1  0  0  0  0
 23 51  1  0  0  0  0
 23 22  1  0  0  0  0
 24 25  1  6  0  0  0
 25 52  1  0  0  0  0
 26 25  2  0  0  0  0
 26 30  1  0  0  0  0
 27 26  1  0  0  0  0
 28 29  1  0  0  0  0
 28 27  2  0  0  0  0
 29 55  1  1  0  0  0
 29 24  1  0  0  0  0
 30 32  2  0  0  0  0
 30 31  2  0  0  0  0
 33  8  1  0  0  0  0
 33 29  1  0  0  0  0
 34  3  1  0  0  0  0
 37  7  1  0  0  0  0
 41 17  1  0  0  0  0
 43 18  1  0  0  0  0
 44 19  1  0  0  0  0
 47 20  1  0  0  0  0
 49 22  1  0  0  0  0
 50 23  1  0  0  0  0
 53 27  1  0  0  0  0
 54 28  1  0  0  0  0
M  END
>  <Pose>
1

>  <Score>
-5.85

$$$$
