
 OpenBabel03222202113D

 59 62  0  0  1  0  0  0  0  0999 V2000
   18.5020   84.2190   21.9210 B   0  0  0  0  0  0  0  0  0  0  0  0
   19.1890   83.2630   20.4130 C   0  0  0  0  0  0  0  0  0  0  0  0
   19.1740   81.8840   20.4130 C   0  0  0  0  0  0  0  0  0  0  0  0
   19.6620   81.1790   19.3340 C   0  0  0  0  0  0  0  0  0  0  0  0
   20.1920   81.8000   18.1960 C   0  0  0  0  0  0  0  0  0  0  0  0
   20.2000   83.1750   18.2150 C   0  0  0  0  0  0  0  0  0  0  0  0
   19.7050   83.8970   19.3090 C   0  0  0  0  0  0  0  0  0  0  0  0
   20.7270   80.9990   17.1060 C   0  0  0  0  0  0  0  0  0  0  0  0
   20.4730   79.7190   16.9450 C   0  0  0  0  0  0  0  0  0  0  0  0
   20.9950   78.8470   15.8320 C   0  0  2  0  0  0  0  0  0  0  0  0
   20.3970   77.5700   16.0180 N   0  0  0  0  0  0  0  0  0  0  0  0
   19.6390   77.5240   17.2450 C   0  0  0  0  0  0  0  0  0  0  0  0
   19.0460   76.5620   17.7530 O   0  0  0  0  0  0  0  0  0  0  0  0
   19.6920   78.8830   17.8290 C   0  0  0  0  0  0  0  0  0  0  0  0
   19.1380   79.2280   18.9220 O   0  0  0  0  0  0  0  0  0  0  0  0
   20.4840   76.4180   15.1610 C   0  0  0  0  0  0  0  0  0  0  0  0
   19.5480   76.4120   14.0020 C   0  0  0  0  0  0  0  0  0  0  0  0
   19.1230   75.1170   13.5620 N   0  0  0  0  0  4  0  0  0  0  0  0
   20.0680   74.0580   13.8480 C   0  0  0  0  0  0  0  0  0  0  0  0
   19.3880   72.7490   13.5010 C   0  0  0  0  0  0  0  0  0  0  0  0
   19.2420   72.7540   12.0940 O   0  0  0  0  0  0  0  0  0  0  0  0
   18.2870   73.7370   11.8170 C   0  0  0  0  0  0  0  0  0  0  0  0
   18.9230   75.0880   12.0990 C   0  0  0  0  0  0  0  0  0  0  0  0
   22.4720   78.7990   16.0570 C   0  0  0  0  0  0  0  0  0  0  0  0
   23.1750   77.7760   15.5030 C   0  0  0  0  0  0  0  0  0  0  0  0
   24.5390   77.6810   15.6830 C   0  0  0  0  0  0  0  0  0  0  0  0
   25.1980   78.6230   16.4260 C   0  0  0  0  0  0  0  0  0  0  0  0
   24.4870   79.6550   16.9830 C   0  0  0  0  0  0  0  0  0  0  0  0
   23.1170   79.7560   16.8050 C   0  0  0  0  0  0  0  0  0  0  0  0
   26.6460   78.5310   16.6270 C   0  0  0  0  0  0  0  0  0  0  0  0
   27.1620   77.4180   16.9040 O   0  0  0  0  0  0  0  0  0  0  0  0
   27.4840   79.6080   16.5300 O   0  0  0  0  0  0  0  0  0  0  0  0
   27.5820   80.4030   15.3690 C   0  0  0  0  0  0  0  0  0  0  0  0
   21.5740   81.5800   16.1340 O   0  0  0  0  0  0  0  0  0  0  0  0
   18.7630   81.3770   21.2930 H   0  0  0  0  0  0  0  0  0  0  0  0
   19.6420   80.1060   19.3550 H   0  0  0  0  0  0  0  0  0  0  0  0
   20.6250   83.7180   17.3640 H   0  0  0  0  0  0  0  0  0  0  0  0
   19.7230   84.9770   19.2940 H   0  0  0  0  0  0  0  0  0  0  0  0
   20.7400   79.3770   14.9040 H   0  0  0  0  0  0  0  0  0  0  0  0
   21.5380   76.2710   14.7800 H   0  0  0  0  0  0  0  0  0  0  0  0
   20.2780   75.4730   15.7410 H   0  0  0  0  0  0  0  0  0  0  0  0
   20.1060   76.8670   13.1320 H   0  0  0  0  0  0  0  0  0  0  0  0
   18.6750   77.0810   14.1410 H   0  0  0  0  0  0  0  0  0  0  0  0
   18.1670   74.8690   13.9320 H   0  0  0  0  0  0  0  0  0  0  0  0
   20.4410   74.0680   14.8910 H   0  0  0  0  0  0  0  0  0  0  0  0
   20.9300   74.1610   13.1430 H   0  0  0  0  0  0  0  0  0  0  0  0
   20.0400   71.8950   13.7880 H   0  0  0  0  0  0  0  0  0  0  0  0
   18.3750   72.6850   13.9860 H   0  0  0  0  0  0  0  0  0  0  0  0
   17.4710   73.6190   12.5830 H   0  0  0  0  0  0  0  0  0  0  0  0
   17.9150   73.6680   10.7780 H   0  0  0  0  0  0  0  0  0  0  0  0
   19.9440   75.1650   11.6460 H   0  0  0  0  0  0  0  0  0  0  0  0
   18.2760   75.9250   11.7680 H   0  0  0  0  0  0  0  0  0  0  0  0
   22.7010   77.0200   14.9180 H   0  0  0  0  0  0  0  0  0  0  0  0
   25.0780   76.8720   15.2440 H   0  0  0  0  0  0  0  0  0  0  0  0
   25.0400   80.3970   17.5730 H   0  0  0  0  0  0  0  0  0  0  0  0
   22.5690   80.5570   17.2390 H   0  0  0  0  0  0  0  0  0  0  0  0
   28.4560   80.1700   14.7580 H   0  0  0  0  0  0  0  0  0  0  0  0
   26.6630   80.3000   14.7390 H   0  0  0  0  0  0  0  0  0  0  0  0
   27.6550   81.4900   15.6520 H   0  0  0  0  0  0  0  0  0  0  0  0
  2  1  1  0  0  0  0
  3  2  1  0  0  0  0
  3 35  1  0  0  0  0
  4 36  1  0  0  0  0
  4  3  2  0  0  0  0
  5  6  2  0  0  0  0
  5  4  1  0  0  0  0
  6  7  1  0  0  0  0
  7  2  2  0  0  0  0
  8  5  1  0  0  0  0
  9  8  2  0  0  0  0
  9 14  1  0  0  0  0
 10 39  1  6  0  0  0
 10 11  1  0  0  0  0
 10 24  1  0  0  0  0
 10  9  1  0  0  0  0
 11 12  1  0  0  0  0
 12 13  2  0  0  0  0
 12 14  1  0  0  0  0
 14 15  2  0  0  0  0
 16 41  1  0  0  0  0
 16 11  1  0  0  0  0
 17 43  1  0  0  0  0
 17 16  1  0  0  0  0
 18 19  1  0  0  0  0
 18 44  1  0  0  0  0
 18 17  1  0  0  0  0
 19 45  1  0  0  0  0
 20 47  1  0  0  0  0
 20 19  1  0  0  0  0
 20 48  1  0  0  0  0
 21 20  1  0  0  0  0
 22 21  1  0  0  0  0
 22 23  1  0  0  0  0
 22 49  1  0  0  0  0
 23 18  1  0  0  0  0
 24 29  1  0  0  0  0
 25 26  1  0  0  0  0
 25 24  2  0  0  0  0
 26 27  2  0  0  0  0
 27 30  1  0  0  0  0
 27 28  1  0  0  0  0
 28 55  1  0  0  0  0
 29 28  2  0  0  0  0
 29 56  1  0  0  0  0
 30 31  2  0  0  0  0
 32 30  1  0  0  0  0
 33 59  1  0  0  0  0
 33 32  1  0  0  0  0
 34  8  1  0  0  0  0
 37  6  1  0  0  0  0
 38  7  1  0  0  0  0
 40 16  1  0  0  0  0
 42 17  1  0  0  0  0
 46 19  1  0  0  0  0
 50 22  1  0  0  0  0
 51 23  1  0  0  0  0
 52 23  1  0  0  0  0
 53 25  1  0  0  0  0
 54 26  1  0  0  0  0
 57 33  1  0  0  0  0
 58 33  1  0  0  0  0
M  END
>  <Pose>
1

>  <Score>
-5.16

$$$$
