
 OpenBabel03222202113D

 53 56  0  0  1  0  0  0  0  0999 V2000
   17.8290   71.3870   12.2380 B   0  0  0  0  0  0  0  0  0  0  0  0
   18.6070   73.0470   12.8020 C   0  0  0  0  0  0  0  0  0  0  0  0
   19.7340   73.0740   13.5920 C   0  0  0  0  0  0  0  0  0  0  0  0
   20.2910   74.2780   13.9960 C   0  0  0  0  0  0  0  0  0  0  0  0
   19.7460   75.4880   13.6280 C   0  0  0  0  0  0  0  0  0  0  0  0
   18.6210   75.4580   12.8360 C   0  0  0  0  0  0  0  0  0  0  0  0
   18.0540   74.2470   12.4260 C   0  0  0  0  0  0  0  0  0  0  0  0
   20.3510   76.7460   14.0290 C   0  0  0  0  0  0  0  0  0  0  0  0
   20.5910   77.1040   15.2750 C   0  0  0  0  0  0  0  0  0  0  0  0
   21.1960   78.3570   15.8120 C   0  0  1  0  0  0  0  0  0  0  0  0
   20.4830   78.5450   17.0870 N   0  0  0  0  0  0  0  0  0  0  0  0
   20.2720   77.2360   17.5800 C   0  0  0  0  0  0  0  0  0  0  0  0
   20.0700   76.9520   18.7670 O   0  0  0  0  0  0  0  0  0  0  0  0
   20.3350   76.2970   16.4650 C   0  0  0  0  0  0  0  0  0  0  0  0
   20.2100   75.0470   16.4420 O   0  0  0  0  0  0  0  0  0  0  0  0
   20.1490   79.8250   17.5950 C   0  0  0  0  0  0  0  0  0  0  0  0
   20.4600   80.1340   19.0020 C   0  0  0  0  0  0  0  0  0  0  0  0
   19.5380   80.9880   19.6850 N   0  0  0  0  0  4  0  0  0  0  0  0
   19.8740   82.3680   19.7170 C   0  0  0  0  0  0  0  0  0  0  0  0
   20.3440   82.7250   21.1100 C   0  0  0  0  0  0  0  0  0  0  0  0
   21.1430   81.7310   21.6690 O   0  0  0  0  0  0  0  0  0  0  0  0
   20.4400   80.5710   21.9310 C   0  0  0  0  0  0  0  0  0  0  0  0
   19.2290   80.5360   21.0240 C   0  0  0  0  0  0  0  0  0  0  0  0
   22.6500   78.3020   15.9730 C   0  0  0  0  0  0  0  0  0  0  0  0
   23.3970   77.2650   15.4000 C   0  0  0  0  0  0  0  0  0  0  0  0
   24.7490   77.1570   15.5110 C   0  0  0  0  0  0  0  0  0  0  0  0
   25.4590   78.1060   16.2240 C   0  0  0  0  0  0  0  0  0  0  0  0
   24.7570   79.1290   16.7960 C   0  0  0  0  0  0  0  0  0  0  0  0
   23.3690   79.2390   16.6800 C   0  0  0  0  0  0  0  0  0  0  0  0
   20.7090   77.6550   13.0130 O   0  0  0  0  0  0  0  0  0  0  0  0
   20.1720   72.1360   13.8900 H   0  0  0  0  0  0  0  0  0  0  0  0
   21.1770   74.3190   14.6200 H   0  0  0  0  0  0  0  0  0  0  0  0
   18.1130   76.3370   12.4680 H   0  0  0  0  0  0  0  0  0  0  0  0
   17.1650   74.2320   11.8020 H   0  0  0  0  0  0  0  0  0  0  0  0
   20.9620   79.1880   15.1150 H   0  0  0  0  0  0  0  0  0  0  0  0
   20.6220   80.5870   16.9170 H   0  0  0  0  0  0  0  0  0  0  0  0
   19.0460   79.9760   17.3920 H   0  0  0  0  0  0  0  0  0  0  0  0
   21.4430   80.6990   18.9940 H   0  0  0  0  0  0  0  0  0  0  0  0
   20.6530   79.2600   19.6440 H   0  0  0  0  0  0  0  0  0  0  0  0
   18.6260   80.8990   19.1390 H   0  0  0  0  0  0  0  0  0  0  0  0
   20.6060   82.6740   18.9410 H   0  0  0  0  0  0  0  0  0  0  0  0
   18.9500   82.9890   19.5310 H   0  0  0  0  0  0  0  0  0  0  0  0
   19.4350   82.9310   21.7150 H   0  0  0  0  0  0  0  0  0  0  0  0
   20.8990   83.6860   21.0290 H   0  0  0  0  0  0  0  0  0  0  0  0
   20.0930   80.5530   22.9820 H   0  0  0  0  0  0  0  0  0  0  0  0
   21.0850   79.6780   21.8000 H   0  0  0  0  0  0  0  0  0  0  0  0
   18.7670   79.5060   21.0080 H   0  0  0  0  0  0  0  0  0  0  0  0
   18.4580   81.1720   21.4980 H   0  0  0  0  0  0  0  0  0  0  0  0
   22.8630   76.5080   14.8340 H   0  0  0  0  0  0  0  0  0  0  0  0
   25.2840   76.3400   15.0510 H   0  0  0  0  0  0  0  0  0  0  0  0
   26.5370   78.0120   16.3080 H   0  0  0  0  0  0  0  0  0  0  0  0
   25.2590   79.8920   17.3590 H   0  0  0  0  0  0  0  0  0  0  0  0
   22.8810   80.0580   17.1480 H   0  0  0  0  0  0  0  0  0  0  0  0
  1  2  1  0  0  0  0
  2  3  1  0  0  0  0
  3 31  1  0  0  0  0
  3  4  2  0  0  0  0
  4 32  1  0  0  0  0
  5  4  1  0  0  0  0
  5  8  1  0  0  0  0
  6  5  2  0  0  0  0
  7  2  2  0  0  0  0
  7  6  1  0  0  0  0
  8  9  2  0  0  0  0
  9 10  1  0  0  0  0
  9 14  1  0  0  0  0
 10 35  1  6  0  0  0
 10 24  1  0  0  0  0
 10 11  1  0  0  0  0
 11 12  1  0  0  0  0
 11 16  1  0  0  0  0
 12 13  2  0  0  0  0
 14 12  1  0  0  0  0
 15 14  2  0  0  0  0
 16 17  1  0  0  0  0
 17 39  1  0  0  0  0
 17 18  1  0  0  0  0
 18 19  1  0  0  0  0
 18 23  1  0  0  0  0
 19 20  1  0  0  0  0
 20 21  1  0  0  0  0
 20 43  1  0  0  0  0
 21 22  1  0  0  0  0
 22 45  1  0  0  0  0
 23 48  1  0  0  0  0
 23 22  1  0  0  0  0
 24 29  1  0  0  0  0
 25 26  1  0  0  0  0
 25 24  2  0  0  0  0
 26 27  2  0  0  0  0
 27 51  1  0  0  0  0
 27 28  1  0  0  0  0
 28 52  1  0  0  0  0
 29 28  2  0  0  0  0
 29 53  1  0  0  0  0
 30  8  1  0  0  0  0
 33  6  1  0  0  0  0
 34  7  1  0  0  0  0
 36 16  1  0  0  0  0
 37 16  1  0  0  0  0
 38 17  1  0  0  0  0
 40 18  1  0  0  0  0
 41 19  1  0  0  0  0
 42 19  1  0  0  0  0
 44 20  1  0  0  0  0
 46 22  1  0  0  0  0
 47 23  1  0  0  0  0
 49 25  1  0  0  0  0
 50 26  1  0  0  0  0
M  END
>  <Pose>
1

>  <Score>
-5.97

$$$$
