
 OpenBabel03222202113D

 48 51  0  0  1  0  0  0  0  0999 V2000
   19.2720   79.2710   19.9450 B   0  0  0  0  0  0  0  0  0  0  0  0
   20.4650   79.3980   18.4520 C   0  0  0  0  0  0  0  0  0  0  0  0
   20.2290   80.3440   17.4810 C   0  0  0  0  0  0  0  0  0  0  0  0
   21.0860   80.4290   16.4160 C   0  0  0  0  0  0  0  0  0  0  0  0
   22.1610   79.5800   16.3240 C   0  0  0  0  0  0  0  0  0  0  0  0
   22.3640   78.6480   17.3120 C   0  0  0  0  0  0  0  0  0  0  0  0
   21.5250   78.5230   18.4090 C   0  0  0  0  0  0  0  0  0  0  0  0
   23.1030   79.6730   15.1460 C   0  0  1  0  0  0  0  0  0  0  0  0
   24.3070   80.1480   15.6270 O   0  0  0  0  0  0  0  0  0  0  0  0
   23.1990   78.3540   14.4400 C   0  0  0  0  0  0  0  0  0  0  0  0
   22.0400   78.0410   13.6560 N   0  0  0  0  0  0  0  0  0  0  0  0
   21.8170   78.6060   12.4460 C   0  0  0  0  0  0  0  0  0  0  0  0
   20.6200   78.0790   11.9880 C   0  0  0  0  0  0  0  0  0  0  0  0
   20.1470   78.4820   10.7530 C   0  0  0  0  0  0  0  0  0  0  0  0
   20.8410   79.4030    9.9600 C   0  0  0  0  0  0  0  0  0  0  0  0
   22.0350   79.9030   10.4610 C   0  0  0  0  0  0  0  0  0  0  0  0
   22.5280   79.5200   11.6840 C   0  0  0  0  0  0  0  0  0  0  0  0
   20.1150   77.2030   12.9070 N   0  0  0  0  0  0  0  0  0  0  0  0
   21.0190   77.2040   13.9230 C   0  0  1  0  0  0  0  0  0  0  0  0
   20.8870   76.4860   14.9870 N   0  0  0  0  0  0  0  0  0  0  0  0
   18.8800   76.4960   12.7470 C   0  0  0  0  0  0  0  0  0  0  0  0
   19.0250   75.0020   12.8400 C   0  0  0  0  0  0  0  0  0  0  0  0
   18.2210   74.2000   12.0490 C   0  0  0  0  0  0  0  0  0  0  0  0
   18.2960   72.8210   12.0770 C   0  0  0  0  0  0  0  0  0  0  0  0
   19.2110   72.2530   12.9290 C   0  0  0  0  0  0  0  0  0  0  0  0
   20.0180   73.0240   13.7230 C   0  0  0  0  0  0  0  0  0  0  0  0
   19.9190   74.3890   13.6720 C   0  0  0  0  0  0  0  0  0  0  0  0
   19.3570   81.0250   17.5660 H   0  0  0  0  0  0  0  0  0  0  0  0
   20.9140   81.1690   15.6430 H   0  0  0  0  0  0  0  0  0  0  0  0
   23.2220   77.9550   17.2520 H   0  0  0  0  0  0  0  0  0  0  0  0
   21.6980   77.7760   19.1900 H   0  0  0  0  0  0  0  0  0  0  0  0
   22.6940   80.4780   14.4800 H   0  0  0  0  0  0  0  0  0  0  0  0
   24.2120   80.8680   16.2810 H   0  0  0  0  0  0  0  0  0  0  0  0
   24.0520   78.4590   13.7070 H   0  0  0  0  0  0  0  0  0  0  0  0
   23.4870   77.5260   15.0980 H   0  0  0  0  0  0  0  0  0  0  0  0
   19.2190   78.0580   10.3990 H   0  0  0  0  0  0  0  0  0  0  0  0
   20.4360   79.6840    9.0140 H   0  0  0  0  0  0  0  0  0  0  0  0
   22.5860   80.6180    9.8600 H   0  0  0  0  0  0  0  0  0  0  0  0
   23.4590   79.9300   12.0410 H   0  0  0  0  0  0  0  0  0  0  0  0
   21.6370   76.5420   15.7400 H   0  0  0  0  0  0  0  0  0  0  0  0
   20.1210   75.8430   15.1980 H   0  0  0  0  0  0  0  0  0  0  0  0
   18.4160   76.7050   11.7550 H   0  0  0  0  0  0  0  0  0  0  0  0
   18.1820   76.8050   13.5510 H   0  0  0  0  0  0  0  0  0  0  0  0
   17.4720   74.6210   11.3580 H   0  0  0  0  0  0  0  0  0  0  0  0
   17.6520   72.1980   11.4420 H   0  0  0  0  0  0  0  0  0  0  0  0
   19.3100   71.1700   12.9880 H   0  0  0  0  0  0  0  0  0  0  0  0
   20.7390   72.5210   14.3930 H   0  0  0  0  0  0  0  0  0  0  0  0
   20.5530   74.9690   14.3000 H   0  0  0  0  0  0  0  0  0  0  0  0
  2  1  1  0  0  0  0
  3 28  1  0  0  0  0
  3  2  2  0  0  0  0
  4  3  1  0  0  0  0
  5  4  2  0  0  0  0
  5  6  1  0  0  0  0
  6  7  2  0  0  0  0
  7  2  1  0  0  0  0
  7 31  1  0  0  0  0
  8 32  1  6  0  0  0
  8  9  1  0  0  0  0
  8  5  1  0  0  0  0
  9 33  1  0  0  0  0
 10 35  1  0  0  0  0
 10  8  1  0  0  0  0
 11 19  1  0  0  0  0
 11 10  1  0  0  0  0
 12 11  1  0  0  0  0
 13 12  1  0  0  0  0
 13 18  1  0  0  0  0
 14 13  2  0  0  0  0
 15 16  2  0  0  0  0
 15 14  1  0  0  0  0
 16 17  1  0  0  0  0
 17 39  1  0  0  0  0
 17 12  2  0  0  0  0
 18 19  1  0  0  0  0
 19 20  1  6  0  0  0
 20 41  1  0  0  0  0
 20 40  1  0  0  0  0
 21 22  1  0  0  0  0
 21 18  1  0  0  0  0
 21 43  1  0  0  0  0
 22 27  1  0  0  0  0
 23 24  1  0  0  0  0
 23 22  2  0  0  0  0
 24 25  2  0  0  0  0
 25 46  1  0  0  0  0
 25 26  1  0  0  0  0
 26 47  1  0  0  0  0
 27 26  2  0  0  0  0
 27 48  1  0  0  0  0
 29  4  1  0  0  0  0
 30  6  1  0  0  0  0
 34 10  1  0  0  0  0
 36 14  1  0  0  0  0
 37 15  1  0  0  0  0
 38 16  1  0  0  0  0
 42 21  1  0  0  0  0
 44 23  1  0  0  0  0
 45 24  1  0  0  0  0
M  END
>  <Pose>
1

>  <Score>
-5.89

$$$$
