
 OpenBabel03222202113D

 55 58  0  0  0  0  0  0  0  0999 V2000
   18.7360   84.6400   21.2130 B   0  0  0  0  0  0  0  0  0  0  0  0
   19.3700   83.2770   20.0150 C   0  0  0  0  0  0  0  0  0  0  0  0
   20.0030   83.6160   18.8370 C   0  0  0  0  0  0  0  0  0  0  0  0
   20.4590   82.6350   17.9700 C   0  0  0  0  0  0  0  0  0  0  0  0
   20.2840   81.3090   18.2740 C   0  0  0  0  0  0  0  0  0  0  0  0
   19.6540   80.9530   19.4480 C   0  0  0  0  0  0  0  0  0  0  0  0
   19.2060   81.9410   20.3020 C   0  0  0  0  0  0  0  0  0  0  0  0
   20.7740   80.3030   17.3130 C   0  0  0  0  0  0  0  0  0  0  0  0
   21.5060   79.2290   17.8990 N   0  0  0  0  0  0  0  0  0  0  0  0
   20.7470   78.2370   18.5350 C   0  0  0  0  0  0  0  0  0  0  0  0
   20.8270   76.8910   17.8210 C   0  0  0  0  0  0  0  0  0  0  0  0
   21.5700   77.0940   16.6270 N   0  0  0  0  0  0  0  0  0  0  0  0
   22.9270   77.5570   16.7860 C   0  0  0  0  0  0  0  0  0  0  0  0
   22.7890   78.9560   17.3970 C   0  0  0  0  0  0  0  0  0  0  0  0
   21.0470   76.8870   15.3380 C   0  0  0  0  0  0  0  0  0  0  0  0
   21.0230   77.7430   14.3040 N   0  0  0  0  0  0  0  0  0  0  0  0
   20.3830   77.1640   13.2600 C   0  0  0  0  0  0  0  0  0  0  0  0
   19.9860   75.8990   13.6360 C   0  0  0  0  0  0  0  0  0  0  0  0
   20.4000   75.7560   14.8950 N   0  0  0  0  0  0  0  0  0  0  0  0
   19.3230   75.1240   12.7580 N   0  0  0  0  0  0  0  0  0  0  0  0
   19.0340   75.5460   11.5190 C   0  0  0  0  0  0  0  0  0  0  0  0
   18.4040   74.7850   10.7170 O   0  0  0  0  0  0  0  0  0  0  0  0
   19.4130   76.7770   11.1330 N   0  0  0  0  0  0  0  0  0  0  0  0
   20.0750   77.5740   11.9830 C   0  0  0  0  0  0  0  0  0  0  0  0
   20.4260   78.7240   11.6200 O   0  0  0  0  0  0  0  0  0  0  0  0
   18.9120   73.7860   13.1950 C   0  0  0  0  0  0  0  0  0  0  0  0
   21.6010   79.0570   14.2160 C   0  0  0  0  0  0  0  0  0  0  0  0
   22.8790   79.0640   13.4070 C   0  0  0  0  0  0  0  0  0  0  0  0
   23.7340   80.1010   13.7190 O   0  0  0  0  0  0  0  0  0  0  0  0
   23.0620   80.8740   14.6940 C   0  0  0  0  0  0  0  0  0  0  0  0
   20.1310   84.6570   18.6110 H   0  0  0  0  0  0  0  0  0  0  0  0
   20.9480   82.9840   17.0660 H   0  0  0  0  0  0  0  0  0  0  0  0
   19.5010   79.8980   19.7230 H   0  0  0  0  0  0  0  0  0  0  0  0
   18.7070   81.6360   21.2230 H   0  0  0  0  0  0  0  0  0  0  0  0
   21.3210   80.7770   16.4780 H   0  0  0  0  0  0  0  0  0  0  0  0
   19.8490   79.8390   16.8560 H   0  0  0  0  0  0  0  0  0  0  0  0
   19.6520   78.5270   18.4410 H   0  0  0  0  0  0  0  0  0  0  0  0
   20.9070   78.1230   19.6360 H   0  0  0  0  0  0  0  0  0  0  0  0
   21.3820   76.2150   18.5470 H   0  0  0  0  0  0  0  0  0  0  0  0
   19.8400   76.4180   17.7210 H   0  0  0  0  0  0  0  0  0  0  0  0
   23.4440   77.5830   15.8240 H   0  0  0  0  0  0  0  0  0  0  0  0
   23.5060   76.9200   17.5160 H   0  0  0  0  0  0  0  0  0  0  0  0
   22.9990   79.6640   16.5640 H   0  0  0  0  0  0  0  0  0  0  0  0
   23.6070   79.1220   18.1270 H   0  0  0  0  0  0  0  0  0  0  0  0
   19.1880   77.1170   10.1540 H   0  0  0  0  0  0  0  0  0  0  0  0
   17.9790   73.9160   13.7920 H   0  0  0  0  0  0  0  0  0  0  0  0
   18.7850   73.0900   12.3690 H   0  0  0  0  0  0  0  0  0  0  0  0
   19.6910   73.4350   13.9130 H   0  0  0  0  0  0  0  0  0  0  0  0
   20.9270   79.8180   13.7740 H   0  0  0  0  0  0  0  0  0  0  0  0
   21.8440   79.4530   15.2480 H   0  0  0  0  0  0  0  0  0  0  0  0
   22.6270   79.0380   12.3160 H   0  0  0  0  0  0  0  0  0  0  0  0
   23.4320   78.1270   13.5890 H   0  0  0  0  0  0  0  0  0  0  0  0
   22.8720   80.2080   15.5800 H   0  0  0  0  0  0  0  0  0  0  0  0
   22.0690   81.1980   14.3590 H   0  0  0  0  0  0  0  0  0  0  0  0
   23.7130   81.7220   14.9800 H   0  0  0  0  0  0  0  0  0  0  0  0
  2  7  1  0  0  0  0
  2  1  1  0  0  0  0
  3  2  2  0  0  0  0
  4  5  2  0  0  0  0
  4  3  1  0  0  0  0
  5  6  1  0  0  0  0
  6 33  1  0  0  0  0
  6  7  2  0  0  0  0
  7 34  1  0  0  0  0
  8  9  1  0  0  0  0
  8  5  1  0  0  0  0
  9 10  1  0  0  0  0
 10 38  1  0  0  0  0
 11 10  1  0  0  0  0
 11 39  1  0  0  0  0
 12 13  1  0  0  0  0
 12 11  1  0  0  0  0
 13 14  1  0  0  0  0
 13 42  1  0  0  0  0
 14  9  1  0  0  0  0
 14 44  1  0  0  0  0
 15 12  1  0  0  0  0
 16 15  1  0  0  0  0
 17 18  2  0  0  0  0
 17 16  1  0  0  0  0
 18 19  1  0  0  0  0
 19 15  2  0  0  0  0
 20 26  1  0  0  0  0
 20 18  1  0  0  0  0
 21 20  1  0  0  0  0
 22 21  2  0  0  0  0
 23 21  1  0  0  0  0
 23 24  1  0  0  0  0
 24 17  1  0  0  0  0
 25 24  2  0  0  0  0
 26 46  1  0  0  0  0
 26 48  1  0  0  0  0
 27 16  1  0  0  0  0
 27 50  1  0  0  0  0
 28 52  1  0  0  0  0
 28 29  1  0  0  0  0
 28 27  1  0  0  0  0
 29 30  1  0  0  0  0
 30 55  1  0  0  0  0
 30 53  1  0  0  0  0
 31  3  1  0  0  0  0
 32  4  1  0  0  0  0
 35  8  1  0  0  0  0
 36  8  1  0  0  0  0
 37 10  1  0  0  0  0
 40 11  1  0  0  0  0
 41 13  1  0  0  0  0
 43 14  1  0  0  0  0
 45 23  1  0  0  0  0
 47 26  1  0  0  0  0
 49 27  1  0  0  0  0
 51 28  1  0  0  0  0
 54 30  1  0  0  0  0
M  END
>  <Pose>
1

>  <Score>
-6.67

$$$$
