
 OpenBabel03222202113D

 42 45  0  0  0  0  0  0  0  0999 V2000
   18.0610   75.4430    6.2690 B   0  0  0  0  0  0  0  0  0  0  0  0
   18.5740   76.6470    7.6580 C   0  0  0  0  0  0  0  0  0  0  0  0
   19.3600   76.2210    8.7180 C   0  0  0  0  0  0  0  0  0  0  0  0
   19.7430   77.0770    9.7360 C   0  0  0  0  0  0  0  0  0  0  0  0
   19.3500   78.3980    9.7270 C   0  0  0  0  0  0  0  0  0  0  0  0
   18.5680   78.8120    8.6690 C   0  0  0  0  0  0  0  0  0  0  0  0
   18.1800   77.9690    7.6480 C   0  0  0  0  0  0  0  0  0  0  0  0
   19.7410   79.3190   10.7880 C   0  0  0  0  0  0  0  0  0  0  0  0
   20.9440   79.4610   11.1850 N   0  0  0  0  0  0  0  0  0  0  0  0
   21.3670   80.3140   12.1810 N   0  0  0  0  0  0  0  0  0  0  0  0
   21.8330   79.7790   13.4060 C   0  0  0  0  0  0  0  0  0  0  0  0
   21.7510   78.5460   13.6050 O   0  0  0  0  0  0  0  0  0  0  0  0
   22.4160   80.6590   14.4520 C   0  0  0  0  0  0  0  0  0  0  0  0
   22.2400   80.0940   15.7760 N   0  0  0  0  0  0  0  0  0  0  0  0
   21.0610   80.2890   16.4430 N   0  0  0  0  0  0  0  0  0  0  0  0
   21.1410   79.6950   17.6410 C   0  0  0  0  0  0  0  0  0  0  0  0
   22.3550   79.1490   17.6920 N   0  0  0  0  0  0  0  0  0  0  0  0
   23.0540   79.3950   16.5210 C   0  0  0  0  0  0  0  0  0  0  0  0
   24.4030   78.9120   16.3090 C   0  0  0  0  0  0  0  0  0  0  0  0
   25.5180   79.6770   16.6380 N   0  0  0  0  0  0  0  0  0  0  0  0
   26.5810   79.0240   16.3720 O   0  0  0  0  0  0  0  0  0  0  0  0
   26.2840   77.8820   15.8900 N   0  0  0  0  0  0  0  0  0  0  0  0
   24.9210   77.7760   15.8350 C   0  0  0  0  0  0  0  0  0  0  0  0
   24.3180   76.6080   15.3540 N   0  0  0  0  0  0  0  0  0  0  0  0
   20.1180   79.6510   18.6790 C   0  0  0  0  0  0  0  0  0  0  0  0
   19.2740   80.6280   19.0240 N   0  0  0  0  0  0  0  0  0  0  0  0
   18.4990   80.2040   20.0080 O   0  0  0  0  0  0  0  0  0  0  0  0
   18.8000   78.9780   20.3270 N   0  0  0  0  0  0  0  0  0  0  0  0
   19.8240   78.5940   19.5040 C   0  0  0  0  0  0  0  0  0  0  0  0
   20.4310   77.3130   19.5470 N   0  0  0  0  0  0  0  0  0  0  0  0
   19.6740   75.2000    8.7410 H   0  0  0  0  0  0  0  0  0  0  0  0
   20.3650   76.7290   10.5690 H   0  0  0  0  0  0  0  0  0  0  0  0
   18.2660   79.8670    8.6810 H   0  0  0  0  0  0  0  0  0  0  0  0
   17.5540   78.3430    6.8240 H   0  0  0  0  0  0  0  0  0  0  0  0
   18.9710   79.9100   11.2600 H   0  0  0  0  0  0  0  0  0  0  0  0
   21.3400   81.3670   12.0170 H   0  0  0  0  0  0  0  0  0  0  0  0
   23.3610   81.1240   14.2410 H   0  0  0  0  0  0  0  0  0  0  0  0
   21.7080   81.5880   14.4500 H   0  0  0  0  0  0  0  0  0  0  0  0
   24.4930   76.3120   14.3660 H   0  0  0  0  0  0  0  0  0  0  0  0
   23.7000   75.9890   15.9190 H   0  0  0  0  0  0  0  0  0  0  0  0
   21.4520   77.2070   19.2860 H   0  0  0  0  0  0  0  0  0  0  0  0
   19.9330   76.4460   19.8250 H   0  0  0  0  0  0  0  0  0  0  0  0
  1  2  1  0  0  0  0
  2  3  1  0  0  0  0
  3 31  1  0  0  0  0
  3  4  2  0  0  0  0
  4 32  1  0  0  0  0
  5  4  1  0  0  0  0
  5  8  1  0  0  0  0
  6 33  1  0  0  0  0
  6  5  2  0  0  0  0
  7  2  2  0  0  0  0
  7  6  1  0  0  0  0
  8  9  2  0  0  0  0
  8 35  1  0  0  0  0
  9 10  1  0  0  0  0
 10 11  1  0  0  0  0
 11 12  2  0  0  0  0
 11 13  1  0  0  0  0
 13 14  1  0  0  0  0
 14 15  1  0  0  0  0
 14 18  1  0  0  0  0
 15 16  2  0  0  0  0
 16 17  1  0  0  0  0
 16 25  1  0  0  0  0
 18 17  2  0  0  0  0
 19 18  1  0  0  0  0
 19 20  2  0  0  0  0
 21 20  1  0  0  0  0
 22 21  1  0  0  0  0
 23 22  2  0  0  0  0
 23 19  1  0  0  0  0
 24 23  1  0  0  0  0
 24 40  1  0  0  0  0
 25 26  2  0  0  0  0
 25 29  1  0  0  0  0
 26 27  1  0  0  0  0
 27 28  1  0  0  0  0
 29 30  1  0  0  0  0
 29 28  2  0  0  0  0
 30 42  1  0  0  0  0
 34  7  1  0  0  0  0
 36 10  1  0  0  0  0
 37 13  1  0  0  0  0
 38 13  1  0  0  0  0
 39 24  1  0  0  0  0
 41 30  1  0  0  0  0
M  END
>  <Pose>
1

>  <Score>
-10.26

$$$$
