
 OpenBabel03222202113D

 50 54  0  0  1  0  0  0  0  0999 V2000
   16.8870   70.6610   12.0240 B   0  0  0  0  0  0  0  0  0  0  0  0
   17.8040   72.1680   12.7260 C   0  0  0  0  0  0  0  0  0  0  0  0
   17.1840   73.4010   12.7770 C   0  0  0  0  0  0  0  0  0  0  0  0
   17.8580   74.5040   13.2930 C   0  0  0  0  0  0  0  0  0  0  0  0
   19.1480   74.4100   13.7650 C   0  0  0  0  0  0  0  0  0  0  0  0
   19.7580   73.1770   13.7110 C   0  0  0  0  0  0  0  0  0  0  0  0
   19.0970   72.0590   13.1960 C   0  0  0  0  0  0  0  0  0  0  0  0
   19.8560   75.5660   14.3050 C   0  0  0  0  0  0  0  0  0  0  0  0
   19.9750   75.9030   15.6060 N   0  0  0  0  0  0  0  0  0  0  0  0
   20.7040   77.0410   15.7270 C   0  0  1  0  0  0  0  0  0  0  0  0
   21.0600   77.4460   14.4960 N   0  0  0  0  0  0  0  0  0  0  0  0
   20.5450   76.5480   13.6240 C   0  0  0  0  0  0  0  0  0  0  0  0
   21.7770   78.5720   14.6680 C   0  0  0  0  0  0  0  0  0  0  0  0
   21.8710   78.8750   16.0100 C   0  0  0  0  0  0  0  0  0  0  0  0
   22.5600   79.9910   16.4700 C   0  0  0  0  0  0  0  0  0  0  0  0
   23.1730   80.8310   15.5690 C   0  0  0  0  0  0  0  0  0  0  0  0
   23.0740   80.5210   14.2300 C   0  0  0  0  0  0  0  0  0  0  0  0
   22.3980   79.4210   13.7460 C   0  0  0  0  0  0  0  0  0  0  0  0
   21.1850   77.8910   16.6480 N   0  0  0  0  0  0  0  0  0  0  0  0
   21.0470   77.8490   18.0900 C   0  0  0  0  0  0  0  0  0  0  0  0
   19.6050   77.6650   18.5090 C   0  0  0  0  0  0  0  0  0  0  0  0
   19.0890   78.8820   19.0690 N   0  0  0  0  0  4  0  0  0  0  0  0
   19.4360   80.0100   18.2300 C   0  0  0  0  0  0  0  0  0  0  0  0
   19.9450   81.1900   19.0230 C   0  0  0  0  0  0  0  0  0  0  0  0
   19.0350   81.4730   20.0440 O   0  0  0  0  0  0  0  0  0  0  0  0
   18.8500   80.4010   20.8910 C   0  0  0  0  0  0  0  0  0  0  0  0
   19.5470   79.1600   20.3970 C   0  0  0  0  0  0  0  0  0  0  0  0
   16.1650   73.4840   12.4060 H   0  0  0  0  0  0  0  0  0  0  0  0
   17.3440   75.4420   13.3140 H   0  0  0  0  0  0  0  0  0  0  0  0
   20.7670   73.0400   14.0660 H   0  0  0  0  0  0  0  0  0  0  0  0
   19.5950   71.0890   13.1610 H   0  0  0  0  0  0  0  0  0  0  0  0
   19.5770   75.3840   16.4150 H   0  0  0  0  0  0  0  0  0  0  0  0
   20.6490   76.5840   12.5490 H   0  0  0  0  0  0  0  0  0  0  0  0
   22.5950   80.1700   17.5270 H   0  0  0  0  0  0  0  0  0  0  0  0
   23.7270   81.7250   15.8970 H   0  0  0  0  0  0  0  0  0  0  0  0
   23.5500   81.1710   13.5180 H   0  0  0  0  0  0  0  0  0  0  0  0
   22.3110   79.1660   12.7170 H   0  0  0  0  0  0  0  0  0  0  0  0
   21.6290   76.9860   18.4950 H   0  0  0  0  0  0  0  0  0  0  0  0
   21.4800   78.7700   18.5240 H   0  0  0  0  0  0  0  0  0  0  0  0
   19.5050   76.8720   19.2510 H   0  0  0  0  0  0  0  0  0  0  0  0
   19.0260   77.4120   17.5990 H   0  0  0  0  0  0  0  0  0  0  0  0
   18.0390   78.8530   19.1030 H   0  0  0  0  0  0  0  0  0  0  0  0
   20.2240   79.7170   17.4800 H   0  0  0  0  0  0  0  0  0  0  0  0
   18.5700   80.3690   17.6320 H   0  0  0  0  0  0  0  0  0  0  0  0
   19.9720   82.0540   18.3270 H   0  0  0  0  0  0  0  0  0  0  0  0
   20.9650   80.9950   19.3940 H   0  0  0  0  0  0  0  0  0  0  0  0
   19.3120   80.6900   21.8760 H   0  0  0  0  0  0  0  0  0  0  0  0
   17.7760   80.1690   21.0670 H   0  0  0  0  0  0  0  0  0  0  0  0
   19.1940   78.3200   21.0600 H   0  0  0  0  0  0  0  0  0  0  0  0
   20.6340   79.2990   20.4790 H   0  0  0  0  0  0  0  0  0  0  0  0
  1  2  1  0  0  0  0
  2  3  2  0  0  0  0
  2  7  1  0  0  0  0
  3  4  1  0  0  0  0
  4 29  1  0  0  0  0
  4  5  2  0  0  0  0
  5  8  1  0  0  0  0
  6  5  1  0  0  0  0
  6 30  1  0  0  0  0
  7  6  2  0  0  0  0
  8  9  1  0  0  0  0
  9 10  1  0  0  0  0
  9 32  1  0  0  0  0
 10 11  1  6  0  0  0
 10 19  1  0  0  0  0
 11 13  1  0  0  0  0
 12  8  2  0  0  0  0
 12 11  1  0  0  0  0
 13 14  1  0  0  0  0
 14 15  2  0  0  0  0
 14 19  1  0  0  0  0
 15 34  1  0  0  0  0
 16 35  1  0  0  0  0
 16 15  1  0  0  0  0
 17 16  2  0  0  0  0
 18 17  1  0  0  0  0
 18 13  2  0  0  0  0
 19 20  1  0  0  0  0
 20 38  1  0  0  0  0
 20 21  1  0  0  0  0
 20 39  1  0  0  0  0
 21 22  1  0  0  0  0
 21 40  1  0  0  0  0
 22 42  1  0  0  0  0
 22 27  1  0  0  0  0
 23 24  1  0  0  0  0
 23 22  1  0  0  0  0
 24 46  1  0  0  0  0
 24 25  1  0  0  0  0
 25 26  1  0  0  0  0
 26 48  1  0  0  0  0
 26 47  1  0  0  0  0
 27 50  1  0  0  0  0
 27 26  1  0  0  0  0
 27 49  1  0  0  0  0
 28  3  1  0  0  0  0
 31  7  1  0  0  0  0
 33 12  1  0  0  0  0
 36 17  1  0  0  0  0
 37 18  1  0  0  0  0
 41 21  1  0  0  0  0
 43 23  1  0  0  0  0
 44 23  1  0  0  0  0
 45 24  1  0  0  0  0
M  END
>  <Pose>
1

>  <Score>
-7.07

$$$$
