
 OpenBabel03222202113D

 60 63  0  0  1  0  0  0  0  0999 V2000
   14.7350   80.4480    7.1030 B   0  0  0  0  0  0  0  0  0  0  0  0
   16.3650   79.5650    7.5540 C   0  0  0  0  0  0  0  0  0  0  0  0
   16.9080   78.6400    6.6940 C   0  0  0  0  0  0  0  0  0  0  0  0
   18.1030   77.9930    7.0210 C   0  0  0  0  0  0  0  0  0  0  0  0
   18.7590   78.2600    8.1980 C   0  0  0  0  0  0  0  0  0  0  0  0
   18.1910   79.1910    9.0390 C   0  0  0  0  0  0  0  0  0  0  0  0
   17.0100   79.8410    8.7310 C   0  0  0  0  0  0  0  0  0  0  0  0
   20.0100   77.5880    8.5180 C   0  0  2  0  0  0  0  0  0  0  0  0
   19.7960   76.1850    8.8080 N   0  0  0  0  0  0  0  0  0  0  0  0
   19.3030   76.1220   10.1480 C   0  0  0  0  0  0  0  0  0  0  0  0
   18.5910   75.2160   10.6470 O   0  0  0  0  0  0  0  0  0  0  0  0
   19.8000   77.3230   10.8110 C   0  0  0  0  0  0  0  0  0  0  0  0
   19.6300   77.7090   11.9940 O   0  0  0  0  0  0  0  0  0  0  0  0
   20.5810   78.0690    9.8300 C   0  0  0  0  0  0  0  0  0  0  0  0
   21.5120   78.9600   10.0710 C   0  0  0  0  0  0  0  0  0  0  0  0
   22.0800   79.5810    8.9450 O   0  0  0  0  0  0  0  0  0  0  0  0
   21.9630   79.3080   11.4150 C   0  0  0  0  0  0  0  0  0  0  0  0
   22.3460   78.3870   12.3640 C   0  0  0  0  0  0  0  0  0  0  0  0
   22.7550   78.7080   13.6460 C   0  0  0  0  0  0  0  0  0  0  0  0
   22.7870   80.0250   14.0070 C   0  0  0  0  0  0  0  0  0  0  0  0
   22.4090   80.9910   13.0790 C   0  0  0  0  0  0  0  0  0  0  0  0
   22.0070   80.6330   11.8090 C   0  0  0  0  0  0  0  0  0  0  0  0
   23.1030   77.6580   14.4640 O   0  0  0  0  0  0  0  0  0  0  0  0
   24.3410   77.3920   15.0280 C   0  0  0  0  0  0  0  0  0  0  0  0
   20.0310   75.0360    7.9170 C   0  0  0  0  0  0  0  0  0  0  0  0
   19.5500   75.3580    6.4940 C   0  0  0  0  0  0  0  0  0  0  0  0
   18.0980   74.9960    6.3700 C   0  0  0  0  0  0  0  0  0  0  0  0
   17.5510   75.6370    5.1990 N   0  0  0  0  0  4  0  0  0  0  0  0
   16.5460   76.6130    5.4820 C   0  0  0  0  0  0  0  0  0  0  0  0
   15.2540   76.0150    5.9250 C   0  0  0  0  0  0  0  0  0  0  0  0
   14.7840   75.1070    4.9920 O   0  0  0  0  0  0  0  0  0  0  0  0
   15.7280   74.0850    4.8820 C   0  0  0  0  0  0  0  0  0  0  0  0
   16.9810   74.6800    4.2680 C   0  0  0  0  0  0  0  0  0  0  0  0
   16.3770   78.4440    5.7780 H   0  0  0  0  0  0  0  0  0  0  0  0
   18.4780   77.2870    6.3200 H   0  0  0  0  0  0  0  0  0  0  0  0
   18.7290   79.3820    9.9580 H   0  0  0  0  0  0  0  0  0  0  0  0
   16.6000   80.5670    9.4130 H   0  0  0  0  0  0  0  0  0  0  0  0
   20.7410   77.7390    7.7020 H   0  0  0  0  0  0  0  0  0  0  0  0
   22.3400   77.3470   12.0860 H   0  0  0  0  0  0  0  0  0  0  0  0
   23.1030   80.3010   15.0070 H   0  0  0  0  0  0  0  0  0  0  0  0
   22.4560   82.0230   13.4290 H   0  0  0  0  0  0  0  0  0  0  0  0
   21.7180   81.4400   11.1170 H   0  0  0  0  0  0  0  0  0  0  0  0
   24.6100   76.2990   14.9970 H   0  0  0  0  0  0  0  0  0  0  0  0
   25.1160   78.0070   14.5630 H   0  0  0  0  0  0  0  0  0  0  0  0
   24.2930   77.6290   16.1120 H   0  0  0  0  0  0  0  0  0  0  0  0
   19.4070   74.2090    8.2560 H   0  0  0  0  0  0  0  0  0  0  0  0
   21.1110   74.8690    7.9370 H   0  0  0  0  0  0  0  0  0  0  0  0
   19.6560   76.4170    6.2670 H   0  0  0  0  0  0  0  0  0  0  0  0
   20.1390   74.7760    5.7540 H   0  0  0  0  0  0  0  0  0  0  0  0
   18.0620   73.8840    6.2920 H   0  0  0  0  0  0  0  0  0  0  0  0
   17.5600   75.3180    7.2590 H   0  0  0  0  0  0  0  0  0  0  0  0
   18.3350   76.1060    4.6880 H   0  0  0  0  0  0  0  0  0  0  0  0
   16.9310   77.3180    6.2520 H   0  0  0  0  0  0  0  0  0  0  0  0
   16.3810   77.2200    4.5570 H   0  0  0  0  0  0  0  0  0  0  0  0
   15.4030   75.4500    6.8790 H   0  0  0  0  0  0  0  0  0  0  0  0
   14.5290   76.8390    6.1140 H   0  0  0  0  0  0  0  0  0  0  0  0
   15.3790   73.2440    4.2530 H   0  0  0  0  0  0  0  0  0  0  0  0
   15.9990   73.6570    5.8720 H   0  0  0  0  0  0  0  0  0  0  0  0
   16.6530   75.2390    3.3700 H   0  0  0  0  0  0  0  0  0  0  0  0
   17.6940   73.8920    3.9860 H   0  0  0  0  0  0  0  0  0  0  0  0
  1  2  1  0  0  0  0
  2  7  1  0  0  0  0
  3  4  1  0  0  0  0
  3  2  2  0  0  0  0
  4  5  2  0  0  0  0
  5  8  1  0  0  0  0
  5  6  1  0  0  0  0
  6 36  1  0  0  0  0
  7  6  2  0  0  0  0
  7 37  1  0  0  0  0
  8 38  1  6  0  0  0
  8  9  1  0  0  0  0
  8 14  1  0  0  0  0
  9 10  1  0  0  0  0
 10 11  2  0  0  0  0
 10 12  1  0  0  0  0
 12 13  2  0  0  0  0
 14 15  2  0  0  0  0
 14 12  1  0  0  0  0
 15 17  1  0  0  0  0
 16 15  1  0  0  0  0
 17 22  2  0  0  0  0
 17 18  1  0  0  0  0
 18 19  2  0  0  0  0
 19 20  1  0  0  0  0
 19 23  1  0  0  0  0
 20 40  1  0  0  0  0
 21 41  1  0  0  0  0
 21 20  2  0  0  0  0
 22 21  1  0  0  0  0
 23 24  1  0  0  0  0
 24 45  1  0  0  0  0
 25 47  1  0  0  0  0
 25 46  1  0  0  0  0
 25  9  1  0  0  0  0
 26 25  1  0  0  0  0
 27 26  1  0  0  0  0
 27 51  1  0  0  0  0
 28 29  1  0  0  0  0
 28 27  1  0  0  0  0
 29 30  1  0  0  0  0
 29 53  1  0  0  0  0
 30 56  1  0  0  0  0
 30 55  1  0  0  0  0
 31 30  1  0  0  0  0
 32 31  1  0  0  0  0
 32 58  1  0  0  0  0
 33 32  1  0  0  0  0
 33 28  1  0  0  0  0
 34  3  1  0  0  0  0
 35  4  1  0  0  0  0
 39 18  1  0  0  0  0
 42 22  1  0  0  0  0
 43 24  1  0  0  0  0
 44 24  1  0  0  0  0
 48 26  1  0  0  0  0
 49 26  1  0  0  0  0
 50 27  1  0  0  0  0
 52 28  1  0  0  0  0
 54 29  1  0  0  0  0
 57 32  1  0  0  0  0
 59 33  1  0  0  0  0
 60 33  1  0  0  0  0
M  END
>  <Pose>
1

>  <Score>
-5.26

$$$$
