
 OpenBabel03222202113D

 56 59  0  0  1  0  0  0  0  0999 V2000
   26.2410   79.0580   16.7870 B   0  0  0  0  0  0  0  0  0  0  0  0
   24.6450   78.3010   16.0460 C   0  0  0  0  0  0  0  0  0  0  0  0
   23.3960   78.7850   16.3680 C   0  0  0  0  0  0  0  0  0  0  0  0
   22.2720   78.2300   15.8290 C   0  0  0  0  0  0  0  0  0  0  0  0
   22.3230   77.1530   14.9310 C   0  0  0  0  0  0  0  0  0  0  0  0
   23.5500   76.6830   14.6180 C   0  0  0  0  0  0  0  0  0  0  0  0
   24.7020   77.2470   15.1670 C   0  0  0  0  0  0  0  0  0  0  0  0
   21.0960   76.6670   14.4280 C   0  0  1  0  0  0  0  0  0  0  0  0
   19.8900   76.4850   15.1110 N   0  0  0  0  0  0  0  0  0  0  0  0
   19.0580   75.7340   14.1480 C   0  0  0  0  0  0  0  0  0  0  0  0
   18.1490   74.9000   14.4140 O   0  0  0  0  0  0  0  0  0  0  0  0
   19.5310   76.1810   12.8340 C   0  0  0  0  0  0  0  0  0  0  0  0
   19.1150   75.8300   11.6880 O   0  0  0  0  0  0  0  0  0  0  0  0
   20.6080   77.1530   13.1070 C   0  0  0  0  0  0  0  0  0  0  0  0
   20.9650   78.1840   12.3750 C   0  0  0  0  0  0  0  0  0  0  0  0
   21.9610   79.0470   12.8150 O   0  0  0  0  0  0  0  0  0  0  0  0
   20.3680   78.4850   11.0830 C   0  0  0  0  0  0  0  0  0  0  0  0
   19.1990   79.1470   10.8750 C   0  0  0  0  0  0  0  0  0  0  0  0
   18.7620   79.4110    9.5840 C   0  0  0  0  0  0  0  0  0  0  0  0
   19.5050   79.0040    8.4990 C   0  0  0  0  0  0  0  0  0  0  0  0
   20.6920   78.3320    8.6680 C   0  0  0  0  0  0  0  0  0  0  0  0
   21.1090   78.0800    9.9670 C   0  0  0  0  0  0  0  0  0  0  0  0
   19.0670   79.2700    7.0960 C   0  0  0  0  0  0  0  0  0  0  0  0
   19.3200   76.7850   16.4160 C   0  0  0  0  0  0  0  0  0  0  0  0
   20.2000   77.6420   17.2880 C   0  0  0  0  0  0  0  0  0  0  0  0
   19.5220   78.2280   18.3970 N   0  0  0  0  0  4  0  0  0  0  0  0
   19.7440   79.6610   18.4210 C   0  0  0  0  0  0  0  0  0  0  0  0
   18.9790   80.2480   19.5770 C   0  0  0  0  0  0  0  0  0  0  0  0
   19.6210   79.8010   20.7430 O   0  0  0  0  0  0  0  0  0  0  0  0
   19.4830   78.4330   20.8000 C   0  0  0  0  0  0  0  0  0  0  0  0
   20.1390   77.7280   19.6410 C   0  0  0  0  0  0  0  0  0  0  0  0
   23.3640   79.6230   17.0680 H   0  0  0  0  0  0  0  0  0  0  0  0
   21.2950   78.6520   16.1170 H   0  0  0  0  0  0  0  0  0  0  0  0
   23.7640   75.8680   13.9380 H   0  0  0  0  0  0  0  0  0  0  0  0
   25.6970   76.8780   14.9240 H   0  0  0  0  0  0  0  0  0  0  0  0
   21.3710   75.5380   14.1360 H   0  0  0  0  0  0  0  0  0  0  0  0
   18.5920   79.4420   11.7320 H   0  0  0  0  0  0  0  0  0  0  0  0
   17.8310   79.9400    9.4330 H   0  0  0  0  0  0  0  0  0  0  0  0
   21.2990   77.9980    7.8180 H   0  0  0  0  0  0  0  0  0  0  0  0
   22.0420   77.5500   10.1520 H   0  0  0  0  0  0  0  0  0  0  0  0
   18.8090   78.3360    6.5580 H   0  0  0  0  0  0  0  0  0  0  0  0
   18.1540   79.9270    7.1090 H   0  0  0  0  0  0  0  0  0  0  0  0
   19.8420   79.8250    6.5300 H   0  0  0  0  0  0  0  0  0  0  0  0
   18.3890   77.4020   16.2510 H   0  0  0  0  0  0  0  0  0  0  0  0
   19.0730   75.8880   16.9760 H   0  0  0  0  0  0  0  0  0  0  0  0
   21.0350   76.9970   17.7220 H   0  0  0  0  0  0  0  0  0  0  0  0
   20.7070   78.4320   16.6640 H   0  0  0  0  0  0  0  0  0  0  0  0
   18.5160   78.0070   18.4230 H   0  0  0  0  0  0  0  0  0  0  0  0
   19.4600   80.1900   17.5110 H   0  0  0  0  0  0  0  0  0  0  0  0
   20.8320   79.8480   18.5640 H   0  0  0  0  0  0  0  0  0  0  0  0
   17.9290   79.9280   19.5760 H   0  0  0  0  0  0  0  0  0  0  0  0
   19.0170   81.3530   19.5570 H   0  0  0  0  0  0  0  0  0  0  0  0
   19.9920   78.0940   21.7410 H   0  0  0  0  0  0  0  0  0  0  0  0
   18.4250   78.1600   20.8570 H   0  0  0  0  0  0  0  0  0  0  0  0
   21.2090   77.9890   19.5750 H   0  0  0  0  0  0  0  0  0  0  0  0
   20.0080   76.6500   19.7670 H   0  0  0  0  0  0  0  0  0  0  0  0
  2  3  1  0  0  0  0
  2  1  1  0  0  0  0
  3 32  1  0  0  0  0
  4 33  1  0  0  0  0
  4  3  2  0  0  0  0
  5  4  1  0  0  0  0
  6  5  2  0  0  0  0
  6  7  1  0  0  0  0
  7  2  2  0  0  0  0
  8 36  1  6  0  0  0
  8  5  1  0  0  0  0
  8  9  1  0  0  0  0
  9 24  1  0  0  0  0
 10 11  2  0  0  0  0
 10  9  1  0  0  0  0
 12 14  1  0  0  0  0
 12 10  1  0  0  0  0
 13 12  2  0  0  0  0
 14  8  1  0  0  0  0
 15 16  1  0  0  0  0
 15 14  2  0  0  0  0
 17 15  1  0  0  0  0
 18 17  1  0  0  0  0
 18 37  1  0  0  0  0
 19 18  2  0  0  0  0
 20 21  2  0  0  0  0
 20 19  1  0  0  0  0
 21 22  1  0  0  0  0
 22 40  1  0  0  0  0
 22 17  2  0  0  0  0
 23 42  1  0  0  0  0
 23 20  1  0  0  0  0
 24 45  1  0  0  0  0
 24 25  1  0  0  0  0
 25 46  1  0  0  0  0
 25 26  1  0  0  0  0
 26 27  1  0  0  0  0
 26 48  1  0  0  0  0
 26 31  1  0  0  0  0
 27 50  1  0  0  0  0
 27 28  1  0  0  0  0
 28 29  1  0  0  0  0
 29 30  1  0  0  0  0
 30 54  1  0  0  0  0
 30 53  1  0  0  0  0
 31 56  1  0  0  0  0
 31 30  1  0  0  0  0
 34  6  1  0  0  0  0
 35  7  1  0  0  0  0
 38 19  1  0  0  0  0
 39 21  1  0  0  0  0
 41 23  1  0  0  0  0
 43 23  1  0  0  0  0
 44 24  1  0  0  0  0
 47 25  1  0  0  0  0
 49 27  1  0  0  0  0
 51 28  1  0  0  0  0
 52 28  1  0  0  0  0
 55 31  1  0  0  0  0
M  END
>  <Pose>
1

>  <Score>
-5.77

$$$$
