
 OpenBabel03222202113D

 53 56  0  0  1  0  0  0  0  0999 V2000
   18.0930   72.5850   12.4460 B   0  0  0  0  0  0  0  0  0  0  0  0
   19.2180   73.9510   13.1440 C   0  0  0  0  0  0  0  0  0  0  0  0
   19.0250   75.2890   12.8880 C   0  0  0  0  0  0  0  0  0  0  0  0
   19.8760   76.2680   13.4210 C   0  0  0  0  0  0  0  0  0  0  0  0
   20.9320   75.9220   14.2170 C   0  0  0  0  0  0  0  0  0  0  0  0
   21.1000   74.5740   14.4560 C   0  0  0  0  0  0  0  0  0  0  0  0
   20.2740   73.6000   13.9410 C   0  0  0  0  0  0  0  0  0  0  0  0
   21.8290   76.8650   14.7670 C   0  0  1  0  0  0  0  0  0  0  0  0
   22.3550   77.9540   14.0270 N   0  0  0  0  0  0  0  0  0  0  0  0
   23.1740   78.6610   15.0070 C   0  0  0  0  0  0  0  0  0  0  0  0
   24.1970   79.3550   14.7570 O   0  0  0  0  0  0  0  0  0  0  0  0
   22.5600   78.3940   16.3060 C   0  0  0  0  0  0  0  0  0  0  0  0
   22.9210   78.8050   17.4390 O   0  0  0  0  0  0  0  0  0  0  0  0
   21.4060   77.5340   16.0330 C   0  0  0  0  0  0  0  0  0  0  0  0
   20.2850   77.4420   16.7250 C   0  0  0  0  0  0  0  0  0  0  0  0
   19.2580   76.6190   16.2890 O   0  0  0  0  0  0  0  0  0  0  0  0
   20.0420   78.1650   17.9660 C   0  0  0  0  0  0  0  0  0  0  0  0
   19.7910   79.5340   17.8040 C   0  0  0  0  0  0  0  0  0  0  0  0
   19.5030   80.3540   18.8700 C   0  0  0  0  0  0  0  0  0  0  0  0
   19.4640   79.7900   20.1410 C   0  0  0  0  0  0  0  0  0  0  0  0
   19.7110   78.4430   20.2920 C   0  0  0  0  0  0  0  0  0  0  0  0
   19.9980   77.6300   19.2160 C   0  0  0  0  0  0  0  0  0  0  0  0
   19.0970   80.8420   21.4900 Cl  0  0  0  0  0  0  0  0  0  0  0  0
   22.2560   78.3730   12.6270 C   0  0  0  0  0  0  0  0  0  0  0  0
   20.8920   78.8350   12.2140 C   0  0  0  0  0  0  0  0  0  0  0  0
   20.9040   80.1470   11.6070 N   0  0  0  0  0  4  0  0  0  0  0  0
   20.2240   80.1850   10.3430 C   0  0  0  0  0  0  0  0  0  0  0  0
   20.9410   79.4590    9.2430 C   0  0  0  0  0  0  0  0  0  0  0  0
   22.2710   79.8670    9.1230 O   0  0  0  0  0  0  0  0  0  0  0  0
   22.8820   79.5730   10.3520 C   0  0  0  0  0  0  0  0  0  0  0  0
   22.2880   80.5170   11.3740 C   0  0  0  0  0  0  0  0  0  0  0  0
   18.1980   75.5530   12.2640 H   0  0  0  0  0  0  0  0  0  0  0  0
   19.6030   77.2720   13.1530 H   0  0  0  0  0  0  0  0  0  0  0  0
   21.9220   74.1970   15.0850 H   0  0  0  0  0  0  0  0  0  0  0  0
   20.4390   72.5500   14.1530 H   0  0  0  0  0  0  0  0  0  0  0  0
   22.7630   76.2790   15.1050 H   0  0  0  0  0  0  0  0  0  0  0  0
   19.8150   79.9960   16.8270 H   0  0  0  0  0  0  0  0  0  0  0  0
   19.3140   81.4080   18.7040 H   0  0  0  0  0  0  0  0  0  0  0  0
   19.6730   78.0380   21.2900 H   0  0  0  0  0  0  0  0  0  0  0  0
   20.1600   76.5660   19.3550 H   0  0  0  0  0  0  0  0  0  0  0  0
   22.4750   77.4590   11.9990 H   0  0  0  0  0  0  0  0  0  0  0  0
   22.9640   79.1880   12.4020 H   0  0  0  0  0  0  0  0  0  0  0  0
   20.3110   78.9600   13.1670 H   0  0  0  0  0  0  0  0  0  0  0  0
   20.3000   78.1390   11.6140 H   0  0  0  0  0  0  0  0  0  0  0  0
   20.4920   80.8750   12.2210 H   0  0  0  0  0  0  0  0  0  0  0  0
   19.1850   79.8410   10.3770 H   0  0  0  0  0  0  0  0  0  0  0  0
   20.1870   81.2680   10.0370 H   0  0  0  0  0  0  0  0  0  0  0  0
   20.8640   78.3540    9.3400 H   0  0  0  0  0  0  0  0  0  0  0  0
   20.4470   79.7470    8.2830 H   0  0  0  0  0  0  0  0  0  0  0  0
   23.9810   79.7080   10.3010 H   0  0  0  0  0  0  0  0  0  0  0  0
   22.6870   78.5200   10.5610 H   0  0  0  0  0  0  0  0  0  0  0  0
   22.8760   80.5060   12.3260 H   0  0  0  0  0  0  0  0  0  0  0  0
   22.3290   81.5400   10.9170 H   0  0  0  0  0  0  0  0  0  0  0  0
  1  2  1  0  0  0  0
  2  7  1  0  0  0  0
  3  2  2  0  0  0  0
  3  4  1  0  0  0  0
  4  5  2  0  0  0  0
  5  6  1  0  0  0  0
  5  8  1  0  0  0  0
  6 34  1  0  0  0  0
  7 35  1  0  0  0  0
  7  6  2  0  0  0  0
  8 36  1  1  0  0  0
  8 14  1  0  0  0  0
  9  8  1  0  0  0  0
  9 10  1  0  0  0  0
 10 12  1  0  0  0  0
 11 10  2  0  0  0  0
 12 13  2  0  0  0  0
 14 12  1  0  0  0  0
 14 15  2  0  0  0  0
 15 17  1  0  0  0  0
 16 15  1  0  0  0  0
 17 22  1  0  0  0  0
 18 17  2  0  0  0  0
 18 19  1  0  0  0  0
 19 20  2  0  0  0  0
 20 21  1  0  0  0  0
 20 23  1  0  0  0  0
 21 39  1  0  0  0  0
 22 40  1  0  0  0  0
 22 21  2  0  0  0  0
 24  9  1  0  0  0  0
 25 24  1  0  0  0  0
 25 43  1  0  0  0  0
 26 25  1  0  0  0  0
 26 45  1  0  0  0  0
 27 46  1  0  0  0  0
 27 26  1  0  0  0  0
 28 48  1  0  0  0  0
 28 27  1  0  0  0  0
 29 28  1  0  0  0  0
 29 30  1  0  0  0  0
 30 51  1  0  0  0  0
 30 31  1  0  0  0  0
 31 26  1  0  0  0  0
 31 52  1  0  0  0  0
 32  3  1  0  0  0  0
 33  4  1  0  0  0  0
 37 18  1  0  0  0  0
 38 19  1  0  0  0  0
 41 24  1  0  0  0  0
 42 24  1  0  0  0  0
 44 25  1  0  0  0  0
 47 27  1  0  0  0  0
 49 28  1  0  0  0  0
 50 30  1  0  0  0  0
 53 31  1  0  0  0  0
M  END
>  <Pose>
1

>  <Score>
-6.31

$$$$
