
 OpenBabel03222202113D

 55 58  0  0  1  0  0  0  0  0999 V2000
   20.5180   77.5110   17.5240 B   0  0  0  0  0  0  0  0  0  0  0  0
   21.0370   77.9300   15.7350 C   0  0  0  0  0  0  0  0  0  0  0  0
   21.0160   76.9930   14.7250 C   0  0  0  0  0  0  0  0  0  0  0  0
   21.3950   77.3130   13.4360 C   0  0  0  0  0  0  0  0  0  0  0  0
   21.8060   78.5540   13.0870 C   0  0  0  0  0  0  0  0  0  0  0  0
   21.8220   79.5010   14.1250 C   0  0  0  0  0  0  0  0  0  0  0  0
   21.4490   79.2060   15.4160 C   0  0  0  0  0  0  0  0  0  0  0  0
   22.2470   78.9990   11.7800 C   0  0  1  0  0  0  0  0  0  0  0  0
   23.5940   78.7350   11.3890 N   0  0  0  0  0  0  0  0  0  0  0  0
   23.6030   78.8190    9.9400 C   0  0  0  0  0  0  0  0  0  0  0  0
   24.6330   79.0090    9.2420 O   0  0  0  0  0  0  0  0  0  0  0  0
   22.2400   78.6460    9.4760 C   0  0  0  0  0  0  0  0  0  0  0  0
   21.8210   78.6490    8.2790 O   0  0  0  0  0  0  0  0  0  0  0  0
   21.4270   78.4640   10.6610 C   0  0  0  0  0  0  0  0  0  0  0  0
   20.2300   77.9050   10.7020 C   0  0  0  0  0  0  0  0  0  0  0  0
   19.6400   77.7900   11.9840 O   0  0  0  0  0  0  0  0  0  0  0  0
   19.5070   77.4260    9.5410 C   0  0  0  0  0  0  0  0  0  0  0  0
   19.6950   76.0780    9.2120 C   0  0  0  0  0  0  0  0  0  0  0  0
   19.0370   75.4790    8.1580 C   0  0  0  0  0  0  0  0  0  0  0  0
   18.1830   76.2030    7.4120 N   0  0  0  0  0  0  0  0  0  0  0  0
   17.9820   77.5040    7.7070 C   0  0  0  0  0  0  0  0  0  0  0  0
   18.6410   78.1200    8.7690 C   0  0  0  0  0  0  0  0  0  0  0  0
   24.8140   78.5030   12.1650 C   0  0  0  0  0  0  0  0  0  0  0  0
   25.0660   77.0820   12.5380 C   0  0  0  0  0  0  0  0  0  0  0  0
   25.5820   76.9510   13.9630 C   0  0  0  0  0  0  0  0  0  0  0  0
   24.8800   77.8390   14.8590 N   0  0  0  0  0  4  0  0  0  0  0  0
   24.1700   77.1310   15.9000 C   0  0  0  0  0  0  0  0  0  0  0  0
   23.8490   78.1580   16.9890 C   0  0  0  0  0  0  0  0  0  0  0  0
   25.0170   78.4210   17.7030 O   0  0  0  0  0  0  0  0  0  0  0  0
   26.1270   78.4990   16.8630 C   0  0  0  0  0  0  0  0  0  0  0  0
   25.7240   78.8370   15.4420 C   0  0  0  0  0  0  0  0  0  0  0  0
   20.6910   75.9960   14.9860 H   0  0  0  0  0  0  0  0  0  0  0  0
   21.3480   76.5390   12.6570 H   0  0  0  0  0  0  0  0  0  0  0  0
   22.1370   80.5190   13.9350 H   0  0  0  0  0  0  0  0  0  0  0  0
   21.4770   79.9770   16.1960 H   0  0  0  0  0  0  0  0  0  0  0  0
   22.1250   80.1150   11.6930 H   0  0  0  0  0  0  0  0  0  0  0  0
   20.3710   75.4570    9.7810 H   0  0  0  0  0  0  0  0  0  0  0  0
   19.1770   74.4400    7.8970 H   0  0  0  0  0  0  0  0  0  0  0  0
   17.2910   78.0930    7.1060 H   0  0  0  0  0  0  0  0  0  0  0  0
   18.4170   79.1520    8.9760 H   0  0  0  0  0  0  0  0  0  0  0  0
   24.7240   79.0990   13.0890 H   0  0  0  0  0  0  0  0  0  0  0  0
   25.7120   78.8800   11.6330 H   0  0  0  0  0  0  0  0  0  0  0  0
   24.1150   76.4640   12.4430 H   0  0  0  0  0  0  0  0  0  0  0  0
   25.8010   76.6160   11.8770 H   0  0  0  0  0  0  0  0  0  0  0  0
   25.4010   75.9290   14.2990 H   0  0  0  0  0  0  0  0  0  0  0  0
   26.6420   77.2500   13.9520 H   0  0  0  0  0  0  0  0  0  0  0  0
   24.1580   78.3330   14.2810 H   0  0  0  0  0  0  0  0  0  0  0  0
   23.2050   76.7160   15.5740 H   0  0  0  0  0  0  0  0  0  0  0  0
   24.7830   76.3320   16.3370 H   0  0  0  0  0  0  0  0  0  0  0  0
   23.0260   77.8270   17.6190 H   0  0  0  0  0  0  0  0  0  0  0  0
   23.5640   79.0870   16.4580 H   0  0  0  0  0  0  0  0  0  0  0  0
   26.8100   79.3050   17.1970 H   0  0  0  0  0  0  0  0  0  0  0  0
   26.6650   77.5240   16.8620 H   0  0  0  0  0  0  0  0  0  0  0  0
   26.6300   78.9460   14.8480 H   0  0  0  0  0  0  0  0  0  0  0  0
   25.2320   79.8420   15.4900 H   0  0  0  0  0  0  0  0  0  0  0  0
  2  1  1  0  0  0  0
  3 32  1  0  0  0  0
  3  2  2  0  0  0  0
  4  3  1  0  0  0  0
  5  4  2  0  0  0  0
  5  6  1  0  0  0  0
  6  7  2  0  0  0  0
  7  2  1  0  0  0  0
  7 35  1  0  0  0  0
  8 36  1  6  0  0  0
  8  5  1  0  0  0  0
  9  8  1  0  0  0  0
  9 23  1  0  0  0  0
 10  9  1  0  0  0  0
 11 10  2  0  0  0  0
 12 10  1  0  0  0  0
 12 14  1  0  0  0  0
 13 12  2  0  0  0  0
 14 15  2  0  0  0  0
 14  8  1  0  0  0  0
 15 16  1  0  0  0  0
 17 15  1  0  0  0  0
 18 17  1  0  0  0  0
 18 37  1  0  0  0  0
 19 18  2  0  0  0  0
 20 21  2  0  0  0  0
 20 19  1  0  0  0  0
 21 22  1  0  0  0  0
 22 40  1  0  0  0  0
 22 17  2  0  0  0  0
 23 24  1  0  0  0  0
 23 41  1  0  0  0  0
 24 25  1  0  0  0  0
 25 45  1  0  0  0  0
 25 26  1  0  0  0  0
 26 31  1  0  0  0  0
 26 27  1  0  0  0  0
 27 49  1  0  0  0  0
 27 28  1  0  0  0  0
 28 50  1  0  0  0  0
 28 29  1  0  0  0  0
 30 52  1  0  0  0  0
 30 29  1  0  0  0  0
 31 55  1  0  0  0  0
 31 30  1  0  0  0  0
 33  4  1  0  0  0  0
 34  6  1  0  0  0  0
 38 19  1  0  0  0  0
 39 21  1  0  0  0  0
 42 23  1  0  0  0  0
 43 24  1  0  0  0  0
 44 24  1  0  0  0  0
 46 25  1  0  0  0  0
 47 26  1  0  0  0  0
 48 27  1  0  0  0  0
 51 28  1  0  0  0  0
 53 30  1  0  0  0  0
 54 31  1  0  0  0  0
M  END
>  <Pose>
1

>  <Score>
-4.53

$$$$
