
 OpenBabel03222202113D

 57 60  0  0  1  0  0  0  0  0999 V2000
   20.0920   81.1130   19.2890 B   0  0  0  0  0  0  0  0  0  0  0  0
   20.7830   80.1960   17.7480 C   0  0  0  0  0  0  0  0  0  0  0  0
   21.1300   78.8590   17.8190 C   0  0  0  0  0  0  0  0  0  0  0  0
   21.6300   78.2070   16.6930 C   0  0  0  0  0  0  0  0  0  0  0  0
   21.7970   78.8480   15.4890 C   0  0  0  0  0  0  0  0  0  0  0  0
   21.4450   80.1790   15.4400 C   0  0  0  0  0  0  0  0  0  0  0  0
   20.9510   80.8330   16.5440 C   0  0  0  0  0  0  0  0  0  0  0  0
   22.3430   78.1410   14.3090 C   0  0  1  0  0  0  0  0  0  0  0  0
   22.2590   76.6800   14.4900 N   0  0  0  0  0  0  0  0  0  0  0  0
   20.8800   76.3780   14.3110 C   0  0  0  0  0  0  0  0  0  0  0  0
   20.3040   75.3650   14.8030 O   0  0  0  0  0  0  0  0  0  0  0  0
   20.2750   77.4150   13.4810 C   0  0  0  0  0  0  0  0  0  0  0  0
   19.0860   77.4800   13.1090 O   0  0  0  0  0  0  0  0  0  0  0  0
   21.3540   78.3390   13.1850 C   0  0  0  0  0  0  0  0  0  0  0  0
   21.4760   79.1410   12.1580 C   0  0  0  0  0  0  0  0  0  0  0  0
   22.6050   79.9310   11.9970 O   0  0  0  0  0  0  0  0  0  0  0  0
   20.4430   79.2470   11.1450 C   0  0  0  0  0  0  0  0  0  0  0  0
   19.9890   78.3630   10.2330 N   0  0  0  0  0  0  0  0  0  0  0  0
   19.0350   78.9130    9.4680 C   0  0  0  0  0  0  0  0  0  0  0  0
   18.8850   80.1800    9.9130 N   0  0  0  0  0  0  0  0  0  0  0  0
   19.7040   80.4280   10.9160 C   0  0  0  0  0  0  0  0  0  0  0  0
   19.8830   81.6830   11.7150 C   0  0  0  0  0  0  0  0  0  0  0  0
   18.3780   78.2180    8.4530 C   0  0  0  0  0  0  0  0  0  0  0  0
   18.6980   76.9040    8.2010 C   0  0  0  0  0  0  0  0  0  0  0  0
   19.6770   76.3550    8.9970 C   0  0  0  0  0  0  0  0  0  0  0  0
   20.3090   77.0650    9.9890 C   0  0  0  0  0  0  0  0  0  0  0  0
   23.3510   75.7940   14.7980 C   0  0  0  0  0  0  0  0  0  0  0  0
   24.6470   76.3610   15.2280 C   0  0  0  0  0  0  0  0  0  0  0  0
   24.7120   77.3450   16.3280 C   0  0  0  0  0  0  0  0  0  0  0  0
   25.3490   78.6010   16.0710 N   0  0  0  0  0  4  0  0  0  0  0  0
   24.5100   79.6450   16.7260 C   0  0  0  0  0  0  0  0  0  0  0  0
   26.6110   78.6680   16.7790 C   0  0  0  0  0  0  0  0  0  0  0  0
   21.0040   78.3310   18.7720 H   0  0  0  0  0  0  0  0  0  0  0  0
   21.8910   77.1660   16.7760 H   0  0  0  0  0  0  0  0  0  0  0  0
   21.5830   80.6930   14.5000 H   0  0  0  0  0  0  0  0  0  0  0  0
   20.6890   81.8680   16.4650 H   0  0  0  0  0  0  0  0  0  0  0  0
   23.3470   78.4660   14.0270 H   0  0  0  0  0  0  0  0  0  0  0  0
   20.9350   81.8500   11.9730 H   0  0  0  0  0  0  0  0  0  0  0  0
   19.2490   81.6350   12.6500 H   0  0  0  0  0  0  0  0  0  0  0  0
   19.5180   82.5540   11.1330 H   0  0  0  0  0  0  0  0  0  0  0  0
   17.6130   78.6960    7.8560 H   0  0  0  0  0  0  0  0  0  0  0  0
   18.1990   76.3420    7.4150 H   0  0  0  0  0  0  0  0  0  0  0  0
   19.9300   75.3110    8.7960 H   0  0  0  0  0  0  0  0  0  0  0  0
   21.0720   76.6290   10.6030 H   0  0  0  0  0  0  0  0  0  0  0  0
   23.5220   75.0630   13.9540 H   0  0  0  0  0  0  0  0  0  0  0  0
   22.9770   75.1500   15.6650 H   0  0  0  0  0  0  0  0  0  0  0  0
   25.2760   76.6830   14.3440 H   0  0  0  0  0  0  0  0  0  0  0  0
   25.2490   75.4530   15.6070 H   0  0  0  0  0  0  0  0  0  0  0  0
   25.1360   76.8840   17.2740 H   0  0  0  0  0  0  0  0  0  0  0  0
   23.6450   77.5690   16.6540 H   0  0  0  0  0  0  0  0  0  0  0  0
   25.4810   78.8620   15.0940 H   0  0  0  0  0  0  0  0  0  0  0  0
   24.9510   80.6400   16.5790 H   0  0  0  0  0  0  0  0  0  0  0  0
   23.4780   79.5850   16.3260 H   0  0  0  0  0  0  0  0  0  0  0  0
   24.5710   79.4050   17.8070 H   0  0  0  0  0  0  0  0  0  0  0  0
   27.0400   77.6530   16.9480 H   0  0  0  0  0  0  0  0  0  0  0  0
   27.3320   79.2070   16.1330 H   0  0  0  0  0  0  0  0  0  0  0  0
   26.5530   79.2450   17.7200 H   0  0  0  0  0  0  0  0  0  0  0  0
  2  3  1  0  0  0  0
  2  1  1  0  0  0  0
  3 33  1  0  0  0  0
  4 34  1  0  0  0  0
  4  3  2  0  0  0  0
  5  4  1  0  0  0  0
  6  5  2  0  0  0  0
  6  7  1  0  0  0  0
  7  2  2  0  0  0  0
  8 37  1  6  0  0  0
  8  9  1  0  0  0  0
  8  5  1  0  0  0  0
  9 27  1  0  0  0  0
 10  9  1  0  0  0  0
 10 11  2  0  0  0  0
 12 10  1  0  0  0  0
 13 12  2  0  0  0  0
 14 12  1  0  0  0  0
 14  8  1  0  0  0  0
 15 14  2  0  0  0  0
 16 15  1  0  0  0  0
 17 15  1  0  0  0  0
 18 17  1  0  0  0  0
 19 20  2  0  0  0  0
 19 18  1  0  0  0  0
 20 21  1  0  0  0  0
 21 17  2  0  0  0  0
 21 22  1  0  0  0  0
 22 38  1  0  0  0  0
 22 39  1  0  0  0  0
 23 19  1  0  0  0  0
 24 23  2  0  0  0  0
 24 25  1  0  0  0  0
 25 26  2  0  0  0  0
 26 18  1  0  0  0  0
 26 44  1  0  0  0  0
 27 28  1  0  0  0  0
 27 46  1  0  0  0  0
 28 48  1  0  0  0  0
 28 29  1  0  0  0  0
 29 50  1  0  0  0  0
 29 49  1  0  0  0  0
 30 29  1  0  0  0  0
 30 31  1  0  0  0  0
 30 32  1  0  0  0  0
 31 54  1  0  0  0  0
 32 55  1  0  0  0  0
 32 57  1  0  0  0  0
 35  6  1  0  0  0  0
 36  7  1  0  0  0  0
 40 22  1  0  0  0  0
 41 23  1  0  0  0  0
 42 24  1  0  0  0  0
 43 25  1  0  0  0  0
 45 27  1  0  0  0  0
 47 28  1  0  0  0  0
 51 30  1  0  0  0  0
 52 31  1  0  0  0  0
 53 31  1  0  0  0  0
 56 32  1  0  0  0  0
M  END
>  <Pose>
1

>  <Score>
-5.26

$$$$
