
 OpenBabel03222202113D

 62 66  0  0  1  0  0  0  0  0999 V2000
   21.2700   83.2300   10.0640 B   0  0  0  0  0  0  0  0  0  0  0  0
   20.8060   81.4230   10.4630 C   0  0  0  0  0  0  0  0  0  0  0  0
   21.7610   80.4320   10.5930 C   0  0  0  0  0  0  0  0  0  0  0  0
   21.4270   79.1250   10.8820 C   0  0  0  0  0  0  0  0  0  0  0  0
   20.1190   78.7720   11.0510 C   0  0  0  0  0  0  0  0  0  0  0  0
   19.1720   79.7480   10.9230 C   0  0  0  0  0  0  0  0  0  0  0  0
   19.4850   81.0570   10.6350 C   0  0  0  0  0  0  0  0  0  0  0  0
   19.7140   77.4380   11.3680 C   0  0  2  0  0  0  0  0  0  0  0  0
   20.4390   76.5950   12.2230 N   0  0  0  0  0  0  0  0  0  0  0  0
   19.6980   75.3470   12.1470 C   0  0  0  0  0  0  0  0  0  0  0  0
   19.6260   74.4200   13.0230 O   0  0  0  0  0  0  0  0  0  0  0  0
   19.0190   75.3160   10.8560 C   0  0  0  0  0  0  0  0  0  0  0  0
   18.2560   74.4390   10.3380 O   0  0  0  0  0  0  0  0  0  0  0  0
   19.3930   76.5700   10.2050 C   0  0  0  0  0  0  0  0  0  0  0  0
   19.3960   76.8570    8.9170 C   0  0  0  0  0  0  0  0  0  0  0  0
   19.7340   78.1350    8.4910 O   0  0  0  0  0  0  0  0  0  0  0  0
   19.0580   75.8810    7.8930 C   0  0  0  0  0  0  0  0  0  0  0  0
   18.0920   75.9590    6.9630 N   0  0  0  0  0  0  0  0  0  0  0  0
   18.1210   74.8640    6.1690 C   0  0  0  0  0  0  0  0  0  0  0  0
   19.1260   74.0970    6.6210 N   0  0  0  0  0  0  0  0  0  0  0  0
   19.7200   74.6730    7.6630 C   0  0  0  0  0  0  0  0  0  0  0  0
   20.8670   74.2030    8.4850 C   0  0  0  0  0  0  0  0  0  0  0  0
   17.2310   74.6770    5.1330 C   0  0  0  0  0  0  0  0  0  0  0  0
   16.2580   75.6090    4.8600 C   0  0  0  0  0  0  0  0  0  0  0  0
   16.2120   76.7290    5.6600 C   0  0  0  0  0  0  0  0  0  0  0  0
   17.1150   76.8660    6.6690 C   0  0  0  0  0  0  0  0  0  0  0  0
   21.5740   76.6360   13.0870 C   0  0  0  0  0  0  0  0  0  0  0  0
   22.1250   77.8620   13.6210 C   0  0  0  0  0  0  0  0  0  0  0  0
   23.4950   77.8050   14.2550 C   0  0  0  0  0  0  0  0  0  0  0  0
   23.4550   77.1210   15.5440 N   0  0  0  0  0  4  0  0  0  0  0  0
   22.5680   77.7210   16.4960 C   0  0  0  0  0  0  0  0  0  0  0  0
   23.1800   78.8100   17.3260 C   0  0  0  0  0  0  0  0  0  0  0  0
   24.3780   79.2650   16.8430 O   0  0  0  0  0  0  0  0  0  0  0  0
   25.3180   78.3000   16.5940 C   0  0  0  0  0  0  0  0  0  0  0  0
   24.7550   76.9970   16.1320 C   0  0  0  0  0  0  0  0  0  0  0  0
   22.8100   80.7000   10.4620 H   0  0  0  0  0  0  0  0  0  0  0  0
   22.2590   78.3870   10.9710 H   0  0  0  0  0  0  0  0  0  0  0  0
   18.0940   79.5390   11.0540 H   0  0  0  0  0  0  0  0  0  0  0  0
   18.7190   81.8380   10.5330 H   0  0  0  0  0  0  0  0  0  0  0  0
   18.6960   77.5480   11.8760 H   0  0  0  0  0  0  0  0  0  0  0  0
   21.5410   75.0630    8.6670 H   0  0  0  0  0  0  0  0  0  0  0  0
   21.4030   73.4440    7.9010 H   0  0  0  0  0  0  0  0  0  0  0  0
   20.4590   73.7810    9.4200 H   0  0  0  0  0  0  0  0  0  0  0  0
   17.2840   73.7940    4.5200 H   0  0  0  0  0  0  0  0  0  0  0  0
   15.5490   75.5070    4.0700 H   0  0  0  0  0  0  0  0  0  0  0  0
   15.4590   77.4700    5.4590 H   0  0  0  0  0  0  0  0  0  0  0  0
   17.0750   77.7570    7.3160 H   0  0  0  0  0  0  0  0  0  0  0  0
   22.4250   76.0120   12.6600 H   0  0  0  0  0  0  0  0  0  0  0  0
   21.2740   76.0010   13.9820 H   0  0  0  0  0  0  0  0  0  0  0  0
   21.9630   78.8070   13.0340 H   0  0  0  0  0  0  0  0  0  0  0  0
   21.4580   78.1190   14.5200 H   0  0  0  0  0  0  0  0  0  0  0  0
   23.8840   78.8210   14.4900 H   0  0  0  0  0  0  0  0  0  0  0  0
   24.1580   77.2150   13.6020 H   0  0  0  0  0  0  0  0  0  0  0  0
   23.0860   76.1570   15.3500 H   0  0  0  0  0  0  0  0  0  0  0  0
   21.5810   78.0210   16.0880 H   0  0  0  0  0  0  0  0  0  0  0  0
   22.3170   76.8950   17.2310 H   0  0  0  0  0  0  0  0  0  0  0  0
   23.2350   78.5560   18.4220 H   0  0  0  0  0  0  0  0  0  0  0  0
   22.4670   79.6840   17.2990 H   0  0  0  0  0  0  0  0  0  0  0  0
   26.0220   78.1600   17.4620 H   0  0  0  0  0  0  0  0  0  0  0  0
   25.9820   78.6860   15.7670 H   0  0  0  0  0  0  0  0  0  0  0  0
   24.6470   76.3410   17.0290 H   0  0  0  0  0  0  0  0  0  0  0  0
   25.4130   76.4440   15.4320 H   0  0  0  0  0  0  0  0  0  0  0  0
  1  2  1  0  0  0  0
  2  3  2  0  0  0  0
  2  7  1  0  0  0  0
  3  4  1  0  0  0  0
  4 37  1  0  0  0  0
  4  5  2  0  0  0  0
  5  8  1  0  0  0  0
  6  5  1  0  0  0  0
  6 38  1  0  0  0  0
  7  6  2  0  0  0  0
  8 40  1  1  0  0  0
  8  9  1  0  0  0  0
  9 27  1  0  0  0  0
 10  9  1  0  0  0  0
 10 11  2  0  0  0  0
 12 10  1  0  0  0  0
 13 12  2  0  0  0  0
 14 12  1  0  0  0  0
 14  8  1  0  0  0  0
 15 14  2  0  0  0  0
 16 15  1  0  0  0  0
 17 15  1  0  0  0  0
 18 17  1  0  0  0  0
 19 20  2  0  0  0  0
 19 18  1  0  0  0  0
 20 21  1  0  0  0  0
 21 17  2  0  0  0  0
 21 22  1  0  0  0  0
 22 41  1  0  0  0  0
 22 43  1  0  0  0  0
 23 19  1  0  0  0  0
 24 23  2  0  0  0  0
 24 25  1  0  0  0  0
 25 26  2  0  0  0  0
 26 18  1  0  0  0  0
 26 47  1  0  0  0  0
 27 28  1  0  0  0  0
 27 49  1  0  0  0  0
 28 29  1  0  0  0  0
 28 51  1  0  0  0  0
 29 52  1  0  0  0  0
 29 30  1  0  0  0  0
 30 35  1  0  0  0  0
 30 31  1  0  0  0  0
 31 56  1  0  0  0  0
 31 32  1  0  0  0  0
 32 57  1  0  0  0  0
 33 32  1  0  0  0  0
 34 33  1  0  0  0  0
 34 59  1  0  0  0  0
 35 34  1  0  0  0  0
 35 61  1  0  0  0  0
 36  3  1  0  0  0  0
 39  7  1  0  0  0  0
 42 22  1  0  0  0  0
 44 23  1  0  0  0  0
 45 24  1  0  0  0  0
 46 25  1  0  0  0  0
 48 27  1  0  0  0  0
 50 28  1  0  0  0  0
 53 29  1  0  0  0  0
 54 30  1  0  0  0  0
 55 31  1  0  0  0  0
 58 32  1  0  0  0  0
 60 34  1  0  0  0  0
 62 35  1  0  0  0  0
M  END
>  <Pose>
1

>  <Score>
-5.17

$$$$
