
 OpenBabel03222202113D

 54 57  0  0  1  0  0  0  0  0999 V2000
   19.4020   77.1440    7.7050 B   0  0  0  0  0  0  0  0  0  0  0  0
   19.2960   76.4290    9.4740 C   0  0  0  0  0  0  0  0  0  0  0  0
   18.9490   75.1180    9.6340 C   0  0  0  0  0  0  0  0  0  0  0  0
   18.8680   74.5910   10.9020 C   0  0  0  0  0  0  0  0  0  0  0  0
   19.1190   75.3020   12.0530 C   0  0  0  0  0  0  0  0  0  0  0  0
   19.4710   76.6380   11.8540 C   0  0  0  0  0  0  0  0  0  0  0  0
   19.5560   77.1820   10.5940 C   0  0  0  0  0  0  0  0  0  0  0  0
   19.0220   74.6970   13.4090 C   0  0  1  0  0  0  0  0  0  0  0  0
   19.3280   73.2930   13.3990 N   0  0  0  0  0  0  0  0  0  0  0  0
   20.6180   73.1350   13.9630 C   0  0  0  0  0  0  0  0  0  0  0  0
   21.3060   72.0740   13.9410 O   0  0  0  0  0  0  0  0  0  0  0  0
   21.0320   74.3980   14.5780 C   0  0  0  0  0  0  0  0  0  0  0  0
   22.1070   74.6430   15.1780 O   0  0  0  0  0  0  0  0  0  0  0  0
   19.9460   75.3400   14.3670 C   0  0  0  0  0  0  0  0  0  0  0  0
   19.8100   76.5090   14.9720 C   0  0  0  0  0  0  0  0  0  0  0  0
   18.6430   77.2460   14.6890 O   0  0  0  0  0  0  0  0  0  0  0  0
   20.7450   77.1110   15.8900 C   0  0  0  0  0  0  0  0  0  0  0  0
   21.9950   77.5680   15.7540 N   0  0  0  0  0  0  0  0  0  0  0  0
   22.4760   78.0090   16.9290 C   0  0  0  0  0  0  0  0  0  0  0  0
   21.5060   77.8290   17.8410 N   0  0  0  0  0  0  0  0  0  0  0  0
   20.4420   77.2870   17.2470 C   0  0  0  0  0  0  0  0  0  0  0  0
   19.1630   76.9390   17.9270 C   0  0  0  0  0  0  0  0  0  0  0  0
   23.7450   78.5550   17.0850 C   0  0  0  0  0  0  0  0  0  0  0  0
   24.5480   78.6500   15.9820 C   0  0  0  0  0  0  0  0  0  0  0  0
   24.0560   78.1990   14.7700 C   0  0  0  0  0  0  0  0  0  0  0  0
   22.7930   77.6650   14.6680 C   0  0  0  0  0  0  0  0  0  0  0  0
   18.4620   72.2030   12.8960 C   0  0  0  0  0  0  0  0  0  0  0  0
   17.0660   72.7300   12.6410 C   0  0  0  0  0  0  0  0  0  0  0  0
   16.0820   71.7080   12.5590 N   0  0  0  0  0  4  0  0  0  0  0  0
   14.7700   72.3540   12.5460 C   0  0  0  0  0  0  0  0  0  0  0  0
   16.1830   70.8540   11.4150 C   0  0  0  0  0  0  0  0  0  0  0  0
   18.7300   74.4700    8.7730 H   0  0  0  0  0  0  0  0  0  0  0  0
   18.5900   73.5510   10.9870 H   0  0  0  0  0  0  0  0  0  0  0  0
   19.6840   77.2660   12.7080 H   0  0  0  0  0  0  0  0  0  0  0  0
   19.8300   78.2180   10.4550 H   0  0  0  0  0  0  0  0  0  0  0  0
   17.9560   74.8090   13.7130 H   0  0  0  0  0  0  0  0  0  0  0  0
   18.3430   77.6270   17.6200 H   0  0  0  0  0  0  0  0  0  0  0  0
   18.9160   75.8960   17.5930 H   0  0  0  0  0  0  0  0  0  0  0  0
   19.3140   76.9070   19.0050 H   0  0  0  0  0  0  0  0  0  0  0  0
   24.0450   78.8830   18.0800 H   0  0  0  0  0  0  0  0  0  0  0  0
   25.5370   79.0750   16.0970 H   0  0  0  0  0  0  0  0  0  0  0  0
   24.6740   78.2640   13.8730 H   0  0  0  0  0  0  0  0  0  0  0  0
   22.3810   77.3040   13.7320 H   0  0  0  0  0  0  0  0  0  0  0  0
   18.4410   71.3690   13.6220 H   0  0  0  0  0  0  0  0  0  0  0  0
   18.9230   71.8680   11.9590 H   0  0  0  0  0  0  0  0  0  0  0  0
   17.1230   73.3140   11.6870 H   0  0  0  0  0  0  0  0  0  0  0  0
   16.8450   73.4970   13.4320 H   0  0  0  0  0  0  0  0  0  0  0  0
   16.0860   71.0840   13.4140 H   0  0  0  0  0  0  0  0  0  0  0  0
   14.6250   72.9380   11.6270 H   0  0  0  0  0  0  0  0  0  0  0  0
   13.9580   71.5850   12.6830 H   0  0  0  0  0  0  0  0  0  0  0  0
   14.6490   73.0570   13.3980 H   0  0  0  0  0  0  0  0  0  0  0  0
   15.1480   70.5510   11.1230 H   0  0  0  0  0  0  0  0  0  0  0  0
   16.6160   71.3560   10.5250 H   0  0  0  0  0  0  0  0  0  0  0  0
   16.7040   69.8950   11.6610 H   0  0  0  0  0  0  0  0  0  0  0  0
  1  2  1  0  0  0  0
  2  3  2  0  0  0  0
  2  7  1  0  0  0  0
  3  4  1  0  0  0  0
  4 33  1  0  0  0  0
  4  5  2  0  0  0  0
  5  8  1  0  0  0  0
  6  5  1  0  0  0  0
  6 34  1  0  0  0  0
  7  6  2  0  0  0  0
  8 36  1  1  0  0  0
  8 14  1  0  0  0  0
  9  8  1  0  0  0  0
  9 10  1  0  0  0  0
 10 12  1  0  0  0  0
 11 10  2  0  0  0  0
 12 13  2  0  0  0  0
 14 12  1  0  0  0  0
 14 15  2  0  0  0  0
 15 17  1  0  0  0  0
 16 15  1  0  0  0  0
 17 21  2  0  0  0  0
 18 17  1  0  0  0  0
 18 19  1  0  0  0  0
 19 23  1  0  0  0  0
 19 20  2  0  0  0  0
 21 20  1  0  0  0  0
 21 22  1  0  0  0  0
 22 39  1  0  0  0  0
 23 40  1  0  0  0  0
 24 41  1  0  0  0  0
 24 23  2  0  0  0  0
 25 24  1  0  0  0  0
 26 25  2  0  0  0  0
 26 18  1  0  0  0  0
 27  9  1  0  0  0  0
 27 44  1  0  0  0  0
 28 27  1  0  0  0  0
 28 47  1  0  0  0  0
 29 28  1  0  0  0  0
 29 48  1  0  0  0  0
 30 29  1  0  0  0  0
 30 50  1  0  0  0  0
 30 51  1  0  0  0  0
 31 54  1  0  0  0  0
 31 29  1  0  0  0  0
 32  3  1  0  0  0  0
 35  7  1  0  0  0  0
 37 22  1  0  0  0  0
 38 22  1  0  0  0  0
 42 25  1  0  0  0  0
 43 26  1  0  0  0  0
 45 27  1  0  0  0  0
 46 28  1  0  0  0  0
 49 30  1  0  0  0  0
 52 31  1  0  0  0  0
 53 31  1  0  0  0  0
M  END
>  <Pose>
1

>  <Score>
-4.77

$$$$
