
 OpenBabel03222202113D

 47 50  0  0  1  0  0  0  0  0999 V2000
   18.7320   84.6240   21.9270 B   0  0  0  0  0  0  0  0  0  0  0  0
   18.9890   82.9730   20.9910 C   0  0  0  0  0  0  0  0  0  0  0  0
   18.0230   81.9890   20.9980 C   0  0  0  0  0  0  0  0  0  0  0  0
   18.1920   80.7870   20.3260 C   0  0  0  0  0  0  0  0  0  0  0  0
   19.3490   80.5360   19.6190 C   0  0  0  0  0  0  0  0  0  0  0  0
   20.3110   81.5260   19.6160 C   0  0  0  0  0  0  0  0  0  0  0  0
   20.1460   82.7210   20.2840 C   0  0  0  0  0  0  0  0  0  0  0  0
   19.5150   79.2950   18.9300 N   0  0  0  0  0  0  0  0  0  0  0  0
   19.0250   78.1100   19.2500 N   0  0  0  0  0  0  0  0  0  0  0  0
   19.3870   77.1850   18.3770 N   0  0  0  0  0  0  0  0  0  0  0  0
   20.1580   77.7690   17.4200 C   0  0  0  0  0  0  0  0  0  0  0  0
   20.2170   79.0980   17.8000 C   0  0  0  0  0  0  0  0  0  0  0  0
   20.9270   79.9210   17.0200 N   0  0  0  0  0  0  0  0  0  0  0  0
   21.5490   79.4630   15.9190 C   0  0  0  0  0  0  0  0  0  0  0  0
   21.4950   78.1650   15.5410 N   0  0  0  0  0  0  0  0  0  0  0  0
   20.7950   77.3070   16.2940 C   0  0  0  0  0  0  0  0  0  0  0  0
   20.7430   76.1070   15.9470 O   0  0  0  0  0  0  0  0  0  0  0  0
   22.1990   77.7660   14.3370 C   0  0  0  0  0  0  0  0  0  0  0  0
   22.6610   78.9840   13.5780 C   0  0  0  0  0  0  0  0  0  0  0  0
   23.3520   79.8700   14.1470 O   0  0  0  0  0  0  0  0  0  0  0  0
   22.3290   79.1560   12.2130 N   0  0  0  0  0  0  0  0  0  0  0  0
   20.9850   79.4870   11.8040 C   0  0  0  0  0  0  0  0  0  0  0  0
   20.6530   78.5940   10.6210 C   0  0  2  0  0  0  0  0  0  0  0  0
   21.5560   78.6850    9.5930 O   0  0  0  0  0  0  0  0  0  0  0  0
   22.6920   79.3990    9.8830 C   0  0  1  0  0  0  0  0  0  0  0  0
   23.3410   79.0010   11.1930 C   0  0  0  0  0  0  0  0  0  0  0  0
   23.7140   79.3690    8.7850 C   0  0  0  0  0  0  0  0  0  0  0  0
   19.3070   79.0890   10.0810 C   0  0  0  0  0  0  0  0  0  0  0  0
   17.1180   82.1780   21.5470 H   0  0  0  0  0  0  0  0  0  0  0  0
   17.4300   80.0230   20.3380 H   0  0  0  0  0  0  0  0  0  0  0  0
   21.2260   81.3570   19.0730 H   0  0  0  0  0  0  0  0  0  0  0  0
   20.9090   83.5020   20.2800 H   0  0  0  0  0  0  0  0  0  0  0  0
   22.1230   80.1630   15.3000 H   0  0  0  0  0  0  0  0  0  0  0  0
   23.0980   77.1650   14.5700 H   0  0  0  0  0  0  0  0  0  0  0  0
   21.5160   77.2300   13.6450 H   0  0  0  0  0  0  0  0  0  0  0  0
   20.8810   80.5590   11.5350 H   0  0  0  0  0  0  0  0  0  0  0  0
   20.3170   79.2610   12.6490 H   0  0  0  0  0  0  0  0  0  0  0  0
   20.5120   77.5600   11.0110 H   0  0  0  0  0  0  0  0  0  0  0  0
   22.3880   80.4780   10.0160 H   0  0  0  0  0  0  0  0  0  0  0  0
   24.2040   79.6730   11.3490 H   0  0  0  0  0  0  0  0  0  0  0  0
   23.6700   77.9490   11.2020 H   0  0  0  0  0  0  0  0  0  0  0  0
   24.2570   80.3380    8.7520 H   0  0  0  0  0  0  0  0  0  0  0  0
   24.4880   78.5780    8.9450 H   0  0  0  0  0  0  0  0  0  0  0  0
   23.2270   79.2520    7.7850 H   0  0  0  0  0  0  0  0  0  0  0  0
   18.7190   79.4090   10.9600 H   0  0  0  0  0  0  0  0  0  0  0  0
   19.4270   79.9470    9.4120 H   0  0  0  0  0  0  0  0  0  0  0  0
   18.7520   78.2410    9.6000 H   0  0  0  0  0  0  0  0  0  0  0  0
  2  3  1  0  0  0  0
  2  1  1  0  0  0  0
  3 29  1  0  0  0  0
  4 30  1  0  0  0  0
  4  3  2  0  0  0  0
  5  4  1  0  0  0  0
  6  5  2  0  0  0  0
  6  7  1  0  0  0  0
  7  2  2  0  0  0  0
  8  9  1  0  0  0  0
  8  5  1  0  0  0  0
 10  9  2  0  0  0  0
 11 12  2  0  0  0  0
 11 10  1  0  0  0  0
 12  8  1  0  0  0  0
 13 12  1  0  0  0  0
 14 13  2  0  0  0  0
 15 14  1  0  0  0  0
 15 16  1  0  0  0  0
 16 11  1  0  0  0  0
 17 16  2  0  0  0  0
 18 34  1  0  0  0  0
 18 15  1  0  0  0  0
 19 20  2  0  0  0  0
 19 18  1  0  0  0  0
 21 19  1  0  0  0  0
 22 21  1  0  0  0  0
 22 37  1  0  0  0  0
 23 38  1  1  0  0  0
 23 22  1  0  0  0  0
 24 25  1  0  0  0  0
 24 23  1  0  0  0  0
 25 39  1  1  0  0  0
 25 26  1  0  0  0  0
 26 41  1  0  0  0  0
 26 40  1  0  0  0  0
 26 21  1  0  0  0  0
 27 43  1  0  0  0  0
 27 25  1  0  0  0  0
 28 23  1  0  0  0  0
 28 45  1  0  0  0  0
 31  6  1  0  0  0  0
 32  7  1  0  0  0  0
 33 14  1  0  0  0  0
 35 18  1  0  0  0  0
 36 22  1  0  0  0  0
 42 27  1  0  0  0  0
 44 27  1  0  0  0  0
 46 28  1  0  0  0  0
 47 28  1  0  0  0  0
M  END
>  <Pose>
1

>  <Score>
-5.75

$$$$
