
 OpenBabel03222202113D

 56 59  0  0  1  0  0  0  0  0999 V2000
   17.6820   74.3030    6.1740 B   0  0  0  0  0  0  0  0  0  0  0  0
   18.5550   75.6380    7.2270 C   0  0  0  0  0  0  0  0  0  0  0  0
   18.4910   76.9760    6.9120 C   0  0  0  0  0  0  0  0  0  0  0  0
   19.1340   77.9480    7.6890 C   0  0  0  0  0  0  0  0  0  0  0  0
   19.8550   77.5940    8.7980 C   0  0  0  0  0  0  0  0  0  0  0  0
   19.9140   76.2530    9.1030 C   0  0  0  0  0  0  0  0  0  0  0  0
   19.2810   75.2820    8.3430 C   0  0  0  0  0  0  0  0  0  0  0  0
   20.5060   78.6010    9.5780 N   0  0  0  0  0  0  0  0  0  0  0  0
   20.2610   78.9110   10.9540 C   0  0  0  0  0  0  0  0  0  0  0  0
   19.2040   78.7250   11.6050 O   0  0  0  0  0  0  0  0  0  0  0  0
   21.5030   79.5080   11.5090 C   0  0  2  0  0  0  0  0  0  0  0  0
   22.3910   79.8360   10.3300 C   0  0  0  0  0  0  0  0  0  0  0  0
   21.5220   79.5070    9.1680 C   0  0  0  0  0  0  0  0  0  0  0  0
   21.6520   79.9570    7.9750 O   0  0  0  0  0  0  0  0  0  0  0  0
   22.0800   78.6230   12.4370 N   0  0  2  0  0  0  0  0  0  0  0  0
   21.2460   77.8360   13.2530 C   0  0  0  0  0  0  0  0  0  0  0  0
   22.1220   77.0750   14.2580 C   0  0  0  0  0  0  0  0  0  0  0  0
   22.7670   78.0220   15.2460 C   0  0  1  0  0  0  0  0  0  0  0  0
   23.2250   79.2350   14.5420 C   0  0  0  0  0  0  0  0  0  0  0  0
   23.2870   79.0350   13.0490 C   0  0  0  0  0  0  0  0  0  0  0  0
   21.8860   78.2070   16.3240 N   0  0  0  0  0  0  0  0  0  0  0  0
   21.4830   77.0900   17.0690 C   0  0  0  0  0  0  0  0  0  0  0  0
   19.9440   77.0790   17.0560 C   0  0  0  0  0  0  0  0  0  0  0  0
   19.5190   78.3180   17.8170 C   0  0  0  0  0  0  0  0  0  0  0  0
   20.6120   79.3230   17.9760 C   0  0  0  0  0  0  0  0  0  0  0  0
   21.4770   79.4680   16.7150 C   0  0  0  0  0  0  0  0  0  0  0  0
   23.9770   77.2910   15.7650 C   0  0  0  0  0  0  0  0  0  0  0  0
   24.5010   77.6400   16.8650 O   0  0  0  0  0  0  0  0  0  0  0  0
   24.5760   76.2100   15.0760 N   0  0  0  0  0  0  0  0  0  0  0  0
   17.9260   77.2440    6.0420 H   0  0  0  0  0  0  0  0  0  0  0  0
   19.0380   78.9820    7.3760 H   0  0  0  0  0  0  0  0  0  0  0  0
   20.4740   75.9430    9.9680 H   0  0  0  0  0  0  0  0  0  0  0  0
   19.3410   74.2240    8.6050 H   0  0  0  0  0  0  0  0  0  0  0  0
   21.1930   80.4920   11.9570 H   0  0  0  0  0  0  0  0  0  0  0  0
   23.2780   79.1730   10.2540 H   0  0  0  0  0  0  0  0  0  0  0  0
   22.6290   80.9050   10.2710 H   0  0  0  0  0  0  0  0  0  0  0  0
   20.5530   78.4930   13.8360 H   0  0  0  0  0  0  0  0  0  0  0  0
   20.6780   77.0310   12.7200 H   0  0  0  0  0  0  0  0  0  0  0  0
   22.9610   76.6670   13.6340 H   0  0  0  0  0  0  0  0  0  0  0  0
   21.5680   76.2600   14.7190 H   0  0  0  0  0  0  0  0  0  0  0  0
   24.2980   79.4370   14.8470 H   0  0  0  0  0  0  0  0  0  0  0  0
   22.7070   80.1690   14.8290 H   0  0  0  0  0  0  0  0  0  0  0  0
   23.7490   79.9380   12.5510 H   0  0  0  0  0  0  0  0  0  0  0  0
   24.0490   78.2250   12.8230 H   0  0  0  0  0  0  0  0  0  0  0  0
   21.8420   76.1600   16.6240 H   0  0  0  0  0  0  0  0  0  0  0  0
   21.7950   77.2200   18.1260 H   0  0  0  0  0  0  0  0  0  0  0  0
   19.5710   77.1780   16.0040 H   0  0  0  0  0  0  0  0  0  0  0  0
   19.5830   76.1450   17.5140 H   0  0  0  0  0  0  0  0  0  0  0  0
   18.5810   78.7510   17.4110 H   0  0  0  0  0  0  0  0  0  0  0  0
   19.2390   77.9520   18.8440 H   0  0  0  0  0  0  0  0  0  0  0  0
   20.1330   80.3280   18.1340 H   0  0  0  0  0  0  0  0  0  0  0  0
   21.2710   79.1320   18.8590 H   0  0  0  0  0  0  0  0  0  0  0  0
   22.2410   80.2160   16.9590 H   0  0  0  0  0  0  0  0  0  0  0  0
   20.8200   79.9330   15.9440 H   0  0  0  0  0  0  0  0  0  0  0  0
   25.0660   76.3800   14.1890 H   0  0  0  0  0  0  0  0  0  0  0  0
   24.5300   75.2440   15.4540 H   0  0  0  0  0  0  0  0  0  0  0  0
  1  2  1  0  0  0  0
  2  7  1  0  0  0  0
  3  2  2  0  0  0  0
  3  4  1  0  0  0  0
  4  5  2  0  0  0  0
  5  6  1  0  0  0  0
  5  8  1  0  0  0  0
  6 32  1  0  0  0  0
  7 33  1  0  0  0  0
  7  6  2  0  0  0  0
  8  9  1  0  0  0  0
  9 11  1  0  0  0  0
  9 10  2  0  0  0  0
 11 34  1  1  0  0  0
 11 15  1  0  0  0  0
 12 11  1  0  0  0  0
 13  8  1  0  0  0  0
 13 12  1  0  0  0  0
 14 13  2  0  0  0  0
 15 20  1  1  0  0  0
 15 16  1  0  0  0  0
 16 37  1  0  0  0  0
 16 17  1  0  0  0  0
 17 40  1  0  0  0  0
 17 18  1  0  0  0  0
 18 27  1  1  0  0  0
 18 21  1  0  0  0  0
 19 42  1  0  0  0  0
 19 41  1  0  0  0  0
 19 18  1  0  0  0  0
 20 19  1  0  0  0  0
 21 26  1  0  0  0  0
 21 22  1  0  0  0  0
 22 46  1  0  0  0  0
 23 22  1  0  0  0  0
 23 48  1  0  0  0  0
 23 24  1  0  0  0  0
 24 25  1  0  0  0  0
 24 50  1  0  0  0  0
 25 51  1  0  0  0  0
 25 52  1  0  0  0  0
 26 53  1  0  0  0  0
 26 25  1  0  0  0  0
 27 28  2  0  0  0  0
 29 56  1  0  0  0  0
 29 27  1  0  0  0  0
 30  3  1  0  0  0  0
 31  4  1  0  0  0  0
 35 12  1  0  0  0  0
 36 12  1  0  0  0  0
 38 16  1  0  0  0  0
 39 17  1  0  0  0  0
 43 20  1  0  0  0  0
 44 20  1  0  0  0  0
 45 22  1  0  0  0  0
 47 23  1  0  0  0  0
 49 24  1  0  0  0  0
 54 26  1  0  0  0  0
 55 29  1  0  0  0  0
M  END
>  <Pose>
1

>  <Score>
-5.98

$$$$
