
 OpenBabel03222202113D

 44 47  0  0  0  0  0  0  0  0999 V2000
   16.7710   75.9950    5.8080 B   0  0  0  0  0  0  0  0  0  0  0  0
   17.8900   76.9730    7.0230 C   0  0  0  0  0  0  0  0  0  0  0  0
   18.9360   76.3590    7.6770 C   0  0  0  0  0  0  0  0  0  0  0  0
   19.7430   77.0620    8.5530 C   0  0  0  0  0  0  0  0  0  0  0  0
   19.5350   78.4060    8.8090 C   0  0  0  0  0  0  0  0  0  0  0  0
   18.4830   79.0010    8.1430 C   0  0  0  0  0  0  0  0  0  0  0  0
   17.6740   78.3100    7.2700 C   0  0  0  0  0  0  0  0  0  0  0  0
   20.3810   79.1090    9.7150 N   0  0  0  0  0  0  0  0  0  0  0  0
   20.5400   78.8790   11.0290 C   0  0  0  0  0  0  0  0  0  0  0  0
   19.9300   77.9640   11.6630 O   0  0  0  0  0  0  0  0  0  0  0  0
   21.4540   79.7740   11.5870 C   0  0  0  0  0  0  0  0  0  0  0  0
   21.8460   80.5510   10.5820 C   0  0  0  0  0  0  0  0  0  0  0  0
   22.7240   81.4040   11.1400 N   0  0  0  0  0  0  0  0  0  0  0  0
   22.8550   81.1480   12.4320 N   0  0  0  0  0  0  0  0  0  0  0  0
   22.0700   80.1370   12.7190 N   0  0  0  0  0  0  0  0  0  0  0  0
   21.8850   79.5130   14.0040 C   0  0  0  0  0  0  0  0  0  0  0  0
   22.7370   78.2870   14.1580 C   0  0  0  0  0  0  0  0  0  0  0  0
   23.7520   78.2650   13.4210 O   0  0  0  0  0  0  0  0  0  0  0  0
   22.4210   77.2580   15.0480 N   0  0  0  0  0  0  0  0  0  0  0  0
   21.4280   77.2650   16.0350 C   0  0  0  0  0  0  0  0  0  0  0  0
   21.7830   77.7630   17.2990 C   0  0  0  0  0  0  0  0  0  0  0  0
   20.8410   77.7890   18.2960 C   0  0  0  0  0  0  0  0  0  0  0  0
   19.5470   77.3460   18.1150 C   0  0  0  0  0  0  0  0  0  0  0  0
   19.1950   76.8610   16.8910 C   0  0  0  0  0  0  0  0  0  0  0  0
   20.1350   76.8300   15.8810 C   0  0  0  0  0  0  0  0  0  0  0  0
   23.1460   78.2570   17.5760 C   0  0  0  0  0  0  0  0  0  0  0  0
   21.1940   80.1520    9.4320 C   0  0  0  0  0  0  0  0  0  0  0  0
   21.3070   80.6470    8.2890 O   0  0  0  0  0  0  0  0  0  0  0  0
   19.1360   75.3050    7.5060 H   0  0  0  0  0  0  0  0  0  0  0  0
   20.5750   76.5830    9.0750 H   0  0  0  0  0  0  0  0  0  0  0  0
   18.2970   80.0450    8.3220 H   0  0  0  0  0  0  0  0  0  0  0  0
   16.8390   78.7700    6.7380 H   0  0  0  0  0  0  0  0  0  0  0  0
   23.2030   82.1460   10.5700 H   0  0  0  0  0  0  0  0  0  0  0  0
   23.4890   81.6930   13.0600 H   0  0  0  0  0  0  0  0  0  0  0  0
   22.2200   80.1990   14.8290 H   0  0  0  0  0  0  0  0  0  0  0  0
   20.8060   79.2650   14.1030 H   0  0  0  0  0  0  0  0  0  0  0  0
   23.0260   76.3760   14.9390 H   0  0  0  0  0  0  0  0  0  0  0  0
   21.0780   78.1710   19.2990 H   0  0  0  0  0  0  0  0  0  0  0  0
   18.8060   77.3730   18.9190 H   0  0  0  0  0  0  0  0  0  0  0  0
   18.1720   76.5050   16.7300 H   0  0  0  0  0  0  0  0  0  0  0  0
   19.8040   76.4400   14.9430 H   0  0  0  0  0  0  0  0  0  0  0  0
   23.2790   78.3910   18.6670 H   0  0  0  0  0  0  0  0  0  0  0  0
   23.9050   77.4950   17.2710 H   0  0  0  0  0  0  0  0  0  0  0  0
   23.3770   79.2200   17.0960 H   0  0  0  0  0  0  0  0  0  0  0  0
  1  2  1  0  0  0  0
  2  7  2  0  0  0  0
  2  3  1  0  0  0  0
  3  4  2  0  0  0  0
  4  5  1  0  0  0  0
  4 30  1  0  0  0  0
  5  8  1  0  0  0  0
  6 31  1  0  0  0  0
  6  5  2  0  0  0  0
  7  6  1  0  0  0  0
  8  9  1  0  0  0  0
  9 11  1  0  0  0  0
  9 10  2  0  0  0  0
 11 15  1  0  0  0  0
 12 13  1  0  0  0  0
 12 11  2  0  0  0  0
 13 14  1  0  0  0  0
 14 15  1  0  0  0  0
 14 34  1  0  0  0  0
 15 16  1  0  0  0  0
 16 36  1  0  0  0  0
 16 17  1  0  0  0  0
 16 35  1  0  0  0  0
 17 19  1  0  0  0  0
 18 17  2  0  0  0  0
 19 20  1  0  0  0  0
 20 21  1  0  0  0  0
 21 26  1  0  0  0  0
 21 22  2  0  0  0  0
 22 38  1  0  0  0  0
 23 22  1  0  0  0  0
 23 39  1  0  0  0  0
 24 23  2  0  0  0  0
 25 20  2  0  0  0  0
 25 24  1  0  0  0  0
 26 42  1  0  0  0  0
 27  8  1  0  0  0  0
 27 12  1  0  0  0  0
 28 27  2  0  0  0  0
 29  3  1  0  0  0  0
 32  7  1  0  0  0  0
 33 13  1  0  0  0  0
 37 19  1  0  0  0  0
 40 24  1  0  0  0  0
 41 25  1  0  0  0  0
 43 26  1  0  0  0  0
 44 26  1  0  0  0  0
M  END
>  <Pose>
1

>  <Score>
-6.83

$$$$
