
 OpenBabel03222202113D

 49 52  0  0  0  0  0  0  0  0999 V2000
   19.8360   85.7430   22.1160 B   0  0  0  0  0  0  0  0  0  0  0  0
   19.8780   84.0580   21.2070 C   0  0  0  0  0  0  0  0  0  0  0  0
   20.2580   82.9010   21.8580 C   0  0  0  0  0  0  0  0  0  0  0  0
   20.2870   81.6790   21.1930 C   0  0  0  0  0  0  0  0  0  0  0  0
   19.9390   81.5760   19.8610 C   0  0  0  0  0  0  0  0  0  0  0  0
   19.5610   82.7340   19.2170 C   0  0  0  0  0  0  0  0  0  0  0  0
   19.5310   83.9460   19.8750 C   0  0  0  0  0  0  0  0  0  0  0  0
   19.9570   80.3450   19.1500 N   0  0  0  0  0  0  0  0  0  0  0  0
   20.4830   80.0470   17.9510 C   0  0  0  0  0  0  0  0  0  0  0  0
   21.0820   80.8990   17.2450 O   0  0  0  0  0  0  0  0  0  0  0  0
   20.2740   78.7160   17.6290 C   0  0  0  0  0  0  0  0  0  0  0  0
   19.6080   78.1970   18.6530 C   0  0  0  0  0  0  0  0  0  0  0  0
   19.4060   76.9070   18.3400 N   0  0  0  0  0  0  0  0  0  0  0  0
   19.9340   76.6470   17.1580 N   0  0  0  0  0  0  0  0  0  0  0  0
   20.4740   77.7460   16.7040 N   0  0  0  0  0  0  0  0  0  0  0  0
   21.1640   77.9380   15.4510 C   0  0  0  0  0  0  0  0  0  0  0  0
   20.7840   76.8260   14.5010 C   0  0  0  0  0  0  0  0  0  0  0  0
   21.0190   76.9600   13.2800 O   0  0  0  0  0  0  0  0  0  0  0  0
   20.1740   75.6610   14.9900 N   0  0  0  0  0  0  0  0  0  0  0  0
   19.5580   74.6620   14.2100 C   0  0  0  0  0  0  0  0  0  0  0  0
   20.0390   73.3950   13.9990 C   0  0  0  0  0  0  0  0  0  0  0  0
   19.3950   72.4660   13.2070 C   0  0  0  0  0  0  0  0  0  0  0  0
   18.2120   72.8370   12.6040 C   0  0  0  0  0  0  0  0  0  0  0  0
   17.6920   74.1080   12.7920 C   0  0  0  0  0  0  0  0  0  0  0  0
   18.3480   75.0130   13.5800 C   0  0  0  0  0  0  0  0  0  0  0  0
   17.5460   71.9150   11.8020 O   0  0  0  0  0  0  0  0  0  0  0  0
   16.7580   70.9120   12.4130 C   0  0  0  0  0  0  0  0  0  0  0  0
   19.9070   71.1850   13.0120 O   0  0  0  0  0  0  0  0  0  0  0  0
   21.2600   71.0770   12.5500 C   0  0  0  0  0  0  0  0  0  0  0  0
   19.4090   79.1900   19.5890 C   0  0  0  0  0  0  0  0  0  0  0  0
   18.8020   79.0440   20.7010 O   0  0  0  0  0  0  0  0  0  0  0  0
   20.5310   82.9910   22.9080 H   0  0  0  0  0  0  0  0  0  0  0  0
   20.5850   80.7830   21.7080 H   0  0  0  0  0  0  0  0  0  0  0  0
   19.2880   82.6450   18.1680 H   0  0  0  0  0  0  0  0  0  0  0  0
   19.2270   84.8480   19.3370 H   0  0  0  0  0  0  0  0  0  0  0  0
   18.9140   76.1940   18.9140 H   0  0  0  0  0  0  0  0  0  0  0  0
   19.9350   75.7160   16.6440 H   0  0  0  0  0  0  0  0  0  0  0  0
   22.2740   77.9090   15.5610 H   0  0  0  0  0  0  0  0  0  0  0  0
   20.8590   78.8760   14.9620 H   0  0  0  0  0  0  0  0  0  0  0  0
   20.1850   75.5230   16.0520 H   0  0  0  0  0  0  0  0  0  0  0  0
   20.9600   73.0750   14.4670 H   0  0  0  0  0  0  0  0  0  0  0  0
   16.7540   74.3680   12.2990 H   0  0  0  0  0  0  0  0  0  0  0  0
   17.9230   76.0220   13.7210 H   0  0  0  0  0  0  0  0  0  0  0  0
   16.0450   71.4420   13.0870 H   0  0  0  0  0  0  0  0  0  0  0  0
   17.4010   70.2570   13.0150 H   0  0  0  0  0  0  0  0  0  0  0  0
   16.1940   70.3640   11.6220 H   0  0  0  0  0  0  0  0  0  0  0  0
   21.9630   71.4760   13.3320 H   0  0  0  0  0  0  0  0  0  0  0  0
   21.5130   70.0210   12.3290 H   0  0  0  0  0  0  0  0  0  0  0  0
   21.4010   71.6730   11.6240 H   0  0  0  0  0  0  0  0  0  0  0  0
  2  3  1  0  0  0  0
  2  1  1  0  0  0  0
  3 32  1  0  0  0  0
  4 33  1  0  0  0  0
  4  3  2  0  0  0  0
  5  4  1  0  0  0  0
  6  5  2  0  0  0  0
  6  7  1  0  0  0  0
  7  2  2  0  0  0  0
  8 30  1  0  0  0  0
  8  5  1  0  0  0  0
  9  8  1  0  0  0  0
 10  9  2  0  0  0  0
 11  9  1  0  0  0  0
 11 12  2  0  0  0  0
 12 30  1  0  0  0  0
 13 12  1  0  0  0  0
 13 36  1  0  0  0  0
 14 13  1  0  0  0  0
 15 14  1  0  0  0  0
 15 11  1  0  0  0  0
 16 38  1  0  0  0  0
 16 15  1  0  0  0  0
 17 19  1  0  0  0  0
 17 16  1  0  0  0  0
 18 17  2  0  0  0  0
 19 40  1  0  0  0  0
 20 19  1  0  0  0  0
 21 20  1  0  0  0  0
 21 41  1  0  0  0  0
 22 21  2  0  0  0  0
 23 24  2  0  0  0  0
 23 22  1  0  0  0  0
 24 25  1  0  0  0  0
 25 43  1  0  0  0  0
 25 20  2  0  0  0  0
 26 27  1  0  0  0  0
 26 23  1  0  0  0  0
 27 45  1  0  0  0  0
 27 44  1  0  0  0  0
 28 22  1  0  0  0  0
 29 28  1  0  0  0  0
 29 47  1  0  0  0  0
 30 31  2  0  0  0  0
 34  6  1  0  0  0  0
 35  7  1  0  0  0  0
 37 14  1  0  0  0  0
 39 16  1  0  0  0  0
 42 24  1  0  0  0  0
 46 27  1  0  0  0  0
 48 29  1  0  0  0  0
 49 29  1  0  0  0  0
M  END
>  <Pose>
1

>  <Score>
-6.95

$$$$
