
 OpenBabel03222202113D

 49 52  0  0  0  0  0  0  0  0999 V2000
   17.3690   75.8320    5.9360 B   0  0  0  0  0  0  0  0  0  0  0  0
   18.3570   76.7950    7.2830 C   0  0  0  0  0  0  0  0  0  0  0  0
   18.2040   78.1510    7.4430 C   0  0  0  0  0  0  0  0  0  0  0  0
   18.9260   78.8510    8.4220 C   0  0  0  0  0  0  0  0  0  0  0  0
   19.8050   78.1910    9.2460 C   0  0  0  0  0  0  0  0  0  0  0  0
   19.9400   76.8310    9.0670 C   0  0  0  0  0  0  0  0  0  0  0  0
   19.2380   76.1370    8.1100 C   0  0  0  0  0  0  0  0  0  0  0  0
   20.5460   78.8980   10.2450 N   0  0  0  0  0  0  0  0  0  0  0  0
   20.7080   78.6290   11.5430 C   0  0  0  0  0  0  0  0  0  0  0  0
   20.1820   77.6290   12.1370 O   0  0  0  0  0  0  0  0  0  0  0  0
   21.5020   79.5430   12.1960 C   0  0  0  0  0  0  0  0  0  0  0  0
   21.8460   80.4220   11.2360 C   0  0  0  0  0  0  0  0  0  0  0  0
   22.6330   81.3360   11.8540 N   0  0  0  0  0  0  0  0  0  0  0  0
   22.7650   81.0300   13.1330 N   0  0  0  0  0  0  0  0  0  0  0  0
   22.0730   79.9300   13.3480 N   0  0  0  0  0  0  0  0  0  0  0  0
   21.9650   79.2680   14.6150 C   0  0  0  0  0  0  0  0  0  0  0  0
   22.2600   80.1290   15.7580 C   0  0  0  0  0  0  0  0  0  0  0  0
   22.3720   81.3850   15.6530 O   0  0  0  0  0  0  0  0  0  0  0  0
   22.4310   79.5230   17.0230 N   0  0  0  0  0  0  0  0  0  0  0  0
   21.3630   79.5690   17.9550 C   0  0  0  0  0  0  0  0  0  0  0  0
   20.9200   78.3630   18.4400 C   0  0  0  0  0  0  0  0  0  0  0  0
   19.8500   78.3200   19.3410 C   0  0  0  0  0  0  0  0  0  0  0  0
   19.2440   79.4830   19.7370 C   0  0  0  0  0  0  0  0  0  0  0  0
   19.6820   80.7140   19.2530 C   0  0  0  0  0  0  0  0  0  0  0  0
   20.7450   80.7220   18.3630 C   0  0  0  0  0  0  0  0  0  0  0  0
   19.0220   81.8430   19.6910 O   0  0  0  0  0  0  0  0  0  0  0  0
   19.5500   82.8850   20.4510 C   0  0  0  0  0  0  0  0  0  0  0  0
   19.4930   77.0610   19.7630 O   0  0  0  0  0  0  0  0  0  0  0  0
   19.2150   76.7230   21.0730 C   0  0  0  0  0  0  0  0  0  0  0  0
   21.2710   80.0410   10.0460 C   0  0  0  0  0  0  0  0  0  0  0  0
   21.3540   80.5990    8.9250 O   0  0  0  0  0  0  0  0  0  0  0  0
   17.5150   78.6740    6.8010 H   0  0  0  0  0  0  0  0  0  0  0  0
   18.7910   79.9190    8.5250 H   0  0  0  0  0  0  0  0  0  0  0  0
   20.6450   76.3300    9.7330 H   0  0  0  0  0  0  0  0  0  0  0  0
   19.3530   75.0640    7.9810 H   0  0  0  0  0  0  0  0  0  0  0  0
   23.0590   82.1580   11.3660 H   0  0  0  0  0  0  0  0  0  0  0  0
   23.3350   81.6080   13.8060 H   0  0  0  0  0  0  0  0  0  0  0  0
   20.9480   78.8170   14.7670 H   0  0  0  0  0  0  0  0  0  0  0  0
   22.6580   78.3800   14.6830 H   0  0  0  0  0  0  0  0  0  0  0  0
   23.3480   79.0410   17.2740 H   0  0  0  0  0  0  0  0  0  0  0  0
   21.4100   77.4340   18.1190 H   0  0  0  0  0  0  0  0  0  0  0  0
   18.4200   79.4250   20.4340 H   0  0  0  0  0  0  0  0  0  0  0  0
   21.0920   81.6790   17.9870 H   0  0  0  0  0  0  0  0  0  0  0  0
   18.7600   83.3140   21.1090 H   0  0  0  0  0  0  0  0  0  0  0  0
   19.8670   83.7520   19.7980 H   0  0  0  0  0  0  0  0  0  0  0  0
   20.4070   82.5980   21.0880 H   0  0  0  0  0  0  0  0  0  0  0  0
   18.3650   76.0000   21.1070 H   0  0  0  0  0  0  0  0  0  0  0  0
   18.9650   77.5700   21.7080 H   0  0  0  0  0  0  0  0  0  0  0  0
   20.1070   76.1550   21.4740 H   0  0  0  0  0  0  0  0  0  0  0  0
  1  2  1  0  0  0  0
  2  3  2  0  0  0  0
  2  7  1  0  0  0  0
  3  4  1  0  0  0  0
  4 33  1  0  0  0  0
  4  5  2  0  0  0  0
  5  8  1  0  0  0  0
  6  5  1  0  0  0  0
  6 34  1  0  0  0  0
  7  6  2  0  0  0  0
  8  9  1  0  0  0  0
  9 10  2  0  0  0  0
  9 11  1  0  0  0  0
 11 15  1  0  0  0  0
 12 13  1  0  0  0  0
 12 11  2  0  0  0  0
 13 14  1  0  0  0  0
 14 15  1  0  0  0  0
 14 37  1  0  0  0  0
 15 16  1  0  0  0  0
 16 39  1  0  0  0  0
 16 38  1  0  0  0  0
 16 17  1  0  0  0  0
 17 19  1  0  0  0  0
 18 17  2  0  0  0  0
 19 40  1  0  0  0  0
 19 20  1  0  0  0  0
 20 25  2  0  0  0  0
 20 21  1  0  0  0  0
 21 22  2  0  0  0  0
 22 23  1  0  0  0  0
 22 28  1  0  0  0  0
 23 42  1  0  0  0  0
 24 26  1  0  0  0  0
 24 23  2  0  0  0  0
 25 24  1  0  0  0  0
 26 27  1  0  0  0  0
 27 46  1  0  0  0  0
 27 44  1  0  0  0  0
 28 29  1  0  0  0  0
 29 47  1  0  0  0  0
 29 49  1  0  0  0  0
 29 48  1  0  0  0  0
 30  8  1  0  0  0  0
 30 12  1  0  0  0  0
 31 30  2  0  0  0  0
 32  3  1  0  0  0  0
 35  7  1  0  0  0  0
 36 13  1  0  0  0  0
 41 21  1  0  0  0  0
 43 25  1  0  0  0  0
 45 27  1  0  0  0  0
M  END
>  <Pose>
1

>  <Score>
-7.24

$$$$
