
 OpenBabel03222202113D

 38 42  0  0  1  0  0  0  0  0999 V2000
   19.1870   84.7950   20.3350 B   0  0  0  0  0  0  0  0  0  0  0  0
   19.6610   83.0610   19.7280 C   0  0  0  0  0  0  0  0  0  0  0  0
   20.2000   82.9060   18.4740 C   0  0  0  0  0  0  0  0  0  0  0  0
   20.5360   81.6360   18.0600 C   0  0  0  0  0  0  0  0  0  0  0  0
   20.3460   80.5300   18.8580 C   0  0  0  0  0  0  0  0  0  0  0  0
   19.8010   80.6850   20.1260 C   0  0  0  0  0  0  0  0  0  0  0  0
   19.4630   81.9740   20.5420 C   0  0  0  0  0  0  0  0  0  0  0  0
   20.7010   79.2140   18.4160 N   0  0  0  0  0  0  0  0  0  0  0  0
   21.8780   78.9450   17.6700 C   0  0  0  0  0  0  0  0  0  0  0  0
   22.8690   79.7120   17.6160 O   0  0  0  0  0  0  0  0  0  0  0  0
   21.7310   77.6320   16.9860 C   0  0  2  0  0  0  0  0  0  0  0  0
   21.2240   77.7780   15.5850 C   0  0  1  0  0  0  0  0  0  0  0  0
   20.4930   76.5760   15.4520 O   0  0  0  0  0  0  0  0  0  0  0  0
   19.5860   76.8100   16.5160 C   0  0  1  0  0  0  0  0  0  0  0  0
   20.5240   76.9780   17.6610 C   0  0  2  0  0  0  0  0  0  0  0  0
   19.9980   77.9890   18.6170 C   0  0  0  0  0  0  0  0  0  0  0  0
   19.1010   77.7800   19.4390 O   0  0  0  0  0  0  0  0  0  0  0  0
   19.0850   78.1510   16.1160 C   0  0  0  0  0  0  0  0  0  0  0  0
   20.1380   78.7710   15.5920 C   0  0  0  0  0  0  0  0  0  0  0  0
   22.2520   77.9390   14.5500 C   0  0  0  0  0  0  0  0  0  0  0  0
   22.9760   79.0950   14.6590 O   0  0  0  0  0  0  0  0  0  0  0  0
   22.6470   79.9220   13.6150 C   0  0  0  0  0  0  0  0  0  0  0  0
   21.6360   79.1890   12.7970 C   0  0  0  0  0  0  0  0  0  0  0  0
   21.7160   77.8860   13.2760 O   0  0  0  0  0  0  0  0  0  0  0  0
   20.3710   83.7510   17.8010 H   0  0  0  0  0  0  0  0  0  0  0  0
   20.9700   81.4780   17.0610 H   0  0  0  0  0  0  0  0  0  0  0  0
   19.6590   79.8110   20.7380 H   0  0  0  0  0  0  0  0  0  0  0  0
   19.0390   82.0940   21.5290 H   0  0  0  0  0  0  0  0  0  0  0  0
   22.6440   77.0450   17.0750 H   0  0  0  0  0  0  0  0  0  0  0  0
   18.8330   76.0470   16.6130 H   0  0  0  0  0  0  0  0  0  0  0  0
   20.8060   76.0540   18.1660 H   0  0  0  0  0  0  0  0  0  0  0  0
   18.0630   78.4760   16.2580 H   0  0  0  0  0  0  0  0  0  0  0  0
   20.0910   79.8060   15.2690 H   0  0  0  0  0  0  0  0  0  0  0  0
   22.9600   77.0710   14.6340 H   0  0  0  0  0  0  0  0  0  0  0  0
   23.5130   80.2030   12.9830 H   0  0  0  0  0  0  0  0  0  0  0  0
   22.1540   80.8330   14.0440 H   0  0  0  0  0  0  0  0  0  0  0  0
   21.9050   79.2280   11.7010 H   0  0  0  0  0  0  0  0  0  0  0  0
   20.5910   79.5650   12.9410 H   0  0  0  0  0  0  0  0  0  0  0  0
  2  1  1  0  0  0  0
  2  7  1  0  0  0  0
  3  2  2  0  0  0  0
  4  3  1  0  0  0  0
  4  5  2  0  0  0  0
  5  6  1  0  0  0  0
  6  7  2  0  0  0  0
  6 27  1  0  0  0  0
  7 28  1  0  0  0  0
  8 16  1  0  0  0  0
  8  5  1  0  0  0  0
  9  8  1  0  0  0  0
 10  9  2  0  0  0  0
 11 29  1  1  0  0  0
 11 15  1  0  0  0  0
 11  9  1  0  0  0  0
 12 20  1  6  0  0  0
 12 19  1  0  0  0  0
 12 11  1  0  0  0  0
 13 12  1  0  0  0  0
 13 14  1  0  0  0  0
 14 30  1  1  0  0  0
 14 15  1  0  0  0  0
 15 31  1  1  0  0  0
 15 16  1  0  0  0  0
 16 17  2  0  0  0  0
 18 32  1  0  0  0  0
 18 14  1  0  0  0  0
 19 18  2  0  0  0  0
 20 34  1  0  0  0  0
 20 21  1  0  0  0  0
 22 36  1  0  0  0  0
 22 21  1  0  0  0  0
 23 38  1  0  0  0  0
 23 24  1  0  0  0  0
 23 22  1  0  0  0  0
 24 20  1  0  0  0  0
 25  3  1  0  0  0  0
 26  4  1  0  0  0  0
 33 19  1  0  0  0  0
 35 22  1  0  0  0  0
 37 23  1  0  0  0  0
M  END
>  <Pose>
1

>  <Score>
-4.93

$$$$
