
 OpenBabel03222202113D

 41 44  0  0  1  0  0  0  0  0999 V2000
   17.8260   75.1480    6.5020 B   0  0  0  0  0  0  0  0  0  0  0  0
   18.7550   76.2880    7.7460 C   0  0  0  0  0  0  0  0  0  0  0  0
   19.2520   75.7590    8.9100 C   0  0  0  0  0  0  0  0  0  0  0  0
   19.9030   76.5780    9.7750 C   0  0  0  0  0  0  0  0  0  0  0  0
   20.1040   77.9460    9.5570 C   0  0  0  0  0  0  0  0  0  0  0  0
   19.6000   78.4510    8.3890 C   0  0  0  0  0  0  0  0  0  0  0  0
   18.9330   77.6350    7.4940 C   0  0  0  0  0  0  0  0  0  0  0  0
   20.7940   78.7250   10.5120 N   0  0  0  0  0  0  0  0  0  0  0  0
   21.5620   79.9260   10.3050 C   0  0  0  0  0  0  0  0  0  0  0  0
   21.4220   80.7460    9.3530 O   0  0  0  0  0  0  0  0  0  0  0  0
   22.5370   80.0090   11.4160 C   0  0  1  0  0  0  0  0  0  0  0  0
   22.8360   81.3590   11.8520 N   0  0  0  0  0  0  0  0  0  0  0  0
   22.9730   81.1080   13.2520 N   0  0  0  0  0  0  0  0  0  0  0  0
   21.9540   80.1910   13.6510 C   0  0  0  0  0  0  0  0  0  0  0  0
   21.6690   79.5080   12.5480 C   0  0  0  0  0  0  0  0  0  0  0  0
   20.8650   78.4670   11.9200 C   0  0  0  0  0  0  0  0  0  0  0  0
   20.3540   77.5300   12.5940 O   0  0  0  0  0  0  0  0  0  0  0  0
   21.3550   80.0230   14.9700 C   0  0  0  0  0  0  0  0  0  0  0  0
   20.5480   80.8600   15.4400 O   0  0  0  0  0  0  0  0  0  0  0  0
   21.6420   78.9330   15.7790 O   0  0  0  0  0  0  0  0  0  0  0  0
   22.2680   79.0870   17.0450 C   0  0  0  0  0  0  0  0  0  0  0  0
   21.2400   78.9310   18.1270 C   0  0  0  0  0  0  0  0  0  0  0  0
   21.0640   77.7010   18.7600 C   0  0  0  0  0  0  0  0  0  0  0  0
   20.1420   77.5180   19.7540 C   0  0  0  0  0  0  0  0  0  0  0  0
   19.3510   78.5940   20.1480 C   0  0  0  0  0  0  0  0  0  0  0  0
   19.5280   79.8070   19.5200 C   0  0  0  0  0  0  0  0  0  0  0  0
   20.4730   79.9840   18.5070 C   0  0  0  0  0  0  0  0  0  0  0  0
   19.1150   74.6960    9.1130 H   0  0  0  0  0  0  0  0  0  0  0  0
   20.2960   76.1630   10.6930 H   0  0  0  0  0  0  0  0  0  0  0  0
   19.7150   79.5000    8.1480 H   0  0  0  0  0  0  0  0  0  0  0  0
   18.5320   78.0250    6.5690 H   0  0  0  0  0  0  0  0  0  0  0  0
   23.4290   79.3950   11.2770 H   0  0  0  0  0  0  0  0  0  0  0  0
   21.9210   81.8840   11.7650 H   0  0  0  0  0  0  0  0  0  0  0  0
   23.6880   81.5200   13.8830 H   0  0  0  0  0  0  0  0  0  0  0  0
   23.1080   78.4080   17.1910 H   0  0  0  0  0  0  0  0  0  0  0  0
   22.6400   80.1270   17.1140 H   0  0  0  0  0  0  0  0  0  0  0  0
   21.6650   76.8690   18.4660 H   0  0  0  0  0  0  0  0  0  0  0  0
   19.9990   76.5680   20.2470 H   0  0  0  0  0  0  0  0  0  0  0  0
   18.6070   78.4830   20.9350 H   0  0  0  0  0  0  0  0  0  0  0  0
   18.9510   80.6710   19.7790 H   0  0  0  0  0  0  0  0  0  0  0  0
   20.5870   80.9470   18.0370 H   0  0  0  0  0  0  0  0  0  0  0  0
  1  2  1  0  0  0  0
  2  3  1  0  0  0  0
  3 28  1  0  0  0  0
  3  4  2  0  0  0  0
  4 29  1  0  0  0  0
  5  4  1  0  0  0  0
  5  8  1  0  0  0  0
  6  5  2  0  0  0  0
  7  2  2  0  0  0  0
  7  6  1  0  0  0  0
  8 16  1  0  0  0  0
  9  8  1  0  0  0  0
  9 11  1  0  0  0  0
 10  9  2  0  0  0  0
 11 32  1  6  0  0  0
 11 12  1  0  0  0  0
 11 15  1  0  0  0  0
 12 13  1  0  0  0  0
 13 14  1  0  0  0  0
 13 34  1  0  0  0  0
 14 18  1  0  0  0  0
 15 14  2  0  0  0  0
 16 15  1  0  0  0  0
 16 17  2  0  0  0  0
 18 19  2  0  0  0  0
 18 20  1  0  0  0  0
 20 21  1  0  0  0  0
 21 36  1  0  0  0  0
 21 35  1  0  0  0  0
 21 22  1  0  0  0  0
 22 27  2  0  0  0  0
 22 23  1  0  0  0  0
 23 24  2  0  0  0  0
 24 25  1  0  0  0  0
 24 38  1  0  0  0  0
 25 39  1  0  0  0  0
 26 40  1  0  0  0  0
 26 25  2  0  0  0  0
 27 26  1  0  0  0  0
 30  6  1  0  0  0  0
 31  7  1  0  0  0  0
 33 12  1  0  0  0  0
 37 23  1  0  0  0  0
 41 27  1  0  0  0  0
M  END
>  <Pose>
1

>  <Score>
-7.02

$$$$
