
 OpenBabel03222202113D

 47 51  0  0  1  0  0  0  0  0999 V2000
   17.4580   74.8040    5.9760 B   0  0  0  0  0  0  0  0  0  0  0  0
   18.4220   76.0100    7.1230 C   0  0  0  0  0  0  0  0  0  0  0  0
   19.4340   75.5800    7.9280 C   0  0  0  0  0  0  0  0  0  0  0  0
   20.1090   76.4840    8.7450 C   0  0  0  0  0  0  0  0  0  0  0  0
   19.7800   77.8240    8.7670 C   0  0  0  0  0  0  0  0  0  0  0  0
   18.7520   78.2220    7.9400 C   0  0  0  0  0  0  0  0  0  0  0  0
   18.0700   77.3490    7.1230 C   0  0  0  0  0  0  0  0  0  0  0  0
   20.4910   78.7200    9.6140 N   0  0  0  0  0  0  0  0  0  0  0  0
   20.9660   79.9230    9.3110 N   0  0  0  0  0  0  0  0  0  0  0  0
   21.5810   80.4690   10.3770 C   0  0  0  0  0  0  0  0  0  0  0  0
   22.1660   81.6590   10.4220 C   0  0  0  0  0  0  0  0  0  0  0  0
   21.5060   79.5790   11.4290 C   0  0  1  0  0  0  0  0  0  0  0  0
   21.9820   79.7130   12.6700 C   0  0  0  0  0  0  0  0  0  0  0  0
   21.7730   78.6410   13.5820 N   0  0  0  0  0  4  0  0  0  0  0  0
   22.4670   78.5580   14.8350 C   0  0  2  0  0  0  0  0  0  0  0  0
   23.9270   78.3160   14.6200 C   0  0  0  0  0  0  0  0  0  0  0  0
   24.6070   78.3350   15.9070 N   0  0  1  0  0  0  0  0  0  0  0  0
   24.3920   79.6490   16.5020 C   0  0  0  0  0  0  0  0  0  0  0  0
   22.9970   79.8850   16.7850 N   0  0  2  0  0  0  0  0  0  0  0  0
   22.4770   78.7990   17.6100 C   0  0  0  0  0  0  0  0  0  0  0  0
   22.6560   77.5120   16.9770 N   0  0  2  0  0  0  0  0  0  0  0  0
   24.0650   77.2950   16.7440 C   0  0  0  0  0  0  0  0  0  0  0  0
   21.9340   77.4620   15.7280 C   0  0  0  0  0  0  0  0  0  0  0  0
   22.2530   79.8940   15.5530 C   0  0  0  0  0  0  0  0  0  0  0  0
   20.8140   78.4970   10.9050 C   0  0  0  0  0  0  0  0  0  0  0  0
   20.5370   77.4640   11.5570 O   0  0  0  0  0  0  0  0  0  0  0  0
   19.7050   74.5390    7.9260 H   0  0  0  0  0  0  0  0  0  0  0  0
   20.9100   76.1390    9.3810 H   0  0  0  0  0  0  0  0  0  0  0  0
   18.4830   79.2660    7.9450 H   0  0  0  0  0  0  0  0  0  0  0  0
   17.2580   77.6570    6.4690 H   0  0  0  0  0  0  0  0  0  0  0  0
   20.8740   80.3790    8.3810 H   0  0  0  0  0  0  0  0  0  0  0  0
   22.1740   82.2890    9.5450 H   0  0  0  0  0  0  0  0  0  0  0  0
   22.6420   82.0460   11.3010 H   0  0  0  0  0  0  0  0  0  0  0  0
   22.5020   80.6180   12.9290 H   0  0  0  0  0  0  0  0  0  0  0  0
   21.0980   77.9090   13.3190 H   0  0  0  0  0  0  0  0  0  0  0  0
   24.3330   79.0600   13.9270 H   0  0  0  0  0  0  0  0  0  0  0  0
   24.0360   77.3060   14.1630 H   0  0  0  0  0  0  0  0  0  0  0  0
   24.7500   80.4060   15.7930 H   0  0  0  0  0  0  0  0  0  0  0  0
   24.9400   79.6920   17.4720 H   0  0  0  0  0  0  0  0  0  0  0  0
   21.4340   79.0130   17.8710 H   0  0  0  0  0  0  0  0  0  0  0  0
   23.0710   78.8180   18.5470 H   0  0  0  0  0  0  0  0  0  0  0  0
   24.2230   76.3300   16.1980 H   0  0  0  0  0  0  0  0  0  0  0  0
   24.6250   77.2950   17.6940 H   0  0  0  0  0  0  0  0  0  0  0  0
   22.1140   76.4790   15.2480 H   0  0  0  0  0  0  0  0  0  0  0  0
   20.8450   77.5720   15.9200 H   0  0  0  0  0  0  0  0  0  0  0  0
   22.6690   80.6660   14.8730 H   0  0  0  0  0  0  0  0  0  0  0  0
   21.1650   80.0060   15.7290 H   0  0  0  0  0  0  0  0  0  0  0  0
  1  2  1  0  0  0  0
  2  7  2  0  0  0  0
  2  3  1  0  0  0  0
  3  4  2  0  0  0  0
  4  5  1  0  0  0  0
  4 28  1  0  0  0  0
  5  8  1  0  0  0  0
  6 29  1  0  0  0  0
  6  5  2  0  0  0  0
  7  6  1  0  0  0  0
  8 25  1  0  0  0  0
  9  8  1  0  0  0  0
  9 10  1  0  0  0  0
 10 11  2  0  0  0  0
 10 12  1  0  0  0  0
 11 33  1  0  0  0  0
 12 13  1  1  0  0  0
 13 34  1  0  0  0  0
 13 14  2  0  0  0  0
 15 14  1  6  0  0  0
 15 24  1  0  0  0  0
 15 23  1  0  0  0  0
 16 15  1  0  0  0  0
 17 16  1  6  0  0  0
 17 18  1  0  0  0  0
 17 22  1  0  0  0  0
 18 19  1  0  0  0  0
 18 39  1  0  0  0  0
 19 24  1  6  0  0  0
 19 20  1  0  0  0  0
 20 40  1  0  0  0  0
 20 41  1  0  0  0  0
 21 23  1  6  0  0  0
 21 20  1  0  0  0  0
 22 21  1  0  0  0  0
 22 43  1  0  0  0  0
 23 45  1  0  0  0  0
 24 47  1  0  0  0  0
 25 12  1  0  0  0  0
 25 26  2  0  0  0  0
 27  3  1  0  0  0  0
 30  7  1  0  0  0  0
 31  9  1  0  0  0  0
 32 11  1  0  0  0  0
 35 14  1  0  0  0  0
 36 16  1  0  0  0  0
 37 16  1  0  0  0  0
 38 18  1  0  0  0  0
 42 22  1  0  0  0  0
 44 23  1  0  0  0  0
 46 24  1  0  0  0  0
M  END
>  <Pose>
1

>  <Score>
-6.51

$$$$
