
 OpenBabel03222202113D

 49 52  0  0  1  0  0  0  0  0999 V2000
   19.7490   82.9410   20.4870 B   0  0  0  0  0  0  0  0  0  0  0  0
   19.7510   81.3920   19.3520 C   0  0  0  0  0  0  0  0  0  0  0  0
   19.1870   80.2180   19.7980 C   0  0  0  0  0  0  0  0  0  0  0  0
   19.1900   79.0910   18.9710 C   0  0  0  0  0  0  0  0  0  0  0  0
   19.7470   79.1360   17.7160 C   0  0  0  0  0  0  0  0  0  0  0  0
   20.3040   80.3160   17.2880 C   0  0  0  0  0  0  0  0  0  0  0  0
   20.3090   81.4330   18.0910 C   0  0  0  0  0  0  0  0  0  0  0  0
   19.7440   78.0200   16.9080 O   0  0  0  0  0  0  0  0  0  0  0  0
   20.1080   78.1390   15.5630 C   0  0  0  0  0  0  0  0  0  0  0  0
   20.4760   76.8520   14.9440 C   0  0  0  0  0  0  0  0  0  0  0  0
   21.6570   76.6310   14.6240 O   0  0  0  0  0  0  0  0  0  0  0  0
   19.4840   75.8750   14.7210 N   0  0  0  0  0  0  0  0  0  0  0  0
   19.1870   75.3610   13.4250 C   0  0  0  0  0  0  0  0  0  0  0  0
   19.3700   76.1060   12.3190 N   0  0  0  0  0  0  0  0  0  0  0  0
   19.0870   75.5950   11.1320 C   0  0  0  0  0  0  0  0  0  0  0  0
   19.1850   76.1280    9.9070 N   0  0  0  0  0  0  0  0  0  0  0  0
   18.7640   75.1660    9.0550 C   0  0  0  0  0  0  0  0  0  0  0  0
   18.4170   74.0690    9.7350 N   0  0  0  0  0  0  0  0  0  0  0  0
   18.5990   74.2850   11.0390 C   0  0  0  0  0  0  0  0  0  0  0  0
   18.4090   73.5150   12.1700 C   0  0  0  0  0  0  0  0  0  0  0  0
   18.7110   74.0840   13.3400 N   0  0  0  0  0  0  0  0  0  0  0  0
   17.9240   72.2240   12.0190 O   0  0  0  0  0  0  0  0  0  0  0  0
   19.6160   77.4030    9.4770 C   0  0  2  0  0  0  0  0  0  0  0  0
   20.9160   77.6900    9.9140 O   0  0  0  0  0  0  0  0  0  0  0  0
   20.6920   78.4770   11.0410 C   0  0  2  0  0  0  0  0  0  0  0  0
   19.7300   79.5060   10.4660 C   0  0  1  0  0  0  0  0  0  0  0  0
   18.7540   78.5550    9.7770 C   0  0  1  0  0  0  0  0  0  0  0  0
   18.2450   79.1580    8.6040 O   0  0  0  0  0  0  0  0  0  0  0  0
   19.1430   80.2970   11.4130 O   0  0  0  0  0  0  0  0  0  0  0  0
   21.9510   79.1070   11.5610 C   0  0  0  0  0  0  0  0  0  0  0  0
   21.8020   79.7270   12.7720 O   0  0  0  0  0  0  0  0  0  0  0  0
   18.7530   80.1910   20.7820 H   0  0  0  0  0  0  0  0  0  0  0  0
   18.7310   78.2100   19.3890 H   0  0  0  0  0  0  0  0  0  0  0  0
   20.7660   80.4290   16.3030 H   0  0  0  0  0  0  0  0  0  0  0  0
   20.7430   82.3760   17.7750 H   0  0  0  0  0  0  0  0  0  0  0  0
   21.0280   78.7840   15.5230 H   0  0  0  0  0  0  0  0  0  0  0  0
   19.3530   78.6810   14.9580 H   0  0  0  0  0  0  0  0  0  0  0  0
   18.9180   75.4910   15.5320 H   0  0  0  0  0  0  0  0  0  0  0  0
   18.7040   75.2400    7.9600 H   0  0  0  0  0  0  0  0  0  0  0  0
   17.9240   71.8590   11.0600 H   0  0  0  0  0  0  0  0  0  0  0  0
   19.7310   77.3620    8.3500 H   0  0  0  0  0  0  0  0  0  0  0  0
   20.1290   77.9430   11.8300 H   0  0  0  0  0  0  0  0  0  0  0  0
   20.2320   80.0940    9.6700 H   0  0  0  0  0  0  0  0  0  0  0  0
   17.9130   78.4090   10.4320 H   0  0  0  0  0  0  0  0  0  0  0  0
   17.9740   80.0710    8.8750 H   0  0  0  0  0  0  0  0  0  0  0  0
   19.7210   81.0750   11.6960 H   0  0  0  0  0  0  0  0  0  0  0  0
   22.3480   79.7580   10.7570 H   0  0  0  0  0  0  0  0  0  0  0  0
   22.6990   78.2830   11.6770 H   0  0  0  0  0  0  0  0  0  0  0  0
   21.5290   80.6680   12.6120 H   0  0  0  0  0  0  0  0  0  0  0  0
  2  3  1  0  0  0  0
  2  1  1  0  0  0  0
  3 32  1  0  0  0  0
  4 33  1  0  0  0  0
  4  3  2  0  0  0  0
  5  4  1  0  0  0  0
  6  5  2  0  0  0  0
  6  7  1  0  0  0  0
  7  2  2  0  0  0  0
  8  5  1  0  0  0  0
  9  8  1  0  0  0  0
 10  9  1  0  0  0  0
 11 10  2  0  0  0  0
 12 10  1  0  0  0  0
 12 38  1  0  0  0  0
 13 12  1  0  0  0  0
 14 13  2  0  0  0  0
 15 14  1  0  0  0  0
 16 15  1  0  0  0  0
 17 18  2  0  0  0  0
 17 16  1  0  0  0  0
 18 19  1  0  0  0  0
 19 15  2  0  0  0  0
 19 20  1  0  0  0  0
 20 21  2  0  0  0  0
 21 13  1  0  0  0  0
 22 20  1  0  0  0  0
 23 41  1  6  0  0  0
 23 27  1  0  0  0  0
 23 16  1  0  0  0  0
 23 24  1  0  0  0  0
 24 25  1  0  0  0  0
 25 30  1  0  0  0  0
 25 42  1  1  0  0  0
 26 43  1  6  0  0  0
 26 25  1  0  0  0  0
 26 29  1  0  0  0  0
 27 44  1  1  0  0  0
 27 26  1  0  0  0  0
 28 45  1  0  0  0  0
 28 27  1  0  0  0  0
 29 46  1  0  0  0  0
 30 48  1  0  0  0  0
 30 31  1  0  0  0  0
 34  6  1  0  0  0  0
 35  7  1  0  0  0  0
 36  9  1  0  0  0  0
 37  9  1  0  0  0  0
 39 17  1  0  0  0  0
 40 22  1  0  0  0  0
 47 30  1  0  0  0  0
 49 31  1  0  0  0  0
M  END
>  <Pose>
1

>  <Score>
-8.21

$$$$
