
 OpenBabel03222202113D

 49 52  0  0  0  0  0  0  0  0999 V2000
   19.9730   77.5810   19.6110 B   0  0  0  0  0  0  0  0  0  0  0  0
   20.0620   79.4120   19.0760 C   0  0  0  0  0  0  0  0  0  0  0  0
   19.8510   80.4170   19.9920 C   0  0  0  0  0  0  0  0  0  0  0  0
   19.9120   81.7380   19.6230 C   0  0  0  0  0  0  0  0  0  0  0  0
   20.1900   82.0260   18.3160 C   0  0  0  0  0  0  0  0  0  0  0  0
   20.4030   81.0050   17.3910 C   0  0  0  0  0  0  0  0  0  0  0  0
   20.3470   79.6710   17.7360 C   0  0  0  0  0  0  0  0  0  0  0  0
   20.5930   78.5650   16.7770 C   0  0  0  0  0  0  0  0  0  0  0  0
   21.8420   78.7750   16.0720 N   0  0  0  0  0  0  0  0  0  0  0  0
   22.5060   79.9960   16.6000 C   0  0  0  0  0  0  0  0  0  0  0  0
   23.6610   80.2100   15.6270 C   0  0  0  0  0  0  0  0  0  0  0  0
   23.8940   79.1140   14.7610 N   0  0  0  0  0  0  0  0  0  0  0  0
   23.9550   77.8520   15.4510 C   0  0  0  0  0  0  0  0  0  0  0  0
   22.8070   77.7280   16.4100 C   0  0  0  0  0  0  0  0  0  0  0  0
   23.2380   79.1040   13.5080 C   0  0  0  0  0  0  0  0  0  0  0  0
   22.6060   80.3440   13.0990 C   0  0  0  0  0  0  0  0  0  0  0  0
   23.0090   81.4460   13.5270 O   0  0  0  0  0  0  0  0  0  0  0  0
   21.5140   80.3420   12.2010 N   0  0  0  0  0  0  0  0  0  0  0  0
   21.3680   79.3460   11.1470 C   0  0  0  0  0  0  0  0  0  0  0  0
   21.5490   79.7190    9.7350 C   0  0  0  0  0  0  0  0  0  0  0  0
   20.1520   79.5430   10.2470 C   0  0  0  0  0  0  0  0  0  0  0  0
   20.2560   83.3530   17.9240 O   0  0  0  0  0  0  0  0  0  0  0  0
   19.8020   84.4210   18.7140 C   0  0  0  0  0  0  0  0  0  0  0  0
   19.9430   84.1220   20.1720 C   0  0  0  0  0  0  0  0  0  0  0  0
   19.7070   82.7800   20.5170 O   0  0  0  0  0  0  0  0  0  0  0  0
   19.6290   80.2100   21.0400 H   0  0  0  0  0  0  0  0  0  0  0  0
   20.6230   81.3200   16.4020 H   0  0  0  0  0  0  0  0  0  0  0  0
   19.7630   78.4140   16.0770 H   0  0  0  0  0  0  0  0  0  0  0  0
   20.7130   77.6300   17.3790 H   0  0  0  0  0  0  0  0  0  0  0  0
   21.8240   80.8400   16.6590 H   0  0  0  0  0  0  0  0  0  0  0  0
   22.8690   79.7270   17.6130 H   0  0  0  0  0  0  0  0  0  0  0  0
   24.5790   80.3310   16.2760 H   0  0  0  0  0  0  0  0  0  0  0  0
   23.5680   81.1830   15.1040 H   0  0  0  0  0  0  0  0  0  0  0  0
   24.9450   77.7500   15.9590 H   0  0  0  0  0  0  0  0  0  0  0  0
   23.9530   77.0060   14.7030 H   0  0  0  0  0  0  0  0  0  0  0  0
   22.3850   76.7380   16.5360 H   0  0  0  0  0  0  0  0  0  0  0  0
   23.2420   77.9790   17.4300 H   0  0  0  0  0  0  0  0  0  0  0  0
   23.9310   78.7600   12.7040 H   0  0  0  0  0  0  0  0  0  0  0  0
   22.4400   78.3070   13.5320 H   0  0  0  0  0  0  0  0  0  0  0  0
   20.7390   81.0650   12.2460 H   0  0  0  0  0  0  0  0  0  0  0  0
   21.6130   78.3320   11.4750 H   0  0  0  0  0  0  0  0  0  0  0  0
   21.8110   80.7560    9.4150 H   0  0  0  0  0  0  0  0  0  0  0  0
   21.9050   78.9440    9.0270 H   0  0  0  0  0  0  0  0  0  0  0  0
   19.5530   80.4600   10.4040 H   0  0  0  0  0  0  0  0  0  0  0  0
   19.6160   78.5960   10.0350 H   0  0  0  0  0  0  0  0  0  0  0  0
   18.7720   84.6690   18.4100 H   0  0  0  0  0  0  0  0  0  0  0  0
   20.4830   85.2900   18.4900 H   0  0  0  0  0  0  0  0  0  0  0  0
   20.9820   84.4010   20.5040 H   0  0  0  0  0  0  0  0  0  0  0  0
   19.1840   84.7290   20.7170 H   0  0  0  0  0  0  0  0  0  0  0  0
  2  1  1  0  0  0  0
  2  3  1  0  0  0  0
  3 26  1  0  0  0  0
  4  3  2  0  0  0  0
  4 25  1  0  0  0  0
  5  4  1  0  0  0  0
  6  7  1  0  0  0  0
  6  5  2  0  0  0  0
  7  2  2  0  0  0  0
  8 29  1  0  0  0  0
  8  7  1  0  0  0  0
  9 14  1  0  0  0  0
  9 10  1  0  0  0  0
  9  8  1  0  0  0  0
 10 30  1  0  0  0  0
 10 31  1  0  0  0  0
 11 32  1  0  0  0  0
 11 10  1  0  0  0  0
 12 13  1  0  0  0  0
 12 11  1  0  0  0  0
 13 34  1  0  0  0  0
 13 14  1  0  0  0  0
 14 36  1  0  0  0  0
 14 37  1  0  0  0  0
 15 39  1  0  0  0  0
 15 12  1  0  0  0  0
 16 15  1  0  0  0  0
 16 17  2  0  0  0  0
 18 40  1  0  0  0  0
 18 16  1  0  0  0  0
 19 41  1  0  0  0  0
 19 18  1  0  0  0  0
 20 21  1  0  0  0  0
 20 19  1  0  0  0  0
 21 44  1  0  0  0  0
 21 19  1  0  0  0  0
 22  5  1  0  0  0  0
 22 23  1  0  0  0  0
 23 24  1  0  0  0  0
 24 48  1  0  0  0  0
 24 25  1  0  0  0  0
 24 49  1  0  0  0  0
 27  6  1  0  0  0  0
 28  8  1  0  0  0  0
 33 11  1  0  0  0  0
 35 13  1  0  0  0  0
 38 15  1  0  0  0  0
 42 20  1  0  0  0  0
 43 20  1  0  0  0  0
 45 21  1  0  0  0  0
 46 23  1  0  0  0  0
 47 23  1  0  0  0  0
M  END
>  <Pose>
1

>  <Score>
-6.49

$$$$
