
 OpenBabel03222202113D

 41 44  0  0  0  0  0  0  0  0999 V2000
   23.0570   81.2540   14.1110 B   0  0  0  0  0  0  0  0  0  0  0  0
   22.2580   79.7560   14.9970 C   0  0  0  0  0  0  0  0  0  0  0  0
   21.9450   79.7930   16.3330 C   0  0  0  0  0  0  0  0  0  0  0  0
   21.3690   78.7030   16.9540 C   0  0  0  0  0  0  0  0  0  0  0  0
   21.1090   77.5690   16.2150 C   0  0  0  0  0  0  0  0  0  0  0  0
   21.4300   77.5400   14.8590 C   0  0  0  0  0  0  0  0  0  0  0  0
   22.0050   78.6160   14.2220 C   0  0  0  0  0  0  0  0  0  0  0  0
   22.3130   78.6120   12.7810 C   0  0  0  0  0  0  0  0  0  0  0  0
   21.5400   79.4980   12.0280 O   0  0  0  0  0  0  0  0  0  0  0  0
   20.7520   79.1190   10.9560 C   0  0  0  0  0  0  0  0  0  0  0  0
   19.5200   79.7430   10.7230 C   0  0  0  0  0  0  0  0  0  0  0  0
   18.6990   79.4080    9.6700 C   0  0  0  0  0  0  0  0  0  0  0  0
   19.0680   78.4210    8.7830 C   0  0  0  0  0  0  0  0  0  0  0  0
   20.2790   77.7970    8.9960 C   0  0  0  0  0  0  0  0  0  0  0  0
   21.1130   78.1350   10.0630 C   0  0  0  0  0  0  0  0  0  0  0  0
   18.2060   78.0530    7.6570 C   0  0  0  0  0  0  0  0  0  0  0  0
   18.1610   76.8980    6.9740 N   0  0  0  0  0  0  0  0  0  0  0  0
   17.2230   76.9970    6.0260 N   0  0  0  0  0  0  0  0  0  0  0  0
   16.6770   78.2020    6.1020 N   0  0  0  0  0  0  0  0  0  0  0  0
   17.2760   78.8410    7.0930 N   0  0  0  0  0  0  0  0  0  0  0  0
   16.8250   76.0010    5.0530 C   0  0  0  0  0  0  0  0  0  0  0  0
   17.1670   74.6460    5.5380 C   0  0  0  0  0  0  0  0  0  0  0  0
   18.2560   74.1390    5.2260 O   0  0  0  0  0  0  0  0  0  0  0  0
   16.2450   73.9500    6.3490 N   0  0  0  0  0  0  0  0  0  0  0  0
   20.5420   76.6500   17.0750 O   0  0  0  0  0  0  0  0  0  0  0  0
   20.1550   77.2780   18.2850 C   0  0  0  0  0  0  0  0  0  0  0  0
   20.9480   78.4440   18.2610 O   0  0  0  0  0  0  0  0  0  0  0  0
   22.1470   80.6930   16.9330 H   0  0  0  0  0  0  0  0  0  0  0  0
   21.1830   76.6210   14.3370 H   0  0  0  0  0  0  0  0  0  0  0  0
   23.3960   78.7520   12.5760 H   0  0  0  0  0  0  0  0  0  0  0  0
   22.0770   77.5830   12.4150 H   0  0  0  0  0  0  0  0  0  0  0  0
   19.2590   80.5180   11.4440 H   0  0  0  0  0  0  0  0  0  0  0  0
   17.7530   79.9100    9.5180 H   0  0  0  0  0  0  0  0  0  0  0  0
   20.5620   77.0270    8.2990 H   0  0  0  0  0  0  0  0  0  0  0  0
   22.0610   77.6160   10.1820 H   0  0  0  0  0  0  0  0  0  0  0  0
   15.7310   76.0720    4.8920 H   0  0  0  0  0  0  0  0  0  0  0  0
   17.3400   76.2390    4.0990 H   0  0  0  0  0  0  0  0  0  0  0  0
   15.8890   72.9840    6.1090 H   0  0  0  0  0  0  0  0  0  0  0  0
   15.8890   74.3880    7.2250 H   0  0  0  0  0  0  0  0  0  0  0  0
   19.0730   77.5000   18.2220 H   0  0  0  0  0  0  0  0  0  0  0  0
   20.3680   76.6160   19.1410 H   0  0  0  0  0  0  0  0  0  0  0  0
  1  2  1  0  0  0  0
  2  3  1  0  0  0  0
  3 28  1  0  0  0  0
  3  4  2  0  0  0  0
  4 27  1  0  0  0  0
  5  4  1  0  0  0  0
  5 25  1  0  0  0  0
  6  5  2  0  0  0  0
  7  6  1  0  0  0  0
  7  2  2  0  0  0  0
  8  7  1  0  0  0  0
  9  8  1  0  0  0  0
 10  9  1  0  0  0  0
 11 10  1  0  0  0  0
 11 32  1  0  0  0  0
 12 11  2  0  0  0  0
 13 14  2  0  0  0  0
 13 12  1  0  0  0  0
 14 15  1  0  0  0  0
 15 35  1  0  0  0  0
 15 10  2  0  0  0  0
 16 13  1  0  0  0  0
 17 16  2  0  0  0  0
 18 19  1  0  0  0  0
 18 17  1  0  0  0  0
 19 20  2  0  0  0  0
 20 16  1  0  0  0  0
 21 22  1  0  0  0  0
 21 18  1  0  0  0  0
 22 24  1  0  0  0  0
 23 22  2  0  0  0  0
 24 39  1  0  0  0  0
 25 26  1  0  0  0  0
 26 41  1  0  0  0  0
 27 26  1  0  0  0  0
 29  6  1  0  0  0  0
 30  8  1  0  0  0  0
 31  8  1  0  0  0  0
 33 12  1  0  0  0  0
 34 14  1  0  0  0  0
 36 21  1  0  0  0  0
 37 21  1  0  0  0  0
 38 24  1  0  0  0  0
 40 26  1  0  0  0  0
M  END
>  <Pose>
1

>  <Score>
-7.83

$$$$
