
 OpenBabel03222202113D

 44 47  0  0  0  0  0  0  0  0999 V2000
   20.0750   84.6070   18.6050 B   0  0  0  0  0  0  0  0  0  0  0  0
   19.9640   82.7220   18.8730 C   0  0  0  0  0  0  0  0  0  0  0  0
   20.2010   81.8500   17.8230 C   0  0  0  0  0  0  0  0  0  0  0  0
   20.1280   80.4750   17.9880 C   0  0  0  0  0  0  0  0  0  0  0  0
   19.8060   80.0300   19.2560 C   0  0  0  0  0  0  0  0  0  0  0  0
   19.5640   80.8710   20.3140 C   0  0  0  0  0  0  0  0  0  0  0  0
   19.6440   82.2290   20.1240 C   0  0  0  0  0  0  0  0  0  0  0  0
   19.7310   78.6590   19.4260 C   0  0  0  0  0  0  0  0  0  0  0  0
   19.4370   78.1820   20.5710 O   0  0  0  0  0  0  0  0  0  0  0  0
   19.9770   77.8390   18.3450 C   0  0  0  0  0  0  0  0  0  0  0  0
   20.2950   78.3430   17.1060 C   0  0  0  0  0  0  0  0  0  0  0  0
   20.3530   79.6470   16.9970 O   0  0  0  0  0  0  0  0  0  0  0  0
   20.5490   77.4280   15.9850 C   0  0  0  0  0  0  0  0  0  0  0  0
   20.0650   76.2620   16.0530 O   0  0  0  0  0  0  0  0  0  0  0  0
   21.3040   77.7990   14.8540 N   0  0  0  0  0  0  0  0  0  0  0  0
   21.5940   79.1930   14.6370 C   0  0  0  0  0  0  0  0  0  0  0  0
   23.0750   79.4680   14.4810 C   0  0  0  0  0  0  0  0  0  0  0  0
   23.6840   78.3310   13.8980 N   0  0  0  0  0  0  0  0  0  0  0  0
   22.8330   77.6470   13.0060 C   0  0  0  0  0  0  0  0  0  0  0  0
   21.8220   76.8760   13.8730 C   0  0  0  0  0  0  0  0  0  0  0  0
   24.5300   77.5610   14.7190 C   0  0  0  0  0  0  0  0  0  0  0  0
   25.2370   78.2940   15.7650 C   0  0  0  0  0  0  0  0  0  0  0  0
   26.5120   78.7090   15.7010 N   0  0  0  0  0  0  0  0  0  0  0  0
   26.7730   79.3130   16.8050 O   0  0  0  0  0  0  0  0  0  0  0  0
   25.7340   79.3220   17.6020 N   0  0  0  0  0  0  0  0  0  0  0  0
   24.7250   78.6790   16.9740 C   0  0  0  0  0  0  0  0  0  0  0  0
   23.3470   78.4430   17.4990 C   0  0  0  0  0  0  0  0  0  0  0  0
   20.4490   82.2520   16.8600 H   0  0  0  0  0  0  0  0  0  0  0  0
   19.3170   80.4510   21.2780 H   0  0  0  0  0  0  0  0  0  0  0  0
   19.4550   82.9100   20.9560 H   0  0  0  0  0  0  0  0  0  0  0  0
   19.9150   76.7640   18.4950 H   0  0  0  0  0  0  0  0  0  0  0  0
   21.1540   79.8310   15.4500 H   0  0  0  0  0  0  0  0  0  0  0  0
   21.0890   79.5210   13.6790 H   0  0  0  0  0  0  0  0  0  0  0  0
   23.5150   79.7290   15.4790 H   0  0  0  0  0  0  0  0  0  0  0  0
   23.2140   80.3810   13.8310 H   0  0  0  0  0  0  0  0  0  0  0  0
   22.2430   78.3890   12.4300 H   0  0  0  0  0  0  0  0  0  0  0  0
   23.3060   76.9310   12.3320 H   0  0  0  0  0  0  0  0  0  0  0  0
   20.9950   76.4860   13.2450 H   0  0  0  0  0  0  0  0  0  0  0  0
   22.3070   75.9920   14.3280 H   0  0  0  0  0  0  0  0  0  0  0  0
   25.2620   77.0170   14.0880 H   0  0  0  0  0  0  0  0  0  0  0  0
   23.9130   76.7540   15.2080 H   0  0  0  0  0  0  0  0  0  0  0  0
   22.6130   78.3650   16.6530 H   0  0  0  0  0  0  0  0  0  0  0  0
   23.3470   77.4980   18.0480 H   0  0  0  0  0  0  0  0  0  0  0  0
   23.0110   79.3140   18.1010 H   0  0  0  0  0  0  0  0  0  0  0  0
  1  2  1  0  0  0  0
  2  7  1  0  0  0  0
  3  4  1  0  0  0  0
  3  2  2  0  0  0  0
  4  5  2  0  0  0  0
  5  8  1  0  0  0  0
  5  6  1  0  0  0  0
  6 29  1  0  0  0  0
  7  6  2  0  0  0  0
  7 30  1  0  0  0  0
  8  9  2  0  0  0  0
 10 31  1  0  0  0  0
 10  8  1  0  0  0  0
 11 10  2  0  0  0  0
 12 11  1  0  0  0  0
 12  4  1  0  0  0  0
 13 14  2  0  0  0  0
 13 11  1  0  0  0  0
 15 13  1  0  0  0  0
 16 15  1  0  0  0  0
 16 32  1  0  0  0  0
 17 16  1  0  0  0  0
 17 34  1  0  0  0  0
 18 17  1  0  0  0  0
 18 21  1  0  0  0  0
 19 20  1  0  0  0  0
 19 18  1  0  0  0  0
 20 39  1  0  0  0  0
 20 15  1  0  0  0  0
 21 41  1  0  0  0  0
 21 22  1  0  0  0  0
 22 26  1  0  0  0  0
 23 22  2  0  0  0  0
 23 24  1  0  0  0  0
 24 25  1  0  0  0  0
 26 27  1  0  0  0  0
 26 25  2  0  0  0  0
 27 43  1  0  0  0  0
 27 44  1  0  0  0  0
 28  3  1  0  0  0  0
 33 16  1  0  0  0  0
 35 17  1  0  0  0  0
 36 19  1  0  0  0  0
 37 19  1  0  0  0  0
 38 20  1  0  0  0  0
 40 21  1  0  0  0  0
 42 27  1  0  0  0  0
M  END
>  <Pose>
1

>  <Score>
-5.76

$$$$
