
 OpenBabel03222202113D

 44 47  0  0  0  0  0  0  0  0999 V2000
   21.4780   73.9490    9.3130 B   0  0  0  0  0  0  0  0  0  0  0  0
   20.0720   74.6780    8.2630 C   0  0  0  0  0  0  0  0  0  0  0  0
   19.7460   76.0390    8.3110 C   0  0  0  0  0  0  0  0  0  0  0  0
   18.7270   76.5730    7.5510 C   0  0  0  0  0  0  0  0  0  0  0  0
   17.9950   75.7320    6.7050 C   0  0  0  0  0  0  0  0  0  0  0  0
   18.3280   74.3860    6.6650 C   0  0  0  0  0  0  0  0  0  0  0  0
   19.3470   73.8710    7.4310 C   0  0  0  0  0  0  0  0  0  0  0  0
   16.9960   76.4710    6.0120 N   0  0  0  0  0  0  0  0  0  0  0  0
   17.1080   77.8190    6.4410 C   0  0  0  0  0  0  0  0  0  0  0  0
   16.4380   78.8330    6.1030 O   0  0  0  0  0  0  0  0  0  0  0  0
   18.2050   77.9260    7.4260 C   0  0  0  0  0  0  0  0  0  0  0  0
   18.6010   78.9920    8.0340 N   0  0  0  0  0  0  0  0  0  0  0  0
   19.6540   78.9780    8.9520 N   0  0  0  0  0  0  0  0  0  0  0  0
   19.4440   78.9650   10.3530 C   0  0  0  0  0  0  0  0  0  0  0  0
   18.6660   79.8050   10.8600 O   0  0  0  0  0  0  0  0  0  0  0  0
   20.1260   77.9880   11.1890 C   0  0  0  0  0  0  0  0  0  0  0  0
   21.1560   78.5750   12.0250 N   0  0  0  0  0  0  0  0  0  0  0  0
   21.6670   79.7900   11.9290 N   0  0  0  0  0  0  0  0  0  0  0  0
   22.5860   79.9790   12.8620 N   0  0  0  0  0  0  0  0  0  0  0  0
   22.6760   78.8520   13.5890 C   0  0  0  0  0  0  0  0  0  0  0  0
   21.7830   78.0120   13.0480 N   0  0  0  0  0  0  0  0  0  0  0  0
   23.5740   78.6420   14.7200 C   0  0  0  0  0  0  0  0  0  0  0  0
   23.7840   79.6530   15.6320 C   0  0  0  0  0  0  0  0  0  0  0  0
   24.6430   79.4560   16.7160 C   0  0  0  0  0  0  0  0  0  0  0  0
   25.3010   78.2620   16.9080 C   0  0  0  0  0  0  0  0  0  0  0  0
   25.0910   77.2450   15.9930 C   0  0  0  0  0  0  0  0  0  0  0  0
   24.2360   77.4490   14.9190 C   0  0  0  0  0  0  0  0  0  0  0  0
   16.0170   76.0190    5.0440 C   0  0  0  0  0  0  0  0  0  0  0  0
   14.6810   76.0500    5.6190 C   0  0  0  0  0  0  0  0  0  0  0  0
   13.5710   76.0630    6.0840 C   0  0  0  0  0  0  0  0  0  0  0  0
   20.3340   76.6590    8.9780 H   0  0  0  0  0  0  0  0  0  0  0  0
   17.7910   73.7000    6.0270 H   0  0  0  0  0  0  0  0  0  0  0  0
   19.6120   72.8080    7.4000 H   0  0  0  0  0  0  0  0  0  0  0  0
   20.6270   78.9870    8.5840 H   0  0  0  0  0  0  0  0  0  0  0  0
   20.5680   77.1830   10.5710 H   0  0  0  0  0  0  0  0  0  0  0  0
   19.3620   77.4900   11.8340 H   0  0  0  0  0  0  0  0  0  0  0  0
   23.2760   80.6080   15.5020 H   0  0  0  0  0  0  0  0  0  0  0  0
   24.8110   80.2540   17.4380 H   0  0  0  0  0  0  0  0  0  0  0  0
   25.9700   78.1300   17.7650 H   0  0  0  0  0  0  0  0  0  0  0  0
   25.6060   76.3000   16.1380 H   0  0  0  0  0  0  0  0  0  0  0  0
   24.0610   76.6600   14.1920 H   0  0  0  0  0  0  0  0  0  0  0  0
   16.0140   76.6570    4.1260 H   0  0  0  0  0  0  0  0  0  0  0  0
   16.3160   74.9990    4.7000 H   0  0  0  0  0  0  0  0  0  0  0  0
   12.5730   76.0790    6.4880 H   0  0  0  0  0  0  0  0  0  0  0  0
  2  3  1  0  0  0  0
  2  1  1  0  0  0  0
  3 31  1  0  0  0  0
  4  3  2  0  0  0  0
  5  4  1  0  0  0  0
  6  5  2  0  0  0  0
  6  7  1  0  0  0  0
  7  2  2  0  0  0  0
  8  9  1  0  0  0  0
  8  5  1  0  0  0  0
  9 11  1  0  0  0  0
 10  9  2  0  0  0  0
 11  4  1  0  0  0  0
 11 12  2  0  0  0  0
 12 13  1  0  0  0  0
 13 14  1  0  0  0  0
 14 15  2  0  0  0  0
 14 16  1  0  0  0  0
 16 36  1  0  0  0  0
 16 17  1  0  0  0  0
 17 21  1  0  0  0  0
 18 17  1  0  0  0  0
 18 19  1  0  0  0  0
 19 20  2  0  0  0  0
 20 22  1  0  0  0  0
 21 20  1  0  0  0  0
 22 27  2  0  0  0  0
 22 23  1  0  0  0  0
 23 24  2  0  0  0  0
 24 25  1  0  0  0  0
 24 38  1  0  0  0  0
 25 39  1  0  0  0  0
 26 40  1  0  0  0  0
 26 25  2  0  0  0  0
 27 26  1  0  0  0  0
 28 29  1  0  0  0  0
 28  8  1  0  0  0  0
 29 30  3  0  0  0  0
 30 44  1  0  0  0  0
 32  6  1  0  0  0  0
 33  7  1  0  0  0  0
 34 13  1  0  0  0  0
 35 16  1  0  0  0  0
 37 23  1  0  0  0  0
 41 27  1  0  0  0  0
 42 28  1  0  0  0  0
 43 28  1  0  0  0  0
M  END
>  <Pose>
1

>  <Score>
-6.59

$$$$
