
 OpenBabel03222202113D

 58 61  0  0  0  0  0  0  0  0999 V2000
   18.1590   74.0990   12.5300 B   0  0  0  0  0  0  0  0  0  0  0  0
   19.3860   75.5400   12.7890 C   0  0  0  0  0  0  0  0  0  0  0  0
   19.6870   76.4420   11.7580 C   0  0  0  0  0  0  0  0  0  0  0  0
   20.5710   77.4370   12.0590 C   0  0  0  0  0  0  0  0  0  0  0  0
   21.1700   77.5950   13.2910 C   0  0  0  0  0  0  0  0  0  0  0  0
   20.8760   76.7060   14.2990 C   0  0  0  0  0  0  0  0  0  0  0  0
   19.9670   75.6720   14.0310 C   0  0  0  0  0  0  0  0  0  0  0  0
   22.0440   78.7170   13.3180 N   0  0  0  0  0  0  0  0  0  0  0  0
   21.9910   79.2980   11.9880 C   0  0  0  0  0  0  0  0  0  0  0  0
   22.6160   80.3140   11.6230 O   0  0  0  0  0  0  0  0  0  0  0  0
   21.0800   78.4780   11.2210 C   0  0  0  0  0  0  0  0  0  0  0  0
   20.8450   78.5120    9.9660 N   0  0  0  0  0  0  0  0  0  0  0  0
   20.3300   78.0080    9.0490 N   0  0  0  0  0  0  0  0  0  0  0  0
   19.7250   77.3910    7.9300 C   0  0  0  0  0  0  0  0  0  0  0  0
   19.8150   76.2800    7.4580 O   0  0  0  0  0  0  0  0  0  0  0  0
   18.7990   78.4110    7.2280 C   0  0  0  0  0  0  0  0  0  0  0  0
   17.5980   78.3990    8.0310 O   0  0  0  0  0  0  0  0  0  0  0  0
   16.4370   77.9430    7.3440 N   0  0  0  0  0  0  0  0  0  0  0  0
   16.2350   76.7030    7.1270 C   0  0  0  0  0  0  0  0  0  0  0  0
   15.0570   76.2670    6.4140 C   0  0  0  0  0  0  0  0  0  0  0  0
   15.0330   75.3450    5.4220 C   0  0  0  0  0  0  0  0  0  0  0  0
   13.7780   75.1170    4.8000 C   0  0  0  0  0  0  0  0  0  0  0  0
   12.6190   75.7010    5.0970 C   0  0  0  0  0  0  0  0  0  0  0  0
   12.6940   76.6100    6.0970 C   0  0  0  0  0  0  0  0  0  0  0  0
   13.7840   76.9700    6.7940 C   0  0  0  0  0  0  0  0  0  0  0  0
   11.4500   75.3720    4.4030 O   0  0  0  0  0  0  0  0  0  0  0  0
   10.4850   76.3710    4.0910 C   0  0  0  0  0  0  0  0  0  0  0  0
   22.8360   79.3120   14.3820 C   0  0  0  0  0  0  0  0  0  0  0  0
   23.2790   78.3700   15.2870 N   0  0  0  0  0  0  0  0  0  0  0  0
   24.4200   77.6800   14.8370 C   0  0  0  0  0  0  0  0  0  0  0  0
   25.4380   77.5740   15.9760 C   0  0  0  0  0  0  0  0  0  0  0  0
   25.5680   78.9190   16.4190 O   0  0  0  0  0  0  0  0  0  0  0  0
   24.4440   79.2580   17.1840 C   0  0  0  0  0  0  0  0  0  0  0  0
   23.1650   78.6870   16.6530 C   0  0  0  0  0  0  0  0  0  0  0  0
   19.1870   76.2850   10.8730 H   0  0  0  0  0  0  0  0  0  0  0  0
   21.3000   76.7700   15.2970 H   0  0  0  0  0  0  0  0  0  0  0  0
   19.7600   74.9680   14.8050 H   0  0  0  0  0  0  0  0  0  0  0  0
   21.5450   77.7040    8.4470 H   0  0  0  0  0  0  0  0  0  0  0  0
   19.3150   79.3720    7.6780 H   0  0  0  0  0  0  0  0  0  0  0  0
   18.7850   78.4460    6.2260 H   0  0  0  0  0  0  0  0  0  0  0  0
   16.9310   75.9460    7.4840 H   0  0  0  0  0  0  0  0  0  0  0  0
   15.9030   74.8160    5.1160 H   0  0  0  0  0  0  0  0  0  0  0  0
   13.8040   74.3520    4.0010 H   0  0  0  0  0  0  0  0  0  0  0  0
   11.7140   77.1040    6.3390 H   0  0  0  0  0  0  0  0  0  0  0  0
   13.8930   77.6550    7.5810 H   0  0  0  0  0  0  0  0  0  0  0  0
   10.8260   76.9810    3.2130 H   0  0  0  0  0  0  0  0  0  0  0  0
    9.5610   75.8200    3.7250 H   0  0  0  0  0  0  0  0  0  0  0  0
   10.1870   76.9950    4.9510 H   0  0  0  0  0  0  0  0  0  0  0  0
   22.1880   80.1130   14.7950 H   0  0  0  0  0  0  0  0  0  0  0  0
   23.6580   79.8870   13.8620 H   0  0  0  0  0  0  0  0  0  0  0  0
   24.1860   76.6700   14.4260 H   0  0  0  0  0  0  0  0  0  0  0  0
   24.8840   78.2340   14.0060 H   0  0  0  0  0  0  0  0  0  0  0  0
   26.3780   77.2690   15.5350 H   0  0  0  0  0  0  0  0  0  0  0  0
   25.1050   76.9280   16.7820 H   0  0  0  0  0  0  0  0  0  0  0  0
   24.3600   80.3480   17.2740 H   0  0  0  0  0  0  0  0  0  0  0  0
   24.6220   78.8340   18.2020 H   0  0  0  0  0  0  0  0  0  0  0  0
   22.8950   77.7340   17.2620 H   0  0  0  0  0  0  0  0  0  0  0  0
   22.3300   79.3660   16.8460 H   0  0  0  0  0  0  0  0  0  0  0  0
  1  2  1  0  0  0  0
  2  7  1  0  0  0  0
  3  4  1  0  0  0  0
  3  2  2  0  0  0  0
  4  5  2  0  0  0  0
  5  8  1  0  0  0  0
  5  6  1  0  0  0  0
  6 36  1  0  0  0  0
  7  6  2  0  0  0  0
  7 37  1  0  0  0  0
  8 28  1  0  0  0  0
  9  8  1  0  0  0  0
 10  9  2  0  0  0  0
 11  9  1  0  0  0  0
 11  4  1  0  0  0  0
 12 11  2  0  0  0  0
 13 12  1  0  0  0  0
 14 13  1  0  0  0  0
 15 14  2  0  0  0  0
 16 39  1  0  0  0  0
 16 14  1  0  0  0  0
 16 17  1  0  0  0  0
 18 17  1  0  0  0  0
 19 18  2  0  0  0  0
 19 41  1  0  0  0  0
 20 25  1  0  0  0  0
 20 19  1  0  0  0  0
 21 20  2  0  0  0  0
 22 23  2  0  0  0  0
 22 21  1  0  0  0  0
 23 24  1  0  0  0  0
 24 44  1  0  0  0  0
 24 25  2  0  0  0  0
 25 45  1  0  0  0  0
 26 23  1  0  0  0  0
 27 26  1  0  0  0  0
 27 48  1  0  0  0  0
 28 49  1  0  0  0  0
 28 29  1  0  0  0  0
 29 34  1  0  0  0  0
 30 29  1  0  0  0  0
 30 31  1  0  0  0  0
 31 32  1  0  0  0  0
 31 54  1  0  0  0  0
 32 33  1  0  0  0  0
 33 55  1  0  0  0  0
 33 56  1  0  0  0  0
 34 58  1  0  0  0  0
 34 33  1  0  0  0  0
 34 57  1  0  0  0  0
 35  3  1  0  0  0  0
 38 13  1  0  0  0  0
 40 16  1  0  0  0  0
 42 21  1  0  0  0  0
 43 22  1  0  0  0  0
 46 27  1  0  0  0  0
 47 27  1  0  0  0  0
 50 28  1  0  0  0  0
 51 30  1  0  0  0  0
 52 30  1  0  0  0  0
 53 31  1  0  0  0  0
M  END
>  <Pose>
1

>  <Score>
-6.86

$$$$
