
 OpenBabel03222202113D

 59 62  0  0  0  0  0  0  0  0999 V2000
   27.2200   78.7490   15.5090 B   0  0  0  0  0  0  0  0  0  0  0  0
   25.3140   78.5440   15.6530 C   0  0  0  0  0  0  0  0  0  0  0  0
   24.4650   79.0150   14.6770 C   0  0  0  0  0  0  0  0  0  0  0  0
   23.0810   78.8910   14.7370 C   0  0  0  0  0  0  0  0  0  0  0  0
   22.5240   78.2530   15.8490 C   0  0  0  0  0  0  0  0  0  0  0  0
   23.3750   77.7800   16.8270 C   0  0  0  0  0  0  0  0  0  0  0  0
   24.7580   77.9150   16.7460 C   0  0  0  0  0  0  0  0  0  0  0  0
   21.0950   78.2200   15.7300 N   0  0  0  0  0  0  0  0  0  0  0  0
   20.7730   78.8610   14.5030 C   0  0  0  0  0  0  0  0  0  0  0  0
   19.6180   79.0260   14.0530 O   0  0  0  0  0  0  0  0  0  0  0  0
   21.9990   79.2920   13.8580 C   0  0  0  0  0  0  0  0  0  0  0  0
   22.1140   79.9070   12.7350 N   0  0  0  0  0  0  0  0  0  0  0  0
   21.0260   80.2600   11.9450 N   0  0  0  0  0  0  0  0  0  0  0  0
   20.9430   79.7940   10.6170 C   0  0  0  0  0  0  0  0  0  0  0  0
   21.8890   79.9900    9.7780 O   0  0  0  0  0  0  0  0  0  0  0  0
   19.7750   79.0490   10.0840 C   0  0  0  0  0  0  0  0  0  0  0  0
   19.8590   78.9560    8.6630 O   0  0  0  0  0  0  0  0  0  0  0  0
   18.9080   78.2330    7.9620 C   0  0  0  0  0  0  0  0  0  0  0  0
   19.0490   76.8710    7.8070 C   0  0  0  0  0  0  0  0  0  0  0  0
   18.0900   76.1510    7.1010 C   0  0  0  0  0  0  0  0  0  0  0  0
   16.9960   76.7930    6.5520 C   0  0  0  0  0  0  0  0  0  0  0  0
   16.8710   78.1410    6.7130 C   0  0  0  0  0  0  0  0  0  0  0  0
   17.8260   78.8560    7.4160 C   0  0  0  0  0  0  0  0  0  0  0  0
   20.1230   76.2040    8.3390 O   0  0  0  0  0  0  0  0  0  0  0  0
   19.9470   74.9770    9.0010 C   0  0  0  0  0  0  0  0  0  0  0  0
   20.1930   77.6280   16.7040 C   0  0  0  0  0  0  0  0  0  0  0  0
   19.8810   78.4590   17.8110 N   0  0  0  0  0  0  0  0  0  0  0  0
   19.8180   77.8120   19.0770 C   0  0  0  0  0  0  0  0  0  0  0  0
   19.3990   78.7740   20.1920 C   0  0  0  0  0  0  0  0  0  0  0  0
   18.9000   79.9570   19.5530 N   0  0  0  0  0  0  0  0  0  0  0  0
   19.9090   80.6810   18.8450 C   0  0  0  0  0  0  0  0  0  0  0  0
   20.5240   79.7410   17.8240 C   0  0  0  0  0  0  0  0  0  0  0  0
   18.0670   80.7670   20.3960 C   0  0  0  0  0  0  0  0  0  0  0  0
   24.9040   79.5110   13.8130 H   0  0  0  0  0  0  0  0  0  0  0  0
   22.9860   77.2720   17.7170 H   0  0  0  0  0  0  0  0  0  0  0  0
   25.4280   77.5490   17.5070 H   0  0  0  0  0  0  0  0  0  0  0  0
   20.2870   80.8610   12.3370 H   0  0  0  0  0  0  0  0  0  0  0  0
   19.7010   78.0230   10.4790 H   0  0  0  0  0  0  0  0  0  0  0  0
   18.8320   79.5610   10.3460 H   0  0  0  0  0  0  0  0  0  0  0  0
   18.2130   75.0740    6.9860 H   0  0  0  0  0  0  0  0  0  0  0  0
   16.2300   76.2530    5.9940 H   0  0  0  0  0  0  0  0  0  0  0  0
   16.0330   78.6500    6.2970 H   0  0  0  0  0  0  0  0  0  0  0  0
   17.6750   79.9180    7.5120 H   0  0  0  0  0  0  0  0  0  0  0  0
   19.2050   75.0410    9.8270 H   0  0  0  0  0  0  0  0  0  0  0  0
   19.5050   74.2540    8.2660 H   0  0  0  0  0  0  0  0  0  0  0  0
   20.9470   74.6340    9.3430 H   0  0  0  0  0  0  0  0  0  0  0  0
   19.2710   77.2350   16.2120 H   0  0  0  0  0  0  0  0  0  0  0  0
   20.7150   76.7180   17.0990 H   0  0  0  0  0  0  0  0  0  0  0  0
   19.0190   77.0430   19.0410 H   0  0  0  0  0  0  0  0  0  0  0  0
   20.7550   77.2880   19.3590 H   0  0  0  0  0  0  0  0  0  0  0  0
   18.6130   78.3480   20.8320 H   0  0  0  0  0  0  0  0  0  0  0  0
   20.2920   78.9500   20.8220 H   0  0  0  0  0  0  0  0  0  0  0  0
   20.7090   81.0980   19.4840 H   0  0  0  0  0  0  0  0  0  0  0  0
   19.4030   81.5490   18.3520 H   0  0  0  0  0  0  0  0  0  0  0  0
   21.6110   79.5870   18.0600 H   0  0  0  0  0  0  0  0  0  0  0  0
   20.3900   80.2130   16.8310 H   0  0  0  0  0  0  0  0  0  0  0  0
   17.1940   81.1780   19.8200 H   0  0  0  0  0  0  0  0  0  0  0  0
   18.6030   81.6020   20.8830 H   0  0  0  0  0  0  0  0  0  0  0  0
   17.6140   80.0880   21.1630 H   0  0  0  0  0  0  0  0  0  0  0  0
  1  2  1  0  0  0  0
  2  7  1  0  0  0  0
  3  4  1  0  0  0  0
  3  2  2  0  0  0  0
  4  5  2  0  0  0  0
  5  6  1  0  0  0  0
  6 35  1  0  0  0  0
  7  6  2  0  0  0  0
  7 36  1  0  0  0  0
  8  5  1  0  0  0  0
  8 26  1  0  0  0  0
  9  8  1  0  0  0  0
 10  9  2  0  0  0  0
 11  9  1  0  0  0  0
 11  4  1  0  0  0  0
 12 11  2  0  0  0  0
 13 37  1  0  0  0  0
 13 12  1  0  0  0  0
 14 13  1  0  0  0  0
 15 14  2  0  0  0  0
 16 39  1  0  0  0  0
 16 38  1  0  0  0  0
 16 14  1  0  0  0  0
 17 16  1  0  0  0  0
 18 17  1  0  0  0  0
 19 18  1  0  0  0  0
 19 24  1  0  0  0  0
 20 19  2  0  0  0  0
 21 22  2  0  0  0  0
 21 20  1  0  0  0  0
 22 23  1  0  0  0  0
 23 43  1  0  0  0  0
 23 18  2  0  0  0  0
 24 25  1  0  0  0  0
 25 46  1  0  0  0  0
 25 44  1  0  0  0  0
 26 48  1  0  0  0  0
 26 27  1  0  0  0  0
 27 32  1  0  0  0  0
 27 28  1  0  0  0  0
 28 50  1  0  0  0  0
 28 29  1  0  0  0  0
 29 52  1  0  0  0  0
 29 51  1  0  0  0  0
 30 29  1  0  0  0  0
 30 33  1  0  0  0  0
 31 53  1  0  0  0  0
 31 30  1  0  0  0  0
 32 55  1  0  0  0  0
 32 31  1  0  0  0  0
 33 58  1  0  0  0  0
 33 59  1  0  0  0  0
 34  3  1  0  0  0  0
 40 20  1  0  0  0  0
 41 21  1  0  0  0  0
 42 22  1  0  0  0  0
 45 25  1  0  0  0  0
 47 26  1  0  0  0  0
 49 28  1  0  0  0  0
 54 31  1  0  0  0  0
 56 32  1  0  0  0  0
 57 33  1  0  0  0  0
M  END
>  <Pose>
1

>  <Score>
-5.87

$$$$
