
 OpenBabel03222202113D

 45 48  0  0  1  0  0  0  0  0999 V2000
   24.8770   78.1420    9.9070 B   0  0  0  0  0  0  0  0  0  0  0  0
   23.0170   78.5470   10.1930 C   0  0  0  0  0  0  0  0  0  0  0  0
   22.0290   77.6060   10.1690 C   0  0  0  0  0  0  0  0  0  0  0  0
   20.7110   77.9400   10.3470 C   0  0  0  0  0  0  0  0  0  0  0  0
   20.4220   79.2590   10.5520 C   0  0  0  0  0  0  0  0  0  0  0  0
   21.4170   80.2450   10.5840 C   0  0  0  0  0  0  0  0  0  0  0  0
   22.7390   79.8970   10.4030 C   0  0  0  0  0  0  0  0  0  0  0  0
   19.0290   79.4660   10.6790 N   0  0  0  0  0  0  0  0  0  0  0  0
   18.4100   78.2250   10.5460 C   0  0  0  0  0  0  0  0  0  0  0  0
   17.1630   78.0580   10.5890 O   0  0  0  0  0  0  0  0  0  0  0  0
   19.4610   77.1600   10.3490 C   0  0  2  0  0  0  0  0  0  0  0  0
   19.2660   76.2360   11.4550 C   0  0  0  0  0  0  0  0  0  0  0  0
   18.8410   74.9640   11.2180 C   0  0  0  0  0  0  0  0  0  0  0  0
   18.7450   74.3540   12.4320 N   0  0  0  0  0  0  0  0  0  0  0  0
   19.0890   75.1980   13.3700 N   0  0  0  0  0  0  0  0  0  0  0  0
   19.4270   76.3970   12.8410 C   0  0  0  0  0  0  0  0  0  0  0  0
   19.8860   77.5740   13.6200 C   0  0  0  0  0  0  0  0  0  0  0  0
   21.0910   77.2590   14.4180 C   0  0  0  0  0  0  0  0  0  0  0  0
   22.2160   76.9510   13.9480 O   0  0  0  0  0  0  0  0  0  0  0  0
   20.9710   77.3090   15.7890 O   0  0  0  0  0  0  0  0  0  0  0  0
   19.9790   76.6830   16.5590 C   0  0  0  0  0  0  0  0  0  0  0  0
   19.7610   77.4590   17.8370 C   0  0  0  0  0  0  0  0  0  0  0  0
   18.5760   74.4760    9.9230 O   0  0  0  0  0  0  0  0  0  0  0  0
   18.7640   75.3580    8.8760 C   0  0  0  0  0  0  0  0  0  0  0  0
   19.1660   76.5860    9.0440 C   0  0  0  0  0  0  0  0  0  0  0  0
   19.3290   77.4470    7.8680 C   0  0  0  0  0  0  0  0  0  0  0  0
   19.4420   78.1310    6.9570 N   0  0  0  0  0  0  0  0  0  0  0  0
   18.4920   74.8590    7.5450 N   0  0  0  0  0  0  0  0  0  0  0  0
   18.3550   80.7600   10.9130 C   0  0  0  0  0  0  0  0  0  0  0  0
   22.2900   76.5880   10.0060 H   0  0  0  0  0  0  0  0  0  0  0  0
   21.2020   81.2900   10.7490 H   0  0  0  0  0  0  0  0  0  0  0  0
   23.5180   80.6460   10.4240 H   0  0  0  0  0  0  0  0  0  0  0  0
   19.1150   75.0170   14.4150 H   0  0  0  0  0  0  0  0  0  0  0  0
   20.1460   78.4300   12.9740 H   0  0  0  0  0  0  0  0  0  0  0  0
   19.0700   77.9490   14.2870 H   0  0  0  0  0  0  0  0  0  0  0  0
   20.3460   75.6590   16.8940 H   0  0  0  0  0  0  0  0  0  0  0  0
   19.0600   76.5380   15.9770 H   0  0  0  0  0  0  0  0  0  0  0  0
   20.5570   78.2580   17.9010 H   0  0  0  0  0  0  0  0  0  0  0  0
   19.8770   76.8420   18.7260 H   0  0  0  0  0  0  0  0  0  0  0  0
   18.8000   78.0270   17.8140 H   0  0  0  0  0  0  0  0  0  0  0  0
   19.2240   74.5000    6.9080 H   0  0  0  0  0  0  0  0  0  0  0  0
   17.5110   74.8650    7.2230 H   0  0  0  0  0  0  0  0  0  0  0  0
   18.4770   81.0300   11.9950 H   0  0  0  0  0  0  0  0  0  0  0  0
   18.7760   81.5390   10.2460 H   0  0  0  0  0  0  0  0  0  0  0  0
   17.2790   80.6260   10.7380 H   0  0  0  0  0  0  0  0  0  0  0  0
  1  2  1  0  0  0  0
  2  7  1  0  0  0  0
  3  2  2  0  0  0  0
  3  4  1  0  0  0  0
  4 11  1  0  0  0  0
  4  5  2  0  0  0  0
  5  6  1  0  0  0  0
  5  8  1  0  0  0  0
  6 31  1  0  0  0  0
  7 32  1  0  0  0  0
  7  6  2  0  0  0  0
  8 29  1  0  0  0  0
  9 10  2  0  0  0  0
  9  8  1  0  0  0  0
 11 25  1  6  0  0  0
 11  9  1  0  0  0  0
 11 12  1  0  0  0  0
 12 16  2  0  0  0  0
 13 12  1  0  0  0  0
 13 14  2  0  0  0  0
 14 15  1  0  0  0  0
 15 33  1  0  0  0  0
 16 15  1  0  0  0  0
 16 17  1  0  0  0  0
 17 35  1  0  0  0  0
 17 18  1  0  0  0  0
 18 20  1  0  0  0  0
 19 18  2  0  0  0  0
 20 21  1  0  0  0  0
 21 36  1  0  0  0  0
 21 22  1  0  0  0  0
 22 38  1  0  0  0  0
 22 39  1  0  0  0  0
 23 13  1  0  0  0  0
 24 25  2  0  0  0  0
 24 23  1  0  0  0  0
 26 25  1  0  0  0  0
 27 26  3  0  0  0  0
 28 24  1  0  0  0  0
 29 43  1  0  0  0  0
 30  3  1  0  0  0  0
 34 17  1  0  0  0  0
 37 21  1  0  0  0  0
 40 22  1  0  0  0  0
 41 28  1  0  0  0  0
 42 28  1  0  0  0  0
 44 29  1  0  0  0  0
 45 29  1  0  0  0  0
M  END
>  <Pose>
1

>  <Score>
-4.95

$$$$
