
 OpenBabel03222202113D

 39 42  0  0  1  0  0  0  0  0999 V2000
   19.9130   77.8630   10.7820 B   0  0  0  0  0  0  0  0  0  0  0  0
   21.0890   78.9810   11.7760 C   0  0  0  0  0  0  0  0  0  0  0  0
   21.6200   78.5320   12.9650 C   0  0  0  0  0  0  0  0  0  0  0  0
   22.4870   79.3340   13.7140 C   0  0  0  0  0  0  0  0  0  0  0  0
   22.7850   80.5660   13.2270 C   0  0  0  0  0  0  0  0  0  0  0  0
   22.2400   81.0250   12.0100 C   0  0  0  0  0  0  0  0  0  0  0  0
   21.3880   80.2300   11.2790 C   0  0  0  0  0  0  0  0  0  0  0  0
   23.6720   81.2150   14.1290 N   0  0  0  0  0  0  0  0  0  0  0  0
   23.9450   80.3690   15.2180 C   0  0  0  0  0  0  0  0  0  0  0  0
   24.6850   80.6050   16.2060 O   0  0  0  0  0  0  0  0  0  0  0  0
   23.1900   79.0980   15.0100 C   0  0  1  0  0  0  0  0  0  0  0  0
   22.2330   78.8720   16.0990 C   0  0  0  0  0  0  0  0  0  0  0  0
   22.2340   77.7240   16.8210 C   0  0  0  0  0  0  0  0  0  0  0  0
   23.1620   76.7170   16.5410 O   0  0  0  0  0  0  0  0  0  0  0  0
   24.0850   76.8800   15.5270 C   0  0  0  0  0  0  0  0  0  0  0  0
   24.1060   77.9700   14.8210 C   0  0  0  0  0  0  0  0  0  0  0  0
   25.1220   78.0580   13.7630 C   0  0  0  0  0  0  0  0  0  0  0  0
   25.9150   78.1210   12.9480 N   0  0  0  0  0  0  0  0  0  0  0  0
   25.0080   75.8020   15.2980 N   0  0  0  0  0  0  0  0  0  0  0  0
   21.3020   77.5520   17.8490 C   0  0  0  0  0  0  0  0  0  0  0  0
   21.3140   76.4910   18.5070 O   0  0  0  0  0  0  0  0  0  0  0  0
   20.3960   78.5520   18.1130 C   0  0  0  0  0  0  0  0  0  0  0  0
   20.4410   79.6970   17.3460 C   0  0  0  0  0  0  0  0  0  0  0  0
   21.3240   79.7990   16.4100 O   0  0  0  0  0  0  0  0  0  0  0  0
   19.4540   80.8120   17.6170 C   0  0  0  0  0  0  0  0  0  0  0  0
   20.1110   81.8520   18.2740 O   0  0  0  0  0  0  0  0  0  0  0  0
   24.1960   82.5760   13.9020 C   0  0  0  0  0  0  0  0  0  0  0  0
   21.4060   77.5550   13.3830 H   0  0  0  0  0  0  0  0  0  0  0  0
   22.4840   82.0160   11.6280 H   0  0  0  0  0  0  0  0  0  0  0  0
   20.9670   80.5860   10.3360 H   0  0  0  0  0  0  0  0  0  0  0  0
   24.6940   74.8470   15.4610 H   0  0  0  0  0  0  0  0  0  0  0  0
   25.9480   76.0300   14.9790 H   0  0  0  0  0  0  0  0  0  0  0  0
   19.6510   78.4840   18.8900 H   0  0  0  0  0  0  0  0  0  0  0  0
   19.0050   81.1810   16.6950 H   0  0  0  0  0  0  0  0  0  0  0  0
   18.6700   80.4490   18.3400 H   0  0  0  0  0  0  0  0  0  0  0  0
   20.9530   81.4960   18.6900 H   0  0  0  0  0  0  0  0  0  0  0  0
   24.0680   82.8620   12.8410 H   0  0  0  0  0  0  0  0  0  0  0  0
   23.6260   83.2690   14.5420 H   0  0  0  0  0  0  0  0  0  0  0  0
   25.2950   82.5860   14.1210 H   0  0  0  0  0  0  0  0  0  0  0  0
  1  2  1  0  0  0  0
  2  3  1  0  0  0  0
  3 28  1  0  0  0  0
  3  4  2  0  0  0  0
  5  4  1  0  0  0  0
  5  8  1  0  0  0  0
  6  5  2  0  0  0  0
  7  2  2  0  0  0  0
  7  6  1  0  0  0  0
  8  9  1  0  0  0  0
  9 10  2  0  0  0  0
 11  4  1  6  0  0  0
 11  9  1  0  0  0  0
 11 12  1  0  0  0  0
 12 24  1  0  0  0  0
 12 13  2  0  0  0  0
 13 20  1  0  0  0  0
 14 13  1  0  0  0  0
 15 14  1  0  0  0  0
 16 11  1  0  0  0  0
 16 15  2  0  0  0  0
 17 16  1  0  0  0  0
 18 17  3  0  0  0  0
 19 31  1  0  0  0  0
 19 15  1  0  0  0  0
 20 22  1  0  0  0  0
 20 21  2  0  0  0  0
 22 33  1  0  0  0  0
 23 25  1  0  0  0  0
 23 22  2  0  0  0  0
 24 23  1  0  0  0  0
 25 26  1  0  0  0  0
 25 35  1  0  0  0  0
 26 36  1  0  0  0  0
 27 39  1  0  0  0  0
 27  8  1  0  0  0  0
 27 38  1  0  0  0  0
 29  6  1  0  0  0  0
 30  7  1  0  0  0  0
 32 19  1  0  0  0  0
 34 25  1  0  0  0  0
 37 27  1  0  0  0  0
M  END
>  <Pose>
1

>  <Score>
-4.78

$$$$
