
 OpenBabel03222202113D

 41 44  0  0  0  0  0  0  0  0999 V2000
   26.2660   78.8870   16.4900 B   0  0  0  0  0  0  0  0  0  0  0  0
   24.4920   78.3840   16.0380 C   0  0  0  0  0  0  0  0  0  0  0  0
   23.5490   78.1210   16.9900 C   0  0  0  0  0  0  0  0  0  0  0  0
   22.2660   77.7530   16.6490 C   0  0  0  0  0  0  0  0  0  0  0  0
   21.8630   77.6310   15.3570 C   0  0  0  0  0  0  0  0  0  0  0  0
   22.8230   77.8990   14.3750 C   0  0  0  0  0  0  0  0  0  0  0  0
   24.1020   78.2660   14.7090 C   0  0  0  0  0  0  0  0  0  0  0  0
   20.5100   77.2430   15.2630 N   0  0  0  0  0  0  0  0  0  0  0  0
   19.9750   77.0920   16.5810 C   0  0  0  0  0  0  0  0  0  0  0  0
   18.8490   76.7680   16.9630 O   0  0  0  0  0  0  0  0  0  0  0  0
   21.1110   77.4210   17.4930 C   0  0  0  0  0  0  0  0  0  0  0  0
   20.9680   77.3970   18.6750 N   0  0  0  0  0  0  0  0  0  0  0  0
   20.0540   77.1370   19.6330 N   0  0  0  0  0  0  0  0  0  0  0  0
   19.5150   78.1820   20.4070 C   0  0  0  0  0  0  0  0  0  0  0  0
   18.9530   77.8830   21.5200 O   0  0  0  0  0  0  0  0  0  0  0  0
   19.5220   79.6150   20.0980 C   0  0  0  0  0  0  0  0  0  0  0  0
   19.7890   79.9710   18.7330 N   0  0  0  0  0  0  0  0  0  0  0  0
   20.3230   81.2430   18.3830 C   0  0  0  0  0  0  0  0  0  0  0  0
   21.1430   81.2500   17.3850 O   0  0  0  0  0  0  0  0  0  0  0  0
   20.0420   82.4900   19.0270 C   0  0  0  0  0  0  0  0  0  0  0  0
   19.6750   82.6440   20.3560 C   0  0  0  0  0  0  0  0  0  0  0  0
   19.4300   83.8550   20.9060 C   0  0  0  0  0  0  0  0  0  0  0  0
   19.5350   85.0120   20.1600 C   0  0  0  0  0  0  0  0  0  0  0  0
   19.8880   84.9090   18.8510 C   0  0  0  0  0  0  0  0  0  0  0  0
   20.1490   83.6620   18.2640 C   0  0  0  0  0  0  0  0  0  0  0  0
   19.2340   86.1050   20.9890 O   0  0  0  0  0  0  0  0  0  0  0  0
   19.6940   85.6400   22.2810 C   0  0  0  0  0  0  0  0  0  0  0  0
   19.0520   84.3160   22.2220 O   0  0  0  0  0  0  0  0  0  0  0  0
   23.8050   78.2010   18.0210 H   0  0  0  0  0  0  0  0  0  0  0  0
   22.5340   77.8090   13.3630 H   0  0  0  0  0  0  0  0  0  0  0  0
   24.8720   78.4870   13.9870 H   0  0  0  0  0  0  0  0  0  0  0  0
   19.9510   77.0760   14.3920 H   0  0  0  0  0  0  0  0  0  0  0  0
   19.7330   76.1480   19.8150 H   0  0  0  0  0  0  0  0  0  0  0  0
   18.4930   80.0040   20.3300 H   0  0  0  0  0  0  0  0  0  0  0  0
   20.2320   80.1440   20.7710 H   0  0  0  0  0  0  0  0  0  0  0  0
   19.5910   79.3300   17.9500 H   0  0  0  0  0  0  0  0  0  0  0  0
   19.5720   81.7400   20.9840 H   0  0  0  0  0  0  0  0  0  0  0  0
   19.9700   85.8290   18.2440 H   0  0  0  0  0  0  0  0  0  0  0  0
   20.4200   83.5690   17.2620 H   0  0  0  0  0  0  0  0  0  0  0  0
   19.3820   86.2130   23.1170 H   0  0  0  0  0  0  0  0  0  0  0  0
   20.7760   85.4970   22.2410 H   0  0  0  0  0  0  0  0  0  0  0  0
  2  1  1  0  0  0  0
  2  3  1  0  0  0  0
  3 29  1  0  0  0  0
  4  3  2  0  0  0  0
  4 11  1  0  0  0  0
  5  4  1  0  0  0  0
  6  7  1  0  0  0  0
  6  5  2  0  0  0  0
  7  2  2  0  0  0  0
  8  5  1  0  0  0  0
  8  9  1  0  0  0  0
  9 10  2  0  0  0  0
  9 11  1  0  0  0  0
 11 12  2  0  0  0  0
 12 13  1  0  0  0  0
 13 33  1  0  0  0  0
 13 14  1  0  0  0  0
 14 15  2  0  0  0  0
 16 34  1  0  0  0  0
 16 14  1  0  0  0  0
 16 35  1  0  0  0  0
 17 16  1  0  0  0  0
 18 17  1  0  0  0  0
 18 20  1  0  0  0  0
 19 18  2  0  0  0  0
 20 21  1  0  0  0  0
 21 22  2  0  0  0  0
 21 37  1  0  0  0  0
 22 28  1  0  0  0  0
 23 22  1  0  0  0  0
 23 26  1  0  0  0  0
 24 23  2  0  0  0  0
 25 24  1  0  0  0  0
 25 20  2  0  0  0  0
 26 27  1  0  0  0  0
 27 40  1  0  0  0  0
 28 27  1  0  0  0  0
 30  6  1  0  0  0  0
 31  7  1  0  0  0  0
 32  8  1  0  0  0  0
 36 17  1  0  0  0  0
 38 24  1  0  0  0  0
 39 25  1  0  0  0  0
 41 27  1  0  0  0  0
M  END
>  <Pose>
1

>  <Score>
-7.66

$$$$
