
 OpenBabel03222202113D

 51 56  0  0  1  0  0  0  0  0999 V2000
   19.4160   77.0660   21.1580 B   0  0  0  0  0  0  0  0  0  0  0  0
   19.8120   78.2880   19.7480 C   0  0  0  0  0  0  0  0  0  0  0  0
   20.9230   78.1350   18.9270 C   0  0  0  0  0  0  0  0  0  0  0  0
   21.2010   79.0160   17.9170 C   0  0  0  0  0  0  0  0  0  0  0  0
   20.3260   80.0770   17.7410 C   0  0  0  0  0  0  0  0  0  0  0  0
   19.2210   80.2350   18.5510 C   0  0  0  0  0  0  0  0  0  0  0  0
   18.9520   79.3440   19.5640 C   0  0  0  0  0  0  0  0  0  0  0  0
   20.7560   80.8940   16.6490 N   0  0  0  0  0  0  0  0  0  0  0  0
   21.9390   80.3420   16.1110 C   0  0  0  0  0  0  0  0  0  0  0  0
   22.5570   80.8190   15.1480 O   0  0  0  0  0  0  0  0  0  0  0  0
   22.2520   79.1380   16.9100 C   0  0  1  0  0  0  0  0  0  0  0  0
   23.5860   79.2960   17.4070 N   0  0  2  0  0  0  0  0  0  0  0  0
   24.4320   79.0260   16.2460 C   0  0  2  0  0  0  0  0  0  0  0  0
   23.7090   78.0100   15.4250 C   0  0  1  0  0  0  0  0  0  0  0  0
   22.3670   77.8960   16.0620 C   0  0  2  0  0  0  0  0  0  0  0  0
   21.4240   77.8600   14.9490 C   0  0  0  0  0  0  0  0  0  0  0  0
   20.1960   77.6250   15.0250 O   0  0  0  0  0  0  0  0  0  0  0  0
   22.1050   78.1330   13.7500 N   0  0  0  0  0  0  0  0  0  0  0  0
   23.4740   78.4720   14.0200 C   0  0  0  0  0  0  0  0  0  0  0  0
   24.3130   79.0330   13.2710 O   0  0  0  0  0  0  0  0  0  0  0  0
   21.5470   78.0890   12.4350 C   0  0  0  0  0  0  0  0  0  0  0  0
   21.8400   79.2680   11.5810 C   0  0  2  0  0  0  0  0  0  0  0  0
   20.7200   80.0310   11.2710 O   0  0  0  0  0  0  0  0  0  0  0  0
   21.1790   80.9060   10.2970 C   0  0  0  0  0  0  0  0  0  0  0  0
   22.1600   80.1750    9.4360 C   0  0  0  0  0  0  0  0  0  0  0  0
   22.5480   78.9770   10.3030 C   0  0  0  0  0  0  0  0  0  0  0  0
   25.6910   78.3800   16.8030 C   0  0  0  0  0  0  0  0  0  0  0  0
   25.5140   78.3470   18.3060 C   0  0  0  0  0  0  0  0  0  0  0  0
   23.9820   78.3180   18.4000 C   0  0  0  0  0  0  0  0  0  0  0  0
   21.5480   77.2680   19.1470 H   0  0  0  0  0  0  0  0  0  0  0  0
   18.5160   81.0710   18.4280 H   0  0  0  0  0  0  0  0  0  0  0  0
   18.0650   79.4800   20.2080 H   0  0  0  0  0  0  0  0  0  0  0  0
   20.2530   81.7680   16.3160 H   0  0  0  0  0  0  0  0  0  0  0  0
   24.6650   79.9550   15.7030 H   0  0  0  0  0  0  0  0  0  0  0  0
   24.2600   77.0310   15.3960 H   0  0  0  0  0  0  0  0  0  0  0  0
   22.2840   77.0240   16.7410 H   0  0  0  0  0  0  0  0  0  0  0  0
   21.9560   77.1890   11.9260 H   0  0  0  0  0  0  0  0  0  0  0  0
   20.4390   77.9430   12.4370 H   0  0  0  0  0  0  0  0  0  0  0  0
   22.5090   79.9490   12.1790 H   0  0  0  0  0  0  0  0  0  0  0  0
   20.2910   81.1540    9.6470 H   0  0  0  0  0  0  0  0  0  0  0  0
   21.5690   81.8540   10.7180 H   0  0  0  0  0  0  0  0  0  0  0  0
   23.0590   80.7750    9.1880 H   0  0  0  0  0  0  0  0  0  0  0  0
   21.6730   79.7610    8.5280 H   0  0  0  0  0  0  0  0  0  0  0  0
   22.3040   78.0290    9.8280 H   0  0  0  0  0  0  0  0  0  0  0  0
   23.6680   78.9810   10.4550 H   0  0  0  0  0  0  0  0  0  0  0  0
   26.6060   78.8920   16.4830 H   0  0  0  0  0  0  0  0  0  0  0  0
   25.7910   77.3170   16.4660 H   0  0  0  0  0  0  0  0  0  0  0  0
   25.9150   79.2240   18.8160 H   0  0  0  0  0  0  0  0  0  0  0  0
   25.8980   77.4420   18.7740 H   0  0  0  0  0  0  0  0  0  0  0  0
   23.6860   78.5760   19.4170 H   0  0  0  0  0  0  0  0  0  0  0  0
   23.7060   77.2860   18.1590 H   0  0  0  0  0  0  0  0  0  0  0  0
  2  1  1  0  0  0  0
  3 30  1  0  0  0  0
  3  2  2  0  0  0  0
  4  3  1  0  0  0  0
  5  4  2  0  0  0  0
  5  6  1  0  0  0  0
  6  7  2  0  0  0  0
  7  2  1  0  0  0  0
  7 32  1  0  0  0  0
  8  5  1  0  0  0  0
  9  8  1  0  0  0  0
 10  9  2  0  0  0  0
 11  9  1  6  0  0  0
 11 12  1  0  0  0  0
 11  4  1  0  0  0  0
 12 29  1  1  0  0  0
 13 34  1  6  0  0  0
 13 27  1  0  0  0  0
 13 12  1  0  0  0  0
 14 35  1  1  0  0  0
 14 15  1  0  0  0  0
 14 13  1  0  0  0  0
 15 36  1  1  0  0  0
 15 11  1  0  0  0  0
 16 17  2  0  0  0  0
 16 15  1  0  0  0  0
 18 19  1  0  0  0  0
 18 16  1  0  0  0  0
 19 14  1  0  0  0  0
 20 19  2  0  0  0  0
 21 38  1  0  0  0  0
 21 18  1  0  0  0  0
 22 39  1  1  0  0  0
 22 21  1  0  0  0  0
 23 22  1  0  0  0  0
 24 41  1  0  0  0  0
 24 23  1  0  0  0  0
 25 24  1  0  0  0  0
 25 26  1  0  0  0  0
 26 45  1  0  0  0  0
 26 22  1  0  0  0  0
 27 28  1  0  0  0  0
 28 29  1  0  0  0  0
 28 49  1  0  0  0  0
 28 48  1  0  0  0  0
 29 50  1  0  0  0  0
 31  6  1  0  0  0  0
 33  8  1  0  0  0  0
 37 21  1  0  0  0  0
 40 24  1  0  0  0  0
 42 25  1  0  0  0  0
 43 25  1  0  0  0  0
 44 26  1  0  0  0  0
 46 27  1  0  0  0  0
 47 27  1  0  0  0  0
 51 29  1  0  0  0  0
M  END
>  <Pose>
1

>  <Score>
-5.02

$$$$
