
 OpenBabel03222202113D

 41 44  0  0  1  0  0  0  0  0999 V2000
   26.2890   76.4610   17.7200 B   0  0  0  0  0  0  0  0  0  0  0  0
   25.0610   77.8210   17.1930 C   0  0  0  0  0  0  0  0  0  0  0  0
   23.7270   77.4960   17.1940 C   0  0  0  0  0  0  0  0  0  0  0  0
   22.7870   78.4610   16.8150 C   0  0  0  0  0  0  0  0  0  0  0  0
   23.2140   79.6970   16.4550 C   0  0  0  0  0  0  0  0  0  0  0  0
   24.5770   80.0510   16.4470 C   0  0  0  0  0  0  0  0  0  0  0  0
   25.4780   79.0830   16.8240 C   0  0  0  0  0  0  0  0  0  0  0  0
   22.1200   80.5230   16.1020 N   0  0  0  0  0  0  0  0  0  0  0  0
   20.9560   79.7650   16.2490 C   0  0  0  0  0  0  0  0  0  0  0  0
   19.7440   80.1470   16.0190 O   0  0  0  0  0  0  0  0  0  0  0  0
   21.3360   78.4030   16.7280 C   0  0  2  0  0  0  0  0  0  0  0  0
   20.6140   78.1970   17.9560 C   0  0  0  0  0  0  0  0  0  0  0  0
   19.6340   77.2810   18.0470 C   0  0  0  0  0  0  0  0  0  0  0  0
   19.1570   77.3350   19.3350 N   0  0  0  0  0  0  0  0  0  0  0  0
   19.8300   78.2550   19.9910 N   0  0  0  0  0  0  0  0  0  0  0  0
   20.7450   78.8290   19.2090 C   0  0  0  0  0  0  0  0  0  0  0  0
   21.7140   79.9100   19.5500 C   0  0  0  0  0  0  0  0  0  0  0  0
   19.2380   76.4620   16.9740 O   0  0  0  0  0  0  0  0  0  0  0  0
   19.9230   76.6450   15.7800 C   0  0  0  0  0  0  0  0  0  0  0  0
   20.8760   77.5140   15.6330 C   0  0  0  0  0  0  0  0  0  0  0  0
   21.5480   77.6310   14.3060 C   0  0  0  0  0  0  0  0  0  0  0  0
   22.1060   76.6180   13.8460 O   0  0  0  0  0  0  0  0  0  0  0  0
   21.5760   78.7900   13.5790 O   0  0  0  0  0  0  0  0  0  0  0  0
   22.7310   79.3480   13.0010 C   0  0  0  0  0  0  0  0  0  0  0  0
   22.2680   80.3760   11.9640 C   0  0  0  0  0  0  0  0  0  0  0  0
   19.5730   75.8410   14.6310 N   0  0  0  0  0  0  0  0  0  0  0  0
   23.3800   76.4970   17.4850 H   0  0  0  0  0  0  0  0  0  0  0  0
   24.9080   81.0310   16.1610 H   0  0  0  0  0  0  0  0  0  0  0  0
   26.5380   79.3020   16.8360 H   0  0  0  0  0  0  0  0  0  0  0  0
   22.1400   81.5330   15.7810 H   0  0  0  0  0  0  0  0  0  0  0  0
   18.3860   76.7440   19.7220 H   0  0  0  0  0  0  0  0  0  0  0  0
   21.6800   80.1240   20.6370 H   0  0  0  0  0  0  0  0  0  0  0  0
   21.3640   80.8260   19.0320 H   0  0  0  0  0  0  0  0  0  0  0  0
   22.7570   79.6370   19.3160 H   0  0  0  0  0  0  0  0  0  0  0  0
   23.3940   78.6000   12.5550 H   0  0  0  0  0  0  0  0  0  0  0  0
   23.2800   79.9220   13.7800 H   0  0  0  0  0  0  0  0  0  0  0  0
   21.3220   80.8560   12.2860 H   0  0  0  0  0  0  0  0  0  0  0  0
   23.0230   81.1710   11.8150 H   0  0  0  0  0  0  0  0  0  0  0  0
   22.1510   79.8580   10.9820 H   0  0  0  0  0  0  0  0  0  0  0  0
   19.8440   74.8550   14.6330 H   0  0  0  0  0  0  0  0  0  0  0  0
   19.0680   76.2710   13.8560 H   0  0  0  0  0  0  0  0  0  0  0  0
  2  3  1  0  0  0  0
  2  1  1  0  0  0  0
  3 27  1  0  0  0  0
  4  3  2  0  0  0  0
  5  4  1  0  0  0  0
  6  5  2  0  0  0  0
  6  7  1  0  0  0  0
  7 29  1  0  0  0  0
  7  2  2  0  0  0  0
  8  9  1  0  0  0  0
  8  5  1  0  0  0  0
  9 11  1  0  0  0  0
 10  9  2  0  0  0  0
 11 20  1  6  0  0  0
 11  4  1  0  0  0  0
 11 12  1  0  0  0  0
 12 13  2  0  0  0  0
 12 16  1  0  0  0  0
 13 14  1  0  0  0  0
 14 31  1  0  0  0  0
 14 15  1  0  0  0  0
 16 17  1  0  0  0  0
 16 15  2  0  0  0  0
 17 32  1  0  0  0  0
 18 13  1  0  0  0  0
 19 18  1  0  0  0  0
 20 19  2  0  0  0  0
 21 20  1  0  0  0  0
 22 21  2  0  0  0  0
 23 21  1  0  0  0  0
 24 23  1  0  0  0  0
 24 36  1  0  0  0  0
 25 37  1  0  0  0  0
 25 24  1  0  0  0  0
 26 40  1  0  0  0  0
 26 19  1  0  0  0  0
 28  6  1  0  0  0  0
 30  8  1  0  0  0  0
 33 17  1  0  0  0  0
 34 17  1  0  0  0  0
 35 24  1  0  0  0  0
 38 25  1  0  0  0  0
 39 25  1  0  0  0  0
 41 26  1  0  0  0  0
M  END
>  <Pose>
1

>  <Score>
-5.10

$$$$
