
 OpenBabel03222202113D

 49 52  0  0  1  0  0  0  0  0999 V2000
   19.0980   79.3770   10.1810 B   0  0  0  0  0  0  0  0  0  0  0  0
   20.5840   79.6510   11.3660 C   0  0  0  0  0  0  0  0  0  0  0  0
   20.5710   79.1860   12.6680 C   0  0  0  0  0  0  0  0  0  0  0  0
   21.6340   79.3780   13.5270 C   0  0  0  0  0  0  0  0  0  0  0  0
   22.7180   80.0620   13.0180 C   0  0  0  0  0  0  0  0  0  0  0  0
   22.7340   80.5320   11.7080 C   0  0  0  0  0  0  0  0  0  0  0  0
   21.6730   80.3290   10.8810 C   0  0  0  0  0  0  0  0  0  0  0  0
   23.7170   80.1730   14.0440 N   0  0  0  0  0  0  0  0  0  0  0  0
   23.2430   79.5440   15.2210 C   0  0  0  0  0  0  0  0  0  0  0  0
   23.8870   79.4840   16.2950 O   0  0  0  0  0  0  0  0  0  0  0  0
   21.8990   79.0000   14.9340 C   0  0  1  0  0  0  0  0  0  0  0  0
   20.9200   79.5330   15.8430 N   0  0  0  0  0  0  0  0  0  0  0  0
   21.0820   78.7330   17.0380 C   0  0  2  0  0  0  0  0  0  0  0  0
   21.2470   77.3330   16.5080 C   0  0  2  0  0  0  0  0  0  0  0  0
   21.9080   77.5310   15.1650 C   0  0  1  0  0  0  0  0  0  0  0  0
   21.1140   76.7340   14.2190 C   0  0  0  0  0  0  0  0  0  0  0  0
   21.3810   76.5140   13.0110 O   0  0  0  0  0  0  0  0  0  0  0  0
   19.9400   76.2150   14.8840 N   0  0  0  0  0  0  0  0  0  0  0  0
   19.9570   76.6640   16.2300 C   0  0  0  0  0  0  0  0  0  0  0  0
   19.0110   76.5040   17.0360 O   0  0  0  0  0  0  0  0  0  0  0  0
   18.9160   75.3830   14.3020 C   0  0  0  0  0  0  0  0  0  0  0  0
   17.9620   74.8490   15.3440 C   0  0  0  0  0  0  0  0  0  0  0  0
   18.1400   76.2050   13.2690 C   0  0  0  0  0  0  0  0  0  0  0  0
   19.5250   74.1900   13.6000 C   0  0  0  0  0  0  0  0  0  0  0  0
   19.8950   78.8990   17.9470 C   0  0  0  0  0  0  0  0  0  0  0  0
   20.0480   78.0940   19.1700 C   0  0  0  0  0  0  0  0  0  0  0  0
   19.2190   78.2530   20.1070 O   0  0  0  0  0  0  0  0  0  0  0  0
   21.0720   77.1360   19.3820 N   0  0  0  0  0  0  0  0  0  0  0  0
   19.6830   78.6650   12.9780 H   0  0  0  0  0  0  0  0  0  0  0  0
   23.5910   81.0690   11.3170 H   0  0  0  0  0  0  0  0  0  0  0  0
   21.7170   80.7110    9.8560 H   0  0  0  0  0  0  0  0  0  0  0  0
   24.6310   80.6530   13.8970 H   0  0  0  0  0  0  0  0  0  0  0  0
   19.9770   79.3610   15.4590 H   0  0  0  0  0  0  0  0  0  0  0  0
   21.9790   79.0420   17.6280 H   0  0  0  0  0  0  0  0  0  0  0  0
   21.8900   76.6910   17.1280 H   0  0  0  0  0  0  0  0  0  0  0  0
   22.9620   77.1750   15.1790 H   0  0  0  0  0  0  0  0  0  0  0  0
   18.5440   74.2440   16.0680 H   0  0  0  0  0  0  0  0  0  0  0  0
   17.2430   74.1320   14.8770 H   0  0  0  0  0  0  0  0  0  0  0  0
   17.3660   75.6600   15.8150 H   0  0  0  0  0  0  0  0  0  0  0  0
   17.7740   77.1020   13.8080 H   0  0  0  0  0  0  0  0  0  0  0  0
   17.3050   75.6310   12.8550 H   0  0  0  0  0  0  0  0  0  0  0  0
   18.8930   76.5160   12.5060 H   0  0  0  0  0  0  0  0  0  0  0  0
   18.7900   73.3630   13.6230 H   0  0  0  0  0  0  0  0  0  0  0  0
   19.7820   74.3880   12.5490 H   0  0  0  0  0  0  0  0  0  0  0  0
   20.4460   73.9110   14.1410 H   0  0  0  0  0  0  0  0  0  0  0  0
   19.9330   79.9780   18.2840 H   0  0  0  0  0  0  0  0  0  0  0  0
   18.9250   78.7950   17.4460 H   0  0  0  0  0  0  0  0  0  0  0  0
   20.9520   76.2320   19.8610 H   0  0  0  0  0  0  0  0  0  0  0  0
   22.0310   77.3770   19.0180 H   0  0  0  0  0  0  0  0  0  0  0  0
  1  2  1  0  0  0  0
  2  3  1  0  0  0  0
  3 29  1  0  0  0  0
  3  4  2  0  0  0  0
  5  4  1  0  0  0  0
  5  8  1  0  0  0  0
  6  5  2  0  0  0  0
  7  2  2  0  0  0  0
  7  6  1  0  0  0  0
  8  9  1  0  0  0  0
  9 10  2  0  0  0  0
 11  4  1  6  0  0  0
 11 15  1  0  0  0  0
 11  9  1  0  0  0  0
 11 12  1  0  0  0  0
 12 13  1  0  0  0  0
 13 34  1  1  0  0  0
 13 25  1  0  0  0  0
 14 13  1  0  0  0  0
 14 35  1  1  0  0  0
 15 36  1  1  0  0  0
 15 14  1  0  0  0  0
 16 18  1  0  0  0  0
 16 15  1  0  0  0  0
 17 16  2  0  0  0  0
 18 19  1  0  0  0  0
 19 14  1  0  0  0  0
 19 20  2  0  0  0  0
 21 18  1  0  0  0  0
 21 22  1  0  0  0  0
 22 39  1  0  0  0  0
 22 37  1  0  0  0  0
 23 40  1  0  0  0  0
 23 21  1  0  0  0  0
 24 43  1  0  0  0  0
 24 45  1  0  0  0  0
 24 21  1  0  0  0  0
 25 46  1  0  0  0  0
 25 26  1  0  0  0  0
 26 28  1  0  0  0  0
 26 27  2  0  0  0  0
 28 48  1  0  0  0  0
 30  6  1  0  0  0  0
 31  7  1  0  0  0  0
 32  8  1  0  0  0  0
 33 12  1  0  0  0  0
 38 22  1  0  0  0  0
 41 23  1  0  0  0  0
 42 23  1  0  0  0  0
 44 24  1  0  0  0  0
 47 25  1  0  0  0  0
 49 28  1  0  0  0  0
M  END
>  <Pose>
1

>  <Score>
-5.15

$$$$
