
 OpenBabel03222202113D

 53 57  0  0  1  0  0  0  0  0999 V2000
   19.9380   80.1590   11.1110 B   0  0  0  0  0  0  0  0  0  0  0  0
   21.3870   79.9930   12.3430 C   0  0  0  0  0  0  0  0  0  0  0  0
   21.2000   79.6670   13.6680 C   0  0  0  0  0  0  0  0  0  0  0  0
   22.2680   79.5530   14.5710 C   0  0  0  0  0  0  0  0  0  0  0  0
   23.5320   79.7800   14.0840 C   0  0  0  0  0  0  0  0  0  0  0  0
   23.7280   80.1090   12.7500 C   0  0  0  0  0  0  0  0  0  0  0  0
   22.6720   80.2190   11.8730 C   0  0  0  0  0  0  0  0  0  0  0  0
   24.5000   79.6450   15.1060 N   0  0  0  0  0  0  0  0  0  0  0  0
   23.8180   79.3180   16.2960 C   0  0  0  0  0  0  0  0  0  0  0  0
   24.4150   79.1320   17.3930 O   0  0  0  0  0  0  0  0  0  0  0  0
   22.3720   79.2460   15.9980 C   0  0  1  0  0  0  0  0  0  0  0  0
   21.6350   80.2280   16.8000 N   0  0  0  0  0  0  0  0  0  0  0  0
   20.3480   79.6260   17.0640 C   0  0  1  0  0  0  0  0  0  0  0  0
   20.5050   78.1580   17.0030 C   0  0  2  0  0  0  0  0  0  0  0  0
   21.8890   77.9130   16.4310 C   0  0  1  0  0  0  0  0  0  0  0  0
   21.7150   76.8850   15.4120 C   0  0  0  0  0  0  0  0  0  0  0  0
   22.5880   76.4760   14.6060 O   0  0  0  0  0  0  0  0  0  0  0  0
   20.3640   76.3770   15.4440 N   0  0  0  0  0  0  0  0  0  0  0  0
   19.6160   77.4420   16.0670 C   0  0  0  0  0  0  0  0  0  0  0  0
   18.4240   77.6960   15.8390 O   0  0  0  0  0  0  0  0  0  0  0  0
   19.8600   75.1150   15.0050 C   0  0  0  0  0  0  0  0  0  0  0  0
   19.9030   74.8650   13.5260 C   0  0  0  0  0  0  0  0  0  0  0  0
   19.1460   73.6860   13.0720 C   0  0  0  0  0  0  0  0  0  0  0  0
   19.7390   72.4300   13.1320 C   0  0  0  0  0  0  0  0  0  0  0  0
   19.0440   71.3350   12.7420 C   0  0  0  0  0  0  0  0  0  0  0  0
   17.7600   71.4030   12.2830 C   0  0  0  0  0  0  0  0  0  0  0  0
   17.1780   72.6600   12.2280 C   0  0  0  0  0  0  0  0  0  0  0  0
   17.8580   73.7790   12.6140 C   0  0  0  0  0  0  0  0  0  0  0  0
   19.7960   80.1280   18.3780 C   0  0  1  0  0  0  0  0  0  0  0  0
   18.4540   80.4270   18.2420 O   0  0  0  0  0  0  0  0  0  0  0  0
   20.0630   79.1730   19.5160 C   0  0  0  0  0  0  0  0  0  0  0  0
   20.1900   79.4950   14.0070 H   0  0  0  0  0  0  0  0  0  0  0  0
   24.7260   80.2910   12.3530 H   0  0  0  0  0  0  0  0  0  0  0  0
   22.8060   80.4760   10.8210 H   0  0  0  0  0  0  0  0  0  0  0  0
   25.5440   79.7680   14.9940 H   0  0  0  0  0  0  0  0  0  0  0  0
   21.5350   81.1370   16.2930 H   0  0  0  0  0  0  0  0  0  0  0  0
   19.6500   79.9630   16.2770 H   0  0  0  0  0  0  0  0  0  0  0  0
   20.3910   77.6470   17.9860 H   0  0  0  0  0  0  0  0  0  0  0  0
   22.5070   77.4640   17.2470 H   0  0  0  0  0  0  0  0  0  0  0  0
   20.4630   74.3230   15.5460 H   0  0  0  0  0  0  0  0  0  0  0  0
   18.7910   74.9890   15.3260 H   0  0  0  0  0  0  0  0  0  0  0  0
   20.9630   74.7610   13.1750 H   0  0  0  0  0  0  0  0  0  0  0  0
   19.5480   75.7970   12.9960 H   0  0  0  0  0  0  0  0  0  0  0  0
   20.7650   72.3340   13.4930 H   0  0  0  0  0  0  0  0  0  0  0  0
   19.5600   70.3640   12.8090 H   0  0  0  0  0  0  0  0  0  0  0  0
   17.2000   70.5370   11.9720 H   0  0  0  0  0  0  0  0  0  0  0  0
   16.1500   72.7150   11.8650 H   0  0  0  0  0  0  0  0  0  0  0  0
   17.4100   74.7530   12.5720 H   0  0  0  0  0  0  0  0  0  0  0  0
   20.3380   81.0720   18.6130 H   0  0  0  0  0  0  0  0  0  0  0  0
   18.0920   80.8910   19.0210 H   0  0  0  0  0  0  0  0  0  0  0  0
   21.0760   79.2690   19.9290 H   0  0  0  0  0  0  0  0  0  0  0  0
   19.8590   78.1270   19.2590 H   0  0  0  0  0  0  0  0  0  0  0  0
   19.3570   79.4450   20.3400 H   0  0  0  0  0  0  0  0  0  0  0  0
  1  2  1  0  0  0  0
  2  3  1  0  0  0  0
  3 32  1  0  0  0  0
  3  4  2  0  0  0  0
  5  4  1  0  0  0  0
  5  8  1  0  0  0  0
  6  5  2  0  0  0  0
  7  2  2  0  0  0  0
  7  6  1  0  0  0  0
  8  9  1  0  0  0  0
  9 10  2  0  0  0  0
 11  4  1  6  0  0  0
 11  9  1  0  0  0  0
 11 15  1  0  0  0  0
 11 12  1  0  0  0  0
 12 13  1  0  0  0  0
 13 37  1  6  0  0  0
 13 29  1  0  0  0  0
 14 13  1  0  0  0  0
 14 38  1  1  0  0  0
 15 14  1  0  0  0  0
 15 39  1  1  0  0  0
 16 18  1  0  0  0  0
 16 15  1  0  0  0  0
 17 16  2  0  0  0  0
 18 19  1  0  0  0  0
 19 14  1  0  0  0  0
 20 19  2  0  0  0  0
 21 41  1  0  0  0  0
 21 18  1  0  0  0  0
 21 40  1  0  0  0  0
 22 21  1  0  0  0  0
 23 24  1  0  0  0  0
 23 22  1  0  0  0  0
 24 44  1  0  0  0  0
 25 45  1  0  0  0  0
 25 24  2  0  0  0  0
 26 25  1  0  0  0  0
 27 26  2  0  0  0  0
 27 28  1  0  0  0  0
 28 23  2  0  0  0  0
 29 49  1  1  0  0  0
 29 31  1  0  0  0  0
 30 29  1  0  0  0  0
 30 50  1  0  0  0  0
 31 51  1  0  0  0  0
 31 53  1  0  0  0  0
 33  6  1  0  0  0  0
 34  7  1  0  0  0  0
 35  8  1  0  0  0  0
 36 12  1  0  0  0  0
 42 22  1  0  0  0  0
 43 22  1  0  0  0  0
 46 26  1  0  0  0  0
 47 27  1  0  0  0  0
 48 28  1  0  0  0  0
 52 31  1  0  0  0  0
M  END
>  <Pose>
1

>  <Score>
-5.15

$$$$
