
 OpenBabel03222202113D

 45 48  0  0  1  0  0  0  0  0999 V2000
   25.2540   76.2040   15.4020 B   0  0  0  0  0  0  0  0  0  0  0  0
   24.2020   77.7980   15.4160 C   0  0  0  0  0  0  0  0  0  0  0  0
   23.1520   77.9740   16.2810 C   0  0  0  0  0  0  0  0  0  0  0  0
   22.3560   79.1330   16.3190 C   0  0  0  0  0  0  0  0  0  0  0  0
   22.6700   80.1210   15.4350 C   0  0  0  0  0  0  0  0  0  0  0  0
   23.7430   79.9570   14.5390 C   0  0  0  0  0  0  0  0  0  0  0  0
   24.5030   78.8110   14.5270 C   0  0  0  0  0  0  0  0  0  0  0  0
   21.7970   81.2320   15.5890 N   0  0  0  0  0  0  0  0  0  0  0  0
   20.8950   80.9140   16.6240 C   0  0  0  0  0  0  0  0  0  0  0  0
   19.9600   81.6800   17.0620 O   0  0  0  0  0  0  0  0  0  0  0  0
   21.2180   79.5590   17.1070 C   0  0  2  0  0  0  0  0  0  0  0  0
   21.6210   79.7800   18.5070 N   0  0  0  0  0  0  0  0  0  0  0  0
   20.5260   79.4270   19.3560 C   0  0  2  0  0  0  0  0  0  0  0  0
   19.7850   78.3920   18.5930 C   0  0  1  0  0  0  0  0  0  0  0  0
   20.0440   78.6530   17.1340 C   0  0  2  0  0  0  0  0  0  0  0  0
   20.1830   77.3300   16.5690 C   0  0  0  0  0  0  0  0  0  0  0  0
   20.1470   77.0600   15.3320 O   0  0  0  0  0  0  0  0  0  0  0  0
   20.3650   76.3920   17.6200 N   0  0  0  0  0  0  0  0  0  0  0  0
   20.4260   77.0670   18.8680 C   0  0  0  0  0  0  0  0  0  0  0  0
   20.9170   76.5990   19.9140 O   0  0  0  0  0  0  0  0  0  0  0  0
   20.4670   74.9570   17.3880 C   0  0  0  0  0  0  0  0  0  0  0  0
   19.2950   74.4270   16.6190 C   0  0  0  0  0  0  0  0  0  0  0  0
   19.6910   73.5100   15.4930 C   0  0  0  0  0  0  0  0  0  0  0  0
   19.5620   74.3280   14.2020 C   0  0  0  0  0  0  0  0  0  0  0  0
   19.6570   80.5870   19.7840 C   0  0  0  0  0  0  0  0  0  0  0  0
   22.9410   77.1740   16.9620 H   0  0  0  0  0  0  0  0  0  0  0  0
   23.9590   80.7780   13.8460 H   0  0  0  0  0  0  0  0  0  0  0  0
   25.3350   78.6660   13.8430 H   0  0  0  0  0  0  0  0  0  0  0  0
   21.8050   82.1400   15.0380 H   0  0  0  0  0  0  0  0  0  0  0  0
   22.4840   79.2400   18.7350 H   0  0  0  0  0  0  0  0  0  0  0  0
   20.9630   78.9310   20.2830 H   0  0  0  0  0  0  0  0  0  0  0  0
   18.6970   78.3590   18.8260 H   0  0  0  0  0  0  0  0  0  0  0  0
   19.1820   79.2340   16.6840 H   0  0  0  0  0  0  0  0  0  0  0  0
   21.3800   74.7300   16.8110 H   0  0  0  0  0  0  0  0  0  0  0  0
   20.5430   74.4420   18.3770 H   0  0  0  0  0  0  0  0  0  0  0  0
   18.7640   75.2840   16.1780 H   0  0  0  0  0  0  0  0  0  0  0  0
   18.6560   73.8500   17.3210 H   0  0  0  0  0  0  0  0  0  0  0  0
   19.0300   72.6140   15.4420 H   0  0  0  0  0  0  0  0  0  0  0  0
   20.7220   73.1720   15.6080 H   0  0  0  0  0  0  0  0  0  0  0  0
   19.4260   73.6630   13.3290 H   0  0  0  0  0  0  0  0  0  0  0  0
   18.7570   75.0740   14.3170 H   0  0  0  0  0  0  0  0  0  0  0  0
   20.5200   74.9200   14.1320 H   0  0  0  0  0  0  0  0  0  0  0  0
   19.3550   80.4400   20.8660 H   0  0  0  0  0  0  0  0  0  0  0  0
   20.2530   81.4960   19.7750 H   0  0  0  0  0  0  0  0  0  0  0  0
   18.6970   80.6210   19.2440 H   0  0  0  0  0  0  0  0  0  0  0  0
  1  2  1  0  0  0  0
  2  3  1  0  0  0  0
  3  4  2  0  0  0  0
  3 26  1  0  0  0  0
  5  8  1  0  0  0  0
  5  4  1  0  0  0  0
  6  5  2  0  0  0  0
  7  6  1  0  0  0  0
  7  2  2  0  0  0  0
  8  9  1  0  0  0  0
  9 10  2  0  0  0  0
  9 11  1  0  0  0  0
 11  4  1  6  0  0  0
 11 15  1  0  0  0  0
 11 12  1  0  0  0  0
 12 30  1  0  0  0  0
 12 13  1  0  0  0  0
 13 25  1  0  0  0  0
 13 31  1  1  0  0  0
 14 32  1  1  0  0  0
 14 19  1  0  0  0  0
 14 13  1  0  0  0  0
 15 33  1  6  0  0  0
 15 14  1  0  0  0  0
 16 15  1  0  0  0  0
 16 18  1  0  0  0  0
 17 16  2  0  0  0  0
 18 19  1  0  0  0  0
 19 20  2  0  0  0  0
 21 18  1  0  0  0  0
 21 35  1  0  0  0  0
 22 37  1  0  0  0  0
 22 21  1  0  0  0  0
 23 39  1  0  0  0  0
 23 22  1  0  0  0  0
 24 41  1  0  0  0  0
 24 23  1  0  0  0  0
 25 43  1  0  0  0  0
 27  6  1  0  0  0  0
 28  7  1  0  0  0  0
 29  8  1  0  0  0  0
 34 21  1  0  0  0  0
 36 22  1  0  0  0  0
 38 23  1  0  0  0  0
 40 24  1  0  0  0  0
 42 24  1  0  0  0  0
 44 25  1  0  0  0  0
 45 25  1  0  0  0  0
M  END
>  <Pose>
1

>  <Score>
-4.93

$$$$
