
 OpenBabel03222202113D

 47 50  0  0  1  0  0  0  0  0999 V2000
   19.2330   83.6750   20.1780 B   0  0  0  0  0  0  0  0  0  0  0  0
   19.3690   81.7740   20.2450 C   0  0  0  0  0  0  0  0  0  0  0  0
   20.0010   81.0340   19.2710 C   0  0  0  0  0  0  0  0  0  0  0  0
   20.0980   79.6440   19.3260 C   0  0  0  0  0  0  0  0  0  0  0  0
   19.5420   78.9760   20.3890 C   0  0  0  0  0  0  0  0  0  0  0  0
   18.8980   79.6930   21.3850 C   0  0  0  0  0  0  0  0  0  0  0  0
   18.8170   81.0880   21.3050 C   0  0  0  0  0  0  0  0  0  0  0  0
   19.7590   77.5690   20.2520 N   0  0  0  0  0  0  0  0  0  0  0  0
   20.4800   77.3460   19.0530 C   0  0  0  0  0  0  0  0  0  0  0  0
   20.8290   76.2140   18.6640 O   0  0  0  0  0  0  0  0  0  0  0  0
   20.7110   78.6330   18.4170 C   0  0  2  0  0  0  0  0  0  0  0  0
   22.1580   78.8240   18.3380 N   0  0  0  0  0  0  0  0  0  0  0  0
   22.3970   79.4610   17.0770 C   0  0  2  0  0  0  0  0  0  0  0  0
   21.4030   78.8360   16.1680 C   0  0  2  0  0  0  0  0  0  0  0  0
   20.1620   78.7750   17.0290 C   0  0  1  0  0  0  0  0  0  0  0  0
   19.4160   77.6320   16.5200 C   0  0  0  0  0  0  0  0  0  0  0  0
   18.2060   77.3970   16.7230 O   0  0  0  0  0  0  0  0  0  0  0  0
   20.3110   76.8350   15.7530 N   0  0  0  0  0  0  0  0  0  0  0  0
   21.6380   77.4020   15.8640 C   0  0  0  0  0  0  0  0  0  0  0  0
   22.6700   76.7280   15.7150 O   0  0  0  0  0  0  0  0  0  0  0  0
   19.9230   75.6730   15.0070 C   0  0  0  0  0  0  0  0  0  0  0  0
   19.6580   75.9030   13.5570 C   0  0  0  0  0  0  0  0  0  0  0  0
   18.4280   75.4200   13.1410 O   0  0  0  0  0  0  0  0  0  0  0  0
   18.4990   74.0770   12.7760 C   0  0  0  0  0  0  0  0  0  0  0  0
   23.8150   79.3870   16.6240 C   0  0  0  0  0  0  0  0  0  0  0  0
   23.9270   79.8980   15.2540 C   0  0  0  0  0  0  0  0  0  0  0  0
   23.7090   81.1210   15.0230 O   0  0  0  0  0  0  0  0  0  0  0  0
   24.2810   79.0330   14.1760 N   0  0  0  0  0  0  0  0  0  0  0  0
   20.4290   81.5940   18.4460 H   0  0  0  0  0  0  0  0  0  0  0  0
   18.4660   79.1540   22.2150 H   0  0  0  0  0  0  0  0  0  0  0  0
   18.3090   81.6300   22.0920 H   0  0  0  0  0  0  0  0  0  0  0  0
   19.4230   76.8430   20.9450 H   0  0  0  0  0  0  0  0  0  0  0  0
   22.6470   77.8970   18.3270 H   0  0  0  0  0  0  0  0  0  0  0  0
   22.1380   80.5540   17.1250 H   0  0  0  0  0  0  0  0  0  0  0  0
   21.2300   79.4240   15.2380 H   0  0  0  0  0  0  0  0  0  0  0  0
   19.6400   79.7490   16.8810 H   0  0  0  0  0  0  0  0  0  0  0  0
   18.9790   75.2710   15.4410 H   0  0  0  0  0  0  0  0  0  0  0  0
   20.7270   74.8900   15.0600 H   0  0  0  0  0  0  0  0  0  0  0  0
   20.4660   75.5080   12.9000 H   0  0  0  0  0  0  0  0  0  0  0  0
   19.6460   76.9990   13.3910 H   0  0  0  0  0  0  0  0  0  0  0  0
   17.4570   73.7900   12.4580 H   0  0  0  0  0  0  0  0  0  0  0  0
   19.1390   73.8930   11.9090 H   0  0  0  0  0  0  0  0  0  0  0  0
   18.7200   73.4210   13.6480 H   0  0  0  0  0  0  0  0  0  0  0  0
   24.5480   79.8620   17.2910 H   0  0  0  0  0  0  0  0  0  0  0  0
   24.0950   78.3010   16.5900 H   0  0  0  0  0  0  0  0  0  0  0  0
   25.0770   79.2730   13.5510 H   0  0  0  0  0  0  0  0  0  0  0  0
   23.7370   78.1600   14.0210 H   0  0  0  0  0  0  0  0  0  0  0  0
  1  2  1  0  0  0  0
  2  7  1  0  0  0  0
  3  4  1  0  0  0  0
  3  2  2  0  0  0  0
  4  5  2  0  0  0  0
  5  6  1  0  0  0  0
  6 30  1  0  0  0  0
  7  6  2  0  0  0  0
  7 31  1  0  0  0  0
  8  5  1  0  0  0  0
  8 32  1  0  0  0  0
  9  8  1  0  0  0  0
 10  9  2  0  0  0  0
 11  9  1  1  0  0  0
 11  4  1  0  0  0  0
 12 11  1  0  0  0  0
 13 34  1  1  0  0  0
 13 12  1  0  0  0  0
 14 35  1  6  0  0  0
 14 15  1  0  0  0  0
 14 13  1  0  0  0  0
 15 36  1  6  0  0  0
 15 11  1  0  0  0  0
 16 17  2  0  0  0  0
 16 15  1  0  0  0  0
 18 19  1  0  0  0  0
 18 16  1  0  0  0  0
 19 14  1  0  0  0  0
 20 19  2  0  0  0  0
 21 38  1  0  0  0  0
 21 37  1  0  0  0  0
 21 18  1  0  0  0  0
 22 21  1  0  0  0  0
 23 22  1  0  0  0  0
 24 23  1  0  0  0  0
 24 43  1  0  0  0  0
 25 13  1  0  0  0  0
 25 44  1  0  0  0  0
 26 25  1  0  0  0  0
 27 26  2  0  0  0  0
 28 26  1  0  0  0  0
 29  3  1  0  0  0  0
 33 12  1  0  0  0  0
 39 22  1  0  0  0  0
 40 22  1  0  0  0  0
 41 24  1  0  0  0  0
 42 24  1  0  0  0  0
 45 25  1  0  0  0  0
 46 28  1  0  0  0  0
 47 28  1  0  0  0  0
M  END
>  <Pose>
1

>  <Score>
-6.83

$$$$
