
 OpenBabel03222202113D

 33 36  0  0  1  0  0  0  0  0999 V2000
   22.5380   79.3720   10.5440 B   0  0  0  0  0  0  0  0  0  0  0  0
   21.8230   78.5250   12.0860 C   0  0  0  0  0  0  0  0  0  0  0  0
   22.3390   78.8390   13.3130 C   0  0  0  0  0  0  0  0  0  0  0  0
   21.8120   78.2140   14.4480 C   0  0  0  0  0  0  0  0  0  0  0  0
   20.8060   77.3180   14.2950 C   0  0  0  0  0  0  0  0  0  0  0  0
   20.2760   76.9970   13.0280 C   0  0  0  0  0  0  0  0  0  0  0  0
   20.7970   77.6130   11.9160 C   0  0  0  0  0  0  0  0  0  0  0  0
   20.2500   76.6740   15.3860 O   0  0  0  0  0  0  0  0  0  0  0  0
   20.7410   76.9610   16.6410 C   0  0  0  0  0  0  0  0  0  0  0  0
   21.7110   77.8150   16.8670 C   0  0  0  0  0  0  0  0  0  0  0  0
   22.3570   78.5410   15.7820 C   0  0  1  0  0  0  0  0  0  0  0  0
   23.8350   78.4190   15.8080 C   0  0  0  0  0  0  0  0  0  0  0  0
   24.3700   79.6600   16.0160 C   0  0  0  0  0  0  0  0  0  0  0  0
   25.7300   79.5440   16.0400 N   0  0  0  0  0  0  0  0  0  0  0  0
   26.0000   78.2640   15.8500 N   0  0  0  0  0  0  0  0  0  0  0  0
   24.8800   77.5450   15.7050 C   0  0  0  0  0  0  0  0  0  0  0  0
   24.8520   76.0680   15.4750 C   0  0  0  0  0  0  0  0  0  0  0  0
   23.3590   80.6370   16.1370 N   0  0  0  0  0  0  0  0  0  0  0  0
   22.1230   79.9850   15.9980 C   0  0  0  0  0  0  0  0  0  0  0  0
   20.9770   80.5090   16.0440 O   0  0  0  0  0  0  0  0  0  0  0  0
   22.1710   78.0620   18.2120 C   0  0  0  0  0  0  0  0  0  0  0  0
   22.5530   78.2460   19.2900 N   0  0  0  0  0  0  0  0  0  0  0  0
   20.1540   76.2830   17.7640 N   0  0  0  0  0  0  0  0  0  0  0  0
   23.1360   79.5440   13.4830 H   0  0  0  0  0  0  0  0  0  0  0  0
   19.4700   76.2750   12.9370 H   0  0  0  0  0  0  0  0  0  0  0  0
   20.4400   77.4160   10.9140 H   0  0  0  0  0  0  0  0  0  0  0  0
   26.9920   77.9090   15.8250 H   0  0  0  0  0  0  0  0  0  0  0  0
   23.8240   75.7230   15.3330 H   0  0  0  0  0  0  0  0  0  0  0  0
   25.3550   75.5660   16.3380 H   0  0  0  0  0  0  0  0  0  0  0  0
   25.4520   75.7830   14.5740 H   0  0  0  0  0  0  0  0  0  0  0  0
   23.5300   81.6840   16.3050 H   0  0  0  0  0  0  0  0  0  0  0  0
   20.7730   75.8510   18.4850 H   0  0  0  0  0  0  0  0  0  0  0  0
   19.1200   76.2030   17.8910 H   0  0  0  0  0  0  0  0  0  0  0  0
  1  2  1  0  0  0  0
  2  3  1  0  0  0  0
  3 24  1  0  0  0  0
  3  4  2  0  0  0  0
  5  4  1  0  0  0  0
  5  8  1  0  0  0  0
  6  5  2  0  0  0  0
  7  2  2  0  0  0  0
  7  6  1  0  0  0  0
  8  9  1  0  0  0  0
  9 10  2  0  0  0  0
  9 23  1  0  0  0  0
 10 21  1  0  0  0  0
 11  4  1  6  0  0  0
 11 12  1  0  0  0  0
 11 19  1  0  0  0  0
 11 10  1  0  0  0  0
 12 13  1  0  0  0  0
 13 14  2  0  0  0  0
 13 18  1  0  0  0  0
 15 14  1  0  0  0  0
 16 12  2  0  0  0  0
 16 15  1  0  0  0  0
 17 16  1  0  0  0  0
 17 29  1  0  0  0  0
 18 31  1  0  0  0  0
 19 20  2  0  0  0  0
 19 18  1  0  0  0  0
 21 22  3  0  0  0  0
 23 33  1  0  0  0  0
 23 32  1  0  0  0  0
 25  6  1  0  0  0  0
 26  7  1  0  0  0  0
 27 15  1  0  0  0  0
 28 17  1  0  0  0  0
 30 17  1  0  0  0  0
M  END
>  <Pose>
1

>  <Score>
-4.78

$$$$
