
 OpenBabel03222202113D

 51 54  0  0  0  0  0  0  0  0999 V2000
   17.6090   72.7780   12.2480 B   0  0  0  0  0  0  0  0  0  0  0  0
   18.4660   74.4440   11.8870 C   0  0  0  0  0  0  0  0  0  0  0  0
   18.6090   74.9010   10.5800 C   0  0  0  0  0  0  0  0  0  0  0  0
   19.2320   76.1130   10.3160 C   0  0  0  0  0  0  0  0  0  0  0  0
   19.7170   76.8790   11.3550 C   0  0  0  0  0  0  0  0  0  0  0  0
   20.3230   78.0660   11.0990 N   0  0  0  0  0  0  0  0  0  0  0  0
   20.4690   78.5310    9.8460 C   0  0  0  0  0  0  0  0  0  0  0  0
   19.9920   77.7750    8.8500 N   0  0  0  0  0  0  0  0  0  0  0  0
   19.3820   76.5890    9.0300 C   0  0  0  0  0  0  0  0  0  0  0  0
   18.8980   75.8440    7.8790 C   0  0  0  0  0  0  0  0  0  0  0  0
   18.0490   76.4460    6.9600 C   0  0  0  0  0  0  0  0  0  0  0  0
   17.5800   75.7770    5.8490 C   0  0  0  0  0  0  0  0  0  0  0  0
   17.9410   74.4680    5.6030 C   0  0  0  0  0  0  0  0  0  0  0  0
   18.7910   73.8680    6.5240 C   0  0  0  0  0  0  0  0  0  0  0  0
   19.2550   74.5440    7.6310 C   0  0  0  0  0  0  0  0  0  0  0  0
   17.5690   78.1200    7.2490 Cl  0  0  0  0  0  0  0  0  0  0  0  0
   21.1120   79.7910    9.6150 N   0  0  0  0  0  4  0  0  0  0  0  0
   22.5020   79.5870    9.3120 C   0  0  0  0  0  0  0  0  0  0  0  0
   23.3470   79.2420   10.4900 C   0  0  0  0  0  0  0  0  0  0  0  0
   22.6720   79.4840   11.7460 N   0  0  0  0  0  0  0  0  0  0  0  0
   21.8250   80.6550   11.8140 C   0  0  0  0  0  0  0  0  0  0  0  0
   20.8790   80.7440   10.6570 C   0  0  0  0  0  0  0  0  0  0  0  0
   22.8780   78.5790   12.8150 C   0  0  0  0  0  0  0  0  0  0  0  0
   22.8070   77.3430   12.6330 O   0  0  0  0  0  0  0  0  0  0  0  0
   23.1790   79.1780   14.1470 C   0  0  0  0  0  0  0  0  0  0  0  0
   23.8990   78.2090   15.0360 C   0  0  0  0  0  0  0  0  0  0  0  0
   24.9470   78.8380   15.8540 C   0  0  0  0  0  0  0  0  0  0  0  0
   24.9410   80.0630   16.0950 O   0  0  0  0  0  0  0  0  0  0  0  0
   25.9620   78.0580   16.3700 O   0  0  0  0  0  0  0  0  0  0  0  0
   19.5640   76.4010   12.6500 C   0  0  0  0  0  0  0  0  0  0  0  0
   18.9480   75.2010   12.9340 C   0  0  0  0  0  0  0  0  0  0  0  0
   18.2310   74.3160    9.7750 H   0  0  0  0  0  0  0  0  0  0  0  0
   16.9180   76.2460    5.1350 H   0  0  0  0  0  0  0  0  0  0  0  0
   17.5780   73.9340    4.7310 H   0  0  0  0  0  0  0  0  0  0  0  0
   19.0860   72.8440    6.3510 H   0  0  0  0  0  0  0  0  0  0  0  0
   19.9140   74.0190    8.2980 H   0  0  0  0  0  0  0  0  0  0  0  0
   20.6720   80.1490    8.7150 H   0  0  0  0  0  0  0  0  0  0  0  0
   22.5720   78.8020    8.5360 H   0  0  0  0  0  0  0  0  0  0  0  0
   22.8690   80.5380    8.8480 H   0  0  0  0  0  0  0  0  0  0  0  0
   24.2590   79.9020   10.5000 H   0  0  0  0  0  0  0  0  0  0  0  0
   23.6920   78.1940   10.3930 H   0  0  0  0  0  0  0  0  0  0  0  0
   21.2830   80.7230   12.7800 H   0  0  0  0  0  0  0  0  0  0  0  0
   22.5350   81.5300   11.7290 H   0  0  0  0  0  0  0  0  0  0  0  0
   20.9320   81.7630   10.1850 H   0  0  0  0  0  0  0  0  0  0  0  0
   19.8300   80.6110   11.0100 H   0  0  0  0  0  0  0  0  0  0  0  0
   23.8450   80.0510   13.9870 H   0  0  0  0  0  0  0  0  0  0  0  0
   22.2630   79.5630   14.6400 H   0  0  0  0  0  0  0  0  0  0  0  0
   24.4020   77.4590   14.3750 H   0  0  0  0  0  0  0  0  0  0  0  0
   23.1760   77.6500   15.6630 H   0  0  0  0  0  0  0  0  0  0  0  0
   19.9390   76.9890   13.4560 H   0  0  0  0  0  0  0  0  0  0  0  0
   18.8200   74.8110   13.9360 H   0  0  0  0  0  0  0  0  0  0  0  0
  2  1  1  0  0  0  0
  2 31  1  0  0  0  0
  3  2  2  0  0  0  0
  4  3  1  0  0  0  0
  4  5  2  0  0  0  0
  5 30  1  0  0  0  0
  6  5  1  0  0  0  0
  7  6  2  0  0  0  0
  8  9  2  0  0  0  0
  8  7  1  0  0  0  0
  9  4  1  0  0  0  0
 10  9  1  0  0  0  0
 11 16  1  0  0  0  0
 11 10  2  0  0  0  0
 12 11  1  0  0  0  0
 13 12  2  0  0  0  0
 13 14  1  0  0  0  0
 14 15  2  0  0  0  0
 15 10  1  0  0  0  0
 15 36  1  0  0  0  0
 17  7  1  0  0  0  0
 17 22  1  0  0  0  0
 18 17  1  0  0  0  0
 18 19  1  0  0  0  0
 19 40  1  0  0  0  0
 19 20  1  0  0  0  0
 20 21  1  0  0  0  0
 20 23  1  0  0  0  0
 21 42  1  0  0  0  0
 22 45  1  0  0  0  0
 22 21  1  0  0  0  0
 23 25  1  0  0  0  0
 24 23  2  0  0  0  0
 25 47  1  0  0  0  0
 25 26  1  0  0  0  0
 26 49  1  0  0  0  0
 26 27  1  0  0  0  0
 27 28  2  0  0  0  0
 27 29  1  0  0  0  0
 30 31  2  0  0  0  0
 30 50  1  0  0  0  0
 31 51  1  0  0  0  0
 32  3  1  0  0  0  0
 33 12  1  0  0  0  0
 34 13  1  0  0  0  0
 35 14  1  0  0  0  0
 37 17  1  0  0  0  0
 38 18  1  0  0  0  0
 39 18  1  0  0  0  0
 41 19  1  0  0  0  0
 43 21  1  0  0  0  0
 44 22  1  0  0  0  0
 46 25  1  0  0  0  0
 48 26  1  0  0  0  0
M  END
>  <Pose>
1

>  <Score>
-5.65

$$$$
