
 OpenBabel03222202113D

 54 57  0  0  0  0  0  0  0  0999 V2000
   26.0340   80.1650   17.9790 B   0  0  0  0  0  0  0  0  0  0  0  0
   24.8270   79.1500   16.8980 C   0  0  0  0  0  0  0  0  0  0  0  0
   23.4570   79.1970   17.0850 C   0  0  0  0  0  0  0  0  0  0  0  0
   22.5620   78.4780   16.3230 C   0  0  0  0  0  0  0  0  0  0  0  0
   23.0280   77.6570   15.3120 C   0  0  0  0  0  0  0  0  0  0  0  0
   22.1640   76.9350   14.5560 N   0  0  0  0  0  0  0  0  0  0  0  0
   20.8340   76.9760   14.7430 C   0  0  0  0  0  0  0  0  0  0  0  0
   20.3800   77.7750   15.7250 N   0  0  0  0  0  0  0  0  0  0  0  0
   21.1990   78.5160   16.5080 C   0  0  0  0  0  0  0  0  0  0  0  0
   20.6530   79.3620   17.5580 C   0  0  0  0  0  0  0  0  0  0  0  0
   20.2470   78.8440   18.7780 C   0  0  0  0  0  0  0  0  0  0  0  0
   19.7080   79.6350   19.7770 C   0  0  0  0  0  0  0  0  0  0  0  0
   19.5820   81.0050   19.5190 C   0  0  0  0  0  0  0  0  0  0  0  0
   19.9770   81.5530   18.3160 C   0  0  0  0  0  0  0  0  0  0  0  0
   20.4990   80.7370   17.3630 C   0  0  0  0  0  0  0  0  0  0  0  0
   20.4160   77.1220   19.0760 Cl  0  0  0  0  0  0  0  0  0  0  0  0
   19.9580   76.2040   13.9290 N   0  0  0  0  0  4  0  0  0  0  0  0
   18.6610   76.8350   13.8200 C   0  0  0  0  0  0  0  0  0  0  0  0
   17.9520   76.2600   12.6350 C   0  0  0  0  0  0  0  0  0  0  0  0
   18.6290   75.0430   12.2350 N   0  0  0  0  0  0  0  0  0  0  0  0
   19.0130   74.1200   13.2880 C   0  0  0  0  0  0  0  0  0  0  0  0
   19.7530   74.8620   14.4080 C   0  0  0  0  0  0  0  0  0  0  0  0
   18.8780   74.8180   10.8710 C   0  0  0  0  0  0  0  0  0  0  0  0
   18.6750   73.6630   10.4210 O   0  0  0  0  0  0  0  0  0  0  0  0
   19.3600   75.8710    9.9750 C   0  0  0  0  0  0  0  0  0  0  0  0
   18.9480   75.5670    8.5630 C   0  0  0  0  0  0  0  0  0  0  0  0
   19.4230   76.6140    7.5800 C   0  0  0  0  0  0  0  0  0  0  0  0
   18.5160   77.7750    7.4860 C   0  0  0  0  0  0  0  0  0  0  0  0
   18.5590   78.6180    8.4120 O   0  0  0  0  0  0  0  0  0  0  0  0
   17.6590   77.9010    6.4030 O   0  0  0  0  0  0  0  0  0  0  0  0
   24.3900   77.6040   15.1180 C   0  0  0  0  0  0  0  0  0  0  0  0
   25.2880   78.3320   15.8900 C   0  0  0  0  0  0  0  0  0  0  0  0
   23.1120   79.8350   17.8850 H   0  0  0  0  0  0  0  0  0  0  0  0
   19.3920   79.2260   20.7330 H   0  0  0  0  0  0  0  0  0  0  0  0
   19.1550   81.6260   20.3130 H   0  0  0  0  0  0  0  0  0  0  0  0
   19.8750   82.6270   18.1250 H   0  0  0  0  0  0  0  0  0  0  0  0
   20.8050   81.1600   16.4170 H   0  0  0  0  0  0  0  0  0  0  0  0
   20.3930   76.1420   12.9850 H   0  0  0  0  0  0  0  0  0  0  0  0
   18.8410   77.9250   13.7150 H   0  0  0  0  0  0  0  0  0  0  0  0
   18.1300   76.6660   14.7810 H   0  0  0  0  0  0  0  0  0  0  0  0
   17.9690   77.0230   11.8290 H   0  0  0  0  0  0  0  0  0  0  0  0
   16.8870   76.0550   12.8770 H   0  0  0  0  0  0  0  0  0  0  0  0
   18.0700   73.7430   13.7360 H   0  0  0  0  0  0  0  0  0  0  0  0
   19.5710   73.2540   12.9270 H   0  0  0  0  0  0  0  0  0  0  0  0
   19.2080   74.8160   15.3560 H   0  0  0  0  0  0  0  0  0  0  0  0
   20.7090   74.3400   14.5430 H   0  0  0  0  0  0  0  0  0  0  0  0
   18.9160   76.8790   10.2180 H   0  0  0  0  0  0  0  0  0  0  0  0
   20.4550   76.0270   10.0580 H   0  0  0  0  0  0  0  0  0  0  0  0
   19.3870   74.5980    8.2100 H   0  0  0  0  0  0  0  0  0  0  0  0
   17.8580   75.4600    8.4670 H   0  0  0  0  0  0  0  0  0  0  0  0
   19.4710   76.1320    6.5840 H   0  0  0  0  0  0  0  0  0  0  0  0
   20.4660   76.9200    7.8490 H   0  0  0  0  0  0  0  0  0  0  0  0
   24.7570   76.9620   14.3270 H   0  0  0  0  0  0  0  0  0  0  0  0
   26.3560   78.2980   15.7450 H   0  0  0  0  0  0  0  0  0  0  0  0
  2  3  1  0  0  0  0
  2  1  1  0  0  0  0
  3 33  1  0  0  0  0
  4  9  1  0  0  0  0
  4  3  2  0  0  0  0
  5  4  1  0  0  0  0
  6  7  2  0  0  0  0
  6  5  1  0  0  0  0
  7  8  1  0  0  0  0
  8  9  2  0  0  0  0
  9 10  1  0  0  0  0
 10 11  1  0  0  0  0
 11 16  1  0  0  0  0
 11 12  2  0  0  0  0
 12 34  1  0  0  0  0
 13 12  1  0  0  0  0
 13 35  1  0  0  0  0
 14 13  2  0  0  0  0
 15 10  2  0  0  0  0
 15 14  1  0  0  0  0
 17 22  1  0  0  0  0
 17  7  1  0  0  0  0
 18 17  1  0  0  0  0
 18 40  1  0  0  0  0
 19 42  1  0  0  0  0
 19 18  1  0  0  0  0
 20 19  1  0  0  0  0
 20 21  1  0  0  0  0
 21 43  1  0  0  0  0
 21 22  1  0  0  0  0
 22 46  1  0  0  0  0
 22 45  1  0  0  0  0
 23 20  1  0  0  0  0
 24 23  2  0  0  0  0
 25 48  1  0  0  0  0
 25 47  1  0  0  0  0
 25 23  1  0  0  0  0
 26 25  1  0  0  0  0
 27 52  1  0  0  0  0
 27 26  1  0  0  0  0
 28 27  1  0  0  0  0
 28 29  1  0  0  0  0
 30 28  2  0  0  0  0
 31  5  2  0  0  0  0
 31 32  1  0  0  0  0
 32  2  2  0  0  0  0
 36 14  1  0  0  0  0
 37 15  1  0  0  0  0
 38 17  1  0  0  0  0
 39 18  1  0  0  0  0
 41 19  1  0  0  0  0
 44 21  1  0  0  0  0
 49 26  1  0  0  0  0
 50 26  1  0  0  0  0
 51 27  1  0  0  0  0
 53 31  1  0  0  0  0
 54 32  1  0  0  0  0
M  END
>  <Pose>
1

>  <Score>
-6.37

$$$$
