
 OpenBabel03222202113D

 55 58  0  0  0  0  0  0  0  0999 V2000
   19.2660   78.3710    7.6450 B   0  0  0  0  0  0  0  0  0  0  0  0
   19.2450   77.2320    9.1460 C   0  0  0  0  0  0  0  0  0  0  0  0
   19.6410   77.6800   10.3960 C   0  0  0  0  0  0  0  0  0  0  0  0
   19.6500   76.8700   11.4940 C   0  0  0  0  0  0  0  0  0  0  0  0
   19.9480   77.1500   12.7990 N   0  0  0  0  0  0  0  0  0  0  0  0
   19.7280   76.0280   13.5060 C   0  0  0  0  0  0  0  0  0  0  0  0
   19.3070   74.9970   12.6230 C   0  0  0  0  0  0  0  0  0  0  0  0
   19.2660   75.5810   11.3830 C   0  0  0  0  0  0  0  0  0  0  0  0
   18.8600   75.1050   10.1330 C   0  0  0  0  0  0  0  0  0  0  0  0
   18.8430   75.9170    9.0080 C   0  0  0  0  0  0  0  0  0  0  0  0
   18.4310   75.4700    7.7400 O   0  0  0  0  0  0  0  0  0  0  0  0
   19.1380   73.5670   12.9160 C   0  0  0  0  0  0  0  0  0  0  0  0
   20.0020   73.0240   13.6550 O   0  0  0  0  0  0  0  0  0  0  0  0
   18.1260   72.7840   12.4710 O   0  0  0  0  0  0  0  0  0  0  0  0
   17.8920   71.4260   12.5820 C   0  0  0  0  0  0  0  0  0  0  0  0
   16.5540   70.9650   12.0170 C   0  0  0  0  0  0  0  0  0  0  0  0
   19.7990   75.8070   14.9500 C   0  0  0  0  0  0  0  0  0  0  0  0
   20.2860   76.8570   15.7890 N   0  0  0  0  0  4  0  0  0  0  0  0
   21.5450   77.3220   15.9840 C   0  0  0  0  0  0  0  0  0  0  0  0
   21.6520   77.7860   17.4560 C   0  0  0  0  0  0  0  0  0  0  0  0
   20.1870   78.1120   17.7390 C   0  0  0  0  0  0  0  0  0  0  0  0
   19.5510   76.9050   17.0640 C   0  0  0  0  0  0  0  0  0  0  0  0
   20.6850   78.3740   13.1670 C   0  0  0  0  0  0  0  0  0  0  0  0
   21.3030   78.8870   11.8470 C   0  0  0  0  0  0  0  0  0  0  0  0
   20.5670   79.8220   11.1800 C   0  0  0  0  0  0  0  0  0  0  0  0
   21.0710   80.3430    9.9770 C   0  0  0  0  0  0  0  0  0  0  0  0
   22.2680   79.9590    9.4510 C   0  0  0  0  0  0  0  0  0  0  0  0
   22.9860   79.0040   10.1710 C   0  0  0  0  0  0  0  0  0  0  0  0
   22.4930   78.4720   11.3690 C   0  0  0  0  0  0  0  0  0  0  0  0
   19.9470   78.7160   10.5240 H   0  0  0  0  0  0  0  0  0  0  0  0
   18.5260   74.0680   10.0310 H   0  0  0  0  0  0  0  0  0  0  0  0
   17.4800   75.0890    7.6280 H   0  0  0  0  0  0  0  0  0  0  0  0
   18.6780   70.8990   11.9630 H   0  0  0  0  0  0  0  0  0  0  0  0
   17.9730   71.0610   13.6110 H   0  0  0  0  0  0  0  0  0  0  0  0
   16.5740   69.8670   11.8420 H   0  0  0  0  0  0  0  0  0  0  0  0
   15.7130   71.1600   12.7090 H   0  0  0  0  0  0  0  0  0  0  0  0
   16.3140   71.4740   11.0470 H   0  0  0  0  0  0  0  0  0  0  0  0
   18.8100   75.5260   15.3340 H   0  0  0  0  0  0  0  0  0  0  0  0
   20.5280   74.9290   15.1350 H   0  0  0  0  0  0  0  0  0  0  0  0
   19.7100   77.7550   15.2840 H   0  0  0  0  0  0  0  0  0  0  0  0
   21.7540   78.3330   15.4270 H   0  0  0  0  0  0  0  0  0  0  0  0
   22.4290   76.7250   15.7860 H   0  0  0  0  0  0  0  0  0  0  0  0
   22.3240   78.6320   17.5500 H   0  0  0  0  0  0  0  0  0  0  0  0
   21.8950   76.9160   18.0420 H   0  0  0  0  0  0  0  0  0  0  0  0
   19.9720   79.0480   17.2010 H   0  0  0  0  0  0  0  0  0  0  0  0
   19.9900   78.1880   18.7970 H   0  0  0  0  0  0  0  0  0  0  0  0
   19.8040   76.0110   17.6460 H   0  0  0  0  0  0  0  0  0  0  0  0
   18.4660   77.0170   16.9210 H   0  0  0  0  0  0  0  0  0  0  0  0
   21.4710   78.2930   13.8650 H   0  0  0  0  0  0  0  0  0  0  0  0
   19.9470   79.1460   13.4200 H   0  0  0  0  0  0  0  0  0  0  0  0
   19.6140   80.1780   11.5440 H   0  0  0  0  0  0  0  0  0  0  0  0
   20.5050   81.0860    9.4190 H   0  0  0  0  0  0  0  0  0  0  0  0
   22.6500   80.3720    8.5200 H   0  0  0  0  0  0  0  0  0  0  0  0
   23.9360   78.6990    9.7880 H   0  0  0  0  0  0  0  0  0  0  0  0
   23.0730   77.7450   11.8770 H   0  0  0  0  0  0  0  0  0  0  0  0
  1  2  1  0  0  0  0
  2  3  1  0  0  0  0
  3 30  1  0  0  0  0
  3  4  2  0  0  0  0
  4  5  1  0  0  0  0
  5 23  1  0  0  0  0
  5  6  1  0  0  0  0
  6 17  1  0  0  0  0
  7 12  1  0  0  0  0
  7  6  2  0  0  0  0
  8  4  1  0  0  0  0
  8  7  1  0  0  0  0
  9  8  2  0  0  0  0
 10  2  2  0  0  0  0
 10  9  1  0  0  0  0
 11 10  1  0  0  0  0
 12 13  2  0  0  0  0
 14 15  1  0  0  0  0
 14 12  1  0  0  0  0
 15 34  1  0  0  0  0
 16 15  1  0  0  0  0
 16 36  1  0  0  0  0
 17 39  1  0  0  0  0
 17 38  1  0  0  0  0
 17 18  1  0  0  0  0
 18 19  1  0  0  0  0
 18 22  1  0  0  0  0
 19 20  1  0  0  0  0
 20 43  1  0  0  0  0
 20 21  1  0  0  0  0
 20 44  1  0  0  0  0
 21 46  1  0  0  0  0
 22 47  1  0  0  0  0
 22 21  1  0  0  0  0
 23 50  1  0  0  0  0
 23 49  1  0  0  0  0
 24 23  1  0  0  0  0
 25 51  1  0  0  0  0
 25 24  2  0  0  0  0
 26 25  1  0  0  0  0
 27 26  2  0  0  0  0
 27 28  1  0  0  0  0
 28 29  2  0  0  0  0
 29 24  1  0  0  0  0
 29 55  1  0  0  0  0
 31  9  1  0  0  0  0
 32 11  1  0  0  0  0
 33 15  1  0  0  0  0
 35 16  1  0  0  0  0
 37 16  1  0  0  0  0
 40 18  1  0  0  0  0
 41 19  1  0  0  0  0
 42 19  1  0  0  0  0
 45 21  1  0  0  0  0
 48 22  1  0  0  0  0
 52 26  1  0  0  0  0
 53 27  1  0  0  0  0
 54 28  1  0  0  0  0
M  END
>  <Pose>
1

>  <Score>
-5.85

$$$$
