
 OpenBabel03222202113D

 51 55  0  0  1  0  0  0  0  0999 V2000
   22.2050   80.0990   10.8640 B   0  0  0  0  0  0  0  0  0  0  0  0
   20.8690   78.9140   10.1640 C   0  0  0  0  0  0  0  0  0  0  0  0
   20.5040   79.0310    8.8420 C   0  0  0  0  0  0  0  0  0  0  0  0
   19.5450   78.2060    8.3080 C   0  0  0  0  0  0  0  0  0  0  0  0
   18.9680   78.0490    7.1020 N   0  0  0  0  0  0  0  0  0  0  0  0
   18.0600   77.0560    7.1420 C   0  0  0  0  0  0  0  0  0  0  0  0
   18.0900   76.6020    8.4070 N   0  0  0  0  0  0  0  0  0  0  0  0
   18.9880   77.2840    9.1470 C   0  0  0  0  0  0  0  0  0  0  0  0
   19.3560   77.1600   10.4950 C   0  0  0  0  0  0  0  0  0  0  0  0
   20.3180   77.9850   11.0330 C   0  0  0  0  0  0  0  0  0  0  0  0
   20.7730   77.9410   12.3690 N   0  0  0  0  0  0  0  0  0  0  0  0
   21.7730   78.7270   12.9560 C   0  0  1  0  0  0  0  0  0  0  0  0
   22.1230   79.8100   12.4210 O   0  0  0  0  0  0  0  0  0  0  0  0
   22.4700   78.3720   14.1970 C   0  0  0  0  0  0  0  0  0  0  0  0
   21.7210   78.3190   15.3890 N   0  0  0  0  0  0  0  0  0  0  0  0
   21.1560   79.5220   15.8830 C   0  0  0  0  0  0  0  0  0  0  0  0
   20.7910   79.4240   17.3640 C   0  0  0  0  0  0  0  0  0  0  0  0
   19.9650   78.3060   17.5330 N   0  0  0  0  0  0  0  0  0  0  0  0
   19.7520   77.4450   16.4360 C   0  0  0  0  0  0  0  0  0  0  0  0
   20.9450   77.1410   15.5810 C   0  0  0  0  0  0  0  0  0  0  0  0
   19.7920   77.8440   18.8360 C   0  0  0  0  0  0  0  0  0  0  0  0
   19.4570   78.8080   19.8840 C   0  0  0  0  0  0  0  0  0  0  0  0
   19.5170   78.3490   21.0900 O   0  0  0  0  0  0  0  0  0  0  0  0
   19.0880   80.1410   19.7400 N   0  0  0  0  0  0  0  0  0  0  0  0
   20.0510   81.2360   19.6660 C   0  0  0  0  0  0  0  0  0  0  0  0
   19.6390   82.6240   19.9260 C   0  0  0  0  0  0  0  0  0  0  0  0
   20.4670   81.8930   20.9650 C   0  0  0  0  0  0  0  0  0  0  0  0
   17.2580   76.6020    6.0760 O   0  0  0  0  0  0  0  0  0  0  0  0
   20.9540   79.7650    8.1890 H   0  0  0  0  0  0  0  0  0  0  0  0
   17.4930   75.8140    8.7850 H   0  0  0  0  0  0  0  0  0  0  0  0
   18.8780   76.4190   11.0900 H   0  0  0  0  0  0  0  0  0  0  0  0
   20.3070   77.2470   13.0290 H   0  0  0  0  0  0  0  0  0  0  0  0
   22.8950   77.3370   14.0160 H   0  0  0  0  0  0  0  0  0  0  0  0
   23.3670   79.0150   14.3830 H   0  0  0  0  0  0  0  0  0  0  0  0
   20.1410   79.6170   15.3730 H   0  0  0  0  0  0  0  0  0  0  0  0
   21.7010   80.4160   15.6160 H   0  0  0  0  0  0  0  0  0  0  0  0
   20.1910   80.3500   17.5760 H   0  0  0  0  0  0  0  0  0  0  0  0
   21.6980   79.3740   17.9480 H   0  0  0  0  0  0  0  0  0  0  0  0
   19.2050   76.5210   16.7380 H   0  0  0  0  0  0  0  0  0  0  0  0
   19.0190   77.9700   15.7490 H   0  0  0  0  0  0  0  0  0  0  0  0
   21.5350   76.2780   15.9630 H   0  0  0  0  0  0  0  0  0  0  0  0
   20.5590   76.8210   14.5800 H   0  0  0  0  0  0  0  0  0  0  0  0
   18.9800   77.0330   18.7960 H   0  0  0  0  0  0  0  0  0  0  0  0
   20.6900   77.2010   19.1570 H   0  0  0  0  0  0  0  0  0  0  0  0
   18.0840   80.4050   19.6700 H   0  0  0  0  0  0  0  0  0  0  0  0
   20.8960   81.0890   18.9660 H   0  0  0  0  0  0  0  0  0  0  0  0
   20.1760   83.4680   19.4240 H   0  0  0  0  0  0  0  0  0  0  0  0
   18.6390   82.9080   20.2500 H   0  0  0  0  0  0  0  0  0  0  0  0
   19.9690   81.6040   21.9160 H   0  0  0  0  0  0  0  0  0  0  0  0
   21.5350   82.1880   21.1050 H   0  0  0  0  0  0  0  0  0  0  0  0
   16.7020   75.7610    6.2760 H   0  0  0  0  0  0  0  0  0  0  0  0
  1 13  1  0  0  0  0
  2  1  1  0  0  0  0
  2 10  1  0  0  0  0
  3  2  2  0  0  0  0
  4  3  1  0  0  0  0
  4  8  2  0  0  0  0
  5  6  2  0  0  0  0
  5  4  1  0  0  0  0
  6  7  1  0  0  0  0
  7 30  1  0  0  0  0
  7  8  1  0  0  0  0
  8  9  1  0  0  0  0
  9 10  2  0  0  0  0
  9 31  1  0  0  0  0
 10 11  1  0  0  0  0
 11 12  1  0  0  0  0
 11 32  1  0  0  0  0
 12 14  1  1  0  0  0
 13 12  1  0  0  0  0
 14 34  1  0  0  0  0
 14 15  1  0  0  0  0
 15 20  1  0  0  0  0
 15 16  1  0  0  0  0
 16 17  1  0  0  0  0
 17 18  1  0  0  0  0
 17 37  1  0  0  0  0
 17 38  1  0  0  0  0
 18 21  1  0  0  0  0
 19 39  1  0  0  0  0
 19 18  1  0  0  0  0
 20 41  1  0  0  0  0
 20 19  1  0  0  0  0
 21 44  1  0  0  0  0
 21 22  1  0  0  0  0
 22 23  2  0  0  0  0
 24 22  1  0  0  0  0
 25 24  1  0  0  0  0
 25 26  1  0  0  0  0
 25 27  1  0  0  0  0
 26 48  1  0  0  0  0
 26 27  1  0  0  0  0
 27 50  1  0  0  0  0
 27 49  1  0  0  0  0
 28 51  1  0  0  0  0
 28  6  1  0  0  0  0
 29  3  1  0  0  0  0
 33 14  1  0  0  0  0
 35 16  1  0  0  0  0
 36 16  1  0  0  0  0
 40 19  1  0  0  0  0
 42 20  1  0  0  0  0
 43 21  1  0  0  0  0
 45 24  1  0  0  0  0
 46 25  1  0  0  0  0
 47 26  1  0  0  0  0
M  END
>  <Pose>
1

>  <Score>
-7.16

$$$$
