
 OpenBabel03222202113D

 43 46  0  0  1  0  0  0  0  0999 V2000
   19.1070   84.1370   20.4560 B   0  0  0  0  0  0  0  0  0  0  0  0
   19.4170   82.3460   19.8500 C   0  0  0  0  0  0  0  0  0  0  0  0
   18.9770   81.2530   20.5940 C   0  0  0  0  0  0  0  0  0  0  0  0
   19.2390   79.9990   20.0930 C   0  0  0  0  0  0  0  0  0  0  0  0
   18.9650   78.7610   20.5420 N   0  0  0  0  0  0  0  0  0  0  0  0
   19.4360   77.8600   19.6840 N   0  0  0  0  0  0  0  0  0  0  0  0
   20.0340   78.4530   18.6410 C   0  0  0  0  0  0  0  0  0  0  0  0
   19.9050   79.8300   18.9100 C   0  0  0  0  0  0  0  0  0  0  0  0
   20.3400   80.8950   18.1730 C   0  0  0  0  0  0  0  0  0  0  0  0
   20.0910   82.1570   18.6520 C   0  0  0  0  0  0  0  0  0  0  0  0
   20.6680   77.8980   17.5150 N   0  0  0  0  0  0  0  0  0  0  0  0
   19.9240   77.6150   16.2680 C   0  0  0  0  0  0  0  0  0  0  0  0
   20.5260   76.2980   15.8040 C   0  0  2  0  0  0  0  0  0  0  0  0
   21.9640   76.4070   16.2650 C   0  0  0  0  0  0  0  0  0  0  0  0
   22.0130   77.4810   17.2900 C   0  0  0  0  0  0  0  0  0  0  0  0
   23.0160   77.9410   17.8510 O   0  0  0  0  0  0  0  0  0  0  0  0
   20.3530   76.2810   14.3420 C   0  0  0  0  0  0  0  0  0  0  0  0
   20.6240   77.2860   13.6450 O   0  0  0  0  0  0  0  0  0  0  0  0
   19.8680   75.0880   13.7400 N   0  0  0  0  0  0  0  0  0  0  0  0
   18.4590   74.8830   13.4860 C   0  0  0  0  0  0  0  0  0  0  0  0
   18.1970   74.2240   12.1490 C   0  0  0  0  0  0  0  0  0  0  0  0
   18.1320   72.7560   12.2900 C   0  0  0  0  0  0  0  0  0  0  0  0
   19.2100   71.9560   12.2740 N   0  0  0  0  0  0  0  0  0  0  0  0
   18.8380   70.6840   12.4280 C   0  0  0  0  0  0  0  0  0  0  0  0
   17.4830   70.6630   12.5470 N   0  0  0  0  0  0  0  0  0  0  0  0
   17.0650   71.9300   12.4620 C   0  0  0  0  0  0  0  0  0  0  0  0
   18.4620   81.4630   21.5140 H   0  0  0  0  0  0  0  0  0  0  0  0
   19.3340   76.8380   19.8360 H   0  0  0  0  0  0  0  0  0  0  0  0
   20.8630   80.7140   17.2350 H   0  0  0  0  0  0  0  0  0  0  0  0
   20.4200   83.0190   18.0940 H   0  0  0  0  0  0  0  0  0  0  0  0
   18.8660   77.5190   16.4900 H   0  0  0  0  0  0  0  0  0  0  0  0
   20.1050   78.4490   15.5820 H   0  0  0  0  0  0  0  0  0  0  0  0
   20.0100   75.4370   16.2400 H   0  0  0  0  0  0  0  0  0  0  0  0
   22.1730   75.4560   16.8440 H   0  0  0  0  0  0  0  0  0  0  0  0
   22.7030   76.4820   15.4770 H   0  0  0  0  0  0  0  0  0  0  0  0
   20.5580   74.3550   13.4840 H   0  0  0  0  0  0  0  0  0  0  0  0
   18.0470   74.2290   14.2670 H   0  0  0  0  0  0  0  0  0  0  0  0
   17.9050   75.8460   13.5270 H   0  0  0  0  0  0  0  0  0  0  0  0
   17.2050   74.5780   11.8070 H   0  0  0  0  0  0  0  0  0  0  0  0
   18.9090   74.5620   11.3600 H   0  0  0  0  0  0  0  0  0  0  0  0
   19.4940   69.8310   12.4550 H   0  0  0  0  0  0  0  0  0  0  0  0
   16.9460   69.7760   12.6760 H   0  0  0  0  0  0  0  0  0  0  0  0
   16.0310   72.2200   12.5260 H   0  0  0  0  0  0  0  0  0  0  0  0
  2  1  1  0  0  0  0
  2  3  2  0  0  0  0
  3 27  1  0  0  0  0
  4  5  2  0  0  0  0
  4  3  1  0  0  0  0
  6 28  1  0  0  0  0
  6  5  1  0  0  0  0
  7  8  2  0  0  0  0
  7  6  1  0  0  0  0
  8  4  1  0  0  0  0
  9 10  2  0  0  0  0
  9  8  1  0  0  0  0
 10  2  1  0  0  0  0
 11  7  1  0  0  0  0
 12 31  1  0  0  0  0
 12 11  1  0  0  0  0
 13 33  1  1  0  0  0
 13 14  1  0  0  0  0
 13 12  1  0  0  0  0
 14 34  1  0  0  0  0
 14 15  1  0  0  0  0
 15 11  1  0  0  0  0
 15 16  2  0  0  0  0
 17 13  1  0  0  0  0
 18 17  2  0  0  0  0
 19 17  1  0  0  0  0
 20 38  1  0  0  0  0
 20 19  1  0  0  0  0
 20 37  1  0  0  0  0
 21 22  1  0  0  0  0
 21 20  1  0  0  0  0
 22 26  2  0  0  0  0
 23 22  1  0  0  0  0
 23 24  2  0  0  0  0
 24 41  1  0  0  0  0
 24 25  1  0  0  0  0
 25 42  1  0  0  0  0
 26 43  1  0  0  0  0
 26 25  1  0  0  0  0
 29  9  1  0  0  0  0
 30 10  1  0  0  0  0
 32 12  1  0  0  0  0
 35 14  1  0  0  0  0
 36 19  1  0  0  0  0
 39 21  1  0  0  0  0
 40 21  1  0  0  0  0
M  END
>  <Pose>
1

>  <Score>
-7.40

$$$$
