
 OpenBabel03222202113D

 47 50  0  0  0  0  0  0  0  0999 V2000
   19.3460   79.2680   19.4180 B   0  0  0  0  0  0  0  0  0  0  0  0
   20.6540   78.3820   18.3440 C   0  0  0  0  0  0  0  0  0  0  0  0
   21.8650   78.8750   17.9160 C   0  0  0  0  0  0  0  0  0  0  0  0
   22.4640   77.9310   17.1970 N   0  0  0  0  0  0  0  0  0  0  0  0
   21.6560   76.8740   17.1720 N   0  0  0  0  0  0  0  0  0  0  0  0
   20.5290   77.0990   17.8630 C   0  0  0  0  0  0  0  0  0  0  0  0
   23.7800   78.0100   16.5340 C   0  0  0  0  0  0  0  0  0  0  0  0
   23.6420   77.3160   15.2260 C   0  0  0  0  0  0  0  0  0  0  0  0
   24.3810   76.3000   15.0220 O   0  0  0  0  0  0  0  0  0  0  0  0
   22.7460   77.7600   14.2770 N   0  0  0  0  0  0  0  0  0  0  0  0
   21.2950   77.7900   14.3230 C   0  0  0  0  0  0  0  0  0  0  0  0
   20.6600   77.5270   13.0150 C   0  0  0  0  0  0  0  0  0  0  0  0
   20.8080   78.3670   11.9410 C   0  0  0  0  0  0  0  0  0  0  0  0
   20.2360   78.0750   10.7160 C   0  0  0  0  0  0  0  0  0  0  0  0
   19.4980   76.9260   10.5360 C   0  0  0  0  0  0  0  0  0  0  0  0
   19.3380   76.0540   11.6290 C   0  0  0  0  0  0  0  0  0  0  0  0
   19.9050   76.3450   12.8420 C   0  0  0  0  0  0  0  0  0  0  0  0
   19.7230   75.4340   13.9750 C   0  0  0  0  0  0  0  0  0  0  0  0
   19.3580   74.0350   13.6770 C   0  0  0  0  0  0  0  0  0  0  0  0
   18.5030   73.8830   12.5070 N   0  0  0  0  0  0  0  0  0  0  0  0
   18.6130   74.8040   11.4300 C   0  0  0  0  0  0  0  0  0  0  0  0
   18.0780   74.5160   10.3160 O   0  0  0  0  0  0  0  0  0  0  0  0
   17.5860   72.7670   12.5100 C   0  0  0  0  0  0  0  0  0  0  0  0
   18.9090   76.6020    9.3270 O   0  0  0  0  0  0  0  0  0  0  0  0
   19.6480   75.9790    8.2960 C   0  0  0  0  0  0  0  0  0  0  0  0
   20.5710   79.1120    9.8680 O   0  0  0  0  0  0  0  0  0  0  0  0
   21.1940   80.1510   10.5810 C   0  0  0  0  0  0  0  0  0  0  0  0
   21.5070   79.5930   11.8550 O   0  0  0  0  0  0  0  0  0  0  0  0
   22.2260   79.8790   18.1500 H   0  0  0  0  0  0  0  0  0  0  0  0
   19.6800   76.4600   18.0380 H   0  0  0  0  0  0  0  0  0  0  0  0
   24.5100   77.4750   17.1900 H   0  0  0  0  0  0  0  0  0  0  0  0
   24.1150   79.0380   16.4040 H   0  0  0  0  0  0  0  0  0  0  0  0
   23.1390   78.1370   13.3580 H   0  0  0  0  0  0  0  0  0  0  0  0
   21.1020   78.8930   14.5510 H   0  0  0  0  0  0  0  0  0  0  0  0
   20.8620   77.2230   15.1500 H   0  0  0  0  0  0  0  0  0  0  0  0
   19.0670   75.8460   14.7720 H   0  0  0  0  0  0  0  0  0  0  0  0
   20.7380   75.3770   14.4870 H   0  0  0  0  0  0  0  0  0  0  0  0
   20.2860   73.4250   13.4640 H   0  0  0  0  0  0  0  0  0  0  0  0
   18.8840   73.5810   14.5900 H   0  0  0  0  0  0  0  0  0  0  0  0
   18.0700   71.9070   13.0320 H   0  0  0  0  0  0  0  0  0  0  0  0
   16.6980   73.0650   13.0960 H   0  0  0  0  0  0  0  0  0  0  0  0
   17.2390   72.4870   11.4970 H   0  0  0  0  0  0  0  0  0  0  0  0
   20.7040   76.3610    8.3810 H   0  0  0  0  0  0  0  0  0  0  0  0
   19.2740   76.2470    7.2880 H   0  0  0  0  0  0  0  0  0  0  0  0
   19.6440   74.8610    8.3930 H   0  0  0  0  0  0  0  0  0  0  0  0
   20.5230   81.0210   10.7620 H   0  0  0  0  0  0  0  0  0  0  0  0
   22.1680   80.4320   10.1230 H   0  0  0  0  0  0  0  0  0  0  0  0
  2  1  1  0  0  0  0
  3 29  1  0  0  0  0
  3  2  2  0  0  0  0
  4  3  1  0  0  0  0
  5  4  1  0  0  0  0
  5  6  2  0  0  0  0
  6 30  1  0  0  0  0
  6  2  1  0  0  0  0
  7 31  1  0  0  0  0
  7  4  1  0  0  0  0
  8  7  1  0  0  0  0
  9  8  2  0  0  0  0
 10 11  1  0  0  0  0
 10  8  1  0  0  0  0
 11 34  1  0  0  0  0
 11 35  1  0  0  0  0
 12 11  1  0  0  0  0
 13 12  2  0  0  0  0
 14 13  1  0  0  0  0
 15 14  2  0  0  0  0
 15 16  1  0  0  0  0
 16 17  2  0  0  0  0
 17 12  1  0  0  0  0
 17 18  1  0  0  0  0
 18 37  1  0  0  0  0
 18 36  1  0  0  0  0
 19 18  1  0  0  0  0
 19 39  1  0  0  0  0
 20 23  1  0  0  0  0
 20 19  1  0  0  0  0
 21 16  1  0  0  0  0
 21 20  1  0  0  0  0
 22 21  2  0  0  0  0
 23 40  1  0  0  0  0
 23 41  1  0  0  0  0
 24 15  1  0  0  0  0
 25 43  1  0  0  0  0
 25 45  1  0  0  0  0
 25 24  1  0  0  0  0
 26 27  1  0  0  0  0
 26 14  1  0  0  0  0
 27 46  1  0  0  0  0
 27 28  1  0  0  0  0
 28 13  1  0  0  0  0
 32  7  1  0  0  0  0
 33 10  1  0  0  0  0
 38 19  1  0  0  0  0
 42 23  1  0  0  0  0
 44 25  1  0  0  0  0
 47 27  1  0  0  0  0
M  END
>  <Pose>
1

>  <Score>
-5.96

$$$$
