
 OpenBabel03222202113D

 33 37  0  0  0  0  0  0  0  0999 V2000
   19.3530   81.6310   19.9190 B   0  0  0  0  0  0  0  0  0  0  0  0
   20.2390   80.1360   19.1710 C   0  0  0  0  0  0  0  0  0  0  0  0
   21.3090   80.1630   18.2990 C   0  0  0  0  0  0  0  0  0  0  0  0
   21.6430   78.8960   18.0060 N   0  0  0  0  0  0  0  0  0  0  0  0
   20.8270   78.0870   18.6580 N   0  0  0  0  0  0  0  0  0  0  0  0
   19.9470   78.8090   19.3890 C   0  0  0  0  0  0  0  0  0  0  0  0
   22.7140   78.4750   17.1260 C   0  0  0  0  0  0  0  0  0  0  0  0
   22.1920   77.8450   15.9100 N   0  0  0  0  0  0  0  0  0  0  0  0
   21.2820   76.8870   15.8760 N   0  0  0  0  0  0  0  0  0  0  0  0
   21.0130   76.5200   14.6110 C   0  0  0  0  0  0  0  0  0  0  0  0
   21.8180   77.3130   13.8200 C   0  0  0  0  0  0  0  0  0  0  0  0
   22.5590   78.1460   14.6530 C   0  0  0  0  0  0  0  0  0  0  0  0
   20.0720   75.5020   14.1470 C   0  0  0  0  0  0  0  0  0  0  0  0
   18.7430   75.6450   14.0240 N   0  0  0  0  0  0  0  0  0  0  0  0
   18.1990   74.5140   13.5730 N   0  0  0  0  0  0  0  0  0  0  0  0
   19.2100   73.6160   13.4000 C   0  0  0  0  0  0  0  0  0  0  0  0
   20.3460   74.2460   13.7580 N   0  0  0  0  0  0  0  0  0  0  0  0
   18.8950   72.3570   12.9350 C   0  0  0  0  0  0  0  0  0  0  0  0
   17.5990   71.9730   12.6400 C   0  0  0  0  0  0  0  0  0  0  0  0
   17.6030   70.7000   12.2110 N   0  0  0  0  0  0  0  0  0  0  0  0
   18.8600   70.2850   12.2320 N   0  0  0  0  0  0  0  0  0  0  0  0
   19.6780   71.2650   12.6680 C   0  0  0  0  0  0  0  0  0  0  0  0
   16.6370   72.8910   12.8250 N   0  0  0  0  0  0  0  0  0  0  0  0
   16.9480   74.1160   13.2790 C   0  0  0  0  0  0  0  0  0  0  0  0
   21.7660   81.0610   17.9410 H   0  0  0  0  0  0  0  0  0  0  0  0
   19.1630   78.4440   20.0210 H   0  0  0  0  0  0  0  0  0  0  0  0
   23.4010   77.7510   17.6190 H   0  0  0  0  0  0  0  0  0  0  0  0
   23.3650   79.3510   16.8420 H   0  0  0  0  0  0  0  0  0  0  0  0
   21.8480   77.2720   12.7440 H   0  0  0  0  0  0  0  0  0  0  0  0
   23.2870   78.8930   14.3720 H   0  0  0  0  0  0  0  0  0  0  0  0
   16.7890   70.1220   11.9120 H   0  0  0  0  0  0  0  0  0  0  0  0
   20.7630   71.2360   12.7980 H   0  0  0  0  0  0  0  0  0  0  0  0
   16.1460   74.8270   13.4150 H   0  0  0  0  0  0  0  0  0  0  0  0
  2  6  1  0  0  0  0
  2  1  1  0  0  0  0
  3  2  2  0  0  0  0
  4  3  1  0  0  0  0
  4  5  1  0  0  0  0
  5  6  2  0  0  0  0
  6 26  1  0  0  0  0
  7 27  1  0  0  0  0
  7  4  1  0  0  0  0
  8  7  1  0  0  0  0
  9  8  1  0  0  0  0
 10  9  2  0  0  0  0
 11 10  1  0  0  0  0
 11 12  2  0  0  0  0
 12  8  1  0  0  0  0
 13 10  1  0  0  0  0
 14 13  2  0  0  0  0
 15 14  1  0  0  0  0
 16 15  1  0  0  0  0
 16 17  2  0  0  0  0
 17 13  1  0  0  0  0
 18 16  1  0  0  0  0
 19 23  1  0  0  0  0
 19 18  2  0  0  0  0
 20 21  1  0  0  0  0
 20 19  1  0  0  0  0
 21 22  2  0  0  0  0
 22 32  1  0  0  0  0
 22 18  1  0  0  0  0
 23 24  2  0  0  0  0
 24 33  1  0  0  0  0
 24 15  1  0  0  0  0
 25  3  1  0  0  0  0
 28  7  1  0  0  0  0
 29 11  1  0  0  0  0
 30 12  1  0  0  0  0
 31 20  1  0  0  0  0
M  END
>  <Pose>
1

>  <Score>
-7.50

$$$$
