
 OpenBabel03222202113D

 42 45  0  0  0  0  0  0  0  0999 V2000
   15.7500   70.2560   11.4050 B   0  0  0  0  0  0  0  0  0  0  0  0
   17.3070   71.2080   12.0160 C   0  0  0  0  0  0  0  0  0  0  0  0
   17.4220   72.5610   12.2490 C   0  0  0  0  0  0  0  0  0  0  0  0
   18.6710   72.8370   12.6670 N   0  0  0  0  0  0  0  0  0  0  0  0
   19.3190   71.6920   12.6960 N   0  0  0  0  0  0  0  0  0  0  0  0
   18.5440   70.6790   12.3130 C   0  0  0  0  0  0  0  0  0  0  0  0
   19.2290   74.0940   13.0210 C   0  0  0  0  0  0  0  0  0  0  0  0
   19.0190   75.2010   12.2350 C   0  0  0  0  0  0  0  0  0  0  0  0
   19.5450   76.4250   12.5520 C   0  0  0  0  0  0  0  0  0  0  0  0
   20.3350   76.6410   13.7000 C   0  0  0  0  0  0  0  0  0  0  0  0
   20.5390   75.5250   14.4770 C   0  0  0  0  0  0  0  0  0  0  0  0
   19.9930   74.2760   14.1420 C   0  0  0  0  0  0  0  0  0  0  0  0
   20.8880   77.9550   13.9400 C   0  0  0  0  0  0  0  0  0  0  0  0
   21.1560   78.6250   12.8650 O   0  0  0  0  0  0  0  0  0  0  0  0
   21.1710   78.5970   15.1340 N   0  0  0  0  0  0  0  0  0  0  0  0
   21.3200   78.0950   16.4730 C   0  0  0  0  0  0  0  0  0  0  0  0
   22.8080   77.9920   16.7470 C   0  0  0  0  0  0  0  0  0  0  0  0
   23.5430   79.1570   16.1140 C   0  0  0  0  0  0  0  0  0  0  0  0
   24.5840   79.5570   17.0350 N   0  0  0  0  0  0  0  0  0  0  0  0
   25.7170   78.7350   16.7950 C   0  0  0  0  0  0  0  0  0  0  0  0
   26.6970   78.5020   17.5750 O   0  0  0  0  0  0  0  0  0  0  0  0
   25.5600   78.1930   15.4740 N   0  0  0  0  0  0  0  0  0  0  0  0
   24.3200   78.7080   14.9430 C   0  0  0  0  0  0  0  0  0  0  0  0
   24.0340   78.7370   13.7270 O   0  0  0  0  0  0  0  0  0  0  0  0
   22.6680   80.3390   15.8460 C   0  0  0  0  0  0  0  0  0  0  0  0
   21.4230   80.0700   15.0700 C   0  0  0  0  0  0  0  0  0  0  0  0
   16.6300   73.2860   12.1140 H   0  0  0  0  0  0  0  0  0  0  0  0
   18.7810   69.6100   12.2290 H   0  0  0  0  0  0  0  0  0  0  0  0
   18.4060   75.0410   11.3420 H   0  0  0  0  0  0  0  0  0  0  0  0
   19.3560   77.2660   11.9120 H   0  0  0  0  0  0  0  0  0  0  0  0
   21.1530   75.5990   15.3570 H   0  0  0  0  0  0  0  0  0  0  0  0
   20.1770   73.4220   14.7820 H   0  0  0  0  0  0  0  0  0  0  0  0
   21.0080   78.9640   17.1810 H   0  0  0  0  0  0  0  0  0  0  0  0
   20.7120   77.2720   16.7830 H   0  0  0  0  0  0  0  0  0  0  0  0
   23.0030   77.9460   17.8180 H   0  0  0  0  0  0  0  0  0  0  0  0
   23.1740   77.0670   16.2750 H   0  0  0  0  0  0  0  0  0  0  0  0
   24.5540   80.3020   17.7560 H   0  0  0  0  0  0  0  0  0  0  0  0
   26.1890   77.5470   14.9490 H   0  0  0  0  0  0  0  0  0  0  0  0
   23.2900   81.0480   15.2220 H   0  0  0  0  0  0  0  0  0  0  0  0
   22.4590   80.9120   16.7790 H   0  0  0  0  0  0  0  0  0  0  0  0
   20.5550   80.5140   15.6000 H   0  0  0  0  0  0  0  0  0  0  0  0
   21.4190   80.4210   14.0370 H   0  0  0  0  0  0  0  0  0  0  0  0
  1  2  1  0  0  0  0
  2  3  2  0  0  0  0
  2  6  1  0  0  0  0
  3  4  1  0  0  0  0
  4  5  1  0  0  0  0
  4  7  1  0  0  0  0
  6  5  2  0  0  0  0
  7 12  1  0  0  0  0
  8  9  1  0  0  0  0
  8  7  2  0  0  0  0
  9 10  2  0  0  0  0
 10 13  1  0  0  0  0
 10 11  1  0  0  0  0
 11 31  1  0  0  0  0
 12 11  2  0  0  0  0
 12 32  1  0  0  0  0
 13 15  1  0  0  0  0
 14 13  2  0  0  0  0
 15 16  1  0  0  0  0
 16 17  1  0  0  0  0
 16 34  1  0  0  0  0
 16 33  1  0  0  0  0
 17 35  1  0  0  0  0
 18 17  1  0  0  0  0
 18 19  1  0  0  0  0
 19 37  1  0  0  0  0
 20 19  1  0  0  0  0
 20 21  2  0  0  0  0
 22 20  1  0  0  0  0
 23 22  1  0  0  0  0
 23 18  1  0  0  0  0
 24 23  2  0  0  0  0
 25 18  1  0  0  0  0
 25 40  1  0  0  0  0
 26 15  1  0  0  0  0
 26 41  1  0  0  0  0
 26 25  1  0  0  0  0
 27  3  1  0  0  0  0
 28  6  1  0  0  0  0
 29  8  1  0  0  0  0
 30  9  1  0  0  0  0
 36 17  1  0  0  0  0
 38 22  1  0  0  0  0
 39 25  1  0  0  0  0
 42 26  1  0  0  0  0
M  END
>  <Pose>
1

>  <Score>
-6.78

$$$$
