
 OpenBabel03222202113D

 41 44  0  0  0  0  0  0  0  0999 V2000
   19.2090   79.2930   19.9890 B   0  0  0  0  0  0  0  0  0  0  0  0
   19.9460   78.7630   18.3060 C   0  0  0  0  0  0  0  0  0  0  0  0
   20.4800   79.6690   17.4290 C   0  0  0  0  0  0  0  0  0  0  0  0
   20.9970   79.2730   16.2600 N   0  0  0  0  0  0  0  0  0  0  0  0
   21.0360   77.9760   15.8520 C   0  0  0  0  0  0  0  0  0  0  0  0
   20.4850   77.0580   16.7550 C   0  0  0  0  0  0  0  0  0  0  0  0
   19.9510   77.4320   17.9580 C   0  0  0  0  0  0  0  0  0  0  0  0
   21.6090   77.6100   14.6130 N   0  0  0  0  0  0  0  0  0  0  0  0
   20.8170   76.8680   13.7050 C   0  0  0  0  0  0  0  0  0  0  0  0
   20.5220   77.1370   12.4670 C   0  0  0  0  0  0  0  0  0  0  0  0
   19.6750   76.0420   11.9910 C   0  0  0  0  0  0  0  0  0  0  0  0
   19.1990   75.9750   10.8160 O   0  0  0  0  0  0  0  0  0  0  0  0
   19.4620   75.0690   13.0250 N   0  0  0  0  0  0  0  0  0  0  0  0
   20.1930   75.5930   14.1330 C   0  0  0  0  0  0  0  0  0  0  0  0
   20.2890   75.0630   15.2710 O   0  0  0  0  0  0  0  0  0  0  0  0
   18.7090   73.8700   12.9430 C   0  0  0  0  0  0  0  0  0  0  0  0
   17.3480   73.8430   12.7740 C   0  0  0  0  0  0  0  0  0  0  0  0
   16.6330   72.6310   12.6790 C   0  0  0  0  0  0  0  0  0  0  0  0
   17.2930   71.4250   12.7560 C   0  0  0  0  0  0  0  0  0  0  0  0
   18.6540   71.4470   12.9250 C   0  0  0  0  0  0  0  0  0  0  0  0
   19.3450   72.6560   13.0160 C   0  0  0  0  0  0  0  0  0  0  0  0
   20.9110   78.2670   11.6830 N   0  0  0  0  0  0  0  0  0  0  0  0
   22.0810   78.8840   11.9290 C   0  0  0  0  0  0  0  0  0  0  0  0
   22.4900   80.0030   11.1820 C   0  0  0  0  0  0  0  0  0  0  0  0
   21.6800   80.4890   10.1730 C   0  0  0  0  0  0  0  0  0  0  0  0
   20.4870   79.8400    9.9400 C   0  0  0  0  0  0  0  0  0  0  0  0
   20.1260   78.7520   10.6910 C   0  0  0  0  0  0  0  0  0  0  0  0
   20.4730   80.7110   17.6970 H   0  0  0  0  0  0  0  0  0  0  0  0
   20.5030   76.0150   16.4470 H   0  0  0  0  0  0  0  0  0  0  0  0
   19.5210   76.7180   18.6640 H   0  0  0  0  0  0  0  0  0  0  0  0
   22.5670   77.8700   14.3790 H   0  0  0  0  0  0  0  0  0  0  0  0
   16.8080   74.7750   12.7140 H   0  0  0  0  0  0  0  0  0  0  0  0
   15.5540   72.6610   12.5460 H   0  0  0  0  0  0  0  0  0  0  0  0
   16.7300   70.4950   12.6810 H   0  0  0  0  0  0  0  0  0  0  0  0
   19.1800   70.5020   12.9880 H   0  0  0  0  0  0  0  0  0  0  0  0
   20.4130   72.5950   13.1430 H   0  0  0  0  0  0  0  0  0  0  0  0
   22.7010   78.4840   12.7240 H   0  0  0  0  0  0  0  0  0  0  0  0
   23.4500   80.4680   11.4170 H   0  0  0  0  0  0  0  0  0  0  0  0
   21.9840   81.3600    9.5840 H   0  0  0  0  0  0  0  0  0  0  0  0
   19.8470   80.2120    9.1590 H   0  0  0  0  0  0  0  0  0  0  0  0
   19.1740   78.2260   10.5110 H   0  0  0  0  0  0  0  0  0  0  0  0
  2  1  1  0  0  0  0
  3 28  1  0  0  0  0
  3  2  2  0  0  0  0
  4  3  1  0  0  0  0
  5  4  2  0  0  0  0
  5  6  1  0  0  0  0
  6  7  2  0  0  0  0
  7  2  1  0  0  0  0
  7 30  1  0  0  0  0
  8  5  1  0  0  0  0
  9 14  1  0  0  0  0
  9  8  1  0  0  0  0
 10  9  2  0  0  0  0
 11 10  1  0  0  0  0
 11 13  1  0  0  0  0
 12 11  2  0  0  0  0
 13 14  1  0  0  0  0
 14 15  2  0  0  0  0
 16 21  1  0  0  0  0
 16 13  1  0  0  0  0
 17 16  2  0  0  0  0
 18 19  2  0  0  0  0
 18 17  1  0  0  0  0
 19 20  1  0  0  0  0
 20 35  1  0  0  0  0
 20 21  2  0  0  0  0
 21 36  1  0  0  0  0
 22 23  1  0  0  0  0
 22 10  1  0  0  0  0
 23 37  1  0  0  0  0
 24 38  1  0  0  0  0
 24 23  1  0  0  0  0
 25 24  2  0  0  0  0
 26 25  1  0  0  0  0
 26 27  2  0  0  0  0
 27 22  1  0  0  0  0
 29  6  1  0  0  0  0
 31  8  1  0  0  0  0
 32 17  1  0  0  0  0
 33 18  1  0  0  0  0
 34 19  1  0  0  0  0
 39 25  1  0  0  0  0
 40 26  1  0  0  0  0
 41 27  1  0  0  0  0
M  END
>  <Pose>
1

>  <Score>
-6.13

$$$$
