
 OpenBabel03222202113D

 48 43  0  0  1  0  0  0  0  0999 V2000
   20.7400   77.0950   16.2680 B   0  0  0  0  0  0  0  0  0  0  0  0
   20.2490   78.0030   17.8500 C   0  0  0  0  0  0  0  0  0  0  0  0
   19.7780   77.2850   18.9370 C   0  0  0  0  0  0  0  0  0  0  0  0
   19.4430   77.9750   20.0370 N   0  0  0  0  0  0  0  0  0  0  0  0
   19.5380   79.3100   20.1440 C   0  0  0  0  0  0  0  0  0  0  0  0
   20.0040   80.0130   19.0620 C   0  0  0  0  0  0  0  0  0  0  0  0
   20.3720   79.3760   17.8880 C   0  0  0  0  0  0  0  0  0  0  0  0
   20.1210   81.4610   19.1380 C   0  0  0  0  0  0  0  0  0  0  0  0
   19.6880   82.0880   20.1460 O   0  0  0  0  0  0  0  0  0  0  0  0
   20.7040   82.1920   18.1180 O   0  0  0  0  0  0  0  0  0  0  0  0
   21.1840   77.4720   18.9920 N   0  0  0  0  0  0  0  0  0  0  0  0
   19.8080   77.4700   19.4620 C   0  0  0  0  0  0  0  0  0  0  0  0
   18.9490   78.4620   18.7110 C   0  0  0  0  0  0  0  0  0  0  0  0
   18.9880   79.8130   19.4040 C   0  0  0  0  0  0  0  0  0  0  0  0
   20.3050   80.5110   19.1470 C   0  0  0  0  0  0  0  0  0  0  0  0
   21.0140   79.8300   18.0530 C   0  0  0  0  0  0  0  0  0  0  0  0
   21.3870   78.5080   18.0060 C   0  0  1  0  0  0  0  0  0  0  0  0
   22.0300   78.0450   16.9310 N   0  0  0  0  0  0  0  0  0  0  0  0
   22.3280   78.8260   15.8890 C   0  0  0  0  0  0  0  0  0  0  0  0
   21.9660   80.1490   15.9140 C   0  0  0  0  0  0  0  0  0  0  0  0
   21.3010   80.6540   17.0120 C   0  0  0  0  0  0  0  0  0  0  0  0
   20.9320   82.0430   17.0180 N   0  0  0  0  0  4  0  0  0  0  0  0
   22.2520   81.0070   14.8560 C   0  0  0  0  0  0  0  0  0  0  0  0
   22.9150   80.4900   13.7710 C   0  0  0  0  0  0  0  0  0  0  0  0
   23.2770   79.1660   13.7460 C   0  0  0  0  0  0  0  0  0  0  0  0
   22.9850   78.3150   14.8110 C   0  0  0  0  0  0  0  0  0  0  0  0
   21.4300   76.1930   18.3360 C   0  0  0  0  0  0  0  0  0  0  0  0
   19.7000   76.2140   18.8630 H   0  0  0  0  0  0  0  0  0  0  0  0
   19.2490   79.7920   21.0580 H   0  0  0  0  0  0  0  0  0  0  0  0
   20.7380   79.8950   17.0320 H   0  0  0  0  0  0  0  0  0  0  0  0
   21.8430   77.5990   19.7940 H   0  0  0  0  0  0  0  0  0  0  0  0
   19.7230   77.6830   20.5380 H   0  0  0  0  0  0  0  0  0  0  0  0
   19.3320   76.4660   19.3100 H   0  0  0  0  0  0  0  0  0  0  0  0
   17.8940   78.1180   18.7620 H   0  0  0  0  0  0  0  0  0  0  0  0
   19.3360   78.5200   17.6800 H   0  0  0  0  0  0  0  0  0  0  0  0
   18.1440   80.4080   19.0530 H   0  0  0  0  0  0  0  0  0  0  0  0
   18.8950   79.6350   20.4870 H   0  0  0  0  0  0  0  0  0  0  0  0
   20.1080   81.5770   18.9140 H   0  0  0  0  0  0  0  0  0  0  0  0
   20.9360   80.5320   20.0820 H   0  0  0  0  0  0  0  0  0  0  0  0
   21.6490   82.7630   17.1970 H   0  0  0  0  0  0  0  0  0  0  0  0
   19.9440   82.3390   16.8450 H   0  0  0  0  0  0  0  0  0  0  0  0
   21.9540   82.0420   14.9060 H   0  0  0  0  0  0  0  0  0  0  0  0
   23.1580   81.1220   12.9220 H   0  0  0  0  0  0  0  0  0  0  0  0
   23.7950   78.7560   12.9000 H   0  0  0  0  0  0  0  0  0  0  0  0
   23.2610   77.2700   14.8150 H   0  0  0  0  0  0  0  0  0  0  0  0
   20.9600   75.4110   18.9560 H   0  0  0  0  0  0  0  0  0  0  0  0
   22.5040   76.0430   18.1530 H   0  0  0  0  0  0  0  0  0  0  0  0
   20.8820   76.2060   17.3600 H   0  0  0  0  0  0  0  0  0  0  0  0
  1 18  1  0  0  0  0
  3 33  1  0  0  0  0
  3 12  1  0  0  0  0
  4 32  1  0  0  0  0
  5 37  1  0  0  0  0
  6 15  1  0  0  0  0
  6 14  1  0  0  0  0
  7 17  1  0  0  0  0
  7 16  1  0  0  0  0
  8 15  1  0  0  0  0
  8  9  2  0  0  0  0
 10 38  1  0  0  0  0
 11 31  1  0  0  0  0
 12  4  1  0  0  0  0
 13 34  1  0  0  0  0
 13  4  1  0  0  0  0
 14  5  1  0  0  0  0
 17  2  1  6  0  0  0
 17 11  1  0  0  0  0
 18 17  1  0  0  0  0
 19 20  1  0  0  0  0
 19 18  1  0  0  0  0
 20 21  1  0  0  0  0
 21 22  1  0  0  0  0
 21 30  1  0  0  0  0
 22 40  1  0  0  0  0
 22 10  1  0  0  0  0
 23 42  1  0  0  0  0
 23 20  2  0  0  0  0
 24 23  1  0  0  0  0
 25 24  2  0  0  0  0
 25 26  1  0  0  0  0
 26 45  1  0  0  0  0
 26 19  2  0  0  0  0
 27 46  1  0  0  0  0
 27 11  1  0  0  0  0
 35  2  1  0  0  0  0
 36 14  1  0  0  0  0
 41 22  1  0  0  0  0
 43 24  1  0  0  0  0
 44 25  1  0  0  0  0
 47 27  1  0  0  0  0
 48 27  1  0  0  0  0
M  END
>  <Pose>
1

>  <Score>
-6.69

$$$$
