
 OpenBabel03222202113D

 45 40  0  0  1  0  0  0  0  0999 V2000
   22.9770   81.0420   14.2210 B   0  0  0  0  0  0  0  0  0  0  0  0
   21.9660   79.7960   15.2480 C   0  0  0  0  0  0  0  0  0  0  0  0
   21.6170   80.0390   16.5590 C   0  0  0  0  0  0  0  0  0  0  0  0
   20.9040   79.1640   17.2900 N   0  0  0  0  0  0  0  0  0  0  0  0
   20.5190   78.0120   16.7200 C   0  0  0  0  0  0  0  0  0  0  0  0
   20.8270   77.6940   15.4170 C   0  0  0  0  0  0  0  0  0  0  0  0
   21.5540   78.6040   14.6950 C   0  0  0  0  0  0  0  0  0  0  0  0
   20.4000   76.4380   14.8120 C   0  0  0  0  0  0  0  0  0  0  0  0
   20.5970   76.2420   13.5880 O   0  0  0  0  0  0  0  0  0  0  0  0
   19.7870   75.4930   15.6210 O   0  0  0  0  0  0  0  0  0  0  0  0
   20.7110   76.7000   17.9770 N   0  0  0  0  0  0  0  0  0  0  0  0
   19.5730   77.3440   18.6590 C   0  0  0  0  0  0  0  0  0  0  0  0
   20.1030   78.3780   19.5970 C   0  0  0  0  0  0  0  0  0  0  0  0
   20.8560   79.4200   18.8140 C   0  0  0  0  0  0  0  0  0  0  0  0
   21.2070   79.0180   17.4420 C   0  0  0  0  0  0  0  0  0  0  0  0
   21.1400   77.7050   17.0350 C   0  0  2  0  0  0  0  0  0  0  0  0
   21.4730   77.4090   15.7800 N   0  0  0  0  0  0  0  0  0  0  0  0
   21.8760   78.3290   14.8780 C   0  0  0  0  0  0  0  0  0  0  0  0
   21.9550   79.6550   15.2510 C   0  0  0  0  0  0  0  0  0  0  0  0
   21.6200   80.0070   16.5390 C   0  0  0  0  0  0  0  0  0  0  0  0
   21.7030   81.3760   16.9200 N   0  0  0  0  0  0  0  0  0  0  0  0
   22.3720   80.6080   14.3200 C   0  0  2  0  0  0  0  0  0  0  0  0
   22.7110   80.2770   13.0270 C   0  0  0  0  0  0  0  0  0  0  0  0
   22.6310   78.9490   12.6600 C   0  0  0  0  0  0  0  0  0  0  0  0
   22.2170   78.0010   13.5840 C   0  0  0  0  0  0  0  0  0  0  0  0
   20.1650   75.5410   17.3010 C   0  0  0  0  0  0  0  0  0  0  0  0
   21.9510   80.9920   16.9870 H   0  0  0  0  0  0  0  0  0  0  0  0
   19.9470   77.3150   17.3150 H   0  0  0  0  0  0  0  0  0  0  0  0
   21.8390   78.4310   13.6630 H   0  0  0  0  0  0  0  0  0  0  0  0
   21.4520   76.4580   18.6550 H   0  0  0  0  0  0  0  0  0  0  0  0
   18.9850   76.6060   19.2330 H   0  0  0  0  0  0  0  0  0  0  0  0
   18.9750   77.8240   17.8510 H   0  0  0  0  0  0  0  0  0  0  0  0
   19.2640   78.8170   20.1810 H   0  0  0  0  0  0  0  0  0  0  0  0
   20.7820   77.8440   20.3240 H   0  0  0  0  0  0  0  0  0  0  0  0
   20.2300   80.3460   18.8350 H   0  0  0  0  0  0  0  0  0  0  0  0
   21.7620   79.6770   19.4200 H   0  0  0  0  0  0  0  0  0  0  0  0
   21.3830   81.6170   17.8830 H   0  0  0  0  0  0  0  0  0  0  0  0
   22.0520   82.1360   16.3180 H   0  0  0  0  0  0  0  0  0  0  0  0
   22.4350   81.6410   14.6060 H   0  0  0  0  0  0  0  0  0  0  0  0
   23.0310   81.0510   12.3330 H   0  0  0  0  0  0  0  0  0  0  0  0
   22.9010   78.7050   11.6410 H   0  0  0  0  0  0  0  0  0  0  0  0
   22.1650   76.9660   13.2620 H   0  0  0  0  0  0  0  0  0  0  0  0
   19.5230   75.9000   16.4710 H   0  0  0  0  0  0  0  0  0  0  0  0
   21.0050   74.8990   16.9280 H   0  0  0  0  0  0  0  0  0  0  0  0
   19.5430   75.0040   18.0440 H   0  0  0  0  0  0  0  0  0  0  0  0
  1 22  1  0  0  0  0
  1 39  1  0  0  0  0
  2 20  2  0  0  0  0
  5 16  1  0  0  0  0
  5  4  1  0  0  0  0
  5 28  1  0  0  0  0
  6 17  1  0  0  0  0
  7 18  1  0  0  0  0
  7 19  1  0  0  0  0
  8 10  1  0  0  0  0
  8 17  1  0  0  0  0
  9  8  2  0  0  0  0
 10 43  1  0  0  0  0
 11 30  1  0  0  0  0
 12 31  1  0  0  0  0
 12 13  1  0  0  0  0
 13 33  1  0  0  0  0
 13 34  1  0  0  0  0
 14 35  1  0  0  0  0
 14 36  1  0  0  0  0
 14 13  1  0  0  0  0
 15 14  1  0  0  0  0
 16 15  1  6  0  0  0
 17 16  1  0  0  0  0
 18  6  1  0  0  0  0
 20  4  1  0  0  0  0
 21 27  1  0  0  0  0
 21 37  1  0  0  0  0
 22  2  1  1  0  0  0
 23 22  1  0  0  0  0
 24 23  2  0  0  0  0
 25 29  1  0  0  0  0
 26 11  1  0  0  0  0
 26 45  1  0  0  0  0
 32 12  1  0  0  0  0
 38 21  1  0  0  0  0
 40 23  1  0  0  0  0
 41 24  1  0  0  0  0
 42 25  1  0  0  0  0
 44 26  1  0  0  0  0
M  END
>  <Pose>
1

>  <Score>
-5.51

$$$$
