
 OpenBabel03222202113D

 57 60  0  0  0  0  0  0  0  0999 V2000
   16.1120   79.7720    6.5000 B   0  0  0  0  0  0  0  0  0  0  0  0
   17.0030   78.1140    6.7560 C   0  0  0  0  0  0  0  0  0  0  0  0
   17.7780   77.9250    7.8840 C   0  0  0  0  0  0  0  0  0  0  0  0
   18.4630   76.7260    8.1330 C   0  0  0  0  0  0  0  0  0  0  0  0
   18.3630   75.7000    7.2260 C   0  0  0  0  0  0  0  0  0  0  0  0
   17.5900   75.8820    6.0960 C   0  0  0  0  0  0  0  0  0  0  0  0
   16.9170   77.0590    5.8520 C   0  0  0  0  0  0  0  0  0  0  0  0
   17.4280   74.4810    4.8190 B   0  0  0  0  0  0  0  0  0  0  0  0
   19.2800   76.5800    9.3310 C   0  0  0  0  0  0  0  0  0  0  0  0
   20.1860   75.7040    9.2750 O   0  0  0  0  0  0  0  0  0  0  0  0
   19.0720   77.3910   10.5250 C   0  0  0  0  0  0  0  0  0  0  0  0
   18.0080   78.4750   10.2070 C   0  0  0  0  0  0  0  0  0  0  0  0
   17.9720   78.8640    8.8830 O   0  0  0  0  0  0  0  0  0  0  0  0
   18.5540   76.7290   11.7180 C   0  0  0  0  0  0  0  0  0  0  0  0
   19.1140   75.6410   12.3750 N   0  0  0  0  0  4  0  0  0  0  0  0
   18.3240   74.4950   12.7010 C   0  0  0  0  0  0  0  0  0  0  0  0
   19.3170   73.3100   12.8210 C   0  0  0  0  0  0  0  0  0  0  0  0
   20.0520   73.5420   14.1250 C   0  0  0  0  0  0  0  0  0  0  0  0
   19.9080   74.9700   14.6040 C   0  0  0  0  0  0  0  0  0  0  0  0
   20.0250   75.9600   13.4650 C   0  0  0  0  0  0  0  0  0  0  0  0
   20.3850   78.0860   10.8510 C   0  0  0  0  0  0  0  0  0  0  0  0
   20.2030   79.4270   11.3510 N   0  0  0  0  0  4  0  0  0  0  0  0
   20.4300   80.3490   10.2470 C   0  0  0  0  0  0  0  0  0  0  0  0
   21.7640   80.0650    9.6410 C   0  0  0  0  0  0  0  0  0  0  0  0
   22.9030   80.0580   10.5930 C   0  0  0  0  0  0  0  0  0  0  0  0
   22.6000   79.5300   11.9530 C   0  0  0  0  0  0  0  0  0  0  0  0
   21.1720   79.8250   12.3560 C   0  0  0  0  0  0  0  0  0  0  0  0
   18.8910   74.7520    7.4000 H   0  0  0  0  0  0  0  0  0  0  0  0
   16.3090   77.2070    4.9680 H   0  0  0  0  0  0  0  0  0  0  0  0
   18.1250   79.3190   10.9270 H   0  0  0  0  0  0  0  0  0  0  0  0
   17.0350   78.0220   10.4850 H   0  0  0  0  0  0  0  0  0  0  0  0
   17.4640   76.4430   11.5350 H   0  0  0  0  0  0  0  0  0  0  0  0
   18.4090   77.5620   12.4890 H   0  0  0  0  0  0  0  0  0  0  0  0
   19.7970   75.2280   11.6380 H   0  0  0  0  0  0  0  0  0  0  0  0
   17.6190   74.2300   11.9050 H   0  0  0  0  0  0  0  0  0  0  0  0
   17.8900   74.4950   13.7250 H   0  0  0  0  0  0  0  0  0  0  0  0
   20.0100   73.3110   11.9590 H   0  0  0  0  0  0  0  0  0  0  0  0
   18.7160   72.3800   12.8460 H   0  0  0  0  0  0  0  0  0  0  0  0
   19.5250   72.9090   14.8930 H   0  0  0  0  0  0  0  0  0  0  0  0
   21.0930   73.1930   14.1020 H   0  0  0  0  0  0  0  0  0  0  0  0
   20.8170   75.1550   15.2520 H   0  0  0  0  0  0  0  0  0  0  0  0
   19.0530   75.1430   15.2600 H   0  0  0  0  0  0  0  0  0  0  0  0
   21.1110   75.9070   13.1500 H   0  0  0  0  0  0  0  0  0  0  0  0
   19.9200   76.9700   13.8630 H   0  0  0  0  0  0  0  0  0  0  0  0
   21.0160   77.4650   11.4910 H   0  0  0  0  0  0  0  0  0  0  0  0
   20.8900   78.1920    9.8710 H   0  0  0  0  0  0  0  0  0  0  0  0
   19.2680   79.5530   11.7780 H   0  0  0  0  0  0  0  0  0  0  0  0
   19.6530   80.2890    9.4810 H   0  0  0  0  0  0  0  0  0  0  0  0
   20.4870   81.3760   10.6950 H   0  0  0  0  0  0  0  0  0  0  0  0
   21.9500   80.8840    8.8840 H   0  0  0  0  0  0  0  0  0  0  0  0
   21.8030   79.1310    9.0460 H   0  0  0  0  0  0  0  0  0  0  0  0
   23.7350   79.4210   10.1720 H   0  0  0  0  0  0  0  0  0  0  0  0
   23.3550   81.0900   10.6300 H   0  0  0  0  0  0  0  0  0  0  0  0
   23.2360   80.1250   12.6760 H   0  0  0  0  0  0  0  0  0  0  0  0
   22.8980   78.4820   12.1250 H   0  0  0  0  0  0  0  0  0  0  0  0
   20.9530   79.5040   13.3690 H   0  0  0  0  0  0  0  0  0  0  0  0
   21.1090   80.9550   12.3860 H   0  0  0  0  0  0  0  0  0  0  0  0
  1  2  1  0  0  0  0
  2  3  1  0  0  0  0
  3  4  2  0  0  0  0
  3 13  1  0  0  0  0
  4  9  1  0  0  0  0
  5 28  1  0  0  0  0
  5  4  1  0  0  0  0
  6  5  2  0  0  0  0
  7  6  1  0  0  0  0
  7  2  2  0  0  0  0
  8  6  1  0  0  0  0
  9 11  1  0  0  0  0
 10  9  2  0  0  0  0
 11 21  1  0  0  0  0
 11 14  1  0  0  0  0
 12 31  1  0  0  0  0
 12 11  1  0  0  0  0
 12 30  1  0  0  0  0
 13 12  1  0  0  0  0
 14 15  1  0  0  0  0
 14 33  1  0  0  0  0
 15 16  1  0  0  0  0
 15 20  1  0  0  0  0
 16 17  1  0  0  0  0
 16 36  1  0  0  0  0
 17 38  1  0  0  0  0
 17 18  1  0  0  0  0
 18 19  1  0  0  0  0
 18 39  1  0  0  0  0
 19 41  1  0  0  0  0
 19 42  1  0  0  0  0
 20 44  1  0  0  0  0
 20 19  1  0  0  0  0
 21 22  1  0  0  0  0
 21 45  1  0  0  0  0
 22 47  1  0  0  0  0
 22 27  1  0  0  0  0
 23 49  1  0  0  0  0
 23 22  1  0  0  0  0
 24 23  1  0  0  0  0
 24 25  1  0  0  0  0
 25 53  1  0  0  0  0
 25 26  1  0  0  0  0
 26 55  1  0  0  0  0
 26 27  1  0  0  0  0
 26 54  1  0  0  0  0
 27 57  1  0  0  0  0
 27 56  1  0  0  0  0
 29  7  1  0  0  0  0
 32 14  1  0  0  0  0
 34 15  1  0  0  0  0
 35 16  1  0  0  0  0
 37 17  1  0  0  0  0
 40 18  1  0  0  0  0
 43 20  1  0  0  0  0
 46 21  1  0  0  0  0
 48 23  1  0  0  0  0
 50 24  1  0  0  0  0
 51 24  1  0  0  0  0
 52 25  1  0  0  0  0
M  END
>  <Pose>
1

>  <Score>
-4.96

$$$$
