
 OpenBabel03222202113D

 44 47  0  0  1  0  0  0  0  0999 V2000
   14.8880   75.4860    5.4150 B   0  0  0  0  0  0  0  0  0  0  0  0
   15.5920   77.0410    6.2820 C   0  0  0  0  0  0  0  0  0  0  0  0
   16.8930   77.0890    6.7400 C   0  0  0  0  0  0  0  0  0  0  0  0
   17.4140   78.2080    7.3660 C   0  0  0  0  0  0  0  0  0  0  0  0
   16.5630   79.2820    7.5120 C   0  0  0  0  0  0  0  0  0  0  0  0
   15.2590   79.2720    7.0690 C   0  0  0  0  0  0  0  0  0  0  0  0
   14.7540   78.1440    6.4440 C   0  0  0  0  0  0  0  0  0  0  0  0
   14.1320   80.7970    7.3020 B   0  0  0  0  0  0  0  0  0  0  0  0
   18.8020   77.9970    7.7460 C   0  0  0  0  0  0  0  0  0  0  0  0
   19.6260   78.7790    8.3370 N   0  0  0  0  0  0  0  0  0  0  0  0
   20.9430   78.4110    8.6290 N   0  0  0  0  0  0  0  0  0  0  0  0
   21.3140   78.2950    9.9870 C   0  0  0  0  0  0  0  0  0  0  0  0
   21.6600   77.1910   10.4560 O   0  0  0  0  0  0  0  0  0  0  0  0
   21.3110   79.4650   10.9210 C   0  0  0  0  0  0  0  0  0  0  0  0
   21.6580   79.0830   12.2620 N   0  0  0  0  0  0  0  0  0  0  0  0
   22.4780   79.8820   13.1040 C   0  0  0  0  0  0  0  0  0  0  0  0
   22.8600   80.9940   12.6790 O   0  0  0  0  0  0  0  0  0  0  0  0
   22.9110   79.4640   14.4710 C   0  0  2  0  0  0  0  0  0  0  0  0
   22.3200   78.2600   14.8600 O   0  0  0  0  0  0  0  0  0  0  0  0
   21.3470   78.1340   15.8500 C   0  0  0  0  0  0  0  0  0  0  0  0
   21.2270   79.1700   16.7380 C   0  0  0  0  0  0  0  0  0  0  0  0
   20.2620   79.0700   17.7410 C   0  0  0  0  0  0  0  0  0  0  0  0
   19.4360   77.9760   17.8660 C   0  0  0  0  0  0  0  0  0  0  0  0
   19.5870   76.9520   16.9520 C   0  0  0  0  0  0  0  0  0  0  0  0
   20.5360   77.0440   15.9610 C   0  0  0  0  0  0  0  0  0  0  0  0
   22.0430   80.2610   16.6230 O   0  0  0  0  0  0  0  0  0  0  0  0
   22.7830   80.5590   15.4710 C   0  0  0  0  0  0  0  0  0  0  0  0
   19.1300   76.6360    7.3060 C   0  0  0  0  0  0  0  0  0  0  0  0
   20.2580   76.0980    7.4680 O   0  0  0  0  0  0  0  0  0  0  0  0
   17.9500   76.1360    6.7090 N   0  0  0  0  0  0  0  0  0  0  0  0
   16.9230   80.1760    7.9930 H   0  0  0  0  0  0  0  0  0  0  0  0
   13.7480   78.1140    6.0920 H   0  0  0  0  0  0  0  0  0  0  0  0
   21.5840   78.2440    7.8240 H   0  0  0  0  0  0  0  0  0  0  0  0
   22.0940   80.1540   10.5360 H   0  0  0  0  0  0  0  0  0  0  0  0
   20.3450   80.0150   10.8720 H   0  0  0  0  0  0  0  0  0  0  0  0
   21.3140   78.1870   12.6790 H   0  0  0  0  0  0  0  0  0  0  0  0
   24.0110   79.2340   14.3500 H   0  0  0  0  0  0  0  0  0  0  0  0
   20.1860   79.9010   18.4310 H   0  0  0  0  0  0  0  0  0  0  0  0
   18.7020   77.9400   18.6560 H   0  0  0  0  0  0  0  0  0  0  0  0
   18.9210   76.0770   17.0570 H   0  0  0  0  0  0  0  0  0  0  0  0
   20.6340   76.2270   15.2600 H   0  0  0  0  0  0  0  0  0  0  0  0
   23.8090   80.9170   15.7950 H   0  0  0  0  0  0  0  0  0  0  0  0
   22.2990   81.4420   14.9920 H   0  0  0  0  0  0  0  0  0  0  0  0
   17.8620   75.1910    6.2990 H   0  0  0  0  0  0  0  0  0  0  0  0
  1  2  1  0  0  0  0
  2  7  2  0  0  0  0
  2  3  1  0  0  0  0
  3  4  2  0  0  0  0
  4  5  1  0  0  0  0
  4  9  1  0  0  0  0
  5 31  1  0  0  0  0
  6  8  1  0  0  0  0
  6  5  2  0  0  0  0
  7  6  1  0  0  0  0
  9 10  2  0  0  0  0
 10 11  1  0  0  0  0
 11 12  1  0  0  0  0
 12 13  2  0  0  0  0
 12 14  1  0  0  0  0
 14 15  1  0  0  0  0
 15 36  1  0  0  0  0
 15 16  1  0  0  0  0
 16 18  1  0  0  0  0
 17 16  2  0  0  0  0
 18 37  1  6  0  0  0
 18 19  1  0  0  0  0
 18 27  1  0  0  0  0
 19 20  1  0  0  0  0
 20 25  2  0  0  0  0
 20 21  1  0  0  0  0
 21 22  2  0  0  0  0
 22 23  1  0  0  0  0
 22 38  1  0  0  0  0
 23 39  1  0  0  0  0
 24 40  1  0  0  0  0
 24 23  2  0  0  0  0
 25 24  1  0  0  0  0
 26 21  1  0  0  0  0
 27 42  1  0  0  0  0
 27 26  1  0  0  0  0
 28 29  2  0  0  0  0
 28  9  1  0  0  0  0
 30  3  1  0  0  0  0
 30 28  1  0  0  0  0
 32  7  1  0  0  0  0
 33 11  1  0  0  0  0
 34 14  1  0  0  0  0
 35 14  1  0  0  0  0
 41 25  1  0  0  0  0
 43 27  1  0  0  0  0
 44 30  1  0  0  0  0
M  END
>  <Pose>
1

>  <Score>
-7.57

$$$$
