
 OpenBabel03222202113D

 46 49  0  0  0  0  0  0  0  0999 V2000
   22.5200   75.6340   11.9930 B   0  0  0  0  0  0  0  0  0  0  0  0
   22.0520   76.4680   13.6690 C   0  0  0  0  0  0  0  0  0  0  0  0
   20.9780   76.2010   14.4360 N   0  0  0  0  0  0  0  0  0  0  0  0
   21.0000   76.9870   15.5240 C   0  0  0  0  0  0  0  0  0  0  0  0
   22.1300   77.7770   15.4370 C   0  0  0  0  0  0  0  0  0  0  0  0
   22.7440   77.4340   14.2960 N   0  0  0  0  0  0  0  0  0  0  0  0
   22.3810   78.6600   16.4240 N   0  0  0  0  0  0  0  0  0  0  0  0
   21.5750   78.8050   17.4990 C   0  0  0  0  0  0  0  0  0  0  0  0
   21.8480   79.6470   18.4050 O   0  0  0  0  0  0  0  0  0  0  0  0
   20.4660   78.0510   17.6160 N   0  0  0  0  0  0  0  0  0  0  0  0
   20.2070   77.1670   16.6370 C   0  0  0  0  0  0  0  0  0  0  0  0
   19.1820   76.4610   16.7380 O   0  0  0  0  0  0  0  0  0  0  0  0
   19.6170   78.2240   18.7790 C   0  0  0  0  0  0  0  0  0  0  0  0
   23.5680   79.4850   16.3230 C   0  0  0  0  0  0  0  0  0  0  0  0
   20.0070   75.2160   14.0980 C   0  0  0  0  0  0  0  0  0  0  0  0
   18.8590   75.6500   13.2620 C   0  0  0  0  0  0  0  0  0  0  0  0
   18.8430   75.2350   11.8990 N   0  0  0  0  0  0  0  0  0  0  0  0
   19.1590   76.0140   10.8350 C   0  0  0  0  0  0  0  0  0  0  0  0
   19.0240   75.2830    9.6800 C   0  0  0  0  0  0  0  0  0  0  0  0
   18.6270   74.0630   10.0810 N   0  0  0  0  0  0  0  0  0  0  0  0
   18.5170   74.0330   11.4170 C   0  0  0  0  0  0  0  0  0  0  0  0
   17.9790   72.5410   12.5120 B   0  0  0  0  0  0  0  0  0  0  0  0
   19.2710   75.7910    8.4440 N   0  0  0  0  0  0  0  0  0  0  0  0
   19.6650   77.0760    8.3850 C   0  0  0  0  0  0  0  0  0  0  0  0
   19.8970   77.5590    7.2440 O   0  0  0  0  0  0  0  0  0  0  0  0
   19.8140   77.8390    9.4810 N   0  0  0  0  0  0  0  0  0  0  0  0
   19.5690   77.3330   10.6890 C   0  0  0  0  0  0  0  0  0  0  0  0
   19.6890   77.9940   11.7550 O   0  0  0  0  0  0  0  0  0  0  0  0
   20.2400   79.2180    9.3640 C   0  0  0  0  0  0  0  0  0  0  0  0
   19.1190   74.9850    7.2400 C   0  0  0  0  0  0  0  0  0  0  0  0
   18.6020   77.8310   18.5810 H   0  0  0  0  0  0  0  0  0  0  0  0
   20.0050   77.6810   19.6720 H   0  0  0  0  0  0  0  0  0  0  0  0
   19.5800   79.3110   19.0020 H   0  0  0  0  0  0  0  0  0  0  0  0
   23.3030   80.5050   16.7130 H   0  0  0  0  0  0  0  0  0  0  0  0
   23.8750   79.5930   15.2790 H   0  0  0  0  0  0  0  0  0  0  0  0
   24.3660   79.0690   16.9780 H   0  0  0  0  0  0  0  0  0  0  0  0
   20.4590   74.3290   13.5600 H   0  0  0  0  0  0  0  0  0  0  0  0
   19.6600   74.7610   15.0710 H   0  0  0  0  0  0  0  0  0  0  0  0
   18.8130   76.7690   13.3300 H   0  0  0  0  0  0  0  0  0  0  0  0
   17.8750   75.3380   13.7320 H   0  0  0  0  0  0  0  0  0  0  0  0
   19.9660   79.8150   10.2580 H   0  0  0  0  0  0  0  0  0  0  0  0
   21.3590   79.3040    9.2700 H   0  0  0  0  0  0  0  0  0  0  0  0
   19.7410   79.7300    8.5020 H   0  0  0  0  0  0  0  0  0  0  0  0
   19.4790   73.9450    7.3860 H   0  0  0  0  0  0  0  0  0  0  0  0
   18.0710   75.0140    6.8680 H   0  0  0  0  0  0  0  0  0  0  0  0
   19.7850   75.4300    6.4710 H   0  0  0  0  0  0  0  0  0  0  0  0
  1  2  1  0  0  0  0
  2  6  2  0  0  0  0
  2  3  1  0  0  0  0
  3  4  1  0  0  0  0
  4 11  1  0  0  0  0
  5  4  2  0  0  0  0
  5  7  1  0  0  0  0
  6  5  1  0  0  0  0
  7  8  1  0  0  0  0
  8 10  1  0  0  0  0
  8  9  2  0  0  0  0
 10 13  1  0  0  0  0
 11 12  2  0  0  0  0
 11 10  1  0  0  0  0
 13 33  1  0  0  0  0
 13 32  1  0  0  0  0
 14  7  1  0  0  0  0
 14 34  1  0  0  0  0
 14 36  1  0  0  0  0
 15  3  1  0  0  0  0
 15 38  1  0  0  0  0
 16 39  1  0  0  0  0
 16 40  1  0  0  0  0
 16 15  1  0  0  0  0
 17 16  1  0  0  0  0
 18 17  1  0  0  0  0
 19 20  1  0  0  0  0
 19 18  2  0  0  0  0
 20 21  2  0  0  0  0
 21 17  1  0  0  0  0
 21 22  1  0  0  0  0
 23 19  1  0  0  0  0
 24 23  1  0  0  0  0
 24 26  1  0  0  0  0
 25 24  2  0  0  0  0
 26 27  1  0  0  0  0
 27 18  1  0  0  0  0
 27 28  2  0  0  0  0
 29 26  1  0  0  0  0
 29 41  1  0  0  0  0
 30 44  1  0  0  0  0
 30 23  1  0  0  0  0
 31 13  1  0  0  0  0
 35 14  1  0  0  0  0
 37 15  1  0  0  0  0
 42 29  1  0  0  0  0
 43 29  1  0  0  0  0
 45 30  1  0  0  0  0
 46 30  1  0  0  0  0
M  END
>  <Pose>
1

>  <Score>
-7.13

$$$$
