
 OpenBabel03222202113D

 43 46  0  0  0  0  0  0  0  0999 V2000
   19.2300   74.0180   13.3750 B   0  0  0  0  0  0  0  0  0  0  0  0
   19.3010   75.2930   11.9620 C   0  0  0  0  0  0  0  0  0  0  0  0
   19.3610   76.6420   12.1830 N   0  0  0  0  0  0  0  0  0  0  0  0
   19.3980   77.1880   10.9510 C   0  0  0  0  0  0  0  0  0  0  0  0
   19.3600   76.2060    9.9740 C   0  0  0  0  0  0  0  0  0  0  0  0
   19.3000   75.0370   10.6460 N   0  0  0  0  0  0  0  0  0  0  0  0
   19.3880   76.4530    8.6530 N   0  0  0  0  0  0  0  0  0  0  0  0
   19.4610   77.7450    8.2840 C   0  0  0  0  0  0  0  0  0  0  0  0
   19.4890   78.0320    7.0400 O   0  0  0  0  0  0  0  0  0  0  0  0
   19.5010   78.7300    9.2000 N   0  0  0  0  0  0  0  0  0  0  0  0
   19.4720   78.4830   10.5390 C   0  0  0  0  0  0  0  0  0  0  0  0
   19.5120   79.4080   11.3760 O   0  0  0  0  0  0  0  0  0  0  0  0
   19.3470   75.4210    7.6380 C   0  0  0  0  0  0  0  0  0  0  0  0
   19.3960   77.2660   13.4890 C   0  0  0  0  0  0  0  0  0  0  0  0
   20.3600   76.6250   14.4440 C   0  0  0  0  0  0  0  0  0  0  0  0
   21.5930   77.4350   14.7270 C   0  0  0  0  0  0  0  0  0  0  0  0
   21.3110   78.4310   15.7510 N   0  0  0  0  0  0  0  0  0  0  0  0
   20.6840   78.2610   16.9380 C   0  0  0  0  0  0  0  0  0  0  0  0
   20.6190   79.4540   17.6180 C   0  0  0  0  0  0  0  0  0  0  0  0
   21.2210   80.3580   16.8220 N   0  0  0  0  0  0  0  0  0  0  0  0
   21.6340   79.7330   15.6980 C   0  0  0  0  0  0  0  0  0  0  0  0
   22.5480   80.5250   14.2200 B   0  0  0  0  0  0  0  0  0  0  0  0
   20.0500   79.5920   18.8300 N   0  0  0  0  0  0  0  0  0  0  0  0
   19.5200   78.4720   19.3810 C   0  0  0  0  0  0  0  0  0  0  0  0
   18.9830   78.5980   20.5230 O   0  0  0  0  0  0  0  0  0  0  0  0
   19.5620   77.2820   18.7470 N   0  0  0  0  0  0  0  0  0  0  0  0
   20.1360   77.1550   17.5330 C   0  0  0  0  0  0  0  0  0  0  0  0
   20.1920   76.0630   16.9170 O   0  0  0  0  0  0  0  0  0  0  0  0
   20.0040   80.8820   19.5160 C   0  0  0  0  0  0  0  0  0  0  0  0
   19.5570   79.7350    8.9310 H   0  0  0  0  0  0  0  0  0  0  0  0
   19.0070   74.4510    8.0580 H   0  0  0  0  0  0  0  0  0  0  0  0
   18.5510   75.7050    6.8920 H   0  0  0  0  0  0  0  0  0  0  0  0
   20.3280   75.2580    7.1510 H   0  0  0  0  0  0  0  0  0  0  0  0
   18.3670   77.3340   13.9060 H   0  0  0  0  0  0  0  0  0  0  0  0
   19.7790   78.3150   13.3270 H   0  0  0  0  0  0  0  0  0  0  0  0
   20.6170   75.5860   14.1390 H   0  0  0  0  0  0  0  0  0  0  0  0
   19.8310   76.5080   15.4370 H   0  0  0  0  0  0  0  0  0  0  0  0
   22.3670   76.7550   15.1920 H   0  0  0  0  0  0  0  0  0  0  0  0
   21.9930   77.9090   13.8320 H   0  0  0  0  0  0  0  0  0  0  0  0
   19.1410   76.4570   19.2180 H   0  0  0  0  0  0  0  0  0  0  0  0
   21.0250   81.2270   19.7860 H   0  0  0  0  0  0  0  0  0  0  0  0
   19.5440   81.6630   18.8800 H   0  0  0  0  0  0  0  0  0  0  0  0
   19.4490   80.7260   20.4530 H   0  0  0  0  0  0  0  0  0  0  0  0
  2  3  1  0  0  0  0
  2  1  1  0  0  0  0
  3 14  1  0  0  0  0
  4  3  1  0  0  0  0
  5  6  1  0  0  0  0
  5  4  2  0  0  0  0
  6  2  2  0  0  0  0
  7  5  1  0  0  0  0
  8  7  1  0  0  0  0
  8 10  1  0  0  0  0
  9  8  2  0  0  0  0
 10 11  1  0  0  0  0
 11  4  1  0  0  0  0
 11 12  2  0  0  0  0
 13 31  1  0  0  0  0
 13  7  1  0  0  0  0
 14 34  1  0  0  0  0
 14 15  1  0  0  0  0
 15 16  1  0  0  0  0
 15 37  1  0  0  0  0
 16 38  1  0  0  0  0
 16 17  1  0  0  0  0
 17 18  1  0  0  0  0
 18 27  1  0  0  0  0
 18 19  2  0  0  0  0
 19 23  1  0  0  0  0
 20 19  1  0  0  0  0
 21 17  1  0  0  0  0
 21 20  2  0  0  0  0
 22 21  1  0  0  0  0
 23 24  1  0  0  0  0
 23 29  1  0  0  0  0
 24 25  2  0  0  0  0
 26 40  1  0  0  0  0
 26 24  1  0  0  0  0
 27 26  1  0  0  0  0
 28 27  2  0  0  0  0
 29 41  1  0  0  0  0
 29 43  1  0  0  0  0
 30 10  1  0  0  0  0
 32 13  1  0  0  0  0
 33 13  1  0  0  0  0
 35 14  1  0  0  0  0
 36 15  1  0  0  0  0
 39 16  1  0  0  0  0
 42 29  1  0  0  0  0
M  END
>  <Pose>
1

>  <Score>
-8.95

$$$$
