
 OpenBabel03162216093D

 43 46  0  0  0  0  0  0  0  0999 V2000
   19.3970   74.8030   13.7930 B   0  0  0  0  0  0  0  0  0  0  0  0
   19.5390   75.9330   12.2670 C   0  0  0  0  0  0  0  0  0  0  0  0
   19.9390   77.2390   12.3460 N   0  0  0  0  0  0  0  0  0  0  0  0
   19.9090   77.6830   11.0740 C   0  0  0  0  0  0  0  0  0  0  0  0
   19.4990   76.6800   10.2100 C   0  0  0  0  0  0  0  0  0  0  0  0
   19.2770   75.6030   10.9940 N   0  0  0  0  0  0  0  0  0  0  0  0
   19.3800   76.8300    8.8790 N   0  0  0  0  0  0  0  0  0  0  0  0
   19.6880   78.0410    8.3820 C   0  0  0  0  0  0  0  0  0  0  0  0
   19.5910   78.2350    7.1230 O   0  0  0  0  0  0  0  0  0  0  0  0
   20.0920   79.0430    9.1840 N   0  0  0  0  0  0  0  0  0  0  0  0
   20.2140   78.8940   10.5330 C   0  0  0  0  0  0  0  0  0  0  0  0
   20.5920   79.8330   11.2640 O   0  0  0  0  0  0  0  0  0  0  0  0
   18.9490   75.7780    7.9840 C   0  0  0  0  0  0  0  0  0  0  0  0
   20.3150   77.9160   13.5700 C   0  0  0  0  0  0  0  0  0  0  0  0
   21.7640   77.7620   13.9290 C   0  0  0  0  0  0  0  0  0  0  0  0
   22.0160   77.3540   15.3530 C   0  0  0  0  0  0  0  0  0  0  0  0
   21.5940   78.4140   16.2580 N   0  0  0  0  0  0  0  0  0  0  0  0
   20.8510   78.3110   17.3830 C   0  0  0  0  0  0  0  0  0  0  0  0
   20.6750   79.5510   17.9530 C   0  0  0  0  0  0  0  0  0  0  0  0
   21.3260   80.4140   17.1510 N   0  0  0  0  0  0  0  0  0  0  0  0
   21.8770   79.7210   16.1310 C   0  0  0  0  0  0  0  0  0  0  0  0
   22.9150   80.4320   14.6950 B   0  0  0  0  0  0  0  0  0  0  0  0
   19.9760   79.7600   19.0850 N   0  0  0  0  0  0  0  0  0  0  0  0
   19.4290   78.6650   19.6680 C   0  0  0  0  0  0  0  0  0  0  0  0
   18.7710   78.8570   20.7350 O   0  0  0  0  0  0  0  0  0  0  0  0
   19.5780   77.4310   19.1420 N   0  0  0  0  0  0  0  0  0  0  0  0
   20.2810   77.2340   18.0080 C   0  0  0  0  0  0  0  0  0  0  0  0
   20.4380   76.1000   17.4930 O   0  0  0  0  0  0  0  0  0  0  0  0
   19.8150   81.0950   19.6530 C   0  0  0  0  0  0  0  0  0  0  0  0
   20.3350   79.9870    8.8150 H   0  0  0  0  0  0  0  0  0  0  0  0
   18.4650   74.9460    8.5370 H   0  0  0  0  0  0  0  0  0  0  0  0
   18.1340   76.1980    7.3280 H   0  0  0  0  0  0  0  0  0  0  0  0
   19.7810   75.3540    7.3880 H   0  0  0  0  0  0  0  0  0  0  0  0
   19.6360   77.6120   14.3970 H   0  0  0  0  0  0  0  0  0  0  0  0
   20.1630   79.0180   13.3790 H   0  0  0  0  0  0  0  0  0  0  0  0
   22.3570   78.6620   13.6520 H   0  0  0  0  0  0  0  0  0  0  0  0
   22.1880   76.9320   13.2880 H   0  0  0  0  0  0  0  0  0  0  0  0
   21.3400   76.4810   15.5980 H   0  0  0  0  0  0  0  0  0  0  0  0
   23.0570   77.0900   15.5310 H   0  0  0  0  0  0  0  0  0  0  0  0
   19.1370   76.6290   19.6340 H   0  0  0  0  0  0  0  0  0  0  0  0
   20.7890   81.5030   19.9980 H   0  0  0  0  0  0  0  0  0  0  0  0
   19.3990   81.8040   18.9120 H   0  0  0  0  0  0  0  0  0  0  0  0
   19.1690   80.9910   20.5390 H   0  0  0  0  0  0  0  0  0  0  0  0
  2  3  1  0  0  0  0
  2  1  1  0  0  0  0
  3 14  1  0  0  0  0
  4  3  1  0  0  0  0
  5  6  1  0  0  0  0
  5  4  2  0  0  0  0
  6  2  2  0  0  0  0
  7  5  1  0  0  0  0
  8  7  1  0  0  0  0
  8 10  1  0  0  0  0
  9  8  2  0  0  0  0
 10 11  1  0  0  0  0
 11  4  1  0  0  0  0
 11 12  2  0  0  0  0
 13 31  1  0  0  0  0
 13  7  1  0  0  0  0
 14 15  1  0  0  0  0
 14 34  1  0  0  0  0
 15 16  1  0  0  0  0
 16 39  1  0  0  0  0
 16 38  1  0  0  0  0
 16 17  1  0  0  0  0
 17 18  1  0  0  0  0
 18 19  2  0  0  0  0
 18 27  1  0  0  0  0
 19 23  1  0  0  0  0
 20 19  1  0  0  0  0
 21 17  1  0  0  0  0
 21 20  2  0  0  0  0
 22 21  1  0  0  0  0
 23 29  1  0  0  0  0
 23 24  1  0  0  0  0
 24 25  2  0  0  0  0
 26 40  1  0  0  0  0
 26 24  1  0  0  0  0
 27 26  1  0  0  0  0
 28 27  2  0  0  0  0
 29 41  1  0  0  0  0
 29 43  1  0  0  0  0
 30 10  1  0  0  0  0
 32 13  1  0  0  0  0
 33 13  1  0  0  0  0
 35 14  1  0  0  0  0
 36 15  1  0  0  0  0
 37 15  1  0  0  0  0
 42 29  1  0  0  0  0
M  END
>  <Pose>
1

>  <Score>
-8.72

$$$$
