
 OpenBabel03222202113D

 40 43  0  0  0  0  0  0  0  0999 V2000
   22.5080   78.9860   13.5650 B   0  0  0  0  0  0  0  0  0  0  0  0
   21.6140   78.6320   15.2150 C   0  0  0  0  0  0  0  0  0  0  0  0
   20.6830   77.6590   15.3550 N   0  0  0  0  0  0  0  0  0  0  0  0
   20.2790   77.7080   16.6460 C   0  0  0  0  0  0  0  0  0  0  0  0
   20.9600   78.7180   17.3200 C   0  0  0  0  0  0  0  0  0  0  0  0
   21.7760   79.2620   16.3890 N   0  0  0  0  0  0  0  0  0  0  0  0
   20.7340   78.9580   18.6240 N   0  0  0  0  0  0  0  0  0  0  0  0
   19.8400   78.2230   19.3090 C   0  0  0  0  0  0  0  0  0  0  0  0
   19.6190   78.4440   20.5420 O   0  0  0  0  0  0  0  0  0  0  0  0
   19.1550   77.2330   18.7100 N   0  0  0  0  0  0  0  0  0  0  0  0
   19.3790   76.9870   17.3930 C   0  0  0  0  0  0  0  0  0  0  0  0
   18.7560   76.0620   16.7940 O   0  0  0  0  0  0  0  0  0  0  0  0
   21.4360   80.0050   19.3300 C   0  0  0  0  0  0  0  0  0  0  0  0
   20.2590   76.7740   14.3240 C   0  0  0  0  0  0  0  0  0  0  0  0
   19.4200   77.3500   13.2400 C   0  0  0  0  0  0  0  0  0  0  0  0
   19.3920   76.6890   11.9830 N   0  0  0  0  0  0  0  0  0  0  0  0
   19.4190   77.2450   10.7610 C   0  0  0  0  0  0  0  0  0  0  0  0
   19.3670   76.2450    9.8110 C   0  0  0  0  0  0  0  0  0  0  0  0
   19.3120   75.1000   10.5200 N   0  0  0  0  0  0  0  0  0  0  0  0
   19.3260   75.3340   11.8270 C   0  0  0  0  0  0  0  0  0  0  0  0
   19.2660   74.0390   13.2530 B   0  0  0  0  0  0  0  0  0  0  0  0
   19.3870   76.5500    8.5140 N   0  0  0  0  0  0  0  0  0  0  0  0
   19.4560   77.8230    8.1170 C   0  0  0  0  0  0  0  0  0  0  0  0
   19.4750   78.1460    6.8830 O   0  0  0  0  0  0  0  0  0  0  0  0
   19.5110   78.8530    8.9800 N   0  0  0  0  0  0  0  0  0  0  0  0
   19.4920   78.5440   10.2830 C   0  0  0  0  0  0  0  0  0  0  0  0
   19.5450   79.4960   11.0930 O   0  0  0  0  0  0  0  0  0  0  0  0
   19.3310   75.5140    7.5090 C   0  0  0  0  0  0  0  0  0  0  0  0
   18.4580   76.6510   19.2220 H   0  0  0  0  0  0  0  0  0  0  0  0
   22.0500   79.5350   20.1410 H   0  0  0  0  0  0  0  0  0  0  0  0
   20.6830   80.7030   19.7250 H   0  0  0  0  0  0  0  0  0  0  0  0
   22.0860   80.5640   18.6120 H   0  0  0  0  0  0  0  0  0  0  0  0
   19.8180   75.8390   14.7460 H   0  0  0  0  0  0  0  0  0  0  0  0
   21.1930   76.3850   13.8030 H   0  0  0  0  0  0  0  0  0  0  0  0
   19.6720   78.4420   13.1530 H   0  0  0  0  0  0  0  0  0  0  0  0
   18.3550   77.3420   13.6360 H   0  0  0  0  0  0  0  0  0  0  0  0
   19.5660   79.8450    8.6340 H   0  0  0  0  0  0  0  0  0  0  0  0
   19.7630   74.6010    7.9620 H   0  0  0  0  0  0  0  0  0  0  0  0
   18.3270   75.3120    7.1310 H   0  0  0  0  0  0  0  0  0  0  0  0
   19.9870   75.7560    6.6350 H   0  0  0  0  0  0  0  0  0  0  0  0
  1  2  1  0  0  0  0
  2  3  1  0  0  0  0
  2  6  2  0  0  0  0
  3  4  1  0  0  0  0
  4  5  2  0  0  0  0
  4 11  1  0  0  0  0
  5  7  1  0  0  0  0
  6  5  1  0  0  0  0
  7  8  1  0  0  0  0
  7 13  1  0  0  0  0
  8  9  2  0  0  0  0
 10 29  1  0  0  0  0
 10  8  1  0  0  0  0
 11 10  1  0  0  0  0
 12 11  2  0  0  0  0
 13 31  1  0  0  0  0
 13 30  1  0  0  0  0
 14 33  1  0  0  0  0
 14  3  1  0  0  0  0
 15 36  1  0  0  0  0
 15 14  1  0  0  0  0
 16 15  1  0  0  0  0
 17 16  1  0  0  0  0
 18 19  1  0  0  0  0
 18 17  2  0  0  0  0
 19 20  2  0  0  0  0
 20 16  1  0  0  0  0
 20 21  1  0  0  0  0
 22 18  1  0  0  0  0
 23 22  1  0  0  0  0
 23 25  1  0  0  0  0
 24 23  2  0  0  0  0
 25 26  1  0  0  0  0
 26 17  1  0  0  0  0
 26 27  2  0  0  0  0
 28 38  1  0  0  0  0
 28 22  1  0  0  0  0
 32 13  1  0  0  0  0
 34 14  1  0  0  0  0
 35 15  1  0  0  0  0
 37 25  1  0  0  0  0
 39 28  1  0  0  0  0
 40 28  1  0  0  0  0
M  END
>  <Pose>
1

>  <Score>
-7.57

$$$$
