
 OpenBabel03222202113D

 50 54  0  0  1  0  0  0  0  0999 V2000
   19.4630   82.6970   20.8120 B   0  0  0  0  0  0  0  0  0  0  0  0
   19.7850   81.1440   19.7340 C   0  0  0  0  0  0  0  0  0  0  0  0
   20.6900   80.9980   18.7490 N   0  0  0  0  0  0  0  0  0  0  0  0
   20.6230   79.7810   18.2270 N   0  0  0  0  0  0  0  0  0  0  0  0
   19.6480   79.1510   18.9070 C   0  0  0  0  0  0  0  0  0  0  0  0
   19.1240   79.9680   19.8330 N   0  0  0  0  0  0  0  0  0  0  0  0
   21.4350   79.2330   17.1410 C   0  0  2  0  0  0  0  0  0  0  0  0
   20.6080   78.2460   16.3490 C   0  0  0  0  0  0  0  0  0  0  0  0
   21.3580   77.8460   15.1120 C   0  0  2  0  0  0  0  0  0  0  0  0
   22.5920   77.0710   15.5930 C   0  0  0  0  0  0  0  0  0  0  0  0
   23.4090   77.9700   16.4850 C   0  0  2  0  0  0  0  0  0  0  0  0
   22.6350   78.4800   17.6730 C   0  0  0  0  0  0  0  0  0  0  0  0
   23.9180   79.1160   15.6700 C   0  0  0  0  0  0  0  0  0  0  0  0
   22.7340   79.8940   15.1410 C   0  0  2  0  0  0  0  0  0  0  0  0
   21.9330   80.3710   16.3050 C   0  0  0  0  0  0  0  0  0  0  0  0
   21.8590   78.9920   14.2980 C   0  0  0  0  0  0  0  0  0  0  0  0
   20.5470   76.9600   14.2490 C   0  0  0  0  0  0  0  0  0  0  0  0
   20.4500   77.2500   13.0300 O   0  0  0  0  0  0  0  0  0  0  0  0
   19.8960   75.8110   14.7840 N   0  0  0  0  0  0  0  0  0  0  0  0
   20.1470   74.4730   14.3830 C   0  0  0  0  0  0  0  0  0  0  0  0
   19.3800   73.7750   13.4940 C   0  0  0  0  0  0  0  0  0  0  0  0
   19.9320   72.5450   13.3680 N   0  0  0  0  0  0  0  0  0  0  0  0
   20.9940   72.4760   14.1430 N   0  0  0  0  0  0  0  0  0  0  0  0
   21.1670   73.6350   14.7870 C   0  0  0  0  0  0  0  0  0  0  0  0
   19.4740   71.4470   12.5360 C   0  0  0  0  0  0  0  0  0  0  0  0
   18.1900   74.1540   12.7590 C   0  0  0  0  0  0  0  0  0  0  0  0
   18.2390   74.4230   11.5320 O   0  0  0  0  0  0  0  0  0  0  0  0
   16.9020   74.2500   13.3520 N   0  0  0  0  0  0  0  0  0  0  0  0
   19.3310   78.1340   18.7350 H   0  0  0  0  0  0  0  0  0  0  0  0
   20.5430   77.3210   16.9930 H   0  0  0  0  0  0  0  0  0  0  0  0
   19.5820   78.5680   16.1740 H   0  0  0  0  0  0  0  0  0  0  0  0
   23.2190   76.7620   14.7510 H   0  0  0  0  0  0  0  0  0  0  0  0
   22.3170   76.1820   16.1730 H   0  0  0  0  0  0  0  0  0  0  0  0
   24.2720   77.3960   16.8680 H   0  0  0  0  0  0  0  0  0  0  0  0
   22.3590   77.6690   18.3680 H   0  0  0  0  0  0  0  0  0  0  0  0
   23.2890   79.1770   18.2190 H   0  0  0  0  0  0  0  0  0  0  0  0
   24.5690   78.7440   14.8420 H   0  0  0  0  0  0  0  0  0  0  0  0
   24.5480   79.7850   16.2820 H   0  0  0  0  0  0  0  0  0  0  0  0
   23.0330   80.7550   14.5260 H   0  0  0  0  0  0  0  0  0  0  0  0
   22.5590   81.0150   16.9390 H   0  0  0  0  0  0  0  0  0  0  0  0
   21.0810   80.9640   15.9140 H   0  0  0  0  0  0  0  0  0  0  0  0
   20.9900   79.5760   13.9290 H   0  0  0  0  0  0  0  0  0  0  0  0
   22.4950   78.5900   13.4920 H   0  0  0  0  0  0  0  0  0  0  0  0
   19.1870   75.9860   15.5210 H   0  0  0  0  0  0  0  0  0  0  0  0
   21.9590   73.8900   15.4990 H   0  0  0  0  0  0  0  0  0  0  0  0
   20.2870   70.6990   12.4550 H   0  0  0  0  0  0  0  0  0  0  0  0
   19.3780   71.8630   11.4950 H   0  0  0  0  0  0  0  0  0  0  0  0
   18.5320   70.9950   12.9050 H   0  0  0  0  0  0  0  0  0  0  0  0
   16.7030   73.6450   14.2010 H   0  0  0  0  0  0  0  0  0  0  0  0
   16.1360   74.8660   13.0180 H   0  0  0  0  0  0  0  0  0  0  0  0
  2  6  1  0  0  0  0
  2  1  1  0  0  0  0
  3  2  2  0  0  0  0
  4  3  1  0  0  0  0
  4  5  1  0  0  0  0
  5  6  2  0  0  0  0
  7 12  1  0  0  0  0
  7  4  1  1  0  0  0
  8 30  1  0  0  0  0
  8  7  1  0  0  0  0
  9 17  1  6  0  0  0
  9 10  1  0  0  0  0
  9  8  1  0  0  0  0
 10 33  1  0  0  0  0
 10 11  1  0  0  0  0
 11 34  1  1  0  0  0
 11 12  1  0  0  0  0
 12 36  1  0  0  0  0
 12 35  1  0  0  0  0
 13 38  1  0  0  0  0
 13 11  1  0  0  0  0
 14 39  1  6  0  0  0
 14 13  1  0  0  0  0
 14 15  1  0  0  0  0
 15 40  1  0  0  0  0
 15  7  1  0  0  0  0
 16  9  1  0  0  0  0
 16 14  1  0  0  0  0
 17 19  1  0  0  0  0
 18 17  2  0  0  0  0
 19 44  1  0  0  0  0
 20 19  1  0  0  0  0
 20 24  1  0  0  0  0
 21 20  2  0  0  0  0
 22 21  1  0  0  0  0
 22 23  1  0  0  0  0
 23 24  2  0  0  0  0
 24 45  1  0  0  0  0
 25 48  1  0  0  0  0
 25 22  1  0  0  0  0
 26 28  1  0  0  0  0
 26 21  1  0  0  0  0
 27 26  2  0  0  0  0
 28 49  1  0  0  0  0
 29  5  1  0  0  0  0
 31  8  1  0  0  0  0
 32 10  1  0  0  0  0
 37 13  1  0  0  0  0
 41 15  1  0  0  0  0
 42 16  1  0  0  0  0
 43 16  1  0  0  0  0
 46 25  1  0  0  0  0
 47 25  1  0  0  0  0
 50 28  1  0  0  0  0
M  END
>  <Pose>
1

>  <Score>
-6.90

$$$$
