
 OpenBabel03222202113D

 53 56  0  0  1  0  0  0  0  0999 V2000
   24.2270   79.1420   16.4150 B   0  0  0  0  0  0  0  0  0  0  0  0
   22.6540   78.3320   17.0970 C   0  0  0  0  0  0  0  0  0  0  0  0
   22.2390   78.2550   18.3740 N   0  0  0  0  0  0  0  0  0  0  0  0
   21.1110   77.6050   18.4790 N   0  0  0  0  0  0  0  0  0  0  0  0
   20.7460   77.2280   17.2390 C   0  0  0  0  0  0  0  0  0  0  0  0
   19.6980   76.5370   16.7600 N   0  0  0  0  0  0  0  0  0  0  0  0
   19.5500   76.2680   15.4590 C   0  0  0  0  0  0  0  0  0  0  0  0
   20.4670   76.6980   14.6010 N   0  0  0  0  0  0  0  0  0  0  0  0
   21.5580   77.4020   14.9870 C   0  0  0  0  0  0  0  0  0  0  0  0
   21.7090   77.6780   16.3410 C   0  0  0  0  0  0  0  0  0  0  0  0
   22.4880   77.8710   14.0520 N   0  0  0  0  0  0  0  0  0  0  0  0
   22.6980   79.2740   13.8350 C   0  0  0  0  0  0  0  0  0  0  0  0
   22.0760   79.5610   12.4660 C   0  0  0  0  0  0  0  0  0  0  0  0
   21.9420   78.3260   11.6840 N   0  0  0  0  0  0  0  0  0  0  0  0
   23.1610   77.5260   11.8200 C   0  0  0  0  0  0  0  0  0  0  0  0
   23.2670   76.9760   13.2310 C   0  0  0  0  0  0  0  0  0  0  0  0
   21.8180   78.7330   10.2930 C   0  0  2  0  0  0  0  0  0  0  0  0
   22.4350   80.1550   10.1860 C   0  0  0  0  0  0  0  0  0  0  0  0
   20.4040   78.8070    9.8830 C   0  0  0  0  0  0  0  0  0  0  0  0
   19.8880   79.9940   10.0190 O   0  0  0  0  0  0  0  0  0  0  0  0
   19.5780   77.7870    9.3860 N   0  0  0  0  0  0  0  0  0  0  0  0
   19.7160   76.3700    9.5430 C   0  0  0  0  0  0  0  0  0  0  0  0
   19.5050   75.5780    8.2690 C   0  0  0  0  0  0  0  0  0  0  0  0
   18.4740   76.1410    7.3540 C   0  0  0  0  0  0  0  0  0  0  0  0
   18.5840   77.6450    7.2170 C   0  0  0  0  0  0  0  0  0  0  0  0
   18.3940   78.2080    8.6020 C   0  0  0  0  0  0  0  0  0  0  0  0
   20.3230   77.2960   19.6640 C   0  0  0  0  0  0  0  0  0  0  0  0
   18.6680   75.6920   15.0980 H   0  0  0  0  0  0  0  0  0  0  0  0
   23.8060   79.4120   13.6240 H   0  0  0  0  0  0  0  0  0  0  0  0
   22.3220   79.9440   14.6020 H   0  0  0  0  0  0  0  0  0  0  0  0
   21.0470   79.9150   12.6570 H   0  0  0  0  0  0  0  0  0  0  0  0
   22.6060   80.3590   11.9160 H   0  0  0  0  0  0  0  0  0  0  0  0
   23.0620   76.6720   11.1350 H   0  0  0  0  0  0  0  0  0  0  0  0
   24.0600   78.1130   11.6140 H   0  0  0  0  0  0  0  0  0  0  0  0
   22.9780   75.9310   13.2780 H   0  0  0  0  0  0  0  0  0  0  0  0
   24.3370   77.0780   13.5860 H   0  0  0  0  0  0  0  0  0  0  0  0
   22.3640   78.0580    9.6320 H   0  0  0  0  0  0  0  0  0  0  0  0
   22.3330   80.6770   11.1560 H   0  0  0  0  0  0  0  0  0  0  0  0
   21.8830   80.7470    9.4390 H   0  0  0  0  0  0  0  0  0  0  0  0
   23.4880   80.0860    9.8810 H   0  0  0  0  0  0  0  0  0  0  0  0
   18.8810   76.0750   10.2590 H   0  0  0  0  0  0  0  0  0  0  0  0
   20.6400   76.0250    9.9910 H   0  0  0  0  0  0  0  0  0  0  0  0
   19.1380   74.5660    8.5930 H   0  0  0  0  0  0  0  0  0  0  0  0
   20.4630   75.3920    7.7670 H   0  0  0  0  0  0  0  0  0  0  0  0
   17.4630   75.8700    7.7060 H   0  0  0  0  0  0  0  0  0  0  0  0
   18.6090   75.7030    6.3550 H   0  0  0  0  0  0  0  0  0  0  0  0
   19.5910   77.8950    6.8030 H   0  0  0  0  0  0  0  0  0  0  0  0
   17.7940   77.9790    6.5260 H   0  0  0  0  0  0  0  0  0  0  0  0
   18.2690   79.2940    8.6050 H   0  0  0  0  0  0  0  0  0  0  0  0
   17.4990   77.7350    9.0450 H   0  0  0  0  0  0  0  0  0  0  0  0
   20.3100   76.1940   19.8640 H   0  0  0  0  0  0  0  0  0  0  0  0
   19.2820   77.5910   19.4490 H   0  0  0  0  0  0  0  0  0  0  0  0
   20.7530   77.7640   20.5620 H   0  0  0  0  0  0  0  0  0  0  0  0
  1  2  1  0  0  0  0
  2  3  2  0  0  0  0
  3  4  1  0  0  0  0
  4 27  1  0  0  0  0
  5  4  1  0  0  0  0
  6  5  1  0  0  0  0
  7  6  2  0  0  0  0
  8  9  2  0  0  0  0
  8  7  1  0  0  0  0
  9 10  1  0  0  0  0
 10  2  1  0  0  0  0
 10  5  2  0  0  0  0
 11  9  1  0  0  0  0
 12 11  1  0  0  0  0
 12 30  1  0  0  0  0
 13 31  1  0  0  0  0
 13 12  1  0  0  0  0
 14 15  1  0  0  0  0
 14 13  1  0  0  0  0
 15 16  1  0  0  0  0
 16 35  1  0  0  0  0
 16 36  1  0  0  0  0
 16 11  1  0  0  0  0
 17 37  1  6  0  0  0
 17 14  1  0  0  0  0
 18 17  1  0  0  0  0
 18 38  1  0  0  0  0
 19 20  2  0  0  0  0
 19 17  1  0  0  0  0
 21 22  1  0  0  0  0
 21 19  1  0  0  0  0
 22 42  1  0  0  0  0
 22 41  1  0  0  0  0
 23 43  1  0  0  0  0
 23 22  1  0  0  0  0
 24 45  1  0  0  0  0
 24 23  1  0  0  0  0
 25 24  1  0  0  0  0
 25 26  1  0  0  0  0
 26 49  1  0  0  0  0
 26 50  1  0  0  0  0
 26 21  1  0  0  0  0
 27 51  1  0  0  0  0
 27 53  1  0  0  0  0
 28  7  1  0  0  0  0
 29 12  1  0  0  0  0
 32 13  1  0  0  0  0
 33 15  1  0  0  0  0
 34 15  1  0  0  0  0
 39 18  1  0  0  0  0
 40 18  1  0  0  0  0
 44 23  1  0  0  0  0
 46 24  1  0  0  0  0
 47 25  1  0  0  0  0
 48 25  1  0  0  0  0
 52 27  1  0  0  0  0
M  END
>  <Pose>
1

>  <Score>
-5.65

$$$$
