
 OpenBabel03222202113D

 32 35  0  0  1  0  0  0  0  0999 V2000
   18.4230   71.1910   12.5040 B   0  0  0  0  0  0  0  0  0  0  0  0
   18.6390   73.0960   12.5280 C   0  0  0  0  0  0  0  0  0  0  0  0
   18.9750   73.8780   13.5600 N   0  0  0  0  0  0  0  0  0  0  0  0
   19.0190   75.1480   13.1610 C   0  0  0  0  0  0  0  0  0  0  0  0
   18.7020   75.1610   11.8390 N   0  0  0  0  0  0  0  0  0  0  0  0
   18.4640   73.9040   11.4240 C   0  0  0  0  0  0  0  0  0  0  0  0
   19.3690   76.2370   14.1200 C   0  0  0  0  0  0  0  0  0  0  0  0
   20.2610   75.7400   15.1380 N   0  0  2  0  0  0  0  0  0  0  0  0
   20.3380   74.3540   15.5370 C   0  0  0  0  0  0  0  0  0  0  0  0
   19.2620   73.5030   14.9300 C   0  0  0  0  0  0  0  0  0  0  0  0
   21.1060   76.6640   15.7830 C   0  0  2  0  0  0  0  0  0  0  0  0
   22.1420   77.1490   15.1380 C   0  0  0  0  0  0  0  0  0  0  0  0
   23.0580   78.1170   15.7610 C   0  0  0  0  0  0  0  0  0  0  0  0
   24.1040   78.6130   15.1230 C   0  0  0  0  0  0  0  0  0  0  0  0
   22.7410   78.4810   17.0960 N   0  0  0  0  0  0  0  0  0  0  0  0
   21.6050   77.9400   17.7840 C   0  0  0  0  0  0  0  0  0  0  0  0
   20.8240   77.0520   17.1130 N   0  0  0  0  0  0  0  0  0  0  0  0
   19.8530   76.7090   17.9670 N   0  0  0  0  0  0  0  0  0  0  0  0
   19.9940   77.3440   19.1400 C   0  0  0  0  0  0  0  0  0  0  0  0
   21.0910   78.1100   19.0150 N   0  0  0  0  0  0  0  0  0  0  0  0
   18.1840   73.5810   10.4130 H   0  0  0  0  0  0  0  0  0  0  0  0
   19.7940   77.0940   13.5600 H   0  0  0  0  0  0  0  0  0  0  0  0
   18.4400   76.5860   14.6440 H   0  0  0  0  0  0  0  0  0  0  0  0
   20.1990   74.3280   16.6520 H   0  0  0  0  0  0  0  0  0  0  0  0
   21.3460   73.9880   15.3300 H   0  0  0  0  0  0  0  0  0  0  0  0
   19.6040   72.4480   14.9880 H   0  0  0  0  0  0  0  0  0  0  0  0
   18.3060   73.5460   15.4910 H   0  0  0  0  0  0  0  0  0  0  0  0
   22.3820   76.8650   14.1090 H   0  0  0  0  0  0  0  0  0  0  0  0
   24.3530   78.3390   14.1050 H   0  0  0  0  0  0  0  0  0  0  0  0
   24.7760   79.3230   15.5830 H   0  0  0  0  0  0  0  0  0  0  0  0
   23.3520   79.1630   17.5930 H   0  0  0  0  0  0  0  0  0  0  0  0
   19.3410   77.2530   20.0220 H   0  0  0  0  0  0  0  0  0  0  0  0
  1  2  1  0  0  0  0
  2  3  1  0  0  0  0
  3 10  1  0  0  0  0
  4  3  1  0  0  0  0
  4  7  1  0  0  0  0
  5  4  2  0  0  0  0
  6  5  1  0  0  0  0
  6  2  2  0  0  0  0
  7 23  1  0  0  0  0
  8  7  1  1  0  0  0
  8  9  1  0  0  0  0
  8 11  1  0  0  0  0
  9 24  1  0  0  0  0
 10 26  1  0  0  0  0
 10 27  1  0  0  0  0
 10  9  1  0  0  0  0
 11 12  1  1  0  0  0
 11 17  1  0  0  0  0
 12 13  2  0  0  0  0
 13 15  1  0  0  0  0
 14 30  1  0  0  0  0
 14 13  1  0  0  0  0
 15 31  1  0  0  0  0
 15 16  1  0  0  0  0
 16 20  2  0  0  0  0
 17 16  1  0  0  0  0
 17 18  1  0  0  0  0
 18 19  2  0  0  0  0
 19 32  1  0  0  0  0
 20 19  1  0  0  0  0
 21  6  1  0  0  0  0
 22  7  1  0  0  0  0
 25  9  1  0  0  0  0
 28 12  1  0  0  0  0
 29 14  1  0  0  0  0
M  END
>  <Pose>
1

>  <Score>
-5.16

$$$$
