
 OpenBabel03222202113D

 49 52  0  0  0  0  0  0  0  0999 V2000
   16.3690   85.0490   22.5890 B   0  0  0  0  0  0  0  0  0  0  0  0
   17.8950   84.3520   21.6470 C   0  0  0  0  0  0  0  0  0  0  0  0
   18.4940   83.2090   21.7960 O   0  0  0  0  0  0  0  0  0  0  0  0
   19.4940   83.0650   20.9910 C   0  0  0  0  0  0  0  0  0  0  0  0
   19.5890   84.2250   20.2120 C   0  0  0  0  0  0  0  0  0  0  0  0
   18.5590   85.0300   20.6500 C   0  0  0  0  0  0  0  0  0  0  0  0
   20.3680   81.9240   20.8940 C   0  0  0  0  0  0  0  0  0  0  0  0
   21.4000   81.8830   21.6260 O   0  0  0  0  0  0  0  0  0  0  0  0
   20.1370   80.8310   20.0150 N   0  0  0  0  0  0  0  0  0  0  0  0
   18.8230   80.3990   19.6540 C   0  0  0  0  0  0  0  0  0  0  0  0
   18.8060   79.4180   18.5230 C   0  0  0  0  0  0  0  0  0  0  0  0
   19.5500   78.1830   18.8180 C   0  0  0  0  0  0  0  0  0  0  0  0
   19.3020   77.6190   19.9350 O   0  0  0  0  0  0  0  0  0  0  0  0
   20.5030   77.6200   17.9270 N   0  0  0  0  0  0  0  0  0  0  0  0
   20.0810   77.1590   16.6330 C   0  0  0  0  0  0  0  0  0  0  0  0
   21.1120   77.3240   15.5590 C   0  0  0  0  0  0  0  0  0  0  0  0
   22.5180   77.3760   16.0800 C   0  0  0  0  0  0  0  0  0  0  0  0
   23.4390   76.8700   15.1080 N   0  0  0  0  0  0  0  0  0  0  0  0
   24.7950   76.8430   15.5390 C   0  0  0  0  0  0  0  0  0  0  0  0
   25.2630   78.0650   16.2580 C   0  0  0  0  0  0  0  0  0  0  0  0
   24.2070   79.1000   16.3990 C   0  0  0  0  0  0  0  0  0  0  0  0
   24.2780   80.4150   16.6130 N   0  0  0  0  0  0  0  0  0  0  0  0
   23.0390   80.9220   16.6650 C   0  0  0  0  0  0  0  0  0  0  0  0
   22.1570   79.9300   16.4830 N   0  0  0  0  0  0  0  0  0  0  0  0
   22.8680   78.8070   16.3200 C   0  0  0  0  0  0  0  0  0  0  0  0
   22.6090   76.6580   17.4160 C   0  0  0  0  0  0  0  0  0  0  0  0
   21.8810   77.5470   18.4020 C   0  0  0  0  0  0  0  0  0  0  0  0
   20.3030   84.4380   19.4490 H   0  0  0  0  0  0  0  0  0  0  0  0
   18.2940   86.0330   20.2860 H   0  0  0  0  0  0  0  0  0  0  0  0
   20.9630   80.3360   19.6280 H   0  0  0  0  0  0  0  0  0  0  0  0
   18.2520   80.0100   20.5180 H   0  0  0  0  0  0  0  0  0  0  0  0
   18.2590   81.3240   19.3320 H   0  0  0  0  0  0  0  0  0  0  0  0
   17.7320   79.1190   18.3660 H   0  0  0  0  0  0  0  0  0  0  0  0
   19.1190   79.9170   17.5850 H   0  0  0  0  0  0  0  0  0  0  0  0
   19.1340   77.6760   16.3770 H   0  0  0  0  0  0  0  0  0  0  0  0
   19.8430   76.0780   16.7230 H   0  0  0  0  0  0  0  0  0  0  0  0
   20.9080   78.2790   15.0330 H   0  0  0  0  0  0  0  0  0  0  0  0
   21.0510   76.5300   14.7820 H   0  0  0  0  0  0  0  0  0  0  0  0
   23.1470   75.8990   14.8600 H   0  0  0  0  0  0  0  0  0  0  0  0
   25.4340   76.7490   14.6120 H   0  0  0  0  0  0  0  0  0  0  0  0
   25.0300   75.9260   16.1290 H   0  0  0  0  0  0  0  0  0  0  0  0
   25.6110   77.7790   17.2880 H   0  0  0  0  0  0  0  0  0  0  0  0
   26.1400   78.5510   15.7810 H   0  0  0  0  0  0  0  0  0  0  0  0
   22.7300   81.9570   16.8230 H   0  0  0  0  0  0  0  0  0  0  0  0
   21.0900   80.0140   16.4700 H   0  0  0  0  0  0  0  0  0  0  0  0
   23.6510   76.4610   17.7130 H   0  0  0  0  0  0  0  0  0  0  0  0
   22.0180   75.6970   17.3870 H   0  0  0  0  0  0  0  0  0  0  0  0
   22.2770   78.5730   18.4300 H   0  0  0  0  0  0  0  0  0  0  0  0
   21.9350   77.0330   19.3820 H   0  0  0  0  0  0  0  0  0  0  0  0
  2  3  1  0  0  0  0
  2  1  1  0  0  0  0
  4  3  1  0  0  0  0
  5  6  1  0  0  0  0
  5  4  2  0  0  0  0
  6  2  2  0  0  0  0
  7  4  1  0  0  0  0
  7  8  2  0  0  0  0
  9  7  1  0  0  0  0
 10  9  1  0  0  0  0
 10 31  1  0  0  0  0
 11 12  1  0  0  0  0
 11 10  1  0  0  0  0
 12 13  2  0  0  0  0
 14 27  1  0  0  0  0
 14 12  1  0  0  0  0
 15 36  1  0  0  0  0
 15 14  1  0  0  0  0
 16 17  1  0  0  0  0
 16 15  1  0  0  0  0
 17 25  1  0  0  0  0
 17 26  1  0  0  0  0
 18 19  1  0  0  0  0
 18 17  1  0  0  0  0
 19 41  1  0  0  0  0
 19 20  1  0  0  0  0
 20 21  1  0  0  0  0
 20 42  1  0  0  0  0
 21 22  1  0  0  0  0
 22 23  2  0  0  0  0
 23 44  1  0  0  0  0
 24 23  1  0  0  0  0
 25 21  2  0  0  0  0
 25 24  1  0  0  0  0
 26 46  1  0  0  0  0
 26 27  1  0  0  0  0
 27 48  1  0  0  0  0
 27 49  1  0  0  0  0
 28  5  1  0  0  0  0
 29  6  1  0  0  0  0
 30  9  1  0  0  0  0
 32 10  1  0  0  0  0
 33 11  1  0  0  0  0
 34 11  1  0  0  0  0
 35 15  1  0  0  0  0
 37 16  1  0  0  0  0
 38 16  1  0  0  0  0
 39 18  1  0  0  0  0
 40 19  1  0  0  0  0
 43 20  1  0  0  0  0
 45 24  1  0  0  0  0
 47 26  1  0  0  0  0
M  END
>  <Pose>
1

>  <Score>
-6.82

$$$$
