
 OpenBabel03222202113D

 49 52  0  0  0  0  0  0  0  0999 V2000
   25.3560   75.8760   15.0480 B   0  0  0  0  0  0  0  0  0  0  0  0
   24.2850   77.4810   14.9260 C   0  0  0  0  0  0  0  0  0  0  0  0
   23.5520   77.8730   13.9470 O   0  0  0  0  0  0  0  0  0  0  0  0
   22.9660   79.0050   14.1990 C   0  0  0  0  0  0  0  0  0  0  0  0
   23.3520   79.3880   15.4630 C   0  0  0  0  0  0  0  0  0  0  0  0
   24.1970   78.4140   15.9300 C   0  0  0  0  0  0  0  0  0  0  0  0
   22.0520   79.7730   13.3350 C   0  0  0  0  0  0  0  0  0  0  0  0
   21.1670   80.4590   13.8660 O   0  0  0  0  0  0  0  0  0  0  0  0
   22.1670   79.7420   11.9240 N   0  0  0  0  0  0  0  0  0  0  0  0
   21.3480   80.6210   11.1150 C   0  0  0  0  0  0  0  0  0  0  0  0
   20.4490   79.8570   10.1730 C   0  0  0  0  0  0  0  0  0  0  0  0
   21.1480   78.6000    9.8590 N   0  0  0  0  0  0  0  0  0  0  0  0
   22.5650   78.6800    9.7560 C   0  0  0  0  0  0  0  0  0  0  0  0
   23.0700   78.8690   11.1990 C   0  0  0  0  0  0  0  0  0  0  0  0
   20.3440   77.4460    9.6920 C   0  0  0  0  0  0  0  0  0  0  0  0
   19.9390   76.7000   10.7570 N   0  0  0  0  0  0  0  0  0  0  0  0
   19.1790   75.6040   10.6130 C   0  0  0  0  0  0  0  0  0  0  0  0
   18.7900   75.2060    9.3830 N   0  0  0  0  0  0  0  0  0  0  0  0
   19.1410   75.8800    8.2740 C   0  0  0  0  0  0  0  0  0  0  0  0
   19.9360   77.0200    8.4620 C   0  0  0  0  0  0  0  0  0  0  0  0
   18.7240   75.4600    6.9090 C   0  0  0  0  0  0  0  0  0  0  0  0
   18.7820   74.8610   11.7540 N   0  0  0  0  0  0  0  0  0  0  0  0
   18.0100   73.6450   11.6780 C   0  0  0  0  0  0  0  0  0  0  0  0
   18.6940   72.5530   12.4440 C   0  0  0  0  0  0  0  0  0  0  0  0
   19.7540   73.0140   13.2230 O   0  0  0  0  0  0  0  0  0  0  0  0
   19.3730   74.1310   13.9600 C   0  0  0  0  0  0  0  0  0  0  0  0
   19.1620   75.3310   13.0690 C   0  0  0  0  0  0  0  0  0  0  0  0
   23.0440   80.3010   16.0000 H   0  0  0  0  0  0  0  0  0  0  0  0
   24.6890   78.4030   16.9060 H   0  0  0  0  0  0  0  0  0  0  0  0
   21.9540   81.3550   10.5480 H   0  0  0  0  0  0  0  0  0  0  0  0
   20.6570   81.2250   11.7740 H   0  0  0  0  0  0  0  0  0  0  0  0
   19.4720   79.6360   10.6010 H   0  0  0  0  0  0  0  0  0  0  0  0
   20.3660   80.3820    9.1780 H   0  0  0  0  0  0  0  0  0  0  0  0
   22.9850   77.7650    9.3370 H   0  0  0  0  0  0  0  0  0  0  0  0
   22.8630   79.5860    9.1700 H   0  0  0  0  0  0  0  0  0  0  0  0
   23.1540   77.8640   11.6000 H   0  0  0  0  0  0  0  0  0  0  0  0
   24.0720   79.3390   11.2160 H   0  0  0  0  0  0  0  0  0  0  0  0
   20.2040   77.5400    7.5600 H   0  0  0  0  0  0  0  0  0  0  0  0
   19.6120   75.2310    6.2870 H   0  0  0  0  0  0  0  0  0  0  0  0
   18.0120   74.6410    7.0010 H   0  0  0  0  0  0  0  0  0  0  0  0
   18.2020   76.3340    6.4530 H   0  0  0  0  0  0  0  0  0  0  0  0
   17.9070   73.3060   10.6110 H   0  0  0  0  0  0  0  0  0  0  0  0
   16.9820   73.8120   12.0900 H   0  0  0  0  0  0  0  0  0  0  0  0
   17.9650   72.0660   13.1500 H   0  0  0  0  0  0  0  0  0  0  0  0
   19.0700   71.7590   11.7670 H   0  0  0  0  0  0  0  0  0  0  0  0
   20.1610   74.3630   14.6970 H   0  0  0  0  0  0  0  0  0  0  0  0
   18.4440   73.8970   14.5470 H   0  0  0  0  0  0  0  0  0  0  0  0
   20.0920   75.9440   13.0410 H   0  0  0  0  0  0  0  0  0  0  0  0
   18.3250   75.9360   13.5000 H   0  0  0  0  0  0  0  0  0  0  0  0
  2  1  1  0  0  0  0
  2  6  2  0  0  0  0
  3  4  1  0  0  0  0
  3  2  1  0  0  0  0
  4  5  2  0  0  0  0
  5  6  1  0  0  0  0
  5 28  1  0  0  0  0
  6 29  1  0  0  0  0
  7  8  2  0  0  0  0
  7  4  1  0  0  0  0
  9  7  1  0  0  0  0
 10 31  1  0  0  0  0
 10  9  1  0  0  0  0
 11 32  1  0  0  0  0
 11 10  1  0  0  0  0
 12 11  1  0  0  0  0
 13 12  1  0  0  0  0
 13 14  1  0  0  0  0
 14 37  1  0  0  0  0
 14 36  1  0  0  0  0
 14  9  1  0  0  0  0
 15 12  1  0  0  0  0
 15 16  1  0  0  0  0
 17 16  2  0  0  0  0
 17 22  1  0  0  0  0
 18 17  1  0  0  0  0
 19 20  1  0  0  0  0
 19 18  2  0  0  0  0
 20 15  2  0  0  0  0
 21 40  1  0  0  0  0
 21 19  1  0  0  0  0
 22 27  1  0  0  0  0
 23 22  1  0  0  0  0
 23 43  1  0  0  0  0
 23 24  1  0  0  0  0
 24 44  1  0  0  0  0
 24 25  1  0  0  0  0
 25 26  1  0  0  0  0
 26 47  1  0  0  0  0
 26 46  1  0  0  0  0
 27 49  1  0  0  0  0
 27 26  1  0  0  0  0
 30 10  1  0  0  0  0
 33 11  1  0  0  0  0
 34 13  1  0  0  0  0
 35 13  1  0  0  0  0
 38 20  1  0  0  0  0
 39 21  1  0  0  0  0
 41 21  1  0  0  0  0
 42 23  1  0  0  0  0
 45 24  1  0  0  0  0
 48 27  1  0  0  0  0
M  END
>  <Pose>
1

>  <Score>
-6.85

$$$$
