
 OpenBabel03222202113D

 43 46  0  0  0  0  0  0  0  0999 V2000
   19.5520   81.9480   20.1660 B   0  0  0  0  0  0  0  0  0  0  0  0
   20.0080   80.2830   19.4110 C   0  0  0  0  0  0  0  0  0  0  0  0
   20.9410   80.1790   18.3750 C   0  0  0  0  0  0  0  0  0  0  0  0
   21.2400   78.9470   17.8590 C   0  0  0  0  0  0  0  0  0  0  0  0
   20.5760   77.8500   18.4160 C   0  0  0  0  0  0  0  0  0  0  0  0
   19.7190   77.9970   19.3750 O   0  0  0  0  0  0  0  0  0  0  0  0
   19.4150   79.1390   19.8840 C   0  0  0  0  0  0  0  0  0  0  0  0
   18.5680   79.1780   20.8140 O   0  0  0  0  0  0  0  0  0  0  0  0
   22.1910   78.7350   16.7850 C   0  0  0  0  0  0  0  0  0  0  0  0
   23.4130   78.5250   17.2380 O   0  0  0  0  0  0  0  0  0  0  0  0
   22.0530   78.7120   15.4050 N   0  0  0  0  0  0  0  0  0  0  0  0
   21.9570   80.0000   14.6730 C   0  0  0  0  0  0  0  0  0  0  0  0
   23.0410   80.0420   13.6220 C   0  0  0  0  0  0  0  0  0  0  0  0
   22.9060   78.9370   12.7570 N   0  0  0  0  0  0  0  0  0  0  0  0
   21.8220   78.0930   13.1240 C   0  0  0  0  0  0  0  0  0  0  0  0
   21.9900   77.5730   14.5720 C   0  0  0  0  0  0  0  0  0  0  0  0
   22.9270   79.2240   11.3580 C   0  0  0  0  0  0  0  0  0  0  0  0
   21.6280   79.1290   10.6680 C   0  0  0  0  0  0  0  0  0  0  0  0
   21.3470   78.2660    9.6600 C   0  0  0  0  0  0  0  0  0  0  0  0
   20.1050   78.2540    9.0760 C   0  0  0  0  0  0  0  0  0  0  0  0
   19.1430   79.1220    9.5150 C   0  0  0  0  0  0  0  0  0  0  0  0
   19.4040   80.0070   10.5370 C   0  0  0  0  0  0  0  0  0  0  0  0
   20.6410   79.9970   11.0960 C   0  0  0  0  0  0  0  0  0  0  0  0
   17.9810   78.9330    8.7860 O   0  0  0  0  0  0  0  0  0  0  0  0
   18.3530   78.1850    7.6370 C   0  0  0  0  0  0  0  0  0  0  0  0
   19.5230   77.5020    8.0430 O   0  0  0  0  0  0  0  0  0  0  0  0
   21.3750   81.0930   18.0420 H   0  0  0  0  0  0  0  0  0  0  0  0
   20.7720   76.8200   18.0440 H   0  0  0  0  0  0  0  0  0  0  0  0
   22.1080   80.8180   15.4160 H   0  0  0  0  0  0  0  0  0  0  0  0
   20.9760   80.0920   14.2110 H   0  0  0  0  0  0  0  0  0  0  0  0
   22.9390   81.0200   13.0580 H   0  0  0  0  0  0  0  0  0  0  0  0
   24.0540   80.1420   14.0950 H   0  0  0  0  0  0  0  0  0  0  0  0
   20.8170   78.4980   13.0540 H   0  0  0  0  0  0  0  0  0  0  0  0
   21.8830   77.1920   12.4500 H   0  0  0  0  0  0  0  0  0  0  0  0
   22.8640   76.9060   14.5660 H   0  0  0  0  0  0  0  0  0  0  0  0
   21.0880   76.9430   14.8080 H   0  0  0  0  0  0  0  0  0  0  0  0
   23.2560   80.3010   11.2540 H   0  0  0  0  0  0  0  0  0  0  0  0
   23.6780   78.6450   10.7930 H   0  0  0  0  0  0  0  0  0  0  0  0
   22.0860   77.5730    9.3020 H   0  0  0  0  0  0  0  0  0  0  0  0
   18.6400   80.6870   10.8750 H   0  0  0  0  0  0  0  0  0  0  0  0
   20.8320   80.7010   11.9020 H   0  0  0  0  0  0  0  0  0  0  0  0
   18.4960   78.8010    6.7520 H   0  0  0  0  0  0  0  0  0  0  0  0
   17.5990   77.4020    7.4020 H   0  0  0  0  0  0  0  0  0  0  0  0
  2  7  1  0  0  0  0
  2  1  1  0  0  0  0
  3  2  2  0  0  0  0
  4  3  1  0  0  0  0
  4  5  2  0  0  0  0
  5  6  1  0  0  0  0
  6  7  1  0  0  0  0
  7  8  2  0  0  0  0
  9 10  2  0  0  0  0
  9  4  1  0  0  0  0
 11  9  1  0  0  0  0
 12 11  1  0  0  0  0
 12 29  1  0  0  0  0
 13 32  1  0  0  0  0
 13 12  1  0  0  0  0
 14 15  1  0  0  0  0
 14 13  1  0  0  0  0
 15 16  1  0  0  0  0
 16 36  1  0  0  0  0
 16 11  1  0  0  0  0
 17 14  1  0  0  0  0
 18 23  1  0  0  0  0
 18 17  1  0  0  0  0
 19 18  2  0  0  0  0
 20 21  2  0  0  0  0
 20 19  1  0  0  0  0
 21 22  1  0  0  0  0
 22 40  1  0  0  0  0
 22 23  2  0  0  0  0
 23 41  1  0  0  0  0
 24 21  1  0  0  0  0
 25 26  1  0  0  0  0
 25 24  1  0  0  0  0
 26 20  1  0  0  0  0
 27  3  1  0  0  0  0
 28  5  1  0  0  0  0
 30 12  1  0  0  0  0
 31 13  1  0  0  0  0
 33 15  1  0  0  0  0
 34 15  1  0  0  0  0
 35 16  1  0  0  0  0
 37 17  1  0  0  0  0
 38 17  1  0  0  0  0
 39 19  1  0  0  0  0
 42 25  1  0  0  0  0
 43 25  1  0  0  0  0
M  END
>  <Pose>
1

>  <Score>
-6.10

$$$$
