
 OpenBabel03222202113D

 63 66  0  0  1  0  0  0  0  0999 V2000
   20.1140   81.5490   19.4160 B   0  0  0  0  0  0  0  0  0  0  0  0
   20.2680   79.6920   19.0290 C   0  0  0  0  0  0  0  0  0  0  0  0
   21.0240   79.3110   17.9500 C   0  0  0  0  0  0  0  0  0  0  0  0
   21.1950   78.0250   17.5940 N   0  0  0  0  0  0  0  0  0  0  0  0
   20.5560   77.1170   18.3910 C   0  0  0  0  0  0  0  0  0  0  0  0
   20.6690   75.8850   18.1210 O   0  0  0  0  0  0  0  0  0  0  0  0
   19.8190   77.4500   19.4390 N   0  0  0  0  0  0  0  0  0  0  0  0
   19.6490   78.7350   19.7950 C   0  0  0  0  0  0  0  0  0  0  0  0
   18.9590   79.0920   20.7810 O   0  0  0  0  0  0  0  0  0  0  0  0
   21.9760   77.5960   16.4780 C   0  0  2  0  0  0  0  0  0  0  0  0
   22.9970   78.6520   16.0350 C   0  0  2  0  0  0  0  0  0  0  0  0
   22.3380   79.6080   15.1010 C   0  0  0  0  0  0  0  0  0  0  0  0
   21.8980   78.8530   13.8670 C   0  0  0  0  0  0  0  0  0  0  0  0
   21.8130   77.4900   14.0780 O   0  0  0  0  0  0  0  0  0  0  0  0
   21.2060   77.1500   15.2790 C   0  0  0  0  0  0  0  0  0  0  0  0
   20.6380   79.4720   13.3820 C   0  0  0  0  0  0  0  0  0  0  0  0
   20.2000   78.7400   12.1050 C   0  0  0  0  0  0  0  0  0  0  0  0
   21.1600   79.0260   11.0900 N   0  0  0  0  0  0  0  0  0  0  0  0
   22.3890   79.7370   11.5780 C   0  0  0  0  0  0  0  0  0  0  0  0
   22.9460   79.0800   12.7980 C   0  0  0  0  0  0  0  0  0  0  0  0
   21.0560   78.7100    9.7500 C   0  0  0  0  0  0  0  0  0  0  0  0
   21.9890   79.2270    8.9770 O   0  0  0  0  0  0  0  0  0  0  0  0
   20.1100   77.9150    9.0510 C   0  0  0  0  0  0  0  0  0  0  0  0
   19.0850   78.5270    8.3060 C   0  0  0  0  0  0  0  0  0  0  0  0
   18.1340   77.8790    7.5840 C   0  0  0  0  0  0  0  0  0  0  0  0
   18.1930   76.4700    7.5890 C   0  0  0  0  0  0  0  0  0  0  0  0
   19.1700   75.8580    8.2980 C   0  0  0  0  0  0  0  0  0  0  0  0
   20.1390   76.5580    9.0360 C   0  0  0  0  0  0  0  0  0  0  0  0
   17.1540   78.5090    6.8780 O   0  0  0  0  0  0  0  0  0  0  0  0
   16.3330   79.5540    7.1830 C   0  0  0  0  0  0  0  0  0  0  0  0
   14.9490   79.3810    6.6580 C   0  0  0  0  0  0  0  0  0  0  0  0
   14.2390   80.6590    6.7200 N   0  0  0  0  0  0  0  0  0  0  0  0
   23.9820   77.9670   15.3190 O   0  0  0  0  0  0  0  0  0  0  0  0
   23.6530   79.2990   17.2110 C   0  0  0  0  0  0  0  0  0  0  0  0
   21.4990   80.0540   17.3640 H   0  0  0  0  0  0  0  0  0  0  0  0
   19.3440   76.7360   20.0290 H   0  0  0  0  0  0  0  0  0  0  0  0
   22.6230   76.7420   16.8420 H   0  0  0  0  0  0  0  0  0  0  0  0
   21.5150   80.1950   15.5510 H   0  0  0  0  0  0  0  0  0  0  0  0
   23.1170   80.3800   14.8280 H   0  0  0  0  0  0  0  0  0  0  0  0
   20.1670   77.4710   15.2310 H   0  0  0  0  0  0  0  0  0  0  0  0
   21.1710   76.0190   15.2810 H   0  0  0  0  0  0  0  0  0  0  0  0
   20.8140   80.5200   13.1120 H   0  0  0  0  0  0  0  0  0  0  0  0
   19.8150   79.4640   14.1240 H   0  0  0  0  0  0  0  0  0  0  0  0
   19.1880   79.1900   11.8740 H   0  0  0  0  0  0  0  0  0  0  0  0
   20.1000   77.6830   12.3940 H   0  0  0  0  0  0  0  0  0  0  0  0
   22.1940   80.8000   11.7120 H   0  0  0  0  0  0  0  0  0  0  0  0
   23.1180   79.6630   10.7390 H   0  0  0  0  0  0  0  0  0  0  0  0
   23.3940   78.1040   12.4510 H   0  0  0  0  0  0  0  0  0  0  0  0
   23.7900   79.6990   13.1800 H   0  0  0  0  0  0  0  0  0  0  0  0
   19.0810   79.5960    8.3020 H   0  0  0  0  0  0  0  0  0  0  0  0
   17.4340   75.9700    7.0110 H   0  0  0  0  0  0  0  0  0  0  0  0
   19.2000   74.7660    8.2900 H   0  0  0  0  0  0  0  0  0  0  0  0
   20.8450   75.9370    9.5290 H   0  0  0  0  0  0  0  0  0  0  0  0
   16.7370   80.5000    6.6930 H   0  0  0  0  0  0  0  0  0  0  0  0
   16.3010   79.7360    8.2990 H   0  0  0  0  0  0  0  0  0  0  0  0
   14.8290   79.0100    5.6510 H   0  0  0  0  0  0  0  0  0  0  0  0
   14.3750   78.7280    7.3810 H   0  0  0  0  0  0  0  0  0  0  0  0
   14.1670   81.1090    5.7950 H   0  0  0  0  0  0  0  0  0  0  0  0
   14.5710   81.2640    7.4770 H   0  0  0  0  0  0  0  0  0  0  0  0
   23.9290   76.9850   15.4330 H   0  0  0  0  0  0  0  0  0  0  0  0
   22.9600   79.6120   18.0050 H   0  0  0  0  0  0  0  0  0  0  0  0
   24.4320   78.5990   17.5900 H   0  0  0  0  0  0  0  0  0  0  0  0
   24.2040   80.1910   16.8390 H   0  0  0  0  0  0  0  0  0  0  0  0
  2  1  1  0  0  0  0
  2  8  1  0  0  0  0
  3  2  2  0  0  0  0
  4  3  1  0  0  0  0
  4  5  1  0  0  0  0
  5  7  1  0  0  0  0
  6  5  2  0  0  0  0
  7  8  1  0  0  0  0
  7 36  1  0  0  0  0
  8  9  2  0  0  0  0
 10 37  1  1  0  0  0
 10  4  1  0  0  0  0
 11 33  1  6  0  0  0
 11 10  1  0  0  0  0
 11 34  1  0  0  0  0
 12 38  1  0  0  0  0
 12 11  1  0  0  0  0
 13 14  1  0  0  0  0
 13 12  1  0  0  0  0
 14 15  1  0  0  0  0
 15 41  1  0  0  0  0
 15 10  1  0  0  0  0
 16 13  1  0  0  0  0
 16 43  1  0  0  0  0
 17 45  1  0  0  0  0
 17 16  1  0  0  0  0
 18 19  1  0  0  0  0
 18 17  1  0  0  0  0
 19 46  1  0  0  0  0
 19 20  1  0  0  0  0
 20 49  1  0  0  0  0
 20 13  1  0  0  0  0
 21 18  1  0  0  0  0
 22 21  2  0  0  0  0
 23 21  1  0  0  0  0
 24 23  2  0  0  0  0
 25 26  2  0  0  0  0
 25 24  1  0  0  0  0
 26 27  1  0  0  0  0
 27 28  2  0  0  0  0
 28 23  1  0  0  0  0
 28 53  1  0  0  0  0
 29 30  1  0  0  0  0
 29 25  1  0  0  0  0
 30 55  1  0  0  0  0
 31 32  1  0  0  0  0
 31 30  1  0  0  0  0
 31 57  1  0  0  0  0
 32 59  1  0  0  0  0
 33 60  1  0  0  0  0
 34 62  1  0  0  0  0
 34 61  1  0  0  0  0
 35  3  1  0  0  0  0
 39 12  1  0  0  0  0
 40 15  1  0  0  0  0
 42 16  1  0  0  0  0
 44 17  1  0  0  0  0
 47 19  1  0  0  0  0
 48 20  1  0  0  0  0
 50 24  1  0  0  0  0
 51 26  1  0  0  0  0
 52 27  1  0  0  0  0
 54 30  1  0  0  0  0
 56 31  1  0  0  0  0
 58 32  1  0  0  0  0
 63 34  1  0  0  0  0
M  END
>  <Pose>
1

>  <Score>
-8.31

$$$$
