
 OpenBabel03222202113D

 63 66  0  0  1  0  0  0  0  0999 V2000
   18.4930   74.7410    6.9010 B   0  0  0  0  0  0  0  0  0  0  0  0
   17.7740   76.5160    7.0440 C   0  0  0  0  0  0  0  0  0  0  0  0
   18.4620   77.4900    7.7310 C   0  0  0  0  0  0  0  0  0  0  0  0
   17.9770   78.7220    7.8400 N   0  0  0  0  0  0  0  0  0  0  0  0
   16.8120   79.0430    7.2830 C   0  0  0  0  0  0  0  0  0  0  0  0
   16.3140   80.2140    7.3650 O   0  0  0  0  0  0  0  0  0  0  0  0
   16.1260   78.1070    6.6090 N   0  0  0  0  0  0  0  0  0  0  0  0
   16.5650   76.8430    6.4660 C   0  0  0  0  0  0  0  0  0  0  0  0
   15.8950   75.9820    5.8240 O   0  0  0  0  0  0  0  0  0  0  0  0
   18.7300   79.7270    8.5640 C   0  0  1  0  0  0  0  0  0  0  0  0
   18.8440   79.4830   10.0150 C   0  0  1  0  0  0  0  0  0  0  0  0
   20.1100   80.0710   10.6500 C   0  0  0  0  0  0  0  0  0  0  0  0
   21.3410   79.5880    9.9230 C   0  0  2  0  0  0  0  0  0  0  0  0
   21.0480   79.1720    8.6390 O   0  0  0  0  0  0  0  0  0  0  0  0
   20.1060   79.9030    7.9830 C   0  0  0  0  0  0  0  0  0  0  0  0
   21.9480   78.4690   10.7500 C   0  0  0  0  0  0  0  0  0  0  0  0
   23.0420   79.0030   11.6360 C   0  0  0  0  0  0  0  0  0  0  0  0
   22.6300   80.2800   12.1610 N   0  0  0  0  0  0  0  0  0  0  0  0
   22.5440   81.3640   11.1930 C   0  0  0  0  0  0  0  0  0  0  0  0
   22.3130   80.7410    9.8350 C   0  0  0  0  0  0  0  0  0  0  0  0
   22.3550   80.4490   13.5200 C   0  0  0  0  0  0  0  0  0  0  0  0
   21.6890   81.5060   13.8190 O   0  0  0  0  0  0  0  0  0  0  0  0
   22.7180   79.6020   14.6510 C   0  0  1  0  0  0  0  0  0  0  0  0
   24.0510   79.0170   14.4910 N   0  0  0  0  0  0  0  0  0  0  0  0
   22.7280   80.2910   15.9970 C   0  0  0  0  0  0  0  0  0  0  0  0
   21.7900   79.4960   16.8750 C   0  0  0  0  0  0  0  0  0  0  0  0
   20.5110   79.9360   17.0940 C   0  0  0  0  0  0  0  0  0  0  0  0
   19.6800   79.1730   17.9100 C   0  0  0  0  0  0  0  0  0  0  0  0
   20.1110   78.0030   18.4920 C   0  0  0  0  0  0  0  0  0  0  0  0
   21.4060   77.5930   18.2470 C   0  0  0  0  0  0  0  0  0  0  0  0
   22.2540   78.3280   17.4440 C   0  0  0  0  0  0  0  0  0  0  0  0
   19.2420   77.2860   19.2920 O   0  0  0  0  0  0  0  0  0  0  0  0
   17.7940   80.2030   10.6410 O   0  0  0  0  0  0  0  0  0  0  0  0
   18.6740   78.0640   10.4490 C   0  0  0  0  0  0  0  0  0  0  0  0
   19.4120   77.1800    8.1710 H   0  0  0  0  0  0  0  0  0  0  0  0
   15.1940   78.3640    6.1640 H   0  0  0  0  0  0  0  0  0  0  0  0
   18.1740   80.6980    8.3640 H   0  0  0  0  0  0  0  0  0  0  0  0
   20.0890   81.1660   10.6280 H   0  0  0  0  0  0  0  0  0  0  0  0
   20.1590   79.7410   11.6930 H   0  0  0  0  0  0  0  0  0  0  0  0
   20.1320   79.6580    6.8950 H   0  0  0  0  0  0  0  0  0  0  0  0
   20.3770   80.9960    8.0850 H   0  0  0  0  0  0  0  0  0  0  0  0
   21.1980   77.9650   11.3750 H   0  0  0  0  0  0  0  0  0  0  0  0
   22.4290   77.7020   10.1030 H   0  0  0  0  0  0  0  0  0  0  0  0
   23.3270   78.2610   12.4110 H   0  0  0  0  0  0  0  0  0  0  0  0
   23.9600   79.0990   11.0010 H   0  0  0  0  0  0  0  0  0  0  0  0
   21.7470   82.0760   11.3880 H   0  0  0  0  0  0  0  0  0  0  0  0
   23.5020   81.9100   11.1560 H   0  0  0  0  0  0  0  0  0  0  0  0
   23.2630   80.4220    9.3560 H   0  0  0  0  0  0  0  0  0  0  0  0
   21.9160   81.5490    9.1960 H   0  0  0  0  0  0  0  0  0  0  0  0
   22.0010   78.7590   14.7150 H   0  0  0  0  0  0  0  0  0  0  0  0
   24.5880   79.5070   13.7440 H   0  0  0  0  0  0  0  0  0  0  0  0
   23.9400   78.0240   14.1690 H   0  0  0  0  0  0  0  0  0  0  0  0
   23.6990   80.2850   16.4870 H   0  0  0  0  0  0  0  0  0  0  0  0
   22.3600   81.3150   15.9610 H   0  0  0  0  0  0  0  0  0  0  0  0
   20.1890   80.8500   16.6320 H   0  0  0  0  0  0  0  0  0  0  0  0
   18.6730   79.5170   18.0830 H   0  0  0  0  0  0  0  0  0  0  0  0
   21.7540   76.6870   18.6950 H   0  0  0  0  0  0  0  0  0  0  0  0
   23.2710   78.0150   17.2450 H   0  0  0  0  0  0  0  0  0  0  0  0
   19.5400   76.6320   20.0160 H   0  0  0  0  0  0  0  0  0  0  0  0
   17.2700   80.7230    9.9880 H   0  0  0  0  0  0  0  0  0  0  0  0
   19.3610   77.3440    9.9990 H   0  0  0  0  0  0  0  0  0  0  0  0
   18.8070   78.0170   11.5480 H   0  0  0  0  0  0  0  0  0  0  0  0
   17.5940   77.7710   10.2880 H   0  0  0  0  0  0  0  0  0  0  0  0
  1  2  1  0  0  0  0
  2  3  2  0  0  0  0
  3  4  1  0  0  0  0
  3 35  1  0  0  0  0
  4 10  1  0  0  0  0
  5  6  2  0  0  0  0
  5  4  1  0  0  0  0
  7  5  1  0  0  0  0
  8  7  1  0  0  0  0
  8  2  1  0  0  0  0
  9  8  2  0  0  0  0
 10 37  1  6  0  0  0
 10 11  1  0  0  0  0
 11 34  1  0  0  0  0
 11 33  1  1  0  0  0
 11 12  1  0  0  0  0
 12 39  1  0  0  0  0
 13 14  1  6  0  0  0
 13 12  1  0  0  0  0
 13 16  1  0  0  0  0
 15 41  1  0  0  0  0
 15 10  1  0  0  0  0
 15 14  1  0  0  0  0
 16 42  1  0  0  0  0
 16 17  1  0  0  0  0
 17 18  1  0  0  0  0
 17 44  1  0  0  0  0
 18 21  1  0  0  0  0
 19 46  1  0  0  0  0
 19 18  1  0  0  0  0
 20 13  1  0  0  0  0
 20 19  1  0  0  0  0
 21 22  2  0  0  0  0
 21 23  1  0  0  0  0
 23 50  1  1  0  0  0
 23 25  1  0  0  0  0
 24 23  1  0  0  0  0
 25 53  1  0  0  0  0
 25 26  1  0  0  0  0
 26 27  2  0  0  0  0
 26 31  1  0  0  0  0
 27 28  1  0  0  0  0
 28 56  1  0  0  0  0
 28 29  2  0  0  0  0
 29 32  1  0  0  0  0
 30 29  1  0  0  0  0
 30 57  1  0  0  0  0
 31 30  2  0  0  0  0
 32 59  1  0  0  0  0
 34 62  1  0  0  0  0
 36  7  1  0  0  0  0
 38 12  1  0  0  0  0
 40 15  1  0  0  0  0
 43 16  1  0  0  0  0
 45 17  1  0  0  0  0
 47 19  1  0  0  0  0
 48 20  1  0  0  0  0
 49 20  1  0  0  0  0
 51 24  1  0  0  0  0
 52 24  1  0  0  0  0
 54 25  1  0  0  0  0
 55 27  1  0  0  0  0
 58 31  1  0  0  0  0
 60 33  1  0  0  0  0
 61 34  1  0  0  0  0
 63 34  1  0  0  0  0
M  END
>  <Pose>
1

>  <Score>
-6.54

$$$$
