
 OpenBabel03222202113D

 39 42  0  0  0  0  0  0  0  0999 V2000
   19.9570   83.9350   19.2600 B   0  0  0  0  0  0  0  0  0  0  0  0
   19.9510   82.0580   18.9400 C   0  0  0  0  0  0  0  0  0  0  0  0
   19.5330   81.1890   19.8980 C   0  0  0  0  0  0  0  0  0  0  0  0
   19.5260   79.8800   19.6810 N   0  0  0  0  0  0  0  0  0  0  0  0
   19.1660   78.8540   20.4540 N   0  0  0  0  0  0  0  0  0  0  0  0
   19.3530   77.7210   19.7560 C   0  0  0  0  0  0  0  0  0  0  0  0
   19.8430   78.0300   18.5090 C   0  0  0  0  0  0  0  0  0  0  0  0
   19.9440   79.4170   18.4900 C   0  0  0  0  0  0  0  0  0  0  0  0
   20.3600   80.2620   17.5340 N   0  0  0  0  0  0  0  0  0  0  0  0
   20.3750   81.5820   17.7300 C   0  0  0  0  0  0  0  0  0  0  0  0
   20.1930   77.1480   17.4240 C   0  0  0  0  0  0  0  0  0  0  0  0
   20.4950   75.9530   17.7050 O   0  0  0  0  0  0  0  0  0  0  0  0
   20.1980   77.6040   16.0800 N   0  0  0  0  0  0  0  0  0  0  0  0
   21.4760   77.5540   15.3530 C   0  0  0  0  0  0  0  0  0  0  0  0
   21.0610   77.4490   13.8860 C   0  0  0  0  0  0  0  0  0  0  0  0
   19.9160   76.5880   13.8640 N   0  0  0  0  0  0  0  0  0  0  0  0
   18.6510   77.3220   14.1630 C   0  0  0  0  0  0  0  0  0  0  0  0
   18.9940   78.1050   15.4330 C   0  0  0  0  0  0  0  0  0  0  0  0
   19.8660   75.2200   13.6520 C   0  0  0  0  0  0  0  0  0  0  0  0
   20.6940   74.4870   14.3360 O   0  0  0  0  0  0  0  0  0  0  0  0
   19.0170   74.4480   12.7610 C   0  0  0  0  0  0  0  0  0  0  0  0
   18.8560   74.7010   11.4550 O   0  0  0  0  0  0  0  0  0  0  0  0
   18.0470   73.8680   10.8960 C   0  0  0  0  0  0  0  0  0  0  0  0
   17.5990   72.9700   11.8320 C   0  0  0  0  0  0  0  0  0  0  0  0
   18.2230   73.3530   13.0070 C   0  0  0  0  0  0  0  0  0  0  0  0
   19.1940   81.5690   20.8670 H   0  0  0  0  0  0  0  0  0  0  0  0
   19.1400   76.7320   20.1460 H   0  0  0  0  0  0  0  0  0  0  0  0
   20.7040   82.2880   16.9810 H   0  0  0  0  0  0  0  0  0  0  0  0
   21.9960   76.6270   15.6040 H   0  0  0  0  0  0  0  0  0  0  0  0
   22.0310   78.4790   15.5230 H   0  0  0  0  0  0  0  0  0  0  0  0
   21.8570   77.2600   13.1910 H   0  0  0  0  0  0  0  0  0  0  0  0
   20.7190   78.5160   13.6050 H   0  0  0  0  0  0  0  0  0  0  0  0
   17.8200   76.6260   14.3070 H   0  0  0  0  0  0  0  0  0  0  0  0
   18.5150   77.9980   13.2950 H   0  0  0  0  0  0  0  0  0  0  0  0
   19.1080   79.1800   15.2210 H   0  0  0  0  0  0  0  0  0  0  0  0
   18.1570   77.9500   16.1370 H   0  0  0  0  0  0  0  0  0  0  0  0
   17.7390   73.8480    9.8380 H   0  0  0  0  0  0  0  0  0  0  0  0
   16.9050   72.1350   11.7000 H   0  0  0  0  0  0  0  0  0  0  0  0
   18.0580   72.8370   13.9420 H   0  0  0  0  0  0  0  0  0  0  0  0
  2  1  1  0  0  0  0
  2  3  2  0  0  0  0
  3 26  1  0  0  0  0
  4  3  1  0  0  0  0
  4  5  1  0  0  0  0
  6 27  1  0  0  0  0
  6  5  2  0  0  0  0
  7  6  1  0  0  0  0
  8  7  2  0  0  0  0
  8  4  1  0  0  0  0
  9 10  2  0  0  0  0
  9  8  1  0  0  0  0
 10  2  1  0  0  0  0
 11 12  2  0  0  0  0
 11  7  1  0  0  0  0
 13 11  1  0  0  0  0
 14 30  1  0  0  0  0
 14 29  1  0  0  0  0
 14 13  1  0  0  0  0
 15 14  1  0  0  0  0
 16 15  1  0  0  0  0
 16 17  1  0  0  0  0
 17 33  1  0  0  0  0
 17 18  1  0  0  0  0
 18 13  1  0  0  0  0
 18 36  1  0  0  0  0
 19 16  1  0  0  0  0
 19 20  2  0  0  0  0
 21 25  2  0  0  0  0
 21 19  1  0  0  0  0
 22 21  1  0  0  0  0
 23 22  1  0  0  0  0
 23 24  2  0  0  0  0
 24 25  1  0  0  0  0
 25 39  1  0  0  0  0
 28 10  1  0  0  0  0
 31 15  1  0  0  0  0
 32 15  1  0  0  0  0
 34 17  1  0  0  0  0
 35 18  1  0  0  0  0
 37 23  1  0  0  0  0
 38 24  1  0  0  0  0
M  END
>  <Pose>
1

>  <Score>
-6.54

$$$$
