
 OpenBabel03222202113D

 50 53  0  0  1  0  0  0  0  0999 V2000
   19.2080   72.1260   12.9410 B   0  0  0  0  0  0  0  0  0  0  0  0
   19.5740   73.7220   13.9290 C   0  0  0  0  0  0  0  0  0  0  0  0
   19.7250   74.9350   13.2920 C   0  0  0  0  0  0  0  0  0  0  0  0
   19.9940   76.0830   14.0280 C   0  0  0  0  0  0  0  0  0  0  0  0
   20.1170   76.0640   15.3770 C   0  0  0  0  0  0  0  0  0  0  0  0
   19.9630   74.8250   16.0350 C   0  0  0  0  0  0  0  0  0  0  0  0
   19.6970   73.7000   15.2980 C   0  0  0  0  0  0  0  0  0  0  0  0
   20.3990   77.1840   16.2730 C   0  0  2  0  0  0  0  0  0  0  0  0
   21.5630   77.9680   16.0170 N   0  0  0  0  0  0  0  0  0  0  0  0
   21.8790   78.7170   14.8400 C   0  0  0  0  0  0  0  0  0  0  0  0
   23.2470   78.5840   14.2920 C   0  0  0  0  0  0  0  0  0  0  0  0
   24.1980   77.7190   15.0390 C   0  0  0  0  0  0  0  0  0  0  0  0
   24.6640   78.3660   16.3440 C   0  0  0  0  0  0  0  0  0  0  0  0
   23.6440   78.0170   17.3810 C   0  0  0  0  0  0  0  0  0  0  0  0
   22.3390   77.8500   17.2400 C   0  0  0  0  0  0  0  0  0  0  0  0
   21.4620   77.4990   18.3030 N   0  0  0  0  0  4  0  0  0  0  0  0
   20.6290   76.5370   17.6430 C   0  0  0  0  0  0  0  0  0  0  0  0
   20.7710   78.6450   18.7270 C   0  0  0  0  0  0  0  0  0  0  0  0
   21.1370   79.9210   18.2590 C   0  0  0  0  0  0  0  0  0  0  0  0
   20.4870   81.0580   18.6570 C   0  0  0  0  0  0  0  0  0  0  0  0
   19.4330   80.9970   19.5440 C   0  0  0  0  0  0  0  0  0  0  0  0
   19.0570   79.7650   20.0140 C   0  0  0  0  0  0  0  0  0  0  0  0
   19.7140   78.6190   19.6120 C   0  0  0  0  0  0  0  0  0  0  0  0
   18.7700   82.1720   19.9470 O   0  0  0  0  0  0  0  0  0  0  0  0
   19.4320   83.1090   20.7540 C   0  0  0  0  0  0  0  0  0  0  0  0
   19.2240   77.9600   16.3000 O   0  0  0  0  0  0  0  0  0  0  0  0
   19.6440   75.0250   12.2280 H   0  0  0  0  0  0  0  0  0  0  0  0
   20.1200   77.0290   13.5280 H   0  0  0  0  0  0  0  0  0  0  0  0
   20.0490   74.7430   17.1180 H   0  0  0  0  0  0  0  0  0  0  0  0
   19.5760   72.7410   15.7850 H   0  0  0  0  0  0  0  0  0  0  0  0
   21.0810   78.4860   14.0740 H   0  0  0  0  0  0  0  0  0  0  0  0
   21.7190   79.8350   14.9960 H   0  0  0  0  0  0  0  0  0  0  0  0
   23.7640   79.5550   14.0930 H   0  0  0  0  0  0  0  0  0  0  0  0
   23.1580   78.1230   13.2610 H   0  0  0  0  0  0  0  0  0  0  0  0
   23.8050   76.6950   15.2290 H   0  0  0  0  0  0  0  0  0  0  0  0
   25.1130   77.5940   14.4210 H   0  0  0  0  0  0  0  0  0  0  0  0
   25.6120   77.8180   16.6190 H   0  0  0  0  0  0  0  0  0  0  0  0
   24.7980   79.4350   16.2110 H   0  0  0  0  0  0  0  0  0  0  0  0
   24.0340   77.8840   18.3830 H   0  0  0  0  0  0  0  0  0  0  0  0
   22.0410   77.0730   19.0690 H   0  0  0  0  0  0  0  0  0  0  0  0
   19.7220   76.2490   18.1550 H   0  0  0  0  0  0  0  0  0  0  0  0
   21.2460   75.6190   17.4780 H   0  0  0  0  0  0  0  0  0  0  0  0
   21.9570   79.9290   17.5750 H   0  0  0  0  0  0  0  0  0  0  0  0
   20.7780   82.0320   18.2880 H   0  0  0  0  0  0  0  0  0  0  0  0
   18.2140   79.7130   20.7200 H   0  0  0  0  0  0  0  0  0  0  0  0
   19.3710   77.6590   20.0150 H   0  0  0  0  0  0  0  0  0  0  0  0
   20.4520   83.3540   20.3940 H   0  0  0  0  0  0  0  0  0  0  0  0
   19.4650   82.7170   21.7950 H   0  0  0  0  0  0  0  0  0  0  0  0
   18.8690   84.0580   20.7750 H   0  0  0  0  0  0  0  0  0  0  0  0
   18.5280   77.3580   16.6680 H   0  0  0  0  0  0  0  0  0  0  0  0
  1  2  1  0  0  0  0
  2  7  1  0  0  0  0
  3  2  2  0  0  0  0
  3  4  1  0  0  0  0
  4  5  2  0  0  0  0
  5  6  1  0  0  0  0
  5  8  1  0  0  0  0
  6 29  1  0  0  0  0
  7 30  1  0  0  0  0
  7  6  2  0  0  0  0
  8 26  1  1  0  0  0
  8 17  1  0  0  0  0
  9  8  1  0  0  0  0
  9 15  1  0  0  0  0
 10 32  1  0  0  0  0
 10  9  1  0  0  0  0
 11 10  1  0  0  0  0
 11 12  1  0  0  0  0
 12 35  1  0  0  0  0
 12 13  1  0  0  0  0
 13 37  1  0  0  0  0
 13 14  1  0  0  0  0
 14 39  1  0  0  0  0
 15 14  2  0  0  0  0
 15 16  1  0  0  0  0
 16 18  1  0  0  0  0
 16 40  1  0  0  0  0
 17 41  1  0  0  0  0
 17 16  1  0  0  0  0
 18 23  1  0  0  0  0
 19 20  1  0  0  0  0
 19 18  2  0  0  0  0
 20 21  2  0  0  0  0
 21 24  1  0  0  0  0
 21 22  1  0  0  0  0
 22 45  1  0  0  0  0
 23 22  2  0  0  0  0
 23 46  1  0  0  0  0
 24 25  1  0  0  0  0
 25 49  1  0  0  0  0
 25 48  1  0  0  0  0
 26 50  1  0  0  0  0
 27  3  1  0  0  0  0
 28  4  1  0  0  0  0
 31 10  1  0  0  0  0
 33 11  1  0  0  0  0
 34 11  1  0  0  0  0
 36 12  1  0  0  0  0
 38 13  1  0  0  0  0
 42 17  1  0  0  0  0
 43 19  1  0  0  0  0
 44 20  1  0  0  0  0
 47 25  1  0  0  0  0
M  END
>  <Pose>
1

>  <Score>
-5.16

$$$$
