
 OpenBabel03222202113D

 47 49  0  0  1  0  0  0  0  0999 V2000
   17.8110   72.1120   12.2200 B   0  0  0  0  0  0  0  0  0  0  0  0
   18.8050   73.4910   13.1140 C   0  0  0  0  0  0  0  0  0  0  0  0
   19.9100   73.1470   13.8600 C   0  0  0  0  0  0  0  0  0  0  0  0
   20.6290   74.1570   14.4990 C   0  0  0  0  0  0  0  0  0  0  0  0
   20.2770   75.4870   14.4150 C   0  0  0  0  0  0  0  0  0  0  0  0
   19.1650   75.8060   13.6590 C   0  0  0  0  0  0  0  0  0  0  0  0
   18.4420   74.8170   13.0190 C   0  0  0  0  0  0  0  0  0  0  0  0
   21.0790   76.5110   15.1280 C   0  0  2  0  0  0  0  0  0  0  0  0
   20.3330   77.2040   16.1560 N   0  0  0  0  0  0  0  0  0  0  0  0
   19.2200   76.9310   17.0400 C   0  0  0  0  0  0  0  0  0  0  0  0
   19.3790   77.6070   18.3860 C   0  0  0  0  0  0  0  0  0  0  0  0
   19.5130   79.0760   18.1600 C   0  0  0  0  0  0  0  0  0  0  0  0
   20.5550   79.3800   17.1560 C   0  0  0  0  0  0  0  0  0  0  0  0
   20.9290   78.4980   16.2250 C   0  0  0  0  0  0  0  0  0  0  0  0
   21.8850   78.6730   15.2030 N   0  0  0  0  0  4  0  0  0  0  0  0
   21.4960   77.6360   14.2250 C   0  0  0  0  0  0  0  0  0  0  0  0
   23.2240   78.5520   15.5580 C   0  0  0  0  0  0  0  0  0  0  0  0
   24.0170   79.6160   15.9110 C   0  0  0  0  0  0  0  0  0  0  0  0
   25.3620   79.4240   16.2380 C   0  0  0  0  0  0  0  0  0  0  0  0
   25.9200   78.1720   16.2130 C   0  0  0  0  0  0  0  0  0  0  0  0
   25.1310   77.0980   15.8610 C   0  0  0  0  0  0  0  0  0  0  0  0
   23.8110   77.2930   15.5420 C   0  0  0  0  0  0  0  0  0  0  0  0
   23.5380   80.9090   15.9650 O   0  0  0  0  0  0  0  0  0  0  0  0
   23.0420   81.5420   14.8320 C   0  0  0  0  0  0  0  0  0  0  0  0
   22.2300   75.9020   15.6170 O   0  0  0  0  0  0  0  0  0  0  0  0
   20.2590   72.1090   13.9710 H   0  0  0  0  0  0  0  0  0  0  0  0
   21.5160   73.9150   15.1030 H   0  0  0  0  0  0  0  0  0  0  0  0
   18.8850   76.8670   13.5950 H   0  0  0  0  0  0  0  0  0  0  0  0
   17.5720   75.0770   12.4280 H   0  0  0  0  0  0  0  0  0  0  0  0
   18.3030   77.4000   16.5770 H   0  0  0  0  0  0  0  0  0  0  0  0
   19.0510   75.8390   17.1520 H   0  0  0  0  0  0  0  0  0  0  0  0
   20.1640   77.1440   19.0030 H   0  0  0  0  0  0  0  0  0  0  0  0
   18.4110   77.4410   18.9300 H   0  0  0  0  0  0  0  0  0  0  0  0
   19.6490   79.6470   19.1010 H   0  0  0  0  0  0  0  0  0  0  0  0
   18.5420   79.4110   17.6930 H   0  0  0  0  0  0  0  0  0  0  0  0
   21.0100   80.3700   17.2130 H   0  0  0  0  0  0  0  0  0  0  0  0
   21.6990   79.5770   14.6560 H   0  0  0  0  0  0  0  0  0  0  0  0
   20.6390   77.9750   13.6440 H   0  0  0  0  0  0  0  0  0  0  0  0
   22.3780   77.3870   13.6100 H   0  0  0  0  0  0  0  0  0  0  0  0
   26.0230   80.2300   16.5190 H   0  0  0  0  0  0  0  0  0  0  0  0
   26.9730   77.9720   16.4670 H   0  0  0  0  0  0  0  0  0  0  0  0
   25.5840   76.1160   15.8510 H   0  0  0  0  0  0  0  0  0  0  0  0
   23.2060   76.4580   15.2680 H   0  0  0  0  0  0  0  0  0  0  0  0
   23.6660   81.4380   13.9120 H   0  0  0  0  0  0  0  0  0  0  0  0
   22.9500   82.6690   14.9700 H   0  0  0  0  0  0  0  0  0  0  0  0
   22.0110   81.1750   14.5960 H   0  0  0  0  0  0  0  0  0  0  0  0
   22.3570   76.2350   16.5380 H   0  0  0  0  0  0  0  0  0  0  0  0
  1  2  1  0  0  0  0
  2  3  1  0  0  0  0
  3 26  1  0  0  0  0
  3  4  2  0  0  0  0
  4 27  1  0  0  0  0
  5  4  1  0  0  0  0
  6  5  2  0  0  0  0
  7  2  2  0  0  0  0
  7  6  1  0  0  0  0
  8  5  1  6  0  0  0
  8  9  1  0  0  0  0
  9 14  1  0  0  0  0
  9 10  1  0  0  0  0
 10 31  1  0  0  0  0
 10 11  1  0  0  0  0
 11 33  1  0  0  0  0
 11 32  1  0  0  0  0
 12 11  1  0  0  0  0
 12 34  1  0  0  0  0
 13 36  1  0  0  0  0
 13 12  1  0  0  0  0
 14 13  2  0  0  0  0
 15 17  1  0  0  0  0
 15 14  1  0  0  0  0
 16  8  1  0  0  0  0
 16 15  1  0  0  0  0
 17 18  1  0  0  0  0
 18 23  1  0  0  0  0
 18 19  2  0  0  0  0
 19 40  1  0  0  0  0
 20 19  1  0  0  0  0
 20 41  1  0  0  0  0
 21 20  2  0  0  0  0
 22 17  2  0  0  0  0
 22 21  1  0  0  0  0
 24 45  1  0  0  0  0
 24 23  1  0  0  0  0
 25 47  1  0  0  0  0
 28  6  1  0  0  0  0
 29  7  1  0  0  0  0
 30 10  1  0  0  0  0
 35 12  1  0  0  0  0
 37 15  1  0  0  0  0
 38 16  1  0  0  0  0
 39 16  1  0  0  0  0
 42 21  1  0  0  0  0
 43 22  1  0  0  0  0
 44 24  1  0  0  0  0
 46 24  1  0  0  0  0
M  END
>  <Pose>
1

>  <Score>
-4.64

$$$$
