
 OpenBabel03222202113D

 47 50  0  0  1  0  0  0  0  0999 V2000
   19.3900   82.8690   20.2390 B   0  0  0  0  0  0  0  0  0  0  0  0
   20.0630   81.4140   19.2030 C   0  0  0  0  0  0  0  0  0  0  0  0
   20.1430   80.1330   19.7160 C   0  0  0  0  0  0  0  0  0  0  0  0
   20.6300   79.0930   18.9520 C   0  0  0  0  0  0  0  0  0  0  0  0
   21.0610   79.2570   17.6530 C   0  0  0  0  0  0  0  0  0  0  0  0
   20.9780   80.5480   17.1470 C   0  0  0  0  0  0  0  0  0  0  0  0
   20.4900   81.5960   17.9060 C   0  0  0  0  0  0  0  0  0  0  0  0
   21.5670   78.1160   16.8930 C   0  0  2  0  0  0  0  0  0  0  0  0
   22.9200   78.2570   16.4150 N   0  0  0  0  0  0  0  0  0  0  0  0
   24.1210   78.9440   16.8700 C   0  0  0  0  0  0  0  0  0  0  0  0
   25.3940   78.2960   16.4850 C   0  0  0  0  0  0  0  0  0  0  0  0
   25.2670   76.9660   15.7860 C   0  0  0  0  0  0  0  0  0  0  0  0
   24.1080   76.8870   14.9010 C   0  0  0  0  0  0  0  0  0  0  0  0
   22.9850   77.5100   15.2100 C   0  0  0  0  0  0  0  0  0  0  0  0
   21.7220   77.6150   14.5600 N   0  0  0  0  0  4  0  0  0  0  0  0
   20.7940   77.8610   15.6190 C   0  0  0  0  0  0  0  0  0  0  0  0
   21.7940   78.5990   13.5840 C   0  0  0  0  0  0  0  0  0  0  0  0
   22.4940   79.7620   13.8080 C   0  0  0  0  0  0  0  0  0  0  0  0
   22.5660   80.7570   12.8190 C   0  0  0  0  0  0  0  0  0  0  0  0
   21.9480   80.6100   11.6090 C   0  0  0  0  0  0  0  0  0  0  0  0
   21.2330   79.4200   11.3820 C   0  0  0  0  0  0  0  0  0  0  0  0
   21.1820   78.4620   12.3730 C   0  0  0  0  0  0  0  0  0  0  0  0
   21.9780   81.5550   10.5840 O   0  0  0  0  0  0  0  0  0  0  0  0
   22.0670   82.9340   10.7350 C   0  0  0  0  0  0  0  0  0  0  0  0
   21.5420   76.9820   17.7310 O   0  0  0  0  0  0  0  0  0  0  0  0
   19.8040   79.9980   20.7370 H   0  0  0  0  0  0  0  0  0  0  0  0
   20.6830   78.0870   19.3800 H   0  0  0  0  0  0  0  0  0  0  0  0
   21.3070   80.7120   16.1370 H   0  0  0  0  0  0  0  0  0  0  0  0
   20.4220   82.6100   17.5130 H   0  0  0  0  0  0  0  0  0  0  0  0
   24.0990   79.0550   17.9900 H   0  0  0  0  0  0  0  0  0  0  0  0
   24.1230   80.0120   16.5080 H   0  0  0  0  0  0  0  0  0  0  0  0
   26.0920   78.2190   17.3610 H   0  0  0  0  0  0  0  0  0  0  0  0
   25.9510   78.9570   15.7590 H   0  0  0  0  0  0  0  0  0  0  0  0
   26.1830   76.7140   15.2140 H   0  0  0  0  0  0  0  0  0  0  0  0
   25.1900   76.1880   16.5940 H   0  0  0  0  0  0  0  0  0  0  0  0
   24.1710   76.3200   13.9940 H   0  0  0  0  0  0  0  0  0  0  0  0
   21.5340   76.6770   14.1130 H   0  0  0  0  0  0  0  0  0  0  0  0
   20.1900   76.9420   15.7950 H   0  0  0  0  0  0  0  0  0  0  0  0
   20.0640   78.6610   15.4010 H   0  0  0  0  0  0  0  0  0  0  0  0
   23.0130   79.9640   14.7300 H   0  0  0  0  0  0  0  0  0  0  0  0
   23.1230   81.6690   13.0090 H   0  0  0  0  0  0  0  0  0  0  0  0
   20.7450   79.3040   10.4210 H   0  0  0  0  0  0  0  0  0  0  0  0
   20.6330   77.5670   12.1770 H   0  0  0  0  0  0  0  0  0  0  0  0
   22.1430   83.2830   11.7580 H   0  0  0  0  0  0  0  0  0  0  0  0
   21.2600   83.4380   10.1500 H   0  0  0  0  0  0  0  0  0  0  0  0
   23.0210   83.2730   10.2310 H   0  0  0  0  0  0  0  0  0  0  0  0
   21.9520   76.2510   17.2060 H   0  0  0  0  0  0  0  0  0  0  0  0
  2  3  1  0  0  0  0
  2  1  1  0  0  0  0
  3 26  1  0  0  0  0
  4 27  1  0  0  0  0
  4  3  2  0  0  0  0
  5  4  1  0  0  0  0
  6  5  2  0  0  0  0
  6  7  1  0  0  0  0
  7  2  2  0  0  0  0
  8  5  1  0  0  0  0
  8 25  1  1  0  0  0
  9 10  1  0  0  0  0
  9  8  1  0  0  0  0
 10 30  1  0  0  0  0
 11 10  1  0  0  0  0
 11 32  1  0  0  0  0
 12 11  1  0  0  0  0
 12 35  1  0  0  0  0
 13 14  2  0  0  0  0
 13 12  1  0  0  0  0
 14  9  1  0  0  0  0
 15 14  1  0  0  0  0
 15 16  1  0  0  0  0
 16 38  1  0  0  0  0
 16  8  1  0  0  0  0
 17 18  1  0  0  0  0
 17 15  1  0  0  0  0
 18 40  1  0  0  0  0
 19 41  1  0  0  0  0
 19 18  2  0  0  0  0
 20 19  1  0  0  0  0
 21 20  2  0  0  0  0
 21 22  1  0  0  0  0
 22 17  2  0  0  0  0
 23 24  1  0  0  0  0
 23 20  1  0  0  0  0
 24 44  1  0  0  0  0
 28  6  1  0  0  0  0
 29  7  1  0  0  0  0
 31 10  1  0  0  0  0
 33 11  1  0  0  0  0
 34 12  1  0  0  0  0
 36 13  1  0  0  0  0
 37 15  1  0  0  0  0
 39 16  1  0  0  0  0
 42 21  1  0  0  0  0
 43 22  1  0  0  0  0
 45 24  1  0  0  0  0
 46 24  1  0  0  0  0
 47 25  1  0  0  0  0
M  END
>  <Pose>
1

>  <Score>
-5.67

$$$$
