
 OpenBabel03222202113D

 53 56  0  0  1  0  0  0  0  0999 V2000
   23.0230   80.9190    8.3480 B   0  0  0  0  0  0  0  0  0  0  0  0
   22.7170   80.3230   10.1440 C   0  0  0  0  0  0  0  0  0  0  0  0
   22.6940   78.9830   10.4600 C   0  0  0  0  0  0  0  0  0  0  0  0
   22.4570   78.5660   11.7620 C   0  0  0  0  0  0  0  0  0  0  0  0
   22.2320   79.4660   12.8020 C   0  0  0  0  0  0  0  0  0  0  0  0
   22.2650   80.7790   12.4350 C   0  0  0  0  0  0  0  0  0  0  0  0
   22.5010   81.2260   11.1380 C   0  0  0  0  0  0  0  0  0  0  0  0
   21.9760   78.9850   14.0680 N   0  0  0  0  0  4  0  0  0  0  0  0
   21.4200   79.8890   15.0310 C   0  0  1  0  0  0  0  0  0  0  0  0
   22.6760   80.6710   15.4120 C   0  0  0  0  0  0  0  0  0  0  0  0
   23.7140   79.6290   15.4440 N   0  0  0  0  0  0  0  0  0  0  0  0
   24.9370   79.8400   16.1350 C   0  0  0  0  0  0  0  0  0  0  0  0
   25.8740   78.6690   16.1330 C   0  0  0  0  0  0  0  0  0  0  0  0
   25.1280   77.4320   16.5520 C   0  0  0  0  0  0  0  0  0  0  0  0
   24.8090   76.6960   15.2430 C   0  0  0  0  0  0  0  0  0  0  0  0
   23.6060   77.3060   14.6420 C   0  0  0  0  0  0  0  0  0  0  0  0
   23.1600   78.5400   14.7080 C   0  0  0  0  0  0  0  0  0  0  0  0
   20.3560   80.6420   14.6480 O   0  0  0  0  0  0  0  0  0  0  0  0
   21.0090   79.1860   16.2810 C   0  0  0  0  0  0  0  0  0  0  0  0
   20.9240   77.8340   16.4290 C   0  0  0  0  0  0  0  0  0  0  0  0
   20.5340   77.2320   17.6440 C   0  0  0  0  0  0  0  0  0  0  0  0
   20.2210   77.9980   18.7400 C   0  0  0  0  0  0  0  0  0  0  0  0
   20.3030   79.3620   18.6030 C   0  0  0  0  0  0  0  0  0  0  0  0
   20.6820   79.9460   17.4160 C   0  0  0  0  0  0  0  0  0  0  0  0
   19.8360   77.4080   19.9560 O   0  0  0  0  0  0  0  0  0  0  0  0
   19.5760   78.1830   21.1020 C   0  0  0  0  0  0  0  0  0  0  0  0
   20.6760   78.1010   22.1130 C   0  0  0  0  0  0  0  0  0  0  0  0
   22.8730   78.2990    9.6430 H   0  0  0  0  0  0  0  0  0  0  0  0
   22.4560   77.5000   11.9200 H   0  0  0  0  0  0  0  0  0  0  0  0
   22.0990   81.5440   13.1480 H   0  0  0  0  0  0  0  0  0  0  0  0
   22.5080   82.3130   10.9390 H   0  0  0  0  0  0  0  0  0  0  0  0
   21.2620   78.2030   13.9320 H   0  0  0  0  0  0  0  0  0  0  0  0
   22.9290   81.4900   14.7660 H   0  0  0  0  0  0  0  0  0  0  0  0
   22.6540   81.0620   16.4400 H   0  0  0  0  0  0  0  0  0  0  0  0
   25.4710   80.6970   15.6730 H   0  0  0  0  0  0  0  0  0  0  0  0
   24.6970   80.0590   17.2250 H   0  0  0  0  0  0  0  0  0  0  0  0
   26.3120   78.5890   15.1190 H   0  0  0  0  0  0  0  0  0  0  0  0
   26.6400   78.8640   16.9070 H   0  0  0  0  0  0  0  0  0  0  0  0
   25.6850   76.7710   17.2330 H   0  0  0  0  0  0  0  0  0  0  0  0
   24.1410   77.6390   17.0160 H   0  0  0  0  0  0  0  0  0  0  0  0
   25.6450   76.7740   14.5200 H   0  0  0  0  0  0  0  0  0  0  0  0
   24.6810   75.6190   15.4850 H   0  0  0  0  0  0  0  0  0  0  0  0
   23.0060   76.6010   14.1000 H   0  0  0  0  0  0  0  0  0  0  0  0
   20.1930   80.6290   13.6870 H   0  0  0  0  0  0  0  0  0  0  0  0
   21.1440   77.1980   15.5950 H   0  0  0  0  0  0  0  0  0  0  0  0
   20.4860   76.1520   17.6910 H   0  0  0  0  0  0  0  0  0  0  0  0
   20.0520   79.9510   19.4990 H   0  0  0  0  0  0  0  0  0  0  0  0
   20.7320   81.0290   17.3230 H   0  0  0  0  0  0  0  0  0  0  0  0
   18.6510   77.7350   21.5770 H   0  0  0  0  0  0  0  0  0  0  0  0
   19.2660   79.2300   20.8710 H   0  0  0  0  0  0  0  0  0  0  0  0
   21.3940   77.2780   21.8810 H   0  0  0  0  0  0  0  0  0  0  0  0
   20.3290   77.9660   23.1570 H   0  0  0  0  0  0  0  0  0  0  0  0
   21.1940   79.1040   22.1250 H   0  0  0  0  0  0  0  0  0  0  0  0
  1  2  1  0  0  0  0
  2  3  2  0  0  0  0
  2  7  1  0  0  0  0
  3  4  1  0  0  0  0
  4 29  1  0  0  0  0
  4  5  2  0  0  0  0
  5  8  1  0  0  0  0
  6  5  1  0  0  0  0
  6 30  1  0  0  0  0
  7  6  2  0  0  0  0
  8 17  1  0  0  0  0
  8  9  1  0  0  0  0
  9 18  1  6  0  0  0
  9 10  1  0  0  0  0
  9 19  1  0  0  0  0
 10 11  1  0  0  0  0
 10 34  1  0  0  0  0
 11 12  1  0  0  0  0
 12 36  1  0  0  0  0
 13 12  1  0  0  0  0
 13 14  1  0  0  0  0
 13 38  1  0  0  0  0
 14 40  1  0  0  0  0
 14 39  1  0  0  0  0
 15 42  1  0  0  0  0
 15 14  1  0  0  0  0
 16 17  2  0  0  0  0
 16 15  1  0  0  0  0
 17 11  1  0  0  0  0
 19 20  2  0  0  0  0
 19 24  1  0  0  0  0
 20 21  1  0  0  0  0
 21 46  1  0  0  0  0
 21 22  2  0  0  0  0
 22 25  1  0  0  0  0
 23 22  1  0  0  0  0
 23 47  1  0  0  0  0
 24 23  2  0  0  0  0
 25 26  1  0  0  0  0
 26 49  1  0  0  0  0
 26 27  1  0  0  0  0
 27 53  1  0  0  0  0
 27 52  1  0  0  0  0
 28  3  1  0  0  0  0
 31  7  1  0  0  0  0
 32  8  1  0  0  0  0
 33 10  1  0  0  0  0
 35 12  1  0  0  0  0
 37 13  1  0  0  0  0
 41 15  1  0  0  0  0
 43 16  1  0  0  0  0
 44 18  1  0  0  0  0
 45 20  1  0  0  0  0
 48 24  1  0  0  0  0
 50 26  1  0  0  0  0
 51 27  1  0  0  0  0
M  END
>  <Pose>
1

>  <Score>
-4.11

$$$$
