
 OpenBabel03222202113D

 55 58  0  0  1  0  0  0  0  0999 V2000
   19.9080   81.3410   19.9150 B   0  0  0  0  0  0  0  0  0  0  0  0
   20.3170   80.1510   18.4700 C   0  0  0  0  0  0  0  0  0  0  0  0
   20.8990   80.6030   17.3030 C   0  0  0  0  0  0  0  0  0  0  0  0
   21.1920   79.7440   16.2680 C   0  0  0  0  0  0  0  0  0  0  0  0
   20.8730   78.4150   16.4530 C   0  0  0  0  0  0  0  0  0  0  0  0
   20.2910   77.9570   17.6180 C   0  0  0  0  0  0  0  0  0  0  0  0
   20.0000   78.8200   18.6520 C   0  0  0  0  0  0  0  0  0  0  0  0
   19.3720   78.3140   19.9060 C   0  0  0  0  0  0  0  0  0  0  0  0
   21.1780   77.5650   15.3910 O   0  0  0  0  0  0  0  0  0  0  0  0
   21.4720   77.9990   14.1060 C   0  0  0  0  0  0  0  0  0  0  0  0
   22.1710   79.3130   14.0130 C   0  0  2  0  0  0  0  0  0  0  0  0
   21.8090   80.3050   15.0620 C   0  0  2  0  0  0  0  0  0  0  0  0
   22.9500   81.0280   15.4880 O   0  0  0  0  0  0  0  0  0  0  0  0
   21.7540   79.8880   12.7300 N   0  0  0  0  0  4  0  0  0  0  0  0
   21.3750   78.9080   11.7700 C   0  0  0  0  0  0  0  0  0  0  0  0
   20.6270   79.6620   10.6600 C   0  0  0  0  0  0  0  0  0  0  0  0
   21.5510   80.5170   10.0820 O   0  0  0  0  0  0  0  0  0  0  0  0
   22.0700   81.4490   10.9720 C   0  0  0  0  0  0  0  0  0  0  0  0
   22.7440   80.7520   12.1630 C   0  0  0  0  0  0  0  0  0  0  0  0
   23.6780   79.1710   13.9470 C   0  0  0  0  0  0  0  0  0  0  0  0
   24.1740   77.9760   14.5570 N   0  0  0  0  0  4  0  0  0  0  0  0
   25.5330   77.6620   14.1540 C   0  0  0  0  0  0  0  0  0  0  0  0
   26.3930   77.2500   15.3390 C   0  0  0  0  0  0  0  0  0  0  0  0
   26.5410   78.2700   16.2630 O   0  0  0  0  0  0  0  0  0  0  0  0
   25.3900   79.0470   16.3490 C   0  0  0  0  0  0  0  0  0  0  0  0
   24.2230   78.1390   16.0190 C   0  0  0  0  0  0  0  0  0  0  0  0
   21.1320   81.6690   17.2040 H   0  0  0  0  0  0  0  0  0  0  0  0
   20.0520   76.9100   17.7400 H   0  0  0  0  0  0  0  0  0  0  0  0
   18.2690   78.2260   19.7840 H   0  0  0  0  0  0  0  0  0  0  0  0
   19.7540   77.3200   20.1850 H   0  0  0  0  0  0  0  0  0  0  0  0
   19.5440   79.0650   20.7060 H   0  0  0  0  0  0  0  0  0  0  0  0
   22.0650   77.2040   13.6000 H   0  0  0  0  0  0  0  0  0  0  0  0
   20.4950   78.0230   13.5370 H   0  0  0  0  0  0  0  0  0  0  0  0
   21.1160   81.1090   14.6750 H   0  0  0  0  0  0  0  0  0  0  0  0
   23.0200   81.0680   16.4640 H   0  0  0  0  0  0  0  0  0  0  0  0
   20.9150   80.4710   12.9500 H   0  0  0  0  0  0  0  0  0  0  0  0
   20.7010   78.1290   12.1190 H   0  0  0  0  0  0  0  0  0  0  0  0
   22.2860   78.4910   11.2530 H   0  0  0  0  0  0  0  0  0  0  0  0
   20.3080   78.9300    9.9210 H   0  0  0  0  0  0  0  0  0  0  0  0
   19.8020   80.1930   11.1660 H   0  0  0  0  0  0  0  0  0  0  0  0
   22.7780   82.0810   10.4180 H   0  0  0  0  0  0  0  0  0  0  0  0
   21.2070   82.0020   11.3970 H   0  0  0  0  0  0  0  0  0  0  0  0
   23.6110   80.2180   11.7270 H   0  0  0  0  0  0  0  0  0  0  0  0
   23.0850   81.5560   12.8410 H   0  0  0  0  0  0  0  0  0  0  0  0
   24.0750   79.2380   12.9220 H   0  0  0  0  0  0  0  0  0  0  0  0
   24.1080   80.0540   14.5030 H   0  0  0  0  0  0  0  0  0  0  0  0
   23.6100   77.1280   14.3950 H   0  0  0  0  0  0  0  0  0  0  0  0
   25.9990   78.5870   13.7470 H   0  0  0  0  0  0  0  0  0  0  0  0
   25.5830   76.8200   13.4340 H   0  0  0  0  0  0  0  0  0  0  0  0
   26.0830   76.2900   15.7760 H   0  0  0  0  0  0  0  0  0  0  0  0
   27.4160   77.0710   14.9080 H   0  0  0  0  0  0  0  0  0  0  0  0
   25.4960   79.8630   15.6010 H   0  0  0  0  0  0  0  0  0  0  0  0
   25.3250   79.4370   17.3780 H   0  0  0  0  0  0  0  0  0  0  0  0
   24.3680   77.1400   16.4790 H   0  0  0  0  0  0  0  0  0  0  0  0
   23.2590   78.5310   16.4080 H   0  0  0  0  0  0  0  0  0  0  0  0
  2  7  1  0  0  0  0
  2  1  1  0  0  0  0
  3  2  2  0  0  0  0
  4  5  2  0  0  0  0
  4  3  1  0  0  0  0
  5  6  1  0  0  0  0
  6 28  1  0  0  0  0
  6  7  2  0  0  0  0
  7  8  1  0  0  0  0
  8 30  1  0  0  0  0
  8 31  1  0  0  0  0
  9  5  1  0  0  0  0
 10  9  1  0  0  0  0
 11 20  1  6  0  0  0
 11 10  1  0  0  0  0
 11 12  1  0  0  0  0
 12 34  1  6  0  0  0
 12 13  1  0  0  0  0
 12  4  1  0  0  0  0
 13 35  1  0  0  0  0
 14 36  1  0  0  0  0
 14 11  1  0  0  0  0
 15 37  1  0  0  0  0
 15 14  1  0  0  0  0
 16 40  1  0  0  0  0
 16 15  1  0  0  0  0
 17 16  1  0  0  0  0
 17 18  1  0  0  0  0
 18 42  1  0  0  0  0
 18 19  1  0  0  0  0
 19 14  1  0  0  0  0
 19 44  1  0  0  0  0
 20 46  1  0  0  0  0
 20 21  1  0  0  0  0
 21 26  1  0  0  0  0
 22 21  1  0  0  0  0
 22 23  1  0  0  0  0
 23 50  1  0  0  0  0
 23 24  1  0  0  0  0
 24 25  1  0  0  0  0
 25 53  1  0  0  0  0
 26 25  1  0  0  0  0
 26 55  1  0  0  0  0
 26 54  1  0  0  0  0
 27  3  1  0  0  0  0
 29  8  1  0  0  0  0
 32 10  1  0  0  0  0
 33 10  1  0  0  0  0
 38 15  1  0  0  0  0
 39 16  1  0  0  0  0
 41 18  1  0  0  0  0
 43 19  1  0  0  0  0
 45 20  1  0  0  0  0
 47 21  1  0  0  0  0
 48 22  1  0  0  0  0
 49 22  1  0  0  0  0
 51 23  1  0  0  0  0
 52 25  1  0  0  0  0
M  END
>  <Pose>
1

>  <Score>
-5.09

$$$$
