
 OpenBabel03222202113D

 60 63  0  0  0  0  0  0  0  0999 V2000
   18.6580   73.1410   12.2440 B   0  0  0  0  0  0  0  0  0  0  0  0
   19.0620   74.9380   11.8310 C   0  0  0  0  0  0  0  0  0  0  0  0
   19.2940   75.8010   12.8740 C   0  0  0  0  0  0  0  0  0  0  0  0
   19.6040   77.1590   12.6910 C   0  0  0  0  0  0  0  0  0  0  0  0
   19.6780   77.6580   11.3850 C   0  0  0  0  0  0  0  0  0  0  0  0
   19.4430   76.7810   10.3490 C   0  0  0  0  0  0  0  0  0  0  0  0
   19.1400   75.4470   10.5520 C   0  0  0  0  0  0  0  0  0  0  0  0
   18.8870   74.5160    9.4000 C   0  0  0  0  0  0  0  0  0  0  0  0
   19.5470   77.4610    8.5720 B   0  0  0  0  0  0  0  0  0  0  0  0
   19.8320   78.0250   13.8320 C   0  0  0  0  0  0  0  0  0  0  0  0
   19.4990   79.2290   13.6940 O   0  0  0  0  0  0  0  0  0  0  0  0
   20.4280   77.4150   15.0360 C   0  0  0  0  0  0  0  0  0  0  0  0
   19.3680   76.2540   15.2980 C   0  0  0  0  0  0  0  0  0  0  0  0
   19.2460   75.4200   14.2020 O   0  0  0  0  0  0  0  0  0  0  0  0
   20.4370   78.2120   16.2470 C   0  0  0  0  0  0  0  0  0  0  0  0
   20.7130   77.8170   17.5460 N   0  0  0  0  0  4  0  0  0  0  0  0
   19.8050   77.0810   18.3360 C   0  0  0  0  0  0  0  0  0  0  0  0
   19.9610   77.3190   19.8320 C   0  0  0  0  0  0  0  0  0  0  0  0
   19.6130   78.7230   20.2120 C   0  0  0  0  0  0  0  0  0  0  0  0
   20.0220   79.6280   19.0910 C   0  0  0  0  0  0  0  0  0  0  0  0
   21.1410   78.9980   18.3280 C   0  0  0  0  0  0  0  0  0  0  0  0
   21.7120   76.7630   14.6890 C   0  0  0  0  0  0  0  0  0  0  0  0
   22.9270   77.4530   14.8040 N   0  0  0  0  0  4  0  0  0  0  0  0
   22.6300   78.8650   15.0780 C   0  0  0  0  0  0  0  0  0  0  0  0
   23.8530   79.7450   14.9290 C   0  0  0  0  0  0  0  0  0  0  0  0
   24.8190   79.3010   16.0390 C   0  0  0  0  0  0  0  0  0  0  0  0
   25.1110   77.8530   15.7200 C   0  0  0  0  0  0  0  0  0  0  0  0
   23.8020   77.0650   15.8990 C   0  0  0  0  0  0  0  0  0  0  0  0
   19.9130   78.6950   11.2510 H   0  0  0  0  0  0  0  0  0  0  0  0
   19.8860   74.3610    8.9180 H   0  0  0  0  0  0  0  0  0  0  0  0
   18.4430   73.5890    9.7640 H   0  0  0  0  0  0  0  0  0  0  0  0
   18.2590   75.0700    8.6740 H   0  0  0  0  0  0  0  0  0  0  0  0
   18.4230   76.8180   15.4300 H   0  0  0  0  0  0  0  0  0  0  0  0
   19.6200   75.7660   16.2310 H   0  0  0  0  0  0  0  0  0  0  0  0
   19.4540   78.8070   16.3030 H   0  0  0  0  0  0  0  0  0  0  0  0
   21.1520   79.1000   16.0280 H   0  0  0  0  0  0  0  0  0  0  0  0
   21.6540   77.2400   17.5920 H   0  0  0  0  0  0  0  0  0  0  0  0
   19.9520   75.9860   18.1570 H   0  0  0  0  0  0  0  0  0  0  0  0
   18.7430   77.2680   18.1510 H   0  0  0  0  0  0  0  0  0  0  0  0
   21.0140   77.1290   20.0880 H   0  0  0  0  0  0  0  0  0  0  0  0
   19.3360   76.6360   20.4150 H   0  0  0  0  0  0  0  0  0  0  0  0
   20.0520   79.0590   21.1600 H   0  0  0  0  0  0  0  0  0  0  0  0
   18.4870   78.7410   20.3080 H   0  0  0  0  0  0  0  0  0  0  0  0
   20.4330   80.5560   19.5420 H   0  0  0  0  0  0  0  0  0  0  0  0
   19.1820   79.9630   18.4540 H   0  0  0  0  0  0  0  0  0  0  0  0
   21.6920   79.7130   17.6580 H   0  0  0  0  0  0  0  0  0  0  0  0
   21.8750   78.6420   19.0690 H   0  0  0  0  0  0  0  0  0  0  0  0
   21.6540   76.2760   13.6800 H   0  0  0  0  0  0  0  0  0  0  0  0
   21.8430   75.8060   15.3450 H   0  0  0  0  0  0  0  0  0  0  0  0
   23.5540   77.4950   13.9750 H   0  0  0  0  0  0  0  0  0  0  0  0
   22.3630   78.9140   16.1740 H   0  0  0  0  0  0  0  0  0  0  0  0
   21.7870   79.2630   14.5360 H   0  0  0  0  0  0  0  0  0  0  0  0
   24.3060   79.5990   13.9340 H   0  0  0  0  0  0  0  0  0  0  0  0
   23.5500   80.7680   15.1350 H   0  0  0  0  0  0  0  0  0  0  0  0
   25.7100   79.9260   16.0620 H   0  0  0  0  0  0  0  0  0  0  0  0
   24.2320   79.3040   16.9830 H   0  0  0  0  0  0  0  0  0  0  0  0
   25.3400   77.7680   14.6200 H   0  0  0  0  0  0  0  0  0  0  0  0
   25.9280   77.4110   16.2910 H   0  0  0  0  0  0  0  0  0  0  0  0
   24.1410   76.0200   15.8760 H   0  0  0  0  0  0  0  0  0  0  0  0
   23.3920   77.3750   16.8740 H   0  0  0  0  0  0  0  0  0  0  0  0
  2  1  1  0  0  0  0
  2  3  1  0  0  0  0
  3 14  1  0  0  0  0
  4  3  2  0  0  0  0
  4 10  1  0  0  0  0
  5  4  1  0  0  0  0
  6  7  1  0  0  0  0
  6  5  2  0  0  0  0
  7  2  2  0  0  0  0
  8 31  1  0  0  0  0
  8  7  1  0  0  0  0
  9  6  1  0  0  0  0
 10 12  1  0  0  0  0
 11 10  2  0  0  0  0
 12 13  1  0  0  0  0
 12 15  1  0  0  0  0
 13 33  1  0  0  0  0
 13 34  1  0  0  0  0
 14 13  1  0  0  0  0
 15 35  1  0  0  0  0
 15 16  1  0  0  0  0
 16 37  1  0  0  0  0
 16 21  1  0  0  0  0
 16 17  1  0  0  0  0
 17 18  1  0  0  0  0
 18 40  1  0  0  0  0
 18 19  1  0  0  0  0
 18 41  1  0  0  0  0
 19 43  1  0  0  0  0
 19 42  1  0  0  0  0
 20 44  1  0  0  0  0
 20 19  1  0  0  0  0
 21 47  1  0  0  0  0
 21 20  1  0  0  0  0
 22 23  1  0  0  0  0
 22 12  1  0  0  0  0
 22 49  1  0  0  0  0
 23 24  1  0  0  0  0
 23 28  1  0  0  0  0
 24 51  1  0  0  0  0
 25 24  1  0  0  0  0
 25 54  1  0  0  0  0
 25 26  1  0  0  0  0
 26 55  1  0  0  0  0
 26 56  1  0  0  0  0
 27 28  1  0  0  0  0
 27 26  1  0  0  0  0
 27 58  1  0  0  0  0
 28 60  1  0  0  0  0
 29  5  1  0  0  0  0
 30  8  1  0  0  0  0
 32  8  1  0  0  0  0
 36 15  1  0  0  0  0
 38 17  1  0  0  0  0
 39 17  1  0  0  0  0
 45 20  1  0  0  0  0
 46 21  1  0  0  0  0
 48 22  1  0  0  0  0
 50 23  1  0  0  0  0
 52 24  1  0  0  0  0
 53 25  1  0  0  0  0
 57 27  1  0  0  0  0
 59 28  1  0  0  0  0
M  END
>  <Pose>
1

>  <Score>
-4.66

$$$$
