
 OpenBabel03222202113D

 50 53  0  0  0  0  0  0  0  0999 V2000
   16.3920   75.8810    4.9320 F   0  0  0  0  0  0  0  0  0  0  0  0
   17.1590   76.1790    6.0170 C   0  0  0  0  0  0  0  0  0  0  0  0
   16.9600   77.3270    6.7550 C   0  0  0  0  0  0  0  0  0  0  0  0
   17.7480   77.6100    7.8500 C   0  0  0  0  0  0  0  0  0  0  0  0
   18.7670   76.7640    8.2580 C   0  0  0  0  0  0  0  0  0  0  0  0
   18.9590   75.6190    7.5150 C   0  0  0  0  0  0  0  0  0  0  0  0
   18.1680   75.3310    6.4110 C   0  0  0  0  0  0  0  0  0  0  0  0
   19.6030   77.0580    9.4140 C   0  0  0  0  0  0  0  0  0  0  0  0
   19.0970   77.5750   10.4760 N   0  0  0  0  0  0  0  0  0  0  0  0
   19.8320   77.8810   11.6130 N   0  0  0  0  0  0  0  0  0  0  0  0
   19.8860   76.9810   12.7020 C   0  0  0  0  0  0  0  0  0  0  0  0
   19.3900   75.7310   12.5650 N   0  0  0  0  0  4  0  0  0  0  0  0
   19.4090   74.8190   13.5690 C   0  0  0  0  0  0  0  0  0  0  0  0
   19.9520   75.2150   14.7220 N   0  0  0  0  0  0  0  0  0  0  0  0
   20.4640   76.4410   14.9300 C   0  0  0  0  0  0  0  0  0  0  0  0
   20.4140   77.2990   13.8960 N   0  0  0  0  0  0  0  0  0  0  0  0
   21.0260   76.7910   16.1870 N   0  0  0  0  0  0  0  0  0  0  0  0
   22.3120   77.4610   16.2180 C   0  0  0  0  0  0  0  0  0  0  0  0
   22.7250   77.6930   17.6540 C   0  0  0  0  0  0  0  0  0  0  0  0
   21.7580   78.2590   18.4350 O   0  0  0  0  0  0  0  0  0  0  0  0
   20.4810   77.7960   18.2680 C   0  0  0  0  0  0  0  0  0  0  0  0
   20.3980   76.5210   17.4460 C   0  0  0  0  0  0  0  0  0  0  0  0
   18.8720   73.5170   13.3700 N   0  0  0  0  0  0  0  0  0  0  0  0
   19.6120   72.2940   13.5790 C   0  0  0  0  0  0  0  0  0  0  0  0
   19.4660   71.5460   12.2550 C   0  0  0  0  0  0  0  0  0  0  0  0
   18.1830   71.1710   12.1020 O   0  0  0  0  0  0  0  0  0  0  0  0
   17.1920   72.0410   12.3340 C   0  0  0  0  0  0  0  0  0  0  0  0
   17.5050   73.3550   12.9320 C   0  0  0  0  0  0  0  0  0  0  0  0
   15.5610   78.5110    6.2160 B   0  0  0  0  0  0  0  0  0  0  0  0
   17.5980   78.5190    8.4430 H   0  0  0  0  0  0  0  0  0  0  0  0
   19.7630   74.9460    7.8310 H   0  0  0  0  0  0  0  0  0  0  0  0
   18.3360   74.4200    5.8350 H   0  0  0  0  0  0  0  0  0  0  0  0
   20.6500   76.8350    9.3660 H   0  0  0  0  0  0  0  0  0  0  0  0
   20.3470   78.7750   11.6700 H   0  0  0  0  0  0  0  0  0  0  0  0
   23.1140   76.8020   15.7750 H   0  0  0  0  0  0  0  0  0  0  0  0
   22.2010   78.4120   15.6890 H   0  0  0  0  0  0  0  0  0  0  0  0
   23.5790   78.4290   17.6060 H   0  0  0  0  0  0  0  0  0  0  0  0
   23.1570   76.7780   18.0910 H   0  0  0  0  0  0  0  0  0  0  0  0
   19.9040   78.5640   17.6930 H   0  0  0  0  0  0  0  0  0  0  0  0
   20.0210   77.6560   19.2730 H   0  0  0  0  0  0  0  0  0  0  0  0
   21.0150   75.7700   17.9850 H   0  0  0  0  0  0  0  0  0  0  0  0
   19.3510   76.2330   17.3420 H   0  0  0  0  0  0  0  0  0  0  0  0
   19.0440   71.6980   14.3230 H   0  0  0  0  0  0  0  0  0  0  0  0
   20.6640   72.4510   13.8480 H   0  0  0  0  0  0  0  0  0  0  0  0
   19.8280   72.2230   11.4600 H   0  0  0  0  0  0  0  0  0  0  0  0
   20.1100   70.6210   12.2760 H   0  0  0  0  0  0  0  0  0  0  0  0
   16.4220   71.5320   12.9890 H   0  0  0  0  0  0  0  0  0  0  0  0
   16.6260   72.2020   11.3660 H   0  0  0  0  0  0  0  0  0  0  0  0
   16.8760   73.5620   13.8490 H   0  0  0  0  0  0  0  0  0  0  0  0
   17.2140   74.1940   12.2320 H   0  0  0  0  0  0  0  0  0  0  0  0
  1  2  1  0  0  0  0
  2  7  2  0  0  0  0
  2  3  1  0  0  0  0
  3  4  2  0  0  0  0
  4  5  1  0  0  0  0
  4 30  1  0  0  0  0
  5  8  1  0  0  0  0
  6 31  1  0  0  0  0
  6  5  2  0  0  0  0
  7  6  1  0  0  0  0
  8  9  2  0  0  0  0
  9 10  1  0  0  0  0
 10 34  1  0  0  0  0
 10 11  1  0  0  0  0
 11 16  1  0  0  0  0
 12 11  2  0  0  0  0
 12 13  2  0  0  0  0
 13 14  1  0  0  0  0
 14 15  2  0  0  0  0
 15 17  1  0  0  0  0
 16 15  1  0  0  0  0
 17 18  1  0  0  0  0
 17 22  1  0  0  0  0
 18 19  1  0  0  0  0
 19 38  1  0  0  0  0
 19 20  1  0  0  0  0
 21 20  1  0  0  0  0
 21 40  1  0  0  0  0
 22 41  1  0  0  0  0
 22 21  1  0  0  0  0
 23 13  1  0  0  0  0
 23 24  1  0  0  0  0
 24 44  1  0  0  0  0
 24 43  1  0  0  0  0
 25 46  1  0  0  0  0
 25 24  1  0  0  0  0
 26 25  1  0  0  0  0
 26 27  1  0  0  0  0
 27 28  1  0  0  0  0
 27 47  1  0  0  0  0
 28 23  1  0  0  0  0
 28 49  1  0  0  0  0
 29  3  1  0  0  0  0
 32  7  1  0  0  0  0
 33  8  1  0  0  0  0
 35 18  1  0  0  0  0
 36 18  1  0  0  0  0
 37 19  1  0  0  0  0
 39 21  1  0  0  0  0
 42 22  1  0  0  0  0
 45 25  1  0  0  0  0
 48 27  1  0  0  0  0
 50 28  1  0  0  0  0
M  END
>  <Pose>
1

>  <Score>
-7.36

$$$$
