
 OpenBabel03222202113D

 41 44  0  0  0  0  0  0  0  0999 V2000
   23.0640   81.4750   13.4010 F   0  0  0  0  0  0  0  0  0  0  0  0
   22.4550   80.6590   12.4970 C   0  0  0  0  0  0  0  0  0  0  0  0
   22.0180   79.4020   12.9480 C   0  0  0  0  0  0  0  0  0  0  0  0
   21.4100   78.5830   12.0490 C   0  0  0  0  0  0  0  0  0  0  0  0
   21.2040   78.9400   10.6990 C   0  0  0  0  0  0  0  0  0  0  0  0
   21.6470   80.1790   10.2970 C   0  0  0  0  0  0  0  0  0  0  0  0
   22.2670   81.0280   11.1900 C   0  0  0  0  0  0  0  0  0  0  0  0
   21.4800   80.5820    9.0160 F   0  0  0  0  0  0  0  0  0  0  0  0
   22.2310   79.0640   14.2930 N   0  0  0  0  0  0  0  0  0  0  0  0
   21.6160   78.0080   14.9610 C   0  0  0  0  0  0  0  0  0  0  0  0
   20.6170   77.4140   14.5450 O   0  0  0  0  0  0  0  0  0  0  0  0
   22.1850   77.5370   16.2850 C   0  0  0  0  0  0  0  0  0  0  0  0
   21.1480   77.5950   17.2910 N   0  0  0  0  0  0  0  0  0  0  0  0
   20.4470   76.5420   17.6720 N   0  0  0  0  0  0  0  0  0  0  0  0
   19.6030   76.9820   18.5890 N   0  0  0  0  0  0  0  0  0  0  0  0
   19.7590   78.3050   18.7990 C   0  0  0  0  0  0  0  0  0  0  0  0
   20.7430   78.6830   17.9670 C   0  0  0  0  0  0  0  0  0  0  0  0
   20.8890   80.0320   18.1940 C   0  0  0  0  0  0  0  0  0  0  0  0
   21.7230   80.7700   17.6040 O   0  0  0  0  0  0  0  0  0  0  0  0
   20.0290   80.4800   19.1310 N   0  0  0  0  0  0  0  0  0  0  0  0
   19.3190   79.4060   19.5130 C   0  0  0  0  0  0  0  0  0  0  0  0
   18.4060   79.4100   20.3800 O   0  0  0  0  0  0  0  0  0  0  0  0
   19.9260   81.8370   19.5950 C   0  0  0  0  0  0  0  0  0  0  0  0
   20.0020   82.8930   18.7080 C   0  0  0  0  0  0  0  0  0  0  0  0
   19.9090   84.2100   19.1080 C   0  0  0  0  0  0  0  0  0  0  0  0
   19.7330   84.4480   20.4570 C   0  0  0  0  0  0  0  0  0  0  0  0
   19.6510   83.4290   21.3920 C   0  0  0  0  0  0  0  0  0  0  0  0
   19.7520   82.1340   20.9250 C   0  0  0  0  0  0  0  0  0  0  0  0
   19.6060   86.2890   20.9910 B   0  0  0  0  0  0  0  0  0  0  0  0
   21.0480   77.6150   12.3050 H   0  0  0  0  0  0  0  0  0  0  0  0
   20.7180   78.2620   10.0160 H   0  0  0  0  0  0  0  0  0  0  0  0
   22.6160   82.0140   10.8590 H   0  0  0  0  0  0  0  0  0  0  0  0
   22.9200   79.6500   14.8780 H   0  0  0  0  0  0  0  0  0  0  0  0
   23.0220   78.2120   16.5790 H   0  0  0  0  0  0  0  0  0  0  0  0
   22.5990   76.5410   16.1240 H   0  0  0  0  0  0  0  0  0  0  0  0
   20.5310   75.5440   17.3230 H   0  0  0  0  0  0  0  0  0  0  0  0
   18.9130   76.3490   19.0730 H   0  0  0  0  0  0  0  0  0  0  0  0
   20.1390   82.6460   17.6660 H   0  0  0  0  0  0  0  0  0  0  0  0
   19.9710   85.0370   18.3860 H   0  0  0  0  0  0  0  0  0  0  0  0
   19.5140   83.6870   22.4290 H   0  0  0  0  0  0  0  0  0  0  0  0
   19.6880   81.3330   21.6530 H   0  0  0  0  0  0  0  0  0  0  0  0
  2  3  1  0  0  0  0
  2  1  1  0  0  0  0
  3  9  1  0  0  0  0
  4 30  1  0  0  0  0
  4  3  2  0  0  0  0
  5  4  1  0  0  0  0
  6  5  2  0  0  0  0
  6  7  1  0  0  0  0
  7  2  2  0  0  0  0
  8  6  1  0  0  0  0
  9 33  1  0  0  0  0
  9 10  1  0  0  0  0
 10 12  1  0  0  0  0
 11 10  2  0  0  0  0
 12 34  1  0  0  0  0
 12 13  1  0  0  0  0
 13 14  1  0  0  0  0
 13 17  1  0  0  0  0
 14 15  1  0  0  0  0
 15 16  1  0  0  0  0
 15 37  1  0  0  0  0
 16 21  1  0  0  0  0
 17 18  1  0  0  0  0
 17 16  2  0  0  0  0
 18 20  1  0  0  0  0
 19 18  2  0  0  0  0
 20 21  1  0  0  0  0
 20 23  1  0  0  0  0
 21 22  2  0  0  0  0
 23 28  1  0  0  0  0
 24 25  1  0  0  0  0
 24 23  2  0  0  0  0
 25 26  2  0  0  0  0
 26 29  1  0  0  0  0
 26 27  1  0  0  0  0
 27 40  1  0  0  0  0
 28 27  2  0  0  0  0
 28 41  1  0  0  0  0
 31  5  1  0  0  0  0
 32  7  1  0  0  0  0
 35 12  1  0  0  0  0
 36 14  1  0  0  0  0
 38 24  1  0  0  0  0
 39 25  1  0  0  0  0
M  END
>  <Pose>
1

>  <Score>
-7.11

$$$$
