
 OpenBabel03222202113D

 41 44  0  0  0  0  0  0  0  0999 V2000
   22.8290   77.8660   19.2990 F   0  0  0  0  0  0  0  0  0  0  0  0
   22.7410   78.3010   18.0060 C   0  0  0  0  0  0  0  0  0  0  0  0
   23.8270   78.2090   17.1830 C   0  0  0  0  0  0  0  0  0  0  0  0
   23.7470   78.6490   15.8590 C   0  0  0  0  0  0  0  0  0  0  0  0
   22.5900   79.1860   15.3430 C   0  0  0  0  0  0  0  0  0  0  0  0
   21.5070   79.2660   16.2050 C   0  0  0  0  0  0  0  0  0  0  0  0
   21.5740   78.8350   17.5100 C   0  0  0  0  0  0  0  0  0  0  0  0
   22.4490   79.6450   14.0000 N   0  0  0  0  0  0  0  0  0  0  0  0
   21.9390   78.9940   12.9400 C   0  0  0  0  0  0  0  0  0  0  0  0
   21.4940   77.8190   13.0420 O   0  0  0  0  0  0  0  0  0  0  0  0
   21.9740   79.7600   11.7900 C   0  0  0  0  0  0  0  0  0  0  0  0
   22.5230   80.9120   12.1650 C   0  0  0  0  0  0  0  0  0  0  0  0
   22.5800   81.6860   11.0780 N   0  0  0  0  0  0  0  0  0  0  0  0
   22.0750   81.0150   10.0600 N   0  0  0  0  0  0  0  0  0  0  0  0
   21.6870   79.8100   10.4660 N   0  0  0  0  0  0  0  0  0  0  0  0
   21.0830   78.7490    9.7130 C   0  0  0  0  0  0  0  0  0  0  0  0
   19.6820   78.9600    9.3310 C   0  0  0  0  0  0  0  0  0  0  0  0
   18.8770   79.2300   10.2360 O   0  0  0  0  0  0  0  0  0  0  0  0
   19.2840   78.8600    7.9950 N   0  0  0  0  0  0  0  0  0  0  0  0
   18.2850   78.0410    7.4190 C   0  0  0  0  0  0  0  0  0  0  0  0
   17.0350   78.5220    7.1100 C   0  0  0  0  0  0  0  0  0  0  0  0
   16.0220   77.7430    6.5420 C   0  0  0  0  0  0  0  0  0  0  0  0
   16.3290   76.4290    6.2920 C   0  0  0  0  0  0  0  0  0  0  0  0
   17.5690   75.9240    6.5910 C   0  0  0  0  0  0  0  0  0  0  0  0
   18.5450   76.7090    7.1480 C   0  0  0  0  0  0  0  0  0  0  0  0
   14.9800   75.2970    5.5080 B   0  0  0  0  0  0  0  0  0  0  0  0
   22.8180   80.8560   13.5110 C   0  0  0  0  0  0  0  0  0  0  0  0
   23.3430   81.7390   14.2470 O   0  0  0  0  0  0  0  0  0  0  0  0
   24.7370   77.7870   17.5840 H   0  0  0  0  0  0  0  0  0  0  0  0
   24.6060   78.5690   15.2290 H   0  0  0  0  0  0  0  0  0  0  0  0
   20.5860   79.6960   15.7890 H   0  0  0  0  0  0  0  0  0  0  0  0
   20.7210   78.9040   18.1670 H   0  0  0  0  0  0  0  0  0  0  0  0
   22.9720   82.6680   11.0770 H   0  0  0  0  0  0  0  0  0  0  0  0
   21.9850   81.3530    9.0920 H   0  0  0  0  0  0  0  0  0  0  0  0
   21.1110   77.8220   10.3600 H   0  0  0  0  0  0  0  0  0  0  0  0
   21.7160   78.4590    8.8250 H   0  0  0  0  0  0  0  0  0  0  0  0
   19.7910   79.4850    7.2690 H   0  0  0  0  0  0  0  0  0  0  0  0
   16.7280   79.5500    7.2810 H   0  0  0  0  0  0  0  0  0  0  0  0
   15.0460   78.1480    6.3090 H   0  0  0  0  0  0  0  0  0  0  0  0
   17.7990   74.8780    6.3860 H   0  0  0  0  0  0  0  0  0  0  0  0
   19.5400   76.2770    7.3800 H   0  0  0  0  0  0  0  0  0  0  0  0
  2  1  1  0  0  0  0
  3 29  1  0  0  0  0
  3  2  2  0  0  0  0
  4  3  1  0  0  0  0
  5  4  2  0  0  0  0
  5  6  1  0  0  0  0
  6  7  2  0  0  0  0
  7  2  1  0  0  0  0
  7 32  1  0  0  0  0
  8  5  1  0  0  0  0
  9 10  2  0  0  0  0
  9  8  1  0  0  0  0
 11 12  2  0  0  0  0
 11  9  1  0  0  0  0
 12 27  1  0  0  0  0
 13 12  1  0  0  0  0
 14 15  1  0  0  0  0
 14 13  1  0  0  0  0
 15 11  1  0  0  0  0
 16 35  1  0  0  0  0
 16 15  1  0  0  0  0
 17 16  1  0  0  0  0
 17 18  2  0  0  0  0
 19 17  1  0  0  0  0
 20 19  1  0  0  0  0
 21 38  1  0  0  0  0
 21 20  2  0  0  0  0
 22 21  1  0  0  0  0
 23 22  2  0  0  0  0
 23 24  1  0  0  0  0
 24 25  2  0  0  0  0
 25 41  1  0  0  0  0
 25 20  1  0  0  0  0
 26 23  1  0  0  0  0
 27  8  1  0  0  0  0
 27 28  2  0  0  0  0
 30  4  1  0  0  0  0
 31  6  1  0  0  0  0
 33 13  1  0  0  0  0
 34 14  1  0  0  0  0
 36 16  1  0  0  0  0
 37 19  1  0  0  0  0
 39 22  1  0  0  0  0
 40 24  1  0  0  0  0
M  END
>  <Pose>
1

>  <Score>
-6.98

$$$$
