
 OpenBabel03222202113D

 38 41  0  0  1  0  0  0  0  0999 V2000
   23.9640   77.5830   15.9010 I   0  0  0  0  0  0  0  0  0  0  0  0
   22.0720   77.4620   16.8300 C   0  0  0  0  0  0  0  0  0  0  0  0
   20.9410   77.1090   16.0610 C   0  0  0  0  0  0  0  0  0  0  0  0
   19.7080   77.0290   16.6430 C   0  0  0  0  0  0  0  0  0  0  0  0
   19.6170   77.3040   18.0100 C   0  0  0  0  0  0  0  0  0  0  0  0
   20.6930   77.6480   18.7790 C   0  0  0  0  0  0  0  0  0  0  0  0
   21.9440   77.7270   18.1710 C   0  0  0  0  0  0  0  0  0  0  0  0
   21.1120   76.8360   14.6890 N   0  0  0  0  0  0  0  0  0  0  0  0
   20.3440   75.9870   13.8670 C   0  0  1  0  0  0  0  0  0  0  0  0
   20.0200   74.7260   14.1260 N   0  0  0  0  0  0  0  0  0  0  0  0
   19.2850   73.9260   13.3350 C   0  0  0  0  0  0  0  0  0  0  0  0
   18.8200   72.6700   13.3400 N   0  0  0  0  0  0  0  0  0  0  0  0
   18.1340   72.4350   12.2590 O   0  0  0  0  0  0  0  0  0  0  0  0
   18.1180   73.5030   11.5130 N   0  0  0  0  0  0  0  0  0  0  0  0
   18.8200   74.4660   12.1310 C   0  0  0  0  0  0  0  0  0  0  0  0
   19.1110   75.7160   11.8220 N   0  0  0  0  0  0  0  0  0  0  0  0
   19.8450   76.4730   12.6420 C   0  0  0  0  0  0  0  0  0  0  0  0
   19.9610   77.6550   12.0590 N   0  0  0  0  0  0  0  0  0  0  0  0
   19.3070   77.6400   10.8850 N   0  0  0  0  0  0  0  0  0  0  0  0
   18.7610   76.4270   10.7120 C   0  0  0  0  0  0  0  0  0  0  0  0
   17.9500   75.9100    9.5790 C   0  0  0  0  0  0  0  0  0  0  0  0
   18.7670   75.5230    8.4040 C   0  0  0  0  0  0  0  0  0  0  0  0
   19.6180   74.6090    8.4360 O   0  0  0  0  0  0  0  0  0  0  0  0
   18.5870   76.1980    7.2290 O   0  0  0  0  0  0  0  0  0  0  0  0
   17.6810   75.8590    6.2420 C   0  0  0  0  0  0  0  0  0  0  0  0
   17.9280   74.5830    5.5320 C   0  0  0  0  0  0  0  0  0  0  0  0
   18.8010   76.7680   16.1320 H   0  0  0  0  0  0  0  0  0  0  0  0
   18.6360   77.2440   18.4900 H   0  0  0  0  0  0  0  0  0  0  0  0
   20.5920   77.8560   19.8310 H   0  0  0  0  0  0  0  0  0  0  0  0
   22.7880   78.0010   18.7880 H   0  0  0  0  0  0  0  0  0  0  0  0
   21.9430   77.3530   14.2290 H   0  0  0  0  0  0  0  0  0  0  0  0
   17.1220   76.5900    9.3090 H   0  0  0  0  0  0  0  0  0  0  0  0
   17.4450   74.9500    9.9090 H   0  0  0  0  0  0  0  0  0  0  0  0
   16.6640   75.8620    6.7250 H   0  0  0  0  0  0  0  0  0  0  0  0
   17.6080   76.6860    5.4780 H   0  0  0  0  0  0  0  0  0  0  0  0
   17.0490   73.9000    5.7290 H   0  0  0  0  0  0  0  0  0  0  0  0
   18.8050   74.0280    5.9370 H   0  0  0  0  0  0  0  0  0  0  0  0
   18.0040   74.7560    4.4510 H   0  0  0  0  0  0  0  0  0  0  0  0
  1  2  1  0  0  0  0
  2  7  1  0  0  0  0
  3  4  1  0  0  0  0
  3  2  2  0  0  0  0
  4  5  2  0  0  0  0
  5 28  1  0  0  0  0
  5  6  1  0  0  0  0
  6 29  1  0  0  0  0
  7  6  2  0  0  0  0
  7 30  1  0  0  0  0
  8  3  1  0  0  0  0
  9 10  1  0  0  0  0
  9  8  1  1  0  0  0
 11 12  1  0  0  0  0
 11 10  2  0  0  0  0
 13 12  1  0  0  0  0
 14 15  2  0  0  0  0
 14 13  1  0  0  0  0
 15 11  1  0  0  0  0
 16 15  1  0  0  0  0
 16 17  1  0  0  0  0
 17  9  1  0  0  0  0
 18 17  2  0  0  0  0
 19 18  1  0  0  0  0
 20 19  2  0  0  0  0
 20 16  1  0  0  0  0
 21 33  1  0  0  0  0
 21 20  1  0  0  0  0
 22 23  2  0  0  0  0
 22 21  1  0  0  0  0
 24 22  1  0  0  0  0
 25 34  1  0  0  0  0
 25 24  1  0  0  0  0
 26 36  1  0  0  0  0
 26 37  1  0  0  0  0
 26 25  1  0  0  0  0
 27  4  1  0  0  0  0
 31  8  1  0  0  0  0
 32 21  1  0  0  0  0
 35 25  1  0  0  0  0
 38 26  1  0  0  0  0
M  END
>  <Pose>
1

>  <Score>
-6.48

$$$$
