
 OpenBabel03222202113D

 34 37  0  0  0  0  0  0  0  0999 V2000
   24.7550   78.7800   16.3770 I   0  0  0  0  0  0  0  0  0  0  0  0
   22.7580   78.5070   17.0220 C   0  0  0  0  0  0  0  0  0  0  0  0
   21.7570   78.9970   16.2090 C   0  0  0  0  0  0  0  0  0  0  0  0
   20.4620   78.8100   16.6470 C   0  0  0  0  0  0  0  0  0  0  0  0
   20.1910   78.1630   17.8410 C   0  0  0  0  0  0  0  0  0  0  0  0
   21.1990   77.6780   18.6460 C   0  0  0  0  0  0  0  0  0  0  0  0
   22.4970   77.8620   18.2140 C   0  0  0  0  0  0  0  0  0  0  0  0
   22.0510   79.6620   14.9790 N   0  0  0  0  0  0  0  0  0  0  0  0
   21.7630   79.2760   13.7240 C   0  0  0  0  0  0  0  0  0  0  0  0
   21.1550   78.2100   13.4080 O   0  0  0  0  0  0  0  0  0  0  0  0
   22.2150   80.1940   12.7980 C   0  0  0  0  0  0  0  0  0  0  0  0
   22.7880   81.1560   13.5040 C   0  0  0  0  0  0  0  0  0  0  0  0
   23.2250   82.0480   12.5840 N   0  0  0  0  0  0  0  0  0  0  0  0
   22.9270   81.6400   11.3640 N   0  0  0  0  0  0  0  0  0  0  0  0
   22.3020   80.4960   11.4730 N   0  0  0  0  0  0  0  0  0  0  0  0
   21.7850   79.6720   10.4370 C   0  0  0  0  0  0  0  0  0  0  0  0
   22.5940   79.1150    9.4720 C   0  0  0  0  0  0  0  0  0  0  0  0
   22.0590   78.3150    8.4750 C   0  0  0  0  0  0  0  0  0  0  0  0
   20.7080   78.0440    8.4040 C   0  0  0  0  0  0  0  0  0  0  0  0
   19.8970   78.6010    9.3700 C   0  0  0  0  0  0  0  0  0  0  0  0
   20.4190   79.3950   10.3610 C   0  0  0  0  0  0  0  0  0  0  0  0
   22.6910   80.8380   14.8490 C   0  0  0  0  0  0  0  0  0  0  0  0
   23.1470   81.5610   15.7940 O   0  0  0  0  0  0  0  0  0  0  0  0
   19.6730   79.1920   16.0150 H   0  0  0  0  0  0  0  0  0  0  0  0
   19.1690   78.0280   18.1650 H   0  0  0  0  0  0  0  0  0  0  0  0
   20.9540   77.1770   19.5730 H   0  0  0  0  0  0  0  0  0  0  0  0
   23.2910   77.4750   18.8560 H   0  0  0  0  0  0  0  0  0  0  0  0
   23.7270   82.9380   12.7860 H   0  0  0  0  0  0  0  0  0  0  0  0
   23.1480   82.1360   10.4760 H   0  0  0  0  0  0  0  0  0  0  0  0
   23.6590   79.3110    9.5040 H   0  0  0  0  0  0  0  0  0  0  0  0
   22.7250   77.8950    7.7350 H   0  0  0  0  0  0  0  0  0  0  0  0
   20.3230   77.4120    7.6080 H   0  0  0  0  0  0  0  0  0  0  0  0
   18.8330   78.3860    9.3110 H   0  0  0  0  0  0  0  0  0  0  0  0
   19.8080   79.8400   11.1220 H   0  0  0  0  0  0  0  0  0  0  0  0
  1  2  1  0  0  0  0
  2  7  1  0  0  0  0
  3  4  1  0  0  0  0
  3  2  2  0  0  0  0
  4  5  2  0  0  0  0
  5 25  1  0  0  0  0
  5  6  1  0  0  0  0
  6 26  1  0  0  0  0
  7  6  2  0  0  0  0
  7 27  1  0  0  0  0
  8  3  1  0  0  0  0
  9  8  1  0  0  0  0
 10  9  2  0  0  0  0
 11 12  2  0  0  0  0
 11  9  1  0  0  0  0
 12 22  1  0  0  0  0
 13 28  1  0  0  0  0
 13 12  1  0  0  0  0
 14 15  1  0  0  0  0
 14 13  1  0  0  0  0
 15 11  1  0  0  0  0
 16 15  1  0  0  0  0
 17 30  1  0  0  0  0
 17 16  2  0  0  0  0
 18 17  1  0  0  0  0
 19 18  2  0  0  0  0
 19 20  1  0  0  0  0
 20 21  2  0  0  0  0
 21 16  1  0  0  0  0
 21 34  1  0  0  0  0
 22  8  1  0  0  0  0
 22 23  2  0  0  0  0
 24  4  1  0  0  0  0
 29 14  1  0  0  0  0
 31 18  1  0  0  0  0
 32 19  1  0  0  0  0
 33 20  1  0  0  0  0
M  END
>  <Pose>
1

>  <Score>
-5.40

$$$$
