
 OpenBabel03222202113D

 40 43  0  0  0  0  0  0  0  0999 V2000
   20.4970   80.7890   17.4650 I   0  0  0  0  0  0  0  0  0  0  0  0
   21.9590   79.2830   17.1120 C   0  0  0  0  0  0  0  0  0  0  0  0
   22.6870   79.1030   15.9550 C   0  0  0  0  0  0  0  0  0  0  0  0
   23.4840   78.0490   16.1480 N   0  0  0  0  0  0  0  0  0  0  0  0
   23.2700   77.5830   17.3720 N   0  0  0  0  0  0  0  0  0  0  0  0
   22.3450   78.3080   17.9980 C   0  0  0  0  0  0  0  0  0  0  0  0
   24.4200   77.4190   15.1980 C   0  0  0  0  0  0  0  0  0  0  0  0
   22.5400   79.9180   14.7180 C   0  0  0  0  0  0  0  0  0  0  0  0
   23.0730   81.0890   14.8950 O   0  0  0  0  0  0  0  0  0  0  0  0
   21.9570   79.5270   13.5860 N   0  0  0  0  0  0  0  0  0  0  0  0
   21.3530   79.1210   12.4140 C   0  0  0  0  0  0  0  0  0  0  0  0
   21.6280   79.9340   11.2900 C   0  0  0  0  0  0  0  0  0  0  0  0
   22.3100   81.0670   11.1720 N   0  0  0  0  0  0  0  0  0  0  0  0
   22.2770   81.4350    9.9270 O   0  0  0  0  0  0  0  0  0  0  0  0
   21.6030   80.5950    9.2290 N   0  0  0  0  0  0  0  0  0  0  0  0
   21.1730   79.6280   10.0490 C   0  0  0  0  0  0  0  0  0  0  0  0
   20.4170   78.4930    9.8590 C   0  0  0  0  0  0  0  0  0  0  0  0
   20.1310   77.6840   10.9280 C   0  0  0  0  0  0  0  0  0  0  0  0
   20.5890   77.9830   12.1960 C   0  0  0  0  0  0  0  0  0  0  0  0
   19.9590   78.2150    8.5620 N   0  0  0  0  0  0  0  0  0  0  0  0
   18.9850   79.0600    7.8690 C   0  0  0  0  0  0  0  0  0  0  0  0
   17.7870   78.1600    7.6500 C   0  0  0  0  0  0  0  0  0  0  0  0
   17.9720   76.8650    8.1080 O   0  0  0  0  0  0  0  0  0  0  0  0
   19.1000   76.2290    7.6360 C   0  0  0  0  0  0  0  0  0  0  0  0
   20.3390   77.1020    7.7220 C   0  0  0  0  0  0  0  0  0  0  0  0
   21.9540   78.1800   19.0080 H   0  0  0  0  0  0  0  0  0  0  0  0
   25.4390   77.4390   15.6080 H   0  0  0  0  0  0  0  0  0  0  0  0
   24.3840   77.8940   14.2140 H   0  0  0  0  0  0  0  0  0  0  0  0
   24.1000   76.3390   15.0900 H   0  0  0  0  0  0  0  0  0  0  0  0
   21.5130   80.7930   13.3580 H   0  0  0  0  0  0  0  0  0  0  0  0
   19.5390   76.8040   10.7960 H   0  0  0  0  0  0  0  0  0  0  0  0
   20.3330   77.2940   12.9830 H   0  0  0  0  0  0  0  0  0  0  0  0
   18.7580   79.9990    8.3210 H   0  0  0  0  0  0  0  0  0  0  0  0
   19.3940   79.2910    6.8400 H   0  0  0  0  0  0  0  0  0  0  0  0
   17.4130   78.2240    6.6080 H   0  0  0  0  0  0  0  0  0  0  0  0
   16.9570   78.5800    8.2930 H   0  0  0  0  0  0  0  0  0  0  0  0
   19.2810   75.3670    8.3320 H   0  0  0  0  0  0  0  0  0  0  0  0
   18.9800   75.8090    6.6250 H   0  0  0  0  0  0  0  0  0  0  0  0
   20.5140   77.5140    6.6720 H   0  0  0  0  0  0  0  0  0  0  0  0
   21.2510   76.5860    7.9630 H   0  0  0  0  0  0  0  0  0  0  0  0
  2  1  1  0  0  0  0
  2  6  1  0  0  0  0
  3  4  1  0  0  0  0
  3  2  2  0  0  0  0
  4  5  1  0  0  0  0
  5  6  2  0  0  0  0
  6 26  1  0  0  0  0
  7 27  1  0  0  0  0
  7  4  1  0  0  0  0
  8  9  2  0  0  0  0
  8  3  1  0  0  0  0
 10  8  1  0  0  0  0
 11 10  1  0  0  0  0
 12 11  1  0  0  0  0
 13 12  2  0  0  0  0
 14 13  1  0  0  0  0
 15 14  1  0  0  0  0
 15 16  2  0  0  0  0
 16 12  1  0  0  0  0
 17 16  1  0  0  0  0
 17 18  2  0  0  0  0
 18 19  1  0  0  0  0
 19 11  2  0  0  0  0
 19 32  1  0  0  0  0
 20 17  1  0  0  0  0
 21 33  1  0  0  0  0
 21 20  1  0  0  0  0
 22 21  1  0  0  0  0
 22 23  1  0  0  0  0
 22 36  1  0  0  0  0
 24 25  1  0  0  0  0
 24 23  1  0  0  0  0
 24 37  1  0  0  0  0
 25 40  1  0  0  0  0
 25 20  1  0  0  0  0
 28  7  1  0  0  0  0
 29  7  1  0  0  0  0
 30 10  1  0  0  0  0
 31 18  1  0  0  0  0
 34 21  1  0  0  0  0
 35 22  1  0  0  0  0
 38 24  1  0  0  0  0
 39 25  1  0  0  0  0
M  END
>  <Pose>
1

>  <Score>
-6.30

$$$$
