
 OpenBabel03222202113D

 50 53  0  0  0  0  0  0  0  0999 V2000
   26.3460   79.2530   16.4300 I   0  0  0  0  0  0  0  0  0  0  0  0
   24.2710   79.0500   16.6030 C   0  0  0  0  0  0  0  0  0  0  0  0
   23.3980   79.9860   16.1420 C   0  0  0  0  0  0  0  0  0  0  0  0
   22.0170   79.7890   16.2900 C   0  0  0  0  0  0  0  0  0  0  0  0
   21.4810   78.6850   16.8850 C   0  0  0  0  0  0  0  0  0  0  0  0
   22.4040   77.7370   17.3510 C   0  0  0  0  0  0  0  0  0  0  0  0
   23.7570   77.9250   17.2080 C   0  0  0  0  0  0  0  0  0  0  0  0
   20.0900   78.3880   17.0870 C   0  0  0  0  0  0  0  0  0  0  0  0
   19.4720   77.3240   16.8170 N   0  0  0  0  0  0  0  0  0  0  0  0
   20.0450   76.2270   16.2630 N   0  0  0  0  0  0  0  0  0  0  0  0
   19.8470   75.9590   14.8540 C   0  0  0  0  0  0  0  0  0  0  0  0
   20.1230   76.9050   13.9410 N   0  0  0  0  0  4  0  0  0  0  0  0
   19.9470   76.6790   12.6330 C   0  0  0  0  0  0  0  0  0  0  0  0
   19.4850   75.4670   12.2850 N   0  0  0  0  0  0  0  0  0  0  0  0
   19.1980   74.4930   13.1720 C   0  0  0  0  0  0  0  0  0  0  0  0
   19.3870   74.7600   14.4770 N   0  0  0  0  0  0  0  0  0  0  0  0
   18.7130   73.2360   12.7190 N   0  0  0  0  0  0  0  0  0  0  0  0
   17.4520   73.1670   12.0180 C   0  0  0  0  0  0  0  0  0  0  0  0
   16.8200   71.8360   12.4510 C   0  0  0  0  0  0  0  0  0  0  0  0
   17.6070   70.8280   11.9600 O   0  0  0  0  0  0  0  0  0  0  0  0
   18.8950   70.7850   12.4170 C   0  0  0  0  0  0  0  0  0  0  0  0
   19.4620   72.0500   12.9520 C   0  0  0  0  0  0  0  0  0  0  0  0
   20.2340   77.6680   11.6440 N   0  0  0  0  0  0  0  0  0  0  0  0
   21.2520   78.6630   11.8000 C   0  0  0  0  0  0  0  0  0  0  0  0
   21.1300   79.6370   10.6260 C   0  0  0  0  0  0  0  0  0  0  0  0
   19.8250   80.0660   10.4540 O   0  0  0  0  0  0  0  0  0  0  0  0
   18.9620   79.0620   10.0890 C   0  0  0  0  0  0  0  0  0  0  0  0
   19.4620   77.6770   10.4130 C   0  0  0  0  0  0  0  0  0  0  0  0
   23.7910   80.8710   15.6670 H   0  0  0  0  0  0  0  0  0  0  0  0
   21.4240   80.5700   15.9000 H   0  0  0  0  0  0  0  0  0  0  0  0
   22.0590   76.8370   17.8330 H   0  0  0  0  0  0  0  0  0  0  0  0
   24.4040   77.1420   17.5970 H   0  0  0  0  0  0  0  0  0  0  0  0
   19.4340   79.1780   17.5420 H   0  0  0  0  0  0  0  0  0  0  0  0
   20.6070   75.5670   16.8430 H   0  0  0  0  0  0  0  0  0  0  0  0
   17.6290   73.1630   10.9340 H   0  0  0  0  0  0  0  0  0  0  0  0
   16.7550   73.9710   12.3350 H   0  0  0  0  0  0  0  0  0  0  0  0
   16.7150   71.8540   13.5370 H   0  0  0  0  0  0  0  0  0  0  0  0
   15.8400   71.7870   11.9540 H   0  0  0  0  0  0  0  0  0  0  0  0
   19.0490   69.9130   13.1220 H   0  0  0  0  0  0  0  0  0  0  0  0
   19.5340   70.4970   11.5290 H   0  0  0  0  0  0  0  0  0  0  0  0
   20.5130   72.2430   12.5880 H   0  0  0  0  0  0  0  0  0  0  0  0
   19.6070   71.8950   14.0630 H   0  0  0  0  0  0  0  0  0  0  0  0
   21.2380   79.1910   12.7590 H   0  0  0  0  0  0  0  0  0  0  0  0
   22.2390   78.1490   11.6780 H   0  0  0  0  0  0  0  0  0  0  0  0
   21.5390   79.1180    9.7200 H   0  0  0  0  0  0  0  0  0  0  0  0
   21.7570   80.5320   10.8080 H   0  0  0  0  0  0  0  0  0  0  0  0
   18.7370   79.0650    8.9880 H   0  0  0  0  0  0  0  0  0  0  0  0
   18.0070   79.2140   10.6610 H   0  0  0  0  0  0  0  0  0  0  0  0
   20.0900   77.3210    9.5690 H   0  0  0  0  0  0  0  0  0  0  0  0
   18.5510   77.0300   10.5090 H   0  0  0  0  0  0  0  0  0  0  0  0
  1  2  1  0  0  0  0
  2  7  1  0  0  0  0
  3  4  1  0  0  0  0
  3  2  2  0  0  0  0
  4  5  2  0  0  0  0
  5  8  1  0  0  0  0
  5  6  1  0  0  0  0
  6 31  1  0  0  0  0
  7  6  2  0  0  0  0
  7 32  1  0  0  0  0
  8 33  1  0  0  0  0
  9  8  2  0  0  0  0
 10  9  1  0  0  0  0
 10 34  1  0  0  0  0
 11 10  1  0  0  0  0
 12 11  2  0  0  0  0
 13 12  2  0  0  0  0
 14 13  1  0  0  0  0
 14 15  2  0  0  0  0
 15 16  1  0  0  0  0
 16 11  1  0  0  0  0
 17 22  1  0  0  0  0
 17 15  1  0  0  0  0
 18 36  1  0  0  0  0
 18 19  1  0  0  0  0
 18 17  1  0  0  0  0
 19 37  1  0  0  0  0
 20 21  1  0  0  0  0
 20 19  1  0  0  0  0
 21 22  1  0  0  0  0
 21 39  1  0  0  0  0
 22 42  1  0  0  0  0
 23 24  1  0  0  0  0
 23 13  1  0  0  0  0
 24 43  1  0  0  0  0
 25 46  1  0  0  0  0
 25 24  1  0  0  0  0
 26 25  1  0  0  0  0
 27 28  1  0  0  0  0
 27 26  1  0  0  0  0
 27 48  1  0  0  0  0
 28 50  1  0  0  0  0
 28 23  1  0  0  0  0
 29  3  1  0  0  0  0
 30  4  1  0  0  0  0
 35 18  1  0  0  0  0
 38 19  1  0  0  0  0
 40 21  1  0  0  0  0
 41 22  1  0  0  0  0
 44 24  1  0  0  0  0
 45 25  1  0  0  0  0
 47 27  1  0  0  0  0
 49 28  1  0  0  0  0
M  END
>  <Pose>
1

>  <Score>
-7.90

$$$$
