
 OpenBabel03222202113D

 52 56  0  0  1  0  0  0  0  0999 V2000
   17.1360   75.4030    5.8000 I   0  0  0  0  0  0  0  0  0  0  0  0
   18.3250   76.2920    7.2840 C   0  0  0  0  0  0  0  0  0  0  0  0
   19.1510   75.5030    8.0770 C   0  0  0  0  0  0  0  0  0  0  0  0
   19.9280   76.0720    9.0440 C   0  0  0  0  0  0  0  0  0  0  0  0
   19.9380   77.4370    9.2860 C   0  0  0  0  0  0  0  0  0  0  0  0
   19.1140   78.2310    8.4960 C   0  0  0  0  0  0  0  0  0  0  0  0
   18.3330   77.6460    7.5210 C   0  0  0  0  0  0  0  0  0  0  0  0
   20.7470   78.0270   10.2920 N   0  0  0  0  0  0  0  0  0  0  0  0
   20.4600   77.8820   11.5970 C   0  0  0  0  0  0  0  0  0  0  0  0
   21.2320   78.4440   12.5910 C   0  0  2  0  0  0  0  0  0  0  0  0
   22.3250   79.1730   12.1660 C   0  0  0  0  0  0  0  0  0  0  0  0
   23.1330   79.7530   12.9540 O   0  0  0  0  0  0  0  0  0  0  0  0
   22.6280   79.3280   10.8400 N   0  0  0  0  0  0  0  0  0  0  0  0
   21.8240   78.7450    9.9340 C   0  0  0  0  0  0  0  0  0  0  0  0
   22.0610   78.8590    8.7050 O   0  0  0  0  0  0  0  0  0  0  0  0
   20.9970   78.3200   14.0180 C   0  0  1  0  0  0  0  0  0  0  0  0
   20.2620   77.1810   14.4670 N   0  0  0  0  0  4  0  0  0  0  0  0
   20.9100   75.9190   14.2350 C   0  0  0  0  0  0  0  0  0  0  0  0
   22.3480   76.0580   13.7820 C   0  0  0  0  0  0  0  0  0  0  0  0
   23.0190   77.1010   14.6430 C   0  0  0  0  0  0  0  0  0  0  0  0
   22.2990   78.2610   14.7740 C   0  0  0  0  0  0  0  0  0  0  0  0
   22.7680   79.2890   15.5560 C   0  0  0  0  0  0  0  0  0  0  0  0
   23.9850   79.0980   16.1940 C   0  0  0  0  0  0  0  0  0  0  0  0
   24.7230   77.9380   16.0720 C   0  0  0  0  0  0  0  0  0  0  0  0
   24.2090   76.9210   15.2690 C   0  0  0  0  0  0  0  0  0  0  0  0
   25.8770   78.0700   16.8280 O   0  0  0  0  0  0  0  0  0  0  0  0
   26.0700   79.4570   17.1460 C   0  0  0  0  0  0  0  0  0  0  0  0
   24.7370   79.9210   17.0470 O   0  0  0  0  0  0  0  0  0  0  0  0
   22.0420   80.4390   15.6820 O   0  0  0  0  0  0  0  0  0  0  0  0
   21.2550   80.8240   16.7640 C   0  0  0  0  0  0  0  0  0  0  0  0
   20.2100   77.3170   15.9470 C   0  0  0  0  0  0  0  0  0  0  0  0
   19.3630   77.1530   11.9780 O   0  0  0  0  0  0  0  0  0  0  0  0
   19.1500   74.4410    7.8970 H   0  0  0  0  0  0  0  0  0  0  0  0
   20.5670   75.4520    9.6570 H   0  0  0  0  0  0  0  0  0  0  0  0
   19.1250   79.3020    8.6890 H   0  0  0  0  0  0  0  0  0  0  0  0
   17.6990   78.2580    6.9120 H   0  0  0  0  0  0  0  0  0  0  0  0
   23.4500   79.8760   10.5260 H   0  0  0  0  0  0  0  0  0  0  0  0
   20.4930   79.2380   14.3660 H   0  0  0  0  0  0  0  0  0  0  0  0
   19.2550   77.1580   14.2340 H   0  0  0  0  0  0  0  0  0  0  0  0
   20.3780   75.3250   13.4750 H   0  0  0  0  0  0  0  0  0  0  0  0
   20.9460   75.2640   15.1490 H   0  0  0  0  0  0  0  0  0  0  0  0
   22.4730   76.2500   12.7100 H   0  0  0  0  0  0  0  0  0  0  0  0
   22.8840   75.1120   14.0030 H   0  0  0  0  0  0  0  0  0  0  0  0
   24.7400   76.0010   15.1390 H   0  0  0  0  0  0  0  0  0  0  0  0
   26.6330   79.9320   16.3090 H   0  0  0  0  0  0  0  0  0  0  0  0
   26.5200   79.6020   18.1260 H   0  0  0  0  0  0  0  0  0  0  0  0
   20.1960   80.9190   16.3930 H   0  0  0  0  0  0  0  0  0  0  0  0
   21.2960   80.1440   17.6310 H   0  0  0  0  0  0  0  0  0  0  0  0
   21.5040   81.8500   17.1450 H   0  0  0  0  0  0  0  0  0  0  0  0
   19.6650   78.2180   16.2200 H   0  0  0  0  0  0  0  0  0  0  0  0
   21.2390   77.2440   16.3230 H   0  0  0  0  0  0  0  0  0  0  0  0
   19.6740   76.4150   16.3490 H   0  0  0  0  0  0  0  0  0  0  0  0
  1  2  1  0  0  0  0
  2  7  2  0  0  0  0
  2  3  1  0  0  0  0
  3  4  2  0  0  0  0
  4  5  1  0  0  0  0
  4 34  1  0  0  0  0
  5  8  1  0  0  0  0
  6 35  1  0  0  0  0
  6  5  2  0  0  0  0
  7  6  1  0  0  0  0
  8  9  1  0  0  0  0
  9 32  2  0  0  0  0
 10  9  1  1  0  0  0
 10 16  1  0  0  0  0
 11 10  1  0  0  0  0
 11 12  2  0  0  0  0
 13 11  1  0  0  0  0
 14  8  1  0  0  0  0
 14 13  1  0  0  0  0
 15 14  2  0  0  0  0
 16 38  1  1  0  0  0
 16 17  1  0  0  0  0
 16 21  1  0  0  0  0
 17 31  1  0  0  0  0
 18 17  1  0  0  0  0
 18 41  1  0  0  0  0
 19 43  1  0  0  0  0
 19 18  1  0  0  0  0
 19 20  1  0  0  0  0
 20 21  2  0  0  0  0
 20 25  1  0  0  0  0
 21 22  1  0  0  0  0
 22 29  1  0  0  0  0
 22 23  2  0  0  0  0
 23 28  1  0  0  0  0
 24 23  1  0  0  0  0
 24 26  1  0  0  0  0
 25 24  2  0  0  0  0
 26 27  1  0  0  0  0
 27 46  1  0  0  0  0
 28 27  1  0  0  0  0
 29 30  1  0  0  0  0
 30 49  1  0  0  0  0
 30 48  1  0  0  0  0
 31 50  1  0  0  0  0
 31 51  1  0  0  0  0
 31 52  1  0  0  0  0
 33  3  1  0  0  0  0
 36  7  1  0  0  0  0
 37 13  1  0  0  0  0
 39 17  1  0  0  0  0
 40 18  1  0  0  0  0
 42 19  1  0  0  0  0
 44 25  1  0  0  0  0
 45 27  1  0  0  0  0
 47 30  1  0  0  0  0
M  END
>  <Pose>
1

>  <Score>
-6.64

$$$$
