
 OpenBabel03222202113D

 44 47  0  0  1  0  0  0  0  0999 V2000
   25.2920   78.7390   16.7990 I   0  0  0  0  0  0  0  0  0  0  0  0
   23.8710   78.9910   15.2560 C   0  0  0  0  0  0  0  0  0  0  0  0
   23.2650   77.9190   14.6360 C   0  0  0  0  0  0  0  0  0  0  0  0
   22.3400   78.1130   13.6300 C   0  0  0  0  0  0  0  0  0  0  0  0
   21.9870   79.3770   13.2050 C   0  0  0  0  0  0  0  0  0  0  0  0
   22.6030   80.4320   13.8360 C   0  0  0  0  0  0  0  0  0  0  0  0
   23.5310   80.2610   14.8450 C   0  0  0  0  0  0  0  0  0  0  0  0
   21.0160   79.5280   12.1520 N   0  0  0  0  0  0  0  0  0  0  0  0
   19.8080   78.8090   11.9630 C   0  0  0  0  0  0  0  0  0  0  0  0
   19.2060   78.2000   12.8850 O   0  0  0  0  0  0  0  0  0  0  0  0
   19.3900   78.9000   10.5370 C   0  0  1  0  0  0  0  0  0  0  0  0
   19.9730   80.2450   10.1360 C   0  0  0  0  0  0  0  0  0  0  0  0
   21.0940   80.4560   11.0730 C   0  0  0  0  0  0  0  0  0  0  0  0
   22.0080   81.3250   10.9670 O   0  0  0  0  0  0  0  0  0  0  0  0
   19.9440   77.8130    9.8420 N   0  0  0  0  0  0  0  0  0  0  0  0
   19.5180   76.5060   10.0820 C   0  0  0  0  0  0  0  0  0  0  0  0
   19.7970   75.6950    8.7900 C   0  0  0  0  0  0  0  0  0  0  0  0
   19.2590   76.4450    7.6650 N   0  0  0  0  0  0  0  0  0  0  0  0
   19.8100   77.7600    7.4490 C   0  0  0  0  0  0  0  0  0  0  0  0
   20.6640   78.0980    8.6680 C   0  0  0  0  0  0  0  0  0  0  0  0
   18.2490   75.9070    6.8420 C   0  0  0  0  0  0  0  0  0  0  0  0
   17.0430   76.5260    6.7280 N   0  0  0  0  0  0  0  0  0  0  0  0
   16.0550   76.0730    5.9600 C   0  0  0  0  0  0  0  0  0  0  0  0
   16.2230   74.9090    5.2220 C   0  0  0  0  0  0  0  0  0  0  0  0
   17.4510   74.2830    5.3430 C   0  0  0  0  0  0  0  0  0  0  0  0
   18.4190   74.7750    6.1270 N   0  0  0  0  0  0  0  0  0  0  0  0
   23.5270   76.9300   14.9540 H   0  0  0  0  0  0  0  0  0  0  0  0
   21.8580   77.2660   13.1340 H   0  0  0  0  0  0  0  0  0  0  0  0
   22.3420   81.4320   13.5180 H   0  0  0  0  0  0  0  0  0  0  0  0
   24.0100   81.1110   15.3350 H   0  0  0  0  0  0  0  0  0  0  0  0
   18.2930   78.9960   10.4530 H   0  0  0  0  0  0  0  0  0  0  0  0
   20.3690   80.2540    9.1050 H   0  0  0  0  0  0  0  0  0  0  0  0
   19.2330   81.0550   10.3040 H   0  0  0  0  0  0  0  0  0  0  0  0
   19.9530   75.9560   10.9180 H   0  0  0  0  0  0  0  0  0  0  0  0
   18.3880   76.4980   10.1220 H   0  0  0  0  0  0  0  0  0  0  0  0
   19.2920   74.7110    8.8210 H   0  0  0  0  0  0  0  0  0  0  0  0
   20.8860   75.4970    8.6840 H   0  0  0  0  0  0  0  0  0  0  0  0
   20.5200   77.7770    6.5890 H   0  0  0  0  0  0  0  0  0  0  0  0
   19.0460   78.5440    7.3140 H   0  0  0  0  0  0  0  0  0  0  0  0
   20.9930   79.1630    8.6280 H   0  0  0  0  0  0  0  0  0  0  0  0
   21.6210   77.5130    8.5730 H   0  0  0  0  0  0  0  0  0  0  0  0
   15.1070   76.5840    5.8870 H   0  0  0  0  0  0  0  0  0  0  0  0
   15.4230   74.5360    4.5980 H   0  0  0  0  0  0  0  0  0  0  0  0
   17.5830   73.3700    4.7650 H   0  0  0  0  0  0  0  0  0  0  0  0
  2  1  1  0  0  0  0
  3 27  1  0  0  0  0
  3  2  2  0  0  0  0
  4  3  1  0  0  0  0
  5  4  2  0  0  0  0
  5  6  1  0  0  0  0
  6  7  2  0  0  0  0
  7  2  1  0  0  0  0
  7 30  1  0  0  0  0
  8  5  1  0  0  0  0
  9  8  1  0  0  0  0
  9 10  2  0  0  0  0
 11 31  1  6  0  0  0
 11  9  1  0  0  0  0
 12 33  1  0  0  0  0
 12 11  1  0  0  0  0
 12 13  1  0  0  0  0
 13  8  1  0  0  0  0
 14 13  2  0  0  0  0
 15 16  1  0  0  0  0
 15 11  1  0  0  0  0
 16 35  1  0  0  0  0
 16 34  1  0  0  0  0
 17 36  1  0  0  0  0
 17 16  1  0  0  0  0
 18 17  1  0  0  0  0
 19 18  1  0  0  0  0
 19 20  1  0  0  0  0
 20 15  1  0  0  0  0
 21 18  1  0  0  0  0
 22 21  2  0  0  0  0
 23 22  1  0  0  0  0
 24 25  1  0  0  0  0
 24 23  2  0  0  0  0
 25 26  2  0  0  0  0
 26 21  1  0  0  0  0
 28  4  1  0  0  0  0
 29  6  1  0  0  0  0
 32 12  1  0  0  0  0
 37 17  1  0  0  0  0
 38 19  1  0  0  0  0
 39 19  1  0  0  0  0
 40 20  1  0  0  0  0
 41 20  1  0  0  0  0
 42 23  1  0  0  0  0
 43 24  1  0  0  0  0
 44 25  1  0  0  0  0
M  END
>  <Pose>
1

>  <Score>
-6.17

$$$$
