
 OpenBabel03222202113D

 44 47  0  0  1  0  0  0  0  0999 V2000
   22.5590   79.4740   13.3590 I   0  0  0  0  0  0  0  0  0  0  0  0
   21.3970   77.9680   14.2680 C   0  0  0  0  0  0  0  0  0  0  0  0
   21.1200   77.8530   15.5980 C   0  0  0  0  0  0  0  0  0  0  0  0
   20.3270   76.7090   15.6920 C   0  0  0  0  0  0  0  0  0  0  0  0
   20.1230   76.1500   14.4990 N   0  0  0  0  0  0  0  0  0  0  0  0
   20.7740   76.9130   13.6220 C   0  0  0  0  0  0  0  0  0  0  0  0
   19.3700   74.9750   14.1750 C   0  0  2  0  0  0  0  0  0  0  0  0
   20.1480   73.8300   14.0520 O   0  0  0  0  0  0  0  0  0  0  0  0
   19.2240   72.8870   13.6100 C   0  0  1  0  0  0  0  0  0  0  0  0
   18.3260   73.5840   12.6130 C   0  0  2  0  0  0  0  0  0  0  0  0
   18.7490   75.0490   12.7780 C   0  0  0  0  0  0  0  0  0  0  0  0
   16.9850   73.5220   12.9940 O   0  0  0  0  0  0  0  0  0  0  0  0
   19.9440   71.7740   12.8350 C   0  0  0  0  0  0  0  0  0  0  0  0
   19.0960   70.6620   12.7530 O   0  0  0  0  0  0  0  0  0  0  0  0
   19.8980   76.3480   16.9130 N   0  0  0  0  0  0  0  0  0  0  0  0
   20.2230   77.0620   18.0020 C   0  0  0  0  0  0  0  0  0  0  0  0
   20.9840   78.1570   17.9080 N   0  0  0  0  0  0  0  0  0  0  0  0
   21.4630   78.5970   16.7040 C   0  0  0  0  0  0  0  0  0  0  0  0
   22.2690   79.7700   16.6640 N   0  0  0  0  0  0  0  0  0  0  0  0
   23.6020   79.6660   16.1740 C   0  0  0  0  0  0  0  0  0  0  0  0
   24.1200   80.7030   15.6880 O   0  0  0  0  0  0  0  0  0  0  0  0
   24.3850   78.4610   16.2020 C   0  0  0  0  0  0  0  0  0  0  0  0
   25.2840   78.2200   17.2040 C   0  0  0  0  0  0  0  0  0  0  0  0
   26.0490   77.0530   17.2470 C   0  0  0  0  0  0  0  0  0  0  0  0
   25.9010   76.1190   16.2640 C   0  0  0  0  0  0  0  0  0  0  0  0
   25.0080   76.3330   15.2470 C   0  0  0  0  0  0  0  0  0  0  0  0
   24.2510   77.5100   15.2230 C   0  0  0  0  0  0  0  0  0  0  0  0
   20.8450   76.7810   12.5380 H   0  0  0  0  0  0  0  0  0  0  0  0
   18.5340   74.8230   14.8690 H   0  0  0  0  0  0  0  0  0  0  0  0
   18.6590   72.4510   14.4600 H   0  0  0  0  0  0  0  0  0  0  0  0
   18.4570   73.2350   11.5820 H   0  0  0  0  0  0  0  0  0  0  0  0
   19.5520   75.2470   12.0470 H   0  0  0  0  0  0  0  0  0  0  0  0
   17.9020   75.7360   12.7320 H   0  0  0  0  0  0  0  0  0  0  0  0
   16.7040   74.4780   13.1310 H   0  0  0  0  0  0  0  0  0  0  0  0
   20.1740   72.0930   11.8110 H   0  0  0  0  0  0  0  0  0  0  0  0
   20.8430   71.4810   13.3870 H   0  0  0  0  0  0  0  0  0  0  0  0
   19.5680   69.8290   13.0720 H   0  0  0  0  0  0  0  0  0  0  0  0
   19.8550   76.7370   18.9870 H   0  0  0  0  0  0  0  0  0  0  0  0
   21.9760   80.7060   16.9600 H   0  0  0  0  0  0  0  0  0  0  0  0
   25.4710   78.9090   18.0320 H   0  0  0  0  0  0  0  0  0  0  0  0
   26.7500   76.8770   18.0400 H   0  0  0  0  0  0  0  0  0  0  0  0
   26.4820   75.1800   16.2520 H   0  0  0  0  0  0  0  0  0  0  0  0
   24.9050   75.5890   14.4840 H   0  0  0  0  0  0  0  0  0  0  0  0
   23.5760   77.6180   14.4090 H   0  0  0  0  0  0  0  0  0  0  0  0
  1  2  1  0  0  0  0
  2  3  1  0  0  0  0
  3  4  2  0  0  0  0
  3 18  1  0  0  0  0
  4 15  1  0  0  0  0
  5  4  1  0  0  0  0
  6  2  2  0  0  0  0
  6  5  1  0  0  0  0
  7  5  1  0  0  0  0
  7 29  1  1  0  0  0
  8  7  1  0  0  0  0
  9  8  1  0  0  0  0
  9 30  1  1  0  0  0
 10 31  1  6  0  0  0
 10 11  1  0  0  0  0
 10 12  1  0  0  0  0
 10  9  1  0  0  0  0
 11  7  1  0  0  0  0
 12 34  1  0  0  0  0
 13 36  1  0  0  0  0
 13  9  1  0  0  0  0
 14 13  1  0  0  0  0
 14 37  1  0  0  0  0
 15 16  2  0  0  0  0
 16 38  1  0  0  0  0
 17 16  1  0  0  0  0
 18 17  2  0  0  0  0
 19 18  1  0  0  0  0
 19 39  1  0  0  0  0
 20 22  1  0  0  0  0
 20 19  1  0  0  0  0
 21 20  2  0  0  0  0
 22 23  1  0  0  0  0
 23 24  2  0  0  0  0
 23 40  1  0  0  0  0
 24 41  1  0  0  0  0
 25 24  1  0  0  0  0
 26 25  2  0  0  0  0
 27 26  1  0  0  0  0
 27 22  2  0  0  0  0
 28  6  1  0  0  0  0
 32 11  1  0  0  0  0
 33 11  1  0  0  0  0
 35 13  1  0  0  0  0
 42 25  1  0  0  0  0
 43 26  1  0  0  0  0
 44 27  1  0  0  0  0
M  END
>  <Pose>
1

>  <Score>
-6.35

$$$$
