
 OpenBabel03222202113D

 35 38  0  0  1  0  0  0  0  0999 V2000
   23.0800   79.7900   15.7680 B   0  0  0  0  0  0  0  0  0  0  0  0
   21.8850   78.3270   15.5550 C   0  0  0  0  0  0  0  0  0  0  0  0
   21.2810   78.0040   14.3440 C   0  0  1  0  0  0  0  0  0  0  0  0
   20.4150   76.9270   14.2410 C   0  0  0  0  0  0  0  0  0  0  0  0
   20.1390   76.1530   15.3500 C   0  0  0  0  0  0  0  0  0  0  0  0
   20.7280   76.4640   16.5430 C   0  0  0  0  0  0  0  0  0  0  0  0
   21.5840   77.5320   16.6380 C   0  0  0  0  0  0  0  0  0  0  0  0
   22.1530   77.7880   17.8990 O   0  0  0  0  0  0  0  0  0  0  0  0
   20.3020   75.3460   18.0450 B   0  0  0  0  0  0  0  0  0  0  0  0
   19.8040   76.5860   13.0530 C   0  0  0  0  0  0  0  0  0  0  0  0
   20.0860   77.3630   11.9500 C   0  0  0  0  0  0  0  0  0  0  0  0
   21.0130   78.4840   12.1510 C   0  0  0  0  0  0  0  0  0  0  0  0
   21.2880   79.2620   11.0250 C   0  0  1  0  0  0  0  0  0  0  0  0
   20.7080   78.9700    9.8120 C   0  0  0  0  0  0  0  0  0  0  0  0
   20.9860   79.6980    8.8260 O   0  0  0  0  0  0  0  0  0  0  0  0
   19.8330   77.9010    9.6540 C   0  0  0  0  0  0  0  0  0  0  0  0
   19.5200   77.0980   10.7130 C   0  0  0  0  0  0  0  0  0  0  0  0
   19.0730   77.5660    7.9320 B   0  0  0  0  0  0  0  0  0  0  0  0
   22.4920   80.7470   11.2150 B   0  0  0  0  0  0  0  0  0  0  0  0
   21.5630   78.7560   13.3110 O   0  0  0  0  0  0  0  0  0  0  0  0
   18.8840   75.4530   12.9490 C   0  0  0  0  0  0  0  0  0  0  0  0
   17.5160   75.6560   12.9160 C   0  0  0  0  0  0  0  0  0  0  0  0
   16.6290   74.6050   12.8230 C   0  0  0  0  0  0  0  0  0  0  0  0
   17.1310   73.3210   12.7620 C   0  0  0  0  0  0  0  0  0  0  0  0
   18.4700   73.0760   12.7910 C   0  0  0  0  0  0  0  0  0  0  0  0
   19.3420   74.1390   12.8850 C   0  0  0  0  0  0  0  0  0  0  0  0
   20.7620   73.8870   12.9220 C   0  0  0  0  0  0  0  0  0  0  0  0
   21.3170   73.2920   13.8860 O   0  0  0  0  0  0  0  0  0  0  0  0
   21.5790   74.3030   11.8730 O   0  0  0  0  0  0  0  0  0  0  0  0
   19.0220   71.4110   12.7070 Cl  0  0  0  0  0  0  0  0  0  0  0  0
   16.8980   77.3100   12.9940 Cl  0  0  0  0  0  0  0  0  0  0  0  0
   19.4480   75.3020   15.2470 H   0  0  0  0  0  0  0  0  0  0  0  0
   18.8500   76.2570   10.6460 H   0  0  0  0  0  0  0  0  0  0  0  0
   15.5500   74.7990   12.8000 H   0  0  0  0  0  0  0  0  0  0  0  0
   16.4390   72.4900   12.6890 H   0  0  0  0  0  0  0  0  0  0  0  0
  2  1  1  0  0  0  0
  2  7  2  0  0  0  0
  3 20  1  1  0  0  0
  3  2  1  0  0  0  0
  4  3  1  0  0  0  0
  4  5  1  0  0  0  0
  5  6  2  0  0  0  0
  6  7  1  0  0  0  0
  6  9  1  0  0  0  0
  7  8  1  0  0  0  0
 10  4  2  0  0  0  0
 11 12  2  0  0  0  0
 11 10  1  0  0  0  0
 12 20  1  0  0  0  0
 13 19  1  1  0  0  0
 13 12  1  0  0  0  0
 14 13  1  0  0  0  0
 15 14  2  0  0  0  0
 16 14  1  0  0  0  0
 16 17  2  0  0  0  0
 17 11  1  0  0  0  0
 18 16  1  0  0  0  0
 21 10  1  0  0  0  0
 22 21  1  0  0  0  0
 22 31  1  0  0  0  0
 23 22  2  0  0  0  0
 24 25  2  0  0  0  0
 24 23  1  0  0  0  0
 25 26  1  0  0  0  0
 26 27  1  0  0  0  0
 26 21  2  0  0  0  0
 27 28  1  0  0  0  0
 29 27  2  0  0  0  0
 30 25  1  0  0  0  0
 32  5  1  0  0  0  0
 33 17  1  0  0  0  0
 34 23  1  0  0  0  0
 35 24  1  0  0  0  0
M  END
>  <Pose>
1

>  <Score>
-4.17

$$$$
