
 OpenBabel03222202113D

 35 39  0  0  0  0  0  0  0  0999 V2000
   18.5940   74.6440   12.7220 B   0  0  0  0  0  0  0  0  0  0  0  0
   19.5480   75.4700   14.1530 C   0  0  0  0  0  0  0  0  0  0  0  0
   20.3300   76.6210   13.9450 C   0  0  0  0  0  0  0  0  0  0  0  0
   21.0260   77.2410   14.9400 C   0  0  0  0  0  0  0  0  0  0  0  0
   20.9470   76.6920   16.2220 C   0  0  0  0  0  0  0  0  0  0  0  0
   20.1890   75.5770   16.4230 C   0  0  0  0  0  0  0  0  0  0  0  0
   19.4820   74.9450   15.4200 C   0  0  0  0  0  0  0  0  0  0  0  0
   18.7200   73.7980   15.7010 O   0  0  0  0  0  0  0  0  0  0  0  0
   20.0750   74.8200   18.1710 B   0  0  0  0  0  0  0  0  0  0  0  0
   21.8280   78.4330   14.6940 C   0  0  0  0  0  0  0  0  0  0  0  0
   21.2440   79.4820   15.4640 O   0  0  0  0  0  0  0  0  0  0  0  0
   22.1170   79.9880   16.3880 C   0  0  0  0  0  0  0  0  0  0  0  0
   21.8690   80.9140   17.1940 O   0  0  0  0  0  0  0  0  0  0  0  0
   23.3470   79.2390   16.2260 C   0  0  0  0  0  0  0  0  0  0  0  0
   23.2140   78.3020   15.2270 C   0  0  0  0  0  0  0  0  0  0  0  0
   24.2790   77.5110   14.9440 C   0  0  0  0  0  0  0  0  0  0  0  0
   25.4530   77.6570   15.6520 C   0  0  0  0  0  0  0  0  0  0  0  0
   25.5910   78.5930   16.6540 C   0  0  0  0  0  0  0  0  0  0  0  0
   24.5240   79.4010   16.9510 C   0  0  0  0  0  0  0  0  0  0  0  0
   21.8070   78.8800   13.3050 C   0  0  0  0  0  0  0  0  0  0  0  0
   21.0880   78.2150   12.3500 C   0  0  0  0  0  0  0  0  0  0  0  0
   21.0800   78.6620   11.0130 C   0  0  0  0  0  0  0  0  0  0  0  0
   21.8090   79.7800   10.6840 C   0  0  0  0  0  0  0  0  0  0  0  0
   22.5400   80.4600   11.6470 C   0  0  0  0  0  0  0  0  0  0  0  0
   22.5440   80.0210   12.9410 C   0  0  0  0  0  0  0  0  0  0  0  0
   23.5540   82.0120   11.2060 B   0  0  0  0  0  0  0  0  0  0  0  0
   21.7910   80.2090    9.3650 O   0  0  0  0  0  0  0  0  0  0  0  0
   20.0620   77.7050    9.7060 B   0  0  0  0  0  0  0  0  0  0  0  0
   20.3350   77.0820   12.6260 O   0  0  0  0  0  0  0  0  0  0  0  0
   21.5090   77.2030   16.9960 H   0  0  0  0  0  0  0  0  0  0  0  0
   24.2110   76.7680   14.1680 H   0  0  0  0  0  0  0  0  0  0  0  0
   26.3300   77.0380   15.4510 H   0  0  0  0  0  0  0  0  0  0  0  0
   26.5170   78.7170   17.2210 H   0  0  0  0  0  0  0  0  0  0  0  0
   24.6070   80.1400   17.7300 H   0  0  0  0  0  0  0  0  0  0  0  0
   23.0930   80.5050   13.7370 H   0  0  0  0  0  0  0  0  0  0  0  0
  1  2  1  0  0  0  0
  2  7  1  0  0  0  0
  3  2  2  0  0  0  0
  3  4  1  0  0  0  0
  4  5  2  0  0  0  0
  5  6  1  0  0  0  0
  5 30  1  0  0  0  0
  6  9  1  0  0  0  0
  7  8  1  0  0  0  0
  7  6  2  0  0  0  0
 10  4  1  0  0  0  0
 10 15  1  0  0  0  0
 10 11  1  0  0  0  0
 11 12  1  0  0  0  0
 12 13  2  0  0  0  0
 14 12  1  0  0  0  0
 14 19  1  0  0  0  0
 15 14  2  0  0  0  0
 16 15  1  0  0  0  0
 16 17  2  0  0  0  0
 17 18  1  0  0  0  0
 18 19  2  0  0  0  0
 18 33  1  0  0  0  0
 19 34  1  0  0  0  0
 20 10  1  0  0  0  0
 21 29  1  0  0  0  0
 21 20  2  0  0  0  0
 22 21  1  0  0  0  0
 23 22  2  0  0  0  0
 23 24  1  0  0  0  0
 24 25  2  0  0  0  0
 25 20  1  0  0  0  0
 25 35  1  0  0  0  0
 26 24  1  0  0  0  0
 27 23  1  0  0  0  0
 28 22  1  0  0  0  0
 29  3  1  0  0  0  0
 31 16  1  0  0  0  0
 32 17  1  0  0  0  0
M  END
>  <Pose>
1

>  <Score>
-4.25

$$$$
