
 OpenBabel03222202113D

 35 39  0  0  0  0  0  0  0  0999 V2000
   22.7930   80.7770   14.1830 I   0  0  0  0  0  0  0  0  0  0  0  0
   21.7780   79.0080   14.7570 C   0  0  0  0  0  0  0  0  0  0  0  0
   21.2060   78.2550   13.7180 C   0  0  0  0  0  0  0  0  0  0  0  0
   20.5500   77.1150   14.0600 C   0  0  0  0  0  0  0  0  0  0  0  0
   20.4730   76.7470   15.4150 C   0  0  0  0  0  0  0  0  0  0  0  0
   21.0330   77.4820   16.4270 C   0  0  0  0  0  0  0  0  0  0  0  0
   21.6980   78.6370   16.0800 C   0  0  0  0  0  0  0  0  0  0  0  0
   22.2760   79.4060   17.0790 O   0  0  0  0  0  0  0  0  0  0  0  0
   20.8800   76.8670   18.4500 I   0  0  0  0  0  0  0  0  0  0  0  0
   19.9190   76.2610   13.0470 C   0  0  0  0  0  0  0  0  0  0  0  0
   18.5610   76.0030   13.3500 O   0  0  0  0  0  0  0  0  0  0  0  0
   18.3080   74.6680   13.5230 C   0  0  0  0  0  0  0  0  0  0  0  0
   17.2180   74.0990   13.7980 O   0  0  0  0  0  0  0  0  0  0  0  0
   19.5680   73.9650   13.3280 C   0  0  0  0  0  0  0  0  0  0  0  0
   20.5200   74.8920   13.0490 C   0  0  0  0  0  0  0  0  0  0  0  0
   21.8290   74.4500   12.8200 C   0  0  0  0  0  0  0  0  0  0  0  0
   22.1280   73.1090   12.8800 C   0  0  0  0  0  0  0  0  0  0  0  0
   21.1630   72.1660   13.1640 C   0  0  0  0  0  0  0  0  0  0  0  0
   19.8750   72.5870   13.3900 C   0  0  0  0  0  0  0  0  0  0  0  0
   20.0780   76.7700   11.6740 C   0  0  0  0  0  0  0  0  0  0  0  0
   20.7450   77.9140   11.3970 C   0  0  0  0  0  0  0  0  0  0  0  0
   20.8550   78.3350   10.0760 C   0  0  0  0  0  0  0  0  0  0  0  0
   20.3000   77.6070    9.0620 C   0  0  0  0  0  0  0  0  0  0  0  0
   19.6170   76.4380    9.3070 C   0  0  0  0  0  0  0  0  0  0  0  0
   19.5200   76.0450   10.6140 C   0  0  0  0  0  0  0  0  0  0  0  0
   18.7600   75.3150    7.7340 I   0  0  0  0  0  0  0  0  0  0  0  0
   20.4270   78.0500    7.7520 O   0  0  0  0  0  0  0  0  0  0  0  0
   21.9050   80.1350    9.6510 I   0  0  0  0  0  0  0  0  0  0  0  0
   21.3330   78.7020   12.4000 O   0  0  0  0  0  0  0  0  0  0  0  0
   19.9380   75.8210   15.6700 H   0  0  0  0  0  0  0  0  0  0  0  0
   22.5500   75.2170   12.6020 H   0  0  0  0  0  0  0  0  0  0  0  0
   23.1430   72.8130   12.6980 H   0  0  0  0  0  0  0  0  0  0  0  0
   21.3840   71.0920   13.2160 H   0  0  0  0  0  0  0  0  0  0  0  0
   19.0750   71.8880   13.6180 H   0  0  0  0  0  0  0  0  0  0  0  0
   18.9890   75.1310   10.8350 H   0  0  0  0  0  0  0  0  0  0  0  0
  1  2  1  0  0  0  0
  2  7  1  0  0  0  0
  3  4  1  0  0  0  0
  3  2  2  0  0  0  0
  4  5  2  0  0  0  0
  5 30  1  0  0  0  0
  5  6  1  0  0  0  0
  6  9  1  0  0  0  0
  7  6  2  0  0  0  0
  7  8  1  0  0  0  0
 10 15  1  0  0  0  0
 10 11  1  0  0  0  0
 10  4  1  0  0  0  0
 11 12  1  0  0  0  0
 12 13  2  0  0  0  0
 14 19  1  0  0  0  0
 14 12  1  0  0  0  0
 15 14  2  0  0  0  0
 16 17  2  0  0  0  0
 16 15  1  0  0  0  0
 17 18  1  0  0  0  0
 18 33  1  0  0  0  0
 18 19  2  0  0  0  0
 19 34  1  0  0  0  0
 20 10  1  0  0  0  0
 21 20  1  0  0  0  0
 21 29  1  0  0  0  0
 22 21  2  0  0  0  0
 23 24  2  0  0  0  0
 23 22  1  0  0  0  0
 24 25  1  0  0  0  0
 25 35  1  0  0  0  0
 25 20  2  0  0  0  0
 26 24  1  0  0  0  0
 27 23  1  0  0  0  0
 28 22  1  0  0  0  0
 29  3  1  0  0  0  0
 31 16  1  0  0  0  0
 32 17  1  0  0  0  0
M  END
>  <Pose>
1

>  <Score>
-4.90

$$$$
