
 OpenBabel03222202113D

 35 38  0  0  1  0  0  0  0  0999 V2000
   22.2280   79.6620   14.2760 I   0  0  0  0  0  0  0  0  0  0  0  0
   21.1580   77.8610   14.5000 C   0  0  0  0  0  0  0  0  0  0  0  0
   20.5880   77.1970   13.4310 C   0  0  2  0  0  0  0  0  0  0  0  0
   19.8870   76.0190   13.5730 C   0  0  0  0  0  0  0  0  0  0  0  0
   19.7630   75.5000   14.8490 C   0  0  0  0  0  0  0  0  0  0  0  0
   20.3320   76.1590   15.9280 C   0  0  0  0  0  0  0  0  0  0  0  0
   21.0360   77.3470   15.7760 C   0  0  0  0  0  0  0  0  0  0  0  0
   21.5870   77.9670   16.8940 O   0  0  0  0  0  0  0  0  0  0  0  0
   19.3110   75.3410   12.5180 C   0  0  0  0  0  0  0  0  0  0  0  0
   19.4770   75.9230   11.2640 C   0  0  0  0  0  0  0  0  0  0  0  0
   20.2260   77.1710   11.1550 C   0  0  0  0  0  0  0  0  0  0  0  0
   20.3560   77.6970    9.8870 C   0  0  2  0  0  0  0  0  0  0  0  0
   19.8190   77.0990    8.7670 C   0  0  0  0  0  0  0  0  0  0  0  0
   19.9500   77.5980    7.6110 O   0  0  0  0  0  0  0  0  0  0  0  0
   19.1100   75.9180    8.8700 C   0  0  0  0  0  0  0  0  0  0  0  0
   18.9620   75.3650   10.1260 C   0  0  0  0  0  0  0  0  0  0  0  0
   21.4190   79.4920    9.6290 I   0  0  0  0  0  0  0  0  0  0  0  0
   20.7250   77.7160   12.2380 O   0  0  0  0  0  0  0  0  0  0  0  0
   18.5680   74.0940   12.6640 C   0  0  0  0  0  0  0  0  0  0  0  0
   19.2840   72.9160   12.8560 C   0  0  0  0  0  0  0  0  0  0  0  0
   18.6300   71.7210   12.9990 C   0  0  0  0  0  0  0  0  0  0  0  0
   17.2540   71.6880   12.9510 C   0  0  0  0  0  0  0  0  0  0  0  0
   16.5220   72.8400   12.7630 C   0  0  0  0  0  0  0  0  0  0  0  0
   17.2000   74.0300   12.6220 C   0  0  0  0  0  0  0  0  0  0  0  0
   20.7430   72.9390   12.9080 C   0  0  0  0  0  0  0  0  0  0  0  0
   21.4600   72.8830   11.8850 O   0  0  0  0  0  0  0  0  0  0  0  0
   21.4030   73.0240   14.1260 O   0  0  0  0  0  0  0  0  0  0  0  0
   19.2130   74.5760   14.9570 H   0  0  0  0  0  0  0  0  0  0  0  0
   20.1980   75.7010   16.9010 H   0  0  0  0  0  0  0  0  0  0  0  0
   18.7000   75.4700    7.9740 H   0  0  0  0  0  0  0  0  0  0  0  0
   18.4110   74.4410   10.2230 H   0  0  0  0  0  0  0  0  0  0  0  0
   19.1660   70.7730   13.1520 H   0  0  0  0  0  0  0  0  0  0  0  0
   16.7530   70.7330   13.0660 H   0  0  0  0  0  0  0  0  0  0  0  0
   15.4290   72.7750   12.7300 H   0  0  0  0  0  0  0  0  0  0  0  0
   16.6570   74.9570   12.4720 H   0  0  0  0  0  0  0  0  0  0  0  0
  1  2  1  0  0  0  0
  2  7  2  0  0  0  0
  3 18  1  6  0  0  0
  3  4  1  0  0  0  0
  3  2  1  0  0  0  0
  4  5  1  0  0  0  0
  5 28  1  0  0  0  0
  5  6  2  0  0  0  0
  6 29  1  0  0  0  0
  7  6  1  0  0  0  0
  7  8  1  0  0  0  0
  9 19  1  0  0  0  0
  9  4  2  0  0  0  0
 10  9  1  0  0  0  0
 11 10  2  0  0  0  0
 11 18  1  0  0  0  0
 12 17  1  6  0  0  0
 12 11  1  0  0  0  0
 13 15  1  0  0  0  0
 13 12  1  0  0  0  0
 14 13  2  0  0  0  0
 15 16  2  0  0  0  0
 16 31  1  0  0  0  0
 16 10  1  0  0  0  0
 19 20  1  0  0  0  0
 20 25  1  0  0  0  0
 20 21  2  0  0  0  0
 21 32  1  0  0  0  0
 22 21  1  0  0  0  0
 22 33  1  0  0  0  0
 23 22  2  0  0  0  0
 24 19  2  0  0  0  0
 24 23  1  0  0  0  0
 25 27  1  0  0  0  0
 26 25  2  0  0  0  0
 30 15  1  0  0  0  0
 34 23  1  0  0  0  0
 35 24  1  0  0  0  0
M  END
>  <Pose>
1

>  <Score>
-4.92

$$$$
