
 OpenBabel03222202113D

 46 51  0  0  1  0  0  0  0  0999 V2000
   20.3720   77.7830   18.5560 P   0  0  2  0  0  0  0  0  0  0  0  0
   19.3660   78.0620   19.9430 S   0  0  0  0  0  0  0  0  0  0  0  0
   20.9960   79.2810   18.0530 O   0  0  0  0  0  0  0  0  0  0  0  0
   20.8120   79.3450   16.6750 C   0  0  2  0  0  0  0  0  0  0  0  0
   21.2100   77.9710   16.1320 C   0  0  2  0  0  0  0  0  0  0  0  0
   21.7220   78.2390   14.8920 O   0  0  0  0  0  0  0  0  0  0  0  0
   22.4120   79.4480   14.9620 C   0  0  2  0  0  0  0  0  0  0  0  0
   21.7530   80.2930   15.9960 C   0  0  2  0  0  0  0  0  0  0  0  0
   22.6870   80.7980   16.9100 O   0  0  0  0  0  0  0  0  0  0  0  0
   22.4720   80.0930   13.6520 N   0  0  0  0  0  0  0  0  0  0  0  0
   21.9250   79.6630   12.4880 C   0  0  0  0  0  0  0  0  0  0  0  0
   22.2000   80.5470   11.4660 C   0  0  0  0  0  0  0  0  0  0  0  0
   22.9290   81.5290   12.0360 N   0  0  0  0  0  0  0  0  0  0  0  0
   23.0860   81.2490   13.3460 C   0  0  0  0  0  0  0  0  0  0  0  0
   24.0300   82.2900   14.6440 B   0  0  0  0  0  0  0  0  0  0  0  0
   21.7280   80.2870   10.1950 C   0  0  0  0  0  0  0  0  0  0  0  0
   21.9710   81.0820    9.2610 O   0  0  0  0  0  0  0  0  0  0  0  0
   20.9980   79.1840    9.9090 N   0  0  0  0  0  0  0  0  0  0  0  0
   20.7420   78.3350   10.9210 C   0  0  0  0  0  0  0  0  0  0  0  0
   20.0140   77.3390   10.3850 N   0  0  0  0  0  0  0  0  0  0  0  0
   19.8000   77.5270    9.0710 C   0  0  0  0  0  0  0  0  0  0  0  0
   20.4320   78.7140    8.7630 C   0  0  0  0  0  0  0  0  0  0  0  0
   19.0520   76.6590    8.1510 C   0  0  0  0  0  0  0  0  0  0  0  0
   18.1270   77.1980    7.2860 C   0  0  0  0  0  0  0  0  0  0  0  0
   17.4050   76.4030    6.4050 C   0  0  0  0  0  0  0  0  0  0  0  0
   17.6270   75.0450    6.4050 C   0  0  0  0  0  0  0  0  0  0  0  0
   18.5490   74.4630    7.2610 C   0  0  0  0  0  0  0  0  0  0  0  0
   19.2370   75.2990    8.1130 C   0  0  0  0  0  0  0  0  0  0  0  0
   21.1990   78.5740   12.1830 N   0  0  0  0  0  0  0  0  0  0  0  0
   19.9480   77.1420   16.1090 C   0  0  0  0  0  0  0  0  0  0  0  0
   19.3920   77.0910   17.3670 O   0  0  0  0  0  0  0  0  0  0  0  0
   21.6070   76.6820   18.9040 O   0  0  0  0  0  0  0  0  0  0  0  0
   19.7640   79.5900   16.4510 H   0  0  0  0  0  0  0  0  0  0  0  0
   21.9840   77.4960   16.7440 H   0  0  0  0  0  0  0  0  0  0  0  0
   23.4700   79.1700   15.2450 H   0  0  0  0  0  0  0  0  0  0  0  0
   21.1900   81.1080   15.5370 H   0  0  0  0  0  0  0  0  0  0  0  0
   23.4330   81.2470   16.4640 H   0  0  0  0  0  0  0  0  0  0  0  0
   20.4820   79.2020    7.7920 H   0  0  0  0  0  0  0  0  0  0  0  0
   17.9540   78.2620    7.2860 H   0  0  0  0  0  0  0  0  0  0  0  0
   16.6750   76.8220    5.7210 H   0  0  0  0  0  0  0  0  0  0  0  0
   17.0780   74.4050    5.7300 H   0  0  0  0  0  0  0  0  0  0  0  0
   18.7070   73.3860    7.2420 H   0  0  0  0  0  0  0  0  0  0  0  0
   19.9570   74.8640    8.7840 H   0  0  0  0  0  0  0  0  0  0  0  0
   20.9970   77.9110   12.9650 H   0  0  0  0  0  0  0  0  0  0  0  0
   20.0950   76.1490   15.6420 H   0  0  0  0  0  0  0  0  0  0  0  0
   19.2170   77.6800   15.4390 H   0  0  0  0  0  0  0  0  0  0  0  0
  1 32  2  1  0  0  0
  1  2  1  0  0  0  0
  3  1  1  0  0  0  0
  4 33  1  6  0  0  0
  4  3  1  0  0  0  0
  5  4  1  0  0  0  0
  5 34  1  1  0  0  0
  6  7  1  0  0  0  0
  6  5  1  0  0  0  0
  7 35  1  1  0  0  0
  7  8  1  0  0  0  0
  8 36  1  6  0  0  0
  8  4  1  0  0  0  0
  8  9  1  0  0  0  0
 10  7  1  0  0  0  0
 11 10  1  0  0  0  0
 12 13  1  0  0  0  0
 12 11  2  0  0  0  0
 13 14  2  0  0  0  0
 14 10  1  0  0  0  0
 14 15  1  0  0  0  0
 16 12  1  0  0  0  0
 17 16  2  0  0  0  0
 18 16  1  0  0  0  0
 18 19  1  0  0  0  0
 19 29  1  0  0  0  0
 20 19  2  0  0  0  0
 21 20  1  0  0  0  0
 22 21  2  0  0  0  0
 22 18  1  0  0  0  0
 23 21  1  0  0  0  0
 24 23  2  0  0  0  0
 25 26  2  0  0  0  0
 25 24  1  0  0  0  0
 26 27  1  0  0  0  0
 27 28  2  0  0  0  0
 28 23  1  0  0  0  0
 28 43  1  0  0  0  0
 29 11  1  0  0  0  0
 29 44  1  0  0  0  0
 30  5  1  0  0  0  0
 30 31  1  0  0  0  0
 31  1  1  0  0  0  0
 37  9  1  0  0  0  0
 38 22  1  0  0  0  0
 39 24  1  0  0  0  0
 40 25  1  0  0  0  0
 41 26  1  0  0  0  0
 42 27  1  0  0  0  0
 45 30  1  0  0  0  0
 46 30  1  0  0  0  0
M  END
>  <Pose>
1

>  <Score>
-7.70

$$$$
