
 OpenBabel03222202113D

 33 36  0  0  1  0  0  0  0  0999 V2000
   22.1330   79.8770   12.6820 P   0  0  2  0  0  0  0  0  0  0  0  0
   22.9230   78.4760   13.3600 S   0  0  0  0  0  0  0  0  0  0  0  0
   20.5520   79.4630   12.1900 O   0  0  0  0  0  0  0  0  0  0  0  0
   20.6770   78.6880   11.0630 C   0  0  2  0  0  0  0  0  0  0  0  0
   21.3380   79.5280    9.9620 C   0  0  2  0  0  0  0  0  0  0  0  0
   21.0610   78.7350    8.8500 O   0  0  0  0  0  0  0  0  0  0  0  0
   19.7250   78.4250    8.9360 C   0  0  2  0  0  0  0  0  0  0  0  0
   19.3470   78.3910   10.3950 C   0  0  2  0  0  0  0  0  0  0  0  0
   18.5260   79.5010   10.6320 O   0  0  0  0  0  0  0  0  0  0  0  0
   19.4090   77.1250    8.3740 N   0  0  0  0  0  0  0  0  0  0  0  0
   18.4620   76.9170    7.4250 C   0  0  0  0  0  0  0  0  0  0  0  0
   17.6160   77.7630    6.7830 N   0  0  0  0  0  0  0  0  0  0  0  0
   16.7460   77.3090    5.8590 C   0  0  0  0  0  0  0  0  0  0  0  0
   16.7100   75.9870    5.5610 N   0  0  0  0  0  0  0  0  0  0  0  0
   17.5320   75.1180    6.1750 C   0  0  0  0  0  0  0  0  0  0  0  0
   18.4300   75.5700    7.1250 C   0  0  0  0  0  0  0  0  0  0  0  0
   19.3550   74.9660    7.8910 N   0  0  0  0  0  0  0  0  0  0  0  0
   19.9420   75.9220    8.6450 C   0  0  0  0  0  0  0  0  0  0  0  0
   21.3410   75.6820    9.9380 B   0  0  0  0  0  0  0  0  0  0  0  0
   17.4820   73.7250    5.8490 N   0  0  0  0  0  0  0  0  0  0  0  0
   22.8040   79.6960   10.2130 C   0  0  0  0  0  0  0  0  0  0  0  0
   22.9680   80.4570   11.3570 O   0  0  0  0  0  0  0  0  0  0  0  0
   22.0180   81.0360   13.8780 O   0  0  0  0  0  0  0  0  0  0  0  0
   21.2940   77.8010   11.2000 H   0  0  0  0  0  0  0  0  0  0  0  0
   20.7860   80.4760    9.9050 H   0  0  0  0  0  0  0  0  0  0  0  0
   19.1430   79.1790    8.3570 H   0  0  0  0  0  0  0  0  0  0  0  0
   18.9040   77.4470   10.7150 H   0  0  0  0  0  0  0  0  0  0  0  0
   18.8720   80.0950   11.3230 H   0  0  0  0  0  0  0  0  0  0  0  0
   16.0830   78.0280    5.3670 H   0  0  0  0  0  0  0  0  0  0  0  0
   16.7160   73.1360    6.2780 H   0  0  0  0  0  0  0  0  0  0  0  0
   18.1660   73.2760    5.2100 H   0  0  0  0  0  0  0  0  0  0  0  0
   23.2430   80.2350    9.3740 H   0  0  0  0  0  0  0  0  0  0  0  0
   23.2600   78.6900   10.2850 H   0  0  0  0  0  0  0  0  0  0  0  0
  1  2  1  1  0  0  0
  1 23  2  0  0  0  0
  3  1  1  0  0  0  0
  4 24  1  1  0  0  0
  4  3  1  0  0  0  0
  5 25  1  6  0  0  0
  5 21  1  0  0  0  0
  5  4  1  0  0  0  0
  6  7  1  0  0  0  0
  6  5  1  0  0  0  0
  7 26  1  6  0  0  0
  7  8  1  0  0  0  0
  8  9  1  0  0  0  0
  8 27  1  1  0  0  0
  8  4  1  0  0  0  0
  9 28  1  0  0  0  0
 10 18  1  0  0  0  0
 10  7  1  0  0  0  0
 11 10  1  0  0  0  0
 12 11  1  0  0  0  0
 13 12  2  0  0  0  0
 14 13  1  0  0  0  0
 14 15  2  0  0  0  0
 15 16  1  0  0  0  0
 16 11  2  0  0  0  0
 16 17  1  0  0  0  0
 17 18  2  0  0  0  0
 18 19  1  0  0  0  0
 20 15  1  0  0  0  0
 20 30  1  0  0  0  0
 21 33  1  0  0  0  0
 21 22  1  0  0  0  0
 22  1  1  0  0  0  0
 29 13  1  0  0  0  0
 31 20  1  0  0  0  0
 32 21  1  0  0  0  0
M  END
>  <Pose>
1

>  <Score>
-6.49

$$$$
