
 OpenBabel03222202113D

 52 55  0  0  1  0  0  0  0  0999 V2000
   21.3830   80.1850   15.5490 S   0  0  0  0  0  0  0  0  0  0  0  0
   22.8290   79.2770   16.0880 C   0  0  1  0  0  0  0  0  0  0  0  0
   22.4650   78.4830   17.2180 N   0  0  0  0  0  0  0  0  0  0  0  0
   21.3410   78.6110   18.0940 C   0  0  0  0  0  0  0  0  0  0  0  0
   20.6380   79.7000   18.0840 C   0  0  0  0  0  0  0  0  0  0  0  0
   20.9300   80.9000   17.1710 C   0  0  0  0  0  0  0  0  0  0  0  0
   19.4820   79.9700   18.9000 C   0  0  0  0  0  0  0  0  0  0  0  0
   19.5240   80.7130   20.0320 O   0  0  0  0  0  0  0  0  0  0  0  0
   19.7800   82.0890   20.0420 C   0  0  0  0  0  0  0  0  0  0  0  0
   19.3890   82.7460   19.0600 O   0  0  0  0  0  0  0  0  0  0  0  0
   20.4940   82.6530   21.2130 C   0  0  0  0  0  0  0  0  0  0  0  0
   21.0720   77.4410   18.9800 C   0  0  0  0  0  0  0  0  0  0  0  0
   20.8360   77.4710   20.1690 O   0  0  0  0  0  0  0  0  0  0  0  0
   21.0840   76.1530   18.4130 O   0  0  0  0  0  0  0  0  0  0  0  0
   23.6240   77.7370   16.8920 C   0  0  0  0  0  0  0  0  0  0  0  0
   24.5830   77.1120   17.3590 O   0  0  0  0  0  0  0  0  0  0  0  0
   23.2220   78.0110   15.4520 C   0  0  1  0  0  0  0  0  0  0  0  0
   22.2030   77.0740   15.1050 N   0  0  0  0  0  0  0  0  0  0  0  0
   21.1930   77.4550   14.1880 C   0  0  0  0  0  0  0  0  0  0  0  0
   19.9950   77.1910   14.4770 O   0  0  0  0  0  0  0  0  0  0  0  0
   21.5000   78.1390   12.9290 C   0  0  0  0  0  0  0  0  0  0  0  0
   21.0990   77.8720   11.7260 O   0  0  0  0  0  0  0  0  0  0  0  0
   21.5760   78.6960   10.8510 C   0  0  0  0  0  0  0  0  0  0  0  0
   22.3820   79.6110   11.5370 C   0  0  0  0  0  0  0  0  0  0  0  0
   22.3220   79.2420   12.8540 C   0  0  0  0  0  0  0  0  0  0  0  0
   21.3430   78.7160    9.3600 C   0  0  0  0  0  0  0  0  0  0  0  0
   19.9730   78.8160    9.0700 O   0  0  0  0  0  0  0  0  0  0  0  0
   19.2550   77.9700    8.2740 C   0  0  0  0  0  0  0  0  0  0  0  0
   18.0820   78.3160    7.6100 C   0  0  0  0  0  0  0  0  0  0  0  0
   17.4390   77.3820    6.8290 C   0  0  0  0  0  0  0  0  0  0  0  0
   17.8930   76.0950    6.6590 C   0  0  0  0  0  0  0  0  0  0  0  0
   19.0590   75.7420    7.3150 C   0  0  0  0  0  0  0  0  0  0  0  0
   19.7130   76.6790    8.1040 C   0  0  0  0  0  0  0  0  0  0  0  0
   16.9590   74.8440    5.5630 B   0  0  0  0  0  0  0  0  0  0  0  0
   23.7240   79.9040   16.2960 H   0  0  0  0  0  0  0  0  0  0  0  0
   20.0790   81.5640   17.0760 H   0  0  0  0  0  0  0  0  0  0  0  0
   21.8030   81.4020   17.6240 H   0  0  0  0  0  0  0  0  0  0  0  0
   18.6640   80.4630   18.2230 H   0  0  0  0  0  0  0  0  0  0  0  0
   18.9650   78.9570   19.1530 H   0  0  0  0  0  0  0  0  0  0  0  0
   21.0800   81.8590   21.7190 H   0  0  0  0  0  0  0  0  0  0  0  0
   19.7530   83.0510   21.9690 H   0  0  0  0  0  0  0  0  0  0  0  0
   21.1620   83.4860   20.9470 H   0  0  0  0  0  0  0  0  0  0  0  0
   24.0790   78.0210   14.7570 H   0  0  0  0  0  0  0  0  0  0  0  0
   22.1510   76.0980   15.4920 H   0  0  0  0  0  0  0  0  0  0  0  0
   22.9160   80.4260   11.0580 H   0  0  0  0  0  0  0  0  0  0  0  0
   22.8370   79.7460   13.6610 H   0  0  0  0  0  0  0  0  0  0  0  0
   21.8180   77.8300    8.8850 H   0  0  0  0  0  0  0  0  0  0  0  0
   21.8420   79.6080    8.9260 H   0  0  0  0  0  0  0  0  0  0  0  0
   17.7000   79.3080    7.7240 H   0  0  0  0  0  0  0  0  0  0  0  0
   16.5340   77.6770    6.3280 H   0  0  0  0  0  0  0  0  0  0  0  0
   19.4220   74.7330    7.1860 H   0  0  0  0  0  0  0  0  0  0  0  0
   20.6270   76.3150    8.5850 H   0  0  0  0  0  0  0  0  0  0  0  0
  1  2  1  0  0  0  0
  1  6  1  0  0  0  0
  2 35  1  1  0  0  0
  2  3  1  0  0  0  0
  3  4  1  0  0  0  0
  4 12  1  0  0  0  0
  5  4  2  0  0  0  0
  5  7  1  0  0  0  0
  6 37  1  0  0  0  0
  6  5  1  0  0  0  0
  7 39  1  0  0  0  0
  7  8  1  0  0  0  0
  8  9  1  0  0  0  0
  9 11  1  0  0  0  0
 10  9  2  0  0  0  0
 11 40  1  0  0  0  0
 11 41  1  0  0  0  0
 12 13  1  0  0  0  0
 14 12  2  0  0  0  0
 15  3  1  0  0  0  0
 15 16  2  0  0  0  0
 17 43  1  6  0  0  0
 17  2  1  0  0  0  0
 17 15  1  0  0  0  0
 18 17  1  0  0  0  0
 18 44  1  0  0  0  0
 19 20  2  0  0  0  0
 19 18  1  0  0  0  0
 21 19  1  0  0  0  0
 22 21  1  0  0  0  0
 23 24  2  0  0  0  0
 23 22  1  0  0  0  0
 24 25  1  0  0  0  0
 25 21  2  0  0  0  0
 25 46  1  0  0  0  0
 26 23  1  0  0  0  0
 27 26  1  0  0  0  0
 28 27  1  0  0  0  0
 29 49  1  0  0  0  0
 29 28  2  0  0  0  0
 30 29  1  0  0  0  0
 31 30  2  0  0  0  0
 31 32  1  0  0  0  0
 32 33  2  0  0  0  0
 33 28  1  0  0  0  0
 33 52  1  0  0  0  0
 34 31  1  0  0  0  0
 36  6  1  0  0  0  0
 38  7  1  0  0  0  0
 42 11  1  0  0  0  0
 45 24  1  0  0  0  0
 47 26  1  0  0  0  0
 48 26  1  0  0  0  0
 50 30  1  0  0  0  0
 51 32  1  0  0  0  0
M  END
>  <Pose>
1

>  <Score>
-8.22

$$$$
