
 OpenBabel03222202113D

 47 50  0  0  1  0  0  0  0  0999 V2000
   20.6700   79.9050   10.7230 S   0  0  0  0  0  0  0  0  0  0  0  0
   19.3320   79.2300   10.9490 O   0  0  0  0  0  0  0  0  0  0  0  0
   21.3520   79.2280    9.5590 O   0  0  0  0  0  0  0  0  0  0  0  0
   20.3510   81.5560   10.3860 N   0  0  0  0  0  0  0  0  0  0  0  0
   21.6240   79.7560   12.1680 C   0  0  0  0  0  0  0  0  0  0  0  0
   21.6050   78.5770   12.8770 C   0  0  0  0  0  0  0  0  0  0  0  0
   22.3510   78.4060   14.0390 C   0  0  0  0  0  0  0  0  0  0  0  0
   23.1210   79.4650   14.4670 C   0  0  0  0  0  0  0  0  0  0  0  0
   23.1460   80.6630   13.7530 C   0  0  0  0  0  0  0  0  0  0  0  0
   22.4010   80.8140   12.6050 C   0  0  0  0  0  0  0  0  0  0  0  0
   24.1650   79.3090   16.0400 B   0  0  0  0  0  0  0  0  0  0  0  0
   22.3190   77.1590   14.7770 C   0  0  0  0  0  0  0  0  0  0  0  0
   23.3790   76.4980   14.9100 O   0  0  0  0  0  0  0  0  0  0  0  0
   21.1040   76.6800   15.3510 N   0  0  0  0  0  0  0  0  0  0  0  0
   20.9150   76.6840   16.7860 C   0  0  0  0  0  0  0  0  0  0  0  0
   19.5340   77.0890   17.1970 C   0  0  2  0  0  0  0  0  0  0  0  0
   18.8850   77.7500   15.9790 C   0  0  0  0  0  0  0  0  0  0  0  0
   18.6830   76.6380   14.9730 C   0  0  0  0  0  0  0  0  0  0  0  0
   20.0430   76.1800   14.5160 C   0  0  0  0  0  0  0  0  0  0  0  0
   19.5170   78.0120   18.3760 C   0  0  0  0  0  0  0  0  0  0  0  0
   19.8730   79.3240   18.3810 N   0  0  0  0  0  0  0  0  0  0  0  0
   19.7330   79.8370   19.6060 C   0  0  0  0  0  0  0  0  0  0  0  0
   19.2760   78.8010   20.3720 N   0  0  0  0  0  0  0  0  0  0  0  0
   19.1490   77.7160   19.6330 N   0  0  0  0  0  0  0  0  0  0  0  0
   20.1130   81.2790   19.6640 C   0  0  0  0  0  0  0  0  0  0  0  0
   20.1770   81.6390   18.2120 C   0  0  0  0  0  0  0  0  0  0  0  0
   20.3600   80.3370   17.4620 C   0  0  0  0  0  0  0  0  0  0  0  0
   21.1310   82.0000    9.8430 H   0  0  0  0  0  0  0  0  0  0  0  0
   20.1890   82.0840   11.2790 H   0  0  0  0  0  0  0  0  0  0  0  0
   20.9720   77.7640   12.4910 H   0  0  0  0  0  0  0  0  0  0  0  0
   23.7670   81.4610   14.1340 H   0  0  0  0  0  0  0  0  0  0  0  0
   22.4070   81.7290   12.0400 H   0  0  0  0  0  0  0  0  0  0  0  0
   21.7070   77.2430   17.3200 H   0  0  0  0  0  0  0  0  0  0  0  0
   21.0460   75.6120   17.1130 H   0  0  0  0  0  0  0  0  0  0  0  0
   18.8710   76.2320   17.4350 H   0  0  0  0  0  0  0  0  0  0  0  0
   17.9360   78.2320   16.2680 H   0  0  0  0  0  0  0  0  0  0  0  0
   19.5720   78.5000   15.5520 H   0  0  0  0  0  0  0  0  0  0  0  0
   18.1190   75.8130   15.4840 H   0  0  0  0  0  0  0  0  0  0  0  0
   18.0600   77.0280   14.1440 H   0  0  0  0  0  0  0  0  0  0  0  0
   20.1890   76.6170   13.4880 H   0  0  0  0  0  0  0  0  0  0  0  0
   20.0630   75.0690   14.4190 H   0  0  0  0  0  0  0  0  0  0  0  0
   19.3140   81.8930   20.1470 H   0  0  0  0  0  0  0  0  0  0  0  0
   21.0860   81.3730   20.1860 H   0  0  0  0  0  0  0  0  0  0  0  0
   19.2510   82.1640   17.8510 H   0  0  0  0  0  0  0  0  0  0  0  0
   21.0420   82.3240   18.0510 H   0  0  0  0  0  0  0  0  0  0  0  0
   21.4460   80.2320   17.2620 H   0  0  0  0  0  0  0  0  0  0  0  0
   19.8390   80.3460   16.5060 H   0  0  0  0  0  0  0  0  0  0  0  0
  1  2  2  0  0  0  0
  1  5  1  0  0  0  0
  3  1  2  0  0  0  0
  4  1  1  0  0  0  0
  4 29  1  0  0  0  0
  5 10  2  0  0  0  0
  5  6  1  0  0  0  0
  6  7  2  0  0  0  0
  7  8  1  0  0  0  0
  7 12  1  0  0  0  0
  8 11  1  0  0  0  0
  9 31  1  0  0  0  0
  9  8  2  0  0  0  0
 10  9  1  0  0  0  0
 12 13  2  0  0  0  0
 12 14  1  0  0  0  0
 14 15  1  0  0  0  0
 15 34  1  0  0  0  0
 15 16  1  0  0  0  0
 15 33  1  0  0  0  0
 16 35  1  1  0  0  0
 16 20  1  0  0  0  0
 17 36  1  0  0  0  0
 17 16  1  0  0  0  0
 18 38  1  0  0  0  0
 18 17  1  0  0  0  0
 19 18  1  0  0  0  0
 19 14  1  0  0  0  0
 20 21  1  0  0  0  0
 20 24  2  0  0  0  0
 21 22  1  0  0  0  0
 22 25  1  0  0  0  0
 22 23  2  0  0  0  0
 24 23  1  0  0  0  0
 25 42  1  0  0  0  0
 25 43  1  0  0  0  0
 26 25  1  0  0  0  0
 27 26  1  0  0  0  0
 27 21  1  0  0  0  0
 28  4  1  0  0  0  0
 30  6  1  0  0  0  0
 32 10  1  0  0  0  0
 37 17  1  0  0  0  0
 39 18  1  0  0  0  0
 40 19  1  0  0  0  0
 41 19  1  0  0  0  0
 44 26  1  0  0  0  0
 45 26  1  0  0  0  0
 46 27  1  0  0  0  0
 47 27  1  0  0  0  0
M  END
>  <Pose>
1

>  <Score>
-7.39

$$$$
