
 OpenBabel03222202113D

 50 53  0  0  0  0  0  0  0  0999 V2000
   20.0010   78.6220   18.1910 S   0  0  0  0  0  0  0  0  0  0  0  0
   19.7030   77.5860   19.2390 O   0  0  0  0  0  0  0  0  0  0  0  0
   18.8600   78.5520   17.1910 O   0  0  0  0  0  0  0  0  0  0  0  0
   21.4720   78.2480   17.4380 N   0  0  0  0  0  0  0  0  0  0  0  0
   21.4460   77.1770   16.5010 C   0  0  0  0  0  0  0  0  0  0  0  0
   21.5090   77.4880   15.0790 C   0  0  0  0  0  0  0  0  0  0  0  0
   21.9140   78.8230   14.6830 N   0  0  0  0  0  0  0  0  0  0  0  0
   21.9790   79.8820   15.6430 C   0  0  0  0  0  0  0  0  0  0  0  0
   22.2590   79.3610   17.0480 C   0  0  0  0  0  0  0  0  0  0  0  0
   22.2590   79.0320   13.3470 C   0  0  0  0  0  0  0  0  0  0  0  0
   23.1200   78.0820   12.9250 O   0  0  0  0  0  0  0  0  0  0  0  0
   21.9020   80.0120   12.3620 C   0  0  0  0  0  0  0  0  0  0  0  0
   21.0940   79.6630   11.1960 C   0  0  0  0  0  0  0  0  0  0  0  0
   21.6560   79.0950   10.0790 C   0  0  0  0  0  0  0  0  0  0  0  0
   20.8720   78.7610    8.9750 C   0  0  0  0  0  0  0  0  0  0  0  0
   19.5300   79.0010    9.0070 C   0  0  0  0  0  0  0  0  0  0  0  0
   18.9520   79.5760   10.1400 C   0  0  0  0  0  0  0  0  0  0  0  0
   19.7190   79.9010   11.2140 C   0  0  0  0  0  0  0  0  0  0  0  0
   23.5410   78.7540   10.0090 B   0  0  0  0  0  0  0  0  0  0  0  0
   19.9860   80.1670   19.0160 C   0  0  0  0  0  0  0  0  0  0  0  0
   19.9770   81.3510   18.2790 C   0  0  0  0  0  0  0  0  0  0  0  0
   19.9780   82.5960   18.8690 C   0  0  0  0  0  0  0  0  0  0  0  0
   19.9880   82.7260   20.2400 C   0  0  0  0  0  0  0  0  0  0  0  0
   19.9970   81.5600   20.9740 C   0  0  0  0  0  0  0  0  0  0  0  0
   19.9960   80.3010   20.3860 C   0  0  0  0  0  0  0  0  0  0  0  0
   19.9920   83.9950   20.8530 O   0  0  0  0  0  0  0  0  0  0  0  0
   19.4470   85.1230   20.1460 C   0  0  0  0  0  0  0  0  0  0  0  0
   20.0000   85.0460   18.7700 C   0  0  0  0  0  0  0  0  0  0  0  0
   20.4860   86.0410   18.1850 O   0  0  0  0  0  0  0  0  0  0  0  0
   19.9820   83.8040   18.0890 N   0  0  0  0  0  0  0  0  0  0  0  0
   20.4890   76.6060   16.6950 H   0  0  0  0  0  0  0  0  0  0  0  0
   22.2560   76.4530   16.8160 H   0  0  0  0  0  0  0  0  0  0  0  0
   22.2160   76.7740   14.5600 H   0  0  0  0  0  0  0  0  0  0  0  0
   20.5190   77.3050   14.5490 H   0  0  0  0  0  0  0  0  0  0  0  0
   21.0330   80.4390   15.6100 H   0  0  0  0  0  0  0  0  0  0  0  0
   22.7770   80.6280   15.4610 H   0  0  0  0  0  0  0  0  0  0  0  0
   22.1120   80.1980   17.7410 H   0  0  0  0  0  0  0  0  0  0  0  0
   23.3280   79.0130   17.0280 H   0  0  0  0  0  0  0  0  0  0  0  0
   21.3770   80.8940   12.8960 H   0  0  0  0  0  0  0  0  0  0  0  0
   22.8530   80.5010   11.9850 H   0  0  0  0  0  0  0  0  0  0  0  0
   21.3780   78.3200    8.1290 H   0  0  0  0  0  0  0  0  0  0  0  0
   18.9340   78.7410    8.1580 H   0  0  0  0  0  0  0  0  0  0  0  0
   17.8670   79.7480   10.1170 H   0  0  0  0  0  0  0  0  0  0  0  0
   19.3050   80.3510   12.1130 H   0  0  0  0  0  0  0  0  0  0  0  0
   19.9700   81.2610   17.1970 H   0  0  0  0  0  0  0  0  0  0  0  0
   20.0040   81.6580   22.0700 H   0  0  0  0  0  0  0  0  0  0  0  0
   20.0010   79.3990   20.9980 H   0  0  0  0  0  0  0  0  0  0  0  0
   18.3300   84.9780   20.0220 H   0  0  0  0  0  0  0  0  0  0  0  0
   19.7190   86.0040   20.7080 H   0  0  0  0  0  0  0  0  0  0  0  0
   19.9740   83.6960   17.0650 H   0  0  0  0  0  0  0  0  0  0  0  0
  1 20  1  0  0  0  0
  1  2  2  0  0  0  0
  3  1  2  0  0  0  0
  4  1  1  0  0  0  0
  5 31  1  0  0  0  0
  5 32  1  0  0  0  0
  5  4  1  0  0  0  0
  6  5  1  0  0  0  0
  7  6  1  0  0  0  0
  7  8  1  0  0  0  0
  8  9  1  0  0  0  0
  9  4  1  0  0  0  0
  9 37  1  0  0  0  0
 10  7  1  0  0  0  0
 11 10  2  0  0  0  0
 12 39  1  0  0  0  0
 12 10  1  0  0  0  0
 13 18  1  0  0  0  0
 13 12  1  0  0  0  0
 14 13  2  0  0  0  0
 15 16  2  0  0  0  0
 15 14  1  0  0  0  0
 16 17  1  0  0  0  0
 17 18  2  0  0  0  0
 18 44  1  0  0  0  0
 19 14  1  0  0  0  0
 20 25  1  0  0  0  0
 21 22  1  0  0  0  0
 21 20  2  0  0  0  0
 22 23  2  0  0  0  0
 23 26  1  0  0  0  0
 23 24  1  0  0  0  0
 24 46  1  0  0  0  0
 25 24  2  0  0  0  0
 25 47  1  0  0  0  0
 27 49  1  0  0  0  0
 27 26  1  0  0  0  0
 28 27  1  0  0  0  0
 29 28  2  0  0  0  0
 30 28  1  0  0  0  0
 30 22  1  0  0  0  0
 33  6  1  0  0  0  0
 34  6  1  0  0  0  0
 35  8  1  0  0  0  0
 36  8  1  0  0  0  0
 38  9  1  0  0  0  0
 40 12  1  0  0  0  0
 41 15  1  0  0  0  0
 42 16  1  0  0  0  0
 43 17  1  0  0  0  0
 45 21  1  0  0  0  0
 48 27  1  0  0  0  0
 50 30  1  0  0  0  0
M  END
>  <Pose>
1

>  <Score>
-6.66

$$$$
