
 OpenBabel03222202113D

 60 64  0  0  0  0  0  0  0  0999 V2000
   23.6310   79.3170   15.7070 S   0  0  0  0  0  0  0  0  0  0  0  0
   24.1070   80.2480   16.7540 O   0  0  0  0  0  0  0  0  0  0  0  0
   24.6350   78.1580   15.7260 O   0  0  0  0  0  0  0  0  0  0  0  0
   23.7390   79.9530   14.1120 N   0  0  0  0  0  0  0  0  0  0  0  0
   23.1080   81.2160   13.9430 C   0  0  0  0  0  0  0  0  0  0  0  0
   21.6290   81.1320   13.5890 C   0  0  0  0  0  0  0  0  0  0  0  0
   21.4710   80.2570   12.4760 N   0  0  0  0  0  0  0  0  0  0  0  0
   21.9670   78.8740   12.7750 C   0  0  0  0  0  0  0  0  0  0  0  0
   23.4170   79.0080   13.0980 C   0  0  0  0  0  0  0  0  0  0  0  0
   20.9570   80.4610   11.2110 C   0  0  0  0  0  0  0  0  0  0  0  0
   21.7510   81.1180   10.3900 O   0  0  0  0  0  0  0  0  0  0  0  0
   19.7050   80.0840   10.6240 C   0  0  0  0  0  0  0  0  0  0  0  0
   19.5300   78.7740   10.1090 N   0  0  0  0  0  0  0  0  0  0  0  0
   19.7450   77.6170   10.7320 N   0  0  0  0  0  0  0  0  0  0  0  0
   19.4330   76.5830    9.9410 C   0  0  0  0  0  0  0  0  0  0  0  0
   19.0000   77.1300    8.7580 C   0  0  0  0  0  0  0  0  0  0  0  0
   19.0620   78.4870    8.8660 C   0  0  0  0  0  0  0  0  0  0  0  0
   18.4070   76.1520    7.2110 B   0  0  0  0  0  0  0  0  0  0  0  0
   22.0860   78.5900   16.0200 C   0  0  0  0  0  0  0  0  0  0  0  0
   21.7390   77.3290   15.5170 C   0  0  0  0  0  0  0  0  0  0  0  0
   20.5070   76.7590   15.7680 C   0  0  0  0  0  0  0  0  0  0  0  0
   19.5610   77.4130   16.5310 C   0  0  0  0  0  0  0  0  0  0  0  0
   19.8920   78.6450   17.0240 C   0  0  0  0  0  0  0  0  0  0  0  0
   21.1370   79.2070   16.7640 C   0  0  0  0  0  0  0  0  0  0  0  0
   21.3430   80.5410   17.3530 C   0  0  0  0  0  0  0  0  0  0  0  0
   20.9470   80.5540   18.8130 C   0  0  0  0  0  0  0  0  0  0  0  0
   19.7300   79.8630   19.0170 N   0  0  0  0  0  0  0  0  0  0  0  0
   18.9900   79.4680   17.8610 C   0  0  0  0  0  0  0  0  0  0  0  0
   19.6760   78.9680   20.1180 C   0  0  0  0  0  0  0  0  0  0  0  0
   18.3010   76.8370   16.7910 O   0  0  0  0  0  0  0  0  0  0  0  0
   18.0270   76.3580   18.1150 C   0  0  0  0  0  0  0  0  0  0  0  0
   20.4830   75.5330   15.1390 O   0  0  0  0  0  0  0  0  0  0  0  0
   21.6490   75.3890   14.3780 C   0  0  0  0  0  0  0  0  0  0  0  0
   22.5000   76.4690   14.7300 O   0  0  0  0  0  0  0  0  0  0  0  0
   23.1840   81.7990   14.8820 H   0  0  0  0  0  0  0  0  0  0  0  0
   23.5990   81.7750   13.1230 H   0  0  0  0  0  0  0  0  0  0  0  0
   21.2760   82.1480   13.4990 H   0  0  0  0  0  0  0  0  0  0  0  0
   21.0520   80.6750   14.4340 H   0  0  0  0  0  0  0  0  0  0  0  0
   21.8630   78.2380   11.8790 H   0  0  0  0  0  0  0  0  0  0  0  0
   21.4110   78.4360   13.6020 H   0  0  0  0  0  0  0  0  0  0  0  0
   23.8330   78.0110   13.3330 H   0  0  0  0  0  0  0  0  0  0  0  0
   23.9390   79.3320   12.1570 H   0  0  0  0  0  0  0  0  0  0  0  0
   19.4180   80.7980    9.7640 H   0  0  0  0  0  0  0  0  0  0  0  0
   18.8600   80.3240   11.3710 H   0  0  0  0  0  0  0  0  0  0  0  0
   19.5120   75.5200   10.1970 H   0  0  0  0  0  0  0  0  0  0  0  0
   18.7880   79.1870    8.1040 H   0  0  0  0  0  0  0  0  0  0  0  0
   22.2810   81.0330   17.1360 H   0  0  0  0  0  0  0  0  0  0  0  0
   20.5570   81.1950   16.8530 H   0  0  0  0  0  0  0  0  0  0  0  0
   21.7570   79.9810   19.3460 H   0  0  0  0  0  0  0  0  0  0  0  0
   20.9690   81.5830   19.2300 H   0  0  0  0  0  0  0  0  0  0  0  0
   18.1010   78.9000   18.1850 H   0  0  0  0  0  0  0  0  0  0  0  0
   18.6400   80.3260   17.2480 H   0  0  0  0  0  0  0  0  0  0  0  0
   18.7940   79.1030   20.7770 H   0  0  0  0  0  0  0  0  0  0  0  0
   20.6320   79.0570   20.6910 H   0  0  0  0  0  0  0  0  0  0  0  0
   19.6620   77.9180   19.7430 H   0  0  0  0  0  0  0  0  0  0  0  0
   18.9240   76.4550   18.7600 H   0  0  0  0  0  0  0  0  0  0  0  0
   17.7590   75.2850   18.0850 H   0  0  0  0  0  0  0  0  0  0  0  0
   17.1340   76.8790   18.5430 H   0  0  0  0  0  0  0  0  0  0  0  0
   21.4790   75.3510   13.2930 H   0  0  0  0  0  0  0  0  0  0  0  0
   22.1640   74.4630   14.7550 H   0  0  0  0  0  0  0  0  0  0  0  0
  1  3  2  0  0  0  0
  1 19  1  0  0  0  0
  1  2  2  0  0  0  0
  4  1  1  0  0  0  0
  5  4  1  0  0  0  0
  5 35  1  0  0  0  0
  6  5  1  0  0  0  0
  6 38  1  0  0  0  0
  7  8  1  0  0  0  0
  7  6  1  0  0  0  0
  8  9  1  0  0  0  0
  8 40  1  0  0  0  0
  9 41  1  0  0  0  0
  9  4  1  0  0  0  0
 10  7  1  0  0  0  0
 11 10  2  0  0  0  0
 12 10  1  0  0  0  0
 12 44  1  0  0  0  0
 13 12  1  0  0  0  0
 13 14  1  0  0  0  0
 15 45  1  0  0  0  0
 15 14  2  0  0  0  0
 16 17  2  0  0  0  0
 16 15  1  0  0  0  0
 17 13  1  0  0  0  0
 18 16  1  0  0  0  0
 19 24  1  0  0  0  0
 20 21  1  0  0  0  0
 20 19  2  0  0  0  0
 21 22  2  0  0  0  0
 22 30  1  0  0  0  0
 22 23  1  0  0  0  0
 23 28  1  0  0  0  0
 24 23  2  0  0  0  0
 24 25  1  0  0  0  0
 25 26  1  0  0  0  0
 26 27  1  0  0  0  0
 26 50  1  0  0  0  0
 26 49  1  0  0  0  0
 27 29  1  0  0  0  0
 28 51  1  0  0  0  0
 28 27  1  0  0  0  0
 29 54  1  0  0  0  0
 29 53  1  0  0  0  0
 30 31  1  0  0  0  0
 31 58  1  0  0  0  0
 31 56  1  0  0  0  0
 32 21  1  0  0  0  0
 33 34  1  0  0  0  0
 33 60  1  0  0  0  0
 33 32  1  0  0  0  0
 34 20  1  0  0  0  0
 36  5  1  0  0  0  0
 37  6  1  0  0  0  0
 39  8  1  0  0  0  0
 42  9  1  0  0  0  0
 43 12  1  0  0  0  0
 46 17  1  0  0  0  0
 47 25  1  0  0  0  0
 48 25  1  0  0  0  0
 52 28  1  0  0  0  0
 55 29  1  0  0  0  0
 57 31  1  0  0  0  0
 59 33  1  0  0  0  0
M  END
>  <Pose>
1

>  <Score>
-6.58

$$$$
