
 OpenBabel03222202113D

 53 56  0  0  0  0  0  0  0  0999 V2000
   19.4990   77.1140    8.3880 S   0  0  0  0  0  0  0  0  0  0  0  0
   20.5320   76.6830    7.3380 O   0  0  0  0  0  0  0  0  0  0  0  0
   19.2330   75.8160    9.1570 O   0  0  0  0  0  0  0  0  0  0  0  0
   20.1900   78.2740    9.3490 N   0  0  0  0  0  0  0  0  0  0  0  0
   19.4810   79.0680   10.2350 C   0  0  0  0  0  0  0  0  0  0  0  0
   20.4150   80.2170   10.7060 C   0  0  0  0  0  0  0  0  0  0  0  0
   21.6540   79.6670   11.1800 N   0  0  0  0  0  0  0  0  0  0  0  0
   22.4160   78.8750   10.2410 C   0  0  0  0  0  0  0  0  0  0  0  0
   21.5360   78.6610    9.0290 C   0  0  0  0  0  0  0  0  0  0  0  0
   22.1480   79.8610   12.4840 C   0  0  0  0  0  0  0  0  0  0  0  0
   23.2850   79.4280   12.7770 O   0  0  0  0  0  0  0  0  0  0  0  0
   21.3540   80.5590   13.4970 C   0  0  0  0  0  0  0  0  0  0  0  0
   21.8270   80.2270   14.8380 N   0  0  0  0  0  0  0  0  0  0  0  0
   22.7000   80.9400   15.6900 C   0  0  0  0  0  0  0  0  0  0  0  0
   23.2490   82.0550   15.4070 O   0  0  0  0  0  0  0  0  0  0  0  0
   22.8390   80.1860   16.8880 N   0  0  0  0  0  0  0  0  0  0  0  0
   21.7100   79.2950   16.9570 C   0  0  0  0  0  0  0  0  0  0  0  0
   20.5360   79.8640   17.6850 C   0  0  0  0  0  0  0  0  0  0  0  0
   19.6940   78.6090   17.9430 C   0  0  0  0  0  0  0  0  0  0  0  0
   20.7150   77.5430   18.2320 C   0  0  0  0  0  0  0  0  0  0  0  0
   22.0300   78.0280   17.7160 C   0  0  0  0  0  0  0  0  0  0  0  0
   21.4300   79.0240   15.5270 C   0  0  0  0  0  0  0  0  0  0  0  0
   20.9530   77.9760   15.0380 O   0  0  0  0  0  0  0  0  0  0  0  0
   18.0760   77.5330    7.4870 C   0  0  0  0  0  0  0  0  0  0  0  0
   17.4610   76.7640    6.5350 C   0  0  0  0  0  0  0  0  0  0  0  0
   16.3430   77.2180    5.8270 C   0  0  0  0  0  0  0  0  0  0  0  0
   15.8080   78.4480    6.0470 C   0  0  0  0  0  0  0  0  0  0  0  0
   16.3980   79.2400    6.9950 C   0  0  0  0  0  0  0  0  0  0  0  0
   17.4970   78.7990    7.6920 C   0  0  0  0  0  0  0  0  0  0  0  0
   18.0970   75.0060    6.2120 B   0  0  0  0  0  0  0  0  0  0  0  0
   19.0560   78.5700   11.1300 H   0  0  0  0  0  0  0  0  0  0  0  0
   18.6610   79.6130    9.7290 H   0  0  0  0  0  0  0  0  0  0  0  0
   20.5690   80.8660    9.8370 H   0  0  0  0  0  0  0  0  0  0  0  0
   19.8380   80.7640   11.4550 H   0  0  0  0  0  0  0  0  0  0  0  0
   23.2810   79.4940    9.8780 H   0  0  0  0  0  0  0  0  0  0  0  0
   22.8110   77.9440   10.6430 H   0  0  0  0  0  0  0  0  0  0  0  0
   21.9630   77.9310    8.3190 H   0  0  0  0  0  0  0  0  0  0  0  0
   21.4860   79.6340    8.4950 H   0  0  0  0  0  0  0  0  0  0  0  0
   20.2580   80.3710   13.3830 H   0  0  0  0  0  0  0  0  0  0  0  0
   21.4480   81.6800   13.4210 H   0  0  0  0  0  0  0  0  0  0  0  0
   23.6480   80.3200   17.5440 H   0  0  0  0  0  0  0  0  0  0  0  0
   20.8760   80.2410   18.6630 H   0  0  0  0  0  0  0  0  0  0  0  0
   19.9620   80.6020   17.0900 H   0  0  0  0  0  0  0  0  0  0  0  0
   19.1560   78.3400   17.0080 H   0  0  0  0  0  0  0  0  0  0  0  0
   18.9970   78.7780   18.7780 H   0  0  0  0  0  0  0  0  0  0  0  0
   20.4710   76.5920   17.7310 H   0  0  0  0  0  0  0  0  0  0  0  0
   20.7970   77.4460   19.3290 H   0  0  0  0  0  0  0  0  0  0  0  0
   22.7650   78.2480   18.5030 H   0  0  0  0  0  0  0  0  0  0  0  0
   22.5090   77.2850   17.0210 H   0  0  0  0  0  0  0  0  0  0  0  0
   15.9240   76.5560    5.1000 H   0  0  0  0  0  0  0  0  0  0  0  0
   14.9480   78.7360    5.4690 H   0  0  0  0  0  0  0  0  0  0  0  0
   15.9700   80.2180    7.1700 H   0  0  0  0  0  0  0  0  0  0  0  0
   17.9600   79.4270    8.4400 H   0  0  0  0  0  0  0  0  0  0  0  0
  1  3  2  0  0  0  0
  1  4  1  0  0  0  0
  2  1  2  0  0  0  0
  4  5  1  0  0  0  0
  5  6  1  0  0  0  0
  5 31  1  0  0  0  0
  6  7  1  0  0  0  0
  6 34  1  0  0  0  0
  7 10  1  0  0  0  0
  8 36  1  0  0  0  0
  8  7  1  0  0  0  0
  9  4  1  0  0  0  0
  9  8  1  0  0  0  0
 10 11  2  0  0  0  0
 10 12  1  0  0  0  0
 12 13  1  0  0  0  0
 13 22  1  0  0  0  0
 13 14  1  0  0  0  0
 14 16  1  0  0  0  0
 15 14  2  0  0  0  0
 16 17  1  0  0  0  0
 16 41  1  0  0  0  0
 17 18  1  0  0  0  0
 17 21  1  0  0  0  0
 18 19  1  0  0  0  0
 18 42  1  0  0  0  0
 19 20  1  0  0  0  0
 19 45  1  0  0  0  0
 20 47  1  0  0  0  0
 21 20  1  0  0  0  0
 21 48  1  0  0  0  0
 22 17  1  0  0  0  0
 23 22  2  0  0  0  0
 24 29  1  0  0  0  0
 24  1  1  0  0  0  0
 25 24  2  0  0  0  0
 26 27  2  0  0  0  0
 26 25  1  0  0  0  0
 27 28  1  0  0  0  0
 28 52  1  0  0  0  0
 28 29  2  0  0  0  0
 29 53  1  0  0  0  0
 30 25  1  0  0  0  0
 32  5  1  0  0  0  0
 33  6  1  0  0  0  0
 35  8  1  0  0  0  0
 37  9  1  0  0  0  0
 38  9  1  0  0  0  0
 39 12  1  0  0  0  0
 40 12  1  0  0  0  0
 43 18  1  0  0  0  0
 44 19  1  0  0  0  0
 46 20  1  0  0  0  0
 49 21  1  0  0  0  0
 50 26  1  0  0  0  0
 51 27  1  0  0  0  0
M  END
>  <Pose>
1

>  <Score>
-7.13

$$$$
