
 OpenBabel03222202113D

 53 56  0  0  0  0  0  0  0  0999 V2000
   22.8270   79.7200   13.6950 S   0  0  0  0  0  0  0  0  0  0  0  0
   22.8830   81.2350   13.6150 O   0  0  0  0  0  0  0  0  0  0  0  0
   24.2620   79.2560   13.6620 O   0  0  0  0  0  0  0  0  0  0  0  0
   22.0260   79.1750   12.2900 N   0  0  0  0  0  0  0  0  0  0  0  0
   20.5990   79.4130   12.3200 C   0  0  0  0  0  0  0  0  0  0  0  0
   20.0990   79.9000   10.9820 C   0  0  0  0  0  0  0  0  0  0  0  0
   20.5860   78.9430    9.9680 N   0  0  0  0  0  0  0  0  0  0  0  0
   22.0020   78.7450    9.9440 C   0  0  0  0  0  0  0  0  0  0  0  0
   22.6040   79.6170   11.0700 C   0  0  0  0  0  0  0  0  0  0  0  0
   19.6870   78.2910    9.1120 C   0  0  0  0  0  0  0  0  0  0  0  0
   18.4180   78.4420    9.4340 O   0  0  0  0  0  0  0  0  0  0  0  0
   19.8700   77.4800    7.9350 C   0  0  0  0  0  0  0  0  0  0  0  0
   18.9260   76.4590    7.6050 N   0  0  0  0  0  0  0  0  0  0  0  0
   18.8680   75.1070    8.1270 C   0  0  0  0  0  0  0  0  0  0  0  0
   19.6830   74.6740    8.9890 O   0  0  0  0  0  0  0  0  0  0  0  0
   17.7810   74.4460    7.5000 N   0  0  0  0  0  0  0  0  0  0  0  0
   17.4550   75.1840    6.3270 C   0  0  0  0  0  0  0  0  0  0  0  0
   18.1330   74.6630    5.0830 C   0  0  0  0  0  0  0  0  0  0  0  0
   17.3690   75.3920    3.9950 C   0  0  0  0  0  0  0  0  0  0  0  0
   15.9890   75.6470    4.5540 C   0  0  0  0  0  0  0  0  0  0  0  0
   15.9890   75.0700    5.9490 C   0  0  0  0  0  0  0  0  0  0  0  0
   17.8400   76.5550    6.6600 C   0  0  0  0  0  0  0  0  0  0  0  0
   17.3490   77.6300    6.2310 O   0  0  0  0  0  0  0  0  0  0  0  0
   22.0560   79.1980   15.1730 C   0  0  0  0  0  0  0  0  0  0  0  0
   21.6310   80.0910   16.1360 C   0  0  0  0  0  0  0  0  0  0  0  0
   21.0180   79.6650   17.3090 C   0  0  0  0  0  0  0  0  0  0  0  0
   20.8150   78.3310   17.5490 C   0  0  0  0  0  0  0  0  0  0  0  0
   21.2340   77.4280   16.5940 C   0  0  0  0  0  0  0  0  0  0  0  0
   21.8440   77.8590   15.4260 C   0  0  0  0  0  0  0  0  0  0  0  0
   19.9660   77.7330   19.1710 B   0  0  0  0  0  0  0  0  0  0  0  0
   20.1260   78.3990   12.4720 H   0  0  0  0  0  0  0  0  0  0  0  0
   20.3170   80.1050   13.1340 H   0  0  0  0  0  0  0  0  0  0  0  0
   20.4450   80.9160   10.8140 H   0  0  0  0  0  0  0  0  0  0  0  0
   18.9880   79.8890   11.0080 H   0  0  0  0  0  0  0  0  0  0  0  0
   22.5000   78.9930    9.0000 H   0  0  0  0  0  0  0  0  0  0  0  0
   22.2120   77.6720   10.2340 H   0  0  0  0  0  0  0  0  0  0  0  0
   22.4310   80.6500   10.7760 H   0  0  0  0  0  0  0  0  0  0  0  0
   23.7070   79.4570   11.0970 H   0  0  0  0  0  0  0  0  0  0  0  0
   20.8980   76.9610    7.9830 H   0  0  0  0  0  0  0  0  0  0  0  0
   19.9870   78.1220    6.9960 H   0  0  0  0  0  0  0  0  0  0  0  0
   17.3470   73.5680    7.8960 H   0  0  0  0  0  0  0  0  0  0  0  0
   17.8880   73.5880    4.9940 H   0  0  0  0  0  0  0  0  0  0  0  0
   19.2060   74.8670    5.0590 H   0  0  0  0  0  0  0  0  0  0  0  0
   17.2850   74.7980    3.0650 H   0  0  0  0  0  0  0  0  0  0  0  0
   17.9230   76.3400    3.8120 H   0  0  0  0  0  0  0  0  0  0  0  0
   15.1960   75.2070    3.9180 H   0  0  0  0  0  0  0  0  0  0  0  0
   15.8680   76.7500    4.6550 H   0  0  0  0  0  0  0  0  0  0  0  0
   15.7690   73.9690    5.9380 H   0  0  0  0  0  0  0  0  0  0  0  0
   15.3350   75.6120    6.6410 H   0  0  0  0  0  0  0  0  0  0  0  0
   21.7890   81.1390   15.9520 H   0  0  0  0  0  0  0  0  0  0  0  0
   20.6820   80.3550   18.0720 H   0  0  0  0  0  0  0  0  0  0  0  0
   21.0590   76.3740   16.8080 H   0  0  0  0  0  0  0  0  0  0  0  0
   22.1630   77.1030   14.6940 H   0  0  0  0  0  0  0  0  0  0  0  0
  1 24  1  0  0  0  0
  2  1  2  0  0  0  0
  3  1  2  0  0  0  0
  4  5  1  0  0  0  0
  4  1  1  0  0  0  0
  5 31  1  0  0  0  0
  5 32  1  0  0  0  0
  6 34  1  0  0  0  0
  6  5  1  0  0  0  0
  7  6  1  0  0  0  0
  8  7  1  0  0  0  0
  8 36  1  0  0  0  0
  8  9  1  0  0  0  0
  9 38  1  0  0  0  0
  9  4  1  0  0  0  0
 10 11  2  0  0  0  0
 10  7  1  0  0  0  0
 12 39  1  0  0  0  0
 12 10  1  0  0  0  0
 13 12  1  0  0  0  0
 13 14  1  0  0  0  0
 14 15  2  0  0  0  0
 16 41  1  0  0  0  0
 16 14  1  0  0  0  0
 17 22  1  0  0  0  0
 17 16  1  0  0  0  0
 18 17  1  0  0  0  0
 19 20  1  0  0  0  0
 19 18  1  0  0  0  0
 20 47  1  0  0  0  0
 20 21  1  0  0  0  0
 21 17  1  0  0  0  0
 21 49  1  0  0  0  0
 22 13  1  0  0  0  0
 23 22  2  0  0  0  0
 24 29  2  0  0  0  0
 24 25  1  0  0  0  0
 25 26  2  0  0  0  0
 26 27  1  0  0  0  0
 26 51  1  0  0  0  0
 27 30  1  0  0  0  0
 28 52  1  0  0  0  0
 28 27  2  0  0  0  0
 29 28  1  0  0  0  0
 33  6  1  0  0  0  0
 35  8  1  0  0  0  0
 37  9  1  0  0  0  0
 40 12  1  0  0  0  0
 42 18  1  0  0  0  0
 43 18  1  0  0  0  0
 44 19  1  0  0  0  0
 45 19  1  0  0  0  0
 46 20  1  0  0  0  0
 48 21  1  0  0  0  0
 50 25  1  0  0  0  0
 53 29  1  0  0  0  0
M  END
>  <Pose>
1

>  <Score>
-8.23

$$$$
