
 OpenBabel03222202113D

 43 46  0  0  0  0  0  0  0  0999 V2000
   20.1160   78.3600   19.3440 S   0  0  0  0  0  0  0  0  0  0  0  0
   21.5340   77.9630   19.0860 O   0  0  0  0  0  0  0  0  0  0  0  0
   19.7400   77.9070   20.7480 O   0  0  0  0  0  0  0  0  0  0  0  0
   19.0610   77.5310   18.2650 N   0  0  0  0  0  0  0  0  0  0  0  0
   19.2850   76.1340   18.1990 C   0  0  0  0  0  0  0  0  0  0  0  0
   19.7730   75.5960   16.8970 C   0  0  0  0  0  0  0  0  0  0  0  0
   19.2540   76.2860   15.7470 N   0  0  0  0  0  0  0  0  0  0  0  0
   18.3300   77.3680   16.0050 C   0  0  0  0  0  0  0  0  0  0  0  0
   19.0300   78.2370   17.0300 C   0  0  0  0  0  0  0  0  0  0  0  0
   19.5840   75.9730   14.4150 C   0  0  0  0  0  0  0  0  0  0  0  0
   20.2310   76.7910   13.7250 O   0  0  0  0  0  0  0  0  0  0  0  0
   19.1780   74.7000   13.8290 C   0  0  0  0  0  0  0  0  0  0  0  0
   17.9780   74.4190   13.3320 N   0  0  0  0  0  0  0  0  0  0  0  0
   17.9450   73.1650   12.8770 N   0  0  0  0  0  0  0  0  0  0  0  0
   19.1510   72.5850   13.0720 C   0  0  0  0  0  0  0  0  0  0  0  0
   19.9390   73.5680   13.6820 C   0  0  0  0  0  0  0  0  0  0  0  0
   19.4000   71.3040   12.7020 N   0  0  0  0  0  0  0  0  0  0  0  0
   18.4090   70.5730   12.1150 C   0  0  0  0  0  0  0  0  0  0  0  0
   17.1700   71.1360   11.9010 C   0  0  0  0  0  0  0  0  0  0  0  0
   16.9670   72.4390   12.2950 C   0  0  0  0  0  0  0  0  0  0  0  0
   15.7750   70.1030   11.0730 B   0  0  0  0  0  0  0  0  0  0  0  0
   19.9740   80.0940   19.1950 C   0  0  0  0  0  0  0  0  0  0  0  0
   19.5720   80.9850   20.1630 C   0  0  0  0  0  0  0  0  0  0  0  0
   19.5920   82.2240   19.6700 N   0  0  0  0  0  0  0  0  0  0  0  0
   19.9940   82.1680   18.4150 N   0  0  0  0  0  0  0  0  0  0  0  0
   20.2420   80.8780   18.0730 C   0  0  0  0  0  0  0  0  0  0  0  0
   19.2440   83.4420   20.3540 C   0  0  0  0  0  0  0  0  0  0  0  0
   19.9990   75.8390   18.9960 H   0  0  0  0  0  0  0  0  0  0  0  0
   18.3270   75.6190   18.4420 H   0  0  0  0  0  0  0  0  0  0  0  0
   20.9000   75.6240   16.8300 H   0  0  0  0  0  0  0  0  0  0  0  0
   19.5070   74.5240   16.7770 H   0  0  0  0  0  0  0  0  0  0  0  0
   18.1010   77.9580   15.0980 H   0  0  0  0  0  0  0  0  0  0  0  0
   17.4220   76.9090   16.4560 H   0  0  0  0  0  0  0  0  0  0  0  0
   18.4360   79.1650   17.1740 H   0  0  0  0  0  0  0  0  0  0  0  0
   20.0240   78.5100   16.6440 H   0  0  0  0  0  0  0  0  0  0  0  0
   20.9600   73.4590   13.9820 H   0  0  0  0  0  0  0  0  0  0  0  0
   18.5620   69.5480   11.8030 H   0  0  0  0  0  0  0  0  0  0  0  0
   15.9960   72.8970   12.1350 H   0  0  0  0  0  0  0  0  0  0  0  0
   19.2720   80.7680   21.1920 H   0  0  0  0  0  0  0  0  0  0  0  0
   20.5840   80.5080   17.1150 H   0  0  0  0  0  0  0  0  0  0  0  0
   18.2710   83.7980   19.9570 H   0  0  0  0  0  0  0  0  0  0  0  0
   19.9810   84.2340   20.1150 H   0  0  0  0  0  0  0  0  0  0  0  0
   19.1570   83.2860   21.4470 H   0  0  0  0  0  0  0  0  0  0  0  0
  1  3  2  0  0  0  0
  2  1  2  0  0  0  0
  4  1  1  0  0  0  0
  5  4  1  0  0  0  0
  5 29  1  0  0  0  0
  5 28  1  0  0  0  0
  6  5  1  0  0  0  0
  7  8  1  0  0  0  0
  7  6  1  0  0  0  0
  8 33  1  0  0  0  0
  8  9  1  0  0  0  0
  9 34  1  0  0  0  0
  9  4  1  0  0  0  0
 10  7  1  0  0  0  0
 11 10  2  0  0  0  0
 12 10  1  0  0  0  0
 13 12  2  0  0  0  0
 14 15  1  0  0  0  0
 14 13  1  0  0  0  0
 15 16  2  0  0  0  0
 16 12  1  0  0  0  0
 16 36  1  0  0  0  0
 17 15  1  0  0  0  0
 18 17  2  0  0  0  0
 19 18  1  0  0  0  0
 19 20  2  0  0  0  0
 20 14  1  0  0  0  0
 21 19  1  0  0  0  0
 22  1  1  0  0  0  0
 22 23  2  0  0  0  0
 23 39  1  0  0  0  0
 24 23  1  0  0  0  0
 24 27  1  0  0  0  0
 25 24  1  0  0  0  0
 26 25  2  0  0  0  0
 26 22  1  0  0  0  0
 27 43  1  0  0  0  0
 30  6  1  0  0  0  0
 31  6  1  0  0  0  0
 32  8  1  0  0  0  0
 35  9  1  0  0  0  0
 37 18  1  0  0  0  0
 38 20  1  0  0  0  0
 40 26  1  0  0  0  0
 41 27  1  0  0  0  0
 42 27  1  0  0  0  0
M  END
>  <Pose>
1

>  <Score>
-7.12

$$$$
