
 OpenBabel03222202113D

 49 52  0  0  1  0  0  0  0  0999 V2000
   19.7750   77.2680    9.7820 S   0  0  0  0  0  0  0  0  0  0  0  0
   20.7430   76.1540    9.5890 O   0  0  0  0  0  0  0  0  0  0  0  0
   18.9640   76.9880   11.0230 O   0  0  0  0  0  0  0  0  0  0  0  0
   20.5930   78.7340    9.9960 N   0  0  0  0  0  0  0  0  0  0  0  0
   22.0040   78.6770    9.9740 C   0  0  0  0  0  0  0  0  0  0  0  0
   22.7040   78.7420   11.2690 C   0  0  0  0  0  0  0  0  0  0  0  0
   22.0850   79.6670   12.1700 N   0  0  0  0  0  0  0  0  0  0  0  0
   20.9610   80.4400   11.7240 C   0  0  0  0  0  0  0  0  0  0  0  0
   19.9960   79.6640   10.8840 C   0  0  0  0  0  0  0  0  0  0  0  0
   22.5680   79.8250   13.4850 C   0  0  0  0  0  0  0  0  0  0  0  0
   23.5140   80.6180   13.6920 O   0  0  0  0  0  0  0  0  0  0  0  0
   22.0280   79.1130   14.6360 C   0  0  1  0  0  0  0  0  0  0  0  0
   22.1790   77.7420   14.7300 C   0  0  0  0  0  0  0  0  0  0  0  0
   21.6830   77.0840   15.7900 N   0  0  0  0  0  0  0  0  0  0  0  0
   21.0310   77.7120   16.7920 C   0  0  1  0  0  0  0  0  0  0  0  0
   20.8660   79.0450   16.7320 N   0  0  0  0  0  0  0  0  0  0  0  0
   20.2080   79.6830   17.7400 C   0  0  0  0  0  0  0  0  0  0  0  0
   19.7010   79.0000   18.8270 C   0  0  0  0  0  0  0  0  0  0  0  0
   19.8580   77.6260   18.9090 C   0  0  0  0  0  0  0  0  0  0  0  0
   20.5270   77.0050   17.8780 C   0  0  0  0  0  0  0  0  0  0  0  0
   18.9790   79.6580   19.9430 C   0  0  0  0  0  0  0  0  0  0  0  0
   21.3580   79.7360   15.6700 C   0  0  0  0  0  0  0  0  0  0  0  0
   21.2070   80.9660   15.6160 O   0  0  0  0  0  0  0  0  0  0  0  0
   18.6790   77.3850    8.4310 C   0  0  0  0  0  0  0  0  0  0  0  0
   18.4380   76.2830    7.6370 C   0  0  0  0  0  0  0  0  0  0  0  0
   17.5530   76.4460    6.5770 C   0  0  0  0  0  0  0  0  0  0  0  0
   16.9360   77.6420    6.3160 C   0  0  0  0  0  0  0  0  0  0  0  0
   17.1860   78.7430    7.1220 C   0  0  0  0  0  0  0  0  0  0  0  0
   18.0730   78.6010    8.1940 C   0  0  0  0  0  0  0  0  0  0  0  0
   17.1790   74.9650    5.4440 B   0  0  0  0  0  0  0  0  0  0  0  0
   22.3090   77.7390    9.4410 H   0  0  0  0  0  0  0  0  0  0  0  0
   22.3800   79.5100    9.3260 H   0  0  0  0  0  0  0  0  0  0  0  0
   22.6950   77.7000   11.7080 H   0  0  0  0  0  0  0  0  0  0  0  0
   23.7810   79.0560   11.1810 H   0  0  0  0  0  0  0  0  0  0  0  0
   20.4500   80.9010   12.5930 H   0  0  0  0  0  0  0  0  0  0  0  0
   21.3870   81.3140   11.1470 H   0  0  0  0  0  0  0  0  0  0  0  0
   19.3810   80.3810   10.3030 H   0  0  0  0  0  0  0  0  0  0  0  0
   19.3030   79.1230   11.5600 H   0  0  0  0  0  0  0  0  0  0  0  0
   22.7070   77.2170   13.9250 H   0  0  0  0  0  0  0  0  0  0  0  0
   20.0800   80.7550   17.6850 H   0  0  0  0  0  0  0  0  0  0  0  0
   19.4840   77.0370   19.7350 H   0  0  0  0  0  0  0  0  0  0  0  0
   20.6570   75.9340   17.9280 H   0  0  0  0  0  0  0  0  0  0  0  0
   19.7050   79.9930   20.7320 H   0  0  0  0  0  0  0  0  0  0  0  0
   18.2460   78.9580   20.4120 H   0  0  0  0  0  0  0  0  0  0  0  0
   18.4730   80.5890   19.6060 H   0  0  0  0  0  0  0  0  0  0  0  0
   18.9210   75.3420    7.8390 H   0  0  0  0  0  0  0  0  0  0  0  0
   16.2550   77.7210    5.4800 H   0  0  0  0  0  0  0  0  0  0  0  0
   16.6950   79.6780    6.9070 H   0  0  0  0  0  0  0  0  0  0  0  0
   18.2780   79.4440    8.8290 H   0  0  0  0  0  0  0  0  0  0  0  0
  1  4  1  0  0  0  0
  1  3  2  0  0  0  0
  2  1  2  0  0  0  0
  4  9  1  0  0  0  0
  5  4  1  0  0  0  0
  5  6  1  0  0  0  0
  6 33  1  0  0  0  0
  6  7  1  0  0  0  0
  7 10  1  0  0  0  0
  8  7  1  0  0  0  0
  8 35  1  0  0  0  0
  9 38  1  0  0  0  0
  9  8  1  0  0  0  0
 10 11  2  0  0  0  0
 12 10  1  1  0  0  0
 12 13  1  0  0  0  0
 12 22  1  0  0  0  0
 13 14  2  0  0  0  0
 15 14  1  6  0  0  0
 15 20  1  0  0  0  0
 16 15  1  0  0  0  0
 16 17  1  0  0  0  0
 17 18  2  0  0  0  0
 18 19  1  0  0  0  0
 18 21  1  0  0  0  0
 19 41  1  0  0  0  0
 20 42  1  0  0  0  0
 20 19  2  0  0  0  0
 21 44  1  0  0  0  0
 21 43  1  0  0  0  0
 22 16  1  0  0  0  0
 23 22  2  0  0  0  0
 24  1  1  0  0  0  0
 25 46  1  0  0  0  0
 25 24  2  0  0  0  0
 26 25  1  0  0  0  0
 27 26  2  0  0  0  0
 27 28  1  0  0  0  0
 28 29  2  0  0  0  0
 29 24  1  0  0  0  0
 29 49  1  0  0  0  0
 30 26  1  0  0  0  0
 31  5  1  0  0  0  0
 32  5  1  0  0  0  0
 34  6  1  0  0  0  0
 36  8  1  0  0  0  0
 37  9  1  0  0  0  0
 39 13  1  0  0  0  0
 40 17  1  0  0  0  0
 45 21  1  0  0  0  0
 47 27  1  0  0  0  0
 48 28  1  0  0  0  0
M  END
>  <Pose>
1

>  <Score>
-7.27

$$$$
