
 OpenBabel03222202113D

 54 58  0  0  1  0  0  0  0  0999 V2000
   19.8420   78.2350   10.7690 S   0  0  0  0  0  0  0  0  0  0  0  0
   19.6250   77.4840   12.0760 O   0  0  0  0  0  0  0  0  0  0  0  0
   18.8840   79.4230   10.8690 O   0  0  0  0  0  0  0  0  0  0  0  0
   21.4070   78.8430   10.7770 N   0  0  0  0  0  0  0  0  0  0  0  0
   21.5490   80.2690   10.6380 C   0  0  0  0  0  0  0  0  0  0  0  0
   22.5290   80.8320   11.6410 C   0  0  0  0  0  0  0  0  0  0  0  0
   22.1340   80.4340   13.0150 N   0  0  0  0  0  0  0  0  0  0  0  0
   22.2440   78.9840   13.0980 C   0  0  0  0  0  0  0  0  0  0  0  0
   22.3250   78.3130   11.7380 C   0  0  0  0  0  0  0  0  0  0  0  0
   23.1440   81.0440   13.8530 C   0  0  0  0  0  0  0  0  0  0  0  0
   22.7610   81.4430   15.2140 C   0  0  0  0  0  0  0  0  0  0  0  0
   22.2250   80.4760   16.1110 N   0  0  0  0  0  0  0  0  0  0  0  0
   22.5080   79.0890   16.2600 C   0  0  0  0  0  0  0  0  0  0  0  0
   22.9510   78.3480   15.3700 O   0  0  0  0  0  0  0  0  0  0  0  0
   22.1850   78.6820   17.6490 C   0  0  1  0  0  0  0  0  0  0  0  0
   21.0450   79.6750   17.9710 C   0  0  2  0  0  0  0  0  0  0  0  0
   19.7870   78.9200   17.7580 C   0  0  1  0  0  0  0  0  0  0  0  0
   20.2320   77.8190   16.7810 C   0  0  0  0  0  0  0  0  0  0  0  0
   21.4330   77.4000   17.6480 C   0  0  2  0  0  0  0  0  0  0  0  0
   20.7400   77.3050   18.9770 C   0  0  0  0  0  0  0  0  0  0  0  0
   19.6190   78.0260   18.9690 C   0  0  0  0  0  0  0  0  0  0  0  0
   21.2560   80.8370   17.1200 C   0  0  0  0  0  0  0  0  0  0  0  0
   20.6800   81.9440   17.2660 O   0  0  0  0  0  0  0  0  0  0  0  0
   19.3610   77.3050    9.4080 C   0  0  0  0  0  0  0  0  0  0  0  0
   18.7970   77.9060    8.3090 C   0  0  0  0  0  0  0  0  0  0  0  0
   18.4310   77.1260    7.2260 C   0  0  0  0  0  0  0  0  0  0  0  0
   18.6090   75.7550    7.2050 C   0  0  0  0  0  0  0  0  0  0  0  0
   19.1760   75.1560    8.3100 C   0  0  0  0  0  0  0  0  0  0  0  0
   19.5430   75.9410    9.3980 C   0  0  0  0  0  0  0  0  0  0  0  0
   18.1040   74.6780    5.7150 B   0  0  0  0  0  0  0  0  0  0  0  0
   21.9930   80.4600    9.6330 H   0  0  0  0  0  0  0  0  0  0  0  0
   20.5820   80.7680   10.6770 H   0  0  0  0  0  0  0  0  0  0  0  0
   22.4660   81.9340   11.6140 H   0  0  0  0  0  0  0  0  0  0  0  0
   23.5780   80.5370   11.4540 H   0  0  0  0  0  0  0  0  0  0  0  0
   21.3170   78.5920   13.5480 H   0  0  0  0  0  0  0  0  0  0  0  0
   23.1270   78.7510   13.7190 H   0  0  0  0  0  0  0  0  0  0  0  0
   22.2150   77.2320   11.8050 H   0  0  0  0  0  0  0  0  0  0  0  0
   23.3490   78.5140   11.3490 H   0  0  0  0  0  0  0  0  0  0  0  0
   23.5190   81.9880   13.3400 H   0  0  0  0  0  0  0  0  0  0  0  0
   24.0760   80.3940   13.8290 H   0  0  0  0  0  0  0  0  0  0  0  0
   23.7070   81.8540   15.7000 H   0  0  0  0  0  0  0  0  0  0  0  0
   22.0960   82.3480   15.1270 H   0  0  0  0  0  0  0  0  0  0  0  0
   23.0180   78.7600   18.3410 H   0  0  0  0  0  0  0  0  0  0  0  0
   21.0950   79.9380   19.0670 H   0  0  0  0  0  0  0  0  0  0  0  0
   18.9140   79.4470   17.4550 H   0  0  0  0  0  0  0  0  0  0  0  0
   19.4990   77.0070   16.7050 H   0  0  0  0  0  0  0  0  0  0  0  0
   20.6000   78.2040   15.8350 H   0  0  0  0  0  0  0  0  0  0  0  0
   21.9270   76.5140   17.3290 H   0  0  0  0  0  0  0  0  0  0  0  0
   21.0610   76.7460   19.8490 H   0  0  0  0  0  0  0  0  0  0  0  0
   18.7950   77.9820   19.6560 H   0  0  0  0  0  0  0  0  0  0  0  0
   18.6320   78.9950    8.2680 H   0  0  0  0  0  0  0  0  0  0  0  0
   17.9840   77.6050    6.3560 H   0  0  0  0  0  0  0  0  0  0  0  0
   19.3080   74.0860    8.2800 H   0  0  0  0  0  0  0  0  0  0  0  0
   19.9810   75.3910   10.2180 H   0  0  0  0  0  0  0  0  0  0  0  0
  1  4  1  0  0  0  0
  1  3  2  0  0  0  0
  1  2  2  0  0  0  0
  4  9  1  0  0  0  0
  5 32  1  0  0  0  0
  5  4  1  0  0  0  0
  5  6  1  0  0  0  0
  6  7  1  0  0  0  0
  7  8  1  0  0  0  0
  7 10  1  0  0  0  0
  8 35  1  0  0  0  0
  8 36  1  0  0  0  0
  9 37  1  0  0  0  0
  9  8  1  0  0  0  0
 10 11  1  0  0  0  0
 11 41  1  0  0  0  0
 11 12  1  0  0  0  0
 12 13  1  0  0  0  0
 12 22  1  0  0  0  0
 13 15  1  0  0  0  0
 14 13  2  0  0  0  0
 15 16  1  0  0  0  0
 15 43  1  1  0  0  0
 16 44  1  1  0  0  0
 17 45  1  6  0  0  0
 17 16  1  0  0  0  0
 17 21  1  0  0  0  0
 18 19  1  0  0  0  0
 18 17  1  0  0  0  0
 19 48  1  6  0  0  0
 19 15  1  0  0  0  0
 19 20  1  0  0  0  0
 20 49  1  0  0  0  0
 21 20  1  0  0  0  0
 21 50  1  0  0  0  0
 22 23  2  0  0  0  0
 22 16  1  0  0  0  0
 24  1  1  0  0  0  0
 25 24  2  0  0  0  0
 26 25  1  0  0  0  0
 27 26  2  0  0  0  0
 27 28  1  0  0  0  0
 28 29  2  0  0  0  0
 29 24  1  0  0  0  0
 29 54  1  0  0  0  0
 30 27  1  0  0  0  0
 31  5  1  0  0  0  0
 33  6  1  0  0  0  0
 34  6  1  0  0  0  0
 38  9  1  0  0  0  0
 39 10  1  0  0  0  0
 40 10  1  0  0  0  0
 42 11  1  0  0  0  0
 46 18  1  0  0  0  0
 47 18  1  0  0  0  0
 51 25  1  0  0  0  0
 52 26  1  0  0  0  0
 53 28  1  0  0  0  0
M  END
>  <Pose>
1

>  <Score>
-8.30

$$$$
