
 OpenBabel03222202113D

 52 55  0  0  0  0  0  0  0  0999 V2000
   23.0740   79.7970   13.5050 S   0  0  0  0  0  0  0  0  0  0  0  0
   23.4870   81.2390   13.6430 O   0  0  0  0  0  0  0  0  0  0  0  0
   24.3400   79.0170   13.2390 O   0  0  0  0  0  0  0  0  0  0  0  0
   22.0360   79.5500   12.1660 N   0  0  0  0  0  0  0  0  0  0  0  0
   21.5500   80.7580   11.5770 C   0  0  0  0  0  0  0  0  0  0  0  0
   20.4020   80.3360   10.6430 C   0  0  0  0  0  0  0  0  0  0  0  0
   20.6100   79.0610   10.1100 N   0  0  0  0  0  0  0  0  0  0  0  0
   21.9790   78.6750    9.9000 C   0  0  0  0  0  0  0  0  0  0  0  0
   22.8460   78.9060   11.1170 C   0  0  0  0  0  0  0  0  0  0  0  0
   19.7180   78.0090   10.3670 C   0  0  0  0  0  0  0  0  0  0  0  0
   19.1290   77.3280    9.2590 N   0  0  0  0  0  0  0  0  0  0  0  0
   18.0870   77.9250    8.5040 N   0  0  0  0  0  0  0  0  0  0  0  0
   17.7590   76.9820    7.4880 C   0  0  0  0  0  0  0  0  0  0  0  0
   16.8160   77.1980    6.5790 C   0  0  0  0  0  0  0  0  0  0  0  0
   16.2800   76.4170    5.4410 C   0  0  0  0  0  0  0  0  0  0  0  0
   16.4500   74.9350    5.6750 C   0  0  0  0  0  0  0  0  0  0  0  0
   17.9330   74.6510    5.5140 C   0  0  0  0  0  0  0  0  0  0  0  0
   18.6370   74.6040    6.8350 C   0  0  0  0  0  0  0  0  0  0  0  0
   18.5650   75.8180    7.5890 N   0  0  0  0  0  0  0  0  0  0  0  0
   19.4170   76.0530    8.7060 C   0  0  0  0  0  0  0  0  0  0  0  0
   20.2770   75.2290    9.1050 O   0  0  0  0  0  0  0  0  0  0  0  0
   22.4220   79.2540   15.0030 C   0  0  0  0  0  0  0  0  0  0  0  0
   21.3520   78.4230   15.1600 C   0  0  0  0  0  0  0  0  0  0  0  0
   20.9050   78.0450   16.4180 C   0  0  0  0  0  0  0  0  0  0  0  0
   21.5170   78.4880   17.5520 C   0  0  0  0  0  0  0  0  0  0  0  0
   22.6080   79.3340   17.4240 C   0  0  0  0  0  0  0  0  0  0  0  0
   23.0400   79.7020   16.1750 C   0  0  0  0  0  0  0  0  0  0  0  0
   19.3950   76.8730   16.6150 B   0  0  0  0  0  0  0  0  0  0  0  0
   21.2230   81.5240   12.2970 H   0  0  0  0  0  0  0  0  0  0  0  0
   22.3220   81.2320   10.9120 H   0  0  0  0  0  0  0  0  0  0  0  0
   19.5000   80.3640   11.2760 H   0  0  0  0  0  0  0  0  0  0  0  0
   20.2490   81.1220    9.8640 H   0  0  0  0  0  0  0  0  0  0  0  0
   21.9950   77.5850    9.6930 H   0  0  0  0  0  0  0  0  0  0  0  0
   22.3540   79.1830    8.9940 H   0  0  0  0  0  0  0  0  0  0  0  0
   23.6110   79.6590   10.8320 H   0  0  0  0  0  0  0  0  0  0  0  0
   23.3600   78.0180   11.4750 H   0  0  0  0  0  0  0  0  0  0  0  0
   18.9320   78.3720   11.0740 H   0  0  0  0  0  0  0  0  0  0  0  0
   20.2760   77.2340   10.9750 H   0  0  0  0  0  0  0  0  0  0  0  0
   17.6490   78.8640    8.6610 H   0  0  0  0  0  0  0  0  0  0  0  0
   16.3400   78.1800    6.7240 H   0  0  0  0  0  0  0  0  0  0  0  0
   16.7240   76.7430    4.4780 H   0  0  0  0  0  0  0  0  0  0  0  0
   15.1710   76.6200    5.4120 H   0  0  0  0  0  0  0  0  0  0  0  0
   15.8360   74.3610    4.9620 H   0  0  0  0  0  0  0  0  0  0  0  0
   16.1980   74.7340    6.7370 H   0  0  0  0  0  0  0  0  0  0  0  0
   18.0190   73.6800    4.9900 H   0  0  0  0  0  0  0  0  0  0  0  0
   18.4100   75.4170    4.8770 H   0  0  0  0  0  0  0  0  0  0  0  0
   18.1660   73.7820    7.4270 H   0  0  0  0  0  0  0  0  0  0  0  0
   19.6960   74.3120    6.6460 H   0  0  0  0  0  0  0  0  0  0  0  0
   20.8590   78.0660   14.2670 H   0  0  0  0  0  0  0  0  0  0  0  0
   21.1620   78.1880   18.5370 H   0  0  0  0  0  0  0  0  0  0  0  0
   23.1010   79.6920   18.3160 H   0  0  0  0  0  0  0  0  0  0  0  0
   23.8970   80.3650   16.1120 H   0  0  0  0  0  0  0  0  0  0  0  0
  1  2  2  0  0  0  0
  1 22  1  0  0  0  0
  3  1  2  0  0  0  0
  4  1  1  0  0  0  0
  5  4  1  0  0  0  0
  5 29  1  0  0  0  0
  6 31  1  0  0  0  0
  6  5  1  0  0  0  0
  7 10  1  0  0  0  0
  7  6  1  0  0  0  0
  8  7  1  0  0  0  0
  8  9  1  0  0  0  0
  9 36  1  0  0  0  0
  9  4  1  0  0  0  0
 10 38  1  0  0  0  0
 10 37  1  0  0  0  0
 11 10  1  0  0  0  0
 12 39  1  0  0  0  0
 12 11  1  0  0  0  0
 13 19  1  0  0  0  0
 13 12  1  0  0  0  0
 14 40  1  0  0  0  0
 14 13  2  0  0  0  0
 15 16  1  0  0  0  0
 15 14  1  0  0  0  0
 16 44  1  0  0  0  0
 17 16  1  0  0  0  0
 17 18  1  0  0  0  0
 18 47  1  0  0  0  0
 18 19  1  0  0  0  0
 19 20  1  0  0  0  0
 20 21  2  0  0  0  0
 20 11  1  0  0  0  0
 22 23  2  0  0  0  0
 22 27  1  0  0  0  0
 23 24  1  0  0  0  0
 24 28  1  0  0  0  0
 24 25  2  0  0  0  0
 25 50  1  0  0  0  0
 26 25  1  0  0  0  0
 26 51  1  0  0  0  0
 27 26  2  0  0  0  0
 30  5  1  0  0  0  0
 32  6  1  0  0  0  0
 33  8  1  0  0  0  0
 34  8  1  0  0  0  0
 35  9  1  0  0  0  0
 41 15  1  0  0  0  0
 42 15  1  0  0  0  0
 43 16  1  0  0  0  0
 45 17  1  0  0  0  0
 46 17  1  0  0  0  0
 48 18  1  0  0  0  0
 49 23  1  0  0  0  0
 52 27  1  0  0  0  0
M  END
>  <Pose>
1

>  <Score>
-7.13

$$$$
