
 OpenBabel03222202113D

 53 54  0  0  0  0  0  0  0  0999 V2000
   19.1150   79.7900   10.2250 S   0  0  0  0  0  0  0  0  0  0  0  0
   17.7940   80.2430   10.8250 O   0  0  0  0  0  0  0  0  0  0  0  0
   19.7270   80.9630    9.5160 O   0  0  0  0  0  0  0  0  0  0  0  0
   20.1490   79.3120   11.5260 N   0  0  0  0  0  0  0  0  0  0  0  0
   21.3890   79.9970   11.3810 C   0  0  0  0  0  0  0  0  0  0  0  0
   22.5750   79.2140   11.9020 C   0  0  0  0  0  0  0  0  0  0  0  0
   22.0940   78.3270   12.9200 N   0  0  0  0  0  0  0  0  0  0  0  0
   21.1470   77.3140   12.5560 C   0  0  0  0  0  0  0  0  0  0  0  0
   20.2560   77.8730   11.4760 C   0  0  0  0  0  0  0  0  0  0  0  0
   22.5490   78.4570   14.2430 C   0  0  0  0  0  0  0  0  0  0  0  0
   21.7410   78.8090   15.2570 N   0  0  0  0  0  0  0  0  0  0  0  0
   22.1080   78.9480   16.5180 C   0  0  0  0  0  0  0  0  0  0  0  0
   23.4360   78.7120   16.8290 C   0  0  0  0  0  0  0  0  0  0  0  0
   24.3040   78.3480   15.8240 C   0  0  0  0  0  0  0  0  0  0  0  0
   23.8450   78.2300   14.5650 N   0  0  0  0  0  0  0  0  0  0  0  0
   25.7390   78.0860   16.1170 C   0  0  0  0  0  0  0  0  0  0  0  0
   21.1560   79.3250   17.4960 N   0  0  0  0  0  0  0  0  0  0  0  0
   20.4540   80.5920   17.4840 C   0  0  0  0  0  0  0  0  0  0  0  0
   19.1720   80.3780   18.2880 C   0  0  0  0  0  0  0  0  0  0  0  0
   18.6610   79.1330   17.9140 O   0  0  0  0  0  0  0  0  0  0  0  0
   19.3650   78.0750   18.4420 C   0  0  0  0  0  0  0  0  0  0  0  0
   20.8560   78.4080   18.5710 C   0  0  0  0  0  0  0  0  0  0  0  0
   18.8060   78.4670    9.1360 C   0  0  0  0  0  0  0  0  0  0  0  0
   19.3710   77.2300    9.4140 C   0  0  0  0  0  0  0  0  0  0  0  0
   19.1700   76.1390    8.5970 C   0  0  0  0  0  0  0  0  0  0  0  0
   18.3920   76.2650    7.4730 C   0  0  0  0  0  0  0  0  0  0  0  0
   17.8120   77.4810    7.1620 C   0  0  0  0  0  0  0  0  0  0  0  0
   18.0330   78.5640    8.0080 C   0  0  0  0  0  0  0  0  0  0  0  0
   18.1240   74.7460    6.3540 B   0  0  0  0  0  0  0  0  0  0  0  0
   21.6110   80.3520   10.3600 H   0  0  0  0  0  0  0  0  0  0  0  0
   21.3400   80.9290   12.0130 H   0  0  0  0  0  0  0  0  0  0  0  0
   23.3980   79.8620   12.2340 H   0  0  0  0  0  0  0  0  0  0  0  0
   22.9740   78.6320   11.0230 H   0  0  0  0  0  0  0  0  0  0  0  0
   20.5610   76.9700   13.4370 H   0  0  0  0  0  0  0  0  0  0  0  0
   21.6280   76.3980   12.1330 H   0  0  0  0  0  0  0  0  0  0  0  0
   19.2380   77.4630   11.6420 H   0  0  0  0  0  0  0  0  0  0  0  0
   20.5620   77.5530   10.4560 H   0  0  0  0  0  0  0  0  0  0  0  0
   23.7450   78.8220   17.8520 H   0  0  0  0  0  0  0  0  0  0  0  0
   25.9650   76.9910   16.0420 H   0  0  0  0  0  0  0  0  0  0  0  0
   26.3470   78.5830   15.3380 H   0  0  0  0  0  0  0  0  0  0  0  0
   26.0400   78.5180   17.0880 H   0  0  0  0  0  0  0  0  0  0  0  0
   21.0290   81.4090   17.9590 H   0  0  0  0  0  0  0  0  0  0  0  0
   20.1430   80.8670   16.4430 H   0  0  0  0  0  0  0  0  0  0  0  0
   18.4380   81.1550   18.0720 H   0  0  0  0  0  0  0  0  0  0  0  0
   19.4060   80.3800   19.3660 H   0  0  0  0  0  0  0  0  0  0  0  0
   19.3100   77.1830   17.7500 H   0  0  0  0  0  0  0  0  0  0  0  0
   18.9640   77.7570   19.4130 H   0  0  0  0  0  0  0  0  0  0  0  0
   21.0430   78.8800   19.5650 H   0  0  0  0  0  0  0  0  0  0  0  0
   21.4690   77.4910   18.5040 H   0  0  0  0  0  0  0  0  0  0  0  0
   19.9850   77.1360   10.3040 H   0  0  0  0  0  0  0  0  0  0  0  0
   19.6140   75.1770    8.8200 H   0  0  0  0  0  0  0  0  0  0  0  0
   17.1950   77.5880    6.2750 H   0  0  0  0  0  0  0  0  0  0  0  0
   17.5840   79.5270    7.7750 H   0  0  0  0  0  0  0  0  0  0  0  0
  1  2  2  0  0  0  0
  1  4  1  0  0  0  0
  3  1  2  0  0  0  0
  5  4  1  0  0  0  0
  5  6  1  0  0  0  0
  5 31  1  0  0  0  0
  6 32  1  0  0  0  0
  6  7  1  0  0  0  0
  7 10  1  0  0  0  0
  8  7  1  0  0  0  0
  8 34  1  0  0  0  0
  9 36  1  0  0  0  0
 10 15  1  0  0  0  0
 10 11  2  0  0  0  0
 11 12  1  0  0  0  0
 12 13  2  0  0  0  0
 12 17  1  0  0  0  0
 13 38  1  0  0  0  0
 14 16  1  0  0  0  0
 14 13  1  0  0  0  0
 15 14  2  0  0  0  0
 16 41  1  0  0  0  0
 17 22  1  0  0  0  0
 18 17  1  0  0  0  0
 18 42  1  0  0  0  0
 18 19  1  0  0  0  0
 19 45  1  0  0  0  0
 20 19  1  0  0  0  0
 20 21  1  0  0  0  0
 21 22  1  0  0  0  0
 21 47  1  0  0  0  0
 22 48  1  0  0  0  0
 23 24  1  0  0  0  0
 23  1  1  0  0  0  0
 24 50  1  0  0  0  0
 25 51  1  0  0  0  0
 25 24  2  0  0  0  0
 26 25  1  0  0  0  0
 27 26  2  0  0  0  0
 27 28  1  0  0  0  0
 28 23  2  0  0  0  0
 29 26  1  0  0  0  0
 30  5  1  0  0  0  0
 33  6  1  0  0  0  0
 35  8  1  0  0  0  0
 37  9  1  0  0  0  0
 39 16  1  0  0  0  0
 40 16  1  0  0  0  0
 43 18  1  0  0  0  0
 44 19  1  0  0  0  0
 46 21  1  0  0  0  0
 49 22  1  0  0  0  0
 52 27  1  0  0  0  0
 53 28  1  0  0  0  0
M  END
>  <Pose>
1

>  <Score>
-6.54

$$$$
