
 OpenBabel03222202113D

 40 43  0  0  1  0  0  0  0  0999 V2000
   19.7400   79.1150   10.2750 S   0  0  0  0  0  0  0  0  0  0  0  0
   20.3780   80.2020    9.4500 O   0  0  0  0  0  0  0  0  0  0  0  0
   18.3880   79.6600   10.7140 O   0  0  0  0  0  0  0  0  0  0  0  0
   20.6270   78.7410   11.6740 N   0  0  0  0  0  0  0  0  0  0  0  0
   20.3980   77.3890   12.0590 C   0  0  0  0  0  0  0  0  0  0  0  0
   21.5860   76.7670   12.7620 C   0  0  0  0  0  0  0  0  0  0  0  0
   22.2180   77.8050   13.5350 N   0  0  0  0  0  0  0  0  0  0  0  0
   22.8330   78.8660   12.7800 C   0  0  0  0  0  0  0  0  0  0  0  0
   21.9840   79.1670   11.5980 C   0  0  0  0  0  0  0  0  0  0  0  0
   22.2490   77.8110   14.9490 C   0  0  1  0  0  0  0  0  0  0  0  0
   21.1520   77.6340   15.6860 C   0  0  0  0  0  0  0  0  0  0  0  0
   21.1440   77.6330   17.1370 C   0  0  0  0  0  0  0  0  0  0  0  0
   20.0240   77.4520   17.8170 C   0  0  0  0  0  0  0  0  0  0  0  0
   22.3630   77.8310   17.8210 N   0  0  0  0  0  0  0  0  0  0  0  0
   23.5230   78.0180   16.9960 C   0  0  0  0  0  0  0  0  0  0  0  0
   23.4780   78.0100   15.6550 N   0  0  0  0  0  0  0  0  0  0  0  0
   24.7090   78.2080   15.1760 N   0  0  0  0  0  0  0  0  0  0  0  0
   25.5650   78.3470   16.2040 C   0  0  0  0  0  0  0  0  0  0  0  0
   24.8240   78.2290   17.3180 N   0  0  0  0  0  0  0  0  0  0  0  0
   19.3990   77.6940    9.2890 C   0  0  0  0  0  0  0  0  0  0  0  0
   18.5710   77.6620    7.8070 S   0  0  0  0  0  0  0  0  0  0  0  0
   18.6390   75.9920    7.4850 C   0  0  0  0  0  0  0  0  0  0  0  0
   19.3190   75.4920    8.5630 C   0  0  0  0  0  0  0  0  0  0  0  0
   19.7150   76.3830    9.5040 C   0  0  0  0  0  0  0  0  0  0  0  0
   17.9420   75.0020    5.9820 B   0  0  0  0  0  0  0  0  0  0  0  0
   19.9880   76.7470   11.2520 H   0  0  0  0  0  0  0  0  0  0  0  0
   19.5790   77.4110   12.8380 H   0  0  0  0  0  0  0  0  0  0  0  0
   21.3150   75.8820   13.3500 H   0  0  0  0  0  0  0  0  0  0  0  0
   22.3080   76.4630   11.9760 H   0  0  0  0  0  0  0  0  0  0  0  0
   23.0770   79.7510   13.4000 H   0  0  0  0  0  0  0  0  0  0  0  0
   23.8440   78.4990   12.4300 H   0  0  0  0  0  0  0  0  0  0  0  0
   21.9510   80.2950   11.5150 H   0  0  0  0  0  0  0  0  0  0  0  0
   22.5060   78.8510   10.6760 H   0  0  0  0  0  0  0  0  0  0  0  0
   20.2250   77.4830   15.1560 H   0  0  0  0  0  0  0  0  0  0  0  0
   19.0830   77.3000   17.2880 H   0  0  0  0  0  0  0  0  0  0  0  0
   19.9910   77.4480   18.8950 H   0  0  0  0  0  0  0  0  0  0  0  0
   22.4640   77.8480   18.8450 H   0  0  0  0  0  0  0  0  0  0  0  0
   26.6440   78.5220   16.1550 H   0  0  0  0  0  0  0  0  0  0  0  0
   19.5150   74.3890    8.6170 H   0  0  0  0  0  0  0  0  0  0  0  0
   20.2740   76.0280   10.4060 H   0  0  0  0  0  0  0  0  0  0  0  0
  1  3  2  0  0  0  0
  1  4  1  0  0  0  0
  2  1  2  0  0  0  0
  4  5  1  0  0  0  0
  5  6  1  0  0  0  0
  5 27  1  0  0  0  0
  6 28  1  0  0  0  0
  6  7  1  0  0  0  0
  8 30  1  0  0  0  0
  8  7  1  0  0  0  0
  9  4  1  0  0  0  0
  9  8  1  0  0  0  0
 10  7  1  1  0  0  0
 10 16  1  0  0  0  0
 10 11  1  0  0  0  0
 11 12  2  0  0  0  0
 12 13  1  0  0  0  0
 12 14  1  0  0  0  0
 13 36  1  0  0  0  0
 14 37  1  0  0  0  0
 15 19  2  0  0  0  0
 15 14  1  0  0  0  0
 16 15  1  0  0  0  0
 17 16  1  0  0  0  0
 17 18  2  0  0  0  0
 18 19  1  0  0  0  0
 20 24  2  0  0  0  0
 20  1  1  0  0  0  0
 21 20  1  0  0  0  0
 22 21  1  0  0  0  0
 22 23  2  0  0  0  0
 23 39  1  0  0  0  0
 23 24  1  0  0  0  0
 24 40  1  0  0  0  0
 25 22  1  0  0  0  0
 26  5  1  0  0  0  0
 29  6  1  0  0  0  0
 31  8  1  0  0  0  0
 32  9  1  0  0  0  0
 33  9  1  0  0  0  0
 34 11  1  0  0  0  0
 35 13  1  0  0  0  0
 38 18  1  0  0  0  0
M  END
>  <Pose>
1

>  <Score>
-6.55

$$$$
