
 OpenBabel03222202113D

 43 46  0  0  0  0  0  0  0  0999 V2000
   19.2650   79.2130    9.4270 S   0  0  0  0  0  0  0  0  0  0  0  0
   18.6650   80.4610    8.7920 O   0  0  0  0  0  0  0  0  0  0  0  0
   18.6630   79.1130   10.7970 O   0  0  0  0  0  0  0  0  0  0  0  0
   20.9480   79.4510    9.5220 N   0  0  0  0  0  0  0  0  0  0  0  0
   21.3620   80.6790   10.0870 C   0  0  0  0  0  0  0  0  0  0  0  0
   21.6880   80.6570   11.5390 C   0  0  0  0  0  0  0  0  0  0  0  0
   22.4470   79.4500   11.9020 N   0  0  0  0  0  0  0  0  0  0  0  0
   22.9010   78.6620   10.7750 C   0  0  0  0  0  0  0  0  0  0  0  0
   21.6620   78.2930    9.9820 C   0  0  0  0  0  0  0  0  0  0  0  0
   22.6900   79.1260   13.2560 C   0  0  0  0  0  0  0  0  0  0  0  0
   23.5470   79.9340   13.9930 C   0  0  0  0  0  0  0  0  0  0  0  0
   23.7790   79.6050   15.3270 C   0  0  0  0  0  0  0  0  0  0  0  0
   23.2060   78.5510   15.8940 N   0  0  0  0  0  0  0  0  0  0  0  0
   23.6220   78.5010   17.1690 C   0  0  0  0  0  0  0  0  0  0  0  0
   24.4570   79.5410   17.3620 N   0  0  0  0  0  0  0  0  0  0  0  0
   24.5560   80.2220   16.2330 N   0  0  0  0  0  0  0  0  0  0  0  0
   23.2360   77.4800   18.1960 C   0  0  0  0  0  0  0  0  0  0  0  0
   22.4000   77.7840   15.2140 N   0  0  0  0  0  0  0  0  0  0  0  0
   22.1390   78.0610   13.9100 C   0  0  0  0  0  0  0  0  0  0  0  0
   18.8120   77.8740    8.4070 C   0  0  0  0  0  0  0  0  0  0  0  0
   19.4730   76.6550    8.4650 C   0  0  0  0  0  0  0  0  0  0  0  0
   19.1140   75.5980    7.6580 C   0  0  0  0  0  0  0  0  0  0  0  0
   18.0640   75.7660    6.7690 C   0  0  0  0  0  0  0  0  0  0  0  0
   17.3750   76.9590    6.6740 C   0  0  0  0  0  0  0  0  0  0  0  0
   17.7660   77.9890    7.4980 C   0  0  0  0  0  0  0  0  0  0  0  0
   17.5780   74.2860    5.6540 B   0  0  0  0  0  0  0  0  0  0  0  0
   22.2680   81.0410    9.5180 H   0  0  0  0  0  0  0  0  0  0  0  0
   20.5840   81.4430    9.8950 H   0  0  0  0  0  0  0  0  0  0  0  0
   22.3580   81.5160   11.7680 H   0  0  0  0  0  0  0  0  0  0  0  0
   20.7910   80.7710   12.1710 H   0  0  0  0  0  0  0  0  0  0  0  0
   23.4140   77.7390   11.0330 H   0  0  0  0  0  0  0  0  0  0  0  0
   23.5180   79.3180   10.0940 H   0  0  0  0  0  0  0  0  0  0  0  0
   21.8980   77.6190    9.1350 H   0  0  0  0  0  0  0  0  0  0  0  0
   20.9960   77.7280   10.6670 H   0  0  0  0  0  0  0  0  0  0  0  0
   24.0390   80.8020   13.5810 H   0  0  0  0  0  0  0  0  0  0  0  0
   22.8520   76.5610   17.6900 H   0  0  0  0  0  0  0  0  0  0  0  0
   24.1150   77.1910   18.7730 H   0  0  0  0  0  0  0  0  0  0  0  0
   22.4480   77.8700   18.8700 H   0  0  0  0  0  0  0  0  0  0  0  0
   21.4770   77.4040   13.4070 H   0  0  0  0  0  0  0  0  0  0  0  0
   20.2930   76.5670    9.1780 H   0  0  0  0  0  0  0  0  0  0  0  0
   19.6680   74.6820    7.7540 H   0  0  0  0  0  0  0  0  0  0  0  0
   16.5650   77.0260    5.9600 H   0  0  0  0  0  0  0  0  0  0  0  0
   17.2400   78.9150    7.4300 H   0  0  0  0  0  0  0  0  0  0  0  0
  1  4  1  0  0  0  0
  1  3  2  0  0  0  0
  2  1  2  0  0  0  0
  4  9  1  0  0  0  0
  4  5  1  0  0  0  0
  5  6  1  0  0  0  0
  6 29  1  0  0  0  0
  6  7  1  0  0  0  0
  6 30  1  0  0  0  0
  7 10  1  0  0  0  0
  8 31  1  0  0  0  0
  8  7  1  0  0  0  0
  9 34  1  0  0  0  0
  9  8  1  0  0  0  0
 10 19  1  0  0  0  0
 10 11  2  0  0  0  0
 11 12  1  0  0  0  0
 12 13  1  0  0  0  0
 12 16  2  0  0  0  0
 13 14  1  0  0  0  0
 14 15  2  0  0  0  0
 14 17  1  0  0  0  0
 16 15  1  0  0  0  0
 17 37  1  0  0  0  0
 17 38  1  0  0  0  0
 18 13  1  0  0  0  0
 19 18  2  0  0  0  0
 20 21  1  0  0  0  0
 20  1  1  0  0  0  0
 21 40  1  0  0  0  0
 22 41  1  0  0  0  0
 22 21  2  0  0  0  0
 23 22  1  0  0  0  0
 24 23  2  0  0  0  0
 24 25  1  0  0  0  0
 25 20  2  0  0  0  0
 26 23  1  0  0  0  0
 27  5  1  0  0  0  0
 28  5  1  0  0  0  0
 32  8  1  0  0  0  0
 33  9  1  0  0  0  0
 35 11  1  0  0  0  0
 36 17  1  0  0  0  0
 39 19  1  0  0  0  0
 42 24  1  0  0  0  0
 43 25  1  0  0  0  0
M  END
>  <Pose>
1

>  <Score>
-6.70

$$$$
