
 OpenBabel03222202113D

 43 46  0  0  0  0  0  0  0  0999 V2000
   19.3210   78.4490    8.5370 S   0  0  0  0  0  0  0  0  0  0  0  0
   19.6940   78.2870    7.0880 O   0  0  0  0  0  0  0  0  0  0  0  0
   17.9810   79.1100    8.5840 O   0  0  0  0  0  0  0  0  0  0  0  0
   20.5170   79.4030    9.3020 N   0  0  0  0  0  0  0  0  0  0  0  0
   21.8290   78.8770    9.2200 C   0  0  0  0  0  0  0  0  0  0  0  0
   22.7100   79.0840   10.4080 C   0  0  0  0  0  0  0  0  0  0  0  0
   22.3850   80.3480   10.9530 O   0  0  0  0  0  0  0  0  0  0  0  0
   21.1500   80.1480   11.5770 C   0  0  0  0  0  0  0  0  0  0  0  0
   20.1060   79.9770   10.5310 C   0  0  0  0  0  0  0  0  0  0  0  0
   19.2510   76.8290    9.2420 C   0  0  0  0  0  0  0  0  0  0  0  0
   19.6750   75.6800    8.6880 N   0  0  0  0  0  0  0  0  0  0  0  0
   19.4370   74.6760    9.5520 C   0  0  0  0  0  0  0  0  0  0  0  0
   18.8640   75.1460   10.6690 N   0  0  0  0  0  0  0  0  0  0  0  0
   18.7480   76.4700   10.4810 C   0  0  0  0  0  0  0  0  0  0  0  0
   18.4580   74.3760   11.8270 C   0  0  0  0  0  0  0  0  0  0  0  0
   18.7930   75.0450   13.1050 C   0  0  0  0  0  0  0  0  0  0  0  0
   17.9910   75.0780   14.1860 N   0  0  0  0  0  0  0  0  0  0  0  0
   18.5900   75.7450   15.1250 O   0  0  0  0  0  0  0  0  0  0  0  0
   19.7600   76.1650   14.7260 C   0  0  0  0  0  0  0  0  0  0  0  0
   19.8900   75.7290   13.4630 N   0  0  0  0  0  0  0  0  0  0  0  0
   20.7000   76.9460   15.5310 C   0  0  0  0  0  0  0  0  0  0  0  0
   22.0230   77.0950   15.1700 C   0  0  0  0  0  0  0  0  0  0  0  0
   22.9060   77.8420   15.9460 C   0  0  0  0  0  0  0  0  0  0  0  0
   22.4860   78.4590   17.1030 C   0  0  0  0  0  0  0  0  0  0  0  0
   21.1650   78.3120   17.4670 C   0  0  0  0  0  0  0  0  0  0  0  0
   20.2820   77.5620   16.6870 C   0  0  0  0  0  0  0  0  0  0  0  0
   24.7360   78.0360   15.4270 B   0  0  0  0  0  0  0  0  0  0  0  0
   21.8060   77.7940    8.9310 H   0  0  0  0  0  0  0  0  0  0  0  0
   22.3400   79.3980    8.3550 H   0  0  0  0  0  0  0  0  0  0  0  0
   23.7710   79.1800   10.0810 H   0  0  0  0  0  0  0  0  0  0  0  0
   22.6320   78.3150   11.1870 H   0  0  0  0  0  0  0  0  0  0  0  0
   21.2770   79.2640   12.2310 H   0  0  0  0  0  0  0  0  0  0  0  0
   20.8710   80.9910   12.2310 H   0  0  0  0  0  0  0  0  0  0  0  0
   19.6890   80.9980   10.3080 H   0  0  0  0  0  0  0  0  0  0  0  0
   19.2270   79.4040   10.9240 H   0  0  0  0  0  0  0  0  0  0  0  0
   19.6690   73.6290    9.3900 H   0  0  0  0  0  0  0  0  0  0  0  0
   18.3220   77.1600   11.1910 H   0  0  0  0  0  0  0  0  0  0  0  0
   18.9720   73.4030   11.7840 H   0  0  0  0  0  0  0  0  0  0  0  0
   17.3680   74.1720   11.8460 H   0  0  0  0  0  0  0  0  0  0  0  0
   22.3570   76.6130   14.2630 H   0  0  0  0  0  0  0  0  0  0  0  0
   23.1880   79.0410   17.7020 H   0  0  0  0  0  0  0  0  0  0  0  0
   20.7960   78.7800   18.3680 H   0  0  0  0  0  0  0  0  0  0  0  0
   19.2400   77.4340   16.9540 H   0  0  0  0  0  0  0  0  0  0  0  0
  1  3  2  0  0  0  0
  1 10  1  0  0  0  0
  1  4  1  0  0  0  0
  2  1  2  0  0  0  0
  4  9  1  0  0  0  0
  5  4  1  0  0  0  0
  5  6  1  0  0  0  0
  6  7  1  0  0  0  0
  6 31  1  0  0  0  0
  7  8  1  0  0  0  0
  8 33  1  0  0  0  0
  8 32  1  0  0  0  0
  9 35  1  0  0  0  0
  9  8  1  0  0  0  0
 10 14  2  0  0  0  0
 11 10  1  0  0  0  0
 11 12  2  0  0  0  0
 12 13  1  0  0  0  0
 13 15  1  0  0  0  0
 14 13  1  0  0  0  0
 14 37  1  0  0  0  0
 15 39  1  0  0  0  0
 15 16  1  0  0  0  0
 16 20  1  0  0  0  0
 16 17  2  0  0  0  0
 17 18  1  0  0  0  0
 19 18  1  0  0  0  0
 19 21  1  0  0  0  0
 20 19  2  0  0  0  0
 21 26  1  0  0  0  0
 22 21  2  0  0  0  0
 22 23  1  0  0  0  0
 23 24  2  0  0  0  0
 24 25  1  0  0  0  0
 24 41  1  0  0  0  0
 25 42  1  0  0  0  0
 26 43  1  0  0  0  0
 26 25  2  0  0  0  0
 27 23  1  0  0  0  0
 28  5  1  0  0  0  0
 29  5  1  0  0  0  0
 30  6  1  0  0  0  0
 34  9  1  0  0  0  0
 36 12  1  0  0  0  0
 38 15  1  0  0  0  0
 40 22  1  0  0  0  0
M  END
>  <Pose>
1

>  <Score>
-7.25

$$$$
