
 OpenBabel03222202113D

 47 50  0  0  1  0  0  0  0  0999 V2000
   21.4210   77.1410   12.4500 S   0  0  0  0  0  0  0  0  0  0  0  0
   19.9510   77.8780   11.6100 C   0  0  0  0  0  0  0  0  0  0  0  0
   19.8980   77.4120   10.2050 C   0  0  0  0  0  0  0  0  0  0  0  0
   20.3340   78.1460    9.1290 C   0  0  0  0  0  0  0  0  0  0  0  0
   20.1440   77.7410    7.8540 C   0  0  0  0  0  0  0  0  0  0  0  0
   19.4980   76.5450    7.5590 C   0  0  0  0  0  0  0  0  0  0  0  0
   19.0380   75.7720    8.6340 C   0  0  0  0  0  0  0  0  0  0  0  0
   19.2360   76.2000    9.9330 C   0  0  0  0  0  0  0  0  0  0  0  0
   21.3490   79.7120    9.5470 B   0  0  0  0  0  0  0  0  0  0  0  0
   21.2560   77.2800   14.2350 C   0  0  0  0  0  0  0  0  0  0  0  0
   20.5920   76.4400   15.0290 N   0  0  0  0  0  0  0  0  0  0  0  0
   20.7980   76.8630   16.3040 C   0  0  0  0  0  0  0  0  0  0  0  0
   20.4920   76.4510   17.5440 N   0  0  0  0  0  0  0  0  0  0  0  0
   20.8860   77.0300   18.6830 C   0  0  0  0  0  0  0  0  0  0  0  0
   21.6760   78.1680   18.5870 N   0  0  0  0  0  0  0  0  0  0  0  0
   22.0260   78.6440   17.4180 C   0  0  0  0  0  0  0  0  0  0  0  0
   21.6150   78.0250   16.2550 C   0  0  0  0  0  0  0  0  0  0  0  0
   21.8640   78.2250   14.9670 N   0  0  0  0  0  0  0  0  0  0  0  0
   22.7970   79.7690   17.2680 O   0  0  0  0  0  0  0  0  0  0  0  0
   20.5890   76.5460   20.0010 N   0  0  0  0  0  0  0  0  0  0  0  0
   19.7630   75.3210   14.7160 C   0  0  2  0  0  0  0  0  0  0  0  0
   20.4570   74.2360   14.1360 O   0  0  0  0  0  0  0  0  0  0  0  0
   19.3520   73.4210   13.8000 C   0  0  1  0  0  0  0  0  0  0  0  0
   18.6250   74.4300   12.8720 C   0  0  2  0  0  0  0  0  0  0  0  0
   18.5600   75.5930   13.8710 C   0  0  1  0  0  0  0  0  0  0  0  0
   17.3620   75.4220   14.6100 O   0  0  0  0  0  0  0  0  0  0  0  0
   17.3900   73.9890   12.4810 O   0  0  0  0  0  0  0  0  0  0  0  0
   19.7550   72.1880   13.0850 C   0  0  0  0  0  0  0  0  0  0  0  0
   18.7510   71.2160   13.1680 O   0  0  0  0  0  0  0  0  0  0  0  0
   19.9870   78.9300   11.7000 H   0  0  0  0  0  0  0  0  0  0  0  0
   19.0650   77.4110   12.1910 H   0  0  0  0  0  0  0  0  0  0  0  0
   20.5040   78.3520    7.0450 H   0  0  0  0  0  0  0  0  0  0  0  0
   19.3790   76.2180    6.5400 H   0  0  0  0  0  0  0  0  0  0  0  0
   18.5140   74.8300    8.4600 H   0  0  0  0  0  0  0  0  0  0  0  0
   18.8510   75.6290   10.7340 H   0  0  0  0  0  0  0  0  0  0  0  0
   23.3870   80.1500   17.9980 H   0  0  0  0  0  0  0  0  0  0  0  0
   21.2560   76.2410   20.7070 H   0  0  0  0  0  0  0  0  0  0  0  0
   19.5450   76.4590   20.2600 H   0  0  0  0  0  0  0  0  0  0  0  0
   19.3830   74.8800   15.6800 H   0  0  0  0  0  0  0  0  0  0  0  0
   18.7100   73.2590   14.6680 H   0  0  0  0  0  0  0  0  0  0  0  0
   19.2670   74.6840   12.0090 H   0  0  0  0  0  0  0  0  0  0  0  0
   18.4800   76.5440   13.4010 H   0  0  0  0  0  0  0  0  0  0  0  0
   16.6690   75.8240   14.0400 H   0  0  0  0  0  0  0  0  0  0  0  0
   16.7050   74.6690   12.6840 H   0  0  0  0  0  0  0  0  0  0  0  0
   20.6000   71.7340   13.6940 H   0  0  0  0  0  0  0  0  0  0  0  0
   20.1460   72.3570   12.0920 H   0  0  0  0  0  0  0  0  0  0  0  0
   19.1760   70.3860   13.5470 H   0  0  0  0  0  0  0  0  0  0  0  0
  1 10  1  0  0  0  0
  2 30  1  0  0  0  0
  2 31  1  0  0  0  0
  2  1  1  0  0  0  0
  3  2  1  0  0  0  0
  4  9  1  0  0  0  0
  4  3  2  0  0  0  0
  5  4  1  0  0  0  0
  6  5  2  0  0  0  0
  6  7  1  0  0  0  0
  7  8  2  0  0  0  0
  8  3  1  0  0  0  0
  8 35  1  0  0  0  0
 10 18  2  0  0  0  0
 10 11  1  0  0  0  0
 11 12  1  0  0  0  0
 12 13  1  0  0  0  0
 13 14  2  0  0  0  0
 14 20  1  0  0  0  0
 15 14  1  0  0  0  0
 16 15  2  0  0  0  0
 17 12  2  0  0  0  0
 17 16  1  0  0  0  0
 18 17  1  0  0  0  0
 19 16  1  0  0  0  0
 19 36  1  0  0  0  0
 20 38  1  0  0  0  0
 20 37  1  0  0  0  0
 21 11  1  0  0  0  0
 21 39  1  1  0  0  0
 22 21  1  0  0  0  0
 23 22  1  0  0  0  0
 23 40  1  1  0  0  0
 24 41  1  6  0  0  0
 24 23  1  0  0  0  0
 24 25  1  0  0  0  0
 25 42  1  6  0  0  0
 25 26  1  0  0  0  0
 25 21  1  0  0  0  0
 27 44  1  0  0  0  0
 27 24  1  0  0  0  0
 28 29  1  0  0  0  0
 28 45  1  0  0  0  0
 28 23  1  0  0  0  0
 29 47  1  0  0  0  0
 32  5  1  0  0  0  0
 33  6  1  0  0  0  0
 34  7  1  0  0  0  0
 43 26  1  0  0  0  0
 46 28  1  0  0  0  0
M  END
>  <Pose>
1

>  <Score>
-8.46

$$$$
