
 OpenBabel03222202113D

 52 56  0  0  1  0  0  0  0  0999 V2000
   23.5670   76.0650   12.2430 S   0  0  0  0  0  0  0  0  0  0  0  0
   23.5640   77.5960   13.1630 C   0  0  0  0  0  0  0  0  0  0  0  0
   24.2720   77.7670   14.2190 N   0  0  0  0  0  0  0  0  0  0  0  0
   24.3210   78.9510   14.9980 C   0  0  0  0  0  0  0  0  0  0  0  0
   25.3170   79.3370   15.6150 O   0  0  0  0  0  0  0  0  0  0  0  0
   22.9950   79.7430   15.0140 C   0  0  1  0  0  0  0  0  0  0  0  0
   22.7850   79.9230   13.5450 C   0  0  0  0  0  0  0  0  0  0  0  0
   22.6380   80.9960   12.9570 O   0  0  0  0  0  0  0  0  0  0  0  0
   22.7570   78.7320   12.7740 N   0  0  0  0  0  0  0  0  0  0  0  0
   21.9460   78.6700   11.6360 C   0  0  0  0  0  0  0  0  0  0  0  0
   20.6540   78.1530   11.7900 C   0  0  0  0  0  0  0  0  0  0  0  0
   19.7970   78.0610   10.7140 C   0  0  0  0  0  0  0  0  0  0  0  0
   20.2270   78.4880    9.4620 C   0  0  0  0  0  0  0  0  0  0  0  0
   21.5220   79.0040    9.3190 C   0  0  0  0  0  0  0  0  0  0  0  0
   22.3630   79.0880   10.4030 C   0  0  0  0  0  0  0  0  0  0  0  0
   19.0850   78.3790    7.9640 B   0  0  0  0  0  0  0  0  0  0  0  0
   22.0430   78.8610   15.6760 C   0  0  1  0  0  0  0  0  0  0  0  0
   22.6330   77.6010   16.1060 N   0  0  0  0  0  4  0  0  0  0  0  0
   21.6050   76.5810   16.2180 C   0  0  0  0  0  0  0  0  0  0  0  0
   20.1980   77.1190   16.1880 C   0  0  0  0  0  0  0  0  0  0  0  0
   20.1570   78.3630   17.0380 C   0  0  0  0  0  0  0  0  0  0  0  0
   21.1840   79.2970   16.7630 C   0  0  0  0  0  0  0  0  0  0  0  0
   21.2530   80.4500   17.4950 C   0  0  0  0  0  0  0  0  0  0  0  0
   20.2920   80.6500   18.4840 C   0  0  0  0  0  0  0  0  0  0  0  0
   19.3020   79.7280   18.7300 C   0  0  0  0  0  0  0  0  0  0  0  0
   19.2210   78.5570   18.0010 C   0  0  0  0  0  0  0  0  0  0  0  0
   18.5110   80.2030   19.7560 O   0  0  0  0  0  0  0  0  0  0  0  0
   19.1620   81.2930   20.3600 C   0  0  0  0  0  0  0  0  0  0  0  0
   20.1030   81.6840   19.3600 O   0  0  0  0  0  0  0  0  0  0  0  0
   22.2430   81.3960   17.2740 O   0  0  0  0  0  0  0  0  0  0  0  0
   23.4020   81.3830   18.1020 C   0  0  0  0  0  0  0  0  0  0  0  0
   23.3430   77.6620   17.3370 C   0  0  0  0  0  0  0  0  0  0  0  0
   23.2740   80.6860   15.4570 H   0  0  0  0  0  0  0  0  0  0  0  0
   20.2940   77.8130   12.7570 H   0  0  0  0  0  0  0  0  0  0  0  0
   18.8070   77.6600   10.8560 H   0  0  0  0  0  0  0  0  0  0  0  0
   21.8970   79.3460    8.3680 H   0  0  0  0  0  0  0  0  0  0  0  0
   23.3490   79.4800   10.2950 H   0  0  0  0  0  0  0  0  0  0  0  0
   21.3310   78.5070   14.8480 H   0  0  0  0  0  0  0  0  0  0  0  0
   23.2860   77.3040   15.3510 H   0  0  0  0  0  0  0  0  0  0  0  0
   21.7250   76.0010   17.1550 H   0  0  0  0  0  0  0  0  0  0  0  0
   21.6770   75.8290   15.3860 H   0  0  0  0  0  0  0  0  0  0  0  0
   19.7820   77.2760   15.1880 H   0  0  0  0  0  0  0  0  0  0  0  0
   19.5540   76.3670   16.7200 H   0  0  0  0  0  0  0  0  0  0  0  0
   18.4420   77.8150   18.1840 H   0  0  0  0  0  0  0  0  0  0  0  0
   18.4570   82.1210   20.5820 H   0  0  0  0  0  0  0  0  0  0  0  0
   19.6880   80.9280   21.2660 H   0  0  0  0  0  0  0  0  0  0  0  0
   23.2400   82.1400   18.9140 H   0  0  0  0  0  0  0  0  0  0  0  0
   24.3260   81.5920   17.5620 H   0  0  0  0  0  0  0  0  0  0  0  0
   23.4860   80.4080   18.6010 H   0  0  0  0  0  0  0  0  0  0  0  0
   23.5520   76.6190   17.6560 H   0  0  0  0  0  0  0  0  0  0  0  0
   24.3230   78.1690   17.2820 H   0  0  0  0  0  0  0  0  0  0  0  0
   22.7050   78.0900   18.1620 H   0  0  0  0  0  0  0  0  0  0  0  0
  1  2  2  0  0  0  0
  2  3  1  0  0  0  0
  3  4  1  0  0  0  0
  4  6  1  0  0  0  0
  4  5  2  0  0  0  0
  6 33  1  1  0  0  0
  6 17  1  0  0  0  0
  7  6  1  0  0  0  0
  8  7  2  0  0  0  0
  9  2  1  0  0  0  0
  9  7  1  0  0  0  0
 10 11  1  0  0  0  0
 10  9  1  0  0  0  0
 11 34  1  0  0  0  0
 12 35  1  0  0  0  0
 12 11  2  0  0  0  0
 13 12  1  0  0  0  0
 14 13  2  0  0  0  0
 14 15  1  0  0  0  0
 15 10  2  0  0  0  0
 16 13  1  0  0  0  0
 17 38  1  6  0  0  0
 17 18  1  0  0  0  0
 17 22  1  0  0  0  0
 18 19  1  0  0  0  0
 18 32  1  0  0  0  0
 19 40  1  0  0  0  0
 20 19  1  0  0  0  0
 20 43  1  0  0  0  0
 20 21  1  0  0  0  0
 21 26  1  0  0  0  0
 22 21  2  0  0  0  0
 22 23  1  0  0  0  0
 23 24  2  0  0  0  0
 24 25  1  0  0  0  0
 24 29  1  0  0  0  0
 25 27  1  0  0  0  0
 26 44  1  0  0  0  0
 26 25  2  0  0  0  0
 27 28  1  0  0  0  0
 28 45  1  0  0  0  0
 28 46  1  0  0  0  0
 29 28  1  0  0  0  0
 30 23  1  0  0  0  0
 30 31  1  0  0  0  0
 31 49  1  0  0  0  0
 31 47  1  0  0  0  0
 32 50  1  0  0  0  0
 32 52  1  0  0  0  0
 36 14  1  0  0  0  0
 37 15  1  0  0  0  0
 39 18  1  0  0  0  0
 41 19  1  0  0  0  0
 42 20  1  0  0  0  0
 48 31  1  0  0  0  0
 51 32  1  0  0  0  0
M  END
>  <Pose>
1

>  <Score>
-3.85

$$$$
