
 OpenBabel03222202113D

 39 42  0  0  1  0  0  0  0  0999 V2000
   18.5020   71.6070   12.7750 S   0  0  0  0  0  0  0  0  0  0  0  0
   18.6850   70.6080   11.6700 O   0  0  0  0  0  0  0  0  0  0  0  0
   17.8560   70.9900   13.9840 O   0  0  0  0  0  0  0  0  0  0  0  0
   20.0490   72.3610   13.2300 C   0  0  0  0  0  0  0  0  0  0  0  0
   19.6950   73.7150   13.8090 C   0  0  2  0  0  0  0  0  0  0  0  0
   19.2230   74.5710   12.7390 N   0  0  0  0  0  0  0  0  0  0  0  0
   18.4130   74.0310   11.6670 C   0  0  0  0  0  0  0  0  0  0  0  0
   17.4630   72.9680   12.2240 C   0  0  0  0  0  0  0  0  0  0  0  0
   19.7330   75.8630   13.0440 C   0  0  0  0  0  0  0  0  0  0  0  0
   19.3610   76.9620   12.5090 O   0  0  0  0  0  0  0  0  0  0  0  0
   20.7350   75.7840   14.0490 N   0  0  0  0  0  0  0  0  0  0  0  0
   20.8560   74.4080   14.3780 C   0  0  0  0  0  0  0  0  0  0  0  0
   21.7860   73.8600   15.0390 O   0  0  0  0  0  0  0  0  0  0  0  0
   21.5000   76.8710   14.6390 C   0  0  1  0  0  0  0  0  0  0  0  0
   21.6590   78.0250   13.6640 C   0  0  0  0  0  0  0  0  0  0  0  0
   22.5560   79.0460   14.3670 C   0  0  0  0  0  0  0  0  0  0  0  0
   21.8040   79.5410   15.4610 O   0  0  0  0  0  0  0  0  0  0  0  0
   20.9830   78.6950   16.1980 C   0  0  0  0  0  0  0  0  0  0  0  0
   20.8070   77.3910   15.8330 C   0  0  0  0  0  0  0  0  0  0  0  0
   20.0000   76.5590   16.5580 C   0  0  0  0  0  0  0  0  0  0  0  0
   19.3620   77.0610   17.6670 C   0  0  0  0  0  0  0  0  0  0  0  0
   19.5480   78.3730   18.0210 C   0  0  0  0  0  0  0  0  0  0  0  0
   20.3570   79.2400   17.3090 C   0  0  0  0  0  0  0  0  0  0  0  0
   20.6060   81.0560   17.8120 B   0  0  0  0  0  0  0  0  0  0  0  0
   20.5880   72.5710   12.2710 H   0  0  0  0  0  0  0  0  0  0  0  0
   20.6330   71.7350   13.9200 H   0  0  0  0  0  0  0  0  0  0  0  0
   18.8930   73.6640   14.5660 H   0  0  0  0  0  0  0  0  0  0  0  0
   19.0180   73.5570   10.8750 H   0  0  0  0  0  0  0  0  0  0  0  0
   17.7500   74.8040   11.2060 H   0  0  0  0  0  0  0  0  0  0  0  0
   16.8330   73.3490   13.0240 H   0  0  0  0  0  0  0  0  0  0  0  0
   16.8950   72.5820   11.3500 H   0  0  0  0  0  0  0  0  0  0  0  0
   22.5090   76.5600   14.9340 H   0  0  0  0  0  0  0  0  0  0  0  0
   22.1090   77.7200   12.7120 H   0  0  0  0  0  0  0  0  0  0  0  0
   20.6920   78.5400   13.4970 H   0  0  0  0  0  0  0  0  0  0  0  0
   23.3990   78.4580   14.8090 H   0  0  0  0  0  0  0  0  0  0  0  0
   22.8970   79.8350   13.7000 H   0  0  0  0  0  0  0  0  0  0  0  0
   19.8720   75.5120   16.2470 H   0  0  0  0  0  0  0  0  0  0  0  0
   18.7190   76.4120   18.2500 H   0  0  0  0  0  0  0  0  0  0  0  0
   19.0360   78.7460   18.8980 H   0  0  0  0  0  0  0  0  0  0  0  0
  1  4  1  0  0  0  0
  1  3  2  0  0  0  0
  2  1  2  0  0  0  0
  4  5  1  0  0  0  0
  4 26  1  0  0  0  0
  5 12  1  0  0  0  0
  5 27  1  1  0  0  0
  6  9  1  0  0  0  0
  6  5  1  0  0  0  0
  7  8  1  0  0  0  0
  7  6  1  0  0  0  0
  8  1  1  0  0  0  0
  8 30  1  0  0  0  0
  9 11  1  0  0  0  0
 10  9  2  0  0  0  0
 11 12  1  0  0  0  0
 11 14  1  0  0  0  0
 12 13  2  0  0  0  0
 14 32  1  1  0  0  0
 14 19  1  0  0  0  0
 15 16  1  0  0  0  0
 15 14  1  0  0  0  0
 16 35  1  0  0  0  0
 16 17  1  0  0  0  0
 17 18  1  0  0  0  0
 18 23  1  0  0  0  0
 19 18  2  0  0  0  0
 19 20  1  0  0  0  0
 20 21  2  0  0  0  0
 21 22  1  0  0  0  0
 21 38  1  0  0  0  0
 22 39  1  0  0  0  0
 23 24  1  0  0  0  0
 23 22  2  0  0  0  0
 25  4  1  0  0  0  0
 28  7  1  0  0  0  0
 29  7  1  0  0  0  0
 31  8  1  0  0  0  0
 33 15  1  0  0  0  0
 34 15  1  0  0  0  0
 36 16  1  0  0  0  0
 37 20  1  0  0  0  0
M  END
>  <Pose>
1

>  <Score>
-4.99

$$$$
