
 OpenBabel03222202113D

 51 54  0  0  0  0  0  0  0  0999 V2000
   21.2640   78.2140   17.3430 S   0  0  0  0  0  0  0  0  0  0  0  0
   20.5440   78.7800   18.7750 C   0  0  0  0  0  0  0  0  0  0  0  0
   20.6810   80.1370   18.6660 C   0  0  0  0  0  0  0  0  0  0  0  0
   21.2830   80.6130   17.5740 C   0  0  0  0  0  0  0  0  0  0  0  0
   21.7210   79.7070   16.6410 C   0  0  0  0  0  0  0  0  0  0  0  0
   22.3960   79.9820   15.3680 C   0  0  0  0  0  0  0  0  0  0  0  0
   22.5540   81.1880   15.0550 O   0  0  0  0  0  0  0  0  0  0  0  0
   22.8770   78.8930   14.4840 C   0  0  0  0  0  0  0  0  0  0  0  0
   22.0040   78.6910   13.3550 N   0  0  0  0  0  0  0  0  0  0  0  0
   21.8970   79.5430   12.3080 C   0  0  0  0  0  0  0  0  0  0  0  0
   20.9880   79.0630   11.4140 C   0  0  0  0  0  0  0  0  0  0  0  0
   20.7040   79.7650   10.2570 C   0  0  0  0  0  0  0  0  0  0  0  0
   21.3540   80.9540   10.0200 C   0  0  0  0  0  0  0  0  0  0  0  0
   22.2730   81.4590   10.9040 C   0  0  0  0  0  0  0  0  0  0  0  0
   22.5330   80.7360   12.0470 C   0  0  0  0  0  0  0  0  0  0  0  0
   20.5340   77.9090   11.9130 N   0  0  0  0  0  0  0  0  0  0  0  0
   21.1610   77.6850   13.1030 C   0  0  0  0  0  0  0  0  0  0  0  0
   20.9050   76.6270   13.7790 N   0  0  0  0  0  0  0  0  0  0  0  0
   19.5300   77.0680   11.2760 C   0  0  0  0  0  0  0  0  0  0  0  0
   19.1530   77.7100    9.9320 C   0  0  0  0  0  0  0  0  0  0  0  0
   19.5350   76.8890    8.8190 N   0  0  0  0  0  4  0  0  0  0  0  0
   18.4210   76.2650    8.1350 C   0  0  0  0  0  0  0  0  0  0  0  0
   17.3640   77.2640    7.7550 C   0  0  0  0  0  0  0  0  0  0  0  0
   17.9120   78.4780    7.0840 C   0  0  0  0  0  0  0  0  0  0  0  0
   19.3110   78.8400    7.4310 C   0  0  0  0  0  0  0  0  0  0  0  0
   20.1990   77.7200    7.8450 C   0  0  0  0  0  0  0  0  0  0  0  0
   19.7520   77.7510   20.1720 B   0  0  0  0  0  0  0  0  0  0  0  0
   20.2840   80.7820   19.4880 H   0  0  0  0  0  0  0  0  0  0  0  0
   21.4330   81.7050   17.4060 H   0  0  0  0  0  0  0  0  0  0  0  0
   23.0340   77.9460   15.0650 H   0  0  0  0  0  0  0  0  0  0  0  0
   23.8980   79.1540   14.1110 H   0  0  0  0  0  0  0  0  0  0  0  0
   19.9740   79.3500    9.5710 H   0  0  0  0  0  0  0  0  0  0  0  0
   21.1600   81.5350    9.1290 H   0  0  0  0  0  0  0  0  0  0  0  0
   22.8030   82.3940   10.7470 H   0  0  0  0  0  0  0  0  0  0  0  0
   23.2460   81.0980   12.7620 H   0  0  0  0  0  0  0  0  0  0  0  0
   21.2980   76.3240   14.6680 H   0  0  0  0  0  0  0  0  0  0  0  0
   18.6140   76.9460   11.8860 H   0  0  0  0  0  0  0  0  0  0  0  0
   19.9600   76.0730   11.0050 H   0  0  0  0  0  0  0  0  0  0  0  0
   19.7400   78.6530    9.8800 H   0  0  0  0  0  0  0  0  0  0  0  0
   18.0590   77.8710    9.9910 H   0  0  0  0  0  0  0  0  0  0  0  0
   20.1480   76.1070    9.1360 H   0  0  0  0  0  0  0  0  0  0  0  0
   18.8300   75.7830    7.2310 H   0  0  0  0  0  0  0  0  0  0  0  0
   17.9660   75.5050    8.7980 H   0  0  0  0  0  0  0  0  0  0  0  0
   16.7210   77.5260    8.6440 H   0  0  0  0  0  0  0  0  0  0  0  0
   16.6760   76.7490    7.0500 H   0  0  0  0  0  0  0  0  0  0  0  0
   17.8250   78.3500    5.9780 H   0  0  0  0  0  0  0  0  0  0  0  0
   17.2550   79.3510    7.3700 H   0  0  0  0  0  0  0  0  0  0  0  0
   19.7470   79.3620    6.5260 H   0  0  0  0  0  0  0  0  0  0  0  0
   19.3180   79.6330    8.2160 H   0  0  0  0  0  0  0  0  0  0  0  0
   20.5230   77.1340    6.9560 H   0  0  0  0  0  0  0  0  0  0  0  0
   21.0760   78.1660    8.3710 H   0  0  0  0  0  0  0  0  0  0  0  0
  1  2  1  0  0  0  0
  2 27  1  0  0  0  0
  3  2  2  0  0  0  0
  3 28  1  0  0  0  0
  4  3  1  0  0  0  0
  5  1  1  0  0  0  0
  5  4  2  0  0  0  0
  6  5  1  0  0  0  0
  7  6  2  0  0  0  0
  8 30  1  0  0  0  0
  8  6  1  0  0  0  0
  9  8  1  0  0  0  0
 10  9  1  0  0  0  0
 11 16  1  0  0  0  0
 11 10  2  0  0  0  0
 12 11  1  0  0  0  0
 13 12  2  0  0  0  0
 13 14  1  0  0  0  0
 14 15  2  0  0  0  0
 15 10  1  0  0  0  0
 15 35  1  0  0  0  0
 16 17  1  0  0  0  0
 17  9  1  0  0  0  0
 17 18  2  0  0  0  0
 18 36  1  0  0  0  0
 19 37  1  0  0  0  0
 19 16  1  0  0  0  0
 20 40  1  0  0  0  0
 20 19  1  0  0  0  0
 21 41  1  0  0  0  0
 21 20  1  0  0  0  0
 22 43  1  0  0  0  0
 22 21  1  0  0  0  0
 23 22  1  0  0  0  0
 23 44  1  0  0  0  0
 24 47  1  0  0  0  0
 24 25  1  0  0  0  0
 24 23  1  0  0  0  0
 25 26  1  0  0  0  0
 25 49  1  0  0  0  0
 26 51  1  0  0  0  0
 26 21  1  0  0  0  0
 29  4  1  0  0  0  0
 31  8  1  0  0  0  0
 32 12  1  0  0  0  0
 33 13  1  0  0  0  0
 34 14  1  0  0  0  0
 38 19  1  0  0  0  0
 39 20  1  0  0  0  0
 42 22  1  0  0  0  0
 45 23  1  0  0  0  0
 46 24  1  0  0  0  0
 48 25  1  0  0  0  0
 50 26  1  0  0  0  0
M  END
>  <Pose>
1

>  <Score>
-5.87

$$$$
