
 OpenBabel03222202113D

 58 61  0  0  1  0  0  0  0  0999 V2000
   18.7450   75.0380    6.8240 S   0  0  0  0  0  0  0  0  0  0  0  0
   17.9790   75.4270    5.3510 C   0  0  0  0  0  0  0  0  0  0  0  0
   17.3520   76.5500    5.6500 N   0  0  0  0  0  0  0  0  0  0  0  0
   17.4450   77.0490    6.8470 C   0  0  0  0  0  0  0  0  0  0  0  0
   18.2050   76.3650    7.7600 C   0  0  0  0  0  0  0  0  0  0  0  0
   18.5540   76.6540    9.1490 C   0  0  0  0  0  0  0  0  0  0  0  0
   19.4310   77.5920    9.4500 C   0  0  0  0  0  0  0  0  0  0  0  0
   19.9130   78.0180   10.8060 C   0  0  2  0  0  0  0  0  0  0  0  0
   21.2660   78.4170   10.5770 N   0  0  0  0  0  0  0  0  0  0  0  0
   21.2470   79.0010    9.2450 C   0  0  0  0  0  0  0  0  0  0  0  0
   22.1230   79.8140    8.8420 O   0  0  0  0  0  0  0  0  0  0  0  0
   20.0960   78.4950    8.5200 C   0  0  0  0  0  0  0  0  0  0  0  0
   19.7400   78.7800    7.3280 O   0  0  0  0  0  0  0  0  0  0  0  0
   22.4290   78.3700   11.4140 C   0  0  0  0  0  0  0  0  0  0  0  0
   22.4820   79.3630   12.5300 C   0  0  0  0  0  0  0  0  0  0  0  0
   23.0810   78.7280   13.7950 C   0  0  0  0  0  0  0  0  0  0  0  0
   23.8310   79.7250   14.4820 N   0  0  0  0  0  4  0  0  0  0  0  0
   23.1100   80.8850   14.8980 C   0  0  0  0  0  0  0  0  0  0  0  0
   22.2340   80.6490   16.1060 C   0  0  0  0  0  0  0  0  0  0  0  0
   22.3530   79.2790   16.4330 O   0  0  0  0  0  0  0  0  0  0  0  0
   23.6850   79.1290   16.8680 C   0  0  0  0  0  0  0  0  0  0  0  0
   24.5470   79.1870   15.6240 C   0  0  0  0  0  0  0  0  0  0  0  0
   19.6770   76.9930   11.8140 C   0  0  0  0  0  0  0  0  0  0  0  0
   20.1670   77.2220   13.1090 C   0  0  0  0  0  0  0  0  0  0  0  0
   19.9880   76.3450   14.1480 C   0  0  0  0  0  0  0  0  0  0  0  0
   19.2970   75.1780   13.9370 C   0  0  0  0  0  0  0  0  0  0  0  0
   18.7960   74.9160   12.6710 C   0  0  0  0  0  0  0  0  0  0  0  0
   18.9960   75.8210   11.6510 C   0  0  0  0  0  0  0  0  0  0  0  0
   20.6670   76.6840   15.9010 B   0  0  0  0  0  0  0  0  0  0  0  0
   17.9490   75.9230   10.1970 O   0  0  0  0  0  0  0  0  0  0  0  0
   16.7540   78.3660    7.1740 C   0  0  0  0  0  0  0  0  0  0  0  0
   18.0080   74.6820    4.0370 C   0  0  0  0  0  0  0  0  0  0  0  0
   19.2790   78.9230   11.0480 H   0  0  0  0  0  0  0  0  0  0  0  0
   23.3020   78.5880   10.7380 H   0  0  0  0  0  0  0  0  0  0  0  0
   22.5440   77.3490   11.8510 H   0  0  0  0  0  0  0  0  0  0  0  0
   23.0390   80.2730   12.3590 H   0  0  0  0  0  0  0  0  0  0  0  0
   21.4040   79.5630   12.8130 H   0  0  0  0  0  0  0  0  0  0  0  0
   23.7510   77.8870   13.5280 H   0  0  0  0  0  0  0  0  0  0  0  0
   22.2130   78.3410   14.3700 H   0  0  0  0  0  0  0  0  0  0  0  0
   24.5850   80.0620   13.8110 H   0  0  0  0  0  0  0  0  0  0  0  0
   22.5130   81.3880   14.1390 H   0  0  0  0  0  0  0  0  0  0  0  0
   23.8900   81.6400   15.2160 H   0  0  0  0  0  0  0  0  0  0  0  0
   21.1970   80.9680   15.9830 H   0  0  0  0  0  0  0  0  0  0  0  0
   22.6210   81.1820   17.0160 H   0  0  0  0  0  0  0  0  0  0  0  0
   23.9240   80.0490   17.4650 H   0  0  0  0  0  0  0  0  0  0  0  0
   23.8400   78.2420   17.4780 H   0  0  0  0  0  0  0  0  0  0  0  0
   25.4510   79.7970   15.7890 H   0  0  0  0  0  0  0  0  0  0  0  0
   24.8580   78.1500   15.3610 H   0  0  0  0  0  0  0  0  0  0  0  0
   20.7220   78.1360   13.3210 H   0  0  0  0  0  0  0  0  0  0  0  0
   19.1630   74.4990   14.7640 H   0  0  0  0  0  0  0  0  0  0  0  0
   18.2540   74.0170   12.4730 H   0  0  0  0  0  0  0  0  0  0  0  0
   18.5870   75.6120   10.6720 H   0  0  0  0  0  0  0  0  0  0  0  0
   17.1860   78.7860    8.0770 H   0  0  0  0  0  0  0  0  0  0  0  0
   15.6570   78.2120    7.2100 H   0  0  0  0  0  0  0  0  0  0  0  0
   16.9260   79.0960    6.3510 H   0  0  0  0  0  0  0  0  0  0  0  0
   16.9990   74.4100    3.7110 H   0  0  0  0  0  0  0  0  0  0  0  0
   18.5020   75.3780    3.3240 H   0  0  0  0  0  0  0  0  0  0  0  0
   18.6890   73.8170    4.1780 H   0  0  0  0  0  0  0  0  0  0  0  0
  1  5  1  0  0  0  0
  2  3  2  0  0  0  0
  2  1  1  0  0  0  0
  3  4  1  0  0  0  0
  4 31  1  0  0  0  0
  4  5  2  0  0  0  0
  5  6  1  0  0  0  0
  6  7  2  0  0  0  0
  6 30  1  0  0  0  0
  7  8  1  0  0  0  0
  8 33  1  1  0  0  0
  8 23  1  0  0  0  0
  9  8  1  0  0  0  0
  9 14  1  0  0  0  0
 10  9  1  0  0  0  0
 11 10  2  0  0  0  0
 12 10  1  0  0  0  0
 12  7  1  0  0  0  0
 13 12  2  0  0  0  0
 14 35  1  0  0  0  0
 14 15  1  0  0  0  0
 15 37  1  0  0  0  0
 15 16  1  0  0  0  0
 16 39  1  0  0  0  0
 16 17  1  0  0  0  0
 17 18  1  0  0  0  0
 17 22  1  0  0  0  0
 18 42  1  0  0  0  0
 18 19  1  0  0  0  0
 19 20  1  0  0  0  0
 19 44  1  0  0  0  0
 20 21  1  0  0  0  0
 21 45  1  0  0  0  0
 21 46  1  0  0  0  0
 22 47  1  0  0  0  0
 22 21  1  0  0  0  0
 23 24  1  0  0  0  0
 24 49  1  0  0  0  0
 24 25  2  0  0  0  0
 25 29  1  0  0  0  0
 26 25  1  0  0  0  0
 26 50  1  0  0  0  0
 27 26  2  0  0  0  0
 28 23  2  0  0  0  0
 28 27  1  0  0  0  0
 30 52  1  0  0  0  0
 31 54  1  0  0  0  0
 31 53  1  0  0  0  0
 32 58  1  0  0  0  0
 32  2  1  0  0  0  0
 34 14  1  0  0  0  0
 36 15  1  0  0  0  0
 38 16  1  0  0  0  0
 40 17  1  0  0  0  0
 41 18  1  0  0  0  0
 43 19  1  0  0  0  0
 48 22  1  0  0  0  0
 51 27  1  0  0  0  0
 55 31  1  0  0  0  0
 56 32  1  0  0  0  0
 57 32  1  0  0  0  0
M  END
>  <Pose>
1

>  <Score>
-5.45

$$$$
