
 OpenBabel03222202113D

 58 61  0  0  1  0  0  0  0  0999 V2000
   17.9570   73.8560   12.4710 S   0  0  0  0  0  0  0  0  0  0  0  0
   18.4370   72.2460   12.7520 C   0  0  0  0  0  0  0  0  0  0  0  0
   19.5730   72.3970   13.4010 N   0  0  0  0  0  0  0  0  0  0  0  0
   20.0220   73.5880   13.6550 C   0  0  0  0  0  0  0  0  0  0  0  0
   19.2720   74.6560   13.2230 C   0  0  0  0  0  0  0  0  0  0  0  0
   19.5540   76.1050   13.3250 C   0  0  0  0  0  0  0  0  0  0  0  0
   19.7900   76.6560   14.4790 C   0  0  0  0  0  0  0  0  0  0  0  0
   20.0930   78.1040   14.6980 C   0  0  1  0  0  0  0  0  0  0  0  0
   20.9990   78.0690   15.8160 N   0  0  0  0  0  0  0  0  0  0  0  0
   20.5470   76.9830   16.6360 C   0  0  0  0  0  0  0  0  0  0  0  0
   20.7740   76.8400   17.8510 O   0  0  0  0  0  0  0  0  0  0  0  0
   19.7720   76.0670   15.8120 C   0  0  0  0  0  0  0  0  0  0  0  0
   19.1810   74.9910   16.1020 O   0  0  0  0  0  0  0  0  0  0  0  0
   22.0910   78.9710   16.0270 C   0  0  0  0  0  0  0  0  0  0  0  0
   21.9170   79.9350   17.1250 C   0  0  0  0  0  0  0  0  0  0  0  0
   20.9900   81.0220   16.9460 C   0  0  0  0  0  0  0  0  0  0  0  0
   19.7670   81.2520   17.5540 N   0  0  0  0  0  4  0  0  0  0  0  0
   19.9480   82.0180   18.8430 C   0  0  0  0  0  0  0  0  0  0  0  0
   20.3760   81.0730   19.9170 C   0  0  0  0  0  0  0  0  0  0  0  0
   19.2990   80.2360   20.1840 O   0  0  0  0  0  0  0  0  0  0  0  0
   19.1870   79.3980   19.0520 C   0  0  0  0  0  0  0  0  0  0  0  0
   18.8490   80.2010   17.8260 C   0  0  0  0  0  0  0  0  0  0  0  0
   20.6140   78.7250   13.4720 C   0  0  0  0  0  0  0  0  0  0  0  0
   19.9440   79.5840   12.6440 C   0  0  0  0  0  0  0  0  0  0  0  0
   20.4690   80.1420   11.5000 C   0  0  0  0  0  0  0  0  0  0  0  0
   21.7560   79.8240   11.1480 C   0  0  0  0  0  0  0  0  0  0  0  0
   22.4800   78.9680   11.9360 C   0  0  0  0  0  0  0  0  0  0  0  0
   21.9250   78.4290   13.0730 C   0  0  0  0  0  0  0  0  0  0  0  0
   22.4840   80.6030    9.5550 B   0  0  0  0  0  0  0  0  0  0  0  0
   19.5690   76.9000   12.1670 O   0  0  0  0  0  0  0  0  0  0  0  0
   21.3560   73.8010   14.3660 C   0  0  0  0  0  0  0  0  0  0  0  0
   17.7660   70.9530   12.3720 C   0  0  0  0  0  0  0  0  0  0  0  0
   19.1820   78.6360   15.0370 H   0  0  0  0  0  0  0  0  0  0  0  0
   23.0270   78.4420   16.0570 H   0  0  0  0  0  0  0  0  0  0  0  0
   22.1550   79.5790   15.0400 H   0  0  0  0  0  0  0  0  0  0  0  0
   21.7910   79.3310   18.0690 H   0  0  0  0  0  0  0  0  0  0  0  0
   22.9740   80.3520   17.3170 H   0  0  0  0  0  0  0  0  0  0  0  0
   21.6580   81.9910   17.0000 H   0  0  0  0  0  0  0  0  0  0  0  0
   20.7800   81.0730   15.8030 H   0  0  0  0  0  0  0  0  0  0  0  0
   19.2230   81.9580   17.0020 H   0  0  0  0  0  0  0  0  0  0  0  0
   20.5750   82.8680   18.6370 H   0  0  0  0  0  0  0  0  0  0  0  0
   18.9430   82.3810   19.1160 H   0  0  0  0  0  0  0  0  0  0  0  0
   20.6710   81.6760   20.7970 H   0  0  0  0  0  0  0  0  0  0  0  0
   21.2140   80.4100   19.6280 H   0  0  0  0  0  0  0  0  0  0  0  0
   18.3450   78.7100   19.2670 H   0  0  0  0  0  0  0  0  0  0  0  0
   20.0990   78.8090   18.9990 H   0  0  0  0  0  0  0  0  0  0  0  0
   17.8150   80.6530   18.1030 H   0  0  0  0  0  0  0  0  0  0  0  0
   18.6160   79.5680   16.9950 H   0  0  0  0  0  0  0  0  0  0  0  0
   18.9300   79.8490   12.9070 H   0  0  0  0  0  0  0  0  0  0  0  0
   19.8510   80.8160   10.9100 H   0  0  0  0  0  0  0  0  0  0  0  0
   23.5050   78.7370   11.6230 H   0  0  0  0  0  0  0  0  0  0  0  0
   22.5090   77.7570   13.6800 H   0  0  0  0  0  0  0  0  0  0  0  0
   21.7180   74.8070   14.2090 H   0  0  0  0  0  0  0  0  0  0  0  0
   21.2760   73.5510   15.4390 H   0  0  0  0  0  0  0  0  0  0  0  0
   22.1120   73.0940   13.9400 H   0  0  0  0  0  0  0  0  0  0  0  0
   17.1940   71.1270   11.4230 H   0  0  0  0  0  0  0  0  0  0  0  0
   18.5380   70.1870   12.1010 H   0  0  0  0  0  0  0  0  0  0  0  0
   17.1070   70.5900   13.1650 H   0  0  0  0  0  0  0  0  0  0  0  0
  1  2  1  0  0  0  0
  1  5  1  0  0  0  0
  2  3  2  0  0  0  0
  3  4  1  0  0  0  0
  4 31  1  0  0  0  0
  5  6  1  0  0  0  0
  5  4  2  0  0  0  0
  6  7  2  0  0  0  0
  7  8  1  0  0  0  0
  7 12  1  0  0  0  0
  8 33  1  1  0  0  0
  8  9  1  0  0  0  0
  9 14  1  0  0  0  0
  9 10  1  0  0  0  0
 10 11  2  0  0  0  0
 12 13  2  0  0  0  0
 12 10  1  0  0  0  0
 14 34  1  0  0  0  0
 14 15  1  0  0  0  0
 15 37  1  0  0  0  0
 15 36  1  0  0  0  0
 16 38  1  0  0  0  0
 16 15  1  0  0  0  0
 16 17  1  0  0  0  0
 17 22  1  0  0  0  0
 17 18  1  0  0  0  0
 18 42  1  0  0  0  0
 18 19  1  0  0  0  0
 19 20  1  0  0  0  0
 19 43  1  0  0  0  0
 21 45  1  0  0  0  0
 21 20  1  0  0  0  0
 22 47  1  0  0  0  0
 22 21  1  0  0  0  0
 23  8  1  0  0  0  0
 24 49  1  0  0  0  0
 24 23  2  0  0  0  0
 25 24  1  0  0  0  0
 26 25  2  0  0  0  0
 26 27  1  0  0  0  0
 27 28  2  0  0  0  0
 28 23  1  0  0  0  0
 28 52  1  0  0  0  0
 29 26  1  0  0  0  0
 30  6  1  0  0  0  0
 31 54  1  0  0  0  0
 32  2  1  0  0  0  0
 32 58  1  0  0  0  0
 35 14  1  0  0  0  0
 39 16  1  0  0  0  0
 40 17  1  0  0  0  0
 41 18  1  0  0  0  0
 44 19  1  0  0  0  0
 46 21  1  0  0  0  0
 48 22  1  0  0  0  0
 50 25  1  0  0  0  0
 51 27  1  0  0  0  0
 53 31  1  0  0  0  0
 55 31  1  0  0  0  0
 56 32  1  0  0  0  0
 57 32  1  0  0  0  0
M  END
>  <Pose>
1

>  <Score>
-5.51

$$$$
