
 OpenBabel03222202113D

 55 58  0  0  1  0  0  0  0  0999 V2000
   24.5490   77.6270   15.2850 S   0  0  0  0  0  0  0  0  0  0  0  0
   24.9630   78.5720   16.6370 C   0  0  0  0  0  0  0  0  0  0  0  0
   23.7850   78.9730   17.0720 N   0  0  0  0  0  0  0  0  0  0  0  0
   22.7040   78.6090   16.4570 C   0  0  0  0  0  0  0  0  0  0  0  0
   22.8360   77.8010   15.3530 C   0  0  0  0  0  0  0  0  0  0  0  0
   21.8180   77.2650   14.4370 C   0  0  0  0  0  0  0  0  0  0  0  0
   21.4030   78.0610   13.4740 C   0  0  0  0  0  0  0  0  0  0  0  0
   20.3960   77.8020   12.4010 C   0  0  1  0  0  0  0  0  0  0  0  0
   21.0720   78.3110   11.2710 N   0  0  0  0  0  0  0  0  0  0  0  0
   21.5490   79.6240   11.7650 C   0  0  0  0  0  0  0  0  0  0  0  0
   21.7320   80.6690   11.0850 O   0  0  0  0  0  0  0  0  0  0  0  0
   21.7620   79.4510   13.1970 C   0  0  0  0  0  0  0  0  0  0  0  0
   22.1660   80.2780   14.0720 O   0  0  0  0  0  0  0  0  0  0  0  0
   21.3380   78.0030    9.9070 C   0  0  0  0  0  0  0  0  0  0  0  0
   20.6930   78.7710    8.8350 C   0  0  0  0  0  0  0  0  0  0  0  0
   19.7290   78.2070    7.9810 N   0  0  0  0  0  4  0  0  0  0  0  0
   19.5080   76.7890    8.1700 C   0  0  0  0  0  0  0  0  0  0  0  0
   18.5460   76.3560    7.0680 C   0  0  0  0  0  0  0  0  0  0  0  0
   17.9150   77.4600    6.4960 O   0  0  0  0  0  0  0  0  0  0  0  0
   17.3590   78.1780    7.5740 C   0  0  0  0  0  0  0  0  0  0  0  0
   18.4270   78.8050    8.4240 C   0  0  0  0  0  0  0  0  0  0  0  0
   19.6750   76.5770   12.4540 C   0  0  0  0  0  0  0  0  0  0  0  0
   19.4510   75.8710   11.2690 C   0  0  0  0  0  0  0  0  0  0  0  0
   18.7520   74.6930   11.2290 C   0  0  0  0  0  0  0  0  0  0  0  0
   18.2550   74.1950   12.4150 C   0  0  0  0  0  0  0  0  0  0  0  0
   18.4650   74.8770   13.5950 C   0  0  0  0  0  0  0  0  0  0  0  0
   19.1700   76.0590   13.6100 C   0  0  0  0  0  0  0  0  0  0  0  0
   17.2670   72.5570   12.4490 B   0  0  0  0  0  0  0  0  0  0  0  0
   21.2980   75.9880   14.5530 O   0  0  0  0  0  0  0  0  0  0  0  0
   21.3380   79.0980   16.9170 C   0  0  0  0  0  0  0  0  0  0  0  0
   26.3250   78.8750   17.2010 C   0  0  0  0  0  0  0  0  0  0  0  0
   19.6100   78.6240   12.6310 H   0  0  0  0  0  0  0  0  0  0  0  0
   21.0540   76.9140    9.7360 H   0  0  0  0  0  0  0  0  0  0  0  0
   22.4340   77.9970    9.6710 H   0  0  0  0  0  0  0  0  0  0  0  0
   21.5260   79.1530    8.1570 H   0  0  0  0  0  0  0  0  0  0  0  0
   20.2910   79.7250    9.3210 H   0  0  0  0  0  0  0  0  0  0  0  0
   19.8530   78.5040    7.0080 H   0  0  0  0  0  0  0  0  0  0  0  0
   20.4080   76.1810    8.0620 H   0  0  0  0  0  0  0  0  0  0  0  0
   19.0370   76.6490    9.1770 H   0  0  0  0  0  0  0  0  0  0  0  0
   17.8110   75.6650    7.5600 H   0  0  0  0  0  0  0  0  0  0  0  0
   19.0880   75.8450    6.2450 H   0  0  0  0  0  0  0  0  0  0  0  0
   16.6490   78.9360    7.2050 H   0  0  0  0  0  0  0  0  0  0  0  0
   16.8420   77.3900    8.1930 H   0  0  0  0  0  0  0  0  0  0  0  0
   18.5010   79.8880    8.3370 H   0  0  0  0  0  0  0  0  0  0  0  0
   18.3360   78.4900    9.4840 H   0  0  0  0  0  0  0  0  0  0  0  0
   19.8340   76.2460   10.3050 H   0  0  0  0  0  0  0  0  0  0  0  0
   18.5860   74.1530   10.2870 H   0  0  0  0  0  0  0  0  0  0  0  0
   18.0620   74.4600   14.5180 H   0  0  0  0  0  0  0  0  0  0  0  0
   19.2950   76.5760   14.5890 H   0  0  0  0  0  0  0  0  0  0  0  0
   21.4440   80.1720   17.1930 H   0  0  0  0  0  0  0  0  0  0  0  0
   20.9890   78.5800   17.8070 H   0  0  0  0  0  0  0  0  0  0  0  0
   20.6020   78.9900   16.1090 H   0  0  0  0  0  0  0  0  0  0  0  0
   26.4100   79.9280   17.5240 H   0  0  0  0  0  0  0  0  0  0  0  0
   27.0720   78.6290   16.3910 H   0  0  0  0  0  0  0  0  0  0  0  0
   26.5100   78.1500   18.0170 H   0  0  0  0  0  0  0  0  0  0  0  0
  1  5  1  0  0  0  0
  1  2  1  0  0  0  0
  2  3  2  0  0  0  0
  2 31  1  0  0  0  0
  4 30  1  0  0  0  0
  4  3  1  0  0  0  0
  5  4  2  0  0  0  0
  6 29  1  0  0  0  0
  6  5  1  0  0  0  0
  7  6  2  0  0  0  0
  8 22  1  0  0  0  0
  8 32  1  1  0  0  0
  8  7  1  0  0  0  0
  9 10  1  0  0  0  0
  9  8  1  0  0  0  0
 10 12  1  0  0  0  0
 11 10  2  0  0  0  0
 12  7  1  0  0  0  0
 12 13  2  0  0  0  0
 14  9  1  0  0  0  0
 15 36  1  0  0  0  0
 15 14  1  0  0  0  0
 16 17  1  0  0  0  0
 16 21  1  0  0  0  0
 16 15  1  0  0  0  0
 17 39  1  0  0  0  0
 18 40  1  0  0  0  0
 18 17  1  0  0  0  0
 19 18  1  0  0  0  0
 19 20  1  0  0  0  0
 20 43  1  0  0  0  0
 20 21  1  0  0  0  0
 21 45  1  0  0  0  0
 22 27  1  0  0  0  0
 23 22  2  0  0  0  0
 24 23  1  0  0  0  0
 24 25  2  0  0  0  0
 25 28  1  0  0  0  0
 25 26  1  0  0  0  0
 26 27  2  0  0  0  0
 26 48  1  0  0  0  0
 27 49  1  0  0  0  0
 30 50  1  0  0  0  0
 30 51  1  0  0  0  0
 31 53  1  0  0  0  0
 31 55  1  0  0  0  0
 33 14  1  0  0  0  0
 34 14  1  0  0  0  0
 35 15  1  0  0  0  0
 37 16  1  0  0  0  0
 38 17  1  0  0  0  0
 41 18  1  0  0  0  0
 42 20  1  0  0  0  0
 44 21  1  0  0  0  0
 46 23  1  0  0  0  0
 47 24  1  0  0  0  0
 52 30  1  0  0  0  0
 54 31  1  0  0  0  0
M  END
>  <Pose>
1

>  <Score>
-6.22

$$$$
