
 OpenBabel03222202113D

 42 45  0  0  1  0  0  0  0  0999 V2000
   22.0430   79.7620   16.1960 S   0  0  0  0  0  0  0  0  0  0  0  0
   21.2150   80.5410   17.6110 C   0  0  0  0  0  0  0  0  0  0  0  0
   20.2020   79.5430   18.1420 C   0  0  0  0  0  0  0  0  0  0  0  0
   20.8200   78.1630   18.2220 C   0  0  0  0  0  0  0  0  0  0  0  0
   20.6710   77.5620   16.9070 N   0  0  0  0  0  0  0  0  0  0  0  0
   21.2030   78.2210   15.8750 C   0  0  2  0  0  0  0  0  0  0  0  0
   20.9620   77.5030   14.7210 N   0  0  0  0  0  0  0  0  0  0  0  0
   20.2860   76.4100   15.0320 C   0  0  0  0  0  0  0  0  0  0  0  0
   20.1120   76.4640   16.4130 C   0  0  0  0  0  0  0  0  0  0  0  0
   19.7870   75.3270   14.1990 C   0  0  0  0  0  0  0  0  0  0  0  0
   20.3330   74.0430   14.3450 C   0  0  0  0  0  0  0  0  0  0  0  0
   19.9050   72.9870   13.5890 C   0  0  0  0  0  0  0  0  0  0  0  0
   18.9160   73.1000   12.6390 C   0  0  0  0  0  0  0  0  0  0  0  0
   18.3760   74.3510   12.4890 C   0  0  0  0  0  0  0  0  0  0  0  0
   18.8000   75.4490   13.2520 C   0  0  0  0  0  0  0  0  0  0  0  0
   18.5070   72.0040   11.8920 O   0  0  0  0  0  0  0  0  0  0  0  0
   17.4710   71.1630   12.3650 C   0  0  0  0  0  0  0  0  0  0  0  0
   21.4120   77.9550   13.4460 C   0  0  0  0  0  0  0  0  0  0  0  0
   20.5910   77.8750   12.3350 C   0  0  0  0  0  0  0  0  0  0  0  0
   20.9860   78.3310   11.0930 C   0  0  0  0  0  0  0  0  0  0  0  0
   22.2480   78.8800   10.9750 C   0  0  0  0  0  0  0  0  0  0  0  0
   23.0590   78.9550   12.0870 C   0  0  0  0  0  0  0  0  0  0  0  0
   22.6850   78.5070   13.3350 C   0  0  0  0  0  0  0  0  0  0  0  0
   22.8860   79.5400    9.2870 B   0  0  0  0  0  0  0  0  0  0  0  0
   21.9460   80.7560   18.4110 H   0  0  0  0  0  0  0  0  0  0  0  0
   20.7230   81.4540   17.2290 H   0  0  0  0  0  0  0  0  0  0  0  0
   19.8010   79.8700   19.1240 H   0  0  0  0  0  0  0  0  0  0  0  0
   19.3440   79.5360   17.4320 H   0  0  0  0  0  0  0  0  0  0  0  0
   21.9290   78.3180   18.3600 H   0  0  0  0  0  0  0  0  0  0  0  0
   20.3890   77.5500   19.0180 H   0  0  0  0  0  0  0  0  0  0  0  0
   19.6040   75.7470   17.0530 H   0  0  0  0  0  0  0  0  0  0  0  0
   21.1110   73.9040   15.0770 H   0  0  0  0  0  0  0  0  0  0  0  0
   20.3390   71.9800   13.7100 H   0  0  0  0  0  0  0  0  0  0  0  0
   17.5980   74.5120   11.7630 H   0  0  0  0  0  0  0  0  0  0  0  0
   18.3410   76.4010   13.0900 H   0  0  0  0  0  0  0  0  0  0  0  0
   17.2130   70.3720   11.6630 H   0  0  0  0  0  0  0  0  0  0  0  0
   16.5750   71.8070   12.6130 H   0  0  0  0  0  0  0  0  0  0  0  0
   17.7820   70.7150   13.3200 H   0  0  0  0  0  0  0  0  0  0  0  0
   19.5920   77.4500   12.3870 H   0  0  0  0  0  0  0  0  0  0  0  0
   20.3610   78.2780   10.2140 H   0  0  0  0  0  0  0  0  0  0  0  0
   24.0670   79.3870   12.0230 H   0  0  0  0  0  0  0  0  0  0  0  0
   23.3350   78.5730   14.1990 H   0  0  0  0  0  0  0  0  0  0  0  0
  1  2  1  0  0  0  0
  2  3  1  0  0  0  0
  2 25  1  0  0  0  0
  3  4  1  0  0  0  0
  3 27  1  0  0  0  0
  4 29  1  0  0  0  0
  4 30  1  0  0  0  0
  5  4  1  0  0  0  0
  6  1  1  1  0  0  0
  6  5  1  0  0  0  0
  7  8  1  0  0  0  0
  7  6  1  0  0  0  0
  8  9  2  0  0  0  0
  9  5  1  0  0  0  0
  9 31  1  0  0  0  0
 10 11  1  0  0  0  0
 10  8  1  0  0  0  0
 11 32  1  0  0  0  0
 12 33  1  0  0  0  0
 12 11  2  0  0  0  0
 13 12  1  0  0  0  0
 14 13  2  0  0  0  0
 14 15  1  0  0  0  0
 15 10  2  0  0  0  0
 16 17  1  0  0  0  0
 16 13  1  0  0  0  0
 17 37  1  0  0  0  0
 17 38  1  0  0  0  0
 18  7  1  0  0  0  0
 19 39  1  0  0  0  0
 19 18  2  0  0  0  0
 20 19  1  0  0  0  0
 21 20  2  0  0  0  0
 21 22  1  0  0  0  0
 22 23  2  0  0  0  0
 23 18  1  0  0  0  0
 23 42  1  0  0  0  0
 24 21  1  0  0  0  0
 26  2  1  0  0  0  0
 28  3  1  0  0  0  0
 34 14  1  0  0  0  0
 35 15  1  0  0  0  0
 36 17  1  0  0  0  0
 40 20  1  0  0  0  0
 41 22  1  0  0  0  0
M  END
>  <Pose>
1

>  <Score>
-5.65

$$$$
