
 OpenBabel03222202113D

 43 46  0  0  1  0  0  0  0  0999 V2000
   23.4010   79.0560   17.0610 S   0  0  0  0  0  0  0  0  0  0  0  0
   24.0080   79.1760   15.3310 C   0  0  0  0  0  0  0  0  0  0  0  0
   23.3940   78.1940   14.4240 C   0  0  0  0  0  0  0  0  0  0  0  0
   22.5890   77.0930   14.9810 C   0  0  0  0  0  0  0  0  0  0  0  0
   21.5960   77.4020   15.9260 N   0  0  1  0  0  0  0  0  0  0  0  0
   20.3470   76.8070   16.2940 C   0  0  2  0  0  0  0  0  0  0  0  0
   19.5490   78.0380   16.6660 C   0  0  0  0  0  0  0  0  0  0  0  0
   20.5690   78.8840   17.2500 N   0  0  0  0  0  0  0  0  0  0  0  0
   21.6920   78.5330   16.8300 C   0  0  1  0  0  0  0  0  0  0  0  0
   20.3210   79.9460   18.1790 C   0  0  0  0  0  0  0  0  0  0  0  0
   20.5330   81.2520   17.7620 C   0  0  0  0  0  0  0  0  0  0  0  0
   20.3330   82.3340   18.6170 C   0  0  0  0  0  0  0  0  0  0  0  0
   19.9170   82.1340   19.9140 C   0  0  0  0  0  0  0  0  0  0  0  0
   19.7030   80.8460   20.3410 C   0  0  0  0  0  0  0  0  0  0  0  0
   19.9140   79.7790   19.4600 C   0  0  0  0  0  0  0  0  0  0  0  0
   19.6590   83.6320   21.0940 B   0  0  0  0  0  0  0  0  0  0  0  0
   20.5150   76.0760   17.4720 O   0  0  0  0  0  0  0  0  0  0  0  0
   19.6710   76.0110   15.2520 C   0  0  0  0  0  0  0  0  0  0  0  0
   18.5910   75.2290   15.6490 C   0  0  0  0  0  0  0  0  0  0  0  0
   17.8950   74.4530   14.7490 C   0  0  0  0  0  0  0  0  0  0  0  0
   18.2330   74.4130   13.4080 C   0  0  0  0  0  0  0  0  0  0  0  0
   19.3030   75.1900   13.0080 C   0  0  0  0  0  0  0  0  0  0  0  0
   20.0100   75.9760   13.9240 C   0  0  0  0  0  0  0  0  0  0  0  0
   17.5000   73.6100   12.5020 N   0  0  0  0  0  0  0  0  0  0  0  0
   16.5090   72.9440   12.8260 O   0  0  0  0  0  0  0  0  0  0  0  0
   17.8930   73.5600   11.1900 O   0  0  0  0  0  0  0  0  0  0  0  0
   23.7990   80.2320   14.9900 H   0  0  0  0  0  0  0  0  0  0  0  0
   25.0940   79.1080   15.3880 H   0  0  0  0  0  0  0  0  0  0  0  0
   22.8090   78.7290   13.6430 H   0  0  0  0  0  0  0  0  0  0  0  0
   24.2420   77.7130   13.8360 H   0  0  0  0  0  0  0  0  0  0  0  0
   23.2880   76.3420   15.4650 H   0  0  0  0  0  0  0  0  0  0  0  0
   22.1680   76.5160   14.1270 H   0  0  0  0  0  0  0  0  0  0  0  0
   19.2140   78.4640   15.6720 H   0  0  0  0  0  0  0  0  0  0  0  0
   18.7050   77.8040   17.3230 H   0  0  0  0  0  0  0  0  0  0  0  0
   20.8670   81.4480   16.7530 H   0  0  0  0  0  0  0  0  0  0  0  0
   20.5110   83.3500   18.2600 H   0  0  0  0  0  0  0  0  0  0  0  0
   19.3920   80.6700   21.3500 H   0  0  0  0  0  0  0  0  0  0  0  0
   19.7460   78.7680   19.8290 H   0  0  0  0  0  0  0  0  0  0  0  0
   19.6570   75.9950   17.9190 H   0  0  0  0  0  0  0  0  0  0  0  0
   18.3030   75.2390   16.7020 H   0  0  0  0  0  0  0  0  0  0  0  0
   17.0420   73.8260   15.0290 H   0  0  0  0  0  0  0  0  0  0  0  0
   19.5910   75.1740   11.9570 H   0  0  0  0  0  0  0  0  0  0  0  0
   20.8490   76.5760   13.5850 H   0  0  0  0  0  0  0  0  0  0  0  0
  2 28  1  0  0  0  0
  2  1  1  0  0  0  0
  3  4  1  0  0  0  0
  3  2  1  0  0  0  0
  4 31  1  0  0  0  0
  5  4  1  1  0  0  0
  5  6  1  0  0  0  0
  5  9  1  0  0  0  0
  6  7  1  0  0  0  0
  6 17  1  1  0  0  0
  7  8  1  0  0  0  0
  7 34  1  0  0  0  0
  8 10  1  0  0  0  0
  9  1  1  1  0  0  0
  9  8  1  0  0  0  0
 10 15  1  0  0  0  0
 11 10  2  0  0  0  0
 11 12  1  0  0  0  0
 12 13  2  0  0  0  0
 13 14  1  0  0  0  0
 13 16  1  0  0  0  0
 14 37  1  0  0  0  0
 15 38  1  0  0  0  0
 15 14  2  0  0  0  0
 17 39  1  0  0  0  0
 18 19  1  0  0  0  0
 18  6  1  0  0  0  0
 19 40  1  0  0  0  0
 20 41  1  0  0  0  0
 20 19  2  0  0  0  0
 21 20  1  0  0  0  0
 22 21  2  0  0  0  0
 22 23  1  0  0  0  0
 23 18  2  0  0  0  0
 24 25  2  0  0  0  0
 24 21  1  0  0  0  0
 26 24  2  0  0  0  0
 27  2  1  0  0  0  0
 29  3  1  0  0  0  0
 30  3  1  0  0  0  0
 32  4  1  0  0  0  0
 33  7  1  0  0  0  0
 35 11  1  0  0  0  0
 36 12  1  0  0  0  0
 42 22  1  0  0  0  0
 43 23  1  0  0  0  0
M  END
>  <Pose>
1

>  <Score>
-5.83

$$$$
