
 OpenBabel03222202113D

 45 49  0  0  1  0  0  0  0  0999 V2000
   19.5110   79.0660   18.5470 S   0  0  0  0  0  0  0  0  0  0  0  0
   20.5320   77.8220   19.4720 C   0  0  0  0  0  0  0  0  0  0  0  0
   21.0780   77.0970   18.2690 C   0  0  0  0  0  0  0  0  0  0  0  0
   21.4500   78.0350   17.2470 N   0  0  0  0  0  0  0  0  0  0  0  0
   20.6690   79.2090   17.2020 C   0  0  0  0  0  0  0  0  0  0  0  0
   20.8810   80.1040   16.3330 N   0  0  0  0  0  0  0  0  0  0  0  0
   21.9010   79.9830   15.3230 C   0  0  0  0  0  0  0  0  0  0  0  0
   22.4000   80.9720   14.7310 O   0  0  0  0  0  0  0  0  0  0  0  0
   22.3660   78.6080   14.9890 C   0  0  1  0  0  0  0  0  0  0  0  0
   22.5110   77.8800   16.2700 C   0  0  0  0  0  0  0  0  0  0  0  0
   23.4800   77.1430   16.5720 O   0  0  0  0  0  0  0  0  0  0  0  0
   21.3510   78.0030   14.0840 C   0  0  2  0  0  0  0  0  0  0  0  0
   21.3160   76.4950   14.1270 C   0  0  2  0  0  0  0  0  0  0  0  0
   21.7340   75.8420   12.8760 C   0  0  0  0  0  0  0  0  0  0  0  0
   22.9770   75.7790   12.5740 O   0  0  0  0  0  0  0  0  0  0  0  0
   20.7440   75.2730   11.9820 N   0  0  0  0  0  0  0  0  0  0  0  0
   20.9650   74.8220   10.6360 C   0  0  0  0  0  0  0  0  0  0  0  0
   19.7200   75.0000    9.8030 C   0  0  0  0  0  0  0  0  0  0  0  0
   18.5090   74.4210   11.0810 S   0  0  0  0  0  0  0  0  0  0  0  0
   19.4250   75.1080   12.4580 C   0  0  0  0  0  0  0  0  0  0  0  0
   19.0680   75.4350   13.6390 N   0  0  0  0  0  0  0  0  0  0  0  0
   19.9910   76.0040   14.5820 C   0  0  0  0  0  0  0  0  0  0  0  0
   19.6380   76.0660   15.7860 O   0  0  0  0  0  0  0  0  0  0  0  0
   21.5580   78.5190   12.7120 C   0  0  0  0  0  0  0  0  0  0  0  0
   20.5780   78.3670   11.7390 C   0  0  0  0  0  0  0  0  0  0  0  0
   20.7590   78.8470   10.4580 C   0  0  0  0  0  0  0  0  0  0  0  0
   21.9260   79.4930   10.1150 C   0  0  0  0  0  0  0  0  0  0  0  0
   22.8850   79.6400   11.0710 C   0  0  0  0  0  0  0  0  0  0  0  0
   22.7190   79.1660   12.3560 C   0  0  0  0  0  0  0  0  0  0  0  0
   19.4190   78.6440    9.1150 B   0  0  0  0  0  0  0  0  0  0  0  0
   21.3320   78.3250   20.0150 H   0  0  0  0  0  0  0  0  0  0  0  0
   19.8890   77.1660   20.0510 H   0  0  0  0  0  0  0  0  0  0  0  0
   21.9660   76.5250   18.6030 H   0  0  0  0  0  0  0  0  0  0  0  0
   20.2660   76.4230   17.9040 H   0  0  0  0  0  0  0  0  0  0  0  0
   23.3530   78.6490   14.4590 H   0  0  0  0  0  0  0  0  0  0  0  0
   20.3330   78.3360   14.4320 H   0  0  0  0  0  0  0  0  0  0  0  0
   22.0290   76.1370   14.9320 H   0  0  0  0  0  0  0  0  0  0  0  0
   21.2060   73.7350   10.5870 H   0  0  0  0  0  0  0  0  0  0  0  0
   21.7460   75.4360   10.1430 H   0  0  0  0  0  0  0  0  0  0  0  0
   19.5150   76.0490    9.5410 H   0  0  0  0  0  0  0  0  0  0  0  0
   19.7370   74.3110    8.9620 H   0  0  0  0  0  0  0  0  0  0  0  0
   19.6600   77.8640   11.9900 H   0  0  0  0  0  0  0  0  0  0  0  0
   22.0830   79.8810    9.0990 H   0  0  0  0  0  0  0  0  0  0  0  0
   23.8260   80.1510   10.8270 H   0  0  0  0  0  0  0  0  0  0  0  0
   23.5360   79.3210   13.0800 H   0  0  0  0  0  0  0  0  0  0  0  0
  1  2  1  0  0  0  0
  2 31  1  0  0  0  0
  2 32  1  0  0  0  0
  3 33  1  0  0  0  0
  3  2  1  0  0  0  0
  4  3  1  0  0  0  0
  5  4  1  0  0  0  0
  5  1  1  0  0  0  0
  6  5  2  0  0  0  0
  7  6  1  0  0  0  0
  8  7  2  0  0  0  0
  9 35  1  6  0  0  0
  9  7  1  0  0  0  0
  9 10  1  0  0  0  0
 10 11  2  0  0  0  0
 10  4  1  0  0  0  0
 12 13  1  0  0  0  0
 12 36  1  1  0  0  0
 12  9  1  0  0  0  0
 13 22  1  0  0  0  0
 13 37  1  1  0  0  0
 14 13  1  0  0  0  0
 15 14  2  0  0  0  0
 16 20  1  0  0  0  0
 16 14  1  0  0  0  0
 17 16  1  0  0  0  0
 18 17  1  0  0  0  0
 18 19  1  0  0  0  0
 19 20  1  0  0  0  0
 20 21  2  0  0  0  0
 21 22  1  0  0  0  0
 22 23  2  0  0  0  0
 24 12  1  0  0  0  0
 25 42  1  0  0  0  0
 25 24  2  0  0  0  0
 26 25  1  0  0  0  0
 27 26  2  0  0  0  0
 27 28  1  0  0  0  0
 28 29  2  0  0  0  0
 29 24  1  0  0  0  0
 29 45  1  0  0  0  0
 30 26  1  0  0  0  0
 34  3  1  0  0  0  0
 38 17  1  0  0  0  0
 39 17  1  0  0  0  0
 40 18  1  0  0  0  0
 41 18  1  0  0  0  0
 43 27  1  0  0  0  0
 44 28  1  0  0  0  0
M  END
>  <Pose>
1

>  <Score>
-4.60

$$$$
