
 OpenBabel03222202113D

 45 49  0  0  1  0  0  0  0  0999 V2000
   20.4480   80.6110   18.3860 S   0  0  0  0  0  0  0  0  0  0  0  0
   18.7760   79.8460   18.2190 C   0  0  0  0  0  0  0  0  0  0  0  0
   19.1830   78.4060   18.1990 C   0  0  0  0  0  0  0  0  0  0  0  0
   20.3940   78.2130   17.4950 N   0  0  0  0  0  0  0  0  0  0  0  0
   21.3020   79.2920   17.4830 C   0  0  0  0  0  0  0  0  0  0  0  0
   22.4570   79.2660   16.8990 N   0  0  0  0  0  0  0  0  0  0  0  0
   22.9220   78.0600   16.2320 C   0  0  0  0  0  0  0  0  0  0  0  0
   24.1730   77.9830   16.1730 O   0  0  0  0  0  0  0  0  0  0  0  0
   21.9200   77.1500   15.7540 C   0  0  1  0  0  0  0  0  0  0  0  0
   20.8290   77.0260   16.7920 C   0  0  0  0  0  0  0  0  0  0  0  0
   20.3060   75.9260   17.0480 O   0  0  0  0  0  0  0  0  0  0  0  0
   21.3590   77.2130   14.3960 C   0  0  2  0  0  0  0  0  0  0  0  0
   20.7320   78.4320   13.8700 C   0  0  1  0  0  0  0  0  0  0  0  0
   21.8060   79.2010   13.1010 C   0  0  0  0  0  0  0  0  0  0  0  0
   22.6540   79.8780   13.7250 O   0  0  0  0  0  0  0  0  0  0  0  0
   21.8440   79.1440   11.6560 N   0  0  0  0  0  0  0  0  0  0  0  0
   22.9250   79.5020   10.8050 C   0  0  0  0  0  0  0  0  0  0  0  0
   22.9100   78.6970    9.5290 C   0  0  0  0  0  0  0  0  0  0  0  0
   21.0740   78.7210    9.2620 S   0  0  0  0  0  0  0  0  0  0  0  0
   20.6700   78.7020   11.0000 C   0  0  0  0  0  0  0  0  0  0  0  0
   19.6000   78.3610   11.6020 N   0  0  0  0  0  0  0  0  0  0  0  0
   19.5440   78.4190   13.0590 C   0  0  0  0  0  0  0  0  0  0  0  0
   18.3970   78.4610   13.5390 O   0  0  0  0  0  0  0  0  0  0  0  0
   20.6240   75.9450   14.0160 C   0  0  0  0  0  0  0  0  0  0  0  0
   21.2370   74.7190   14.1060 C   0  0  0  0  0  0  0  0  0  0  0  0
   20.5410   73.5920   13.7470 C   0  0  0  0  0  0  0  0  0  0  0  0
   19.2570   73.6270   13.3020 C   0  0  0  0  0  0  0  0  0  0  0  0
   18.6180   74.8380   13.2000 C   0  0  0  0  0  0  0  0  0  0  0  0
   19.3260   75.9830   13.5650 C   0  0  0  0  0  0  0  0  0  0  0  0
   18.2910   72.0470   12.8020 B   0  0  0  0  0  0  0  0  0  0  0  0
   18.2340   80.0830   19.1540 H   0  0  0  0  0  0  0  0  0  0  0  0
   18.2760   80.1910   17.3130 H   0  0  0  0  0  0  0  0  0  0  0  0
   19.2330   78.0200   19.2510 H   0  0  0  0  0  0  0  0  0  0  0  0
   18.3540   77.8630   17.6810 H   0  0  0  0  0  0  0  0  0  0  0  0
   22.4100   76.1030   15.8210 H   0  0  0  0  0  0  0  0  0  0  0  0
   22.3180   77.1040   13.7320 H   0  0  0  0  0  0  0  0  0  0  0  0
   20.5570   79.1610   14.7510 H   0  0  0  0  0  0  0  0  0  0  0  0
   22.8980   80.5890   10.5330 H   0  0  0  0  0  0  0  0  0  0  0  0
   23.8900   79.2600   11.3000 H   0  0  0  0  0  0  0  0  0  0  0  0
   23.2120   77.6610    9.6780 H   0  0  0  0  0  0  0  0  0  0  0  0
   23.4150   79.2260    8.7260 H   0  0  0  0  0  0  0  0  0  0  0  0
   22.2760   74.6510   14.4670 H   0  0  0  0  0  0  0  0  0  0  0  0
   21.0350   72.6310   13.8220 H   0  0  0  0  0  0  0  0  0  0  0  0
   17.5870   74.8980   12.8460 H   0  0  0  0  0  0  0  0  0  0  0  0
   18.7860   76.9230   13.4710 H   0  0  0  0  0  0  0  0  0  0  0  0
  2  1  1  0  0  0  0
  2 31  1  0  0  0  0
  3  2  1  0  0  0  0
  3 33  1  0  0  0  0
  4  3  1  0  0  0  0
  5  4  1  0  0  0  0
  5  1  1  0  0  0  0
  6  5  2  0  0  0  0
  7  6  1  0  0  0  0
  8  7  2  0  0  0  0
  9 35  1  1  0  0  0
  9  7  1  0  0  0  0
  9 10  1  0  0  0  0
 10 11  2  0  0  0  0
 10  4  1  0  0  0  0
 12 36  1  6  0  0  0
 12  9  1  0  0  0  0
 13 12  1  0  0  0  0
 13 37  1  1  0  0  0
 14 15  2  0  0  0  0
 14 13  1  0  0  0  0
 16 14  1  0  0  0  0
 17 39  1  0  0  0  0
 17 16  1  0  0  0  0
 18 40  1  0  0  0  0
 18 17  1  0  0  0  0
 19 18  1  0  0  0  0
 19 20  1  0  0  0  0
 20 21  2  0  0  0  0
 20 16  1  0  0  0  0
 21 22  1  0  0  0  0
 22 23  2  0  0  0  0
 22 13  1  0  0  0  0
 24 25  1  0  0  0  0
 24 12  1  0  0  0  0
 25 42  1  0  0  0  0
 26 43  1  0  0  0  0
 26 25  2  0  0  0  0
 27 26  1  0  0  0  0
 28 27  2  0  0  0  0
 28 29  1  0  0  0  0
 29 24  2  0  0  0  0
 30 27  1  0  0  0  0
 32  2  1  0  0  0  0
 34  3  1  0  0  0  0
 38 17  1  0  0  0  0
 41 18  1  0  0  0  0
 44 28  1  0  0  0  0
 45 29  1  0  0  0  0
M  END
>  <Pose>
1

>  <Score>
-4.80

$$$$
