
 OpenBabel03222202113D

 25 28  0  0  0  0  0  0  0  0999 V2000
   19.1090   80.2280   19.4230 S   0  0  0  0  0  0  0  0  0  0  0  0
   19.9790   78.8280   18.9390 C   0  0  0  0  0  0  0  0  0  0  0  0
   21.0390   79.3740   18.3450 N   0  0  0  0  0  0  0  0  0  0  0  0
   21.7830   78.2930   17.9310 C   0  0  0  0  0  0  0  0  0  0  0  0
   21.1630   77.1670   18.2800 N   0  0  0  0  0  0  0  0  0  0  0  0
   20.0420   77.4580   18.9070 N   0  0  0  0  0  0  0  0  0  0  0  0
   23.0710   78.3500   17.2090 C   0  0  0  0  0  0  0  0  0  0  0  0
   23.8860   79.4150   17.3240 N   0  0  0  0  0  0  0  0  0  0  0  0
   25.0620   79.4550   16.6580 C   0  0  0  0  0  0  0  0  0  0  0  0
   25.4400   78.4110   15.8590 C   0  0  0  0  0  0  0  0  0  0  0  0
   24.6220   77.3620   15.7570 N   0  0  0  0  0  0  0  0  0  0  0  0
   23.4410   77.2960   16.4100 C   0  0  0  0  0  0  0  0  0  0  0  0
   21.1330   80.6410   18.2890 N   0  0  0  0  0  0  0  0  0  0  0  0
   20.2000   81.4150   18.8100 C   0  0  0  0  0  0  0  0  0  0  0  0
   20.1040   82.8770   18.8610 C   0  0  0  0  0  0  0  0  0  0  0  0
   20.1550   83.7190   17.8220 N   0  0  0  0  0  0  0  0  0  0  0  0
   20.0310   84.9800   18.2690 N   0  0  0  0  0  0  0  0  0  0  0  0
   19.8980   84.9520   19.6100 C   0  0  0  0  0  0  0  0  0  0  0  0
   19.9440   83.6080   19.9860 C   0  0  0  0  0  0  0  0  0  0  0  0
   19.8030   83.0110   21.7700 B   0  0  0  0  0  0  0  0  0  0  0  0
   25.6760   80.3160   16.7770 H   0  0  0  0  0  0  0  0  0  0  0  0
   26.3660   78.4430   15.3370 H   0  0  0  0  0  0  0  0  0  0  0  0
   22.7790   76.4340   16.3180 H   0  0  0  0  0  0  0  0  0  0  0  0
   20.0390   85.8290   17.6600 H   0  0  0  0  0  0  0  0  0  0  0  0
   19.7820   85.8340   20.2200 H   0  0  0  0  0  0  0  0  0  0  0  0
  2  1  1  0  0  0  0
  3  2  1  0  0  0  0
  4  5  2  0  0  0  0
  4  3  1  0  0  0  0
  5  6  1  0  0  0  0
  6  2  2  0  0  0  0
  7  8  1  0  0  0  0
  7  4  1  0  0  0  0
  9 21  1  0  0  0  0
  9  8  2  0  0  0  0
 10  9  1  0  0  0  0
 11 10  2  0  0  0  0
 11 12  1  0  0  0  0
 12  7  2  0  0  0  0
 13  3  1  0  0  0  0
 13 14  2  0  0  0  0
 14 15  1  0  0  0  0
 14  1  1  0  0  0  0
 15 19  1  0  0  0  0
 16 17  1  0  0  0  0
 16 15  2  0  0  0  0
 17 18  1  0  0  0  0
 18 19  2  0  0  0  0
 18 25  1  0  0  0  0
 19 20  1  0  0  0  0
 22 10  1  0  0  0  0
 23 12  1  0  0  0  0
 24 17  1  0  0  0  0
M  END
>  <Pose>
1

>  <Score>
-7.48

$$$$
