
 OpenBabel03222202113D

 45 49  0  0  1  0  0  0  0  0999 V2000
   23.7260   78.2700    7.7720 S   0  0  0  0  0  0  0  0  0  0  0  0
   23.3210   79.3100    9.1650 C   0  0  0  0  0  0  0  0  0  0  0  0
   22.4000   80.2060    9.3150 N   0  0  0  0  0  0  0  0  0  0  0  0
   22.2900   80.9140   10.5710 C   0  0  0  0  0  0  0  0  0  0  0  0
   21.8670   82.0600   10.7140 O   0  0  0  0  0  0  0  0  0  0  0  0
   22.7440   80.1520   11.8160 C   0  0  2  0  0  0  0  0  0  0  0  0
   24.1220   79.7240   11.4200 C   0  0  0  0  0  0  0  0  0  0  0  0
   25.1520   79.9800   12.1090 O   0  0  0  0  0  0  0  0  0  0  0  0
   24.2540   78.9820   10.1720 N   0  0  0  0  0  0  0  0  0  0  0  0
   25.1730   78.0190    9.8550 N   0  0  0  0  0  0  0  0  0  0  0  0
   25.1010   77.4500    8.5650 C   0  0  0  0  0  0  0  0  0  0  0  0
   25.8690   76.5080    8.0250 C   0  0  0  0  0  0  0  0  0  0  0  0
   21.8160   78.9870   12.0170 C   0  0  1  0  0  0  0  0  0  0  0  0
   21.1670   78.8520   13.3360 C   0  0  2  0  0  0  0  0  0  0  0  0
   21.7850   79.5180   14.4730 C   0  0  0  0  0  0  0  0  0  0  0  0
   21.3010   80.6170   14.9100 O   0  0  0  0  0  0  0  0  0  0  0  0
   22.9500   78.9640   15.1380 N   0  0  0  0  0  0  0  0  0  0  0  0
   23.8830   79.6200   15.8750 N   0  0  0  0  0  0  0  0  0  0  0  0
   24.9320   78.8470   16.4340 C   0  0  0  0  0  0  0  0  0  0  0  0
   25.9450   79.2240   17.1820 C   0  0  0  0  0  0  0  0  0  0  0  0
   24.5960   77.1720   15.8980 S   0  0  0  0  0  0  0  0  0  0  0  0
   23.1110   77.5710   14.9950 C   0  0  0  0  0  0  0  0  0  0  0  0
   22.3060   76.8190   14.3330 N   0  0  0  0  0  0  0  0  0  0  0  0
   21.1550   77.3720   13.6740 C   0  0  0  0  0  0  0  0  0  0  0  0
   20.1470   76.7210   13.3600 O   0  0  0  0  0  0  0  0  0  0  0  0
   20.7950   78.9110   10.9330 C   0  0  0  0  0  0  0  0  0  0  0  0
   19.8090   79.8630   10.8150 C   0  0  0  0  0  0  0  0  0  0  0  0
   18.8630   79.7980    9.8170 C   0  0  0  0  0  0  0  0  0  0  0  0
   18.9000   78.7590    8.9150 C   0  0  0  0  0  0  0  0  0  0  0  0
   19.8840   77.7710    9.0000 C   0  0  0  0  0  0  0  0  0  0  0  0
   20.8140   77.8730   10.0140 C   0  0  0  0  0  0  0  0  0  0  0  0
   17.6000   78.6400    7.5170 B   0  0  0  0  0  0  0  0  0  0  0  0
   22.7680   80.8590   12.6380 H   0  0  0  0  0  0  0  0  0  0  0  0
   25.9470   77.6820   10.5300 H   0  0  0  0  0  0  0  0  0  0  0  0
   25.6600   76.1960    7.0140 H   0  0  0  0  0  0  0  0  0  0  0  0
   26.6740   76.0560    8.5490 H   0  0  0  0  0  0  0  0  0  0  0  0
   22.4610   78.0560   11.8900 H   0  0  0  0  0  0  0  0  0  0  0  0
   20.0870   79.1670   13.3320 H   0  0  0  0  0  0  0  0  0  0  0  0
   23.8860   80.6800   16.0710 H   0  0  0  0  0  0  0  0  0  0  0  0
   26.6490   78.4920   17.5160 H   0  0  0  0  0  0  0  0  0  0  0  0
   26.0830   80.2490   17.4630 H   0  0  0  0  0  0  0  0  0  0  0  0
   19.7310   80.7010   11.4950 H   0  0  0  0  0  0  0  0  0  0  0  0
   18.0900   80.5390    9.7190 H   0  0  0  0  0  0  0  0  0  0  0  0
   19.9180   76.9500    8.2900 H   0  0  0  0  0  0  0  0  0  0  0  0
   21.6120   77.1390   10.1430 H   0  0  0  0  0  0  0  0  0  0  0  0
  1 11  1  0  0  0  0
  1  2  1  0  0  0  0
  2  3  2  0  0  0  0
  2  9  1  0  0  0  0
  3  4  1  0  0  0  0
  4  5  2  0  0  0  0
  4  6  1  0  0  0  0
  6 13  1  0  0  0  0
  6 33  1  1  0  0  0
  7  6  1  0  0  0  0
  7  8  2  0  0  0  0
  9  7  1  0  0  0  0
 10  9  1  0  0  0  0
 10 34  1  0  0  0  0
 11 10  1  0  0  0  0
 12 36  1  0  0  0  0
 12 11  2  0  0  0  0
 13 37  1  6  0  0  0
 13 14  1  0  0  0  0
 14 38  1  6  0  0  0
 14 24  1  0  0  0  0
 14 15  1  0  0  0  0
 15 16  2  0  0  0  0
 15 17  1  0  0  0  0
 17 18  1  0  0  0  0
 18 39  1  0  0  0  0
 18 19  1  0  0  0  0
 19 20  2  0  0  0  0
 20 41  1  0  0  0  0
 20 40  1  0  0  0  0
 21 19  1  0  0  0  0
 22 17  1  0  0  0  0
 22 21  1  0  0  0  0
 23 22  2  0  0  0  0
 24 23  1  0  0  0  0
 25 24  2  0  0  0  0
 26 13  1  0  0  0  0
 27 26  1  0  0  0  0
 27 42  1  0  0  0  0
 28 27  2  0  0  0  0
 29 30  2  0  0  0  0
 29 28  1  0  0  0  0
 30 31  1  0  0  0  0
 31 45  1  0  0  0  0
 31 26  2  0  0  0  0
 32 29  1  0  0  0  0
 35 12  1  0  0  0  0
 43 28  1  0  0  0  0
 44 30  1  0  0  0  0
M  END
>  <Pose>
1

>  <Score>
-3.84

$$$$
