
 OpenBabel03222202113D

 47 50  0  0  0  0  0  0  0  0999 V2000
   21.3660   79.8870   10.1110 S   0  0  0  0  0  0  0  0  0  0  0  0
   21.8620   79.9980   11.7470 C   0  0  0  0  0  0  0  0  0  0  0  0
   22.5240   80.9450   12.4820 N   0  0  0  0  0  0  0  0  0  0  0  0
   22.7530   80.7700   13.7940 C   0  0  0  0  0  0  0  0  0  0  0  0
   23.3430   81.5740   14.5400 O   0  0  0  0  0  0  0  0  0  0  0  0
   22.2790   79.5900   14.3170 C   0  0  0  0  0  0  0  0  0  0  0  0
   21.6200   78.6420   13.5910 C   0  0  0  0  0  0  0  0  0  0  0  0
   21.4000   78.8510   12.2520 N   0  0  0  0  0  0  0  0  0  0  0  0
   20.7760   78.0620   11.4660 N   0  0  0  0  0  0  0  0  0  0  0  0
   20.5880   78.3480   10.2090 C   0  0  0  0  0  0  0  0  0  0  0  0
   19.8980   77.6060    9.1750 N   0  0  0  0  0  0  0  0  0  0  0  0
   19.0560   78.2690    8.2550 C   0  0  0  0  0  0  0  0  0  0  0  0
   18.3850   77.2690    7.3430 C   0  0  0  0  0  0  0  0  0  0  0  0
   18.0150   76.1390    8.0780 O   0  0  0  0  0  0  0  0  0  0  0  0
   19.1490   75.3880    8.4120 C   0  0  0  0  0  0  0  0  0  0  0  0
   20.1430   76.2030    9.1800 C   0  0  0  0  0  0  0  0  0  0  0  0
   21.1650   77.4420   14.2920 C   0  0  0  0  0  0  0  0  0  0  0  0
   21.4630   76.2860   13.8150 O   0  0  0  0  0  0  0  0  0  0  0  0
   20.4010   77.4440   15.4760 N   0  0  0  0  0  0  0  0  0  0  0  0
   21.0500   77.1840   16.7560 C   0  0  0  0  0  0  0  0  0  0  0  0
   22.0430   78.2420   17.0660 C   0  0  0  0  0  0  0  0  0  0  0  0
   21.6120   79.4210   17.6540 C   0  0  0  0  0  0  0  0  0  0  0  0
   22.5170   80.4220   17.9060 C   0  0  0  0  0  0  0  0  0  0  0  0
   23.8460   80.3010   17.5950 C   0  0  0  0  0  0  0  0  0  0  0  0
   24.2840   79.1280   17.0090 C   0  0  0  0  0  0  0  0  0  0  0  0
   23.3680   78.1190   16.7570 C   0  0  0  0  0  0  0  0  0  0  0  0
   26.1190   78.8760   16.5500 B   0  0  0  0  0  0  0  0  0  0  0  0
   20.2750   79.5320   17.9610 O   0  0  0  0  0  0  0  0  0  0  0  0
   19.9150   80.0920   19.2240 C   0  0  0  0  0  0  0  0  0  0  0  0
   22.4550   79.4270   15.3880 H   0  0  0  0  0  0  0  0  0  0  0  0
   19.6350   79.0210    7.6520 H   0  0  0  0  0  0  0  0  0  0  0  0
   18.2240   78.8410    8.7370 H   0  0  0  0  0  0  0  0  0  0  0  0
   19.1530   76.9560    6.5920 H   0  0  0  0  0  0  0  0  0  0  0  0
   17.4800   77.6930    6.8980 H   0  0  0  0  0  0  0  0  0  0  0  0
   18.8140   74.4770    8.9890 H   0  0  0  0  0  0  0  0  0  0  0  0
   19.5700   74.9820    7.4560 H   0  0  0  0  0  0  0  0  0  0  0  0
   20.2370   75.8060   10.2360 H   0  0  0  0  0  0  0  0  0  0  0  0
   21.1480   76.0340    8.6820 H   0  0  0  0  0  0  0  0  0  0  0  0
   19.3790   77.6210   15.4610 H   0  0  0  0  0  0  0  0  0  0  0  0
   21.6340   76.2160   16.6930 H   0  0  0  0  0  0  0  0  0  0  0  0
   20.3380   77.0450   17.5800 H   0  0  0  0  0  0  0  0  0  0  0  0
   22.1630   81.3490   18.3690 H   0  0  0  0  0  0  0  0  0  0  0  0
   24.5720   81.0910   17.7910 H   0  0  0  0  0  0  0  0  0  0  0  0
   23.7800   77.2220   16.2910 H   0  0  0  0  0  0  0  0  0  0  0  0
   18.8150   80.1310   19.3160 H   0  0  0  0  0  0  0  0  0  0  0  0
   20.2910   79.4810   20.0640 H   0  0  0  0  0  0  0  0  0  0  0  0
   20.3870   81.0830   19.3070 H   0  0  0  0  0  0  0  0  0  0  0  0
  1 10  1  0  0  0  0
  1  2  1  0  0  0  0
  2  8  1  0  0  0  0
  2  3  2  0  0  0  0
  3  4  1  0  0  0  0
  4  6  1  0  0  0  0
  4  5  2  0  0  0  0
  6 30  1  0  0  0  0
  7 17  1  0  0  0  0
  7  6  2  0  0  0  0
  8  7  1  0  0  0  0
  9  8  1  0  0  0  0
 10  9  2  0  0  0  0
 11 16  1  0  0  0  0
 11 10  1  0  0  0  0
 12 32  1  0  0  0  0
 12 11  1  0  0  0  0
 13 14  1  0  0  0  0
 13 12  1  0  0  0  0
 14 15  1  0  0  0  0
 15 35  1  0  0  0  0
 15 16  1  0  0  0  0
 16 37  1  0  0  0  0
 17 19  1  0  0  0  0
 18 17  2  0  0  0  0
 19 20  1  0  0  0  0
 20 21  1  0  0  0  0
 20 41  1  0  0  0  0
 21 22  1  0  0  0  0
 22 23  2  0  0  0  0
 22 28  1  0  0  0  0
 23 42  1  0  0  0  0
 24 43  1  0  0  0  0
 24 23  1  0  0  0  0
 25 24  2  0  0  0  0
 26 25  1  0  0  0  0
 26 21  2  0  0  0  0
 27 25  1  0  0  0  0
 28 29  1  0  0  0  0
 29 47  1  0  0  0  0
 29 45  1  0  0  0  0
 29 46  1  0  0  0  0
 31 12  1  0  0  0  0
 33 13  1  0  0  0  0
 34 13  1  0  0  0  0
 36 15  1  0  0  0  0
 38 16  1  0  0  0  0
 39 19  1  0  0  0  0
 40 20  1  0  0  0  0
 44 26  1  0  0  0  0
M  END
>  <Pose>
1

>  <Score>
-6.71

$$$$
