
 OpenBabel03222202113D

 53 56  0  0  0  0  0  0  0  0999 V2000
   18.7160   83.7410   22.4110 B   0  0  0  0  0  0  0  0  0  0  0  0
   19.3170   83.5560   20.6160 C   0  0  0  0  0  0  0  0  0  0  0  0
   19.5170   82.3160   20.0600 C   0  0  0  0  0  0  0  0  0  0  0  0
   19.9550   82.1890   18.7420 C   0  0  0  0  0  0  0  0  0  0  0  0
   20.1710   83.3450   18.0500 C   0  0  0  0  0  0  0  0  0  0  0  0
   19.9680   84.6070   18.6100 C   0  0  0  0  0  0  0  0  0  0  0  0
   19.5400   84.7180   19.8970 C   0  0  0  0  0  0  0  0  0  0  0  0
   20.1780   80.8750   18.1740 C   0  0  0  0  0  0  0  0  0  0  0  0
   19.2320   79.9770   18.0630 C   0  0  0  0  0  0  0  0  0  0  0  0
   21.5000   80.5460   17.6950 N   0  0  0  0  0  0  0  0  0  0  0  0
   22.0480   81.3390   16.6860 N   0  0  0  0  0  0  0  0  0  0  0  0
   22.9750   80.8290   15.7480 C   0  0  0  0  0  0  0  0  0  0  0  0
   24.0680   80.3760   16.1590 O   0  0  0  0  0  0  0  0  0  0  0  0
   22.7120   80.8060   14.3210 C   0  0  0  0  0  0  0  0  0  0  0  0
   23.3170   81.6030   13.4320 N   0  0  0  0  0  0  0  0  0  0  0  0
   22.8170   81.3040   12.2600 N   0  0  0  0  0  0  0  0  0  0  0  0
   21.9090   80.3380   12.3740 N   0  0  0  0  0  0  0  0  0  0  0  0
   21.7980   79.9820   13.6450 C   0  0  0  0  0  0  0  0  0  0  0  0
   21.0130   78.9760   14.3220 C   0  0  0  0  0  0  0  0  0  0  0  0
   21.5220   77.6190   14.2700 N   0  0  0  0  0  0  0  0  0  0  0  0
   22.1740   77.2630   15.5260 C   0  0  0  0  0  0  0  0  0  0  0  0
   21.3300   77.6330   16.7250 C   0  0  0  0  0  0  0  0  0  0  0  0
   19.9710   76.9620   16.6280 C   0  0  0  0  0  0  0  0  0  0  0  0
   19.8790   76.1120   15.3930 C   0  0  0  0  0  0  0  0  0  0  0  0
   20.4050   76.6880   14.1390 C   0  0  0  0  0  0  0  0  0  0  0  0
   21.2130   79.7830   11.2750 C   0  0  0  0  0  0  0  0  0  0  0  0
   19.9090   79.3960   11.3420 N   0  0  0  0  0  0  0  0  0  0  0  0
   19.5780   78.9320   10.1790 O   0  0  0  0  0  0  0  0  0  0  0  0
   20.5620   78.9810    9.3550 N   0  0  0  0  0  0  0  0  0  0  0  0
   21.6120   79.5090   10.0000 C   0  0  0  0  0  0  0  0  0  0  0  0
   22.8950   79.7500    9.4870 N   0  0  0  0  0  0  0  0  0  0  0  0
   19.3310   81.4250   20.6520 H   0  0  0  0  0  0  0  0  0  0  0  0
   20.5150   83.2980   17.0170 H   0  0  0  0  0  0  0  0  0  0  0  0
   20.1530   85.5080   18.0230 H   0  0  0  0  0  0  0  0  0  0  0  0
   19.3860   85.6800   20.3250 H   0  0  0  0  0  0  0  0  0  0  0  0
   18.2220   80.1310   18.3780 H   0  0  0  0  0  0  0  0  0  0  0  0
   19.4330   78.9930   17.6290 H   0  0  0  0  0  0  0  0  0  0  0  0
   21.9640   79.7350   18.1370 H   0  0  0  0  0  0  0  0  0  0  0  0
   21.7250   82.3440   16.6710 H   0  0  0  0  0  0  0  0  0  0  0  0
   20.8540   79.1870   15.4170 H   0  0  0  0  0  0  0  0  0  0  0  0
   19.9800   78.9320   13.8950 H   0  0  0  0  0  0  0  0  0  0  0  0
   23.1430   77.7830   15.5880 H   0  0  0  0  0  0  0  0  0  0  0  0
   22.3500   76.1810   15.5030 H   0  0  0  0  0  0  0  0  0  0  0  0
   21.1580   78.7180   16.8090 H   0  0  0  0  0  0  0  0  0  0  0  0
   21.8750   77.2750   17.6140 H   0  0  0  0  0  0  0  0  0  0  0  0
   19.8980   76.2630   17.4920 H   0  0  0  0  0  0  0  0  0  0  0  0
   19.1400   77.6770   16.7670 H   0  0  0  0  0  0  0  0  0  0  0  0
   20.4960   75.1880   15.6070 H   0  0  0  0  0  0  0  0  0  0  0  0
   18.8460   75.7430   15.3270 H   0  0  0  0  0  0  0  0  0  0  0  0
   19.5690   77.2690   13.6600 H   0  0  0  0  0  0  0  0  0  0  0  0
   20.7020   75.9130   13.3970 H   0  0  0  0  0  0  0  0  0  0  0  0
   23.7970   79.4630    9.9280 H   0  0  0  0  0  0  0  0  0  0  0  0
   22.9840   80.2620    8.5830 H   0  0  0  0  0  0  0  0  0  0  0  0
  2  1  1  0  0  0  0
  3  2  1  0  0  0  0
  3 32  1  0  0  0  0
  4  3  2  0  0  0  0
  5  6  2  0  0  0  0
  5  4  1  0  0  0  0
  6  7  1  0  0  0  0
  7 35  1  0  0  0  0
  7  2  2  0  0  0  0
  8  4  1  0  0  0  0
  9  8  2  0  0  0  0
  9 36  1  0  0  0  0
 10 38  1  0  0  0  0
 10  8  1  0  0  0  0
 11 10  1  0  0  0  0
 12 13  2  0  0  0  0
 12 11  1  0  0  0  0
 14 12  1  0  0  0  0
 15 14  1  0  0  0  0
 16 17  1  0  0  0  0
 16 15  2  0  0  0  0
 17 18  1  0  0  0  0
 18 14  2  0  0  0  0
 18 19  1  0  0  0  0
 19 40  1  0  0  0  0
 20 19  1  0  0  0  0
 20 21  1  0  0  0  0
 21 42  1  0  0  0  0
 21 22  1  0  0  0  0
 22 44  1  0  0  0  0
 22 45  1  0  0  0  0
 23 22  1  0  0  0  0
 23 47  1  0  0  0  0
 23 46  1  0  0  0  0
 24 48  1  0  0  0  0
 24 23  1  0  0  0  0
 25 20  1  0  0  0  0
 25 24  1  0  0  0  0
 26 27  2  0  0  0  0
 26 17  1  0  0  0  0
 28 27  1  0  0  0  0
 29 30  2  0  0  0  0
 29 28  1  0  0  0  0
 30 26  1  0  0  0  0
 31 52  1  0  0  0  0
 31 30  1  0  0  0  0
 33  5  1  0  0  0  0
 34  6  1  0  0  0  0
 37  9  1  0  0  0  0
 39 11  1  0  0  0  0
 41 19  1  0  0  0  0
 43 21  1  0  0  0  0
 49 24  1  0  0  0  0
 50 25  1  0  0  0  0
 51 25  1  0  0  0  0
 53 31  1  0  0  0  0
M  END
>  <Pose>
1

>  <Score>
-7.95

$$$$
