
 OpenBabel03222202113D

 48 51  0  0  1  0  0  0  0  0999 V2000
   19.6510   84.6410   19.1270 B   0  0  0  0  0  0  0  0  0  0  0  0
   20.0830   83.0850   20.1540 C   0  0  0  0  0  0  0  0  0  0  0  0
   19.8070   81.8390   19.6630 C   0  0  0  0  0  0  0  0  0  0  0  0
   20.1180   80.7040   20.4020 C   0  0  0  0  0  0  0  0  0  0  0  0
   20.6980   80.8710   21.6200 C   0  0  0  0  0  0  0  0  0  0  0  0
   20.9730   82.1380   22.1090 C   0  0  0  0  0  0  0  0  0  0  0  0
   20.6660   83.2590   21.3760 C   0  0  0  0  0  0  0  0  0  0  0  0
   19.8180   79.3820   19.8780 C   0  0  0  0  0  0  0  0  0  0  0  0
   18.6730   78.8630   20.1490 O   0  0  0  0  0  0  0  0  0  0  0  0
   20.7370   78.6600   19.0900 N   0  0  0  0  0  0  0  0  0  0  0  0
   20.6340   78.7950   17.6480 C   0  0  2  0  0  0  0  0  0  0  0  0
   19.9880   77.5750   17.0200 C   0  0  0  0  0  0  0  0  0  0  0  0
   20.4940   77.6050   15.6610 N   0  0  0  0  0  0  0  0  0  0  0  0
   21.5260   78.6100   15.5130 C   0  0  1  0  0  0  0  0  0  0  0  0
   21.9730   78.8150   16.9670 C   0  0  0  0  0  0  0  0  0  0  0  0
   22.6000   78.0570   14.6890 C   0  0  0  0  0  0  0  0  0  0  0  0
   23.7800   78.0660   15.0700 O   0  0  0  0  0  0  0  0  0  0  0  0
   22.2520   77.5050   13.4300 N   0  0  0  0  0  0  0  0  0  0  0  0
   20.9240   76.9700   13.2300 C   0  0  1  0  0  0  0  0  0  0  0  0
   20.1600   76.8440   14.4910 C   0  0  0  0  0  0  0  0  0  0  0  0
   19.1860   76.0480   14.5540 O   0  0  0  0  0  0  0  0  0  0  0  0
   20.1490   77.7210   12.1680 C   0  0  0  0  0  0  0  0  0  0  0  0
   20.9750   78.6770   11.4130 C   0  0  0  0  0  0  0  0  0  0  0  0
   21.1700   79.9550   11.9030 C   0  0  0  0  0  0  0  0  0  0  0  0
   21.9400   80.8550   11.2030 C   0  0  0  0  0  0  0  0  0  0  0  0
   22.5470   80.5410   10.0020 C   0  0  0  0  0  0  0  0  0  0  0  0
   22.3550   79.2670    9.5100 C   0  0  0  0  0  0  0  0  0  0  0  0
   21.5840   78.3510   10.1990 C   0  0  0  0  0  0  0  0  0  0  0  0
   19.3410   81.6740   18.6880 H   0  0  0  0  0  0  0  0  0  0  0  0
   20.9510   79.9970   22.2260 H   0  0  0  0  0  0  0  0  0  0  0  0
   21.4330   82.2720   23.0740 H   0  0  0  0  0  0  0  0  0  0  0  0
   20.8700   84.2690   21.7350 H   0  0  0  0  0  0  0  0  0  0  0  0
   21.4480   78.0700   19.5430 H   0  0  0  0  0  0  0  0  0  0  0  0
   20.0540   79.6640   17.3430 H   0  0  0  0  0  0  0  0  0  0  0  0
   20.3100   76.6290   17.5070 H   0  0  0  0  0  0  0  0  0  0  0  0
   18.8780   77.6390   17.0420 H   0  0  0  0  0  0  0  0  0  0  0  0
   21.1430   79.5650   15.0970 H   0  0  0  0  0  0  0  0  0  0  0  0
   22.4700   79.7970   16.9900 H   0  0  0  0  0  0  0  0  0  0  0  0
   22.6170   77.9680   17.2300 H   0  0  0  0  0  0  0  0  0  0  0  0
   22.9220   77.4660   12.6280 H   0  0  0  0  0  0  0  0  0  0  0  0
   21.0870   75.9380   12.7950 H   0  0  0  0  0  0  0  0  0  0  0  0
   19.6770   76.9800   11.4950 H   0  0  0  0  0  0  0  0  0  0  0  0
   19.3610   78.2900   12.6860 H   0  0  0  0  0  0  0  0  0  0  0  0
   20.7370   80.3000   12.8360 H   0  0  0  0  0  0  0  0  0  0  0  0
   22.0960   81.8560   11.5810 H   0  0  0  0  0  0  0  0  0  0  0  0
   23.1520   81.2840    9.4760 H   0  0  0  0  0  0  0  0  0  0  0  0
   22.8340   79.0190    8.5610 H   0  0  0  0  0  0  0  0  0  0  0  0
   21.4530   77.3590    9.7840 H   0  0  0  0  0  0  0  0  0  0  0  0
  1  2  1  0  0  0  0
  2  7  1  0  0  0  0
  3  2  2  0  0  0  0
  3  4  1  0  0  0  0
  4  5  2  0  0  0  0
  5  6  1  0  0  0  0
  5 30  1  0  0  0  0
  6 31  1  0  0  0  0
  7 32  1  0  0  0  0
  7  6  2  0  0  0  0
  8  9  2  0  0  0  0
  8  4  1  0  0  0  0
 10 33  1  0  0  0  0
 10  8  1  0  0  0  0
 11 34  1  6  0  0  0
 11 10  1  0  0  0  0
 12 36  1  0  0  0  0
 12 35  1  0  0  0  0
 12 11  1  0  0  0  0
 13 12  1  0  0  0  0
 14 37  1  6  0  0  0
 14 13  1  0  0  0  0
 14 15  1  0  0  0  0
 15 38  1  0  0  0  0
 15 39  1  0  0  0  0
 15 11  1  0  0  0  0
 16 17  2  0  0  0  0
 16 14  1  0  0  0  0
 18 16  1  0  0  0  0
 19 41  1  6  0  0  0
 19 18  1  0  0  0  0
 19 20  1  0  0  0  0
 20 21  2  0  0  0  0
 20 13  1  0  0  0  0
 22 43  1  0  0  0  0
 22 19  1  0  0  0  0
 23 24  1  0  0  0  0
 23 22  1  0  0  0  0
 24 44  1  0  0  0  0
 25 45  1  0  0  0  0
 25 24  2  0  0  0  0
 26 25  1  0  0  0  0
 27 26  2  0  0  0  0
 27 28  1  0  0  0  0
 28 23  2  0  0  0  0
 29  3  1  0  0  0  0
 40 18  1  0  0  0  0
 42 22  1  0  0  0  0
 46 26  1  0  0  0  0
 47 27  1  0  0  0  0
 48 28  1  0  0  0  0
M  END
>  <Pose>
1

>  <Score>
-5.74

$$$$
