
 OpenBabel03222202113D

 60 63  0  0  1  0  0  0  0  0999 V2000
   20.1350   78.2800    9.5710 B   0  0  0  0  0  0  0  0  0  0  0  0
   19.4770   76.5570   10.0670 C   0  0  0  0  0  0  0  0  0  0  0  0
   19.3120   76.2450   11.3810 C   0  0  0  0  0  0  0  0  0  0  0  0
   18.8320   74.9880   11.7610 C   0  0  0  0  0  0  0  0  0  0  0  0
   18.5360   74.0830   10.7640 C   0  0  0  0  0  0  0  0  0  0  0  0
   18.7040   74.4020    9.4220 C   0  0  0  0  0  0  0  0  0  0  0  0
   19.1780   75.6470    9.0820 C   0  0  0  0  0  0  0  0  0  0  0  0
   18.6800   74.7180   13.1970 C   0  0  1  0  0  0  0  0  0  0  0  0
   18.9640   73.3510   13.5890 N   0  0  0  0  0  0  0  0  0  0  0  0
   20.3960   73.2120   13.7100 C   0  0  0  0  0  0  0  0  0  0  0  0
   21.0690   72.1780   13.6200 O   0  0  0  0  0  0  0  0  0  0  0  0
   20.8780   74.5670   13.9630 C   0  0  0  0  0  0  0  0  0  0  0  0
   22.0700   74.9600   14.1350 O   0  0  0  0  0  0  0  0  0  0  0  0
   19.7300   75.4580   13.9870 C   0  0  0  0  0  0  0  0  0  0  0  0
   19.6300   76.6600   14.5290 C   0  0  0  0  0  0  0  0  0  0  0  0
   18.4020   77.3600   14.3580 O   0  0  0  0  0  0  0  0  0  0  0  0
   20.7120   77.2490   15.2780 C   0  0  0  0  0  0  0  0  0  0  0  0
   21.8250   77.8530   14.8090 N   0  0  0  0  0  0  0  0  0  0  0  0
   22.5530   78.2910   15.8660 C   0  0  0  0  0  0  0  0  0  0  0  0
   21.9080   77.9680   17.0210 N   0  0  0  0  0  0  0  0  0  0  0  0
   20.7770   77.3260   16.6460 C   0  0  0  0  0  0  0  0  0  0  0  0
   19.7660   76.7920   17.6000 C   0  0  0  0  0  0  0  0  0  0  0  0
   23.7550   78.9420   15.7660 C   0  0  0  0  0  0  0  0  0  0  0  0
   24.2580   79.1640   14.5030 C   0  0  0  0  0  0  0  0  0  0  0  0
   23.5210   78.7190   13.4240 C   0  0  0  0  0  0  0  0  0  0  0  0
   22.3240   78.0740   13.5810 C   0  0  0  0  0  0  0  0  0  0  0  0
   24.5130   79.4040   16.9640 C   0  0  0  0  0  0  0  0  0  0  0  0
   17.9940   72.2930   13.8170 C   0  0  0  0  0  0  0  0  0  0  0  0
   17.8030   71.3760   12.6580 C   0  0  0  0  0  0  0  0  0  0  0  0
   16.3750   71.2320   12.1950 C   0  0  0  0  0  0  0  0  0  0  0  0
   16.0650   69.8350   11.9980 N   0  0  0  0  0  4  0  0  0  0  0  0
   15.1250   69.3770   13.0050 C   0  0  0  0  0  0  0  0  0  0  0  0
   15.4020   69.6890   10.7170 C   0  0  0  0  0  0  0  0  0  0  0  0
   19.5650   77.0050   12.1200 H   0  0  0  0  0  0  0  0  0  0  0  0
   18.1600   73.0870   11.0220 H   0  0  0  0  0  0  0  0  0  0  0  0
   18.4660   73.6760    8.6420 H   0  0  0  0  0  0  0  0  0  0  0  0
   19.3150   75.9080    8.0350 H   0  0  0  0  0  0  0  0  0  0  0  0
   17.6650   75.0340   13.5200 H   0  0  0  0  0  0  0  0  0  0  0  0
   19.7220   75.6930   17.5490 H   0  0  0  0  0  0  0  0  0  0  0  0
   18.7620   77.2100   17.3910 H   0  0  0  0  0  0  0  0  0  0  0  0
   20.0180   77.0610   18.6360 H   0  0  0  0  0  0  0  0  0  0  0  0
   25.2150   79.6810   14.3720 H   0  0  0  0  0  0  0  0  0  0  0  0
   23.9310   78.9010   12.4110 H   0  0  0  0  0  0  0  0  0  0  0  0
   21.7530   77.7250   12.7260 H   0  0  0  0  0  0  0  0  0  0  0  0
   24.0050   79.0680   17.8790 H   0  0  0  0  0  0  0  0  0  0  0  0
   24.6480   80.5130   16.9370 H   0  0  0  0  0  0  0  0  0  0  0  0
   25.5020   78.8760   16.9140 H   0  0  0  0  0  0  0  0  0  0  0  0
   17.0250   72.7850   14.0300 H   0  0  0  0  0  0  0  0  0  0  0  0
   18.2480   71.7090   14.7240 H   0  0  0  0  0  0  0  0  0  0  0  0
   18.2240   70.3590   12.8500 H   0  0  0  0  0  0  0  0  0  0  0  0
   18.3760   71.7590   11.7850 H   0  0  0  0  0  0  0  0  0  0  0  0
   15.6500   71.6140   12.9420 H   0  0  0  0  0  0  0  0  0  0  0  0
   16.2110   71.7640   11.2550 H   0  0  0  0  0  0  0  0  0  0  0  0
   16.9180   69.2370   11.9550 H   0  0  0  0  0  0  0  0  0  0  0  0
   14.5200   68.5110   12.6130 H   0  0  0  0  0  0  0  0  0  0  0  0
   14.3650   70.2050   13.1060 H   0  0  0  0  0  0  0  0  0  0  0  0
   15.5820   69.1650   13.9740 H   0  0  0  0  0  0  0  0  0  0  0  0
   15.1730   68.6120   10.5080 H   0  0  0  0  0  0  0  0  0  0  0  0
   15.9880   70.1440    9.8910 H   0  0  0  0  0  0  0  0  0  0  0  0
   14.4360   70.2290   10.7870 H   0  0  0  0  0  0  0  0  0  0  0  0
  1  2  1  0  0  0  0
  2  3  1  0  0  0  0
  3  4  2  0  0  0  0
  3 34  1  0  0  0  0
  4  8  1  0  0  0  0
  5 35  1  0  0  0  0
  5  4  1  0  0  0  0
  6  5  2  0  0  0  0
  7  6  1  0  0  0  0
  7  2  2  0  0  0  0
  8 38  1  1  0  0  0
  8  9  1  0  0  0  0
  8 14  1  0  0  0  0
  9 10  1  0  0  0  0
  9 28  1  0  0  0  0
 10 12  1  0  0  0  0
 11 10  2  0  0  0  0
 12 14  1  0  0  0  0
 12 13  2  0  0  0  0
 14 15  2  0  0  0  0
 15 17  1  0  0  0  0
 16 15  1  0  0  0  0
 17 21  2  0  0  0  0
 18 17  1  0  0  0  0
 18 19  1  0  0  0  0
 19 20  2  0  0  0  0
 21 20  1  0  0  0  0
 21 22  1  0  0  0  0
 22 41  1  0  0  0  0
 23 19  1  0  0  0  0
 23 27  1  0  0  0  0
 24 23  2  0  0  0  0
 25 26  2  0  0  0  0
 25 24  1  0  0  0  0
 26 18  1  0  0  0  0
 27 45  1  0  0  0  0
 28 48  1  0  0  0  0
 28 49  1  0  0  0  0
 29 50  1  0  0  0  0
 29 28  1  0  0  0  0
 30 29  1  0  0  0  0
 30 52  1  0  0  0  0
 31 30  1  0  0  0  0
 31 32  1  0  0  0  0
 32 56  1  0  0  0  0
 32 57  1  0  0  0  0
 33 60  1  0  0  0  0
 33 31  1  0  0  0  0
 36  6  1  0  0  0  0
 37  7  1  0  0  0  0
 39 22  1  0  0  0  0
 40 22  1  0  0  0  0
 42 24  1  0  0  0  0
 43 25  1  0  0  0  0
 44 26  1  0  0  0  0
 46 27  1  0  0  0  0
 47 27  1  0  0  0  0
 51 29  1  0  0  0  0
 53 30  1  0  0  0  0
 54 31  1  0  0  0  0
 55 32  1  0  0  0  0
 58 33  1  0  0  0  0
 59 33  1  0  0  0  0
M  END
>  <Pose>
1

>  <Score>
-4.39

$$$$
