
 OpenBabel03222202113D

 51 53  0  0  0  0  0  0  0  0999 V2000
   19.2120   75.6310    8.5360 B   0  0  0  0  0  0  0  0  0  0  0  0
   18.9650   75.1960   10.3780 C   0  0  0  0  0  0  0  0  0  0  0  0
   18.1970   74.0930   10.6920 C   0  0  0  0  0  0  0  0  0  0  0  0
   18.0250   73.7870   12.0190 C   0  0  0  0  0  0  0  0  0  0  0  0
   18.6020   74.5580   13.0110 C   0  0  0  0  0  0  0  0  0  0  0  0
   19.3590   75.6460   12.7050 C   0  0  0  0  0  0  0  0  0  0  0  0
   19.5370   75.9600   11.3760 C   0  0  0  0  0  0  0  0  0  0  0  0
   19.9720   76.4670   13.7600 C   0  0  0  0  0  0  0  0  0  0  0  0
   20.7780   75.9660   14.6130 N   0  0  0  0  0  0  0  0  0  0  0  0
   21.3780   76.7670   15.6420 N   0  0  0  0  0  0  0  0  0  0  0  0
   20.5200   77.6540   16.3300 C   0  0  0  0  0  0  0  0  0  0  0  0
   19.3740   77.1420   16.6290 O   0  0  0  0  0  0  0  0  0  0  0  0
   20.8080   79.0320   16.7090 C   0  0  0  0  0  0  0  0  0  0  0  0
   20.7330   79.4220   18.0220 N   0  0  0  0  0  0  0  0  0  0  0  0
   21.0460   80.7010   18.0280 N   0  0  0  0  0  0  0  0  0  0  0  0
   21.3070   81.1390   16.8410 N   0  0  0  0  0  0  0  0  0  0  0  0
   21.1710   80.1140   15.9530 C   0  0  0  0  0  0  0  0  0  0  0  0
   21.3760   80.1360   14.5060 C   0  0  0  0  0  0  0  0  0  0  0  0
   22.7720   80.2020   14.1040 N   0  0  0  0  0  0  0  0  0  0  0  0
   23.2390   78.8840   13.6930 C   0  0  0  0  0  0  0  0  0  0  0  0
   23.0610   78.6620   12.2180 C   0  0  0  0  0  0  0  0  0  0  0  0
   22.0920   79.4610   11.6400 O   0  0  0  0  0  0  0  0  0  0  0  0
   22.3100   80.8230   11.7810 C   0  0  0  0  0  0  0  0  0  0  0  0
   23.0210   81.1680   13.0620 C   0  0  0  0  0  0  0  0  0  0  0  0
   20.3920   78.6180   19.1320 C   0  0  0  0  0  0  0  0  0  0  0  0
   20.9180   77.4360   19.5390 N   0  0  0  0  0  0  0  0  0  0  0  0
   20.3080   77.0510   20.6020 O   0  0  0  0  0  0  0  0  0  0  0  0
   19.3880   77.8840   20.9720 N   0  0  0  0  0  0  0  0  0  0  0  0
   19.4070   78.8950   20.0620 C   0  0  0  0  0  0  0  0  0  0  0  0
   18.5480   80.0220   20.1030 N   0  0  0  0  0  0  0  0  0  0  0  0
   16.9570   72.2510   12.4630 B   0  0  0  0  0  0  0  0  0  0  0  0
   17.6020   73.2950    9.7250 O   0  0  0  0  0  0  0  0  0  0  0  0
   19.7750   82.9110   19.8350 Cl  0  0  0  0  0  0  0  0  0  0  0  0
   18.4510   74.2970   14.0530 H   0  0  0  0  0  0  0  0  0  0  0  0
   20.1370   76.8220   11.1380 H   0  0  0  0  0  0  0  0  0  0  0  0
   19.7410   77.5010   13.8140 H   0  0  0  0  0  0  0  0  0  0  0  0
   22.4000   76.6440   15.8150 H   0  0  0  0  0  0  0  0  0  0  0  0
   20.9830   79.2360   13.9890 H   0  0  0  0  0  0  0  0  0  0  0  0
   20.9130   81.0210   14.0170 H   0  0  0  0  0  0  0  0  0  0  0  0
   24.3170   78.8270   13.9300 H   0  0  0  0  0  0  0  0  0  0  0  0
   22.7170   78.1470   14.3320 H   0  0  0  0  0  0  0  0  0  0  0  0
   22.7270   77.6120   12.0850 H   0  0  0  0  0  0  0  0  0  0  0  0
   24.0300   78.7350   11.6620 H   0  0  0  0  0  0  0  0  0  0  0  0
   21.3070   81.3130   11.8230 H   0  0  0  0  0  0  0  0  0  0  0  0
   22.8100   81.2030   10.8790 H   0  0  0  0  0  0  0  0  0  0  0  0
   22.9130   82.1940   13.4040 H   0  0  0  0  0  0  0  0  0  0  0  0
   24.1230   81.0530   12.8270 H   0  0  0  0  0  0  0  0  0  0  0  0
   17.5250   79.8570   20.0520 H   0  0  0  0  0  0  0  0  0  0  0  0
   18.8800   81.0010   20.1810 H   0  0  0  0  0  0  0  0  0  0  0  0
   17.0470   73.6620    8.9720 H   0  0  0  0  0  0  0  0  0  0  0  0
   19.8550   83.1820   21.1820 H   0  0  0  0  0  0  0  0  0  0  0  0
  1  2  1  0  0  0  0
  2  3  2  0  0  0  0
  2  7  1  0  0  0  0
  3  4  1  0  0  0  0
  4 31  1  0  0  0  0
  4  5  2  0  0  0  0
  5 34  1  0  0  0  0
  6  5  1  0  0  0  0
  6  8  1  0  0  0  0
  7  6  2  0  0  0  0
  8 36  1  0  0  0  0
  8  9  2  0  0  0  0
  9 10  1  0  0  0  0
 10 37  1  0  0  0  0
 10 11  1  0  0  0  0
 11 12  2  0  0  0  0
 11 13  1  0  0  0  0
 13 14  1  0  0  0  0
 14 15  1  0  0  0  0
 14 25  1  0  0  0  0
 16 15  2  0  0  0  0
 17 13  2  0  0  0  0
 17 16  1  0  0  0  0
 18 17  1  0  0  0  0
 19 18  1  0  0  0  0
 20 40  1  0  0  0  0
 20 19  1  0  0  0  0
 20 41  1  0  0  0  0
 21 20  1  0  0  0  0
 22 23  1  0  0  0  0
 22 21  1  0  0  0  0
 23 44  1  0  0  0  0
 23 24  1  0  0  0  0
 24 46  1  0  0  0  0
 24 19  1  0  0  0  0
 25 26  2  0  0  0  0
 25 29  1  0  0  0  0
 26 27  1  0  0  0  0
 27 28  1  0  0  0  0
 29 30  1  0  0  0  0
 29 28  2  0  0  0  0
 30 49  1  0  0  0  0
 32  3  1  0  0  0  0
 33 51  1  0  0  0  0
 35  7  1  0  0  0  0
 38 18  1  0  0  0  0
 39 18  1  0  0  0  0
 42 21  1  0  0  0  0
 43 21  1  0  0  0  0
 45 23  1  0  0  0  0
 47 24  1  0  0  0  0
 48 30  1  0  0  0  0
 50 32  1  0  0  0  0
M  END
>  <Pose>
1

>  <Score>
-9.28

$$$$
