
 OpenBabel03222202113D

 31 34  0  0  1  0  0  0  0  0999 V2000
   21.0590   76.9720   14.4730 B   0  0  0  0  0  0  0  0  0  0  0  0
   21.8060   78.5690   13.7240 C   0  0  0  0  0  0  0  0  0  0  0  0
   22.2650   79.5130   14.6140 C   0  0  0  0  0  0  0  0  0  0  0  0
   22.8060   80.6740   14.0610 C   0  0  0  0  0  0  0  0  0  0  0  0
   22.8660   80.8430   12.6970 C   0  0  0  0  0  0  0  0  0  0  0  0
   22.4040   79.8920   11.8020 C   0  0  0  0  0  0  0  0  0  0  0  0
   21.8670   78.7410   12.3430 C   0  0  0  0  0  0  0  0  0  0  0  0
   22.4820   80.0950   10.3970 N   0  0  0  0  0  0  0  0  0  0  0  0
   21.7100   80.9200    9.8770 O   0  0  0  0  0  0  0  0  0  0  0  0
   23.3540   79.4400    9.5710 O   0  0  0  0  0  0  0  0  0  0  0  0
   22.1970   79.3090   16.0170 N   0  0  0  0  0  0  0  0  0  0  0  0
   22.6020   78.2130   16.8150 C   0  0  0  0  0  0  0  0  0  0  0  0
   23.4080   77.3150   16.4920 O   0  0  0  0  0  0  0  0  0  0  0  0
   21.9320   78.2560   18.1320 C   0  0  2  0  0  0  0  0  0  0  0  0
   20.7120   77.3660   18.0280 C   0  0  2  0  0  0  0  0  0  0  0  0
   19.8730   78.1960   17.2370 O   0  0  0  0  0  0  0  0  0  0  0  0
   19.8260   79.2820   18.1510 C   0  0  2  0  0  0  0  0  0  0  0  0
   21.2870   79.6370   18.2080 C   0  0  2  0  0  0  0  0  0  0  0  0
   21.6570   80.2740   16.9240 C   0  0  0  0  0  0  0  0  0  0  0  0
   21.5170   81.5110   16.6550 O   0  0  0  0  0  0  0  0  0  0  0  0
   19.3720   78.5690   19.3630 C   0  0  0  0  0  0  0  0  0  0  0  0
   19.9530   77.3740   19.3040 C   0  0  0  0  0  0  0  0  0  0  0  0
   23.1760   81.4400   14.7380 H   0  0  0  0  0  0  0  0  0  0  0  0
   23.2900   81.7520   12.2580 H   0  0  0  0  0  0  0  0  0  0  0  0
   21.4920   77.9680   11.7060 H   0  0  0  0  0  0  0  0  0  0  0  0
   22.5770   78.0360   18.9750 H   0  0  0  0  0  0  0  0  0  0  0  0
   20.8960   76.3970   17.5900 H   0  0  0  0  0  0  0  0  0  0  0  0
   19.1720   80.0790   17.8100 H   0  0  0  0  0  0  0  0  0  0  0  0
   21.6010   80.1960   19.0840 H   0  0  0  0  0  0  0  0  0  0  0  0
   18.7100   78.9550   20.1240 H   0  0  0  0  0  0  0  0  0  0  0  0
   19.8970   76.5580   20.0250 H   0  0  0  0  0  0  0  0  0  0  0  0
  2  1  1  0  0  0  0
  2  3  1  0  0  0  0
  3 11  1  0  0  0  0
  4  3  2  0  0  0  0
  4 23  1  0  0  0  0
  5  4  1  0  0  0  0
  6  7  1  0  0  0  0
  6  5  2  0  0  0  0
  7  2  2  0  0  0  0
  8  6  1  0  0  0  0
  9  8  2  0  0  0  0
 10  8  2  0  0  0  0
 11 12  1  0  0  0  0
 11 19  1  0  0  0  0
 12 14  1  0  0  0  0
 13 12  2  0  0  0  0
 14 18  1  0  0  0  0
 14 26  1  1  0  0  0
 15 27  1  6  0  0  0
 15 14  1  0  0  0  0
 15 22  1  0  0  0  0
 16 15  1  0  0  0  0
 16 17  1  0  0  0  0
 17 28  1  6  0  0  0
 17 18  1  0  0  0  0
 17 21  1  0  0  0  0
 18 29  1  1  0  0  0
 19 18  1  0  0  0  0
 20 19  2  0  0  0  0
 21 30  1  0  0  0  0
 22 21  2  0  0  0  0
 22 31  1  0  0  0  0
 24  5  1  0  0  0  0
 25  7  1  0  0  0  0
M  END
>  <Pose>
1

>  <Score>
-5.55

$$$$
