
 OpenBabel03222202113D

 39 42  0  0  1  0  0  0  0  0999 V2000
   23.2670   79.4210    9.1650 B   0  0  0  0  0  0  0  0  0  0  0  0
   21.9760   78.9380   10.4760 C   0  0  0  0  0  0  0  0  0  0  0  0
   20.7130   78.5890   10.0570 C   0  0  0  0  0  0  0  0  0  0  0  0
   19.7990   78.2450   11.0260 C   0  0  0  0  0  0  0  0  0  0  0  0
   20.1560   78.2520   12.3790 C   0  0  0  0  0  0  0  0  0  0  0  0
   21.4190   78.5980   12.8150 C   0  0  0  0  0  0  0  0  0  0  0  0
   22.3260   78.9440   11.8280 C   0  0  0  0  0  0  0  0  0  0  0  0
   21.7830   78.6070   14.1880 N   0  0  0  0  0  0  0  0  0  0  0  0
   22.0960   77.4550   14.9620 C   0  0  0  0  0  0  0  0  0  0  0  0
   21.6750   76.2900   14.7960 O   0  0  0  0  0  0  0  0  0  0  0  0
   23.0400   77.8340   16.0570 C   0  0  1  0  0  0  0  0  0  0  0  0
   24.4650   77.7750   15.6150 C   0  0  1  0  0  0  0  0  0  0  0  0
   24.6200   78.9730   14.8740 O   0  0  0  0  0  0  0  0  0  0  0  0
   24.2190   79.8490   15.9130 C   0  0  1  0  0  0  0  0  0  0  0  0
   22.8410   79.3420   16.1860 C   0  0  1  0  0  0  0  0  0  0  0  0
   21.9260   79.7060   15.0790 C   0  0  0  0  0  0  0  0  0  0  0  0
   21.3660   80.8150   14.9490 O   0  0  0  0  0  0  0  0  0  0  0  0
   25.1670   79.4040   16.9790 C   0  0  0  0  0  0  0  0  0  0  0  0
   25.3340   78.0840   16.7820 C   0  0  0  0  0  0  0  0  0  0  0  0
   24.3260   81.2690   15.5490 C   0  0  0  0  0  0  0  0  0  0  0  0
   24.8550   76.5690   14.8640 C   0  0  0  0  0  0  0  0  0  0  0  0
   25.1580   75.5020   15.7070 O   0  0  0  0  0  0  0  0  0  0  0  0
   20.3290   78.5780    8.6150 C   0  0  0  0  0  0  0  0  0  0  0  0
   18.7890   77.9630   10.7420 H   0  0  0  0  0  0  0  0  0  0  0  0
   19.4080   77.9710   13.1100 H   0  0  0  0  0  0  0  0  0  0  0  0
   23.3360   79.2210   12.1290 H   0  0  0  0  0  0  0  0  0  0  0  0
   22.8180   77.3010   16.9820 H   0  0  0  0  0  0  0  0  0  0  0  0
   22.4330   79.6190   17.1770 H   0  0  0  0  0  0  0  0  0  0  0  0
   25.5930   80.0400   17.7170 H   0  0  0  0  0  0  0  0  0  0  0  0
   25.9700   77.4310   17.3650 H   0  0  0  0  0  0  0  0  0  0  0  0
   23.4740   81.9120   15.8270 H   0  0  0  0  0  0  0  0  0  0  0  0
   25.2330   81.7130   16.0160 H   0  0  0  0  0  0  0  0  0  0  0  0
   24.4780   81.3820   14.4370 H   0  0  0  0  0  0  0  0  0  0  0  0
   25.7550   76.7730   14.2590 H   0  0  0  0  0  0  0  0  0  0  0  0
   24.0220   76.2150   14.2240 H   0  0  0  0  0  0  0  0  0  0  0  0
   24.6840   74.6610   15.4570 H   0  0  0  0  0  0  0  0  0  0  0  0
   21.0110   79.2870    8.1080 H   0  0  0  0  0  0  0  0  0  0  0  0
   20.5370   77.5830    8.1480 H   0  0  0  0  0  0  0  0  0  0  0  0
   19.2730   78.7940    8.4590 H   0  0  0  0  0  0  0  0  0  0  0  0
  1  2  1  0  0  0  0
  2  7  1  0  0  0  0
  3  2  2  0  0  0  0
  3  4  1  0  0  0  0
  4  5  2  0  0  0  0
  5  6  1  0  0  0  0
  5 25  1  0  0  0  0
  6  8  1  0  0  0  0
  7 26  1  0  0  0  0
  7  6  2  0  0  0  0
  8  9  1  0  0  0  0
  8 16  1  0  0  0  0
  9 11  1  0  0  0  0
 10  9  2  0  0  0  0
 11 15  1  0  0  0  0
 11 27  1  1  0  0  0
 12 21  1  6  0  0  0
 12 11  1  0  0  0  0
 12 19  1  0  0  0  0
 13 12  1  0  0  0  0
 13 14  1  0  0  0  0
 14 20  1  6  0  0  0
 14 15  1  0  0  0  0
 14 18  1  0  0  0  0
 15 28  1  1  0  0  0
 16 15  1  0  0  0  0
 17 16  2  0  0  0  0
 18 29  1  0  0  0  0
 19 18  2  0  0  0  0
 19 30  1  0  0  0  0
 20 31  1  0  0  0  0
 20 32  1  0  0  0  0
 21 22  1  0  0  0  0
 23  3  1  0  0  0  0
 24  4  1  0  0  0  0
 33 20  1  0  0  0  0
 34 21  1  0  0  0  0
 35 21  1  0  0  0  0
 36 22  1  0  0  0  0
 37 23  1  0  0  0  0
 38 23  1  0  0  0  0
 39 23  1  0  0  0  0
M  END
>  <Pose>
1

>  <Score>
-4.97

$$$$
