
 OpenBabel03222202113D

 54 57  0  0  1  0  0  0  0  0999 V2000
   25.0040   76.1150   15.5640 B   0  0  0  0  0  0  0  0  0  0  0  0
   24.1990   77.8570   15.6990 C   0  0  0  0  0  0  0  0  0  0  0  0
   22.8620   77.9880   16.0790 C   0  0  0  0  0  0  0  0  0  0  0  0
   22.2370   79.2030   16.1920 C   0  0  0  0  0  0  0  0  0  0  0  0
   23.0250   80.3300   15.9020 C   0  0  0  0  0  0  0  0  0  0  0  0
   24.3430   80.2160   15.5250 C   0  0  0  0  0  0  0  0  0  0  0  0
   24.9450   78.9810   15.4200 C   0  0  0  0  0  0  0  0  0  0  0  0
   20.8370   79.4000   16.5800 C   0  0  1  0  0  0  0  0  0  0  0  0
   20.1180   78.1770   16.8630 N   0  0  0  0  0  0  0  0  0  0  0  0
   20.4740   77.7860   18.1770 C   0  0  0  0  0  0  0  0  0  0  0  0
   20.4810   76.6280   18.6640 O   0  0  0  0  0  0  0  0  0  0  0  0
   20.8420   79.0160   18.8790 C   0  0  0  0  0  0  0  0  0  0  0  0
   21.2270   79.1650   20.0610 O   0  0  0  0  0  0  0  0  0  0  0  0
   20.6710   80.0970   17.8950 C   0  0  0  0  0  0  0  0  0  0  0  0
   20.4570   81.3610   18.1830 C   0  0  0  0  0  0  0  0  0  0  0  0
   20.3670   82.2510   17.1050 O   0  0  0  0  0  0  0  0  0  0  0  0
   20.3080   81.8460   19.5690 C   0  0  0  0  0  0  0  0  0  0  0  0
   21.0040   81.5360   20.6220 O   0  0  0  0  0  0  0  0  0  0  0  0
   20.5780   82.1740   21.6890 C   0  0  0  0  0  0  0  0  0  0  0  0
   19.5100   82.9810   21.3330 C   0  0  0  0  0  0  0  0  0  0  0  0
   19.3530   82.7580   19.9780 C   0  0  0  0  0  0  0  0  0  0  0  0
   18.8780   83.7600   22.2770 C   0  0  0  0  0  0  0  0  0  0  0  0
   19.2720   83.7760   23.5960 C   0  0  0  0  0  0  0  0  0  0  0  0
   20.3330   82.9790   23.9670 C   0  0  0  0  0  0  0  0  0  0  0  0
   20.9740   82.1890   23.0150 C   0  0  0  0  0  0  0  0  0  0  0  0
   19.1720   77.4300   16.0370 C   0  0  0  0  0  0  0  0  0  0  0  0
   19.7770   76.1090   15.6000 C   0  0  0  0  0  0  0  0  0  0  0  0
   20.4060   76.1810   14.2340 C   0  0  0  0  0  0  0  0  0  0  0  0
   19.4010   76.0270   13.2320 N   0  0  0  0  0  4  0  0  0  0  0  0
   19.6630   76.7960   12.0340 C   0  0  0  0  0  0  0  0  0  0  0  0
   19.1320   74.6780   12.8350 C   0  0  0  0  0  0  0  0  0  0  0  0
   22.3070   77.0910   16.2940 H   0  0  0  0  0  0  0  0  0  0  0  0
   22.5570   81.3070   15.9840 H   0  0  0  0  0  0  0  0  0  0  0  0
   24.9500   81.0870   15.3020 H   0  0  0  0  0  0  0  0  0  0  0  0
   25.9960   78.8680   15.1210 H   0  0  0  0  0  0  0  0  0  0  0  0
   20.3180   79.9680   15.7700 H   0  0  0  0  0  0  0  0  0  0  0  0
   18.6220   83.2290   19.3560 H   0  0  0  0  0  0  0  0  0  0  0  0
   18.0490   84.3870   21.9950 H   0  0  0  0  0  0  0  0  0  0  0  0
   18.8080   84.3690   24.3710 H   0  0  0  0  0  0  0  0  0  0  0  0
   20.6600   82.9770   25.0080 H   0  0  0  0  0  0  0  0  0  0  0  0
   21.8040   81.5790   23.3550 H   0  0  0  0  0  0  0  0  0  0  0  0
   18.2360   77.1890   16.5760 H   0  0  0  0  0  0  0  0  0  0  0  0
   18.9030   78.0150   15.1430 H   0  0  0  0  0  0  0  0  0  0  0  0
   18.9130   75.4110   15.5020 H   0  0  0  0  0  0  0  0  0  0  0  0
   20.4610   75.7020   16.3460 H   0  0  0  0  0  0  0  0  0  0  0  0
   21.1660   75.3820   14.0810 H   0  0  0  0  0  0  0  0  0  0  0  0
   20.8910   77.1730   14.0870 H   0  0  0  0  0  0  0  0  0  0  0  0
   18.4960   76.4170   13.6330 H   0  0  0  0  0  0  0  0  0  0  0  0
   18.6790   77.0160   11.5350 H   0  0  0  0  0  0  0  0  0  0  0  0
   20.2380   76.1830   11.3170 H   0  0  0  0  0  0  0  0  0  0  0  0
   20.1680   77.7310   12.3140 H   0  0  0  0  0  0  0  0  0  0  0  0
   19.8030   74.3030   12.0390 H   0  0  0  0  0  0  0  0  0  0  0  0
   18.1110   74.6380   12.4070 H   0  0  0  0  0  0  0  0  0  0  0  0
   19.0980   73.9770   13.7210 H   0  0  0  0  0  0  0  0  0  0  0  0
  1  2  1  0  0  0  0
  2  3  1  0  0  0  0
  3  4  2  0  0  0  0
  3 32  1  0  0  0  0
  4  8  1  0  0  0  0
  5 33  1  0  0  0  0
  5  4  1  0  0  0  0
  6  5  2  0  0  0  0
  7  6  1  0  0  0  0
  7  2  2  0  0  0  0
  8 36  1  6  0  0  0
  8  9  1  0  0  0  0
  8 14  1  0  0  0  0
  9 10  1  0  0  0  0
 10 11  2  0  0  0  0
 10 12  1  0  0  0  0
 12 13  2  0  0  0  0
 14 15  2  0  0  0  0
 14 12  1  0  0  0  0
 15 17  1  0  0  0  0
 16 15  1  0  0  0  0
 17 21  2  0  0  0  0
 17 18  1  0  0  0  0
 18 19  1  0  0  0  0
 19 25  1  0  0  0  0
 20 19  2  0  0  0  0
 20 22  1  0  0  0  0
 21 20  1  0  0  0  0
 22 23  2  0  0  0  0
 23 24  1  0  0  0  0
 23 39  1  0  0  0  0
 24 40  1  0  0  0  0
 25 41  1  0  0  0  0
 25 24  2  0  0  0  0
 26 42  1  0  0  0  0
 26  9  1  0  0  0  0
 27 26  1  0  0  0  0
 27 45  1  0  0  0  0
 28 27  1  0  0  0  0
 29 48  1  0  0  0  0
 29 28  1  0  0  0  0
 30 51  1  0  0  0  0
 30 29  1  0  0  0  0
 31 29  1  0  0  0  0
 31 54  1  0  0  0  0
 34  6  1  0  0  0  0
 35  7  1  0  0  0  0
 37 21  1  0  0  0  0
 38 22  1  0  0  0  0
 43 26  1  0  0  0  0
 44 27  1  0  0  0  0
 46 28  1  0  0  0  0
 47 28  1  0  0  0  0
 49 30  1  0  0  0  0
 50 30  1  0  0  0  0
 52 31  1  0  0  0  0
 53 31  1  0  0  0  0
M  END
>  <Pose>
1

>  <Score>
-5.90

$$$$
