
 OpenBabel03222202113D

 47 50  0  0  0  0  0  0  0  0999 V2000
   21.1070   82.0780   22.9860 B   0  0  0  0  0  0  0  0  0  0  0  0
   19.7230   83.1710   22.3110 C   0  0  0  0  0  0  0  0  0  0  0  0
   19.5330   83.2730   20.9540 C   0  0  0  0  0  0  0  0  0  0  0  0
   18.5510   84.0040   20.4240 C   0  0  0  0  0  0  0  0  0  0  0  0
   17.6430   84.7130   21.2700 C   0  0  0  0  0  0  0  0  0  0  0  0
   17.7880   84.6090   22.6130 C   0  0  0  0  0  0  0  0  0  0  0  0
   18.8260   83.8410   23.1490 C   0  0  0  0  0  0  0  0  0  0  0  0
   20.2920   82.2480   20.0750 C   0  0  0  0  0  0  0  0  0  0  0  0
   19.5510   81.2750   19.8520 N   0  0  0  0  0  0  0  0  0  0  0  0
   19.2030   80.1270   19.3740 N   0  0  0  0  0  0  0  0  0  0  0  0
   20.0620   79.9810   18.0980 C   0  0  0  0  0  0  0  0  0  0  0  0
   19.6840   80.7060   17.1840 O   0  0  0  0  0  0  0  0  0  0  0  0
   21.1460   79.0880   18.0300 C   0  0  0  0  0  0  0  0  0  0  0  0
   21.3090   77.8950   18.5140 N   0  0  0  0  0  0  0  0  0  0  0  0
   22.3420   77.3470   17.9730 N   0  0  0  0  0  0  0  0  0  0  0  0
   22.9570   78.1830   17.0520 N   0  0  0  0  0  0  0  0  0  0  0  0
   22.2380   79.2840   17.0640 C   0  0  0  0  0  0  0  0  0  0  0  0
   22.3450   80.6340   16.5200 C   0  0  0  0  0  0  0  0  0  0  0  0
   22.8790   81.0880   15.3800 N   0  0  0  0  0  0  0  0  0  0  0  0
   23.1470   79.9800   14.4740 C   0  0  0  0  0  0  0  0  0  0  0  0
   22.6310   80.3850   13.1250 C   0  0  0  0  0  0  0  0  0  0  0  0
   22.0030   81.7610   13.3190 C   0  0  0  0  0  0  0  0  0  0  0  0
   22.7020   82.2130   14.6250 C   0  0  0  0  0  0  0  0  0  0  0  0
   24.0540   77.6710   16.3600 C   0  0  0  0  0  0  0  0  0  0  0  0
   23.9490   76.5210   15.5770 N   0  0  0  0  0  0  0  0  0  0  0  0
   25.1120   76.2150   15.1570 O   0  0  0  0  0  0  0  0  0  0  0  0
   25.9940   77.0370   15.5650 N   0  0  0  0  0  0  0  0  0  0  0  0
   25.3540   77.9660   16.3290 C   0  0  0  0  0  0  0  0  0  0  0  0
   26.0910   79.0240   16.9530 N   0  0  0  0  0  0  0  0  0  0  0  0
   18.4730   84.1170   19.3590 H   0  0  0  0  0  0  0  0  0  0  0  0
   16.8930   85.3260   20.8740 H   0  0  0  0  0  0  0  0  0  0  0  0
   17.0830   85.1060   23.3290 H   0  0  0  0  0  0  0  0  0  0  0  0
   18.8740   83.7390   24.2340 H   0  0  0  0  0  0  0  0  0  0  0  0
   21.2380   82.3920   19.7930 H   0  0  0  0  0  0  0  0  0  0  0  0
   18.5630   79.3550   19.5380 H   0  0  0  0  0  0  0  0  0  0  0  0
   21.6500   81.4040   17.0110 H   0  0  0  0  0  0  0  0  0  0  0  0
   23.3110   81.0640   17.2920 H   0  0  0  0  0  0  0  0  0  0  0  0
   22.7430   79.0490   14.8700 H   0  0  0  0  0  0  0  0  0  0  0  0
   24.2630   79.7750   14.3970 H   0  0  0  0  0  0  0  0  0  0  0  0
   23.4170   80.3820   12.3540 H   0  0  0  0  0  0  0  0  0  0  0  0
   21.8670   79.6300   12.7720 H   0  0  0  0  0  0  0  0  0  0  0  0
   22.2580   82.3980   12.4890 H   0  0  0  0  0  0  0  0  0  0  0  0
   20.9600   81.6510   13.5980 H   0  0  0  0  0  0  0  0  0  0  0  0
   23.7230   82.5620   14.2370 H   0  0  0  0  0  0  0  0  0  0  0  0
   22.1600   83.0660   15.0520 H   0  0  0  0  0  0  0  0  0  0  0  0
   27.0940   78.8610   17.1210 H   0  0  0  0  0  0  0  0  0  0  0  0
   25.6230   79.8700   17.2710 H   0  0  0  0  0  0  0  0  0  0  0  0
  2  1  1  0  0  0  0
  2  7  1  0  0  0  0
  3  2  2  0  0  0  0
  4  3  1  0  0  0  0
  4  5  2  0  0  0  0
  5  6  1  0  0  0  0
  6  7  2  0  0  0  0
  6 32  1  0  0  0  0
  7 33  1  0  0  0  0
  8  3  1  0  0  0  0
  9  8  1  0  0  0  0
 10 35  1  0  0  0  0
 10  9  1  0  0  0  0
 11 10  1  0  0  0  0
 12 11  2  0  0  0  0
 13 11  1  0  0  0  0
 13 14  1  0  0  0  0
 15 14  2  0  0  0  0
 16 17  1  0  0  0  0
 16 15  1  0  0  0  0
 17 13  2  0  0  0  0
 18 36  1  0  0  0  0
 18 17  1  0  0  0  0
 18 37  1  0  0  0  0
 19 18  1  0  0  0  0
 20 38  1  0  0  0  0
 20 19  1  0  0  0  0
 21 22  1  0  0  0  0
 21 20  1  0  0  0  0
 22 43  1  0  0  0  0
 22 23  1  0  0  0  0
 23 45  1  0  0  0  0
 23 19  1  0  0  0  0
 24 16  1  0  0  0  0
 25 24  2  0  0  0  0
 26 27  1  0  0  0  0
 26 25  1  0  0  0  0
 27 28  2  0  0  0  0
 28 24  1  0  0  0  0
 28 29  1  0  0  0  0
 29 46  1  0  0  0  0
 29 47  1  0  0  0  0
 30  4  1  0  0  0  0
 31  5  1  0  0  0  0
 34  8  1  0  0  0  0
 39 20  1  0  0  0  0
 40 21  1  0  0  0  0
 41 21  1  0  0  0  0
 42 22  1  0  0  0  0
 44 23  1  0  0  0  0
M  END
>  <Pose>
1

>  <Score>
-7.28

$$$$
