
 OpenBabel03222202113D

 52 55  0  0  1  0  0  0  0  0999 V2000
   22.8400   77.6820   15.6790 B   0  0  0  0  0  0  0  0  0  0  0  0
   22.6490   79.0390   14.3120 C   0  0  0  0  0  0  0  0  0  0  0  0
   21.9480   78.7900   13.1670 C   0  0  0  0  0  0  0  0  0  0  0  0
   21.7990   79.7220   12.1800 C   0  0  0  0  0  0  0  0  0  0  0  0
   22.4120   80.9640   12.4060 C   0  0  0  0  0  0  0  0  0  0  0  0
   23.1210   81.2510   13.5390 C   0  0  0  0  0  0  0  0  0  0  0  0
   23.2350   80.2710   14.4970 C   0  0  0  0  0  0  0  0  0  0  0  0
   21.0900   79.5320   10.9410 C   0  0  2  0  0  0  0  0  0  0  0  0
   21.8380   79.7060    9.8750 O   0  0  0  0  0  0  0  0  0  0  0  0
   19.6880   79.1820   10.6850 C   0  0  0  0  0  0  0  0  0  0  0  0
   19.4940   77.8180   10.2420 N   0  0  0  0  0  0  0  0  0  0  0  0
   19.1610   77.4640    8.9580 C   0  0  0  0  0  0  0  0  0  0  0  0
   19.0070   76.1080    8.9590 C   0  0  0  0  0  0  0  0  0  0  0  0
   18.6660   75.4560    7.7700 C   0  0  0  0  0  0  0  0  0  0  0  0
   18.4920   76.1930    6.6170 C   0  0  0  0  0  0  0  0  0  0  0  0
   18.6460   77.5620    6.6140 C   0  0  0  0  0  0  0  0  0  0  0  0
   18.9860   78.2030    7.8080 C   0  0  0  0  0  0  0  0  0  0  0  0
   19.2390   75.6660   10.2140 N   0  0  0  0  0  0  0  0  0  0  0  0
   19.5360   76.6960   11.0100 C   0  0  2  0  0  0  0  0  0  0  0  0
   19.7270   76.6360   12.3080 N   0  0  0  0  0  0  0  0  0  0  0  0
   19.1140   74.2620   10.5660 C   0  0  0  0  0  0  0  0  0  0  0  0
   17.8220   73.8530   11.1430 C   0  0  0  0  0  0  0  0  0  0  0  0
   17.6820   73.7710   12.5520 N   0  0  0  0  0  0  0  0  0  0  0  0
   18.9590   73.3400   13.1770 C   0  0  0  0  0  0  0  0  0  0  0  0
   19.4500   72.0460   12.6170 C   0  0  0  0  0  0  0  0  0  0  0  0
   18.5510   71.0590   13.0240 O   0  0  0  0  0  0  0  0  0  0  0  0
   17.2730   71.3270   12.6020 C   0  0  0  0  0  0  0  0  0  0  0  0
   16.7590   72.6970   12.9570 C   0  0  0  0  0  0  0  0  0  0  0  0
   21.5030   77.8310   13.0700 H   0  0  0  0  0  0  0  0  0  0  0  0
   22.3480   81.7720   11.6800 H   0  0  0  0  0  0  0  0  0  0  0  0
   23.5920   82.2360   13.6860 H   0  0  0  0  0  0  0  0  0  0  0  0
   23.7980   80.4840   15.4090 H   0  0  0  0  0  0  0  0  0  0  0  0
   19.0480   79.3550   11.6070 H   0  0  0  0  0  0  0  0  0  0  0  0
   19.2830   79.8610    9.8740 H   0  0  0  0  0  0  0  0  0  0  0  0
   18.5510   74.3770    7.7820 H   0  0  0  0  0  0  0  0  0  0  0  0
   18.2330   75.6640    5.7140 H   0  0  0  0  0  0  0  0  0  0  0  0
   18.5060   78.1170    5.6980 H   0  0  0  0  0  0  0  0  0  0  0  0
   19.0950   79.2700    7.8020 H   0  0  0  0  0  0  0  0  0  0  0  0
   19.7510   75.7640   12.8300 H   0  0  0  0  0  0  0  0  0  0  0  0
   19.8300   77.5180   12.8290 H   0  0  0  0  0  0  0  0  0  0  0  0
   19.3790   73.6500    9.6760 H   0  0  0  0  0  0  0  0  0  0  0  0
   19.9100   74.0320   11.3120 H   0  0  0  0  0  0  0  0  0  0  0  0
   17.4710   72.9010   10.6310 H   0  0  0  0  0  0  0  0  0  0  0  0
   17.0550   74.6020   10.7750 H   0  0  0  0  0  0  0  0  0  0  0  0
   19.7020   74.1540   13.1490 H   0  0  0  0  0  0  0  0  0  0  0  0
   18.6900   73.1670   14.2350 H   0  0  0  0  0  0  0  0  0  0  0  0
   20.4150   71.8200   13.1160 H   0  0  0  0  0  0  0  0  0  0  0  0
   19.6340   72.0260   11.5430 H   0  0  0  0  0  0  0  0  0  0  0  0
   16.6070   70.6010   13.1550 H   0  0  0  0  0  0  0  0  0  0  0  0
   17.1900   71.0940   11.5190 H   0  0  0  0  0  0  0  0  0  0  0  0
   15.7560   72.8020   12.5620 H   0  0  0  0  0  0  0  0  0  0  0  0
   16.7850   72.7440   14.0890 H   0  0  0  0  0  0  0  0  0  0  0  0
  2  7  1  0  0  0  0
  2  1  1  0  0  0  0
  3  2  2  0  0  0  0
  4  5  2  0  0  0  0
  4  3  1  0  0  0  0
  5  6  1  0  0  0  0
  6 31  1  0  0  0  0
  6  7  2  0  0  0  0
  7 32  1  0  0  0  0
  8  9  1  6  0  0  0
  8  4  1  0  0  0  0
 10  8  1  0  0  0  0
 10 33  1  0  0  0  0
 11 10  1  0  0  0  0
 11 19  1  0  0  0  0
 12 13  1  0  0  0  0
 12 11  1  0  0  0  0
 13 18  1  0  0  0  0
 14 35  1  0  0  0  0
 14 13  2  0  0  0  0
 15 14  1  0  0  0  0
 16 15  2  0  0  0  0
 16 17  1  0  0  0  0
 17 12  2  0  0  0  0
 18 21  1  0  0  0  0
 18 19  1  0  0  0  0
 19 20  1  1  0  0  0
 20 40  1  0  0  0  0
 20 39  1  0  0  0  0
 21 22  1  0  0  0  0
 21 42  1  0  0  0  0
 22 23  1  0  0  0  0
 23 28  1  0  0  0  0
 23 24  1  0  0  0  0
 24 46  1  0  0  0  0
 25 26  1  0  0  0  0
 25 47  1  0  0  0  0
 25 24  1  0  0  0  0
 27 28  1  0  0  0  0
 27 26  1  0  0  0  0
 27 49  1  0  0  0  0
 28 52  1  0  0  0  0
 29  3  1  0  0  0  0
 30  5  1  0  0  0  0
 34 10  1  0  0  0  0
 36 15  1  0  0  0  0
 37 16  1  0  0  0  0
 38 17  1  0  0  0  0
 41 21  1  0  0  0  0
 43 22  1  0  0  0  0
 44 22  1  0  0  0  0
 45 24  1  0  0  0  0
 48 25  1  0  0  0  0
 50 27  1  0  0  0  0
 51 28  1  0  0  0  0
M  END
>  <Pose>
1

>  <Score>
-5.91

$$$$
