
 OpenBabel03222202113D

 51 54  0  0  1  0  0  0  0  0999 V2000
   19.0450   79.3370   21.9640 B   0  0  0  0  0  0  0  0  0  0  0  0
   19.7170   79.1290   20.1820 C   0  0  0  0  0  0  0  0  0  0  0  0
   19.5460   80.1000   19.2270 C   0  0  0  0  0  0  0  0  0  0  0  0
   20.0380   79.9260   17.9580 C   0  0  0  0  0  0  0  0  0  0  0  0
   20.7340   78.7710   17.5570 C   0  0  0  0  0  0  0  0  0  0  0  0
   20.8920   77.8220   18.5190 C   0  0  0  0  0  0  0  0  0  0  0  0
   20.3970   77.9970   19.7970 C   0  0  0  0  0  0  0  0  0  0  0  0
   21.1840   78.6980   16.1900 C   0  0  1  0  0  0  0  0  0  0  0  0
   22.5920   78.6800   15.9230 N   0  0  0  0  0  0  0  0  0  0  0  0
   22.6660   78.3300   14.5090 C   0  0  0  0  0  0  0  0  0  0  0  0
   23.5980   78.6170   13.7260 O   0  0  0  0  0  0  0  0  0  0  0  0
   21.4640   77.5880   14.1790 C   0  0  0  0  0  0  0  0  0  0  0  0
   21.1110   77.0930   13.0680 O   0  0  0  0  0  0  0  0  0  0  0  0
   20.6950   77.5150   15.4260 C   0  0  0  0  0  0  0  0  0  0  0  0
   19.7840   76.6260   15.7150 C   0  0  0  0  0  0  0  0  0  0  0  0
   19.1060   76.7410   16.9340 O   0  0  0  0  0  0  0  0  0  0  0  0
   19.4660   75.5150   14.7960 C   0  0  0  0  0  0  0  0  0  0  0  0
   20.2320   74.4520   14.5800 O   0  0  0  0  0  0  0  0  0  0  0  0
   19.6890   73.6380   13.7130 C   0  0  0  0  0  0  0  0  0  0  0  0
   18.4790   74.1480   13.2910 C   0  0  0  0  0  0  0  0  0  0  0  0
   18.3650   75.3360   13.9930 C   0  0  0  0  0  0  0  0  0  0  0  0
   17.7120   73.4680   12.3710 C   0  0  0  0  0  0  0  0  0  0  0  0
   18.0940   72.2620   11.8240 C   0  0  0  0  0  0  0  0  0  0  0  0
   19.3070   71.7470   12.2430 C   0  0  0  0  0  0  0  0  0  0  0  0
   20.0860   72.4150   13.1620 C   0  0  0  0  0  0  0  0  0  0  0  0
   23.7570   78.9840   16.7240 C   0  0  0  0  0  0  0  0  0  0  0  0
   24.7170   77.9030   16.9950 C   0  0  0  0  0  0  0  0  0  0  0  0
   25.6110   77.5310   15.9300 N   0  0  0  0  0  4  0  0  0  0  0  0
   26.9900   77.7320   16.2710 C   0  0  0  0  0  0  0  0  0  0  0  0
   25.3210   76.2700   15.3090 C   0  0  0  0  0  0  0  0  0  0  0  0
   19.0130   80.9970   19.5120 H   0  0  0  0  0  0  0  0  0  0  0  0
   19.8640   80.7350   17.2540 H   0  0  0  0  0  0  0  0  0  0  0  0
   21.3910   76.9060   18.2880 H   0  0  0  0  0  0  0  0  0  0  0  0
   20.5400   77.2160   20.5470 H   0  0  0  0  0  0  0  0  0  0  0  0
   20.7860   79.5790   15.5970 H   0  0  0  0  0  0  0  0  0  0  0  0
   17.5420   76.0280   13.9130 H   0  0  0  0  0  0  0  0  0  0  0  0
   16.7700   73.8830   12.0540 H   0  0  0  0  0  0  0  0  0  0  0  0
   17.5090   71.7100   11.1000 H   0  0  0  0  0  0  0  0  0  0  0  0
   19.6600   70.8040   11.8500 H   0  0  0  0  0  0  0  0  0  0  0  0
   21.0340   72.0120   13.4920 H   0  0  0  0  0  0  0  0  0  0  0  0
   23.4670   79.4830   17.6840 H   0  0  0  0  0  0  0  0  0  0  0  0
   24.3190   79.8000   16.1690 H   0  0  0  0  0  0  0  0  0  0  0  0
   24.1870   76.9780   17.2900 H   0  0  0  0  0  0  0  0  0  0  0  0
   25.3790   78.2200   17.8550 H   0  0  0  0  0  0  0  0  0  0  0  0
   25.4170   78.2680   15.1680 H   0  0  0  0  0  0  0  0  0  0  0  0
   27.0110   78.1630   17.2900 H   0  0  0  0  0  0  0  0  0  0  0  0
   27.6270   76.8310   16.1420 H   0  0  0  0  0  0  0  0  0  0  0  0
   27.4980   78.5140   15.6350 H   0  0  0  0  0  0  0  0  0  0  0  0
   24.4350   75.7480   15.7050 H   0  0  0  0  0  0  0  0  0  0  0  0
   25.1070   76.3780   14.2030 H   0  0  0  0  0  0  0  0  0  0  0  0
   26.2390   75.6080   15.3100 H   0  0  0  0  0  0  0  0  0  0  0  0
  2  1  1  0  0  0  0
  3 31  1  0  0  0  0
  3  2  2  0  0  0  0
  4  3  1  0  0  0  0
  5  4  2  0  0  0  0
  5  6  1  0  0  0  0
  6  7  2  0  0  0  0
  7  2  1  0  0  0  0
  7 34  1  0  0  0  0
  8 35  1  6  0  0  0
  8  5  1  0  0  0  0
  9  8  1  0  0  0  0
  9 26  1  0  0  0  0
 10  9  1  0  0  0  0
 11 10  2  0  0  0  0
 12 10  1  0  0  0  0
 12 14  1  0  0  0  0
 13 12  2  0  0  0  0
 14 15  2  0  0  0  0
 14  8  1  0  0  0  0
 15 16  1  0  0  0  0
 17 15  1  0  0  0  0
 18 17  1  0  0  0  0
 19 18  1  0  0  0  0
 20 19  1  0  0  0  0
 20 21  1  0  0  0  0
 21 17  2  0  0  0  0
 22 20  2  0  0  0  0
 23 24  2  0  0  0  0
 23 22  1  0  0  0  0
 24 25  1  0  0  0  0
 25 40  1  0  0  0  0
 25 19  2  0  0  0  0
 26 27  1  0  0  0  0
 26 41  1  0  0  0  0
 27 43  1  0  0  0  0
 27 44  1  0  0  0  0
 28 29  1  0  0  0  0
 28 27  1  0  0  0  0
 29 46  1  0  0  0  0
 30 51  1  0  0  0  0
 30 49  1  0  0  0  0
 30 28  1  0  0  0  0
 32  4  1  0  0  0  0
 33  6  1  0  0  0  0
 36 21  1  0  0  0  0
 37 22  1  0  0  0  0
 38 23  1  0  0  0  0
 39 24  1  0  0  0  0
 42 26  1  0  0  0  0
 45 28  1  0  0  0  0
 47 29  1  0  0  0  0
 48 29  1  0  0  0  0
 50 30  1  0  0  0  0
M  END
>  <Pose>
1

>  <Score>
-5.77

$$$$
