
 OpenBabel03222202113D

 50 53  0  0  1  0  0  0  0  0999 V2000
   17.4360   74.3720    5.6480 Cl  0  0  0  0  0  0  0  0  0  0  0  0
   18.1600   75.4730    6.8120 C   0  0  0  0  0  0  0  0  0  0  0  0
   17.9430   76.8320    6.7480 C   0  0  0  0  0  0  0  0  0  0  0  0
   18.5170   77.6940    7.6660 C   0  0  0  0  0  0  0  0  0  0  0  0
   19.3290   77.2430    8.6880 C   0  0  0  0  0  0  0  0  0  0  0  0
   19.5460   75.8820    8.7550 C   0  0  0  0  0  0  0  0  0  0  0  0
   18.9680   75.0070    7.8280 C   0  0  0  0  0  0  0  0  0  0  0  0
   19.9200   78.1760    9.6450 C   0  0  0  0  0  0  0  0  0  0  0  0
   19.3950   79.2880   10.2110 N   0  0  0  0  0  0  0  0  0  0  0  0
   20.3160   79.8260   11.0370 C   0  0  1  0  0  0  0  0  0  0  0  0
   21.4450   79.0840   11.0270 N   0  0  0  0  0  0  0  0  0  0  0  0
   21.1910   78.0710   10.1670 C   0  0  0  0  0  0  0  0  0  0  0  0
   22.6730   79.3030   11.7630 C   0  0  0  0  0  0  0  0  0  0  0  0
   22.3820   79.3800   13.2230 C   0  0  0  0  0  0  0  0  0  0  0  0
   22.1670   80.4920   13.7100 O   0  0  0  0  0  0  0  0  0  0  0  0
   22.3710   78.1890   13.9510 N   0  0  0  0  0  0  0  0  0  0  0  0
   21.8020   78.0360   15.2420 C   0  0  0  0  0  0  0  0  0  0  0  0
   22.2690   78.8460   16.2860 C   0  0  0  0  0  0  0  0  0  0  0  0
   21.7610   78.7130   17.5380 C   0  0  0  0  0  0  0  0  0  0  0  0
   20.7750   77.7810   17.8190 C   0  0  0  0  0  0  0  0  0  0  0  0
   20.3270   76.9950   16.7950 C   0  0  0  0  0  0  0  0  0  0  0  0
   20.8310   77.1090   15.4930 C   0  0  0  0  0  0  0  0  0  0  0  0
   20.2340   77.6540   19.1950 C   0  0  0  0  0  0  0  0  0  0  0  0
   19.5250   78.9650   19.5510 C   0  0  0  0  0  0  0  0  0  0  0  0
   19.7660   81.0510   11.6700 C   0  0  0  0  0  0  0  0  0  0  0  0
   18.3540   81.1610   11.2080 C   0  0  0  0  0  0  0  0  0  0  0  0
   18.1810   80.0720   10.2150 C   0  0  0  0  0  0  0  0  0  0  0  0
   17.3100   77.1930    5.9510 H   0  0  0  0  0  0  0  0  0  0  0  0
   18.3300   78.7620    7.5940 H   0  0  0  0  0  0  0  0  0  0  0  0
   20.1730   75.4770    9.5360 H   0  0  0  0  0  0  0  0  0  0  0  0
   19.1380   73.9480    7.8790 H   0  0  0  0  0  0  0  0  0  0  0  0
   21.9120   77.2740    9.9240 H   0  0  0  0  0  0  0  0  0  0  0  0
   23.1840   80.2160   11.3970 H   0  0  0  0  0  0  0  0  0  0  0  0
   23.3440   78.4500   11.5160 H   0  0  0  0  0  0  0  0  0  0  0  0
   22.8050   77.2920   13.5500 H   0  0  0  0  0  0  0  0  0  0  0  0
   23.0510   79.5910   16.0760 H   0  0  0  0  0  0  0  0  0  0  0  0
   22.1280   79.3510   18.3600 H   0  0  0  0  0  0  0  0  0  0  0  0
   19.5510   76.2440   16.9570 H   0  0  0  0  0  0  0  0  0  0  0  0
   20.4220   76.4270   14.7290 H   0  0  0  0  0  0  0  0  0  0  0  0
   21.0550   77.4460   19.9020 H   0  0  0  0  0  0  0  0  0  0  0  0
   19.4920   76.8380   19.2430 H   0  0  0  0  0  0  0  0  0  0  0  0
   18.5940   79.0470   18.9770 H   0  0  0  0  0  0  0  0  0  0  0  0
   20.2290   79.7930   19.4070 H   0  0  0  0  0  0  0  0  0  0  0  0
   19.2550   78.9440   20.6330 H   0  0  0  0  0  0  0  0  0  0  0  0
   20.3810   81.9410   11.4190 H   0  0  0  0  0  0  0  0  0  0  0  0
   19.7600   80.9240   12.7890 H   0  0  0  0  0  0  0  0  0  0  0  0
   17.6390   81.0610   12.0770 H   0  0  0  0  0  0  0  0  0  0  0  0
   18.1710   82.1840   10.7530 H   0  0  0  0  0  0  0  0  0  0  0  0
   17.9660   80.4880    9.2010 H   0  0  0  0  0  0  0  0  0  0  0  0
   17.3360   79.4220   10.5820 H   0  0  0  0  0  0  0  0  0  0  0  0
  1  2  1  0  0  0  0
  2  7  1  0  0  0  0
  3  2  2  0  0  0  0
  3  4  1  0  0  0  0
  4  5  2  0  0  0  0
  5  6  1  0  0  0  0
  5  8  1  0  0  0  0
  6 30  1  0  0  0  0
  7 31  1  0  0  0  0
  7  6  2  0  0  0  0
  8 12  2  0  0  0  0
  8  9  1  0  0  0  0
  9 27  1  0  0  0  0
 10  9  1  6  0  0  0
 10 25  1  0  0  0  0
 11 10  1  0  0  0  0
 11 13  1  0  0  0  0
 12 11  1  0  0  0  0
 13 14  1  0  0  0  0
 14 15  2  0  0  0  0
 14 16  1  0  0  0  0
 16 17  1  0  0  0  0
 17 22  2  0  0  0  0
 17 18  1  0  0  0  0
 18 19  2  0  0  0  0
 19 20  1  0  0  0  0
 19 37  1  0  0  0  0
 20 23  1  0  0  0  0
 21 38  1  0  0  0  0
 21 20  2  0  0  0  0
 22 21  1  0  0  0  0
 23 41  1  0  0  0  0
 23 24  1  0  0  0  0
 23 40  1  0  0  0  0
 24 44  1  0  0  0  0
 25 46  1  0  0  0  0
 26 25  1  0  0  0  0
 26 47  1  0  0  0  0
 27 50  1  0  0  0  0
 27 26  1  0  0  0  0
 28  3  1  0  0  0  0
 29  4  1  0  0  0  0
 32 12  1  0  0  0  0
 33 13  1  0  0  0  0
 34 13  1  0  0  0  0
 35 16  1  0  0  0  0
 36 18  1  0  0  0  0
 39 22  1  0  0  0  0
 42 24  1  0  0  0  0
 43 24  1  0  0  0  0
 45 25  1  0  0  0  0
 48 26  1  0  0  0  0
 49 27  1  0  0  0  0
M  END
>  <Pose>
1

>  <Score>
-6.26

$$$$
