
 OpenBabel03222202113D

 56 59  0  0  1  0  0  0  0  0999 V2000
   19.7600   77.4780   19.5600 B   0  0  0  0  0  0  0  0  0  0  0  0
   19.9400   79.3150   19.1050 C   0  0  0  0  0  0  0  0  0  0  0  0
   20.1470   79.6510   17.7840 C   0  0  0  0  0  0  0  0  0  0  0  0
   20.2710   80.9940   17.5010 C   0  0  0  0  0  0  0  0  0  0  0  0
   20.1940   81.9680   18.4750 C   0  0  0  0  0  0  0  0  0  0  0  0
   19.9870   81.6310   19.7960 C   0  0  0  0  0  0  0  0  0  0  0  0
   19.8600   80.2930   20.1000 C   0  0  0  0  0  0  0  0  0  0  0  0
   19.9100   82.6210   20.7770 O   0  0  0  0  0  0  0  0  0  0  0  0
   20.5620   82.5340   22.0080 C   0  0  0  0  0  0  0  0  0  0  0  0
   20.3200   83.3220   18.1810 O   0  0  0  0  0  0  0  0  0  0  0  0
   19.8610   84.3550   18.9930 C   0  0  0  0  0  0  0  0  0  0  0  0
   20.2290   78.6250   16.7510 C   0  0  0  0  0  0  0  0  0  0  0  0
   21.0100   78.6600   15.7510 N   0  0  0  0  0  0  0  0  0  0  0  0
   21.0660   77.6540   14.7680 N   0  0  0  0  0  0  0  0  0  0  0  0
   21.3710   78.0520   13.4370 C   0  0  0  0  0  0  0  0  0  0  0  0
   22.4090   78.8380   13.0520 N   0  0  0  0  0  0  0  0  0  0  0  0
   22.3610   78.9910   11.7030 C   0  0  0  0  0  0  0  0  0  0  0  0
   23.1140   79.6470   10.8120 N   0  0  0  0  0  0  0  0  0  0  0  0
   22.8380   79.6360    9.4950 C   0  0  0  0  0  0  0  0  0  0  0  0
   21.7660   78.9390    9.0580 N   0  0  0  0  0  0  0  0  0  0  0  0
   20.9740   78.2650    9.8850 C   0  0  0  0  0  0  0  0  0  0  0  0
   21.2620   78.2810   11.2360 C   0  0  0  0  0  0  0  0  0  0  0  0
   20.7050   77.7390   12.3050 N   0  0  0  0  0  0  0  0  0  0  0  0
   19.8570   77.5360    9.4640 O   0  0  0  0  0  0  0  0  0  0  0  0
   23.6560   80.3450    8.5530 N   0  0  0  0  0  0  0  0  0  0  0  0
   23.3880   79.4080   13.9250 C   0  0  2  0  0  0  0  0  0  0  0  0
   24.2560   78.4790   14.4820 O   0  0  0  0  0  0  0  0  0  0  0  0
   24.7850   79.0080   15.6240 C   0  0  1  0  0  0  0  0  0  0  0  0
   24.0270   80.2300   16.0150 C   0  0  2  0  0  0  0  0  0  0  0  0
   22.7960   80.1430   15.1100 C   0  0  1  0  0  0  0  0  0  0  0  0
   22.3520   81.4180   14.7610 O   0  0  0  0  0  0  0  0  0  0  0  0
   24.7140   81.3870   15.5950 O   0  0  0  0  0  0  0  0  0  0  0  0
   24.6240   77.9810   16.7460 C   0  0  0  0  0  0  0  0  0  0  0  0
   25.1170   76.7390   16.3310 O   0  0  0  0  0  0  0  0  0  0  0  0
   20.4360   81.2650   16.4540 H   0  0  0  0  0  0  0  0  0  0  0  0
   19.6970   80.0010   21.1300 H   0  0  0  0  0  0  0  0  0  0  0  0
   20.7320   83.5260   22.4830 H   0  0  0  0  0  0  0  0  0  0  0  0
   21.5940   82.0970   21.8880 H   0  0  0  0  0  0  0  0  0  0  0  0
   20.0410   81.9110   22.7540 H   0  0  0  0  0  0  0  0  0  0  0  0
   20.4370   85.2700   18.7340 H   0  0  0  0  0  0  0  0  0  0  0  0
   19.8430   84.1370   20.0650 H   0  0  0  0  0  0  0  0  0  0  0  0
   18.7970   84.5920   18.7040 H   0  0  0  0  0  0  0  0  0  0  0  0
   19.5790   77.7620   16.8310 H   0  0  0  0  0  0  0  0  0  0  0  0
   20.9000   76.6560   14.9730 H   0  0  0  0  0  0  0  0  0  0  0  0
   19.8980   76.5350    9.6120 H   0  0  0  0  0  0  0  0  0  0  0  0
   24.2580   81.1390    8.7920 H   0  0  0  0  0  0  0  0  0  0  0  0
   23.6190   80.0120    7.5660 H   0  0  0  0  0  0  0  0  0  0  0  0
   24.0180   80.1490   13.3880 H   0  0  0  0  0  0  0  0  0  0  0  0
   25.8640   79.2140   15.4410 H   0  0  0  0  0  0  0  0  0  0  0  0
   23.7470   80.2750   17.0770 H   0  0  0  0  0  0  0  0  0  0  0  0
   21.9880   79.5780   15.5930 H   0  0  0  0  0  0  0  0  0  0  0  0
   21.7360   81.3620   13.9860 H   0  0  0  0  0  0  0  0  0  0  0  0
   24.1110   82.1580   15.5250 H   0  0  0  0  0  0  0  0  0  0  0  0
   23.5410   77.9070   16.9480 H   0  0  0  0  0  0  0  0  0  0  0  0
   25.1620   78.3700   17.6230 H   0  0  0  0  0  0  0  0  0  0  0  0
   24.4160   76.0400   16.3760 H   0  0  0  0  0  0  0  0  0  0  0  0
  2  1  1  0  0  0  0
  2  7  1  0  0  0  0
  3  2  2  0  0  0  0
  4  3  1  0  0  0  0
  4  5  2  0  0  0  0
  5  6  1  0  0  0  0
  6  7  2  0  0  0  0
  6  8  1  0  0  0  0
  7 36  1  0  0  0  0
  8  9  1  0  0  0  0
  9 37  1  0  0  0  0
  9 39  1  0  0  0  0
 10  5  1  0  0  0  0
 10 11  1  0  0  0  0
 11 41  1  0  0  0  0
 12 43  1  0  0  0  0
 12  3  1  0  0  0  0
 13 12  2  0  0  0  0
 14 44  1  0  0  0  0
 14 13  1  0  0  0  0
 15 14  1  0  0  0  0
 16 15  1  0  0  0  0
 16 26  1  0  0  0  0
 17 16  1  0  0  0  0
 18 17  1  0  0  0  0
 19 18  2  0  0  0  0
 20 19  1  0  0  0  0
 20 21  2  0  0  0  0
 21 22  1  0  0  0  0
 22 17  2  0  0  0  0
 22 23  1  0  0  0  0
 23 15  2  0  0  0  0
 24 45  1  0  0  0  0
 24 21  1  0  0  0  0
 25 46  1  0  0  0  0
 25 19  1  0  0  0  0
 26 48  1  6  0  0  0
 26 27  1  0  0  0  0
 26 30  1  0  0  0  0
 27 28  1  0  0  0  0
 28 49  1  6  0  0  0
 28 29  1  0  0  0  0
 28 33  1  0  0  0  0
 29 50  1  1  0  0  0
 30 51  1  1  0  0  0
 30 29  1  0  0  0  0
 31 30  1  0  0  0  0
 32 29  1  0  0  0  0
 33 54  1  0  0  0  0
 33 55  1  0  0  0  0
 34 56  1  0  0  0  0
 34 33  1  0  0  0  0
 35  4  1  0  0  0  0
 38  9  1  0  0  0  0
 40 11  1  0  0  0  0
 42 11  1  0  0  0  0
 47 25  1  0  0  0  0
 52 31  1  0  0  0  0
 53 32  1  0  0  0  0
M  END
>  <Pose>
1

>  <Score>
-8.00

$$$$
