
 OpenBabel03222202113D

 42 45  0  0  1  0  0  0  0  0999 V2000
   17.6690   78.8390    7.5520 Cl  0  0  0  0  0  0  0  0  0  0  0  0
   18.4400   77.3050    7.8750 C   0  0  0  0  0  0  0  0  0  0  0  0
   19.3560   77.2510    8.9030 C   0  0  0  0  0  0  0  0  0  0  0  0
   19.9450   76.0300    9.1310 C   0  0  0  0  0  0  0  0  0  0  0  0
   19.6490   74.9110    8.3860 C   0  0  0  0  0  0  0  0  0  0  0  0
   18.7140   74.9860    7.3470 C   0  0  0  0  0  0  0  0  0  0  0  0
   18.1140   76.1960    7.1010 C   0  0  0  0  0  0  0  0  0  0  0  0
   19.6940   78.4180    9.7120 C   0  0  0  0  0  0  0  0  0  0  0  0
   18.8470   79.2610   10.3260 N   0  0  0  0  0  0  0  0  0  0  0  0
   19.5360   80.1870   10.9580 O   0  0  0  0  0  0  0  0  0  0  0  0
   20.8170   79.9870   10.7820 C   0  0  0  0  0  0  0  0  0  0  0  0
   20.9190   78.8860   10.0060 N   0  0  0  0  0  0  0  0  0  0  0  0
   21.9630   80.8030   11.3240 C   0  0  0  0  0  0  0  0  0  0  0  0
   21.9530   80.7830   12.7750 N   0  0  0  0  0  0  0  0  0  0  0  0
   22.4860   79.7000   13.4960 C   0  0  0  0  0  0  0  0  0  0  0  0
   22.6250   78.5930   12.9290 O   0  0  0  0  0  0  0  0  0  0  0  0
   22.8750   79.8620   14.9040 C   0  0  1  0  0  0  0  0  0  0  0  0
   21.6720   80.0140   15.8160 C   0  0  0  0  0  0  0  0  0  0  0  0
   22.0710   79.9870   17.2540 C   0  0  0  0  0  0  0  0  0  0  0  0
   22.0430   78.6360   17.8920 C   0  0  0  0  0  0  0  0  0  0  0  0
   22.3020   77.5170   16.8880 C   0  0  0  0  0  0  0  0  0  0  0  0
   23.5540   77.8110   16.2280 N   0  0  0  0  0  0  0  0  0  0  0  0
   24.6400   77.1030   16.3890 N   0  0  0  0  0  0  0  0  0  0  0  0
   25.5940   77.6270   15.6590 N   0  0  0  0  0  0  0  0  0  0  0  0
   25.0890   78.6750   15.0380 N   0  0  0  0  0  0  0  0  0  0  0  0
   23.7960   78.8180   15.3790 C   0  0  0  0  0  0  0  0  0  0  0  0
   20.6660   75.9370    9.9220 H   0  0  0  0  0  0  0  0  0  0  0  0
   20.1040   73.9480    8.5580 H   0  0  0  0  0  0  0  0  0  0  0  0
   18.4640   74.1180    6.7480 H   0  0  0  0  0  0  0  0  0  0  0  0
   17.3900   76.2530    6.2950 H   0  0  0  0  0  0  0  0  0  0  0  0
   21.8920   81.8350   10.9460 H   0  0  0  0  0  0  0  0  0  0  0  0
   22.8950   80.3600   10.9200 H   0  0  0  0  0  0  0  0  0  0  0  0
   21.5440   81.5850   13.2950 H   0  0  0  0  0  0  0  0  0  0  0  0
   23.4300   80.8310   14.9970 H   0  0  0  0  0  0  0  0  0  0  0  0
   21.2360   81.0370   15.6080 H   0  0  0  0  0  0  0  0  0  0  0  0
   20.8840   79.3070   15.5330 H   0  0  0  0  0  0  0  0  0  0  0  0
   21.4080   80.7020   17.8190 H   0  0  0  0  0  0  0  0  0  0  0  0
   23.0930   80.4220   17.3410 H   0  0  0  0  0  0  0  0  0  0  0  0
   22.8070   78.6280   18.6970 H   0  0  0  0  0  0  0  0  0  0  0  0
   21.0580   78.4010   18.3550 H   0  0  0  0  0  0  0  0  0  0  0  0
   22.3980   76.5740   17.4590 H   0  0  0  0  0  0  0  0  0  0  0  0
   21.5140   77.4690   16.1370 H   0  0  0  0  0  0  0  0  0  0  0  0
  1  2  1  0  0  0  0
  2  3  1  0  0  0  0
  3  4  2  0  0  0  0
  3  8  1  0  0  0  0
  4 27  1  0  0  0  0
  5 28  1  0  0  0  0
  5  4  1  0  0  0  0
  6  5  2  0  0  0  0
  7  6  1  0  0  0  0
  7  2  2  0  0  0  0
  8 12  1  0  0  0  0
  8  9  2  0  0  0  0
  9 10  1  0  0  0  0
 11 10  1  0  0  0  0
 11 13  1  0  0  0  0
 12 11  2  0  0  0  0
 13 14  1  0  0  0  0
 14 33  1  0  0  0  0
 14 15  1  0  0  0  0
 15 17  1  0  0  0  0
 16 15  2  0  0  0  0
 17 34  1  1  0  0  0
 17 26  1  0  0  0  0
 17 18  1  0  0  0  0
 18 19  1  0  0  0  0
 19 38  1  0  0  0  0
 19 37  1  0  0  0  0
 19 20  1  0  0  0  0
 20 40  1  0  0  0  0
 20 39  1  0  0  0  0
 21 41  1  0  0  0  0
 21 20  1  0  0  0  0
 22 23  1  0  0  0  0
 22 21  1  0  0  0  0
 24 23  2  0  0  0  0
 25 26  2  0  0  0  0
 25 24  1  0  0  0  0
 26 22  1  0  0  0  0
 29  6  1  0  0  0  0
 30  7  1  0  0  0  0
 31 13  1  0  0  0  0
 32 13  1  0  0  0  0
 35 18  1  0  0  0  0
 36 18  1  0  0  0  0
 42 21  1  0  0  0  0
M  END
>  <Pose>
1

>  <Score>
-7.53

$$$$
