
 OpenBabel03222202113D

 33 36  0  0  1  0  0  0  0  0999 V2000
   24.7010   77.7060   17.2140 B   0  0  0  0  0  0  0  0  0  0  0  0
   23.5730   78.6730   16.0160 C   0  0  0  0  0  0  0  0  0  0  0  0
   22.3810   79.2150   16.4250 C   0  0  0  0  0  0  0  0  0  0  0  0
   21.5910   79.8990   15.5330 C   0  0  0  0  0  0  0  0  0  0  0  0
   21.9690   80.0640   14.2070 C   0  0  0  0  0  0  0  0  0  0  0  0
   23.1580   79.5290   13.7760 C   0  0  0  0  0  0  0  0  0  0  0  0
   23.9560   78.8340   14.6920 C   0  0  0  0  0  0  0  0  0  0  0  0
   21.8980   79.0960   17.8260 C   0  0  1  0  0  0  0  0  0  0  0  0
   20.6000   79.5380   18.0900 C   0  0  1  0  0  0  0  0  0  0  0  0
   19.2090   79.1120   17.7720 C   0  0  0  0  0  0  0  0  0  0  0  0
   19.0250   78.3700   19.0450 N   0  0  0  0  0  0  0  0  0  0  0  0
   20.1340   77.7530   19.3080 C   0  0  1  0  0  0  0  0  0  0  0  0
   21.0470   78.0520   18.2500 C   0  0  2  0  0  0  0  0  0  0  0  0
   20.7440   77.1210   17.1210 C   0  0  0  0  0  0  0  0  0  0  0  0
   20.4800   76.3790   16.2380 N   0  0  0  0  0  0  0  0  0  0  0  0
   20.3830   76.9210   20.4630 N   0  0  0  0  0  0  0  0  0  0  0  0
   18.3930   80.2490   17.7850 O   0  0  0  0  0  0  0  0  0  0  0  0
   17.6690   80.2390   16.6090 C   0  0  0  0  0  0  0  0  0  0  0  0
   17.6520   78.7630   16.2510 C   0  0  0  0  0  0  0  0  0  0  0  0
   18.9650   78.4180   16.6570 O   0  0  0  0  0  0  0  0  0  0  0  0
   20.5110   80.3120   19.3800 C   0  0  0  0  0  0  0  0  0  0  0  0
   20.4630   80.9220   20.3900 N   0  0  0  0  0  0  0  0  0  0  0  0
   20.6260   80.3550   15.8050 H   0  0  0  0  0  0  0  0  0  0  0  0
   21.3630   80.5960   13.4970 H   0  0  0  0  0  0  0  0  0  0  0  0
   23.4640   79.6470   12.7660 H   0  0  0  0  0  0  0  0  0  0  0  0
   24.9060   78.3950   14.3960 H   0  0  0  0  0  0  0  0  0  0  0  0
   22.7500   79.3420   18.5200 H   0  0  0  0  0  0  0  0  0  0  0  0
   19.6020   76.5740   21.0520 H   0  0  0  0  0  0  0  0  0  0  0  0
   21.3500   76.6560   20.7260 H   0  0  0  0  0  0  0  0  0  0  0  0
   18.2390   80.7990   15.8370 H   0  0  0  0  0  0  0  0  0  0  0  0
   16.6450   80.6500   16.7390 H   0  0  0  0  0  0  0  0  0  0  0  0
   16.9040   78.2270   16.8750 H   0  0  0  0  0  0  0  0  0  0  0  0
   17.4970   78.5810   15.1790 H   0  0  0  0  0  0  0  0  0  0  0  0
  2  3  1  0  0  0  0
  2  1  1  0  0  0  0
  3  8  1  0  0  0  0
  4 23  1  0  0  0  0
  4  3  2  0  0  0  0
  5  4  1  0  0  0  0
  6  5  2  0  0  0  0
  6  7  1  0  0  0  0
  7  2  2  0  0  0  0
  8  9  1  0  0  0  0
  8 13  1  0  0  0  0
  8 27  1  1  0  0  0
  9 13  1  0  0  0  0
  9 21  1  1  0  0  0
 10 17  1  0  0  0  0
 10  9  1  0  0  0  0
 10 11  1  0  0  0  0
 11 12  1  0  0  0  0
 12 16  1  1  0  0  0
 13 14  1  6  0  0  0
 13 12  1  0  0  0  0
 15 14  3  0  0  0  0
 16 29  1  0  0  0  0
 16 28  1  0  0  0  0
 18 31  1  0  0  0  0
 18 17  1  0  0  0  0
 19 18  1  0  0  0  0
 19 20  1  0  0  0  0
 19 32  1  0  0  0  0
 20 10  1  0  0  0  0
 21 22  3  0  0  0  0
 24  5  1  0  0  0  0
 25  6  1  0  0  0  0
 26  7  1  0  0  0  0
 30 18  1  0  0  0  0
 33 19  1  0  0  0  0
M  END
>  <Pose>
1

>  <Score>
-5.51

$$$$
