
 OpenBabel03222202113D

 57 60  0  0  1  0  0  0  0  0999 V2000
   18.5850   78.5700   21.0940 B   0  0  0  0  0  0  0  0  0  0  0  0
   19.3840   78.6310   19.3660 C   0  0  0  0  0  0  0  0  0  0  0  0
   19.5930   79.8420   18.7230 C   0  0  0  0  0  0  0  0  0  0  0  0
   20.1680   79.9080   17.4770 C   0  0  0  0  0  0  0  0  0  0  0  0
   20.5480   78.7480   16.8450 C   0  0  0  0  0  0  0  0  0  0  0  0
   20.3450   77.5190   17.4790 C   0  0  0  0  0  0  0  0  0  0  0  0
   19.7690   77.4680   18.7250 C   0  0  0  0  0  0  0  0  0  0  0  0
   21.1890   78.7310   15.5490 C   0  0  2  0  0  0  0  0  0  0  0  0
   21.2810   79.8880   14.9580 O   0  0  0  0  0  0  0  0  0  0  0  0
   21.7520   77.6420   14.7840 C   0  0  1  0  0  0  0  0  0  0  0  0
   20.8470   77.1660   13.7700 N   0  0  0  0  0  0  0  0  0  0  0  0
   20.6620   78.3840   12.9490 C   0  0  2  0  0  0  0  0  0  0  0  0
   19.9200   77.9980   11.8120 N   0  0  0  0  0  0  0  0  0  0  0  0
   19.5400   76.6290   11.9840 C   0  0  0  0  0  0  0  0  0  0  0  0
   20.1080   76.1530   13.1670 C   0  0  0  0  0  0  0  0  0  0  0  0
   19.8710   74.8460   13.5370 C   0  0  0  0  0  0  0  0  0  0  0  0
   20.3940   74.4400   14.6070 O   0  0  0  0  0  0  0  0  0  0  0  0
   19.1080   74.0670   12.7620 N   0  0  0  0  0  0  0  0  0  0  0  0
   18.5830   74.5440   11.6460 C   0  0  0  0  0  0  0  0  0  0  0  0
   17.8690   73.7770   10.9440 O   0  0  0  0  0  0  0  0  0  0  0  0
   18.7820   75.8320   11.2260 N   0  0  0  0  0  0  0  0  0  0  0  0
   18.1490   76.2300    9.9890 C   0  0  0  0  0  0  0  0  0  0  0  0
   18.8820   72.6830   13.1930 C   0  0  0  0  0  0  0  0  0  0  0  0
   19.5480   78.7990   10.6740 C   0  0  0  0  0  0  0  0  0  0  0  0
   22.0110   78.9560   12.8270 C   0  0  1  0  0  0  0  0  0  0  0  0
   22.8500   78.1880   13.8580 C   0  0  1  0  0  0  0  0  0  0  0  0
   23.8000   79.0580   14.5440 C   0  0  0  0  0  0  0  0  0  0  0  0
   23.7510   80.3210   14.3660 O   0  0  0  0  0  0  0  0  0  0  0  0
   24.7590   78.5660   15.3880 O   0  0  0  0  0  0  0  0  0  0  0  0
   25.3550   79.3440   16.4290 C   0  0  0  0  0  0  0  0  0  0  0  0
   22.6600   78.9650   11.5230 C   0  0  0  0  0  0  0  0  0  0  0  0
   22.9100   77.8780   10.9390 O   0  0  0  0  0  0  0  0  0  0  0  0
   23.0150   80.1390   10.8940 O   0  0  0  0  0  0  0  0  0  0  0  0
   22.0410   81.0430   10.4190 C   0  0  0  0  0  0  0  0  0  0  0  0
   19.3040   80.7670   19.1980 H   0  0  0  0  0  0  0  0  0  0  0  0
   20.2920   80.8520   17.0140 H   0  0  0  0  0  0  0  0  0  0  0  0
   20.6390   76.5670   17.0010 H   0  0  0  0  0  0  0  0  0  0  0  0
   19.6170   76.4900   19.2060 H   0  0  0  0  0  0  0  0  0  0  0  0
   22.1590   76.8090   15.4050 H   0  0  0  0  0  0  0  0  0  0  0  0
   20.0210   79.1100   13.5170 H   0  0  0  0  0  0  0  0  0  0  0  0
   18.8300   76.7190    9.2670 H   0  0  0  0  0  0  0  0  0  0  0  0
   17.8240   75.2930    9.4270 H   0  0  0  0  0  0  0  0  0  0  0  0
   17.1830   76.7610   10.1420 H   0  0  0  0  0  0  0  0  0  0  0  0
   19.8450   72.1400   13.2910 H   0  0  0  0  0  0  0  0  0  0  0  0
   18.1810   72.1800   12.4980 H   0  0  0  0  0  0  0  0  0  0  0  0
   18.4160   72.7070   14.2020 H   0  0  0  0  0  0  0  0  0  0  0  0
   19.6640   79.8980   10.9260 H   0  0  0  0  0  0  0  0  0  0  0  0
   20.1020   78.6280    9.7590 H   0  0  0  0  0  0  0  0  0  0  0  0
   18.4300   78.7350   10.4840 H   0  0  0  0  0  0  0  0  0  0  0  0
   22.0180   80.0170   13.2500 H   0  0  0  0  0  0  0  0  0  0  0  0
   23.3280   77.3140   13.3450 H   0  0  0  0  0  0  0  0  0  0  0  0
   24.6760   79.3750   17.3170 H   0  0  0  0  0  0  0  0  0  0  0  0
   26.3240   78.8670   16.6740 H   0  0  0  0  0  0  0  0  0  0  0  0
   25.4960   80.3630   15.9850 H   0  0  0  0  0  0  0  0  0  0  0  0
   22.5770   81.9720   10.1010 H   0  0  0  0  0  0  0  0  0  0  0  0
   21.6260   80.6010    9.4790 H   0  0  0  0  0  0  0  0  0  0  0  0
   21.2500   81.2510   11.1680 H   0  0  0  0  0  0  0  0  0  0  0  0
  2  1  1  0  0  0  0
  3 35  1  0  0  0  0
  3  2  2  0  0  0  0
  4  3  1  0  0  0  0
  5  4  2  0  0  0  0
  5  6  1  0  0  0  0
  6  7  2  0  0  0  0
  7 38  1  0  0  0  0
  7  2  1  0  0  0  0
  8  9  1  6  0  0  0
  8  5  1  0  0  0  0
 10 39  1  1  0  0  0
 10  8  1  0  0  0  0
 11 10  1  0  0  0  0
 12 40  1  1  0  0  0
 12 11  1  0  0  0  0
 13 14  1  0  0  0  0
 13 12  1  0  0  0  0
 14 15  2  0  0  0  0
 15 16  1  0  0  0  0
 15 11  1  0  0  0  0
 16 17  2  0  0  0  0
 18 23  1  0  0  0  0
 18 16  1  0  0  0  0
 19 18  1  0  0  0  0
 20 19  2  0  0  0  0
 21 19  1  0  0  0  0
 21 14  1  0  0  0  0
 22 43  1  0  0  0  0
 22 21  1  0  0  0  0
 23 44  1  0  0  0  0
 23 46  1  0  0  0  0
 24 47  1  0  0  0  0
 24 13  1  0  0  0  0
 25 12  1  0  0  0  0
 25 50  1  1  0  0  0
 25 26  1  0  0  0  0
 26 51  1  6  0  0  0
 26 27  1  0  0  0  0
 26 10  1  0  0  0  0
 27 29  1  0  0  0  0
 28 27  2  0  0  0  0
 29 30  1  0  0  0  0
 30 53  1  0  0  0  0
 30 52  1  0  0  0  0
 31 25  1  0  0  0  0
 32 31  2  0  0  0  0
 33 31  1  0  0  0  0
 34 33  1  0  0  0  0
 34 57  1  0  0  0  0
 36  4  1  0  0  0  0
 37  6  1  0  0  0  0
 41 22  1  0  0  0  0
 42 22  1  0  0  0  0
 45 23  1  0  0  0  0
 48 24  1  0  0  0  0
 49 24  1  0  0  0  0
 54 30  1  0  0  0  0
 55 34  1  0  0  0  0
 56 34  1  0  0  0  0
M  END
>  <Pose>
1

>  <Score>
-4.71

$$$$
