
 OpenBabel03222202113D

 45 48  0  0  0  0  0  0  0  0999 V2000
   18.1460   74.4690    6.0140 B   0  0  0  0  0  0  0  0  0  0  0  0
   18.6010   74.8990    7.8340 C   0  0  0  0  0  0  0  0  0  0  0  0
   18.1920   74.0830    8.8730 C   0  0  0  0  0  0  0  0  0  0  0  0
   18.5050   74.3720   10.1600 N   0  0  0  0  0  0  0  0  0  0  0  0
   19.2230   75.4590   10.4620 C   0  0  0  0  0  0  0  0  0  0  0  0
   19.5300   75.7410   11.7390 N   0  0  0  0  0  0  0  0  0  0  0  0
   19.1420   74.9620   12.7620 C   0  0  0  0  0  0  0  0  0  0  0  0
   18.4050   73.8460   12.4540 C   0  0  0  0  0  0  0  0  0  0  0  0
   18.0750   73.5350   11.1270 C   0  0  0  0  0  0  0  0  0  0  0  0
   17.4000   72.5060   10.8790 O   0  0  0  0  0  0  0  0  0  0  0  0
   19.5110   75.3260   14.1450 C   0  0  0  0  0  0  0  0  0  0  0  0
   20.8410   75.7670   14.1220 O   0  0  0  0  0  0  0  0  0  0  0  0
   21.0720   77.1670   14.0260 C   0  0  0  0  0  0  0  0  0  0  0  0
   20.7840   77.5900   12.9150 O   0  0  0  0  0  0  0  0  0  0  0  0
   21.5870   77.8690   15.1860 C   0  0  0  0  0  0  0  0  0  0  0  0
   22.7280   78.6150   15.0950 N   0  0  0  0  0  0  0  0  0  0  0  0
   23.2170   79.2640   16.1360 N   0  0  0  0  0  0  0  0  0  0  0  0
   22.6140   79.2200   17.3360 C   0  0  0  0  0  0  0  0  0  0  0  0
   23.0970   79.8510   18.3360 O   0  0  0  0  0  0  0  0  0  0  0  0
   21.4620   78.4910   17.5120 C   0  0  0  0  0  0  0  0  0  0  0  0
   20.9660   77.8150   16.3950 C   0  0  0  0  0  0  0  0  0  0  0  0
   19.8130   77.1010   16.6160 C   0  0  0  0  0  0  0  0  0  0  0  0
   19.1970   77.0620   17.8620 C   0  0  0  0  0  0  0  0  0  0  0  0
   19.7140   77.7390   18.9410 C   0  0  0  0  0  0  0  0  0  0  0  0
   20.8640   78.4600   18.7450 C   0  0  0  0  0  0  0  0  0  0  0  0
   24.4280   80.0510   16.0270 C   0  0  0  0  0  0  0  0  0  0  0  0
   25.6710   79.2300   16.2510 C   0  0  0  0  0  0  0  0  0  0  0  0
   26.7150   79.9730   16.7700 O   0  0  0  0  0  0  0  0  0  0  0  0
   19.6370   76.2790    9.4460 C   0  0  0  0  0  0  0  0  0  0  0  0
   19.3390   76.0200    8.1250 C   0  0  0  0  0  0  0  0  0  0  0  0
   17.6070   73.2010    8.6040 H   0  0  0  0  0  0  0  0  0  0  0  0
   18.0650   73.1810   13.2350 H   0  0  0  0  0  0  0  0  0  0  0  0
   18.8120   76.0550   14.5980 H   0  0  0  0  0  0  0  0  0  0  0  0
   19.3870   74.4000   14.7720 H   0  0  0  0  0  0  0  0  0  0  0  0
   19.3570   76.5540   15.8380 H   0  0  0  0  0  0  0  0  0  0  0  0
   18.2890   76.4830   17.9860 H   0  0  0  0  0  0  0  0  0  0  0  0
   19.2310   77.7110   19.9220 H   0  0  0  0  0  0  0  0  0  0  0  0
   21.2840   78.9970   19.5710 H   0  0  0  0  0  0  0  0  0  0  0  0
   24.4200   80.8560   16.7880 H   0  0  0  0  0  0  0  0  0  0  0  0
   24.4810   80.5270   15.0370 H   0  0  0  0  0  0  0  0  0  0  0  0
   25.9890   78.7080   15.3300 H   0  0  0  0  0  0  0  0  0  0  0  0
   25.4140   78.4520   16.9970 H   0  0  0  0  0  0  0  0  0  0  0  0
   27.5540   79.5900   16.4200 H   0  0  0  0  0  0  0  0  0  0  0  0
   20.2280   77.1780    9.6760 H   0  0  0  0  0  0  0  0  0  0  0  0
   19.6680   76.6690    7.3290 H   0  0  0  0  0  0  0  0  0  0  0  0
  1  2  1  0  0  0  0
  2 30  2  0  0  0  0
  2  3  1  0  0  0  0
  3  4  1  0  0  0  0
  4  5  1  0  0  0  0
  4  9  1  0  0  0  0
  5  6  1  0  0  0  0
  6  7  2  0  0  0  0
  7 11  1  0  0  0  0
  8  7  1  0  0  0  0
  8 32  1  0  0  0  0
  9  8  1  0  0  0  0
 10  9  2  0  0  0  0
 11 33  1  0  0  0  0
 11 34  1  0  0  0  0
 12 11  1  0  0  0  0
 13 12  1  0  0  0  0
 13 15  1  0  0  0  0
 14 13  2  0  0  0  0
 15 21  1  0  0  0  0
 16 15  2  0  0  0  0
 16 17  1  0  0  0  0
 17 18  1  0  0  0  0
 18 20  1  0  0  0  0
 18 19  2  0  0  0  0
 20 25  1  0  0  0  0
 21 22  1  0  0  0  0
 21 20  2  0  0  0  0
 22 23  2  0  0  0  0
 23 36  1  0  0  0  0
 23 24  1  0  0  0  0
 24 37  1  0  0  0  0
 25 24  2  0  0  0  0
 25 38  1  0  0  0  0
 26 17  1  0  0  0  0
 26 27  1  0  0  0  0
 26 39  1  0  0  0  0
 27 28  1  0  0  0  0
 27 42  1  0  0  0  0
 29 44  1  0  0  0  0
 29  5  2  0  0  0  0
 30 29  1  0  0  0  0
 31  3  1  0  0  0  0
 35 22  1  0  0  0  0
 40 26  1  0  0  0  0
 41 27  1  0  0  0  0
 43 28  1  0  0  0  0
 45 30  1  0  0  0  0
M  END
>  <Pose>
1

>  <Score>
-6.61

$$$$
