
 OpenBabel03222202113D

 55 58  0  0  1  0  0  0  0  0999 V2000
   16.3250   77.2620    6.2700 Cl  0  0  0  0  0  0  0  0  0  0  0  0
   17.7830   77.2700    7.2760 C   0  0  0  0  0  0  0  0  0  0  0  0
   18.2270   78.4600    7.8030 C   0  0  0  0  0  0  0  0  0  0  0  0
   19.3640   78.5090    8.5950 C   0  0  0  0  0  0  0  0  0  0  0  0
   20.0100   79.5010    9.2250 N   0  0  0  0  0  0  0  0  0  0  0  0
   21.1060   78.9840    9.8820 C   0  0  0  0  0  0  0  0  0  0  0  0
   21.0860   77.6810    9.6280 N   0  0  0  0  0  0  0  0  0  0  0  0
   20.0310   77.3310    8.8360 C   0  0  0  0  0  0  0  0  0  0  0  0
   19.5940   76.1330    8.3110 C   0  0  0  0  0  0  0  0  0  0  0  0
   18.4660   76.0970    7.5270 C   0  0  0  0  0  0  0  0  0  0  0  0
   22.0010   76.6690   10.1270 C   0  0  0  0  0  0  0  0  0  0  0  0
   22.0230   79.7830   10.7350 C   0  0  0  0  0  0  0  0  0  0  0  0
   22.7090   79.0780   11.8270 C   0  0  0  0  0  0  0  0  0  0  0  0
   22.8980   79.7890   13.0960 C   0  0  0  0  0  0  0  0  0  0  0  0
   23.2200   80.9970   13.1490 O   0  0  0  0  0  0  0  0  0  0  0  0
   22.7050   79.0650   14.3300 N   0  0  0  0  0  0  0  0  0  0  0  0
   21.5540   79.3620   15.1380 C   0  0  0  0  0  0  0  0  0  0  0  0
   22.0560   80.0090   16.4120 C   0  0  2  0  0  0  0  0  0  0  0  0
   23.3880   79.5150   16.8470 C   0  0  1  0  0  0  0  0  0  0  0  0
   23.8010   78.2030   16.2870 C   0  0  0  0  0  0  0  0  0  0  0  0
   23.5990   78.0500   14.8150 C   0  0  0  0  0  0  0  0  0  0  0  0
   24.4180   80.4350   16.5980 O   0  0  0  0  0  0  0  0  0  0  0  0
   23.3420   79.3660   18.3740 C   0  0  0  0  0  0  0  0  0  0  0  0
   21.0280   79.8660   17.4150 N   0  0  0  0  0  0  0  0  0  0  0  0
   20.6570   78.6410   17.8360 C   0  0  0  0  0  0  0  0  0  0  0  0
   19.6820   78.4570   18.7900 C   0  0  0  0  0  0  0  0  0  0  0  0
   19.0720   79.5680   19.3250 C   0  0  0  0  0  0  0  0  0  0  0  0
   18.1610   79.4650   20.2120 O   0  0  0  0  0  0  0  0  0  0  0  0
   19.4610   80.7750   18.8860 N   0  0  0  0  0  0  0  0  0  0  0  0
   20.4090   80.9260   17.9610 C   0  0  0  0  0  0  0  0  0  0  0  0
   20.7390   82.0870   17.5820 O   0  0  0  0  0  0  0  0  0  0  0  0
   17.7250   79.4070    7.6330 H   0  0  0  0  0  0  0  0  0  0  0  0
   20.1490   75.2430    8.5270 H   0  0  0  0  0  0  0  0  0  0  0  0
   18.0940   75.1740    7.0990 H   0  0  0  0  0  0  0  0  0  0  0  0
   22.6860   77.0480   10.8910 H   0  0  0  0  0  0  0  0  0  0  0  0
   21.4720   75.7720   10.5090 H   0  0  0  0  0  0  0  0  0  0  0  0
   22.5850   76.3110    9.2390 H   0  0  0  0  0  0  0  0  0  0  0  0
   21.4560   80.6820   11.0900 H   0  0  0  0  0  0  0  0  0  0  0  0
   22.7670   80.2270   10.0020 H   0  0  0  0  0  0  0  0  0  0  0  0
   22.3080   78.0380   11.9940 H   0  0  0  0  0  0  0  0  0  0  0  0
   23.7690   78.8690   11.4530 H   0  0  0  0  0  0  0  0  0  0  0  0
   20.9380   78.4620   15.3530 H   0  0  0  0  0  0  0  0  0  0  0  0
   20.8800   80.0610   14.6000 H   0  0  0  0  0  0  0  0  0  0  0  0
   22.1530   81.1050   16.1900 H   0  0  0  0  0  0  0  0  0  0  0  0
   24.9080   78.0930   16.4750 H   0  0  0  0  0  0  0  0  0  0  0  0
   23.3460   77.3650   16.8830 H   0  0  0  0  0  0  0  0  0  0  0  0
   23.0780   77.0600   14.6610 H   0  0  0  0  0  0  0  0  0  0  0  0
   24.5400   77.9840   14.2400 H   0  0  0  0  0  0  0  0  0  0  0  0
   24.9180   80.5770   17.4610 H   0  0  0  0  0  0  0  0  0  0  0  0
   24.4080   79.3660   18.7090 H   0  0  0  0  0  0  0  0  0  0  0  0
   22.8890   80.2760   18.8310 H   0  0  0  0  0  0  0  0  0  0  0  0
   22.8750   78.4300   18.6850 H   0  0  0  0  0  0  0  0  0  0  0  0
   21.1420   77.7550   17.4110 H   0  0  0  0  0  0  0  0  0  0  0  0
   19.3860   77.4740   19.1260 H   0  0  0  0  0  0  0  0  0  0  0  0
   19.0150   81.6600   19.2730 H   0  0  0  0  0  0  0  0  0  0  0  0
  1  2  1  0  0  0  0
  2 10  2  0  0  0  0
  2  3  1  0  0  0  0
  3  4  2  0  0  0  0
  4  8  1  0  0  0  0
  4  5  1  0  0  0  0
  5  6  2  0  0  0  0
  6 12  1  0  0  0  0
  7  6  1  0  0  0  0
  7 11  1  0  0  0  0
  8  7  1  0  0  0  0
  9 33  1  0  0  0  0
  9  8  2  0  0  0  0
 10  9  1  0  0  0  0
 11 36  1  0  0  0  0
 11 35  1  0  0  0  0
 12 38  1  0  0  0  0
 12 13  1  0  0  0  0
 13 40  1  0  0  0  0
 13 14  1  0  0  0  0
 14 15  2  0  0  0  0
 14 16  1  0  0  0  0
 16 21  1  0  0  0  0
 16 17  1  0  0  0  0
 17 42  1  0  0  0  0
 17 18  1  0  0  0  0
 18 44  1  6  0  0  0
 18 19  1  0  0  0  0
 18 24  1  0  0  0  0
 19 22  1  6  0  0  0
 19 23  1  0  0  0  0
 20 45  1  0  0  0  0
 20 19  1  0  0  0  0
 20 46  1  0  0  0  0
 21 20  1  0  0  0  0
 22 49  1  0  0  0  0
 23 52  1  0  0  0  0
 23 50  1  0  0  0  0
 23 51  1  0  0  0  0
 24 25  1  0  0  0  0
 24 30  1  0  0  0  0
 25 26  2  0  0  0  0
 26 54  1  0  0  0  0
 26 27  1  0  0  0  0
 27 28  2  0  0  0  0
 29 55  1  0  0  0  0
 29 27  1  0  0  0  0
 30 29  1  0  0  0  0
 31 30  2  0  0  0  0
 32  3  1  0  0  0  0
 34 10  1  0  0  0  0
 37 11  1  0  0  0  0
 39 12  1  0  0  0  0
 41 13  1  0  0  0  0
 43 17  1  0  0  0  0
 47 21  1  0  0  0  0
 48 21  1  0  0  0  0
 53 25  1  0  0  0  0
M  END
>  <Pose>
1

>  <Score>
-7.07

$$$$
