
 OpenBabel03222202113D

 49 52  0  0  0  0  0  0  0  0999 V2000
   14.3920   75.6130    5.4210 B   0  0  0  0  0  0  0  0  0  0  0  0
   16.1950   75.5680    6.0000 C   0  0  0  0  0  0  0  0  0  0  0  0
   16.7480   76.6990    6.5740 C   0  0  0  0  0  0  0  0  0  0  0  0
   18.0570   76.7310    7.0160 C   0  0  0  0  0  0  0  0  0  0  0  0
   18.8200   75.5810    6.8690 C   0  0  0  0  0  0  0  0  0  0  0  0
   18.2640   74.4610    6.2970 C   0  0  0  0  0  0  0  0  0  0  0  0
   16.9620   74.4110    5.8510 C   0  0  0  0  0  0  0  0  0  0  0  0
   18.6670   77.9050    7.6230 C   0  0  0  0  0  0  0  0  0  0  0  0
   19.1490   78.8030    6.8870 O   0  0  0  0  0  0  0  0  0  0  0  0
   18.7480   78.0960    9.0210 N   0  0  0  0  0  0  0  0  0  0  0  0
   19.8630   78.7810    9.6380 C   0  0  0  0  0  0  0  0  0  0  0  0
   20.1960   78.2020   10.9660 C   0  0  0  0  0  0  0  0  0  0  0  0
   19.3130   77.5010   11.5200 O   0  0  0  0  0  0  0  0  0  0  0  0
   21.4260   78.3970   11.6150 N   0  0  0  0  0  0  0  0  0  0  0  0
   22.2890   77.3020   11.9840 C   0  0  0  0  0  0  0  0  0  0  0  0
   22.3650   77.2950   13.4960 C   0  0  0  0  0  0  0  0  0  0  0  0
   22.7140   78.6770   13.9940 C   0  0  0  0  0  0  0  0  0  0  0  0
   21.6080   79.1560   14.7960 N   0  0  0  0  0  0  0  0  0  0  0  0
   21.8330   80.4000   15.4450 C   0  0  0  0  0  0  0  0  0  0  0  0
   23.1850   80.6320   16.0140 C   0  0  0  0  0  0  0  0  0  0  0  0
   24.1040   79.4790   15.9130 C   0  0  0  0  0  0  0  0  0  0  0  0
   25.2130   79.1160   16.6280 N   0  0  0  0  0  0  0  0  0  0  0  0
   25.6550   77.9710   16.0950 C   0  0  0  0  0  0  0  0  0  0  0  0
   24.8530   77.6190   15.0760 N   0  0  0  0  0  0  0  0  0  0  0  0
   23.8690   78.5420   14.9330 C   0  0  0  0  0  0  0  0  0  0  0  0
   23.0480   79.6570   12.9160 C   0  0  0  0  0  0  0  0  0  0  0  0
   21.8710   79.7280   11.9370 C   0  0  0  0  0  0  0  0  0  0  0  0
   16.1330   77.5580    6.6690 H   0  0  0  0  0  0  0  0  0  0  0  0
   19.8570   75.5210    7.1890 H   0  0  0  0  0  0  0  0  0  0  0  0
   18.8440   73.5520    6.1730 H   0  0  0  0  0  0  0  0  0  0  0  0
   16.5000   73.5610    5.4050 H   0  0  0  0  0  0  0  0  0  0  0  0
   17.9820   77.7330    9.6220 H   0  0  0  0  0  0  0  0  0  0  0  0
   19.6210   79.8490    9.8160 H   0  0  0  0  0  0  0  0  0  0  0  0
   20.7070   78.7220    8.9240 H   0  0  0  0  0  0  0  0  0  0  0  0
   23.3190   77.4580   11.5750 H   0  0  0  0  0  0  0  0  0  0  0  0
   21.9540   76.3310   11.5790 H   0  0  0  0  0  0  0  0  0  0  0  0
   23.0860   76.5350   13.8670 H   0  0  0  0  0  0  0  0  0  0  0  0
   21.3410   76.9890   13.8450 H   0  0  0  0  0  0  0  0  0  0  0  0
   20.7680   79.2620   14.1680 H   0  0  0  0  0  0  0  0  0  0  0  0
   21.1020   80.4510   16.3050 H   0  0  0  0  0  0  0  0  0  0  0  0
   21.5380   81.2780   14.8100 H   0  0  0  0  0  0  0  0  0  0  0  0
   23.1500   80.9300   17.1040 H   0  0  0  0  0  0  0  0  0  0  0  0
   23.6930   81.5180   15.5330 H   0  0  0  0  0  0  0  0  0  0  0  0
   25.6070   79.6720   17.4420 H   0  0  0  0  0  0  0  0  0  0  0  0
   26.5170   77.4170   16.4280 H   0  0  0  0  0  0  0  0  0  0  0  0
   23.9940   79.4550   12.4150 H   0  0  0  0  0  0  0  0  0  0  0  0
   23.1150   80.6590   13.3760 H   0  0  0  0  0  0  0  0  0  0  0  0
   22.1780   80.2360   11.0000 H   0  0  0  0  0  0  0  0  0  0  0  0
   21.1040   80.3430   12.4130 H   0  0  0  0  0  0  0  0  0  0  0  0
  1  2  1  0  0  0  0
  2  3  1  0  0  0  0
  3 28  1  0  0  0  0
  3  4  2  0  0  0  0
  4  8  1  0  0  0  0
  5  4  1  0  0  0  0
  5 29  1  0  0  0  0
  6  5  2  0  0  0  0
  7  2  2  0  0  0  0
  7  6  1  0  0  0  0
  8 10  1  0  0  0  0
  9  8  2  0  0  0  0
 10 32  1  0  0  0  0
 10 11  1  0  0  0  0
 11 33  1  0  0  0  0
 11 12  1  0  0  0  0
 12 13  2  0  0  0  0
 12 14  1  0  0  0  0
 14 27  1  0  0  0  0
 14 15  1  0  0  0  0
 15 16  1  0  0  0  0
 16 38  1  0  0  0  0
 16 37  1  0  0  0  0
 16 17  1  0  0  0  0
 17 18  1  0  0  0  0
 17 25  1  0  0  0  0
 18 19  1  0  0  0  0
 19 20  1  0  0  0  0
 19 40  1  0  0  0  0
 20 42  1  0  0  0  0
 21 20  1  0  0  0  0
 21 22  1  0  0  0  0
 22 44  1  0  0  0  0
 23 45  1  0  0  0  0
 23 22  1  0  0  0  0
 24 23  2  0  0  0  0
 25 24  1  0  0  0  0
 25 21  2  0  0  0  0
 26 47  1  0  0  0  0
 26 17  1  0  0  0  0
 27 49  1  0  0  0  0
 27 26  1  0  0  0  0
 30  6  1  0  0  0  0
 31  7  1  0  0  0  0
 34 11  1  0  0  0  0
 35 15  1  0  0  0  0
 36 15  1  0  0  0  0
 39 18  1  0  0  0  0
 41 19  1  0  0  0  0
 43 20  1  0  0  0  0
 46 26  1  0  0  0  0
 48 27  1  0  0  0  0
M  END
>  <Pose>
1

>  <Score>
-6.67

$$$$
