
 OpenBabel03222202113D

 51 54  0  0  1  0  0  0  0  0999 V2000
   21.3540   80.8410    9.6210 B   0  0  0  0  0  0  0  0  0  0  0  0
   21.2870   79.5740   11.0450 C   0  0  0  0  0  0  0  0  0  0  0  0
   22.2850   79.5160   12.0000 C   0  0  0  0  0  0  0  0  0  0  0  0
   22.2810   78.6190   13.0480 C   0  0  0  0  0  0  0  0  0  0  0  0
   21.1900   77.7470   13.0990 C   0  0  0  0  0  0  0  0  0  0  0  0
   20.1990   77.8050   12.1500 C   0  0  0  0  0  0  0  0  0  0  0  0
   20.2160   78.7080   11.1070 C   0  0  0  0  0  0  0  0  0  0  0  0
   19.1130   78.7260   10.1050 C   0  0  0  0  0  0  0  0  0  0  0  0
   21.2200   76.8610   14.1670 O   0  0  0  0  0  0  0  0  0  0  0  0
   22.3380   76.6650   15.0130 C   0  0  0  0  0  0  0  0  0  0  0  0
   22.9830   78.0400   15.3900 C   0  0  2  0  0  0  0  0  0  0  0  0
   23.3420   78.5470   14.0430 C   0  0  0  0  0  0  0  0  0  0  0  0
   24.4630   78.9210   13.6550 O   0  0  0  0  0  0  0  0  0  0  0  0
   23.9870   77.9410   16.3030 N   0  0  0  0  0  0  0  0  0  0  0  0
   24.3620   78.9680   17.1760 C   0  0  0  0  0  0  0  0  0  0  0  0
   25.6060   79.6600   16.6610 C   0  0  0  0  0  0  0  0  0  0  0  0
   26.6370   78.6930   16.7440 O   0  0  0  0  0  0  0  0  0  0  0  0
   26.3440   77.7890   15.7090 C   0  0  0  0  0  0  0  0  0  0  0  0
   25.0470   77.0620   16.0720 C   0  0  0  0  0  0  0  0  0  0  0  0
   21.8320   78.8120   15.9290 C   0  0  0  0  0  0  0  0  0  0  0  0
   21.7060   78.9450   17.3460 N   0  0  0  0  0  0  0  0  0  0  0  0
   21.1120   80.1190   17.8650 C   0  0  0  0  0  0  0  0  0  0  0  0
   19.5870   80.0760   17.6860 C   0  0  0  0  0  0  0  0  0  0  0  0
   19.1440   79.0340   18.5080 O   0  0  0  0  0  0  0  0  0  0  0  0
   19.5830   77.8420   17.9190 C   0  0  0  0  0  0  0  0  0  0  0  0
   21.0760   77.7360   17.8780 C   0  0  0  0  0  0  0  0  0  0  0  0
   23.1450   80.2050   11.9590 H   0  0  0  0  0  0  0  0  0  0  0  0
   19.3690   77.1130   12.2200 H   0  0  0  0  0  0  0  0  0  0  0  0
   19.4780   79.0050    9.0970 H   0  0  0  0  0  0  0  0  0  0  0  0
   18.6510   77.7120   10.1250 H   0  0  0  0  0  0  0  0  0  0  0  0
   18.3210   79.4320   10.4280 H   0  0  0  0  0  0  0  0  0  0  0  0
   21.9690   76.1520   15.9140 H   0  0  0  0  0  0  0  0  0  0  0  0
   23.1020   76.0310   14.5080 H   0  0  0  0  0  0  0  0  0  0  0  0
   23.6200   79.7150   17.4430 H   0  0  0  0  0  0  0  0  0  0  0  0
   24.6750   78.4950   18.1480 H   0  0  0  0  0  0  0  0  0  0  0  0
   25.4850   80.0280   15.6460 H   0  0  0  0  0  0  0  0  0  0  0  0
   25.8780   80.4430   17.3950 H   0  0  0  0  0  0  0  0  0  0  0  0
   27.1350   77.0190   15.7010 H   0  0  0  0  0  0  0  0  0  0  0  0
   26.2820   78.3710   14.7930 H   0  0  0  0  0  0  0  0  0  0  0  0
   25.3070   76.5920   17.0830 H   0  0  0  0  0  0  0  0  0  0  0  0
   24.9290   76.2110   15.4150 H   0  0  0  0  0  0  0  0  0  0  0  0
   20.8400   78.4090   15.5720 H   0  0  0  0  0  0  0  0  0  0  0  0
   21.8220   79.8780   15.5430 H   0  0  0  0  0  0  0  0  0  0  0  0
   21.4400   81.0380   17.4180 H   0  0  0  0  0  0  0  0  0  0  0  0
   21.2540   80.1190   18.9750 H   0  0  0  0  0  0  0  0  0  0  0  0
   19.2240   81.0650   18.0690 H   0  0  0  0  0  0  0  0  0  0  0  0
   19.2930   79.9430   16.6350 H   0  0  0  0  0  0  0  0  0  0  0  0
   19.2120   77.0280   18.6030 H   0  0  0  0  0  0  0  0  0  0  0  0
   19.1030   77.6710   16.9370 H   0  0  0  0  0  0  0  0  0  0  0  0
   21.4810   77.4730   18.8660 H   0  0  0  0  0  0  0  0  0  0  0  0
   21.3520   76.9150   17.1850 H   0  0  0  0  0  0  0  0  0  0  0  0
  1  2  1  0  0  0  0
  2  7  2  0  0  0  0
  2  3  1  0  0  0  0
  3  4  2  0  0  0  0
  4  5  1  0  0  0  0
  4 12  1  0  0  0  0
  5  9  1  0  0  0  0
  6 28  1  0  0  0  0
  6  5  2  0  0  0  0
  7  6  1  0  0  0  0
  8 30  1  0  0  0  0
  8 31  1  0  0  0  0
  8  7  1  0  0  0  0
  9 10  1  0  0  0  0
 10 11  1  0  0  0  0
 10 32  1  0  0  0  0
 11 20  1  1  0  0  0
 11 14  1  0  0  0  0
 12 11  1  0  0  0  0
 13 12  2  0  0  0  0
 14 15  1  0  0  0  0
 15 34  1  0  0  0  0
 15 35  1  0  0  0  0
 16 17  1  0  0  0  0
 16 15  1  0  0  0  0
 16 37  1  0  0  0  0
 18 19  1  0  0  0  0
 18 17  1  0  0  0  0
 19 14  1  0  0  0  0
 19 40  1  0  0  0  0
 20 21  1  0  0  0  0
 21 22  1  0  0  0  0
 21 26  1  0  0  0  0
 22 45  1  0  0  0  0
 23 22  1  0  0  0  0
 23 46  1  0  0  0  0
 23 24  1  0  0  0  0
 25 24  1  0  0  0  0
 25 48  1  0  0  0  0
 26 25  1  0  0  0  0
 26 50  1  0  0  0  0
 27  3  1  0  0  0  0
 29  8  1  0  0  0  0
 33 10  1  0  0  0  0
 36 16  1  0  0  0  0
 38 18  1  0  0  0  0
 39 18  1  0  0  0  0
 41 19  1  0  0  0  0
 42 20  1  0  0  0  0
 43 20  1  0  0  0  0
 44 22  1  0  0  0  0
 47 23  1  0  0  0  0
 49 25  1  0  0  0  0
 51 26  1  0  0  0  0
M  END
>  <Pose>
1

>  <Score>
-4.01

$$$$
