
 OpenBabel03222202113D

 38 41  0  0  0  0  0  0  0  0999 V2000
   16.1610   78.4660    6.4280 B   0  0  0  0  0  0  0  0  0  0  0  0
   17.6950   77.6550    7.1880 C   0  0  0  0  0  0  0  0  0  0  0  0
   17.9140   76.3380    6.9690 C   0  0  0  0  0  0  0  0  0  0  0  0
   17.2170   75.4180    6.2720 N   0  0  0  0  0  0  0  0  0  0  0  0
   17.9150   74.2950    6.4120 N   0  0  0  0  0  0  0  0  0  0  0  0
   18.9830   74.4640    7.1410 N   0  0  0  0  0  0  0  0  0  0  0  0
   19.0340   75.7650    7.5280 C   0  0  0  0  0  0  0  0  0  0  0  0
   19.9150   76.5180    8.2970 C   0  0  0  0  0  0  0  0  0  0  0  0
   19.7020   77.8270    8.5180 N   0  0  0  0  0  0  0  0  0  0  0  0
   18.6000   78.3770    7.9640 C   0  0  0  0  0  0  0  0  0  0  0  0
   20.5950   78.6540    9.3140 C   0  0  0  0  0  0  0  0  0  0  0  0
   20.3140   78.6340   10.7460 C   0  0  0  0  0  0  0  0  0  0  0  0
   19.1920   78.1550   11.0930 O   0  0  0  0  0  0  0  0  0  0  0  0
   21.1950   79.1110   11.8080 C   0  0  0  0  0  0  0  0  0  0  0  0
   21.3790   78.3330   12.9150 C   0  0  0  0  0  0  0  0  0  0  0  0
   22.1960   78.7580   13.9310 C   0  0  0  0  0  0  0  0  0  0  0  0
   22.8570   79.9710   13.8800 C   0  0  0  0  0  0  0  0  0  0  0  0
   22.6470   80.7410   12.7390 C   0  0  0  0  0  0  0  0  0  0  0  0
   21.8340   80.3200   11.7230 C   0  0  0  0  0  0  0  0  0  0  0  0
   23.6840   80.4200   14.8890 C   0  0  0  0  0  0  0  0  0  0  0  0
   23.8460   79.6070   15.9900 C   0  0  0  0  0  0  0  0  0  0  0  0
   23.1910   78.3940   16.0520 C   0  0  0  0  0  0  0  0  0  0  0  0
   22.3680   77.9520   15.0420 C   0  0  0  0  0  0  0  0  0  0  0  0
   16.0170   75.5130    5.5300 C   0  0  0  0  0  0  0  0  0  0  0  0
   20.7650   76.0280    8.7070 H   0  0  0  0  0  0  0  0  0  0  0  0
   18.4100   79.4260    8.1290 H   0  0  0  0  0  0  0  0  0  0  0  0
   21.6610   78.3370    9.1620 H   0  0  0  0  0  0  0  0  0  0  0  0
   20.5230   79.6940    8.9460 H   0  0  0  0  0  0  0  0  0  0  0  0
   20.8930   77.3560   13.0360 H   0  0  0  0  0  0  0  0  0  0  0  0
   23.1750   81.7050   12.7040 H   0  0  0  0  0  0  0  0  0  0  0  0
   21.6900   80.9530   10.8410 H   0  0  0  0  0  0  0  0  0  0  0  0
   24.1730   81.3790   14.7910 H   0  0  0  0  0  0  0  0  0  0  0  0
   24.4970   79.9430   16.8010 H   0  0  0  0  0  0  0  0  0  0  0  0
   23.3300   77.7680   16.9250 H   0  0  0  0  0  0  0  0  0  0  0  0
   21.8520   76.9880   15.1000 H   0  0  0  0  0  0  0  0  0  0  0  0
   15.6330   74.4920    5.3240 H   0  0  0  0  0  0  0  0  0  0  0  0
   16.2270   75.9480    4.5060 H   0  0  0  0  0  0  0  0  0  0  0  0
   15.1940   76.0760    5.9390 H   0  0  0  0  0  0  0  0  0  0  0  0
  1  2  1  0  0  0  0
  2 10  2  0  0  0  0
  3  2  1  0  0  0  0
  3  7  2  0  0  0  0
  4  5  1  0  0  0  0
  4  3  1  0  0  0  0
  5  6  2  0  0  0  0
  6  7  1  0  0  0  0
  7  8  1  0  0  0  0
  8  9  1  0  0  0  0
  8 25  1  0  0  0  0
  9 11  1  0  0  0  0
 10 26  1  0  0  0  0
 10  9  1  0  0  0  0
 11 12  1  0  0  0  0
 12 13  2  0  0  0  0
 12 14  1  0  0  0  0
 14 15  1  0  0  0  0
 15 29  1  0  0  0  0
 15 16  2  0  0  0  0
 16 23  1  0  0  0  0
 17 16  1  0  0  0  0
 17 20  1  0  0  0  0
 18 17  2  0  0  0  0
 19 14  2  0  0  0  0
 19 18  1  0  0  0  0
 20 21  2  0  0  0  0
 21 22  1  0  0  0  0
 21 33  1  0  0  0  0
 22 34  1  0  0  0  0
 23 35  1  0  0  0  0
 23 22  2  0  0  0  0
 24 38  1  0  0  0  0
 24  4  1  0  0  0  0
 27 11  1  0  0  0  0
 28 11  1  0  0  0  0
 30 18  1  0  0  0  0
 31 19  1  0  0  0  0
 32 20  1  0  0  0  0
 36 24  1  0  0  0  0
 37 24  1  0  0  0  0
M  END
>  <Pose>
1

>  <Score>
-6.38

$$$$
