
 OpenBabel03222202113D

 66 69  0  0  1  0  0  0  0  0999 V2000
   20.7340   75.5750   17.9330 B   0  0  0  0  0  0  0  0  0  0  0  0
   20.7640   77.4700   17.6420 C   0  0  0  0  0  0  0  0  0  0  0  0
   21.2470   77.9720   16.4580 C   0  0  0  0  0  0  0  0  0  0  0  0
   21.2870   79.3530   16.2040 C   0  0  0  0  0  0  0  0  0  0  0  0
   20.8160   80.1750   17.2050 C   0  0  0  0  0  0  0  0  0  0  0  0
   20.3270   79.6970   18.4020 C   0  0  0  0  0  0  0  0  0  0  0  0
   20.2980   78.3400   18.6270 C   0  0  0  0  0  0  0  0  0  0  0  0
   19.7900   77.7280   19.8820 C   0  0  0  0  0  0  0  0  0  0  0  0
   19.6810   80.8590   19.7700 B   0  0  0  0  0  0  0  0  0  0  0  0
   21.8080   79.8400   14.9440 C   0  0  0  0  0  0  0  0  0  0  0  0
   21.7510   81.0430   14.6700 O   0  0  0  0  0  0  0  0  0  0  0  0
   22.4050   78.8870   13.9900 C   0  0  1  0  0  0  0  0  0  0  0  0
   21.6560   77.5810   14.1360 C   0  0  0  0  0  0  0  0  0  0  0  0
   21.7140   77.1100   15.4700 O   0  0  0  0  0  0  0  0  0  0  0  0
   22.4000   79.3720   12.5720 C   0  0  0  0  0  0  0  0  0  0  0  0
   22.1040   78.4040   11.5870 N   0  0  0  0  0  4  0  0  0  0  0  0
   20.7360   78.5260   11.1760 C   0  0  0  0  0  0  0  0  0  0  0  0
   20.4230   79.7310   10.3630 C   0  0  2  0  0  0  0  0  0  0  0  0
   21.5730   80.5360    9.8950 C   0  0  0  0  0  0  0  0  0  0  0  0
   22.8780   79.8460    9.8110 C   0  0  0  0  0  0  0  0  0  0  0  0
   22.9020   78.4640   10.3930 C   0  0  0  0  0  0  0  0  0  0  0  0
   19.5330   80.6450   11.2140 C   0  0  0  0  0  0  0  0  0  0  0  0
   23.8290   78.6670   14.4580 C   0  0  0  0  0  0  0  0  0  0  0  0
   23.9710   77.8450   15.6110 N   0  0  0  0  0  4  0  0  0  0  0  0
   24.1500   78.6710   16.8030 C   0  0  0  0  0  0  0  0  0  0  0  0
   25.5850   78.7540   17.2360 C   0  0  1  0  0  0  0  0  0  0  0  0
   26.4720   78.9160   16.0230 C   0  0  0  0  0  0  0  0  0  0  0  0
   26.3960   77.6480   15.2290 C   0  0  0  0  0  0  0  0  0  0  0  0
   25.1040   76.9460   15.5640 C   0  0  0  0  0  0  0  0  0  0  0  0
   25.7330   80.0440   18.0530 C   0  0  0  0  0  0  0  0  0  0  0  0
   20.8230   81.2520   17.0630 H   0  0  0  0  0  0  0  0  0  0  0  0
   18.9030   77.1080   19.6220 H   0  0  0  0  0  0  0  0  0  0  0  0
   19.5990   78.4590   20.6690 H   0  0  0  0  0  0  0  0  0  0  0  0
   20.5760   76.9860   20.2000 H   0  0  0  0  0  0  0  0  0  0  0  0
   20.5910   77.6990   13.8860 H   0  0  0  0  0  0  0  0  0  0  0  0
   22.0480   76.8070   13.4190 H   0  0  0  0  0  0  0  0  0  0  0  0
   21.6260   80.1670   12.5190 H   0  0  0  0  0  0  0  0  0  0  0  0
   23.3660   79.8840   12.3840 H   0  0  0  0  0  0  0  0  0  0  0  0
   22.2220   77.4380   11.9840 H   0  0  0  0  0  0  0  0  0  0  0  0
   20.4940   77.5830   10.6020 H   0  0  0  0  0  0  0  0  0  0  0  0
   20.1020   78.4640   12.0850 H   0  0  0  0  0  0  0  0  0  0  0  0
   19.7780   79.4180    9.5110 H   0  0  0  0  0  0  0  0  0  0  0  0
   21.3200   80.9310    8.8690 H   0  0  0  0  0  0  0  0  0  0  0  0
   21.6970   81.4790   10.5080 H   0  0  0  0  0  0  0  0  0  0  0  0
   23.7040   80.4580   10.2800 H   0  0  0  0  0  0  0  0  0  0  0  0
   23.2240   79.7350    8.7390 H   0  0  0  0  0  0  0  0  0  0  0  0
   23.9160   78.0930   10.4680 H   0  0  0  0  0  0  0  0  0  0  0  0
   22.3800   77.8000    9.6400 H   0  0  0  0  0  0  0  0  0  0  0  0
   18.8090   81.2010   10.5680 H   0  0  0  0  0  0  0  0  0  0  0  0
   19.0450   80.0560   12.0020 H   0  0  0  0  0  0  0  0  0  0  0  0
   20.1930   81.3850   11.7040 H   0  0  0  0  0  0  0  0  0  0  0  0
   24.2300   79.6950   14.6900 H   0  0  0  0  0  0  0  0  0  0  0  0
   24.4580   78.3270   13.5870 H   0  0  0  0  0  0  0  0  0  0  0  0
   23.1240   77.2920   15.7670 H   0  0  0  0  0  0  0  0  0  0  0  0
   23.5470   78.3050   17.6500 H   0  0  0  0  0  0  0  0  0  0  0  0
   23.8180   79.7250   16.6050 H   0  0  0  0  0  0  0  0  0  0  0  0
   25.9010   77.9390   17.9000 H   0  0  0  0  0  0  0  0  0  0  0  0
   27.5000   79.1040   16.3940 H   0  0  0  0  0  0  0  0  0  0  0  0
   26.1400   79.8030   15.4750 H   0  0  0  0  0  0  0  0  0  0  0  0
   26.5330   77.7600   14.1560 H   0  0  0  0  0  0  0  0  0  0  0  0
   27.2190   76.9650   15.5850 H   0  0  0  0  0  0  0  0  0  0  0  0
   25.1810   76.5010   16.5980 H   0  0  0  0  0  0  0  0  0  0  0  0
   24.9990   76.1000   14.8840 H   0  0  0  0  0  0  0  0  0  0  0  0
   24.7680   80.2840   18.5590 H   0  0  0  0  0  0  0  0  0  0  0  0
   26.0840   80.8830   17.4160 H   0  0  0  0  0  0  0  0  0  0  0  0
   26.4950   79.9220   18.8500 H   0  0  0  0  0  0  0  0  0  0  0  0
  2  1  1  0  0  0  0
  2  7  1  0  0  0  0
  3  2  2  0  0  0  0
  4  3  1  0  0  0  0
  4  5  2  0  0  0  0
  5  6  1  0  0  0  0
  6  7  2  0  0  0  0
  6  9  1  0  0  0  0
  7  8  1  0  0  0  0
  8 34  1  0  0  0  0
  8 33  1  0  0  0  0
 10  4  1  0  0  0  0
 11 10  2  0  0  0  0
 12 15  1  6  0  0  0
 12 13  1  0  0  0  0
 12 23  1  0  0  0  0
 12 10  1  0  0  0  0
 13 14  1  0  0  0  0
 14  3  1  0  0  0  0
 16 39  1  0  0  0  0
 16 15  1  0  0  0  0
 17 16  1  0  0  0  0
 17 41  1  0  0  0  0
 18 42  1  6  0  0  0
 18 17  1  0  0  0  0
 18 22  1  0  0  0  0
 19 18  1  0  0  0  0
 19 44  1  0  0  0  0
 20 19  1  0  0  0  0
 20 45  1  0  0  0  0
 20 21  1  0  0  0  0
 21 47  1  0  0  0  0
 21 16  1  0  0  0  0
 22 51  1  0  0  0  0
 22 50  1  0  0  0  0
 23 52  1  0  0  0  0
 23 24  1  0  0  0  0
 24 54  1  0  0  0  0
 24 25  1  0  0  0  0
 25 26  1  0  0  0  0
 25 55  1  0  0  0  0
 26 57  1  1  0  0  0
 26 30  1  0  0  0  0
 27 58  1  0  0  0  0
 27 26  1  0  0  0  0
 28 29  1  0  0  0  0
 28 61  1  0  0  0  0
 28 27  1  0  0  0  0
 29 24  1  0  0  0  0
 29 62  1  0  0  0  0
 30 64  1  0  0  0  0
 30 66  1  0  0  0  0
 31  5  1  0  0  0  0
 32  8  1  0  0  0  0
 35 13  1  0  0  0  0
 36 13  1  0  0  0  0
 37 15  1  0  0  0  0
 38 15  1  0  0  0  0
 40 17  1  0  0  0  0
 43 19  1  0  0  0  0
 46 20  1  0  0  0  0
 48 21  1  0  0  0  0
 49 22  1  0  0  0  0
 53 23  1  0  0  0  0
 56 25  1  0  0  0  0
 59 27  1  0  0  0  0
 60 28  1  0  0  0  0
 63 29  1  0  0  0  0
 65 30  1  0  0  0  0
M  END
>  <Pose>
1

>  <Score>
-4.88

$$$$
