
 OpenBabel03222202113D

 55 58  0  0  1  0  0  0  0  0999 V2000
   20.2790   77.5300   10.1880 Cl  0  0  0  0  0  0  0  0  0  0  0  0
   21.1100   78.6850   11.2250 C   0  0  0  0  0  0  0  0  0  0  0  0
   21.6700   78.3180   12.4200 C   0  0  0  0  0  0  0  0  0  0  0  0
   22.3080   79.2610   13.1930 C   0  0  0  0  0  0  0  0  0  0  0  0
   22.3600   80.5500   12.7320 C   0  0  0  0  0  0  0  0  0  0  0  0
   21.7890   80.9220   11.5120 C   0  0  0  0  0  0  0  0  0  0  0  0
   21.1580   79.9790   10.7550 C   0  0  0  0  0  0  0  0  0  0  0  0
   23.0590   81.4140   13.6210 N   0  0  0  0  0  0  0  0  0  0  0  0
   23.4660   80.6170   14.6990 C   0  0  0  0  0  0  0  0  0  0  0  0
   24.1370   81.0950   15.6720 O   0  0  0  0  0  0  0  0  0  0  0  0
   23.0050   79.2360   14.5010 C   0  0  2  0  0  0  0  0  0  0  0  0
   24.1610   78.3840   14.4850 N   0  0  0  0  0  0  0  0  0  0  0  0
   24.1470   77.5630   15.6560 C   0  0  2  0  0  0  0  0  0  0  0  0
   23.1200   78.1260   16.5840 C   0  0  0  0  0  0  0  0  0  0  0  0
   22.1770   78.8140   15.6360 C   0  0  2  0  0  0  0  0  0  0  0  0
   20.9830   77.9920   15.3130 C   0  0  0  0  0  0  0  0  0  0  0  0
   20.8750   77.6250   14.1180 O   0  0  0  0  0  0  0  0  0  0  0  0
   20.0120   77.6270   16.2530 N   0  0  0  0  0  0  0  0  0  0  0  0
   20.0010   77.8430   17.6320 C   0  0  0  0  0  0  0  0  0  0  0  0
   19.7380   79.1160   18.1170 C   0  0  0  0  0  0  0  0  0  0  0  0
   19.7100   79.4010   19.4670 C   0  0  0  0  0  0  0  0  0  0  0  0
   19.9450   78.4250   20.4030 C   0  0  0  0  0  0  0  0  0  0  0  0
   20.2070   77.1630   19.9560 C   0  0  0  0  0  0  0  0  0  0  0  0
   20.2320   76.8890   18.5910 C   0  0  0  0  0  0  0  0  0  0  0  0
   20.4480   76.1510   20.8680 O   0  0  0  0  0  0  0  0  0  0  0  0
   19.9380   74.8390   20.7080 C   0  0  0  0  0  0  0  0  0  0  0  0
   19.4920   80.1530   17.2350 O   0  0  0  0  0  0  0  0  0  0  0  0
   20.1750   81.3690   17.2450 C   0  0  0  0  0  0  0  0  0  0  0  0
   25.5200   77.4820   16.3040 C   0  0  0  0  0  0  0  0  0  0  0  0
   25.9130   78.7570   16.9200 C   0  0  0  0  0  0  0  0  0  0  0  0
   25.2130   79.2670   17.8090 O   0  0  0  0  0  0  0  0  0  0  0  0
   27.0910   79.4020   16.5000 N   0  0  0  0  0  0  0  0  0  0  0  0
   21.6070   77.3090   12.7420 H   0  0  0  0  0  0  0  0  0  0  0  0
   21.8410   81.9580   11.1600 H   0  0  0  0  0  0  0  0  0  0  0  0
   20.7140   80.2740    9.8040 H   0  0  0  0  0  0  0  0  0  0  0  0
   23.2380   82.4460   13.4990 H   0  0  0  0  0  0  0  0  0  0  0  0
   24.2250   77.8520   13.5920 H   0  0  0  0  0  0  0  0  0  0  0  0
   23.8510   76.5130   15.4110 H   0  0  0  0  0  0  0  0  0  0  0  0
   23.5440   78.9140   17.2570 H   0  0  0  0  0  0  0  0  0  0  0  0
   22.6030   77.3460   17.1860 H   0  0  0  0  0  0  0  0  0  0  0  0
   21.7930   79.7590   16.1410 H   0  0  0  0  0  0  0  0  0  0  0  0
   19.1690   77.1220   15.8390 H   0  0  0  0  0  0  0  0  0  0  0  0
   19.5010   80.4150   19.8230 H   0  0  0  0  0  0  0  0  0  0  0  0
   19.9240   78.6460   21.4570 H   0  0  0  0  0  0  0  0  0  0  0  0
   20.4430   75.8850   18.3300 H   0  0  0  0  0  0  0  0  0  0  0  0
   20.1390   74.4340   19.6980 H   0  0  0  0  0  0  0  0  0  0  0  0
   18.8470   74.9000   20.9000 H   0  0  0  0  0  0  0  0  0  0  0  0
   20.3660   74.1390   21.4430 H   0  0  0  0  0  0  0  0  0  0  0  0
   21.2200   81.1570   16.8880 H   0  0  0  0  0  0  0  0  0  0  0  0
   19.6990   82.0550   16.5150 H   0  0  0  0  0  0  0  0  0  0  0  0
   20.2800   81.8250   18.2410 H   0  0  0  0  0  0  0  0  0  0  0  0
   26.2690   77.1300   15.5620 H   0  0  0  0  0  0  0  0  0  0  0  0
   25.5090   76.7170   17.1080 H   0  0  0  0  0  0  0  0  0  0  0  0
   27.0990   79.8490   15.5580 H   0  0  0  0  0  0  0  0  0  0  0  0
   27.9690   79.4660   17.0700 H   0  0  0  0  0  0  0  0  0  0  0  0
  1  2  1  0  0  0  0
  2  3  1  0  0  0  0
  3 33  1  0  0  0  0
  3  4  2  0  0  0  0
  5  4  1  0  0  0  0
  5  8  1  0  0  0  0
  6  5  2  0  0  0  0
  7  2  2  0  0  0  0
  7  6  1  0  0  0  0
  8  9  1  0  0  0  0
  9 10  2  0  0  0  0
 11  4  1  6  0  0  0
 11  9  1  0  0  0  0
 11 15  1  0  0  0  0
 12 11  1  0  0  0  0
 12 13  1  0  0  0  0
 13 38  1  6  0  0  0
 13 29  1  0  0  0  0
 13 14  1  0  0  0  0
 14 40  1  0  0  0  0
 14 39  1  0  0  0  0
 15 41  1  1  0  0  0
 15 14  1  0  0  0  0
 16 15  1  0  0  0  0
 16 18  1  0  0  0  0
 17 16  2  0  0  0  0
 18 19  1  0  0  0  0
 19 20  2  0  0  0  0
 19 24  1  0  0  0  0
 20 21  1  0  0  0  0
 21 43  1  0  0  0  0
 21 22  2  0  0  0  0
 22 44  1  0  0  0  0
 23 22  1  0  0  0  0
 23 25  1  0  0  0  0
 24 23  2  0  0  0  0
 26 25  1  0  0  0  0
 26 47  1  0  0  0  0
 26 48  1  0  0  0  0
 27 28  1  0  0  0  0
 27 20  1  0  0  0  0
 28 51  1  0  0  0  0
 29 30  1  0  0  0  0
 29 53  1  0  0  0  0
 30 31  2  0  0  0  0
 32 30  1  0  0  0  0
 32 55  1  0  0  0  0
 34  6  1  0  0  0  0
 35  7  1  0  0  0  0
 36  8  1  0  0  0  0
 37 12  1  0  0  0  0
 42 18  1  0  0  0  0
 45 24  1  0  0  0  0
 46 26  1  0  0  0  0
 49 28  1  0  0  0  0
 50 28  1  0  0  0  0
 52 29  1  0  0  0  0
 54 32  1  0  0  0  0
M  END
>  <Pose>
1

>  <Score>
-6.11

$$$$
