
 OpenBabel03222202113D

 56 59  0  0  1  0  0  0  0  0999 V2000
   20.1340   81.3100   19.7410 B   0  0  0  0  0  0  0  0  0  0  0  0
   20.2740   79.5940   18.9450 C   0  0  0  0  0  0  0  0  0  0  0  0
   20.9870   79.4410   17.7510 C   0  0  0  0  0  0  0  0  0  0  0  0
   21.1190   78.2110   17.1530 C   0  0  0  0  0  0  0  0  0  0  0  0
   20.5240   77.1370   17.7700 C   0  0  0  0  0  0  0  0  0  0  0  0
   19.8080   77.2620   18.9590 C   0  0  0  0  0  0  0  0  0  0  0  0
   19.6840   78.5190   19.5580 C   0  0  0  0  0  0  0  0  0  0  0  0
   18.9260   78.6630   20.8310 C   0  0  0  0  0  0  0  0  0  0  0  0
   19.1640   76.0720   19.5760 C   0  0  0  0  0  0  0  0  0  0  0  0
   21.8910   77.9490   15.9050 C   0  0  2  0  0  0  0  0  0  0  0  0
   22.3550   79.1810   15.1900 C   0  0  2  0  0  0  0  0  0  0  0  0
   21.5050   80.3550   15.6390 C   0  0  0  0  0  0  0  0  0  0  0  0
   21.5990   80.4900   17.0810 O   0  0  0  0  0  0  0  0  0  0  0  0
   22.0910   78.9580   13.7840 N   0  0  0  0  0  0  0  0  0  0  0  0
   23.2560   79.0150   12.9660 C   0  0  0  0  0  0  0  0  0  0  0  0
   23.0080   79.1870   11.4950 C   0  0  0  0  0  0  0  0  0  0  0  0
   21.9570   80.0020   11.1710 O   0  0  0  0  0  0  0  0  0  0  0  0
   20.8070   79.4830   11.7810 C   0  0  0  0  0  0  0  0  0  0  0  0
   21.0280   79.7800   13.2870 C   0  0  0  0  0  0  0  0  0  0  0  0
   23.7480   79.6040   15.4580 C   0  0  0  0  0  0  0  0  0  0  0  0
   24.8700   78.8890   15.0570 N   0  0  0  0  0  0  0  0  0  0  0  0
   25.9980   79.1480   16.0170 C   0  0  0  0  0  0  0  0  0  0  0  0
   25.6000   78.8320   17.4110 C   0  0  0  0  0  0  0  0  0  0  0  0
   24.6890   77.8170   17.5370 O   0  0  0  0  0  0  0  0  0  0  0  0
   24.6560   76.9110   16.5180 C   0  0  0  0  0  0  0  0  0  0  0  0
   24.8470   77.4390   15.1330 C   0  0  0  0  0  0  0  0  0  0  0  0
   21.0470   77.1740   15.0500 O   0  0  0  0  0  0  0  0  0  0  0  0
   20.5680   76.1100   17.3710 H   0  0  0  0  0  0  0  0  0  0  0  0
   17.8650   78.4110   20.7620 H   0  0  0  0  0  0  0  0  0  0  0  0
   18.9840   79.7300   21.1560 H   0  0  0  0  0  0  0  0  0  0  0  0
   19.4680   78.0030   21.5690 H   0  0  0  0  0  0  0  0  0  0  0  0
   18.2780   75.8060   18.9310 H   0  0  0  0  0  0  0  0  0  0  0  0
   19.8130   75.1890   19.6300 H   0  0  0  0  0  0  0  0  0  0  0  0
   18.7630   76.3720   20.5710 H   0  0  0  0  0  0  0  0  0  0  0  0
   22.6710   77.2490   16.2030 H   0  0  0  0  0  0  0  0  0  0  0  0
   20.4550   80.3000   15.3900 H   0  0  0  0  0  0  0  0  0  0  0  0
   22.0140   81.2750   15.2550 H   0  0  0  0  0  0  0  0  0  0  0  0
   23.8070   78.0610   13.0660 H   0  0  0  0  0  0  0  0  0  0  0  0
   23.8260   79.9110   13.2790 H   0  0  0  0  0  0  0  0  0  0  0  0
   22.9570   78.2240   10.9480 H   0  0  0  0  0  0  0  0  0  0  0  0
   23.9220   79.6840   11.0660 H   0  0  0  0  0  0  0  0  0  0  0  0
   19.9510   80.0850   11.4680 H   0  0  0  0  0  0  0  0  0  0  0  0
   20.7160   78.3940   11.6240 H   0  0  0  0  0  0  0  0  0  0  0  0
   21.3350   80.8560   13.2710 H   0  0  0  0  0  0  0  0  0  0  0  0
   20.0600   79.5870   13.7470 H   0  0  0  0  0  0  0  0  0  0  0  0
   23.7810   79.6190   16.6190 H   0  0  0  0  0  0  0  0  0  0  0  0
   23.8660   80.6980   15.2420 H   0  0  0  0  0  0  0  0  0  0  0  0
   26.3630   80.1810   15.8720 H   0  0  0  0  0  0  0  0  0  0  0  0
   26.8240   78.4840   15.7030 H   0  0  0  0  0  0  0  0  0  0  0  0
   26.5000   78.6230   18.0610 H   0  0  0  0  0  0  0  0  0  0  0  0
   25.1370   79.7550   17.8410 H   0  0  0  0  0  0  0  0  0  0  0  0
   23.6730   76.4050   16.5530 H   0  0  0  0  0  0  0  0  0  0  0  0
   25.4180   76.1220   16.7800 H   0  0  0  0  0  0  0  0  0  0  0  0
   25.9460   77.1700   14.8920 H   0  0  0  0  0  0  0  0  0  0  0  0
   24.3170   76.9120   14.3580 H   0  0  0  0  0  0  0  0  0  0  0  0
   21.3840   76.2450   15.0840 H   0  0  0  0  0  0  0  0  0  0  0  0
  2  7  1  0  0  0  0
  2  1  1  0  0  0  0
  3  2  2  0  0  0  0
  4  3  1  0  0  0  0
  4  5  2  0  0  0  0
  5  6  1  0  0  0  0
  6  7  2  0  0  0  0
  6  9  1  0  0  0  0
  7  8  1  0  0  0  0
  8 30  1  0  0  0  0
  8 31  1  0  0  0  0
  9 33  1  0  0  0  0
  9 34  1  0  0  0  0
 10 35  1  1  0  0  0
 10  4  1  0  0  0  0
 11 20  1  1  0  0  0
 11 12  1  0  0  0  0
 11 10  1  0  0  0  0
 12 13  1  0  0  0  0
 13  3  1  0  0  0  0
 14 11  1  0  0  0  0
 15 38  1  0  0  0  0
 15 39  1  0  0  0  0
 15 14  1  0  0  0  0
 16 15  1  0  0  0  0
 17 16  1  0  0  0  0
 17 18  1  0  0  0  0
 18 19  1  0  0  0  0
 19 45  1  0  0  0  0
 19 14  1  0  0  0  0
 20 46  1  0  0  0  0
 21 26  1  0  0  0  0
 21 20  1  0  0  0  0
 21 22  1  0  0  0  0
 22 23  1  0  0  0  0
 23 24  1  0  0  0  0
 23 51  1  0  0  0  0
 23 50  1  0  0  0  0
 25 52  1  0  0  0  0
 25 53  1  0  0  0  0
 25 24  1  0  0  0  0
 26 25  1  0  0  0  0
 27 56  1  0  0  0  0
 27 10  1  0  0  0  0
 28  5  1  0  0  0  0
 29  8  1  0  0  0  0
 32  9  1  0  0  0  0
 36 12  1  0  0  0  0
 37 12  1  0  0  0  0
 40 16  1  0  0  0  0
 41 16  1  0  0  0  0
 42 18  1  0  0  0  0
 43 18  1  0  0  0  0
 44 19  1  0  0  0  0
 47 20  1  0  0  0  0
 48 22  1  0  0  0  0
 49 22  1  0  0  0  0
 54 26  1  0  0  0  0
 55 26  1  0  0  0  0
M  END
>  <Pose>
1

>  <Score>
-4.67

$$$$
