
 OpenBabel03222202113D

 46 49  0  0  0  0  0  0  0  0999 V2000
   20.0230   75.9180   14.5950 B   0  0  0  0  0  0  0  0  0  0  0  0
   20.7990   77.4190   13.7050 C   0  0  0  0  0  0  0  0  0  0  0  0
   21.5730   78.3360   14.3350 N   0  0  0  0  0  0  0  0  0  0  0  0
   21.9180   79.2180   13.3710 C   0  0  0  0  0  0  0  0  0  0  0  0
   21.3690   78.8610   12.1570 C   0  0  0  0  0  0  0  0  0  0  0  0
   20.6730   77.7260   12.4010 N   0  0  0  0  0  0  0  0  0  0  0  0
   21.5640   79.5820   11.0290 N   0  0  0  0  0  0  0  0  0  0  0  0
   22.3260   80.6870   11.1150 C   0  0  0  0  0  0  0  0  0  0  0  0
   22.5510   81.4080   10.1070 O   0  0  0  0  0  0  0  0  0  0  0  0
   22.8840   81.0710   12.2960 N   0  0  0  0  0  0  0  0  0  0  0  0
   22.6950   80.3630   13.4190 C   0  0  0  0  0  0  0  0  0  0  0  0
   23.1860   80.6740   14.5270 O   0  0  0  0  0  0  0  0  0  0  0  0
   20.9800   79.1910    9.7600 C   0  0  0  0  0  0  0  0  0  0  0  0
   21.9640   78.3910   15.7230 C   0  0  0  0  0  0  0  0  0  0  0  0
   20.8210   78.8770   16.6040 C   0  0  0  0  0  0  0  0  0  0  0  0
   21.3230   79.8030   17.6790 C   0  0  0  0  0  0  0  0  0  0  0  0
   20.8880   81.2310   17.5330 C   0  0  0  0  0  0  0  0  0  0  0  0
   20.2440   81.6810   18.7220 N   0  0  0  0  0  0  0  0  0  0  0  0
   20.0050   82.9120   19.1700 C   0  0  0  0  0  0  0  0  0  0  0  0
   19.3080   82.8240   20.3700 C   0  0  0  0  0  0  0  0  0  0  0  0
   19.1530   81.5240   20.6020 N   0  0  0  0  0  0  0  0  0  0  0  0
   19.7120   80.8150   19.6200 C   0  0  0  0  0  0  0  0  0  0  0  0
   19.7250   78.9100   19.5470 B   0  0  0  0  0  0  0  0  0  0  0  0
   18.9470   83.9250   21.0340 N   0  0  0  0  0  0  0  0  0  0  0  0
   19.2500   85.1500   20.5620 C   0  0  0  0  0  0  0  0  0  0  0  0
   18.9060   86.1810   21.1930 O   0  0  0  0  0  0  0  0  0  0  0  0
   19.9200   85.2490   19.4100 N   0  0  0  0  0  0  0  0  0  0  0  0
   20.3010   84.1690   18.7120 C   0  0  0  0  0  0  0  0  0  0  0  0
   20.9290   84.2820   17.6400 O   0  0  0  0  0  0  0  0  0  0  0  0
   18.2150   83.8610   22.2950 C   0  0  0  0  0  0  0  0  0  0  0  0
   23.4700   81.9380   12.3230 H   0  0  0  0  0  0  0  0  0  0  0  0
   20.7090   78.1150    9.7480 H   0  0  0  0  0  0  0  0  0  0  0  0
   20.0110   79.7470    9.6030 H   0  0  0  0  0  0  0  0  0  0  0  0
   21.6690   79.3470    8.9050 H   0  0  0  0  0  0  0  0  0  0  0  0
   22.8750   78.9680   15.8720 H   0  0  0  0  0  0  0  0  0  0  0  0
   22.1580   77.3340   16.0380 H   0  0  0  0  0  0  0  0  0  0  0  0
   20.1130   79.5060   15.9870 H   0  0  0  0  0  0  0  0  0  0  0  0
   20.2450   78.0490   17.0340 H   0  0  0  0  0  0  0  0  0  0  0  0
   21.0730   79.3820   18.6780 H   0  0  0  0  0  0  0  0  0  0  0  0
   22.4530   79.8380   17.6860 H   0  0  0  0  0  0  0  0  0  0  0  0
   21.8110   81.8210   17.3080 H   0  0  0  0  0  0  0  0  0  0  0  0
   20.2620   81.3130   16.6240 H   0  0  0  0  0  0  0  0  0  0  0  0
   20.1780   86.1930   19.0030 H   0  0  0  0  0  0  0  0  0  0  0  0
   17.9030   82.8040   22.4440 H   0  0  0  0  0  0  0  0  0  0  0  0
   17.3140   84.5000   22.1580 H   0  0  0  0  0  0  0  0  0  0  0  0
   18.8230   84.2230   23.1400 H   0  0  0  0  0  0  0  0  0  0  0  0
  2  3  1  0  0  0  0
  2  1  1  0  0  0  0
  3 14  1  0  0  0  0
  4 11  1  0  0  0  0
  4  3  1  0  0  0  0
  5  6  1  0  0  0  0
  5  4  2  0  0  0  0
  6  2  2  0  0  0  0
  7  8  1  0  0  0  0
  7  5  1  0  0  0  0
  8 10  1  0  0  0  0
  9  8  2  0  0  0  0
 10 31  1  0  0  0  0
 10 11  1  0  0  0  0
 11 12  2  0  0  0  0
 13  7  1  0  0  0  0
 14 35  1  0  0  0  0
 14 36  1  0  0  0  0
 14 15  1  0  0  0  0
 15 38  1  0  0  0  0
 15 16  1  0  0  0  0
 16 40  1  0  0  0  0
 16 39  1  0  0  0  0
 17 16  1  0  0  0  0
 17 18  1  0  0  0  0
 18 19  1  0  0  0  0
 18 22  1  0  0  0  0
 19 20  2  0  0  0  0
 20 21  1  0  0  0  0
 20 24  1  0  0  0  0
 22 21  2  0  0  0  0
 23 22  1  0  0  0  0
 24 30  1  0  0  0  0
 25 24  1  0  0  0  0
 25 26  2  0  0  0  0
 27 25  1  0  0  0  0
 28 19  1  0  0  0  0
 28 27  1  0  0  0  0
 29 28  2  0  0  0  0
 30 44  1  0  0  0  0
 30 46  1  0  0  0  0
 32 13  1  0  0  0  0
 33 13  1  0  0  0  0
 34 13  1  0  0  0  0
 37 15  1  0  0  0  0
 41 17  1  0  0  0  0
 42 17  1  0  0  0  0
 43 27  1  0  0  0  0
 45 30  1  0  0  0  0
M  END
>  <Pose>
1

>  <Score>
-8.71

$$$$
