
 OpenBabel03222202113D

 47 50  0  0  0  0  0  0  0  0999 V2000
   22.7620   80.4710   14.7600 B   0  0  0  0  0  0  0  0  0  0  0  0
   21.7860   79.6170   16.1650 C   0  0  0  0  0  0  0  0  0  0  0  0
   21.4120   78.3410   16.2280 N   0  0  0  0  0  0  0  0  0  0  0  0
   20.7920   78.1950   17.4320 C   0  0  0  0  0  0  0  0  0  0  0  0
   20.8130   79.4190   18.0640 C   0  0  0  0  0  0  0  0  0  0  0  0
   21.4270   80.2940   17.2800 N   0  0  0  0  0  0  0  0  0  0  0  0
   20.2530   79.5330   19.3010 N   0  0  0  0  0  0  0  0  0  0  0  0
   19.7030   78.4590   19.8620 C   0  0  0  0  0  0  0  0  0  0  0  0
   19.1910   78.5960   21.0110 O   0  0  0  0  0  0  0  0  0  0  0  0
   19.6770   77.2610   19.2550 N   0  0  0  0  0  0  0  0  0  0  0  0
   20.2210   77.0820   18.0180 C   0  0  0  0  0  0  0  0  0  0  0  0
   20.1940   75.9570   17.4590 O   0  0  0  0  0  0  0  0  0  0  0  0
   20.2550   80.8030   19.9980 C   0  0  0  0  0  0  0  0  0  0  0  0
   21.5440   77.2730   15.2960 C   0  0  0  0  0  0  0  0  0  0  0  0
   21.4830   77.5850   13.8580 C   0  0  0  0  0  0  0  0  0  0  0  0
   22.3990   77.1210   12.9740 O   0  0  0  0  0  0  0  0  0  0  0  0
   22.1380   77.5700   11.6900 C   0  0  0  0  0  0  0  0  0  0  0  0
   21.1750   76.6310   11.0270 C   0  0  0  0  0  0  0  0  0  0  0  0
   20.2920   77.3090   10.1320 N   0  0  0  0  0  0  0  0  0  0  0  0
   19.5740   76.7380    9.1560 C   0  0  0  0  0  0  0  0  0  0  0  0
   18.8700   77.7190    8.5290 C   0  0  0  0  0  0  0  0  0  0  0  0
   19.1760   78.8610    9.1380 N   0  0  0  0  0  0  0  0  0  0  0  0
   20.0510   78.6490   10.1340 C   0  0  0  0  0  0  0  0  0  0  0  0
   20.8380   79.8900   11.3370 B   0  0  0  0  0  0  0  0  0  0  0  0
   18.0580   77.4140    7.5020 N   0  0  0  0  0  0  0  0  0  0  0  0
   17.9550   76.1460    7.1120 C   0  0  0  0  0  0  0  0  0  0  0  0
   17.1900   75.8750    6.1490 O   0  0  0  0  0  0  0  0  0  0  0  0
   18.6330   75.1740    7.7100 N   0  0  0  0  0  0  0  0  0  0  0  0
   19.4520   75.4280    8.7340 C   0  0  0  0  0  0  0  0  0  0  0  0
   20.0840   74.4690    9.2800 O   0  0  0  0  0  0  0  0  0  0  0  0
   17.3010   78.4450    6.8230 C   0  0  0  0  0  0  0  0  0  0  0  0
   19.2440   76.4280   19.7070 H   0  0  0  0  0  0  0  0  0  0  0  0
   21.2060   81.3470   19.8000 H   0  0  0  0  0  0  0  0  0  0  0  0
   20.1670   80.6680   21.0810 H   0  0  0  0  0  0  0  0  0  0  0  0
   19.3870   81.4310   19.6720 H   0  0  0  0  0  0  0  0  0  0  0  0
   22.5710   76.8300   15.4930 H   0  0  0  0  0  0  0  0  0  0  0  0
   20.8740   76.3950   15.5690 H   0  0  0  0  0  0  0  0  0  0  0  0
   20.4670   77.2430   13.4250 H   0  0  0  0  0  0  0  0  0  0  0  0
   21.3470   78.7240   13.7210 H   0  0  0  0  0  0  0  0  0  0  0  0
   23.1210   77.5240   11.1110 H   0  0  0  0  0  0  0  0  0  0  0  0
   21.8590   78.6110   11.7160 H   0  0  0  0  0  0  0  0  0  0  0  0
   21.7960   75.8510   10.5040 H   0  0  0  0  0  0  0  0  0  0  0  0
   20.6230   76.1190   11.8520 H   0  0  0  0  0  0  0  0  0  0  0  0
   18.5390   74.1860    7.3900 H   0  0  0  0  0  0  0  0  0  0  0  0
   16.3100   78.5140    7.2970 H   0  0  0  0  0  0  0  0  0  0  0  0
   17.8340   79.4100    6.8870 H   0  0  0  0  0  0  0  0  0  0  0  0
   17.2430   78.1250    5.7470 H   0  0  0  0  0  0  0  0  0  0  0  0
  1  2  1  0  0  0  0
  2  3  1  0  0  0  0
  2  6  2  0  0  0  0
  3  4  1  0  0  0  0
  4 11  1  0  0  0  0
  4  5  2  0  0  0  0
  5  7  1  0  0  0  0
  6  5  1  0  0  0  0
  7  8  1  0  0  0  0
  7 13  1  0  0  0  0
  8  9  2  0  0  0  0
 10 32  1  0  0  0  0
 10  8  1  0  0  0  0
 11 10  1  0  0  0  0
 12 11  2  0  0  0  0
 13 34  1  0  0  0  0
 14 36  1  0  0  0  0
 14 37  1  0  0  0  0
 14  3  1  0  0  0  0
 15 14  1  0  0  0  0
 16 15  1  0  0  0  0
 17 41  1  0  0  0  0
 17 16  1  0  0  0  0
 18 17  1  0  0  0  0
 18 43  1  0  0  0  0
 19 23  1  0  0  0  0
 19 18  1  0  0  0  0
 20 19  1  0  0  0  0
 21 22  1  0  0  0  0
 21 20  2  0  0  0  0
 22 23  2  0  0  0  0
 23 24  1  0  0  0  0
 25 21  1  0  0  0  0
 26 25  1  0  0  0  0
 26 28  1  0  0  0  0
 27 26  2  0  0  0  0
 28 29  1  0  0  0  0
 29 20  1  0  0  0  0
 29 30  2  0  0  0  0
 31 46  1  0  0  0  0
 31 45  1  0  0  0  0
 31 25  1  0  0  0  0
 33 13  1  0  0  0  0
 35 13  1  0  0  0  0
 38 15  1  0  0  0  0
 39 15  1  0  0  0  0
 40 17  1  0  0  0  0
 42 18  1  0  0  0  0
 44 28  1  0  0  0  0
 47 31  1  0  0  0  0
M  END
>  <Pose>
1

>  <Score>
-7.55

$$$$
