
 OpenBabel03222202113D

 51 54  0  0  0  0  0  0  0  0999 V2000
   19.9660   84.4670   18.4240 Cl  0  0  0  0  0  0  0  0  0  0  0  0
   19.5290   84.1900   20.0940 C   0  0  0  0  0  0  0  0  0  0  0  0
   20.0830   83.1470   20.7760 C   0  0  0  0  0  0  0  0  0  0  0  0
   19.7030   82.9760   22.0890 C   0  0  0  0  0  0  0  0  0  0  0  0
   18.8040   83.8080   22.7050 C   0  0  0  0  0  0  0  0  0  0  0  0
   18.2490   84.8590   22.0060 C   0  0  0  0  0  0  0  0  0  0  0  0
   18.6250   85.0360   20.6940 C   0  0  0  0  0  0  0  0  0  0  0  0
   21.0570   82.2070   20.1900 C   0  0  0  0  0  0  0  0  0  0  0  0
   20.5080   80.9510   19.8150 N   0  0  0  0  0  0  0  0  0  0  0  0
   19.8930   80.0860   20.6120 N   0  0  0  0  0  0  0  0  0  0  0  0
   19.5060   79.0110   19.9480 C   0  0  0  0  0  0  0  0  0  0  0  0
   19.9080   79.2090   18.6190 C   0  0  0  0  0  0  0  0  0  0  0  0
   20.5370   80.4320   18.5510 C   0  0  0  0  0  0  0  0  0  0  0  0
   21.0420   81.0450   17.4110 N   0  0  0  0  0  0  0  0  0  0  0  0
   22.0290   80.8400   16.5000 C   0  0  0  0  0  0  0  0  0  0  0  0
   21.4460   80.7960   15.2560 O   0  0  0  0  0  0  0  0  0  0  0  0
   23.4660   80.6580   16.3800 C   0  0  0  0  0  0  0  0  0  0  0  0
   24.1260   79.4840   16.0000 N   0  0  0  0  0  0  0  0  0  0  0  0
   25.4020   79.0380   16.6200 C   0  0  0  0  0  0  0  0  0  0  0  0
   25.9230   77.9640   15.6880 C   0  0  0  0  0  0  0  0  0  0  0  0
   24.9600   76.8070   15.7010 C   0  0  0  0  0  0  0  0  0  0  0  0
   23.6660   77.2230   15.0350 C   0  0  0  0  0  0  0  0  0  0  0  0
   23.6170   78.7090   14.9050 C   0  0  0  0  0  0  0  0  0  0  0  0
   23.2050   79.2710   13.7670 C   0  0  0  0  0  0  0  0  0  0  0  0
   22.6860   78.4770   12.6860 N   0  0  0  0  0  0  0  0  0  0  0  0
   22.3900   79.3130   11.5940 N   0  0  0  0  0  0  0  0  0  0  0  0
   22.7130   80.6360   11.9580 C   0  0  0  0  0  0  0  0  0  0  0  0
   22.6090   81.6930   11.2950 O   0  0  0  0  0  0  0  0  0  0  0  0
   23.2150   80.5830   13.3060 N   0  0  0  0  0  0  0  0  0  0  0  0
   20.1180   82.1630   22.6630 H   0  0  0  0  0  0  0  0  0  0  0  0
   18.5230   83.6500   23.7340 H   0  0  0  0  0  0  0  0  0  0  0  0
   17.5400   85.5130   22.4970 H   0  0  0  0  0  0  0  0  0  0  0  0
   18.1910   85.8570   20.1500 H   0  0  0  0  0  0  0  0  0  0  0  0
   21.9610   82.1430   20.8480 H   0  0  0  0  0  0  0  0  0  0  0  0
   21.4490   82.7200   19.2610 H   0  0  0  0  0  0  0  0  0  0  0  0
   18.9820   78.1200   20.2870 H   0  0  0  0  0  0  0  0  0  0  0  0
   19.7230   78.5070   17.8320 H   0  0  0  0  0  0  0  0  0  0  0  0
   20.3900   81.9190   17.1340 H   0  0  0  0  0  0  0  0  0  0  0  0
   23.7140   81.4880   15.5910 H   0  0  0  0  0  0  0  0  0  0  0  0
   23.9800   81.0570   17.3480 H   0  0  0  0  0  0  0  0  0  0  0  0
   26.1470   79.8650   16.5290 H   0  0  0  0  0  0  0  0  0  0  0  0
   25.3050   78.6290   17.6020 H   0  0  0  0  0  0  0  0  0  0  0  0
   26.9280   77.6080   16.0600 H   0  0  0  0  0  0  0  0  0  0  0  0
   26.0590   78.3410   14.6550 H   0  0  0  0  0  0  0  0  0  0  0  0
   25.4000   75.9340   15.1570 H   0  0  0  0  0  0  0  0  0  0  0  0
   24.7970   76.5020   16.7470 H   0  0  0  0  0  0  0  0  0  0  0  0
   23.5420   76.7060   14.0560 H   0  0  0  0  0  0  0  0  0  0  0  0
   22.8230   76.8960   15.6510 H   0  0  0  0  0  0  0  0  0  0  0  0
   22.5080   77.4570   12.6060 H   0  0  0  0  0  0  0  0  0  0  0  0
   21.9980   79.0380   10.6590 H   0  0  0  0  0  0  0  0  0  0  0  0
   23.5540   81.4080   13.8280 H   0  0  0  0  0  0  0  0  0  0  0  0
  1  2  1  0  0  0  0
  2  7  2  0  0  0  0
  2  3  1  0  0  0  0
  3  4  2  0  0  0  0
  4 30  1  0  0  0  0
  4  5  1  0  0  0  0
  5 31  1  0  0  0  0
  6 32  1  0  0  0  0
  6  5  2  0  0  0  0
  7  6  1  0  0  0  0
  8  3  1  0  0  0  0
  8 34  1  0  0  0  0
  9  8  1  0  0  0  0
  9 10  1  0  0  0  0
 11 36  1  0  0  0  0
 11 10  2  0  0  0  0
 12 11  1  0  0  0  0
 13 12  2  0  0  0  0
 13  9  1  0  0  0  0
 14 13  1  0  0  0  0
 15 14  1  0  0  0  0
 16 15  2  0  0  0  0
 17 15  1  0  0  0  0
 17 40  1  0  0  0  0
 18 17  1  0  0  0  0
 18 19  1  0  0  0  0
 19 42  1  0  0  0  0
 20 21  1  0  0  0  0
 20 43  1  0  0  0  0
 20 19  1  0  0  0  0
 21 46  1  0  0  0  0
 22 48  1  0  0  0  0
 22 21  1  0  0  0  0
 23 22  1  0  0  0  0
 23 18  1  0  0  0  0
 24 23  2  0  0  0  0
 25 24  1  0  0  0  0
 26 27  1  0  0  0  0
 26 25  1  0  0  0  0
 27 29  1  0  0  0  0
 28 27  2  0  0  0  0
 29 24  1  0  0  0  0
 29 51  1  0  0  0  0
 33  7  1  0  0  0  0
 35  8  1  0  0  0  0
 37 12  1  0  0  0  0
 38 14  1  0  0  0  0
 39 17  1  0  0  0  0
 41 19  1  0  0  0  0
 44 20  1  0  0  0  0
 45 21  1  0  0  0  0
 47 22  1  0  0  0  0
 49 25  1  0  0  0  0
 50 26  1  0  0  0  0
M  END
>  <Pose>
1

>  <Score>
-6.95

$$$$
