
 OpenBabel03222202113D

 50 53  0  0  0  0  0  0  0  0999 V2000
   20.6970   84.3960   16.9400 B   0  0  0  0  0  0  0  0  0  0  0  0
   20.1510   83.3980   18.4550 C   0  0  0  0  0  0  0  0  0  0  0  0
   19.6320   84.0370   19.5430 C   0  0  0  0  0  0  0  0  0  0  0  0
   19.2410   83.2760   20.6420 C   0  0  0  0  0  0  0  0  0  0  0  0
   19.3880   81.8930   20.6080 C   0  0  0  0  0  0  0  0  0  0  0  0
   19.9080   81.2440   19.5200 C   0  0  0  0  0  0  0  0  0  0  0  0
   20.2910   82.0090   18.4410 C   0  0  0  0  0  0  0  0  0  0  0  0
   20.8160   81.3420   17.3450 O   0  0  0  0  0  0  0  0  0  0  0  0
   20.0530   79.7970   19.5050 C   0  0  0  0  0  0  0  0  0  0  0  0
   19.2440   79.0070   18.8940 N   0  0  0  0  0  0  0  0  0  0  0  0
   19.4790   77.5910   18.9400 N   0  0  0  0  0  0  0  0  0  0  0  0
   20.4480   77.0810   18.0860 C   0  0  0  0  0  0  0  0  0  0  0  0
   21.5380   76.6670   18.6350 O   0  0  0  0  0  0  0  0  0  0  0  0
   20.4140   76.9460   16.6420 C   0  0  0  0  0  0  0  0  0  0  0  0
   19.7680   75.9480   15.9560 N   0  0  0  0  0  0  0  0  0  0  0  0
   19.9330   76.1270   14.6750 N   0  0  0  0  0  0  0  0  0  0  0  0
   20.6640   77.2000   14.4270 N   0  0  0  0  0  0  0  0  0  0  0  0
   20.9730   77.7260   15.6240 C   0  0  0  0  0  0  0  0  0  0  0  0
   21.8000   78.9090   15.8800 C   0  0  0  0  0  0  0  0  0  0  0  0
   23.0870   78.9080   15.1800 N   0  0  0  0  0  0  0  0  0  0  0  0
   23.9880   77.9570   15.8590 C   0  0  0  0  0  0  0  0  0  0  0  0
   23.9380   78.1780   17.3310 C   0  0  0  0  0  0  0  0  0  0  0  0
   24.2040   79.4960   17.6090 O   0  0  0  0  0  0  0  0  0  0  0  0
   24.6420   80.2250   16.5350 C   0  0  0  0  0  0  0  0  0  0  0  0
   23.7050   80.2440   15.3560 C   0  0  0  0  0  0  0  0  0  0  0  0
   21.0340   77.6250   13.1270 C   0  0  0  0  0  0  0  0  0  0  0  0
   22.0860   78.3770   12.7380 N   0  0  0  0  0  0  0  0  0  0  0  0
   22.0650   78.5280   11.4400 O   0  0  0  0  0  0  0  0  0  0  0  0
   21.0350   77.9060   10.9250 N   0  0  0  0  0  0  0  0  0  0  0  0
   20.3730   77.3330   11.9440 C   0  0  0  0  0  0  0  0  0  0  0  0
   19.1980   76.5660   11.7960 N   0  0  0  0  0  0  0  0  0  0  0  0
   18.5150   84.1330   22.1690 B   0  0  0  0  0  0  0  0  0  0  0  0
   19.4770   85.4140   19.5970 O   0  0  0  0  0  0  0  0  0  0  0  0
   19.0870   81.3090   21.4530 H   0  0  0  0  0  0  0  0  0  0  0  0
   21.7690   81.5160   17.0510 H   0  0  0  0  0  0  0  0  0  0  0  0
   20.8850   79.3380   20.0330 H   0  0  0  0  0  0  0  0  0  0  0  0
   18.8890   77.0570   19.6210 H   0  0  0  0  0  0  0  0  0  0  0  0
   22.0280   79.0260   16.9420 H   0  0  0  0  0  0  0  0  0  0  0  0
   21.2830   79.8060   15.5120 H   0  0  0  0  0  0  0  0  0  0  0  0
   23.7570   76.9210   15.5690 H   0  0  0  0  0  0  0  0  0  0  0  0
   25.0050   78.1900   15.4910 H   0  0  0  0  0  0  0  0  0  0  0  0
   22.9750   77.8950   17.7880 H   0  0  0  0  0  0  0  0  0  0  0  0
   24.7750   77.5830   17.8010 H   0  0  0  0  0  0  0  0  0  0  0  0
   24.7050   81.2970   16.8930 H   0  0  0  0  0  0  0  0  0  0  0  0
   25.6780   79.9390   16.2560 H   0  0  0  0  0  0  0  0  0  0  0  0
   24.3210   80.4320   14.4670 H   0  0  0  0  0  0  0  0  0  0  0  0
   22.9670   81.0280   15.4950 H   0  0  0  0  0  0  0  0  0  0  0  0
   18.4480   76.6570   12.5050 H   0  0  0  0  0  0  0  0  0  0  0  0
   19.0530   75.9130   11.0040 H   0  0  0  0  0  0  0  0  0  0  0  0
   20.2480   86.0320   19.4040 H   0  0  0  0  0  0  0  0  0  0  0  0
  1  2  1  0  0  0  0
  2  3  1  0  0  0  0
  3 33  1  0  0  0  0
  3  4  2  0  0  0  0
  4 32  1  0  0  0  0
  5  4  1  0  0  0  0
  5 34  1  0  0  0  0
  6  5  2  0  0  0  0
  7  2  2  0  0  0  0
  7  6  1  0  0  0  0
  8  7  1  0  0  0  0
  9  6  1  0  0  0  0
  9 36  1  0  0  0  0
 10 11  1  0  0  0  0
 10  9  2  0  0  0  0
 11 37  1  0  0  0  0
 12 13  2  0  0  0  0
 12 11  1  0  0  0  0
 14 12  1  0  0  0  0
 15 14  1  0  0  0  0
 16 15  2  0  0  0  0
 17 16  1  0  0  0  0
 17 18  1  0  0  0  0
 18 19  1  0  0  0  0
 18 14  2  0  0  0  0
 19 38  1  0  0  0  0
 20 25  1  0  0  0  0
 20 21  1  0  0  0  0
 20 19  1  0  0  0  0
 21 22  1  0  0  0  0
 22 23  1  0  0  0  0
 22 42  1  0  0  0  0
 22 43  1  0  0  0  0
 24 44  1  0  0  0  0
 24 23  1  0  0  0  0
 25 47  1  0  0  0  0
 25 24  1  0  0  0  0
 26 17  1  0  0  0  0
 27 26  2  0  0  0  0
 28 27  1  0  0  0  0
 29 28  1  0  0  0  0
 29 30  2  0  0  0  0
 30 26  1  0  0  0  0
 31 30  1  0  0  0  0
 31 48  1  0  0  0  0
 35  8  1  0  0  0  0
 39 19  1  0  0  0  0
 40 21  1  0  0  0  0
 41 21  1  0  0  0  0
 45 24  1  0  0  0  0
 46 25  1  0  0  0  0
 49 31  1  0  0  0  0
 50 33  1  0  0  0  0
M  END
>  <Pose>
1

>  <Score>
-7.88

$$$$
