
 OpenBabel03222202113D

 41 44  0  0  0  0  0  0  0  0999 V2000
   19.4310   80.3810   19.2300 B   0  0  0  0  0  0  0  0  0  0  0  0
   20.1250   78.9410   18.1850 C   0  0  0  0  0  0  0  0  0  0  0  0
   19.6760   77.6650   18.4410 C   0  0  0  0  0  0  0  0  0  0  0  0
   20.1490   76.6230   17.7180 N   0  0  0  0  0  0  0  0  0  0  0  0
   21.0570   76.8690   16.7550 C   0  0  0  0  0  0  0  0  0  0  0  0
   21.5440   78.1070   16.4510 C   0  0  0  0  0  0  0  0  0  0  0  0
   21.0670   79.1770   17.1830 C   0  0  0  0  0  0  0  0  0  0  0  0
   22.5260   78.2610   15.3880 C   0  0  0  0  0  0  0  0  0  0  0  0
   23.7510   78.0600   15.6810 O   0  0  0  0  0  0  0  0  0  0  0  0
   22.1700   78.6200   14.0610 N   0  0  0  0  0  0  0  0  0  0  0  0
   21.7990   80.0020   13.8020 C   0  0  0  0  0  0  0  0  0  0  0  0
   22.4680   80.5110   12.5450 C   0  0  0  0  0  0  0  0  0  0  0  0
   22.0350   79.6170   11.4650 N   0  0  0  0  0  0  0  0  0  0  0  0
   22.7540   78.7290   10.7990 N   0  0  0  0  0  0  0  0  0  0  0  0
   22.0080   78.1100    9.8940 N   0  0  0  0  0  0  0  0  0  0  0  0
   20.7550   78.5900    9.9500 C   0  0  0  0  0  0  0  0  0  0  0  0
   20.7810   79.5400   10.9440 C   0  0  0  0  0  0  0  0  0  0  0  0
   19.6170   78.1960    9.1400 C   0  0  0  0  0  0  0  0  0  0  0  0
   19.5930   77.2630    8.1710 N   0  0  0  0  0  0  0  0  0  0  0  0
   18.3550   77.1890    7.6560 C   0  0  0  0  0  0  0  0  0  0  0  0
   17.6260   78.0940    8.3290 N   0  0  0  0  0  0  0  0  0  0  0  0
   18.4000   78.6700    9.1970 O   0  0  0  0  0  0  0  0  0  0  0  0
   17.8900   76.2970    6.5720 C   0  0  0  0  0  0  0  0  0  0  0  0
   16.7800   76.6380    5.8350 C   0  0  0  0  0  0  0  0  0  0  0  0
   16.3480   75.8330    4.8450 N   0  0  0  0  0  0  0  0  0  0  0  0
   16.9580   74.6750    4.5200 C   0  0  0  0  0  0  0  0  0  0  0  0
   18.0720   74.3430    5.2650 C   0  0  0  0  0  0  0  0  0  0  0  0
   18.5460   75.1320    6.2810 C   0  0  0  0  0  0  0  0  0  0  0  0
   18.9340   77.4560   19.2260 H   0  0  0  0  0  0  0  0  0  0  0  0
   21.4060   75.9920   16.2010 H   0  0  0  0  0  0  0  0  0  0  0  0
   21.4110   80.1820   16.9920 H   0  0  0  0  0  0  0  0  0  0  0  0
   22.1760   77.9100   13.3020 H   0  0  0  0  0  0  0  0  0  0  0  0
   20.6950   80.0090   13.5980 H   0  0  0  0  0  0  0  0  0  0  0  0
   22.0250   80.6250   14.6880 H   0  0  0  0  0  0  0  0  0  0  0  0
   22.1160   81.5400   12.3650 H   0  0  0  0  0  0  0  0  0  0  0  0
   23.5650   80.4400   12.5890 H   0  0  0  0  0  0  0  0  0  0  0  0
   19.9490   80.1370   11.2700 H   0  0  0  0  0  0  0  0  0  0  0  0
   16.2580   77.5780    6.0740 H   0  0  0  0  0  0  0  0  0  0  0  0
   16.5940   74.0370    3.7150 H   0  0  0  0  0  0  0  0  0  0  0  0
   18.5890   73.4150    5.0300 H   0  0  0  0  0  0  0  0  0  0  0  0
   19.4250   74.8740    6.8720 H   0  0  0  0  0  0  0  0  0  0  0  0
  2  3  1  0  0  0  0
  2  1  1  0  0  0  0
  3 29  1  0  0  0  0
  4  3  2  0  0  0  0
  5  4  1  0  0  0  0
  6  5  2  0  0  0  0
  6  7  1  0  0  0  0
  7  2  2  0  0  0  0
  8  9  2  0  0  0  0
  8  6  1  0  0  0  0
 10  8  1  0  0  0  0
 11 10  1  0  0  0  0
 11 34  1  0  0  0  0
 12 36  1  0  0  0  0
 12 11  1  0  0  0  0
 13 12  1  0  0  0  0
 14 13  1  0  0  0  0
 15 16  1  0  0  0  0
 15 14  2  0  0  0  0
 16 17  2  0  0  0  0
 17 37  1  0  0  0  0
 17 13  1  0  0  0  0
 18 22  1  0  0  0  0
 18 16  1  0  0  0  0
 19 18  2  0  0  0  0
 20 19  1  0  0  0  0
 20 21  2  0  0  0  0
 21 22  1  0  0  0  0
 23 20  1  0  0  0  0
 24 38  1  0  0  0  0
 24 23  2  0  0  0  0
 25 24  1  0  0  0  0
 26 25  2  0  0  0  0
 26 27  1  0  0  0  0
 27 28  2  0  0  0  0
 28 23  1  0  0  0  0
 28 41  1  0  0  0  0
 30  5  1  0  0  0  0
 31  7  1  0  0  0  0
 32 10  1  0  0  0  0
 33 11  1  0  0  0  0
 35 12  1  0  0  0  0
 39 26  1  0  0  0  0
 40 27  1  0  0  0  0
M  END
>  <Pose>
1

>  <Score>
-8.16

$$$$
