
 OpenBabel03222202113D

 56 59  0  0  1  0  0  0  0  0999 V2000
   19.5890   82.9270   20.6040 B   0  0  0  0  0  0  0  0  0  0  0  0
   19.7330   81.2330   19.7040 C   0  0  0  0  0  0  0  0  0  0  0  0
   19.5470   80.0580   20.4130 C   0  0  0  0  0  0  0  0  0  0  0  0
   19.6510   78.8290   19.7680 C   0  0  0  0  0  0  0  0  0  0  0  0
   19.9360   78.7480   18.4250 C   0  0  0  0  0  0  0  0  0  0  0  0
   20.1150   79.9350   17.7510 C   0  0  0  0  0  0  0  0  0  0  0  0
   20.0190   81.1610   18.3620 C   0  0  0  0  0  0  0  0  0  0  0  0
   20.0460   77.4770   17.7410 C   0  0  0  0  0  0  0  0  0  0  0  0
   19.0170   76.7690   17.5840 O   0  0  0  0  0  0  0  0  0  0  0  0
   21.3300   76.9540   17.2030 C   0  0  0  0  0  0  0  0  0  0  0  0
   21.4710   77.2230   15.8030 N   0  0  0  0  0  0  0  0  0  0  0  0
   20.9140   76.5620   14.8140 N   0  0  0  0  0  0  0  0  0  0  0  0
   21.2680   77.0930   13.6340 C   0  0  0  0  0  0  0  0  0  0  0  0
   22.0790   78.1280   13.8990 N   0  0  0  0  0  0  0  0  0  0  0  0
   22.2000   78.2020   15.2570 C   0  0  2  0  0  0  0  0  0  0  0  0
   22.9920   79.1820   15.9980 C   0  0  0  0  0  0  0  0  0  0  0  0
   22.5840   80.6090   15.7130 C   0  0  0  0  0  0  0  0  0  0  0  0
   23.0100   81.0540   14.3320 C   0  0  0  0  0  0  0  0  0  0  0  0
   22.2210   80.4100   13.2350 C   0  0  0  0  0  0  0  0  0  0  0  0
   22.7050   79.0000   12.9250 C   0  0  0  0  0  0  0  0  0  0  0  0
   20.8660   76.6540   12.2910 C   0  0  0  0  0  0  0  0  0  0  0  0
   20.1440   77.6610   11.5760 N   0  0  0  0  0  0  0  0  0  0  0  0
   19.6340   77.4640   10.2600 C   0  0  0  0  0  0  0  0  0  0  0  0
   19.2410   76.2270    9.8020 C   0  0  0  0  0  0  0  0  0  0  0  0
   18.7480   76.0500    8.5350 C   0  0  0  0  0  0  0  0  0  0  0  0
   18.6400   77.1180    7.7010 C   0  0  0  0  0  0  0  0  0  0  0  0
   19.0330   78.3580    8.1560 C   0  0  0  0  0  0  0  0  0  0  0  0
   19.5300   78.5480    9.4290 C   0  0  0  0  0  0  0  0  0  0  0  0
   18.1490   76.9710    6.4250 O   0  0  0  0  0  0  0  0  0  0  0  0
   17.6500   75.7520    5.9340 C   0  0  0  0  0  0  0  0  0  0  0  0
   19.3250   80.1310   21.4600 H   0  0  0  0  0  0  0  0  0  0  0  0
   19.5020   77.9310   20.3400 H   0  0  0  0  0  0  0  0  0  0  0  0
   20.3440   79.8900   16.6770 H   0  0  0  0  0  0  0  0  0  0  0  0
   20.1690   82.0510   17.7830 H   0  0  0  0  0  0  0  0  0  0  0  0
   22.1950   77.2960   17.8030 H   0  0  0  0  0  0  0  0  0  0  0  0
   21.2680   75.8320   17.3230 H   0  0  0  0  0  0  0  0  0  0  0  0
   22.9030   79.0330   17.0880 H   0  0  0  0  0  0  0  0  0  0  0  0
   24.0960   79.1230   15.7730 H   0  0  0  0  0  0  0  0  0  0  0  0
   21.5230   80.8040   15.8720 H   0  0  0  0  0  0  0  0  0  0  0  0
   23.1470   81.2480   16.4380 H   0  0  0  0  0  0  0  0  0  0  0  0
   24.0880   80.9640   14.1830 H   0  0  0  0  0  0  0  0  0  0  0  0
   22.7830   82.1570   14.2860 H   0  0  0  0  0  0  0  0  0  0  0  0
   21.1590   80.3530   13.4720 H   0  0  0  0  0  0  0  0  0  0  0  0
   22.3460   81.0440   12.3150 H   0  0  0  0  0  0  0  0  0  0  0  0
   23.8040   78.9330   12.9330 H   0  0  0  0  0  0  0  0  0  0  0  0
   22.3540   78.7250   11.9190 H   0  0  0  0  0  0  0  0  0  0  0  0
   20.2230   75.7430   12.4050 H   0  0  0  0  0  0  0  0  0  0  0  0
   21.7370   76.3410   11.6920 H   0  0  0  0  0  0  0  0  0  0  0  0
   19.9700   78.5790   12.0100 H   0  0  0  0  0  0  0  0  0  0  0  0
   19.3490   75.3990   10.5150 H   0  0  0  0  0  0  0  0  0  0  0  0
   18.4530   75.0660    8.2220 H   0  0  0  0  0  0  0  0  0  0  0  0
   18.9580   79.2360    7.5100 H   0  0  0  0  0  0  0  0  0  0  0  0
   19.8360   79.5460    9.7740 H   0  0  0  0  0  0  0  0  0  0  0  0
   17.5520   75.7820    4.8410 H   0  0  0  0  0  0  0  0  0  0  0  0
   18.3560   74.9450    6.2150 H   0  0  0  0  0  0  0  0  0  0  0  0
   16.6630   75.5010    6.3830 H   0  0  0  0  0  0  0  0  0  0  0  0
  2  3  1  0  0  0  0
  2  1  1  0  0  0  0
  3 31  1  0  0  0  0
  4 32  1  0  0  0  0
  4  3  2  0  0  0  0
  5  4  1  0  0  0  0
  6  7  1  0  0  0  0
  6  5  2  0  0  0  0
  7  2  2  0  0  0  0
  8  5  1  0  0  0  0
  9  8  2  0  0  0  0
 10 36  1  0  0  0  0
 10  8  1  0  0  0  0
 10 35  1  0  0  0  0
 11 10  1  0  0  0  0
 12 11  1  0  0  0  0
 13 14  1  0  0  0  0
 13 12  2  0  0  0  0
 15 14  1  6  0  0  0
 15 11  1  0  0  0  0
 15 16  1  0  0  0  0
 16 37  1  0  0  0  0
 17 39  1  0  0  0  0
 17 16  1  0  0  0  0
 17 40  1  0  0  0  0
 18 17  1  0  0  0  0
 19 43  1  0  0  0  0
 19 18  1  0  0  0  0
 20 45  1  0  0  0  0
 20 19  1  0  0  0  0
 20 14  1  0  0  0  0
 21 47  1  0  0  0  0
 21 13  1  0  0  0  0
 22 49  1  0  0  0  0
 22 21  1  0  0  0  0
 23 22  1  0  0  0  0
 24 23  1  0  0  0  0
 24 50  1  0  0  0  0
 25 24  2  0  0  0  0
 26 27  2  0  0  0  0
 26 25  1  0  0  0  0
 27 28  1  0  0  0  0
 28 53  1  0  0  0  0
 28 23  2  0  0  0  0
 29 26  1  0  0  0  0
 30 55  1  0  0  0  0
 30 56  1  0  0  0  0
 30 29  1  0  0  0  0
 33  6  1  0  0  0  0
 34  7  1  0  0  0  0
 38 16  1  0  0  0  0
 41 18  1  0  0  0  0
 42 18  1  0  0  0  0
 44 19  1  0  0  0  0
 46 20  1  0  0  0  0
 48 21  1  0  0  0  0
 51 25  1  0  0  0  0
 52 27  1  0  0  0  0
 54 30  1  0  0  0  0
M  END
>  <Pose>
1

>  <Score>
-7.18

$$$$
