
 OpenBabel03222202113D

 54 58  0  0  0  0  0  0  0  0999 V2000
   17.6350   74.1700    5.7150 F   0  0  0  0  0  0  0  0  0  0  0  0
   16.7160   75.1150    5.9850 C   0  0  0  0  0  0  0  0  0  0  0  0
   15.4660   74.8680    5.4260 C   0  0  0  0  0  0  0  0  0  0  0  0
   14.4250   75.7470    5.6260 C   0  0  0  0  0  0  0  0  0  0  0  0
   14.6610   76.8650    6.3910 C   0  0  0  0  0  0  0  0  0  0  0  0
   15.9180   77.0930    6.9420 C   0  0  0  0  0  0  0  0  0  0  0  0
   16.9610   76.2280    6.7490 C   0  0  0  0  0  0  0  0  0  0  0  0
   18.2090   76.4960    7.3110 N   0  0  0  0  0  4  0  0  0  0  0  0
   18.5630   75.6980    8.4560 C   0  0  0  0  0  0  0  0  0  0  0  0
   20.0210   75.9990    8.8750 C   0  0  0  0  0  0  0  0  0  0  0  0
   20.0290   77.3540    9.2640 N   0  0  0  0  0  0  0  0  0  0  0  0
   19.8140   78.2440    8.0580 C   0  0  0  0  0  0  0  0  0  0  0  0
   18.4320   77.8710    7.6160 C   0  0  0  0  0  0  0  0  0  0  0  0
   20.1350   77.9800   10.4600 C   0  0  0  0  0  0  0  0  0  0  0  0
   19.4100   77.4710   11.4260 O   0  0  0  0  0  0  0  0  0  0  0  0
   20.9090   79.1190   10.8690 C   0  0  0  0  0  0  0  0  0  0  0  0
   21.4120   79.2950   12.1170 C   0  0  0  0  0  0  0  0  0  0  0  0
   22.2030   80.3870   12.4540 C   0  0  0  0  0  0  0  0  0  0  0  0
   22.4860   81.3270   11.4970 C   0  0  0  0  0  0  0  0  0  0  0  0
   22.0030   81.1990   10.2260 C   0  0  0  0  0  0  0  0  0  0  0  0
   21.2320   80.1170    9.9260 C   0  0  0  0  0  0  0  0  0  0  0  0
   22.8380   80.5710   14.0900 Cl  0  0  0  0  0  0  0  0  0  0  0  0
   13.6270   77.7110    6.5740 N   0  0  0  0  0  0  0  0  0  0  0  0
   12.4100   77.4950    6.0440 C   0  0  0  0  0  0  0  0  0  0  0  0
   12.1420   76.3850    5.2740 C   0  0  0  0  0  0  0  0  0  0  0  0
   13.1680   75.4950    5.0610 C   0  0  0  0  0  0  0  0  0  0  0  0
   12.9910   74.4640    4.3700 O   0  0  0  0  0  0  0  0  0  0  0  0
   10.8010   76.1630    4.6990 C   0  0  0  0  0  0  0  0  0  0  0  0
   10.4300   75.0550    4.2800 O   0  0  0  0  0  0  0  0  0  0  0  0
    9.9400   77.2350    4.6350 O   0  0  0  0  0  0  0  0  0  0  0  0
   13.8980   78.8990    7.3930 C   0  0  0  0  0  0  0  0  0  0  0  0
   13.4560   80.2290    6.9640 C   0  0  0  0  0  0  0  0  0  0  0  0
   14.8630   79.9220    6.7070 C   0  0  0  0  0  0  0  0  0  0  0  0
   15.2550   73.9980    4.8220 H   0  0  0  0  0  0  0  0  0  0  0  0
   16.0000   78.0080    7.5300 H   0  0  0  0  0  0  0  0  0  0  0  0
   18.9290   76.2450    6.5650 H   0  0  0  0  0  0  0  0  0  0  0  0
   17.9580   76.0230    9.3150 H   0  0  0  0  0  0  0  0  0  0  0  0
   18.5920   74.6110    8.2690 H   0  0  0  0  0  0  0  0  0  0  0  0
   20.3510   75.2280    9.5400 H   0  0  0  0  0  0  0  0  0  0  0  0
   20.6660   75.8440    7.9350 H   0  0  0  0  0  0  0  0  0  0  0  0
   20.5380   77.8700    7.3170 H   0  0  0  0  0  0  0  0  0  0  0  0
   19.9370   79.2870    8.3210 H   0  0  0  0  0  0  0  0  0  0  0  0
   18.2450   78.4510    6.6640 H   0  0  0  0  0  0  0  0  0  0  0  0
   17.7240   78.3030    8.3450 H   0  0  0  0  0  0  0  0  0  0  0  0
   21.2060   78.6270   12.9360 H   0  0  0  0  0  0  0  0  0  0  0  0
   23.1030   82.1710   11.7780 H   0  0  0  0  0  0  0  0  0  0  0  0
   22.2630   81.9770    9.5190 H   0  0  0  0  0  0  0  0  0  0  0  0
   20.8460   80.0160    8.9060 H   0  0  0  0  0  0  0  0  0  0  0  0
   11.6140   78.2030    6.2190 H   0  0  0  0  0  0  0  0  0  0  0  0
   14.1340   78.7170    8.4560 H   0  0  0  0  0  0  0  0  0  0  0  0
   12.7660   80.3830    6.1080 H   0  0  0  0  0  0  0  0  0  0  0  0
   13.2280   80.9590    7.7950 H   0  0  0  0  0  0  0  0  0  0  0  0
   15.1850   79.6640    5.6790 H   0  0  0  0  0  0  0  0  0  0  0  0
   15.6950   80.2940    7.3340 H   0  0  0  0  0  0  0  0  0  0  0  0
  1  2  1  0  0  0  0
  2  7  1  0  0  0  0
  3  4  1  0  0  0  0
  3  2  2  0  0  0  0
  4  5  2  0  0  0  0
  5 23  1  0  0  0  0
  5  6  1  0  0  0  0
  6 35  1  0  0  0  0
  7  6  2  0  0  0  0
  7  8  1  0  0  0  0
  8 13  1  0  0  0  0
  8  9  1  0  0  0  0
  9 10  1  0  0  0  0
  9 37  1  0  0  0  0
 10 11  1  0  0  0  0
 10 39  1  0  0  0  0
 11 14  1  0  0  0  0
 12 42  1  0  0  0  0
 12 11  1  0  0  0  0
 13 12  1  0  0  0  0
 13 44  1  0  0  0  0
 14 16  1  0  0  0  0
 14 15  2  0  0  0  0
 16 17  1  0  0  0  0
 17 18  2  0  0  0  0
 17 45  1  0  0  0  0
 18 22  1  0  0  0  0
 19 46  1  0  0  0  0
 19 18  1  0  0  0  0
 20 19  2  0  0  0  0
 21 20  1  0  0  0  0
 21 16  2  0  0  0  0
 23 31  1  0  0  0  0
 24 49  1  0  0  0  0
 24 23  1  0  0  0  0
 25 24  2  0  0  0  0
 26 25  1  0  0  0  0
 26  4  1  0  0  0  0
 27 26  2  0  0  0  0
 28 25  1  0  0  0  0
 29 28  2  0  0  0  0
 30 28  1  0  0  0  0
 31 50  1  0  0  0  0
 32 31  1  0  0  0  0
 32 52  1  0  0  0  0
 33 32  1  0  0  0  0
 33 54  1  0  0  0  0
 33 31  1  0  0  0  0
 34  3  1  0  0  0  0
 36  8  1  0  0  0  0
 38  9  1  0  0  0  0
 40 10  1  0  0  0  0
 41 12  1  0  0  0  0
 43 13  1  0  0  0  0
 47 20  1  0  0  0  0
 48 21  1  0  0  0  0
 51 32  1  0  0  0  0
 53 33  1  0  0  0  0
M  END
>  <Pose>
1

>  <Score>
-7.02

$$$$
