
 OpenBabel03222202113D

 53 56  0  0  1  0  0  0  0  0999 V2000
   18.9420   80.6430   21.8200 B   0  0  0  0  0  0  0  0  0  0  0  0
   19.3130   79.6530   20.2140 C   0  0  0  0  0  0  0  0  0  0  0  0
   19.7070   78.3350   20.2550 C   0  0  0  0  0  0  0  0  0  0  0  0
   19.9840   77.5850   19.1470 C   0  0  0  0  0  0  0  0  0  0  0  0
   19.8620   78.1790   17.9050 C   0  0  0  0  0  0  0  0  0  0  0  0
   19.4680   79.4950   17.8350 C   0  0  0  0  0  0  0  0  0  0  0  0
   19.1890   80.2520   18.9770 C   0  0  0  0  0  0  0  0  0  0  0  0
   20.1090   77.4410   16.6720 C   0  0  0  0  0  0  0  0  0  0  0  0
   21.1780   77.6750   15.9390 C   0  0  0  0  0  0  0  0  0  0  0  0
   21.6130   77.0400   14.6520 C   0  0  2  0  0  0  0  0  0  0  0  0
   22.0850   78.1560   13.9170 N   0  0  0  0  0  0  0  0  0  0  0  0
   22.8650   78.9080   14.8970 C   0  0  0  0  0  0  0  0  0  0  0  0
   23.8430   79.6690   14.6800 O   0  0  0  0  0  0  0  0  0  0  0  0
   22.2810   78.6000   16.1970 C   0  0  0  0  0  0  0  0  0  0  0  0
   22.6050   79.0090   17.3620 O   0  0  0  0  0  0  0  0  0  0  0  0
   21.9860   78.5780   12.5330 C   0  0  0  0  0  0  0  0  0  0  0  0
   21.8570   80.0270   12.2680 C   0  0  0  0  0  0  0  0  0  0  0  0
   21.0660   80.3510   11.0760 N   0  0  0  0  0  4  0  0  0  0  0  0
   19.9560   79.4670   10.9640 C   0  0  0  0  0  0  0  0  0  0  0  0
   19.9440   78.5540    9.7880 C   0  0  0  0  0  0  0  0  0  0  0  0
   20.6120   79.0130    8.6690 O   0  0  0  0  0  0  0  0  0  0  0  0
   21.9540   79.1720    9.0860 C   0  0  0  0  0  0  0  0  0  0  0  0
   21.9680   80.3750    9.9630 C   0  0  0  0  0  0  0  0  0  0  0  0
   20.6940   76.0890   14.1220 C   0  0  0  0  0  0  0  0  0  0  0  0
   20.8590   74.7580   14.4210 C   0  0  0  0  0  0  0  0  0  0  0  0
   20.0060   73.7840   13.9610 C   0  0  0  0  0  0  0  0  0  0  0  0
   18.9230   74.1190   13.1610 C   0  0  0  0  0  0  0  0  0  0  0  0
   18.7740   75.4610   12.8720 C   0  0  0  0  0  0  0  0  0  0  0  0
   19.6350   76.4310   13.3370 C   0  0  0  0  0  0  0  0  0  0  0  0
   17.8300   72.8920   12.5700 Cl  0  0  0  0  0  0  0  0  0  0  0  0
   19.1700   76.4870   16.3190 O   0  0  0  0  0  0  0  0  0  0  0  0
   19.7990   77.8880   21.2330 H   0  0  0  0  0  0  0  0  0  0  0  0
   20.2950   76.5510   19.1620 H   0  0  0  0  0  0  0  0  0  0  0  0
   19.3370   80.0140   16.8820 H   0  0  0  0  0  0  0  0  0  0  0  0
   18.8800   81.2950   18.8780 H   0  0  0  0  0  0  0  0  0  0  0  0
   22.5620   76.4870   14.9650 H   0  0  0  0  0  0  0  0  0  0  0  0
   22.9200   78.2510   11.9690 H   0  0  0  0  0  0  0  0  0  0  0  0
   21.1980   77.9690   11.9940 H   0  0  0  0  0  0  0  0  0  0  0  0
   22.7700   80.6100   12.1720 H   0  0  0  0  0  0  0  0  0  0  0  0
   21.2180   80.4240   13.1320 H   0  0  0  0  0  0  0  0  0  0  0  0
   20.7290   81.3480   11.2460 H   0  0  0  0  0  0  0  0  0  0  0  0
   19.8350   78.8760   11.9210 H   0  0  0  0  0  0  0  0  0  0  0  0
   19.0190   80.0950   10.8830 H   0  0  0  0  0  0  0  0  0  0  0  0
   20.4620   77.5950   10.0810 H   0  0  0  0  0  0  0  0  0  0  0  0
   18.9300   78.2600    9.4600 H   0  0  0  0  0  0  0  0  0  0  0  0
   22.3450   78.2670    9.5710 H   0  0  0  0  0  0  0  0  0  0  0  0
   22.5640   79.3520    8.1890 H   0  0  0  0  0  0  0  0  0  0  0  0
   23.0270   80.5630   10.2800 H   0  0  0  0  0  0  0  0  0  0  0  0
   21.7050   81.2550    9.3100 H   0  0  0  0  0  0  0  0  0  0  0  0
   21.7070   74.4180   15.0570 H   0  0  0  0  0  0  0  0  0  0  0  0
   20.1400   72.7400   14.1990 H   0  0  0  0  0  0  0  0  0  0  0  0
   17.9160   75.7030   12.2400 H   0  0  0  0  0  0  0  0  0  0  0  0
   19.3970   77.4500   13.0490 H   0  0  0  0  0  0  0  0  0  0  0  0
  2  3  1  0  0  0  0
  2  1  1  0  0  0  0
  3 32  1  0  0  0  0
  4 33  1  0  0  0  0
  4  3  2  0  0  0  0
  5  4  1  0  0  0  0
  6  5  2  0  0  0  0
  6  7  1  0  0  0  0
  7  2  2  0  0  0  0
  8  5  1  0  0  0  0
  9 14  1  0  0  0  0
  9  8  2  0  0  0  0
 10 36  1  1  0  0  0
 10  9  1  0  0  0  0
 11 10  1  0  0  0  0
 11 12  1  0  0  0  0
 12 14  1  0  0  0  0
 13 12  2  0  0  0  0
 14 15  2  0  0  0  0
 16 11  1  0  0  0  0
 17 16  1  0  0  0  0
 17 40  1  0  0  0  0
 18 41  1  0  0  0  0
 18 17  1  0  0  0  0
 19 18  1  0  0  0  0
 19 42  1  0  0  0  0
 20 44  1  0  0  0  0
 20 19  1  0  0  0  0
 21 22  1  0  0  0  0
 21 20  1  0  0  0  0
 22 46  1  0  0  0  0
 22 23  1  0  0  0  0
 23 48  1  0  0  0  0
 23 18  1  0  0  0  0
 24 25  1  0  0  0  0
 24 10  1  0  0  0  0
 25 50  1  0  0  0  0
 26 51  1  0  0  0  0
 26 25  2  0  0  0  0
 27 26  1  0  0  0  0
 28 27  2  0  0  0  0
 28 29  1  0  0  0  0
 29 24  2  0  0  0  0
 30 27  1  0  0  0  0
 31  8  1  0  0  0  0
 34  6  1  0  0  0  0
 35  7  1  0  0  0  0
 37 16  1  0  0  0  0
 38 16  1  0  0  0  0
 39 17  1  0  0  0  0
 43 19  1  0  0  0  0
 45 20  1  0  0  0  0
 47 22  1  0  0  0  0
 49 23  1  0  0  0  0
 52 28  1  0  0  0  0
 53 29  1  0  0  0  0
M  END
>  <Pose>
1

>  <Score>
-6.58

$$$$
