
 OpenBabel03222202113D

 49 52  0  0  0  0  0  0  0  0999 V2000
   18.1100   85.7480   23.7790 B   0  0  0  0  0  0  0  0  0  0  0  0
   18.6480   84.5790   22.3610 C   0  0  0  0  0  0  0  0  0  0  0  0
   18.1610   84.7370   21.0780 C   0  0  0  0  0  0  0  0  0  0  0  0
   18.5560   83.8850   20.0500 C   0  0  0  0  0  0  0  0  0  0  0  0
   19.4430   82.8520   20.2730 C   0  0  0  0  0  0  0  0  0  0  0  0
   19.9250   82.7000   21.5550 C   0  0  0  0  0  0  0  0  0  0  0  0
   19.5360   83.5440   22.5750 C   0  0  0  0  0  0  0  0  0  0  0  0
   19.8680   81.9630   19.2480 N   0  0  0  0  0  0  0  0  0  0  0  0
   19.8970   80.6200   19.2250 C   0  0  0  0  0  0  0  0  0  0  0  0
   19.5160   79.9200   20.1980 O   0  0  0  0  0  0  0  0  0  0  0  0
   20.3890   80.1500   18.0190 C   0  0  0  0  0  0  0  0  0  0  0  0
   20.6630   81.2280   17.2950 C   0  0  0  0  0  0  0  0  0  0  0  0
   21.1390   80.7720   16.1270 N   0  0  0  0  0  0  0  0  0  0  0  0
   21.1560   79.4510   16.1370 N   0  0  0  0  0  0  0  0  0  0  0  0
   20.6970   79.0490   17.2920 N   0  0  0  0  0  0  0  0  0  0  0  0
   20.5330   77.6910   17.7510 C   0  0  0  0  0  0  0  0  0  0  0  0
   19.7490   76.9110   16.7220 C   0  0  0  0  0  0  0  0  0  0  0  0
   18.5020   77.0120   16.7000 O   0  0  0  0  0  0  0  0  0  0  0  0
   20.4160   76.0860   15.8050 N   0  0  0  0  0  0  0  0  0  0  0  0
   19.9390   75.7080   14.5340 C   0  0  0  0  0  0  0  0  0  0  0  0
   19.3760   74.5000   14.2110 C   0  0  0  0  0  0  0  0  0  0  0  0
   18.9430   74.1850   12.9400 C   0  0  0  0  0  0  0  0  0  0  0  0
   19.0870   75.1370   11.9520 C   0  0  0  0  0  0  0  0  0  0  0  0
   19.6500   76.3700   12.2370 C   0  0  0  0  0  0  0  0  0  0  0  0
   20.0730   76.6600   13.5050 C   0  0  0  0  0  0  0  0  0  0  0  0
   18.6560   74.8390   10.6620 O   0  0  0  0  0  0  0  0  0  0  0  0
   19.3330   75.4100    9.5600 C   0  0  0  0  0  0  0  0  0  0  0  0
   18.3740   72.9490   12.6420 O   0  0  0  0  0  0  0  0  0  0  0  0
   19.1350   71.7760   12.9580 C   0  0  0  0  0  0  0  0  0  0  0  0
   20.3470   82.3440   18.0420 C   0  0  0  0  0  0  0  0  0  0  0  0
   20.4830   83.5520   17.6580 O   0  0  0  0  0  0  0  0  0  0  0  0
   17.4610   85.5540   20.9110 H   0  0  0  0  0  0  0  0  0  0  0  0
   18.1710   84.0150   19.0540 H   0  0  0  0  0  0  0  0  0  0  0  0
   20.6240   81.8840   21.7220 H   0  0  0  0  0  0  0  0  0  0  0  0
   19.9350   83.3970   23.5820 H   0  0  0  0  0  0  0  0  0  0  0  0
   21.4570   81.3390   15.3160 H   0  0  0  0  0  0  0  0  0  0  0  0
   21.4790   78.8050   15.3560 H   0  0  0  0  0  0  0  0  0  0  0  0
   19.9700   77.6240   18.7110 H   0  0  0  0  0  0  0  0  0  0  0  0
   21.5030   77.1790   17.8490 H   0  0  0  0  0  0  0  0  0  0  0  0
   21.3770   75.7170   16.1030 H   0  0  0  0  0  0  0  0  0  0  0  0
   19.2430   73.7400   14.9690 H   0  0  0  0  0  0  0  0  0  0  0  0
   19.7490   77.0990   11.4310 H   0  0  0  0  0  0  0  0  0  0  0  0
   20.5210   77.6470   13.7170 H   0  0  0  0  0  0  0  0  0  0  0  0
   20.4120   75.1530    9.6890 H   0  0  0  0  0  0  0  0  0  0  0  0
   19.2210   76.5010    9.5850 H   0  0  0  0  0  0  0  0  0  0  0  0
   18.9460   74.9510    8.6210 H   0  0  0  0  0  0  0  0  0  0  0  0
   19.2640   71.6940   14.0730 H   0  0  0  0  0  0  0  0  0  0  0  0
   18.6280   70.8670   12.5770 H   0  0  0  0  0  0  0  0  0  0  0  0
   20.1440   71.8350   12.5000 H   0  0  0  0  0  0  0  0  0  0  0  0
  2  7  1  0  0  0  0
  2  1  1  0  0  0  0
  3  2  2  0  0  0  0
  4  5  2  0  0  0  0
  4  3  1  0  0  0  0
  5  6  1  0  0  0  0
  6 34  1  0  0  0  0
  6  7  2  0  0  0  0
  7 35  1  0  0  0  0
  8  5  1  0  0  0  0
  9  8  1  0  0  0  0
  9 10  2  0  0  0  0
 11  9  1  0  0  0  0
 12 11  2  0  0  0  0
 12 30  1  0  0  0  0
 13 14  1  0  0  0  0
 13 12  1  0  0  0  0
 14 15  1  0  0  0  0
 15 16  1  0  0  0  0
 15 11  1  0  0  0  0
 16 39  1  0  0  0  0
 16 38  1  0  0  0  0
 17 16  1  0  0  0  0
 18 17  2  0  0  0  0
 19 40  1  0  0  0  0
 19 17  1  0  0  0  0
 20 19  1  0  0  0  0
 21 20  1  0  0  0  0
 21 41  1  0  0  0  0
 22 21  2  0  0  0  0
 23 24  2  0  0  0  0
 23 22  1  0  0  0  0
 24 25  1  0  0  0  0
 25 43  1  0  0  0  0
 25 20  2  0  0  0  0
 26 23  1  0  0  0  0
 27 45  1  0  0  0  0
 27 44  1  0  0  0  0
 27 26  1  0  0  0  0
 28 22  1  0  0  0  0
 28 29  1  0  0  0  0
 29 47  1  0  0  0  0
 30  8  1  0  0  0  0
 31 30  2  0  0  0  0
 32  3  1  0  0  0  0
 33  4  1  0  0  0  0
 36 13  1  0  0  0  0
 37 14  1  0  0  0  0
 42 24  1  0  0  0  0
 46 27  1  0  0  0  0
 48 29  1  0  0  0  0
 49 29  1  0  0  0  0
M  END
>  <Pose>
1

>  <Score>
-7.32

$$$$
