
 OpenBabel03222202113D

 52 55  0  0  0  0  0  0  0  0999 V2000
   18.1280   74.9670    5.7650 Cl  0  0  0  0  0  0  0  0  0  0  0  0
   18.6440   75.6430    7.2970 C   0  0  0  0  0  0  0  0  0  0  0  0
   18.7440   77.0220    7.4160 C   0  0  0  0  0  0  0  0  0  0  0  0
   19.1460   77.6230    8.5990 C   0  0  0  0  0  0  0  0  0  0  0  0
   19.4560   76.8400    9.6890 C   0  0  0  0  0  0  0  0  0  0  0  0
   19.3470   75.4570    9.5410 C   0  0  0  0  0  0  0  0  0  0  0  0
   18.9510   74.8480    8.3820 C   0  0  0  0  0  0  0  0  0  0  0  0
   19.8850   77.4110   10.9620 C   0  0  0  0  0  0  0  0  0  0  0  0
   19.2570   77.0610   11.9940 O   0  0  0  0  0  0  0  0  0  0  0  0
   20.9460   78.3120   11.0610 N   0  0  0  0  0  0  0  0  0  0  0  0
   20.8880   79.5530   11.8090 C   0  0  0  0  0  0  0  0  0  0  0  0
   22.2740   79.9840   12.1730 C   0  0  0  0  0  0  0  0  0  0  0  0
   22.9120   79.0860   13.1620 C   0  0  0  0  0  0  0  0  0  0  0  0
   23.9540   78.4740   12.8210 O   0  0  0  0  0  0  0  0  0  0  0  0
   22.3730   78.9130   14.4580 N   0  0  0  0  0  0  0  0  0  0  0  0
   22.2180   80.0020   15.4000 C   0  0  0  0  0  0  0  0  0  0  0  0
   22.4130   79.4350   16.7980 C   0  0  0  0  0  0  0  0  0  0  0  0
   21.3190   78.4170   17.1160 C   0  0  0  0  0  0  0  0  0  0  0  0
   21.9190   77.4080   17.9400 N   0  0  0  0  0  0  0  0  0  0  0  0
   20.9330   76.6660   18.6960 C   0  0  0  0  0  0  0  0  0  0  0  0
   20.3690   77.5770   19.7840 C   0  0  0  0  0  0  0  0  0  0  0  0
   19.7440   78.7320   19.0770 C   0  0  0  0  0  0  0  0  0  0  0  0
   18.7250   79.5700   19.4310 N   0  0  0  0  0  0  0  0  0  0  0  0
   18.5490   80.4520   18.4310 C   0  0  0  0  0  0  0  0  0  0  0  0
   19.4440   80.1670   17.4680 N   0  0  0  0  0  0  0  0  0  0  0  0
   20.2100   79.0980   17.8350 C   0  0  0  0  0  0  0  0  0  0  0  0
   20.7990   77.7760   15.8470 C   0  0  0  0  0  0  0  0  0  0  0  0
   21.9460   77.5990   14.8970 C   0  0  0  0  0  0  0  0  0  0  0  0
   18.5000   77.6310    6.5570 H   0  0  0  0  0  0  0  0  0  0  0  0
   19.2140   78.7240    8.6550 H   0  0  0  0  0  0  0  0  0  0  0  0
   19.5920   74.8540   10.4030 H   0  0  0  0  0  0  0  0  0  0  0  0
   18.8650   73.7830    8.2610 H   0  0  0  0  0  0  0  0  0  0  0  0
   21.8590   78.1250   10.5810 H   0  0  0  0  0  0  0  0  0  0  0  0
   20.3540   79.3240   12.7580 H   0  0  0  0  0  0  0  0  0  0  0  0
   20.3140   80.3190   11.2710 H   0  0  0  0  0  0  0  0  0  0  0  0
   22.9070   80.0160   11.2370 H   0  0  0  0  0  0  0  0  0  0  0  0
   22.2510   81.0140   12.5350 H   0  0  0  0  0  0  0  0  0  0  0  0
   23.0730   80.7140   15.2500 H   0  0  0  0  0  0  0  0  0  0  0  0
   21.2680   80.5240   15.3010 H   0  0  0  0  0  0  0  0  0  0  0  0
   23.4060   79.0050   16.9230 H   0  0  0  0  0  0  0  0  0  0  0  0
   22.2830   80.2720   17.5130 H   0  0  0  0  0  0  0  0  0  0  0  0
   22.5100   76.7580   17.3850 H   0  0  0  0  0  0  0  0  0  0  0  0
   20.0840   76.4520   18.0160 H   0  0  0  0  0  0  0  0  0  0  0  0
   21.3090   75.7270   19.0940 H   0  0  0  0  0  0  0  0  0  0  0  0
   19.6310   76.9860   20.3520 H   0  0  0  0  0  0  0  0  0  0  0  0
   21.1770   77.9530   20.4440 H   0  0  0  0  0  0  0  0  0  0  0  0
   18.2230   79.4720   20.3420 H   0  0  0  0  0  0  0  0  0  0  0  0
   17.7990   81.2300   18.4590 H   0  0  0  0  0  0  0  0  0  0  0  0
   20.3430   76.7960   16.0230 H   0  0  0  0  0  0  0  0  0  0  0  0
   20.0460   78.4380   15.3560 H   0  0  0  0  0  0  0  0  0  0  0  0
   21.5830   76.9760   14.0540 H   0  0  0  0  0  0  0  0  0  0  0  0
   22.7930   77.0580   15.3890 H   0  0  0  0  0  0  0  0  0  0  0  0
  1  2  1  0  0  0  0
  2  3  2  0  0  0  0
  2  7  1  0  0  0  0
  3  4  1  0  0  0  0
  4 30  1  0  0  0  0
  4  5  2  0  0  0  0
  5  8  1  0  0  0  0
  6  5  1  0  0  0  0
  6 31  1  0  0  0  0
  7  6  2  0  0  0  0
  8 10  1  0  0  0  0
  8  9  2  0  0  0  0
 10 11  1  0  0  0  0
 11 12  1  0  0  0  0
 11 34  1  0  0  0  0
 12 37  1  0  0  0  0
 12 13  1  0  0  0  0
 13 15  1  0  0  0  0
 14 13  2  0  0  0  0
 15 28  1  0  0  0  0
 15 16  1  0  0  0  0
 16 17  1  0  0  0  0
 17 40  1  0  0  0  0
 17 18  1  0  0  0  0
 17 41  1  0  0  0  0
 18 26  1  0  0  0  0
 18 19  1  0  0  0  0
 19 20  1  0  0  0  0
 20 44  1  0  0  0  0
 20 21  1  0  0  0  0
 21 45  1  0  0  0  0
 21 46  1  0  0  0  0
 22 23  1  0  0  0  0
 22 21  1  0  0  0  0
 23 47  1  0  0  0  0
 24 48  1  0  0  0  0
 24 23  1  0  0  0  0
 25 26  1  0  0  0  0
 25 24  2  0  0  0  0
 26 22  2  0  0  0  0
 27 49  1  0  0  0  0
 27 18  1  0  0  0  0
 28 52  1  0  0  0  0
 28 27  1  0  0  0  0
 29  3  1  0  0  0  0
 32  7  1  0  0  0  0
 33 10  1  0  0  0  0
 35 11  1  0  0  0  0
 36 12  1  0  0  0  0
 38 16  1  0  0  0  0
 39 16  1  0  0  0  0
 42 19  1  0  0  0  0
 43 20  1  0  0  0  0
 50 27  1  0  0  0  0
 51 28  1  0  0  0  0
M  END
>  <Pose>
1

>  <Score>
-6.78

$$$$
