
 OpenBabel03222202113D

 41 44  0  0  1  0  0  0  0  0999 V2000
   20.1640   77.3390   19.7420 Cl  0  0  0  0  0  0  0  0  0  0  0  0
   20.3770   78.8370   18.8610 C   0  0  0  0  0  0  0  0  0  0  0  0
   21.2740   78.8880   17.8220 C   0  0  0  0  0  0  0  0  0  0  0  0
   22.1090   78.0030   17.2530 N   0  0  0  0  0  0  0  0  0  0  0  0
   22.7970   78.5560   16.2350 C   0  0  0  0  0  0  0  0  0  0  0  0
   22.3650   79.8630   16.1670 C   0  0  0  0  0  0  0  0  0  0  0  0
   21.4200   80.0870   17.1440 C   0  0  0  0  0  0  0  0  0  0  0  0
   20.6690   81.1780   17.5300 C   0  0  0  0  0  0  0  0  0  0  0  0
   19.7660   81.1540   18.5640 C   0  0  0  0  0  0  0  0  0  0  0  0
   19.6230   79.9470   19.2420 C   0  0  0  0  0  0  0  0  0  0  0  0
   22.9870   80.6900   15.1030 C   0  0  0  0  0  0  0  0  0  0  0  0
   22.8390   79.9100   13.8950 N   0  0  0  0  0  0  0  0  0  0  0  0
   23.5910   78.7170   13.8640 C   0  0  0  0  0  0  0  0  0  0  0  0
   23.8220   78.1560   15.2490 C   0  0  0  0  0  0  0  0  0  0  0  0
   22.7050   80.6590   12.7190 C   0  0  0  0  0  0  0  0  0  0  0  0
   22.0460   79.9000   11.6080 C   0  0  1  0  0  0  0  0  0  0  0  0
   21.3610   80.7740   10.6140 C   0  0  0  0  0  0  0  0  0  0  0  0
   21.8600   80.5230    9.3060 N   0  0  0  0  0  0  0  0  0  0  0  0
   22.9040   79.5540    9.3780 C   0  0  0  0  0  0  0  0  0  0  0  0
   23.1120   79.1970   10.8110 C   0  0  0  0  0  0  0  0  0  0  0  0
   21.1980   78.9060   12.1100 O   0  0  0  0  0  0  0  0  0  0  0  0
   22.2440   76.9910   17.5330 H   0  0  0  0  0  0  0  0  0  0  0  0
   20.8020   82.0980   16.9860 H   0  0  0  0  0  0  0  0  0  0  0  0
   19.1790   82.0150   18.8620 H   0  0  0  0  0  0  0  0  0  0  0  0
   18.9160   79.9080   20.0600 H   0  0  0  0  0  0  0  0  0  0  0  0
   24.0720   80.7920   15.3930 H   0  0  0  0  0  0  0  0  0  0  0  0
   22.5000   81.6510   14.9490 H   0  0  0  0  0  0  0  0  0  0  0  0
   23.0460   77.9070   13.3010 H   0  0  0  0  0  0  0  0  0  0  0  0
   24.6080   78.8400   13.4080 H   0  0  0  0  0  0  0  0  0  0  0  0
   23.8530   77.0460   15.2080 H   0  0  0  0  0  0  0  0  0  0  0  0
   24.8310   78.4570   15.6310 H   0  0  0  0  0  0  0  0  0  0  0  0
   23.6380   81.1070   12.3240 H   0  0  0  0  0  0  0  0  0  0  0  0
   22.0340   81.5440   12.9360 H   0  0  0  0  0  0  0  0  0  0  0  0
   20.2480   80.7410   10.6690 H   0  0  0  0  0  0  0  0  0  0  0  0
   21.6250   81.8410   10.8680 H   0  0  0  0  0  0  0  0  0  0  0  0
   21.1190   80.2660    8.6110 H   0  0  0  0  0  0  0  0  0  0  0  0
   22.6860   78.6820    8.7300 H   0  0  0  0  0  0  0  0  0  0  0  0
   23.8730   79.9760    9.0000 H   0  0  0  0  0  0  0  0  0  0  0  0
   23.0100   78.0780   10.8790 H   0  0  0  0  0  0  0  0  0  0  0  0
   24.1300   79.4590   11.1830 H   0  0  0  0  0  0  0  0  0  0  0  0
   20.7590   79.3020   12.9090 H   0  0  0  0  0  0  0  0  0  0  0  0
  2 10  1  0  0  0  0
  2  1  1  0  0  0  0
  3  2  2  0  0  0  0
  4 22  1  0  0  0  0
  4  3  1  0  0  0  0
  5  4  1  0  0  0  0
  6  5  2  0  0  0  0
  6  7  1  0  0  0  0
  7  8  2  0  0  0  0
  7  3  1  0  0  0  0
  8  9  1  0  0  0  0
  9 24  1  0  0  0  0
  9 10  2  0  0  0  0
 10 25  1  0  0  0  0
 11 26  1  0  0  0  0
 11  6  1  0  0  0  0
 12 11  1  0  0  0  0
 13 12  1  0  0  0  0
 13 14  1  0  0  0  0
 14 31  1  0  0  0  0
 14  5  1  0  0  0  0
 15 33  1  0  0  0  0
 15 12  1  0  0  0  0
 16 21  1  1  0  0  0
 16 15  1  0  0  0  0
 17 34  1  0  0  0  0
 17 35  1  0  0  0  0
 17 16  1  0  0  0  0
 18 19  1  0  0  0  0
 18 17  1  0  0  0  0
 19 20  1  0  0  0  0
 20 39  1  0  0  0  0
 20 40  1  0  0  0  0
 20 16  1  0  0  0  0
 21 41  1  0  0  0  0
 23  8  1  0  0  0  0
 27 11  1  0  0  0  0
 28 13  1  0  0  0  0
 29 13  1  0  0  0  0
 30 14  1  0  0  0  0
 32 15  1  0  0  0  0
 36 18  1  0  0  0  0
 37 19  1  0  0  0  0
 38 19  1  0  0  0  0
M  END
>  <Pose>
1

>  <Score>
-5.46

$$$$
