
 OpenBabel03222202113D

 44 47  0  0  1  0  0  0  0  0999 V2000
   20.0410   77.5240   19.5790 B   0  0  0  0  0  0  0  0  0  0  0  0
   20.6510   78.5720   18.1120 C   0  0  0  0  0  0  0  0  0  0  0  0
   21.2210   77.9840   16.9870 C   0  0  0  0  0  0  0  0  0  0  0  0
   21.6610   78.7500   15.9280 C   0  0  0  0  0  0  0  0  0  0  0  0
   21.5030   80.1250   16.0540 C   0  0  0  0  0  0  0  0  0  0  0  0
   20.9450   80.7220   17.1520 C   0  0  0  0  0  0  0  0  0  0  0  0
   20.5140   79.9410   18.1960 C   0  0  0  0  0  0  0  0  0  0  0  0
   22.2550   78.1950   14.7530 N   0  0  0  0  0  0  0  0  0  0  0  0
   21.5170   77.6370   13.6730 C   0  0  0  0  0  0  0  0  0  0  0  0
   20.3470   77.1970   13.7890 O   0  0  0  0  0  0  0  0  0  0  0  0
   22.3780   77.6950   12.4980 C   0  0  2  0  0  0  0  0  0  0  0  0
   23.7690   77.5870   13.0870 C   0  0  0  0  0  0  0  0  0  0  0  0
   23.6550   78.1140   14.4610 C   0  0  0  0  0  0  0  0  0  0  0  0
   24.5900   78.4340   15.2410 O   0  0  0  0  0  0  0  0  0  0  0  0
   22.2220   78.8110   11.6540 N   0  0  0  0  0  0  0  0  0  0  0  0
   21.0700   79.6040   11.8100 C   0  0  0  0  0  0  0  0  0  0  0  0
   20.0280   79.1630   10.7730 C   0  0  0  0  0  0  0  0  0  0  0  0
   20.6740   78.3850    9.7280 N   0  0  0  0  0  0  0  0  0  0  0  0
   22.0150   78.6830    9.2660 C   0  0  0  0  0  0  0  0  0  0  0  0
   22.9230   78.9060   10.4520 C   0  0  0  0  0  0  0  0  0  0  0  0
   20.0090   77.2680    9.1220 C   0  0  0  0  0  0  0  0  0  0  0  0
   19.7580   77.2450    7.7960 N   0  0  0  0  0  0  0  0  0  0  0  0
   19.1470   76.1850    7.2300 C   0  0  0  0  0  0  0  0  0  0  0  0
   18.7570   75.0840    7.9840 C   0  0  0  0  0  0  0  0  0  0  0  0
   19.0190   75.1140    9.3420 C   0  0  0  0  0  0  0  0  0  0  0  0
   19.6310   76.2000    9.8470 N   0  0  0  0  0  0  0  0  0  0  0  0
   21.3180   76.9110   16.9440 H   0  0  0  0  0  0  0  0  0  0  0  0
   21.8500   80.7370   15.2220 H   0  0  0  0  0  0  0  0  0  0  0  0
   20.8270   81.8080   17.2410 H   0  0  0  0  0  0  0  0  0  0  0  0
   20.0750   80.4190   19.0600 H   0  0  0  0  0  0  0  0  0  0  0  0
   22.2220   76.7620   11.8850 H   0  0  0  0  0  0  0  0  0  0  0  0
   24.0270   76.5190   13.1700 H   0  0  0  0  0  0  0  0  0  0  0  0
   24.5100   78.1520   12.4800 H   0  0  0  0  0  0  0  0  0  0  0  0
   21.3130   80.6590   11.5680 H   0  0  0  0  0  0  0  0  0  0  0  0
   20.6300   79.5960   12.7950 H   0  0  0  0  0  0  0  0  0  0  0  0
   19.2640   78.5060   11.2630 H   0  0  0  0  0  0  0  0  0  0  0  0
   19.5400   80.0060   10.2790 H   0  0  0  0  0  0  0  0  0  0  0  0
   21.9970   79.5690    8.5680 H   0  0  0  0  0  0  0  0  0  0  0  0
   22.4440   77.7960    8.7200 H   0  0  0  0  0  0  0  0  0  0  0  0
   23.8230   78.2580   10.4230 H   0  0  0  0  0  0  0  0  0  0  0  0
   23.3090   79.9640   10.3470 H   0  0  0  0  0  0  0  0  0  0  0  0
   18.9390   76.1490    6.1610 H   0  0  0  0  0  0  0  0  0  0  0  0
   18.2630   74.2370    7.4950 H   0  0  0  0  0  0  0  0  0  0  0  0
   18.7300   74.2590    9.9670 H   0  0  0  0  0  0  0  0  0  0  0  0
  2  7  1  0  0  0  0
  2  1  1  0  0  0  0
  3  2  2  0  0  0  0
  4  5  2  0  0  0  0
  4  3  1  0  0  0  0
  5  6  1  0  0  0  0
  6 29  1  0  0  0  0
  6  7  2  0  0  0  0
  7 30  1  0  0  0  0
  8  4  1  0  0  0  0
  9 10  2  0  0  0  0
  9  8  1  0  0  0  0
 11 31  1  6  0  0  0
 11 12  1  0  0  0  0
 11  9  1  0  0  0  0
 12 32  1  0  0  0  0
 12 13  1  0  0  0  0
 13  8  1  0  0  0  0
 13 14  2  0  0  0  0
 15 16  1  0  0  0  0
 15 11  1  0  0  0  0
 16 35  1  0  0  0  0
 17 36  1  0  0  0  0
 17 16  1  0  0  0  0
 18 17  1  0  0  0  0
 19 18  1  0  0  0  0
 19 20  1  0  0  0  0
 20 15  1  0  0  0  0
 21 18  1  0  0  0  0
 21 26  1  0  0  0  0
 22 21  2  0  0  0  0
 23 22  1  0  0  0  0
 23 24  2  0  0  0  0
 24 25  1  0  0  0  0
 25 26  2  0  0  0  0
 25 44  1  0  0  0  0
 27  3  1  0  0  0  0
 28  5  1  0  0  0  0
 33 12  1  0  0  0  0
 34 16  1  0  0  0  0
 37 17  1  0  0  0  0
 38 19  1  0  0  0  0
 39 19  1  0  0  0  0
 40 20  1  0  0  0  0
 41 20  1  0  0  0  0
 42 23  1  0  0  0  0
 43 24  1  0  0  0  0
M  END
>  <Pose>
1

>  <Score>
-5.50

$$$$
