
 OpenBabel03222202113D

 36 39  0  0  1  0  0  0  0  0999 V2000
   21.7780   82.0060    8.3190 Cl  0  0  0  0  0  0  0  0  0  0  0  0
   21.7720   80.8450    9.6380 C   0  0  0  0  0  0  0  0  0  0  0  0
   22.1870   81.1770   10.9100 C   0  0  0  0  0  0  0  0  0  0  0  0
   22.1830   80.2730   11.9330 N   0  0  0  0  0  0  0  0  0  0  0  0
   21.7690   79.0060   11.7470 C   0  0  0  0  0  0  0  0  0  0  0  0
   21.7640   78.1060   12.7620 N   0  0  0  0  0  0  0  0  0  0  0  0
   22.1720   78.4390   14.0050 C   0  0  0  0  0  0  0  0  0  0  0  0
   22.5980   79.7160   14.2290 C   0  0  2  0  0  0  0  0  0  0  0  0
   23.0600   80.1400   15.5900 C   0  0  0  0  0  0  0  0  0  0  0  0
   22.3370   79.2610   16.5250 N   0  0  0  0  0  0  0  0  0  0  0  0
   22.6370   77.8670   16.3640 C   0  0  0  0  0  0  0  0  0  0  0  0
   22.1170   77.3620   15.0290 C   0  0  0  0  0  0  0  0  0  0  0  0
   21.4670   79.8570   17.4330 C   0  0  0  0  0  0  0  0  0  0  0  0
   21.2580   81.1170   17.3450 O   0  0  0  0  0  0  0  0  0  0  0  0
   20.7460   79.1690   18.5100 C   0  0  0  0  0  0  0  0  0  0  0  0
   20.9740   77.8890   18.8200 N   0  0  0  0  0  0  0  0  0  0  0  0
   20.3130   77.2700   19.8020 C   0  0  0  0  0  0  0  0  0  0  0  0
   19.3550   77.9170   20.5550 C   0  0  0  0  0  0  0  0  0  0  0  0
   19.1400   79.2040   20.2300 N   0  0  0  0  0  0  0  0  0  0  0  0
   19.7850   79.8440   19.2550 C   0  0  0  0  0  0  0  0  0  0  0  0
   22.5910   80.6120   13.1690 C   0  0  0  0  0  0  0  0  0  0  0  0
   22.9780   81.7810   13.3630 O   0  0  0  0  0  0  0  0  0  0  0  0
   21.3500   78.6630   10.4710 C   0  0  0  0  0  0  0  0  0  0  0  0
   21.3440   79.5540    9.4190 C   0  0  0  0  0  0  0  0  0  0  0  0
   22.5300   82.1730   11.1290 H   0  0  0  0  0  0  0  0  0  0  0  0
   22.8480   81.2000   15.7780 H   0  0  0  0  0  0  0  0  0  0  0  0
   24.1560   79.9160   15.6140 H   0  0  0  0  0  0  0  0  0  0  0  0
   22.4050   77.2130   17.1910 H   0  0  0  0  0  0  0  0  0  0  0  0
   23.7670   77.8100   16.2540 H   0  0  0  0  0  0  0  0  0  0  0  0
   21.0990   76.9820   15.1770 H   0  0  0  0  0  0  0  0  0  0  0  0
   22.7490   76.5060   14.7080 H   0  0  0  0  0  0  0  0  0  0  0  0
   20.5060   76.2270   20.0450 H   0  0  0  0  0  0  0  0  0  0  0  0
   18.8160   77.4170   21.3550 H   0  0  0  0  0  0  0  0  0  0  0  0
   19.5770   80.8620   19.0380 H   0  0  0  0  0  0  0  0  0  0  0  0
   21.0160   77.6490   10.3050 H   0  0  0  0  0  0  0  0  0  0  0  0
   21.0150   79.2840    8.4190 H   0  0  0  0  0  0  0  0  0  0  0  0
  1  2  1  0  0  0  0
  2  3  1  0  0  0  0
  3 25  1  0  0  0  0
  3  4  1  0  0  0  0
  4 21  1  0  0  0  0
  5  4  1  0  0  0  0
  5  6  1  0  0  0  0
  6  7  2  0  0  0  0
  7  8  1  0  0  0  0
  7 12  1  0  0  0  0
  8 21  1  1  0  0  0
  8  9  1  0  0  0  0
  9 27  1  0  0  0  0
  9 26  1  0  0  0  0
  9 10  1  0  0  0  0
 10 13  1  0  0  0  0
 11 10  1  0  0  0  0
 11 28  1  0  0  0  0
 12 30  1  0  0  0  0
 12 11  1  0  0  0  0
 13 15  1  0  0  0  0
 14 13  2  0  0  0  0
 15 16  2  0  0  0  0
 15 20  1  0  0  0  0
 16 17  1  0  0  0  0
 17 32  1  0  0  0  0
 17 18  2  0  0  0  0
 18 33  1  0  0  0  0
 19 18  1  0  0  0  0
 20 19  2  0  0  0  0
 21 22  2  0  0  0  0
 23  5  2  0  0  0  0
 24  2  2  0  0  0  0
 24 23  1  0  0  0  0
 29 11  1  0  0  0  0
 31 12  1  0  0  0  0
 34 20  1  0  0  0  0
 35 23  1  0  0  0  0
 36 24  1  0  0  0  0
M  END
>  <Pose>
1

>  <Score>
-6.10

$$$$
