
 OpenBabel03222202113D

 46 49  0  0  1  0  0  0  0  0999 V2000
   17.2090   74.7130    5.2030 B   0  0  0  0  0  0  0  0  0  0  0  0
   18.1500   75.3930    6.7410 C   0  0  0  0  0  0  0  0  0  0  0  0
   18.0460   76.7140    7.1080 C   0  0  0  0  0  0  0  0  0  0  0  0
   18.6870   77.2180    8.1710 N   0  0  0  0  0  0  0  0  0  0  0  0
   19.4780   76.4300    8.9440 C   0  0  0  0  0  0  0  0  0  0  0  0
   20.1360   76.8830   10.0140 N   0  0  0  0  0  0  0  0  0  0  0  0
   20.0610   78.1700   10.4050 C   0  0  0  0  0  0  0  0  0  0  0  0
   19.2660   79.0010    9.6430 C   0  0  0  0  0  0  0  0  0  0  0  0
   18.5900   78.5210    8.5390 C   0  0  0  0  0  0  0  0  0  0  0  0
   17.8520   79.2470    7.8160 O   0  0  0  0  0  0  0  0  0  0  0  0
   20.7800   78.7010   11.5870 C   0  0  0  0  0  0  0  0  0  0  0  0
   21.1010   77.7080   12.5200 O   0  0  0  0  0  0  0  0  0  0  0  0
   21.5530   77.9280   13.8000 C   0  0  0  0  0  0  0  0  0  0  0  0
   21.5850   76.9160   14.5570 O   0  0  0  0  0  0  0  0  0  0  0  0
   21.9840   79.2680   14.2830 C   0  0  0  0  0  0  0  0  0  0  0  0
   21.8750   79.3740   15.7390 N   0  0  0  0  0  0  0  0  0  0  0  0
   20.7750   79.8830   16.4890 C   0  0  0  0  0  0  0  0  0  0  0  0
   19.6360   80.1640   16.0400 O   0  0  0  0  0  0  0  0  0  0  0  0
   21.2120   80.0220   17.8970 C   0  0  2  0  0  0  0  0  0  0  0  0
   22.2060   78.8880   17.9880 C   0  0  1  0  0  0  0  0  0  0  0  0
   21.5420   77.5290   18.0960 C   0  0  0  0  0  0  0  0  0  0  0  0
   20.0490   77.6140   18.2720 C   0  0  0  0  0  0  0  0  0  0  0  0
   19.6840   78.6260   19.3200 C   0  0  0  0  0  0  0  0  0  0  0  0
   20.1250   79.9800   18.8910 C   0  0  0  0  0  0  0  0  0  0  0  0
   22.8720   78.9880   16.6690 C   0  0  0  0  0  0  0  0  0  0  0  0
   24.0950   78.7760   16.3980 O   0  0  0  0  0  0  0  0  0  0  0  0
   19.6080   75.0850    8.6050 C   0  0  0  0  0  0  0  0  0  0  0  0
   18.9440   74.5790    7.5080 C   0  0  0  0  0  0  0  0  0  0  0  0
   17.4240   77.3570    6.5100 H   0  0  0  0  0  0  0  0  0  0  0  0
   19.1400   80.0600    9.8790 H   0  0  0  0  0  0  0  0  0  0  0  0
   21.7210   79.1530   11.2170 H   0  0  0  0  0  0  0  0  0  0  0  0
   20.1020   79.4590   12.0570 H   0  0  0  0  0  0  0  0  0  0  0  0
   23.0220   79.5080   14.0090 H   0  0  0  0  0  0  0  0  0  0  0  0
   21.3280   80.0180   13.8030 H   0  0  0  0  0  0  0  0  0  0  0  0
   21.7920   80.9590   17.9770 H   0  0  0  0  0  0  0  0  0  0  0  0
   22.9260   79.0460   18.8260 H   0  0  0  0  0  0  0  0  0  0  0  0
   21.9560   76.9500   18.9640 H   0  0  0  0  0  0  0  0  0  0  0  0
   21.7390   76.8970   17.2160 H   0  0  0  0  0  0  0  0  0  0  0  0
   19.7120   76.6190   18.6780 H   0  0  0  0  0  0  0  0  0  0  0  0
   19.4940   77.7480   17.3350 H   0  0  0  0  0  0  0  0  0  0  0  0
   20.1530   78.2920   20.2760 H   0  0  0  0  0  0  0  0  0  0  0  0
   18.5790   78.5560   19.4790 H   0  0  0  0  0  0  0  0  0  0  0  0
   20.4770   80.5270   19.8150 H   0  0  0  0  0  0  0  0  0  0  0  0
   19.2750   80.5940   18.5160 H   0  0  0  0  0  0  0  0  0  0  0  0
   20.2300   74.4570    9.2100 H   0  0  0  0  0  0  0  0  0  0  0  0
   19.0340   73.5410    7.2340 H   0  0  0  0  0  0  0  0  0  0  0  0
  1  2  1  0  0  0  0
  2  3  1  0  0  0  0
  2 28  2  0  0  0  0
  3  4  1  0  0  0  0
  4  9  1  0  0  0  0
  4  5  1  0  0  0  0
  5  6  1  0  0  0  0
  6  7  2  0  0  0  0
  7 11  1  0  0  0  0
  8 30  1  0  0  0  0
  8  7  1  0  0  0  0
  9  8  1  0  0  0  0
 10  9  2  0  0  0  0
 11 32  1  0  0  0  0
 11 12  1  0  0  0  0
 12 13  1  0  0  0  0
 13 15  1  0  0  0  0
 13 14  2  0  0  0  0
 15 16  1  0  0  0  0
 16 17  1  0  0  0  0
 16 25  1  0  0  0  0
 17 19  1  0  0  0  0
 18 17  2  0  0  0  0
 19 35  1  1  0  0  0
 19 20  1  0  0  0  0
 19 24  1  0  0  0  0
 20 21  1  0  0  0  0
 20 36  1  1  0  0  0
 21 22  1  0  0  0  0
 21 37  1  0  0  0  0
 22 39  1  0  0  0  0
 22 23  1  0  0  0  0
 23 42  1  0  0  0  0
 23 41  1  0  0  0  0
 24 23  1  0  0  0  0
 24 43  1  0  0  0  0
 25 20  1  0  0  0  0
 26 25  2  0  0  0  0
 27  5  2  0  0  0  0
 27 45  1  0  0  0  0
 28 27  1  0  0  0  0
 29  3  1  0  0  0  0
 31 11  1  0  0  0  0
 33 15  1  0  0  0  0
 34 15  1  0  0  0  0
 38 21  1  0  0  0  0
 40 22  1  0  0  0  0
 44 24  1  0  0  0  0
 46 28  1  0  0  0  0
M  END
>  <Pose>
1

>  <Score>
-6.25

$$$$
