
 OpenBabel03222202113D

 56 59  0  0  0  0  0  0  0  0999 V2000
   23.9630   77.4780   16.5190 Cl  0  0  0  0  0  0  0  0  0  0  0  0
   22.6760   78.5680   16.8870 C   0  0  0  0  0  0  0  0  0  0  0  0
   22.0750   79.2590   15.8570 C   0  0  0  0  0  0  0  0  0  0  0  0
   21.0430   80.1200   16.2230 C   0  0  0  0  0  0  0  0  0  0  0  0
   20.6540   80.2650   17.5400 C   0  0  0  0  0  0  0  0  0  0  0  0
   21.2820   79.5570   18.5310 C   0  0  0  0  0  0  0  0  0  0  0  0
   22.2930   78.7080   18.2070 C   0  0  0  0  0  0  0  0  0  0  0  0
   22.4320   79.1480   14.5120 N   0  0  0  0  0  0  0  0  0  0  0  0
   21.8710   78.2140   13.5600 C   0  0  0  0  0  0  0  0  0  0  0  0
   22.1810   78.7150   12.1520 C   0  0  0  0  0  0  0  0  0  0  0  0
   22.0090   80.1580   12.1050 N   0  0  0  0  0  0  0  0  0  0  0  0
   22.7770   80.9730   13.0170 C   0  0  0  0  0  0  0  0  0  0  0  0
   23.4690   80.0540   13.9940 C   0  0  0  0  0  0  0  0  0  0  0  0
   21.1120   80.7750   11.1880 C   0  0  0  0  0  0  0  0  0  0  0  0
   21.5010   81.8200   10.5800 O   0  0  0  0  0  0  0  0  0  0  0  0
   19.7610   80.2790   10.9010 C   0  0  0  0  0  0  0  0  0  0  0  0
   19.7450   78.9370   10.3210 N   0  0  0  0  0  0  0  0  0  0  0  0
   19.3030   77.8080   10.8380 N   0  0  0  0  0  0  0  0  0  0  0  0
   19.4480   76.7680   10.0140 C   0  0  0  0  0  0  0  0  0  0  0  0
   20.0330   77.2650    8.8640 C   0  0  0  0  0  0  0  0  0  0  0  0
   20.2060   78.6140    9.0810 C   0  0  0  0  0  0  0  0  0  0  0  0
   20.8030   79.5550    8.1110 C   0  0  0  0  0  0  0  0  0  0  0  0
   19.0590   75.3700   10.2770 C   0  0  0  0  0  0  0  0  0  0  0  0
   18.8640   74.5850    9.3280 O   0  0  0  0  0  0  0  0  0  0  0  0
   18.9160   74.9420   11.6150 N   0  0  0  0  0  0  0  0  0  0  0  0
   19.3450   75.7060   12.7520 C   0  0  0  0  0  0  0  0  0  0  0  0
   18.8630   74.9420   13.9920 C   0  0  0  0  0  0  0  0  0  0  0  0
   17.5130   74.6770   13.9190 O   0  0  0  0  0  0  0  0  0  0  0  0
   17.1520   73.8820   12.8570 C   0  0  0  0  0  0  0  0  0  0  0  0
   18.2950   73.6440   11.8930 C   0  0  0  0  0  0  0  0  0  0  0  0
   20.5200   80.6960   15.4870 H   0  0  0  0  0  0  0  0  0  0  0  0
   19.8510   80.9390   17.8090 H   0  0  0  0  0  0  0  0  0  0  0  0
   20.9650   79.6810   19.5780 H   0  0  0  0  0  0  0  0  0  0  0  0
   22.8050   78.1340   18.9890 H   0  0  0  0  0  0  0  0  0  0  0  0
   22.3040   77.2050   13.6360 H   0  0  0  0  0  0  0  0  0  0  0  0
   20.7640   78.2170   13.6330 H   0  0  0  0  0  0  0  0  0  0  0  0
   21.4120   78.2740   11.4860 H   0  0  0  0  0  0  0  0  0  0  0  0
   23.1970   78.4140   11.8290 H   0  0  0  0  0  0  0  0  0  0  0  0
   23.4890   81.6410   12.4940 H   0  0  0  0  0  0  0  0  0  0  0  0
   22.0630   81.5740   13.6440 H   0  0  0  0  0  0  0  0  0  0  0  0
   24.1970   79.4210   13.4260 H   0  0  0  0  0  0  0  0  0  0  0  0
   23.9640   80.6090   14.8170 H   0  0  0  0  0  0  0  0  0  0  0  0
   19.1930   80.9650   10.2420 H   0  0  0  0  0  0  0  0  0  0  0  0
   19.2120   80.2050   11.8600 H   0  0  0  0  0  0  0  0  0  0  0  0
   20.2930   76.6990    7.9850 H   0  0  0  0  0  0  0  0  0  0  0  0
   20.2540   79.5020    7.1500 H   0  0  0  0  0  0  0  0  0  0  0  0
   20.7410   80.5920    8.4910 H   0  0  0  0  0  0  0  0  0  0  0  0
   21.8890   79.3280    7.9720 H   0  0  0  0  0  0  0  0  0  0  0  0
   18.8890   76.7180   12.7530 H   0  0  0  0  0  0  0  0  0  0  0  0
   20.4300   75.8180   12.8450 H   0  0  0  0  0  0  0  0  0  0  0  0
   19.4940   74.0570   14.1710 H   0  0  0  0  0  0  0  0  0  0  0  0
   19.0180   75.6410   14.8410 H   0  0  0  0  0  0  0  0  0  0  0  0
   16.8120   72.8770   13.2230 H   0  0  0  0  0  0  0  0  0  0  0  0
   16.3270   74.3400   12.2790 H   0  0  0  0  0  0  0  0  0  0  0  0
   17.9040   73.2090   10.9540 H   0  0  0  0  0  0  0  0  0  0  0  0
   19.0220   72.9740   12.3830 H   0  0  0  0  0  0  0  0  0  0  0  0
  1  2  1  0  0  0  0
  2  7  1  0  0  0  0
  3  4  1  0  0  0  0
  3  2  2  0  0  0  0
  4  5  2  0  0  0  0
  5 32  1  0  0  0  0
  5  6  1  0  0  0  0
  6 33  1  0  0  0  0
  7  6  2  0  0  0  0
  7 34  1  0  0  0  0
  8  3  1  0  0  0  0
  9 36  1  0  0  0  0
  9 35  1  0  0  0  0
  9  8  1  0  0  0  0
 10  9  1  0  0  0  0
 11 10  1  0  0  0  0
 11 12  1  0  0  0  0
 12 40  1  0  0  0  0
 12 13  1  0  0  0  0
 13  8  1  0  0  0  0
 13 42  1  0  0  0  0
 14 11  1  0  0  0  0
 15 14  2  0  0  0  0
 16 14  1  0  0  0  0
 16 44  1  0  0  0  0
 17 18  1  0  0  0  0
 17 16  1  0  0  0  0
 19 23  1  0  0  0  0
 19 18  2  0  0  0  0
 20 21  2  0  0  0  0
 20 19  1  0  0  0  0
 21 17  1  0  0  0  0
 22 47  1  0  0  0  0
 22 21  1  0  0  0  0
 23 25  1  0  0  0  0
 24 23  2  0  0  0  0
 25 30  1  0  0  0  0
 25 26  1  0  0  0  0
 26 49  1  0  0  0  0
 26 50  1  0  0  0  0
 26 27  1  0  0  0  0
 27 51  1  0  0  0  0
 27 52  1  0  0  0  0
 28 27  1  0  0  0  0
 29 53  1  0  0  0  0
 29 28  1  0  0  0  0
 30 56  1  0  0  0  0
 30 29  1  0  0  0  0
 31  4  1  0  0  0  0
 37 10  1  0  0  0  0
 38 10  1  0  0  0  0
 39 12  1  0  0  0  0
 41 13  1  0  0  0  0
 43 16  1  0  0  0  0
 45 20  1  0  0  0  0
 46 22  1  0  0  0  0
 48 22  1  0  0  0  0
 54 29  1  0  0  0  0
 55 30  1  0  0  0  0
M  END
>  <Pose>
1

>  <Score>
-6.42

$$$$
