
 OpenBabel03222202113D

 46 49  0  0  1  0  0  0  0  0999 V2000
   17.4240   74.3210    5.0180 Cl  0  0  0  0  0  0  0  0  0  0  0  0
   18.0960   75.1660    6.4060 C   0  0  0  0  0  0  0  0  0  0  0  0
   17.8450   76.5150    6.5160 C   0  0  0  0  0  0  0  0  0  0  0  0
   18.3640   77.1640    7.5890 N   0  0  0  0  0  0  0  0  0  0  0  0
   19.0970   76.5330    8.5200 C   0  0  0  0  0  0  0  0  0  0  0  0
   19.6160   77.1690    9.5870 N   0  0  0  0  0  0  0  0  0  0  0  0
   19.4390   78.4850    9.8020 C   0  0  0  0  0  0  0  0  0  0  0  0
   18.6830   79.1360    8.8430 C   0  0  0  0  0  0  0  0  0  0  0  0
   18.1540   78.4850    7.7520 C   0  0  0  0  0  0  0  0  0  0  0  0
   17.4660   79.1240    6.8960 O   0  0  0  0  0  0  0  0  0  0  0  0
   19.9880   79.2160   10.9520 C   0  0  0  0  0  0  0  0  0  0  0  0
   21.3460   79.5620   10.8820 N   0  0  0  0  0  0  0  0  0  0  0  0
   21.6890   80.9160   10.7430 C   0  0  0  0  0  0  0  0  0  0  0  0
   22.0580   81.6280   12.0020 C   0  0  0  0  0  0  0  0  0  0  0  0
   22.6210   80.7270   12.9970 N   0  0  0  0  0  0  0  0  0  0  0  0
   23.1000   81.0750   14.1900 N   0  0  0  0  0  0  0  0  0  0  0  0
   23.5320   79.9830   14.8270 C   0  0  0  0  0  0  0  0  0  0  0  0
   23.3090   78.9170   13.9920 C   0  0  0  0  0  0  0  0  0  0  0  0
   22.7240   79.4010   12.8170 C   0  0  0  0  0  0  0  0  0  0  0  0
   22.2670   78.7320   11.5740 C   0  0  0  0  0  0  0  0  0  0  0  0
   24.1410   79.9400   16.1930 C   0  0  1  0  0  0  0  0  0  0  0  0
   23.0930   79.8590   17.1250 O   0  0  0  0  0  0  0  0  0  0  0  0
   24.9480   78.6560   16.3650 C   0  0  0  0  0  0  0  0  0  0  0  0
   26.2830   79.0120   17.0030 C   0  0  0  0  0  0  0  0  0  0  0  0
   19.3550   75.1620    8.4130 C   0  0  0  0  0  0  0  0  0  0  0  0
   18.8430   74.4780    7.3390 C   0  0  0  0  0  0  0  0  0  0  0  0
   17.2660   77.0340    5.7900 H   0  0  0  0  0  0  0  0  0  0  0  0
   18.5070   80.2110    8.9670 H   0  0  0  0  0  0  0  0  0  0  0  0
   19.3880   80.1500   11.0960 H   0  0  0  0  0  0  0  0  0  0  0  0
   19.8140   78.6320   11.9030 H   0  0  0  0  0  0  0  0  0  0  0  0
   22.5900   80.9810   10.0630 H   0  0  0  0  0  0  0  0  0  0  0  0
   20.8840   81.4380   10.1810 H   0  0  0  0  0  0  0  0  0  0  0  0
   21.1680   82.1500   12.3960 H   0  0  0  0  0  0  0  0  0  0  0  0
   22.8150   82.4430   11.8150 H   0  0  0  0  0  0  0  0  0  0  0  0
   23.5320   77.8790   14.1730 H   0  0  0  0  0  0  0  0  0  0  0  0
   23.1480   78.5520   10.8900 H   0  0  0  0  0  0  0  0  0  0  0  0
   21.7820   77.7570   11.7820 H   0  0  0  0  0  0  0  0  0  0  0  0
   24.7720   80.8120   16.4030 H   0  0  0  0  0  0  0  0  0  0  0  0
   23.4140   80.1120   18.0380 H   0  0  0  0  0  0  0  0  0  0  0  0
   25.1460   78.2650   15.3650 H   0  0  0  0  0  0  0  0  0  0  0  0
   24.4220   77.9060   16.9570 H   0  0  0  0  0  0  0  0  0  0  0  0
   26.2980   80.0780   17.2830 H   0  0  0  0  0  0  0  0  0  0  0  0
   26.5100   78.3530   17.8730 H   0  0  0  0  0  0  0  0  0  0  0  0
   27.1320   78.8500   16.2810 H   0  0  0  0  0  0  0  0  0  0  0  0
   19.9510   74.6810    9.1810 H   0  0  0  0  0  0  0  0  0  0  0  0
   19.0410   73.4180    7.2530 H   0  0  0  0  0  0  0  0  0  0  0  0
  1  2  1  0  0  0  0
  2  3  1  0  0  0  0
  2 26  2  0  0  0  0
  3  4  1  0  0  0  0
  4  9  1  0  0  0  0
  4  5  1  0  0  0  0
  5  6  1  0  0  0  0
  6  7  2  0  0  0  0
  7 11  1  0  0  0  0
  8 28  1  0  0  0  0
  8  7  1  0  0  0  0
  9  8  1  0  0  0  0
 10  9  2  0  0  0  0
 11 29  1  0  0  0  0
 11 30  1  0  0  0  0
 12 11  1  0  0  0  0
 12 20  1  0  0  0  0
 13 12  1  0  0  0  0
 13 14  1  0  0  0  0
 14 33  1  0  0  0  0
 14 15  1  0  0  0  0
 15 16  1  0  0  0  0
 16 17  2  0  0  0  0
 17 21  1  0  0  0  0
 18 35  1  0  0  0  0
 18 17  1  0  0  0  0
 19 15  1  0  0  0  0
 19 18  2  0  0  0  0
 20 37  1  0  0  0  0
 20 19  1  0  0  0  0
 21 23  1  0  0  0  0
 21 38  1  1  0  0  0
 21 22  1  0  0  0  0
 22 39  1  0  0  0  0
 23 41  1  0  0  0  0
 23 24  1  0  0  0  0
 24 42  1  0  0  0  0
 24 43  1  0  0  0  0
 25  5  2  0  0  0  0
 25 45  1  0  0  0  0
 26 25  1  0  0  0  0
 27  3  1  0  0  0  0
 31 13  1  0  0  0  0
 32 13  1  0  0  0  0
 34 14  1  0  0  0  0
 36 20  1  0  0  0  0
 40 23  1  0  0  0  0
 44 24  1  0  0  0  0
 46 26  1  0  0  0  0
M  END
>  <Pose>
1

>  <Score>
-6.73

$$$$
