
 OpenBabel03222202113D

 43 46  0  0  0  0  0  0  0  0999 V2000
   20.0650   78.1470   11.2590 Cl  0  0  0  0  0  0  0  0  0  0  0  0
   20.1370   76.9090   12.4940 C   0  0  0  0  0  0  0  0  0  0  0  0
   20.7870   77.1480   13.6710 C   0  0  0  0  0  0  0  0  0  0  0  0
   20.7930   76.0830   14.5760 C   0  0  0  0  0  0  0  0  0  0  0  0
   20.1900   74.9220   14.2750 N   0  0  0  0  0  0  0  0  0  0  0  0
   19.5590   74.6720   13.1500 N   0  0  0  0  0  0  0  0  0  0  0  0
   19.5280   75.6660   12.2520 C   0  0  0  0  0  0  0  0  0  0  0  0
   18.9480   75.5240   11.1460 O   0  0  0  0  0  0  0  0  0  0  0  0
   18.9440   73.4100   12.9110 C   0  0  0  0  0  0  0  0  0  0  0  0
   19.6570   72.2280   12.8790 C   0  0  0  0  0  0  0  0  0  0  0  0
   19.0520   71.0110   12.6470 C   0  0  0  0  0  0  0  0  0  0  0  0
   17.6900   70.9330   12.4350 C   0  0  0  0  0  0  0  0  0  0  0  0
   16.9730   72.1100   12.4660 C   0  0  0  0  0  0  0  0  0  0  0  0
   17.5840   73.3280   12.6990 C   0  0  0  0  0  0  0  0  0  0  0  0
   21.4010   78.3830   13.9880 N   0  0  0  0  0  0  0  0  0  0  0  0
   22.2840   79.0830   13.0700 C   0  0  0  0  0  0  0  0  0  0  0  0
   23.6820   79.1980   13.6210 C   0  0  0  0  0  0  0  0  0  0  0  0
   23.5520   79.4990   15.0250 N   0  0  0  0  0  0  0  0  0  0  0  0
   22.3270   80.1070   15.4750 C   0  0  0  0  0  0  0  0  0  0  0  0
   21.2220   79.0460   15.2750 C   0  0  0  0  0  0  0  0  0  0  0  0
   24.5950   79.2090   15.9380 C   0  0  0  0  0  0  0  0  0  0  0  0
   24.5350   79.2380   17.3000 N   0  0  0  0  0  0  0  0  0  0  0  0
   25.7100   78.9050   17.7950 N   0  0  0  0  0  0  0  0  0  0  0  0
   26.5250   78.6620   16.7760 C   0  0  0  0  0  0  0  0  0  0  0  0
   25.8380   78.8500   15.6800 O   0  0  0  0  0  0  0  0  0  0  0  0
   27.9660   78.2500   16.8010 C   0  0  0  0  0  0  0  0  0  0  0  0
   21.2860   76.2240   15.5130 H   0  0  0  0  0  0  0  0  0  0  0  0
   20.7320   72.2850   13.0460 H   0  0  0  0  0  0  0  0  0  0  0  0
   19.6460   70.0920   12.6280 H   0  0  0  0  0  0  0  0  0  0  0  0
   17.2210   69.9740   12.2540 H   0  0  0  0  0  0  0  0  0  0  0  0
   15.9160   72.0620   12.3030 H   0  0  0  0  0  0  0  0  0  0  0  0
   17.0190   74.2580   12.7240 H   0  0  0  0  0  0  0  0  0  0  0  0
   21.8970   80.1400   12.9960 H   0  0  0  0  0  0  0  0  0  0  0  0
   22.3220   78.7100   12.0620 H   0  0  0  0  0  0  0  0  0  0  0  0
   24.2450   78.2290   13.5350 H   0  0  0  0  0  0  0  0  0  0  0  0
   24.2870   79.9420   13.0770 H   0  0  0  0  0  0  0  0  0  0  0  0
   22.1070   80.9830   14.8410 H   0  0  0  0  0  0  0  0  0  0  0  0
   22.3760   80.4030   16.5360 H   0  0  0  0  0  0  0  0  0  0  0  0
   20.2850   79.6160   15.3530 H   0  0  0  0  0  0  0  0  0  0  0  0
   21.4090   78.3400   16.1230 H   0  0  0  0  0  0  0  0  0  0  0  0
   28.1380   77.4860   17.5850 H   0  0  0  0  0  0  0  0  0  0  0  0
   28.2530   77.7750   15.8400 H   0  0  0  0  0  0  0  0  0  0  0  0
   28.5640   79.1580   16.9180 H   0  0  0  0  0  0  0  0  0  0  0  0
  1  2  1  0  0  0  0
  2  3  2  0  0  0  0
  3 15  1  0  0  0  0
  3  4  1  0  0  0  0
  4 27  1  0  0  0  0
  5  4  2  0  0  0  0
  6  5  1  0  0  0  0
  7  2  1  0  0  0  0
  7  6  1  0  0  0  0
  8  7  2  0  0  0  0
  9  6  1  0  0  0  0
 10  9  1  0  0  0  0
 10 28  1  0  0  0  0
 11 10  2  0  0  0  0
 12 13  2  0  0  0  0
 12 11  1  0  0  0  0
 13 14  1  0  0  0  0
 14 32  1  0  0  0  0
 14  9  2  0  0  0  0
 15 20  1  0  0  0  0
 16 17  1  0  0  0  0
 16 15  1  0  0  0  0
 17 18  1  0  0  0  0
 18 19  1  0  0  0  0
 18 21  1  0  0  0  0
 19 38  1  0  0  0  0
 20 39  1  0  0  0  0
 20 19  1  0  0  0  0
 20 40  1  0  0  0  0
 21 22  2  0  0  0  0
 22 23  1  0  0  0  0
 24 26  1  0  0  0  0
 24 23  2  0  0  0  0
 25 21  1  0  0  0  0
 25 24  1  0  0  0  0
 26 43  1  0  0  0  0
 26 41  1  0  0  0  0
 29 11  1  0  0  0  0
 30 12  1  0  0  0  0
 31 13  1  0  0  0  0
 33 16  1  0  0  0  0
 34 16  1  0  0  0  0
 35 17  1  0  0  0  0
 36 17  1  0  0  0  0
 37 19  1  0  0  0  0
 42 26  1  0  0  0  0
M  END
>  <Pose>
1

>  <Score>
-5.74

$$$$
