
 OpenBabel03222202113D

 49 52  0  0  0  0  0  0  0  0999 V2000
   21.0970   80.3150   10.7000 B   0  0  0  0  0  0  0  0  0  0  0  0
   20.1430   78.9070    9.8820 C   0  0  0  0  0  0  0  0  0  0  0  0
   20.1050   77.6630   10.4920 C   0  0  0  0  0  0  0  0  0  0  0  0
   19.4260   76.6190    9.9210 C   0  0  0  0  0  0  0  0  0  0  0  0
   18.7590   76.7440    8.7390 C   0  0  0  0  0  0  0  0  0  0  0  0
   18.7920   77.9960    8.1180 C   0  0  0  0  0  0  0  0  0  0  0  0
   19.4760   79.0520    8.6910 C   0  0  0  0  0  0  0  0  0  0  0  0
   19.3460   75.2730   10.5900 C   0  0  0  0  0  0  0  0  0  0  0  0
   19.6570   74.3030    9.8130 O   0  0  0  0  0  0  0  0  0  0  0  0
   18.9800   75.2270   11.8610 N   0  0  0  0  0  0  0  0  0  0  0  0
   18.5960   75.1790   13.1920 C   0  0  0  0  0  0  0  0  0  0  0  0
   19.7160   75.6030   14.1070 C   0  0  0  0  0  0  0  0  0  0  0  0
   20.8400   75.0350   13.8690 O   0  0  0  0  0  0  0  0  0  0  0  0
   19.5740   76.5370   15.1420 N   0  0  0  0  0  0  0  0  0  0  0  0
   19.9940   76.2810   16.4820 C   0  0  0  0  0  0  0  0  0  0  0  0
   20.5460   77.5020   17.1610 C   0  0  0  0  0  0  0  0  0  0  0  0
   21.0350   78.5840   16.2240 C   0  0  0  0  0  0  0  0  0  0  0  0
   21.2290   79.7350   17.0950 N   0  0  0  0  0  0  0  0  0  0  0  0
   21.8870   80.8470   16.5210 C   0  0  0  0  0  0  0  0  0  0  0  0
   22.6650   80.6280   15.2760 C   0  0  0  0  0  0  0  0  0  0  0  0
   23.1680   79.2230   15.1770 C   0  0  0  0  0  0  0  0  0  0  0  0
   24.3040   78.7170   14.6970 N   0  0  0  0  0  0  0  0  0  0  0  0
   24.2120   77.3810   14.8680 C   0  0  0  0  0  0  0  0  0  0  0  0
   23.0330   77.0630   15.4460 N   0  0  0  0  0  0  0  0  0  0  0  0
   22.3520   78.2270   15.6500 C   0  0  0  0  0  0  0  0  0  0  0  0
   20.0660   78.9190   15.1190 C   0  0  0  0  0  0  0  0  0  0  0  0
   19.0020   77.8580   14.9070 C   0  0  0  0  0  0  0  0  0  0  0  0
   20.6100   77.5140   11.4180 H   0  0  0  0  0  0  0  0  0  0  0  0
   18.2350   75.9110    8.3170 H   0  0  0  0  0  0  0  0  0  0  0  0
   18.2810   78.1360    7.1830 H   0  0  0  0  0  0  0  0  0  0  0  0
   19.4990   80.0190    8.2110 H   0  0  0  0  0  0  0  0  0  0  0  0
   18.7670   73.8640   11.7640 H   0  0  0  0  0  0  0  0  0  0  0  0
   18.2980   74.1160   13.4940 H   0  0  0  0  0  0  0  0  0  0  0  0
   17.6620   75.7580   13.3960 H   0  0  0  0  0  0  0  0  0  0  0  0
   19.0510   76.0080   17.0480 H   0  0  0  0  0  0  0  0  0  0  0  0
   20.6330   75.3860   16.5910 H   0  0  0  0  0  0  0  0  0  0  0  0
   19.7930   77.9340   17.8310 H   0  0  0  0  0  0  0  0  0  0  0  0
   21.4360   77.1660   17.7350 H   0  0  0  0  0  0  0  0  0  0  0  0
   20.2470   79.9810   17.4110 H   0  0  0  0  0  0  0  0  0  0  0  0
   22.6130   81.2390   17.2960 H   0  0  0  0  0  0  0  0  0  0  0  0
   21.1410   81.6850   16.3880 H   0  0  0  0  0  0  0  0  0  0  0  0
   22.0390   80.8880   14.3900 H   0  0  0  0  0  0  0  0  0  0  0  0
   23.5180   81.3630   15.2360 H   0  0  0  0  0  0  0  0  0  0  0  0
   24.9900   76.7040   14.5720 H   0  0  0  0  0  0  0  0  0  0  0  0
   22.7160   76.1080   15.6840 H   0  0  0  0  0  0  0  0  0  0  0  0
   20.6360   78.9730   14.1420 H   0  0  0  0  0  0  0  0  0  0  0  0
   19.5430   79.8780   15.2620 H   0  0  0  0  0  0  0  0  0  0  0  0
   18.1120   78.0340   15.5550 H   0  0  0  0  0  0  0  0  0  0  0  0
   18.6970   77.9100   13.8460 H   0  0  0  0  0  0  0  0  0  0  0  0
  2  3  1  0  0  0  0
  2  1  1  0  0  0  0
  3 28  1  0  0  0  0
  4  3  2  0  0  0  0
  4  8  1  0  0  0  0
  5  4  1  0  0  0  0
  6  7  1  0  0  0  0
  6  5  2  0  0  0  0
  7  2  2  0  0  0  0
  8 10  1  0  0  0  0
  9  8  2  0  0  0  0
 10 11  1  0  0  0  0
 11 34  1  0  0  0  0
 11 33  1  0  0  0  0
 11 12  1  0  0  0  0
 12 14  1  0  0  0  0
 13 12  2  0  0  0  0
 14 15  1  0  0  0  0
 15 36  1  0  0  0  0
 15 35  1  0  0  0  0
 15 16  1  0  0  0  0
 16 38  1  0  0  0  0
 16 37  1  0  0  0  0
 17 18  1  0  0  0  0
 17 16  1  0  0  0  0
 18 39  1  0  0  0  0
 19 18  1  0  0  0  0
 19 40  1  0  0  0  0
 20 19  1  0  0  0  0
 21 20  1  0  0  0  0
 21 25  2  0  0  0  0
 22 23  2  0  0  0  0
 22 21  1  0  0  0  0
 23 24  1  0  0  0  0
 24 25  1  0  0  0  0
 24 45  1  0  0  0  0
 25 17  1  0  0  0  0
 26 47  1  0  0  0  0
 26 17  1  0  0  0  0
 27 26  1  0  0  0  0
 27 14  1  0  0  0  0
 27 48  1  0  0  0  0
 29  5  1  0  0  0  0
 30  6  1  0  0  0  0
 31  7  1  0  0  0  0
 32 10  1  0  0  0  0
 41 19  1  0  0  0  0
 42 20  1  0  0  0  0
 43 20  1  0  0  0  0
 44 23  1  0  0  0  0
 46 26  1  0  0  0  0
 49 27  1  0  0  0  0
M  END
>  <Pose>
1

>  <Score>
-5.89

$$$$
