
 OpenBabel03222202113D

 45 48  0  0  1  0  0  0  0  0999 V2000
   16.8360   76.2550    5.6180 Cl  0  0  0  0  0  0  0  0  0  0  0  0
   17.9490   76.1060    6.9820 C   0  0  0  0  0  0  0  0  0  0  0  0
   18.3530   77.2320    7.6570 C   0  0  0  0  0  0  0  0  0  0  0  0
   19.2310   77.1540    8.7390 C   0  0  0  0  0  0  0  0  0  0  0  0
   19.6660   75.8910    9.0880 C   0  0  0  0  0  0  0  0  0  0  0  0
   19.2530   74.7640    8.4020 C   0  0  0  0  0  0  0  0  0  0  0  0
   18.3850   74.8470    7.3340 C   0  0  0  0  0  0  0  0  0  0  0  0
   19.6600   78.3770    9.4570 C   0  0  0  0  0  0  0  0  0  0  0  0
   21.1470   78.5920    9.3760 C   0  0  0  0  0  0  0  0  0  0  0  0
   21.7520   78.9430   10.6400 N   0  0  0  0  0  0  0  0  0  0  0  0
   21.1780   79.1440   11.9430 C   0  0  2  0  0  0  0  0  0  0  0  0
   22.1570   80.1270   12.5550 C   0  0  2  0  0  0  0  0  0  0  0  0
   23.3930   79.5590   12.1430 O   0  0  0  0  0  0  0  0  0  0  0  0
   23.1470   79.1640   10.8110 C   0  0  0  0  0  0  0  0  0  0  0  0
   24.0670   79.0420    9.9420 O   0  0  0  0  0  0  0  0  0  0  0  0
   21.8400   79.9290   13.9930 C   0  0  0  0  0  0  0  0  0  0  0  0
   21.9240   78.4550   14.1000 N   0  0  0  0  0  0  0  0  0  0  0  0
   21.4500   77.9340   12.8550 C   0  0  0  0  0  0  0  0  0  0  0  0
   22.4010   77.8500   15.2660 C   0  0  0  0  0  0  0  0  0  0  0  0
   23.6130   77.3830   15.3010 O   0  0  0  0  0  0  0  0  0  0  0  0
   21.6670   77.6710   16.5040 C   0  0  0  0  0  0  0  0  0  0  0  0
   20.4910   77.0060   16.6690 N   0  0  0  0  0  0  0  0  0  0  0  0
   20.1480   77.0630   17.9540 C   0  0  0  0  0  0  0  0  0  0  0  0
   21.0770   77.7510   18.6200 N   0  0  0  0  0  0  0  0  0  0  0  0
   22.0250   78.1330   17.7360 C   0  0  0  0  0  0  0  0  0  0  0  0
   19.7580   76.3570   15.6140 C   0  0  0  0  0  0  0  0  0  0  0  0
   18.0130   78.2360    7.3860 H   0  0  0  0  0  0  0  0  0  0  0  0
   20.3550   75.8220    9.9340 H   0  0  0  0  0  0  0  0  0  0  0  0
   19.6140   73.7830    8.7050 H   0  0  0  0  0  0  0  0  0  0  0  0
   18.0530   73.9750    6.7890 H   0  0  0  0  0  0  0  0  0  0  0  0
   19.4150   78.2350   10.5290 H   0  0  0  0  0  0  0  0  0  0  0  0
   19.0850   79.2810    9.1340 H   0  0  0  0  0  0  0  0  0  0  0  0
   21.2970   79.4070    8.6110 H   0  0  0  0  0  0  0  0  0  0  0  0
   21.6580   77.7090    8.9410 H   0  0  0  0  0  0  0  0  0  0  0  0
   20.1450   79.4650   11.9620 H   0  0  0  0  0  0  0  0  0  0  0  0
   22.0240   81.1540   12.1870 H   0  0  0  0  0  0  0  0  0  0  0  0
   22.4830   80.4390   14.6970 H   0  0  0  0  0  0  0  0  0  0  0  0
   20.7620   80.1540   14.1390 H   0  0  0  0  0  0  0  0  0  0  0  0
   20.5550   77.3040   12.9080 H   0  0  0  0  0  0  0  0  0  0  0  0
   22.2540   77.3220   12.3470 H   0  0  0  0  0  0  0  0  0  0  0  0
   19.2660   76.6430   18.4580 H   0  0  0  0  0  0  0  0  0  0  0  0
   22.9040   78.7180   18.0520 H   0  0  0  0  0  0  0  0  0  0  0  0
   20.2740   75.4590   15.2200 H   0  0  0  0  0  0  0  0  0  0  0  0
   19.5590   77.0530   14.7640 H   0  0  0  0  0  0  0  0  0  0  0  0
   18.7630   76.0370   15.9850 H   0  0  0  0  0  0  0  0  0  0  0  0
  1  2  1  0  0  0  0
  2  7  2  0  0  0  0
  2  3  1  0  0  0  0
  3  4  2  0  0  0  0
  4  5  1  0  0  0  0
  4  8  1  0  0  0  0
  5 28  1  0  0  0  0
  6 29  1  0  0  0  0
  6  5  2  0  0  0  0
  7  6  1  0  0  0  0
  8 31  1  0  0  0  0
  9  8  1  0  0  0  0
  9 10  1  0  0  0  0
 10 14  1  0  0  0  0
 10 11  1  0  0  0  0
 11 35  1  6  0  0  0
 11 12  1  0  0  0  0
 11 18  1  0  0  0  0
 12 36  1  6  0  0  0
 12 16  1  0  0  0  0
 13 12  1  0  0  0  0
 14 13  1  0  0  0  0
 15 14  2  0  0  0  0
 16 17  1  0  0  0  0
 16 38  1  0  0  0  0
 16 37  1  0  0  0  0
 17 19  1  0  0  0  0
 18 39  1  0  0  0  0
 18 17  1  0  0  0  0
 19 20  2  0  0  0  0
 19 21  1  0  0  0  0
 21 22  1  0  0  0  0
 21 25  2  0  0  0  0
 22 23  1  0  0  0  0
 23 41  1  0  0  0  0
 23 24  2  0  0  0  0
 25 42  1  0  0  0  0
 25 24  1  0  0  0  0
 26 45  1  0  0  0  0
 26 22  1  0  0  0  0
 27  3  1  0  0  0  0
 30  7  1  0  0  0  0
 32  8  1  0  0  0  0
 33  9  1  0  0  0  0
 34  9  1  0  0  0  0
 40 18  1  0  0  0  0
 43 26  1  0  0  0  0
 44 26  1  0  0  0  0
M  END
>  <Pose>
1

>  <Score>
-6.22

$$$$
