
 OpenBabel03222202113D

 53 56  0  0  1  0  0  0  0  0999 V2000
   19.7250   80.8420   19.5180 Cl  0  0  0  0  0  0  0  0  0  0  0  0
   20.6370   80.2880   18.1410 C   0  0  0  0  0  0  0  0  0  0  0  0
   20.9120   78.9660   17.9510 C   0  0  0  0  0  0  0  0  0  0  0  0
   21.6430   78.5790   16.8380 C   0  0  0  0  0  0  0  0  0  0  0  0
   22.1100   79.4540   15.9110 C   0  0  0  0  0  0  0  0  0  0  0  0
   21.8270   80.8050   16.1090 C   0  0  0  0  0  0  0  0  0  0  0  0
   21.1030   81.2140   17.2060 C   0  0  0  0  0  0  0  0  0  0  0  0
   22.8850   79.0430   14.7470 C   0  0  1  0  0  0  0  0  0  0  0  0
   23.3510   77.6550   14.9240 N   0  0  0  0  0  0  0  0  0  0  0  0
   22.3340   76.7820   14.4510 C   0  0  0  0  0  0  0  0  0  0  0  0
   22.1760   75.5930   14.7360 O   0  0  0  0  0  0  0  0  0  0  0  0
   21.4800   77.5620   13.5340 C   0  0  0  0  0  0  0  0  0  0  0  0
   20.4520   77.1660   12.8960 O   0  0  0  0  0  0  0  0  0  0  0  0
   22.0520   78.8980   13.5090 C   0  0  0  0  0  0  0  0  0  0  0  0
   21.8200   79.7800   12.5680 C   0  0  0  0  0  0  0  0  0  0  0  0
   22.4010   81.0380   12.6960 O   0  0  0  0  0  0  0  0  0  0  0  0
   21.0030   79.5680   11.3780 C   0  0  0  0  0  0  0  0  0  0  0  0
   21.5620   78.7730   10.3840 C   0  0  0  0  0  0  0  0  0  0  0  0
   20.8430   78.5100    9.2520 C   0  0  0  0  0  0  0  0  0  0  0  0
   19.5710   79.0190    9.0760 C   0  0  0  0  0  0  0  0  0  0  0  0
   19.0210   79.8060   10.0650 C   0  0  0  0  0  0  0  0  0  0  0  0
   19.7560   80.0640   11.2040 C   0  0  0  0  0  0  0  0  0  0  0  0
   18.6980   78.6590    7.6230 Cl  0  0  0  0  0  0  0  0  0  0  0  0
   24.6460   77.3630   15.4840 C   0  0  0  0  0  0  0  0  0  0  0  0
   24.9250   77.9530   16.8130 C   0  0  0  0  0  0  0  0  0  0  0  0
   26.2580   78.2960   17.1430 N   0  0  0  0  0  4  0  0  0  0  0  0
   26.4960   78.4430   18.5640 C   0  0  0  0  0  0  0  0  0  0  0  0
   27.0740   79.7840   18.9470 C   0  0  0  0  0  0  0  0  0  0  0  0
   28.1480   80.1840   18.1950 O   0  0  0  0  0  0  0  0  0  0  0  0
   27.9590   80.0340   16.8340 C   0  0  0  0  0  0  0  0  0  0  0  0
   26.5390   79.6300   16.5720 C   0  0  0  0  0  0  0  0  0  0  0  0
   20.5480   78.2530   18.6790 H   0  0  0  0  0  0  0  0  0  0  0  0
   21.8280   77.5290   16.7330 H   0  0  0  0  0  0  0  0  0  0  0  0
   22.1920   81.5140   15.3800 H   0  0  0  0  0  0  0  0  0  0  0  0
   20.8650   82.2460   17.3930 H   0  0  0  0  0  0  0  0  0  0  0  0
   23.7650   79.6970   14.5530 H   0  0  0  0  0  0  0  0  0  0  0  0
   22.5760   78.3610   10.5110 H   0  0  0  0  0  0  0  0  0  0  0  0
   21.3210   77.8830    8.4980 H   0  0  0  0  0  0  0  0  0  0  0  0
   18.0230   80.1900    9.8990 H   0  0  0  0  0  0  0  0  0  0  0  0
   19.2940   80.6760   11.9860 H   0  0  0  0  0  0  0  0  0  0  0  0
   25.4150   77.7910   14.7680 H   0  0  0  0  0  0  0  0  0  0  0  0
   24.8680   76.2660   15.4420 H   0  0  0  0  0  0  0  0  0  0  0  0
   24.2600   78.8590   16.9800 H   0  0  0  0  0  0  0  0  0  0  0  0
   24.5680   77.2670   17.6510 H   0  0  0  0  0  0  0  0  0  0  0  0
   26.9650   77.6860   16.7000 H   0  0  0  0  0  0  0  0  0  0  0  0
   27.1700   77.6270   18.8870 H   0  0  0  0  0  0  0  0  0  0  0  0
   25.5610   78.3440   19.1550 H   0  0  0  0  0  0  0  0  0  0  0  0
   27.4120   79.6660   20.0120 H   0  0  0  0  0  0  0  0  0  0  0  0
   26.2640   80.5460   18.9920 H   0  0  0  0  0  0  0  0  0  0  0  0
   28.1610   80.9560   16.2710 H   0  0  0  0  0  0  0  0  0  0  0  0
   28.6150   79.2280   16.4410 H   0  0  0  0  0  0  0  0  0  0  0  0
   25.8120   80.3270   17.0200 H   0  0  0  0  0  0  0  0  0  0  0  0
   26.3450   79.6210   15.4730 H   0  0  0  0  0  0  0  0  0  0  0  0
  2  1  1  0  0  0  0
  3  2  1  0  0  0  0
  3 32  1  0  0  0  0
  4  3  2  0  0  0  0
  5  6  2  0  0  0  0
  5  4  1  0  0  0  0
  6  7  1  0  0  0  0
  7 35  1  0  0  0  0
  7  2  2  0  0  0  0
  8 36  1  6  0  0  0
  8  9  1  0  0  0  0
  8  5  1  0  0  0  0
  9 24  1  0  0  0  0
 10 11  2  0  0  0  0
 10  9  1  0  0  0  0
 12 10  1  0  0  0  0
 13 12  2  0  0  0  0
 14 12  1  0  0  0  0
 14  8  1  0  0  0  0
 15 16  1  0  0  0  0
 15 14  2  0  0  0  0
 17 15  1  0  0  0  0
 18 37  1  0  0  0  0
 18 17  2  0  0  0  0
 19 18  1  0  0  0  0
 20 19  2  0  0  0  0
 20 21  1  0  0  0  0
 21 22  2  0  0  0  0
 22 17  1  0  0  0  0
 22 40  1  0  0  0  0
 23 20  1  0  0  0  0
 24 25  1  0  0  0  0
 25 43  1  0  0  0  0
 25 26  1  0  0  0  0
 25 44  1  0  0  0  0
 26 27  1  0  0  0  0
 27 46  1  0  0  0  0
 27 28  1  0  0  0  0
 27 47  1  0  0  0  0
 28 49  1  0  0  0  0
 28 48  1  0  0  0  0
 29 28  1  0  0  0  0
 30 29  1  0  0  0  0
 31 30  1  0  0  0  0
 31 52  1  0  0  0  0
 31 26  1  0  0  0  0
 33  4  1  0  0  0  0
 34  6  1  0  0  0  0
 38 19  1  0  0  0  0
 39 21  1  0  0  0  0
 41 24  1  0  0  0  0
 42 24  1  0  0  0  0
 45 26  1  0  0  0  0
 50 30  1  0  0  0  0
 51 30  1  0  0  0  0
 53 31  1  0  0  0  0
M  END
>  <Pose>
1

>  <Score>
-4.14

$$$$
