
 OpenBabel03222202113D

 32 35  0  0  1  0  0  0  0  0999 V2000
   26.4200   78.9700   16.7460 Cl  0  0  0  0  0  0  0  0  0  0  0  0
   24.7830   78.4320   16.3600 C   0  0  0  0  0  0  0  0  0  0  0  0
   23.7170   78.7190   17.1780 C   0  0  0  0  0  0  0  0  0  0  0  0
   22.4250   78.2800   16.8500 C   0  0  0  0  0  0  0  0  0  0  0  0
   22.1850   77.5600   15.7140 C   0  0  0  0  0  0  0  0  0  0  0  0
   23.2710   77.2630   14.8710 C   0  0  0  0  0  0  0  0  0  0  0  0
   24.5220   77.7070   15.2230 C   0  0  0  0  0  0  0  0  0  0  0  0
   20.8150   77.2200   15.5750 N   0  0  0  0  0  0  0  0  0  0  0  0
   20.1510   77.7650   16.7020 C   0  0  0  0  0  0  0  0  0  0  0  0
   18.9070   77.6530   16.9080 O   0  0  0  0  0  0  0  0  0  0  0  0
   21.1360   78.4610   17.5590 C   0  0  1  0  0  0  0  0  0  0  0  0
   21.1320   77.7470   18.8950 C   0  0  0  0  0  0  0  0  0  0  0  0
   19.8220   78.1130   19.5300 C   0  0  0  0  0  0  0  0  0  0  0  0
   19.0090   77.2700   19.9520 O   0  0  0  0  0  0  0  0  0  0  0  0
   19.5380   79.5140   19.6310 N   0  0  0  0  0  0  0  0  0  0  0  0
   20.0810   80.4080   18.6680 C   0  0  0  0  0  0  0  0  0  0  0  0
   20.0000   81.7570   18.5070 N   0  0  0  0  0  0  0  0  0  0  0  0
   20.6990   82.0850   17.4480 N   0  0  0  0  0  0  0  0  0  0  0  0
   21.2550   81.0030   16.8820 C   0  0  0  0  0  0  0  0  0  0  0  0
   20.8640   79.9060   17.6600 C   0  0  0  0  0  0  0  0  0  0  0  0
   20.2230   76.4540   14.4740 C   0  0  0  0  0  0  0  0  0  0  0  0
   23.8580   79.2750   18.0690 H   0  0  0  0  0  0  0  0  0  0  0  0
   23.0760   76.6910   13.9720 H   0  0  0  0  0  0  0  0  0  0  0  0
   25.3570   77.4700   14.5610 H   0  0  0  0  0  0  0  0  0  0  0  0
   21.9740   78.0090   19.5370 H   0  0  0  0  0  0  0  0  0  0  0  0
   21.0670   76.6640   18.6740 H   0  0  0  0  0  0  0  0  0  0  0  0
   18.9410   79.8890   20.4000 H   0  0  0  0  0  0  0  0  0  0  0  0
   19.4550   82.3750   19.1520 H   0  0  0  0  0  0  0  0  0  0  0  0
   21.8810   80.9190   16.0130 H   0  0  0  0  0  0  0  0  0  0  0  0
   19.1670   76.2560   14.7500 H   0  0  0  0  0  0  0  0  0  0  0  0
   20.3310   76.9620   13.5100 H   0  0  0  0  0  0  0  0  0  0  0  0
   20.7390   75.4580   14.3650 H   0  0  0  0  0  0  0  0  0  0  0  0
  2  1  1  0  0  0  0
  2  3  1  0  0  0  0
  3 22  1  0  0  0  0
  4  3  2  0  0  0  0
  4 11  1  0  0  0  0
  5  4  1  0  0  0  0
  6  7  1  0  0  0  0
  6  5  2  0  0  0  0
  7  2  2  0  0  0  0
  8  5  1  0  0  0  0
  8  9  1  0  0  0  0
  9 10  2  0  0  0  0
 11  9  1  6  0  0  0
 11 20  1  0  0  0  0
 11 12  1  0  0  0  0
 12 13  1  0  0  0  0
 12 25  1  0  0  0  0
 13 15  1  0  0  0  0
 13 14  2  0  0  0  0
 15 27  1  0  0  0  0
 16 15  1  0  0  0  0
 17 16  1  0  0  0  0
 17 28  1  0  0  0  0
 18 17  1  0  0  0  0
 19 18  2  0  0  0  0
 19 20  1  0  0  0  0
 20 16  2  0  0  0  0
 21 30  1  0  0  0  0
 21  8  1  0  0  0  0
 23  6  1  0  0  0  0
 24  7  1  0  0  0  0
 26 12  1  0  0  0  0
 29 19  1  0  0  0  0
 31 21  1  0  0  0  0
 32 21  1  0  0  0  0
M  END
>  <Pose>
1

>  <Score>
-6.16

$$$$
