
 OpenBabel03222202113D

 61 64  0  0  1  0  0  0  0  0999 V2000
   18.3410   76.7980   19.4350 Cl  0  0  0  0  0  0  0  0  0  0  0  0
   19.3680   77.5070   18.1820 C   0  0  0  0  0  0  0  0  0  0  0  0
   19.7720   78.8210   18.2780 C   0  0  0  0  0  0  0  0  0  0  0  0
   20.5620   79.3610   17.3160 C   0  0  0  0  0  0  0  0  0  0  0  0
   20.9710   78.5910   16.2190 C   0  0  0  0  0  0  0  0  0  0  0  0
   20.5560   77.2830   16.1430 C   0  0  0  0  0  0  0  0  0  0  0  0
   19.7480   76.7150   17.1200 C   0  0  0  0  0  0  0  0  0  0  0  0
   21.8010   79.1510   15.2060 N   0  0  0  0  0  0  0  0  0  0  0  0
   22.6760   80.2620   15.5470 C   0  0  2  0  0  0  0  0  0  0  0  0
   21.8640   81.2120   16.2710 N   0  0  0  0  0  0  0  0  0  0  0  0
   21.0420   80.7410   17.3260 C   0  0  0  0  0  0  0  0  0  0  0  0
   20.6920   81.4600   18.2980 O   0  0  0  0  0  0  0  0  0  0  0  0
   23.1810   80.8720   14.2830 C   0  0  0  0  0  0  0  0  0  0  0  0
   24.4290   80.2060   13.7510 C   0  0  0  0  0  0  0  0  0  0  0  0
   24.3070   78.7630   13.7310 N   0  0  0  0  0  0  0  0  0  0  0  0
   24.0970   77.9720   14.9270 C   0  0  0  0  0  0  0  0  0  0  0  0
   23.8710   76.7560   14.7290 O   0  0  0  0  0  0  0  0  0  0  0  0
   24.1050   78.3750   16.3430 C   0  0  0  0  0  0  0  0  0  0  0  0
   23.7700   79.8280   16.5010 C   0  0  0  0  0  0  0  0  0  0  0  0
   24.3660   78.0450   12.5240 C   0  0  0  0  0  0  0  0  0  0  0  0
   23.8700   78.5860   11.2780 C   0  0  0  0  0  0  0  0  0  0  0  0
   24.6650   78.2520   10.2610 O   0  0  0  0  0  0  0  0  0  0  0  0
   22.7580   79.3480   11.0020 N   0  0  0  0  0  0  0  0  0  0  0  0
   22.6660   80.0120    9.6750 C   0  0  0  0  0  0  0  0  0  0  0  0
   21.2240   79.7340    9.2200 C   0  0  0  0  0  0  0  0  0  0  0  0
   20.6750   78.6040    9.8910 N   0  0  0  0  0  0  0  0  0  0  0  0
   20.4310   78.7670   11.2930 C   0  0  0  0  0  0  0  0  0  0  0  0
   21.6440   79.5750   11.8360 C   0  0  0  0  0  0  0  0  0  0  0  0
   19.6660   77.8860    9.1900 C   0  0  0  0  0  0  0  0  0  0  0  0
   18.3780   78.6620    9.0080 C   0  0  0  0  0  0  0  0  0  0  0  0
   20.1180   77.3620    7.8540 C   0  0  0  0  0  0  0  0  0  0  0  0
   19.4810   79.4540   19.1060 H   0  0  0  0  0  0  0  0  0  0  0  0
   20.8840   76.6900   15.2780 H   0  0  0  0  0  0  0  0  0  0  0  0
   19.4290   75.6860   17.0480 H   0  0  0  0  0  0  0  0  0  0  0  0
   21.7380   78.7290   14.2560 H   0  0  0  0  0  0  0  0  0  0  0  0
   21.8510   82.2290   16.0580 H   0  0  0  0  0  0  0  0  0  0  0  0
   23.4820   81.9310   14.5290 H   0  0  0  0  0  0  0  0  0  0  0  0
   22.3600   80.9120   13.5610 H   0  0  0  0  0  0  0  0  0  0  0  0
   24.6880   80.6300   12.7830 H   0  0  0  0  0  0  0  0  0  0  0  0
   25.2430   80.4670   14.4540 H   0  0  0  0  0  0  0  0  0  0  0  0
   23.3520   77.7660   16.9040 H   0  0  0  0  0  0  0  0  0  0  0  0
   25.1200   78.2050   16.8080 H   0  0  0  0  0  0  0  0  0  0  0  0
   24.6590   80.4820   16.4020 H   0  0  0  0  0  0  0  0  0  0  0  0
   23.4400   79.9690   17.5740 H   0  0  0  0  0  0  0  0  0  0  0  0
   23.8560   77.0150   12.6260 H   0  0  0  0  0  0  0  0  0  0  0  0
   25.4410   77.7190   12.3760 H   0  0  0  0  0  0  0  0  0  0  0  0
   22.8170   81.1020    9.8050 H   0  0  0  0  0  0  0  0  0  0  0  0
   23.4130   79.6120    8.9930 H   0  0  0  0  0  0  0  0  0  0  0  0
   20.6250   80.6670    9.3280 H   0  0  0  0  0  0  0  0  0  0  0  0
   21.2940   79.4890    8.1410 H   0  0  0  0  0  0  0  0  0  0  0  0
   20.5090   77.7780   11.7880 H   0  0  0  0  0  0  0  0  0  0  0  0
   19.4940   79.2620   11.5550 H   0  0  0  0  0  0  0  0  0  0  0  0
   21.7350   79.4520   12.9030 H   0  0  0  0  0  0  0  0  0  0  0  0
   21.3700   80.6860   11.7150 H   0  0  0  0  0  0  0  0  0  0  0  0
   19.4020   76.9930    9.8060 H   0  0  0  0  0  0  0  0  0  0  0  0
   17.9800   78.9030   10.0210 H   0  0  0  0  0  0  0  0  0  0  0  0
   18.5220   79.5400    8.3800 H   0  0  0  0  0  0  0  0  0  0  0  0
   17.6430   77.9560    8.5530 H   0  0  0  0  0  0  0  0  0  0  0  0
   20.1800   78.1460    7.0820 H   0  0  0  0  0  0  0  0  0  0  0  0
   21.1140   76.8510    8.0120 H   0  0  0  0  0  0  0  0  0  0  0  0
   19.3770   76.5930    7.5430 H   0  0  0  0  0  0  0  0  0  0  0  0
  2  3  1  0  0  0  0
  2  1  1  0  0  0  0
  3 32  1  0  0  0  0
  4 11  1  0  0  0  0
  4  3  2  0  0  0  0
  5  4  1  0  0  0  0
  6  5  2  0  0  0  0
  6  7  1  0  0  0  0
  7  2  2  0  0  0  0
  8  9  1  0  0  0  0
  8  5  1  0  0  0  0
  9 13  1  6  0  0  0
  9 10  1  0  0  0  0
  9 19  1  0  0  0  0
 10 11  1  0  0  0  0
 11 12  2  0  0  0  0
 13 37  1  0  0  0  0
 14 13  1  0  0  0  0
 14 40  1  0  0  0  0
 15 14  1  0  0  0  0
 15 16  1  0  0  0  0
 16 18  1  0  0  0  0
 17 16  2  0  0  0  0
 18 19  1  0  0  0  0
 18 42  1  0  0  0  0
 18 41  1  0  0  0  0
 19 44  1  0  0  0  0
 20 45  1  0  0  0  0
 20 15  1  0  0  0  0
 21 20  1  0  0  0  0
 22 21  2  0  0  0  0
 23 21  1  0  0  0  0
 23 28  1  0  0  0  0
 24 47  1  0  0  0  0
 24 23  1  0  0  0  0
 25 49  1  0  0  0  0
 25 24  1  0  0  0  0
 25 26  1  0  0  0  0
 26 27  1  0  0  0  0
 27 52  1  0  0  0  0
 27 51  1  0  0  0  0
 27 28  1  0  0  0  0
 28 53  1  0  0  0  0
 29 55  1  0  0  0  0
 29 26  1  0  0  0  0
 30 29  1  0  0  0  0
 30 56  1  0  0  0  0
 31 60  1  0  0  0  0
 31 29  1  0  0  0  0
 33  6  1  0  0  0  0
 34  7  1  0  0  0  0
 35  8  1  0  0  0  0
 36 10  1  0  0  0  0
 38 13  1  0  0  0  0
 39 14  1  0  0  0  0
 43 19  1  0  0  0  0
 46 20  1  0  0  0  0
 48 24  1  0  0  0  0
 50 25  1  0  0  0  0
 54 28  1  0  0  0  0
 57 30  1  0  0  0  0
 58 30  1  0  0  0  0
 59 31  1  0  0  0  0
 61 31  1  0  0  0  0
M  END
>  <Pose>
1

>  <Score>
-4.96

$$$$
