
 OpenBabel03222202113D

 37 40  0  0  0  0  0  0  0  0999 V2000
   23.0470   80.6470   15.7350 B   0  0  0  0  0  0  0  0  0  0  0  0
   21.8350   79.4830   16.6470 C   0  0  0  0  0  0  0  0  0  0  0  0
   21.6130   79.6230   18.0000 C   0  0  0  0  0  0  0  0  0  0  0  0
   20.7450   78.7970   18.6750 C   0  0  0  0  0  0  0  0  0  0  0  0
   20.3400   78.7030   19.9640 N   0  0  0  0  0  0  0  0  0  0  0  0
   19.4800   77.7040   20.0380 N   0  0  0  0  0  0  0  0  0  0  0  0
   19.2990   77.1410   18.8760 N   0  0  0  0  0  0  0  0  0  0  0  0
   20.0850   77.8070   17.9880 C   0  0  0  0  0  0  0  0  0  0  0  0
   20.3050   77.6600   16.6290 C   0  0  0  0  0  0  0  0  0  0  0  0
   21.1810   78.4980   15.9550 C   0  0  0  0  0  0  0  0  0  0  0  0
   19.5910   76.6020   15.9240 C   0  0  0  0  0  0  0  0  0  0  0  0
   18.4600   76.2720   16.3290 O   0  0  0  0  0  0  0  0  0  0  0  0
   20.1340   75.9360   14.7960 N   0  0  0  0  0  0  0  0  0  0  0  0
   19.2980   75.5170   13.6980 C   0  0  0  0  0  0  0  0  0  0  0  0
   19.3620   74.0190   13.5800 C   0  0  0  0  0  0  0  0  0  0  0  0
   18.3760   73.1950   13.1930 N   0  0  0  0  0  0  0  0  0  0  0  0
   18.7940   71.9110   13.2060 C   0  0  0  0  0  0  0  0  0  0  0  0
   20.0690   71.9430   13.6110 N   0  0  0  0  0  0  0  0  0  0  0  0
   20.4160   73.2200   13.8390 N   0  0  0  0  0  0  0  0  0  0  0  0
   17.7940   70.8860   12.7970 C   0  0  0  0  0  0  0  0  0  0  0  0
   17.3000   71.3540   11.4200 C   0  0  0  0  0  0  0  0  0  0  0  0
   16.7980   72.7610   11.4380 C   0  0  0  0  0  0  0  0  0  0  0  0
   17.0080   73.4210   12.7830 C   0  0  0  0  0  0  0  0  0  0  0  0
   22.1290   80.3990   18.5450 H   0  0  0  0  0  0  0  0  0  0  0  0
   18.7010   76.3430   18.5780 H   0  0  0  0  0  0  0  0  0  0  0  0
   21.3180   78.3410   14.8890 H   0  0  0  0  0  0  0  0  0  0  0  0
   21.1480   75.7440   14.7560 H   0  0  0  0  0  0  0  0  0  0  0  0
   18.2770   75.8890   13.7750 H   0  0  0  0  0  0  0  0  0  0  0  0
   19.7670   75.9310   12.7630 H   0  0  0  0  0  0  0  0  0  0  0  0
   16.9720   70.8320   13.5210 H   0  0  0  0  0  0  0  0  0  0  0  0
   18.2800   69.8970   12.6030 H   0  0  0  0  0  0  0  0  0  0  0  0
   18.1930   71.3070   10.7660 H   0  0  0  0  0  0  0  0  0  0  0  0
   16.5530   70.6470   11.0120 H   0  0  0  0  0  0  0  0  0  0  0  0
   15.7290   72.8420   11.1250 H   0  0  0  0  0  0  0  0  0  0  0  0
   17.3600   73.3690   10.7010 H   0  0  0  0  0  0  0  0  0  0  0  0
   16.3570   72.8980   13.5200 H   0  0  0  0  0  0  0  0  0  0  0  0
   16.7820   74.4930   12.7620 H   0  0  0  0  0  0  0  0  0  0  0  0
  1  2  1  0  0  0  0
  2  3  1  0  0  0  0
  3 24  1  0  0  0  0
  3  4  2  0  0  0  0
  4  5  1  0  0  0  0
  5  6  2  0  0  0  0
  7  6  1  0  0  0  0
  8  4  1  0  0  0  0
  8  7  1  0  0  0  0
  9  8  2  0  0  0  0
 10  9  1  0  0  0  0
 10  2  2  0  0  0  0
 11 12  2  0  0  0  0
 11  9  1  0  0  0  0
 13 11  1  0  0  0  0
 14 28  1  0  0  0  0
 14 13  1  0  0  0  0
 15 14  1  0  0  0  0
 15 19  2  0  0  0  0
 16 17  1  0  0  0  0
 16 15  1  0  0  0  0
 17 18  2  0  0  0  0
 18 19  1  0  0  0  0
 20 17  1  0  0  0  0
 20 30  1  0  0  0  0
 21 22  1  0  0  0  0
 21 20  1  0  0  0  0
 22 23  1  0  0  0  0
 23 16  1  0  0  0  0
 23 36  1  0  0  0  0
 25  7  1  0  0  0  0
 26 10  1  0  0  0  0
 27 13  1  0  0  0  0
 29 14  1  0  0  0  0
 31 20  1  0  0  0  0
 32 21  1  0  0  0  0
 33 21  1  0  0  0  0
 34 22  1  0  0  0  0
 35 22  1  0  0  0  0
 37 23  1  0  0  0  0
M  END
>  <Pose>
1

>  <Score>
-6.95

$$$$
