
 OpenBabel03222202113D

 55 58  0  0  1  0  0  0  0  0999 V2000
   16.6530   70.9820   11.6310 Cl  0  0  0  0  0  0  0  0  0  0  0  0
   17.8630   71.9520   12.4390 C   0  0  0  0  0  0  0  0  0  0  0  0
   17.5950   73.2210   12.9210 C   0  0  0  0  0  0  0  0  0  0  0  0
   18.5520   73.9760   13.5550 C   0  0  0  0  0  0  0  0  0  0  0  0
   18.5490   75.2010   14.0980 N   0  0  0  0  0  0  0  0  0  0  0  0
   19.7730   75.5000   14.6110 C   0  0  0  0  0  0  0  0  0  0  0  0
   20.5150   74.4300   14.3660 N   0  0  0  0  0  0  0  0  0  0  0  0
   19.8220   73.4830   13.7280 C   0  0  0  0  0  0  0  0  0  0  0  0
   20.1140   72.2220   13.2580 C   0  0  0  0  0  0  0  0  0  0  0  0
   19.1440   71.4600   12.6180 C   0  0  0  0  0  0  0  0  0  0  0  0
   20.1150   76.7700   15.2960 C   0  0  0  0  0  0  0  0  0  0  0  0
   19.2060   76.9430   16.4790 C   0  0  0  0  0  0  0  0  0  0  0  0
   19.7260   78.0160   17.3450 C   0  0  0  0  0  0  0  0  0  0  0  0
   19.2840   78.1700   18.5120 O   0  0  0  0  0  0  0  0  0  0  0  0
   20.7390   78.8770   16.8260 N   0  0  0  0  0  0  0  0  0  0  0  0
   21.0080   79.0470   15.4160 C   0  0  0  0  0  0  0  0  0  0  0  0
   22.5190   79.2060   15.1750 C   0  0  1  0  0  0  0  0  0  0  0  0
   23.2000   78.5100   16.3030 C   0  0  2  0  0  0  0  0  0  0  0  0
   23.0260   79.3220   17.5660 C   0  0  0  0  0  0  0  0  0  0  0  0
   21.5550   79.6320   17.7520 C   0  0  0  0  0  0  0  0  0  0  0  0
   24.5420   78.1060   16.0710 N   0  0  0  0  0  0  0  0  0  0  0  0
   24.8800   77.0350   15.3380 C   0  0  0  0  0  0  0  0  0  0  0  0
   26.2040   76.6690   15.1320 C   0  0  0  0  0  0  0  0  0  0  0  0
   27.2030   77.4290   15.6960 C   0  0  0  0  0  0  0  0  0  0  0  0
   28.4150   77.0990   15.5100 O   0  0  0  0  0  0  0  0  0  0  0  0
   26.8620   78.4990   16.4290 N   0  0  0  0  0  0  0  0  0  0  0  0
   25.5650   78.8110   16.5980 C   0  0  0  0  0  0  0  0  0  0  0  0
   25.2440   79.8350   17.2990 O   0  0  0  0  0  0  0  0  0  0  0  0
   26.5220   75.4580   14.3000 C   0  0  0  0  0  0  0  0  0  0  0  0
   22.7600   78.5860   13.9400 O   0  0  0  0  0  0  0  0  0  0  0  0
   22.7900   80.6740   15.0680 C   0  0  0  0  0  0  0  0  0  0  0  0
   16.5860   73.5820   12.7680 H   0  0  0  0  0  0  0  0  0  0  0  0
   17.7290   75.8670   14.1400 H   0  0  0  0  0  0  0  0  0  0  0  0
   21.1130   71.8520   13.4030 H   0  0  0  0  0  0  0  0  0  0  0  0
   19.4130   70.4770   12.2640 H   0  0  0  0  0  0  0  0  0  0  0  0
   19.9080   77.6320   14.6110 H   0  0  0  0  0  0  0  0  0  0  0  0
   21.1660   76.7790   15.6510 H   0  0  0  0  0  0  0  0  0  0  0  0
   18.1700   77.1850   16.1290 H   0  0  0  0  0  0  0  0  0  0  0  0
   19.0830   75.9780   17.0300 H   0  0  0  0  0  0  0  0  0  0  0  0
   20.5910   78.2390   14.8180 H   0  0  0  0  0  0  0  0  0  0  0  0
   20.4670   79.9910   15.1090 H   0  0  0  0  0  0  0  0  0  0  0  0
   22.6110   77.5610   16.4850 H   0  0  0  0  0  0  0  0  0  0  0  0
   23.3220   78.7250   18.4730 H   0  0  0  0  0  0  0  0  0  0  0  0
   23.6480   80.2290   17.6000 H   0  0  0  0  0  0  0  0  0  0  0  0
   21.2180   79.4650   18.7940 H   0  0  0  0  0  0  0  0  0  0  0  0
   21.4040   80.7200   17.4880 H   0  0  0  0  0  0  0  0  0  0  0  0
   24.0850   76.4580   14.9080 H   0  0  0  0  0  0  0  0  0  0  0  0
   27.6080   79.0820   16.8600 H   0  0  0  0  0  0  0  0  0  0  0  0
   27.4810   75.0340   14.7130 H   0  0  0  0  0  0  0  0  0  0  0  0
   25.7390   74.7160   14.5210 H   0  0  0  0  0  0  0  0  0  0  0  0
   26.6370   75.7120   13.2440 H   0  0  0  0  0  0  0  0  0  0  0  0
   22.2130   77.7380   13.8890 H   0  0  0  0  0  0  0  0  0  0  0  0
   21.8620   81.3020   15.2070 H   0  0  0  0  0  0  0  0  0  0  0  0
   23.1310   80.9540   14.0280 H   0  0  0  0  0  0  0  0  0  0  0  0
   23.5440   81.0680   15.7470 H   0  0  0  0  0  0  0  0  0  0  0  0
  1  2  1  0  0  0  0
  2 10  2  0  0  0  0
  2  3  1  0  0  0  0
  3  4  2  0  0  0  0
  4  8  1  0  0  0  0
  4  5  1  0  0  0  0
  5 33  1  0  0  0  0
  5  6  1  0  0  0  0
  6 11  1  0  0  0  0
  7  6  2  0  0  0  0
  8  7  1  0  0  0  0
  9 34  1  0  0  0  0
  9  8  2  0  0  0  0
 10  9  1  0  0  0  0
 11 37  1  0  0  0  0
 11 12  1  0  0  0  0
 12 39  1  0  0  0  0
 12 13  1  0  0  0  0
 13 14  2  0  0  0  0
 15 13  1  0  0  0  0
 15 20  1  0  0  0  0
 16 15  1  0  0  0  0
 17 30  1  6  0  0  0
 17 16  1  0  0  0  0
 17 18  1  0  0  0  0
 18 42  1  1  0  0  0
 18 19  1  0  0  0  0
 19 44  1  0  0  0  0
 19 20  1  0  0  0  0
 19 43  1  0  0  0  0
 20 45  1  0  0  0  0
 21 18  1  0  0  0  0
 21 27  1  0  0  0  0
 22 21  1  0  0  0  0
 23 22  2  0  0  0  0
 23 24  1  0  0  0  0
 24 26  1  0  0  0  0
 25 24  2  0  0  0  0
 26 27  1  0  0  0  0
 26 48  1  0  0  0  0
 27 28  2  0  0  0  0
 29 50  1  0  0  0  0
 29 49  1  0  0  0  0
 29 23  1  0  0  0  0
 31 17  1  0  0  0  0
 31 53  1  0  0  0  0
 31 55  1  0  0  0  0
 32  3  1  0  0  0  0
 35 10  1  0  0  0  0
 36 11  1  0  0  0  0
 38 12  1  0  0  0  0
 40 16  1  0  0  0  0
 41 16  1  0  0  0  0
 46 20  1  0  0  0  0
 47 22  1  0  0  0  0
 51 29  1  0  0  0  0
 52 30  1  0  0  0  0
 54 31  1  0  0  0  0
M  END
>  <Pose>
1

>  <Score>
-5.47

$$$$
