
 OpenBabel03222202113D

 55 59  0  0  1  0  0  0  0  0999 V2000
   21.1410   77.1410   18.2740 Cl  0  0  0  0  0  0  0  0  0  0  0  0
   21.5490   78.2320   16.9560 C   0  0  0  0  0  0  0  0  0  0  0  0
   21.4540   77.8430   15.6400 C   0  0  0  0  0  0  0  0  0  0  0  0
   21.7870   78.7380   14.6230 C   0  0  0  0  0  0  0  0  0  0  0  0
   21.7940   78.6510   13.2830 N   0  0  0  0  0  0  0  0  0  0  0  0
   22.2030   79.8060   12.7280 C   0  0  0  0  0  0  0  0  0  0  0  0
   22.4560   80.6300   13.7460 N   0  0  0  0  0  0  0  0  0  0  0  0
   22.2130   80.0150   14.9210 C   0  0  0  0  0  0  0  0  0  0  0  0
   22.3100   80.4040   16.2410 C   0  0  0  0  0  0  0  0  0  0  0  0
   21.9730   79.4990   17.2470 C   0  0  0  0  0  0  0  0  0  0  0  0
   22.3260   80.0450   11.2530 C   0  0  0  0  0  0  0  0  0  0  0  0
   21.0330   80.6380   10.7420 C   0  0  0  0  0  0  0  0  0  0  0  0
   19.9970   79.5990   10.6360 C   0  0  0  0  0  0  0  0  0  0  0  0
   18.9310   79.7310   11.2680 O   0  0  0  0  0  0  0  0  0  0  0  0
   20.2030   78.4670    9.8310 N   0  0  0  0  0  0  0  0  0  0  0  0
   20.5180   78.3300    8.4440 C   0  0  0  0  0  0  0  0  0  0  0  0
   19.6440   77.1460    7.9650 C   0  0  1  0  0  0  0  0  0  0  0  0
   19.6660   76.3050    9.1920 C   0  0  2  0  0  0  0  0  0  0  0  0
   20.1450   77.1140   10.3500 C   0  0  0  0  0  0  0  0  0  0  0  0
   20.5110   75.2010    9.0890 O   0  0  0  0  0  0  0  0  0  0  0  0
   18.3470   77.6490    7.6100 N   0  0  0  0  0  0  0  0  0  0  0  0
   17.3150   76.9740    7.0790 C   0  0  0  0  0  0  0  0  0  0  0  0
   16.2390   77.8670    6.8970 C   0  0  0  0  0  0  0  0  0  0  0  0
   16.6720   79.0610    7.3310 N   0  0  0  0  0  0  0  0  0  0  0  0
   17.9270   78.9490    7.7600 C   0  0  0  0  0  0  0  0  0  0  0  0
   15.0420   77.4440    6.3650 C   0  0  0  0  0  0  0  0  0  0  0  0
   14.0980   78.2660    6.2150 O   0  0  0  0  0  0  0  0  0  0  0  0
   14.9330   76.1540    6.0270 N   0  0  0  0  0  0  0  0  0  0  0  0
   15.9550   75.3160    6.2020 C   0  0  0  0  0  0  0  0  0  0  0  0
   15.8370   74.1050    5.8770 O   0  0  0  0  0  0  0  0  0  0  0  0
   17.1660   75.6820    6.7250 N   0  0  0  0  0  0  0  0  0  0  0  0
   18.2180   74.7290    6.8830 C   0  0  0  0  0  0  0  0  0  0  0  0
   13.6710   75.6740    5.4580 C   0  0  0  0  0  0  0  0  0  0  0  0
   21.1230   76.8500   15.3870 H   0  0  0  0  0  0  0  0  0  0  0  0
   21.5120   77.7760   12.7660 H   0  0  0  0  0  0  0  0  0  0  0  0
   22.6400   81.3970   16.5030 H   0  0  0  0  0  0  0  0  0  0  0  0
   22.0470   79.8000   18.2910 H   0  0  0  0  0  0  0  0  0  0  0  0
   22.5400   79.0740   10.7710 H   0  0  0  0  0  0  0  0  0  0  0  0
   23.1700   80.7330   11.0370 H   0  0  0  0  0  0  0  0  0  0  0  0
   21.2040   81.1870    9.8050 H   0  0  0  0  0  0  0  0  0  0  0  0
   20.7450   81.4250   11.4980 H   0  0  0  0  0  0  0  0  0  0  0  0
   21.5990   77.9910    8.4160 H   0  0  0  0  0  0  0  0  0  0  0  0
   20.4490   79.2020    7.8180 H   0  0  0  0  0  0  0  0  0  0  0  0
   20.2550   76.7800    7.1150 H   0  0  0  0  0  0  0  0  0  0  0  0
   18.6080   76.0030    9.4510 H   0  0  0  0  0  0  0  0  0  0  0  0
   19.4900   77.0400   11.2420 H   0  0  0  0  0  0  0  0  0  0  0  0
   21.1820   76.7820   10.6520 H   0  0  0  0  0  0  0  0  0  0  0  0
   21.4000   75.3790    9.5080 H   0  0  0  0  0  0  0  0  0  0  0  0
   18.5470   79.7230    8.1610 H   0  0  0  0  0  0  0  0  0  0  0  0
   18.2620   74.2410    7.8780 H   0  0  0  0  0  0  0  0  0  0  0  0
   17.8910   73.8330    6.2330 H   0  0  0  0  0  0  0  0  0  0  0  0
   19.1800   74.9670    6.4200 H   0  0  0  0  0  0  0  0  0  0  0  0
   13.1600   74.9960    6.1780 H   0  0  0  0  0  0  0  0  0  0  0  0
   13.0170   76.5320    5.2170 H   0  0  0  0  0  0  0  0  0  0  0  0
   13.8960   75.0690    4.5590 H   0  0  0  0  0  0  0  0  0  0  0  0
  2 10  1  0  0  0  0
  2  1  1  0  0  0  0
  3  2  2  0  0  0  0
  4  8  2  0  0  0  0
  4  3  1  0  0  0  0
  5  4  1  0  0  0  0
  6  5  1  0  0  0  0
  6  7  2  0  0  0  0
  7  8  1  0  0  0  0
  8  9  1  0  0  0  0
  9 36  1  0  0  0  0
  9 10  2  0  0  0  0
 10 37  1  0  0  0  0
 11  6  1  0  0  0  0
 12 11  1  0  0  0  0
 12 41  1  0  0  0  0
 13 12  1  0  0  0  0
 13 14  2  0  0  0  0
 15 19  1  0  0  0  0
 15 13  1  0  0  0  0
 16 15  1  0  0  0  0
 17 44  1  6  0  0  0
 17 16  1  0  0  0  0
 17 18  1  0  0  0  0
 18 45  1  1  0  0  0
 18 19  1  0  0  0  0
 19 47  1  0  0  0  0
 19 46  1  0  0  0  0
 20 18  1  0  0  0  0
 20 48  1  0  0  0  0
 21 25  1  0  0  0  0
 21 17  1  0  0  0  0
 22 21  1  0  0  0  0
 23 22  2  0  0  0  0
 23 24  1  0  0  0  0
 24 25  2  0  0  0  0
 25 49  1  0  0  0  0
 26 23  1  0  0  0  0
 27 26  2  0  0  0  0
 28 29  1  0  0  0  0
 28 26  1  0  0  0  0
 29 31  1  0  0  0  0
 30 29  2  0  0  0  0
 31 32  1  0  0  0  0
 31 22  1  0  0  0  0
 32 50  1  0  0  0  0
 33 28  1  0  0  0  0
 33 53  1  0  0  0  0
 34  3  1  0  0  0  0
 35  5  1  0  0  0  0
 38 11  1  0  0  0  0
 39 11  1  0  0  0  0
 40 12  1  0  0  0  0
 42 16  1  0  0  0  0
 43 16  1  0  0  0  0
 51 32  1  0  0  0  0
 52 32  1  0  0  0  0
 54 33  1  0  0  0  0
 55 33  1  0  0  0  0
M  END
>  <Pose>
1

>  <Score>
-8.20

$$$$
