
 OpenBabel03222202113D

 50 53  0  0  1  0  0  0  0  0999 V2000
   19.4460   81.9820   20.3750 Cl  0  0  0  0  0  0  0  0  0  0  0  0
   19.8170   80.5820   19.4220 C   0  0  0  0  0  0  0  0  0  0  0  0
   20.9420   80.5510   18.6100 C   0  0  0  0  0  0  0  0  0  0  0  0
   21.2510   79.4440   17.8460 C   0  0  0  0  0  0  0  0  0  0  0  0
   20.4120   78.3670   17.9080 C   0  0  0  0  0  0  0  0  0  0  0  0
   19.2700   78.3580   18.7150 C   0  0  0  0  0  0  0  0  0  0  0  0
   18.9920   79.4790   19.4650 C   0  0  0  0  0  0  0  0  0  0  0  0
   20.8820   77.3420   17.0430 N   0  0  0  0  0  0  0  0  0  0  0  0
   22.0650   77.8060   16.4110 C   0  0  0  0  0  0  0  0  0  0  0  0
   22.6790   77.0930   15.5530 O   0  0  0  0  0  0  0  0  0  0  0  0
   22.3520   79.1340   16.9360 C   0  0  2  0  0  0  0  0  0  0  0  0
   23.6500   79.1900   17.6140 N   0  0  0  0  0  0  0  0  0  0  0  0
   24.5530   79.2060   16.4850 C   0  0  1  0  0  0  0  0  0  0  0  0
   23.9200   80.0820   15.4530 C   0  0  2  0  0  0  0  0  0  0  0  0
   22.5050   80.2190   15.9300 C   0  0  1  0  0  0  0  0  0  0  0  0
   21.6150   80.1000   14.7490 C   0  0  0  0  0  0  0  0  0  0  0  0
   20.3760   80.3030   14.8400 O   0  0  0  0  0  0  0  0  0  0  0  0
   22.4210   79.7460   13.6360 N   0  0  0  0  0  0  0  0  0  0  0  0
   23.7110   79.3850   14.1430 C   0  0  0  0  0  0  0  0  0  0  0  0
   24.5460   78.6350   13.6280 O   0  0  0  0  0  0  0  0  0  0  0  0
   22.0340   79.7500   12.2770 C   0  0  0  0  0  0  0  0  0  0  0  0
   22.4620   80.8660   11.4080 C   0  0  0  0  0  0  0  0  0  0  0  0
   21.9490   80.9000   10.0200 C   0  0  0  0  0  0  0  0  0  0  0  0
   22.8900   80.7250    9.0170 O   0  0  0  0  0  0  0  0  0  0  0  0
   23.3730   79.3980    9.1180 C   0  0  0  0  0  0  0  0  0  0  0  0
   25.9430   79.6490   16.8650 C   0  0  1  0  0  0  0  0  0  0  0  0
   26.8330   78.6790   16.4180 O   0  0  0  0  0  0  0  0  0  0  0  0
   26.3030   80.9910   16.2830 C   0  0  0  0  0  0  0  0  0  0  0  0
   21.6100   81.4220   18.5650 H   0  0  0  0  0  0  0  0  0  0  0  0
   18.6080   77.4950   18.7590 H   0  0  0  0  0  0  0  0  0  0  0  0
   18.0950   79.4440   20.0840 H   0  0  0  0  0  0  0  0  0  0  0  0
   20.4320   76.3900   16.8920 H   0  0  0  0  0  0  0  0  0  0  0  0
   23.6870   80.1330   18.0620 H   0  0  0  0  0  0  0  0  0  0  0  0
   24.6620   78.1830   16.0750 H   0  0  0  0  0  0  0  0  0  0  0  0
   24.4360   81.0270   15.2760 H   0  0  0  0  0  0  0  0  0  0  0  0
   22.3400   81.1960   16.4510 H   0  0  0  0  0  0  0  0  0  0  0  0
   20.9210   79.5680   12.1430 H   0  0  0  0  0  0  0  0  0  0  0  0
   22.4690   78.8080   11.8080 H   0  0  0  0  0  0  0  0  0  0  0  0
   23.5710   81.0370   11.4180 H   0  0  0  0  0  0  0  0  0  0  0  0
   22.0750   81.8130   11.9050 H   0  0  0  0  0  0  0  0  0  0  0  0
   21.1610   80.1100    9.8280 H   0  0  0  0  0  0  0  0  0  0  0  0
   21.3960   81.8560    9.8440 H   0  0  0  0  0  0  0  0  0  0  0  0
   23.8120   79.3360   10.1360 H   0  0  0  0  0  0  0  0  0  0  0  0
   24.2060   79.2110    8.4170 H   0  0  0  0  0  0  0  0  0  0  0  0
   22.5680   78.6650    9.0220 H   0  0  0  0  0  0  0  0  0  0  0  0
   26.0050   79.7050   17.9510 H   0  0  0  0  0  0  0  0  0  0  0  0
   27.1680   78.8610   15.5040 H   0  0  0  0  0  0  0  0  0  0  0  0
   25.7190   81.7970   16.7540 H   0  0  0  0  0  0  0  0  0  0  0  0
   26.2480   81.0040   15.1760 H   0  0  0  0  0  0  0  0  0  0  0  0
   27.3680   81.1800   16.5410 H   0  0  0  0  0  0  0  0  0  0  0  0
  2  7  1  0  0  0  0
  2  1  1  0  0  0  0
  3  2  2  0  0  0  0
  4  5  2  0  0  0  0
  4  3  1  0  0  0  0
  5  6  1  0  0  0  0
  6 30  1  0  0  0  0
  6  7  2  0  0  0  0
  7 31  1  0  0  0  0
  8  5  1  0  0  0  0
  9  8  1  0  0  0  0
 10  9  2  0  0  0  0
 11  9  1  6  0  0  0
 11 12  1  0  0  0  0
 11  4  1  0  0  0  0
 12 33  1  0  0  0  0
 13 34  1  6  0  0  0
 13 26  1  0  0  0  0
 13 12  1  0  0  0  0
 14 35  1  6  0  0  0
 14 15  1  0  0  0  0
 14 13  1  0  0  0  0
 15 36  1  1  0  0  0
 15 11  1  0  0  0  0
 16 17  2  0  0  0  0
 16 15  1  0  0  0  0
 18 19  1  0  0  0  0
 18 16  1  0  0  0  0
 19 14  1  0  0  0  0
 20 19  2  0  0  0  0
 21 18  1  0  0  0  0
 22 39  1  0  0  0  0
 22 40  1  0  0  0  0
 22 21  1  0  0  0  0
 23 22  1  0  0  0  0
 24 25  1  0  0  0  0
 24 23  1  0  0  0  0
 25 43  1  0  0  0  0
 26 46  1  1  0  0  0
 27 26  1  0  0  0  0
 28 50  1  0  0  0  0
 28 48  1  0  0  0  0
 28 26  1  0  0  0  0
 29  3  1  0  0  0  0
 32  8  1  0  0  0  0
 37 21  1  0  0  0  0
 38 21  1  0  0  0  0
 41 23  1  0  0  0  0
 42 23  1  0  0  0  0
 44 25  1  0  0  0  0
 45 25  1  0  0  0  0
 47 27  1  0  0  0  0
 49 28  1  0  0  0  0
M  END
>  <Pose>
1

>  <Score>
-5.50

$$$$
