
 OpenBabel03222202113D

 30 33  0  0  1  0  0  0  0  0999 V2000
   22.4210   79.4150   17.5710 F   0  0  0  0  0  0  0  0  0  0  0  0
   22.0230   78.8660   16.3740 C   0  0  0  0  0  0  0  0  0  0  0  0
   22.2620   79.5830   15.1960 C   0  0  0  0  0  0  0  0  0  0  0  0
   21.8760   79.0570   14.0000 C   0  0  0  0  0  0  0  0  0  0  0  0
   21.2440   77.8070   13.9500 C   0  0  0  0  0  0  0  0  0  0  0  0
   21.0240   77.1280   15.1160 C   0  0  0  0  0  0  0  0  0  0  0  0
   21.4040   77.6400   16.3330 C   0  0  0  0  0  0  0  0  0  0  0  0
   21.1160   76.7570   17.8380 Cl  0  0  0  0  0  0  0  0  0  0  0  0
   22.2440   80.0110   12.9210 C   0  0  2  0  0  0  0  0  0  0  0  0
   21.0670   80.3970   12.2090 N   0  0  0  0  0  0  0  0  0  0  0  0
   20.5910   79.6350   11.1220 C   0  0  0  0  0  0  0  0  0  0  0  0
   19.3270   79.7730   10.6430 N   0  0  0  0  0  0  0  0  0  0  0  0
   18.8270   79.0760    9.6180 C   0  0  0  0  0  0  0  0  0  0  0  0
   19.6320   78.1420    8.9770 C   0  0  0  0  0  0  0  0  0  0  0  0
   20.9180   77.9420    9.3960 C   0  0  0  0  0  0  0  0  0  0  0  0
   21.3670   78.6950   10.4590 C   0  0  0  0  0  0  0  0  0  0  0  0
   22.7290   78.5560   10.9850 C   0  0  0  0  0  0  0  0  0  0  0  0
   23.4800   77.7000   10.4050 O   0  0  0  0  0  0  0  0  0  0  0  0
   23.1960   79.3200   12.0690 N   0  0  0  0  0  0  0  0  0  0  0  0
   22.8770   81.1330   13.6230 C   0  0  0  0  0  0  0  0  0  0  0  0
   23.3580   82.2040   13.0990 O   0  0  0  0  0  0  0  0  0  0  0  0
   22.8820   80.8610   15.0010 N   0  0  0  0  0  0  0  0  0  0  0  0
   20.9450   77.4070   12.9770 H   0  0  0  0  0  0  0  0  0  0  0  0
   20.5370   76.1620   15.0910 H   0  0  0  0  0  0  0  0  0  0  0  0
   20.5260   81.2560   12.4740 H   0  0  0  0  0  0  0  0  0  0  0  0
   17.8180   79.2000    9.2530 H   0  0  0  0  0  0  0  0  0  0  0  0
   19.2570   77.5680    8.1490 H   0  0  0  0  0  0  0  0  0  0  0  0
   21.6060   77.2330    8.9480 H   0  0  0  0  0  0  0  0  0  0  0  0
   24.2310   79.3580   12.2210 H   0  0  0  0  0  0  0  0  0  0  0  0
   23.2560   81.4460   15.7950 H   0  0  0  0  0  0  0  0  0  0  0  0
  2  1  1  0  0  0  0
  3  2  2  0  0  0  0
  4  3  1  0  0  0  0
  5  4  2  0  0  0  0
  5  6  1  0  0  0  0
  6  7  2  0  0  0  0
  7  2  1  0  0  0  0
  7  8  1  0  0  0  0
  9 20  1  1  0  0  0
  9  4  1  0  0  0  0
 10 25  1  0  0  0  0
 10  9  1  0  0  0  0
 11 10  1  0  0  0  0
 12 11  1  0  0  0  0
 13 12  2  0  0  0  0
 14 15  2  0  0  0  0
 14 13  1  0  0  0  0
 15 16  1  0  0  0  0
 16 17  1  0  0  0  0
 16 11  2  0  0  0  0
 17 19  1  0  0  0  0
 18 17  2  0  0  0  0
 19 29  1  0  0  0  0
 19  9  1  0  0  0  0
 20 22  1  0  0  0  0
 21 20  2  0  0  0  0
 22  3  1  0  0  0  0
 22 30  1  0  0  0  0
 23  5  1  0  0  0  0
 24  6  1  0  0  0  0
 26 13  1  0  0  0  0
 27 14  1  0  0  0  0
 28 15  1  0  0  0  0
M  END
>  <Pose>
1

>  <Score>
-5.52

$$$$
