
 OpenBabel03222202113D

 53 56  0  0  1  0  0  0  0  0999 V2000
   20.2470   78.3720   10.5710 B   0  0  0  0  0  0  0  0  0  0  0  0
   19.5590   76.6890   10.0040 C   0  0  0  0  0  0  0  0  0  0  0  0
   19.1700   75.7830   10.9650 C   0  0  0  0  0  0  0  0  0  0  0  0
   18.6740   74.5710   10.5390 C   0  0  0  0  0  0  0  0  0  0  0  0
   18.5710   74.2740    9.1760 C   0  0  0  0  0  0  0  0  0  0  0  0
   18.9710   75.2040    8.2360 C   0  0  0  0  0  0  0  0  0  0  0  0
   19.4640   76.4090    8.6420 C   0  0  0  0  0  0  0  0  0  0  0  0
   18.8710   74.9100    6.7730 C   0  0  0  0  0  0  0  0  0  0  0  0
   18.1270   73.2970   11.8420 B   0  0  0  0  0  0  0  0  0  0  0  0
   19.2760   76.0920   12.2790 O   0  0  0  0  0  0  0  0  0  0  0  0
   18.7230   75.4130   13.3690 C   0  0  0  0  0  0  0  0  0  0  0  0
   19.7480   75.4910   14.5000 C   0  0  1  0  0  0  0  0  0  0  0  0
   20.4800   74.3090   14.6030 O   0  0  0  0  0  0  0  0  0  0  0  0
   20.6620   76.6270   14.1710 C   0  0  0  0  0  0  0  0  0  0  0  0
   21.6760   76.8760   15.1770 N   0  0  0  0  0  4  0  0  0  0  0  0
   22.4290   78.0060   14.7470 C   0  0  0  0  0  0  0  0  0  0  0  0
   22.5980   79.0890   15.7650 C   0  0  1  0  0  0  0  0  0  0  0  0
   21.3700   79.8860   16.0300 C   0  0  0  0  0  0  0  0  0  0  0  0
   20.8150   79.7260   17.3440 N   0  0  0  0  0  0  0  0  0  0  0  0
   21.0250   78.6600   18.1390 C   0  0  0  0  0  0  0  0  0  0  0  0
   20.4970   78.5070   19.3880 C   0  0  0  0  0  0  0  0  0  0  0  0
   19.6890   79.5070   19.8910 C   0  0  0  0  0  0  0  0  0  0  0  0
   19.4690   80.5990   19.0870 C   0  0  0  0  0  0  0  0  0  0  0  0
   20.0170   80.7200   17.8320 C   0  0  0  0  0  0  0  0  0  0  0  0
   19.7930   81.7350   17.1230 O   0  0  0  0  0  0  0  0  0  0  0  0
   21.9170   77.6020   17.5290 C   0  0  1  0  0  0  0  0  0  0  0  0
   21.1290   76.9260   16.4780 C   0  0  0  0  0  0  0  0  0  0  0  0
   23.1090   78.3780   17.0240 C   0  0  0  0  0  0  0  0  0  0  0  0
   18.1850   73.3260    8.8330 H   0  0  0  0  0  0  0  0  0  0  0  0
   19.7700   77.1190    7.8800 H   0  0  0  0  0  0  0  0  0  0  0  0
   19.7860   75.2830    6.2760 H   0  0  0  0  0  0  0  0  0  0  0  0
   18.0150   75.4970    6.3340 H   0  0  0  0  0  0  0  0  0  0  0  0
   18.7010   73.8260    6.5840 H   0  0  0  0  0  0  0  0  0  0  0  0
   17.7370   75.7740   13.6870 H   0  0  0  0  0  0  0  0  0  0  0  0
   18.6270   74.3390   13.1110 H   0  0  0  0  0  0  0  0  0  0  0  0
   19.1820   75.6080   15.4250 H   0  0  0  0  0  0  0  0  0  0  0  0
   21.2100   74.3800   13.9250 H   0  0  0  0  0  0  0  0  0  0  0  0
   21.1840   76.3900   13.2220 H   0  0  0  0  0  0  0  0  0  0  0  0
   20.1180   77.5780   14.0000 H   0  0  0  0  0  0  0  0  0  0  0  0
   22.3220   76.0300   15.1320 H   0  0  0  0  0  0  0  0  0  0  0  0
   23.4700   77.7210   14.4100 H   0  0  0  0  0  0  0  0  0  0  0  0
   21.9930   78.5030   13.8290 H   0  0  0  0  0  0  0  0  0  0  0  0
   23.4610   79.7330   15.4280 H   0  0  0  0  0  0  0  0  0  0  0  0
   21.6340   80.9800   15.9290 H   0  0  0  0  0  0  0  0  0  0  0  0
   20.5730   79.7320   15.2530 H   0  0  0  0  0  0  0  0  0  0  0  0
   20.7300   77.6100   19.9410 H   0  0  0  0  0  0  0  0  0  0  0  0
   19.2680   79.3920   20.8780 H   0  0  0  0  0  0  0  0  0  0  0  0
   18.8370   81.4050   19.4520 H   0  0  0  0  0  0  0  0  0  0  0  0
   22.2860   76.9340   18.3360 H   0  0  0  0  0  0  0  0  0  0  0  0
   20.9800   75.8590   16.8270 H   0  0  0  0  0  0  0  0  0  0  0  0
   20.0710   77.3130   16.3890 H   0  0  0  0  0  0  0  0  0  0  0  0
   23.9680   77.7580   16.7710 H   0  0  0  0  0  0  0  0  0  0  0  0
   23.3720   79.2090   17.7320 H   0  0  0  0  0  0  0  0  0  0  0  0
  2  1  1  0  0  0  0
  2  3  1  0  0  0  0
  3 10  1  0  0  0  0
  4  3  2  0  0  0  0
  4  9  1  0  0  0  0
  5  4  1  0  0  0  0
  6  7  1  0  0  0  0
  6  5  2  0  0  0  0
  7  2  2  0  0  0  0
  8  6  1  0  0  0  0
 10 11  1  0  0  0  0
 11 34  1  0  0  0  0
 11 12  1  0  0  0  0
 12 13  1  0  0  0  0
 12 36  1  1  0  0  0
 14 12  1  0  0  0  0
 14 15  1  0  0  0  0
 15 27  1  0  0  0  0
 16 15  1  0  0  0  0
 16 17  1  0  0  0  0
 17 43  1  6  0  0  0
 17 18  1  0  0  0  0
 17 28  1  0  0  0  0
 18 19  1  0  0  0  0
 19 24  1  0  0  0  0
 19 20  1  0  0  0  0
 20 21  2  0  0  0  0
 21 22  1  0  0  0  0
 21 46  1  0  0  0  0
 22 47  1  0  0  0  0
 23 48  1  0  0  0  0
 23 22  2  0  0  0  0
 24 23  1  0  0  0  0
 25 24  2  0  0  0  0
 26 20  1  0  0  0  0
 26 49  1  1  0  0  0
 27 50  1  0  0  0  0
 27 26  1  0  0  0  0
 28 26  1  0  0  0  0
 28 53  1  0  0  0  0
 29  5  1  0  0  0  0
 30  7  1  0  0  0  0
 31  8  1  0  0  0  0
 32  8  1  0  0  0  0
 33  8  1  0  0  0  0
 35 11  1  0  0  0  0
 37 13  1  0  0  0  0
 38 14  1  0  0  0  0
 39 14  1  0  0  0  0
 40 15  1  0  0  0  0
 41 16  1  0  0  0  0
 42 16  1  0  0  0  0
 44 18  1  0  0  0  0
 45 18  1  0  0  0  0
 51 27  1  0  0  0  0
 52 28  1  0  0  0  0
M  END
>  <Pose>
1

>  <Score>
-6.77

$$$$
