
 OpenBabel03222202113D

 39 42  0  0  0  0  0  0  0  0999 V2000
   21.8320   80.4300   16.1130 B   0  0  0  0  0  0  0  0  0  0  0  0
   21.0330   79.1960   17.3060 C   0  0  0  0  0  0  0  0  0  0  0  0
   21.0180   77.8480   16.9460 C   0  0  0  0  0  0  0  0  0  0  0  0
   20.4180   77.0070   17.8640 C   0  0  0  0  0  0  0  0  0  0  0  0
   19.8690   77.4660   19.0630 C   0  0  0  0  0  0  0  0  0  0  0  0
   19.9150   78.8050   19.3620 C   0  0  0  0  0  0  0  0  0  0  0  0
   20.5020   79.6810   18.4760 C   0  0  0  0  0  0  0  0  0  0  0  0
   21.5830   77.4260   15.7240 N   0  0  0  0  0  0  0  0  0  0  0  0
   21.0890   76.5000   14.8050 C   0  0  0  0  0  0  0  0  0  0  0  0
   21.8420   75.8700   14.0400 O   0  0  0  0  0  0  0  0  0  0  0  0
   19.6330   76.2190   14.6910 C   0  0  0  0  0  0  0  0  0  0  0  0
   19.3220   75.6180   13.3840 N   0  0  0  0  0  0  0  0  0  0  0  0
   18.9040   74.3850   13.1500 N   0  0  0  0  0  0  0  0  0  0  0  0
   18.7300   74.2060   11.8450 N   0  0  0  0  0  0  0  0  0  0  0  0
   19.0440   75.3600   11.2180 C   0  0  0  0  0  0  0  0  0  0  0  0
   19.4040   76.2020   12.2000 N   0  0  0  0  0  0  0  0  0  0  0  0
   18.9990   75.6200    9.7870 C   0  0  0  0  0  0  0  0  0  0  0  0
   19.3990   76.8580    9.3410 C   0  0  0  0  0  0  0  0  0  0  0  0
   19.3550   77.1050    7.9790 C   0  0  0  0  0  0  0  0  0  0  0  0
   18.9300   76.1610    7.0790 C   0  0  0  0  0  0  0  0  0  0  0  0
   18.5290   74.9180    7.5230 C   0  0  0  0  0  0  0  0  0  0  0  0
   18.5730   74.6730    8.8850 C   0  0  0  0  0  0  0  0  0  0  0  0
   19.8530   77.8900   10.2160 N   0  0  0  0  0  0  0  0  0  0  0  0
   19.0570   78.7910   10.7780 N   0  0  0  0  0  0  0  0  0  0  0  0
   19.7850   79.5940   11.5220 N   0  0  0  0  0  0  0  0  0  0  0  0
   21.0540   79.2010   11.4320 N   0  0  0  0  0  0  0  0  0  0  0  0
   21.0950   78.1300   10.6110 C   0  0  0  0  0  0  0  0  0  0  0  0
   20.3480   75.9590   17.6950 H   0  0  0  0  0  0  0  0  0  0  0  0
   19.4090   76.7910   19.7590 H   0  0  0  0  0  0  0  0  0  0  0  0
   19.5060   79.2070   20.2730 H   0  0  0  0  0  0  0  0  0  0  0  0
   20.5210   80.7260   18.7420 H   0  0  0  0  0  0  0  0  0  0  0  0
   22.5140   77.8740   15.4690 H   0  0  0  0  0  0  0  0  0  0  0  0
   19.0070   77.1040   14.8570 H   0  0  0  0  0  0  0  0  0  0  0  0
   19.3060   75.4480   15.4370 H   0  0  0  0  0  0  0  0  0  0  0  0
   19.6680   78.0780    7.6170 H   0  0  0  0  0  0  0  0  0  0  0  0
   18.8920   76.3440    6.0040 H   0  0  0  0  0  0  0  0  0  0  0  0
   18.1890   74.1570    6.8230 H   0  0  0  0  0  0  0  0  0  0  0  0
   18.2540   73.6920    9.2090 H   0  0  0  0  0  0  0  0  0  0  0  0
   21.9620   77.5580   10.3160 H   0  0  0  0  0  0  0  0  0  0  0  0
  1  2  1  0  0  0  0
  2  7  1  0  0  0  0
  3  2  2  0  0  0  0
  3  4  1  0  0  0  0
  4  5  2  0  0  0  0
  5  6  1  0  0  0  0
  5 29  1  0  0  0  0
  6 30  1  0  0  0  0
  7 31  1  0  0  0  0
  7  6  2  0  0  0  0
  8  3  1  0  0  0  0
  9  8  1  0  0  0  0
 10  9  2  0  0  0  0
 11  9  1  0  0  0  0
 11 33  1  0  0  0  0
 11 34  1  0  0  0  0
 12 11  1  0  0  0  0
 13 12  1  0  0  0  0
 14 13  1  0  0  0  0
 15 14  2  0  0  0  0
 15 16  1  0  0  0  0
 16 12  1  0  0  0  0
 17 15  1  0  0  0  0
 18 17  1  0  0  0  0
 18 23  1  0  0  0  0
 19 18  2  0  0  0  0
 20 21  2  0  0  0  0
 20 19  1  0  0  0  0
 21 22  1  0  0  0  0
 22 38  1  0  0  0  0
 22 17  2  0  0  0  0
 23 27  1  0  0  0  0
 23 24  1  0  0  0  0
 24 25  2  0  0  0  0
 26 25  1  0  0  0  0
 27 26  2  0  0  0  0
 28  4  1  0  0  0  0
 32  8  1  0  0  0  0
 35 19  1  0  0  0  0
 36 20  1  0  0  0  0
 37 21  1  0  0  0  0
 39 27  1  0  0  0  0
M  END
>  <Pose>
1

>  <Score>
-6.92

$$$$
