
 OpenBabel03222202113D

 54 58  0  0  1  0  0  0  0  0999 V2000
   25.2520   77.6720    9.7280 Cl  0  0  0  0  0  0  0  0  0  0  0  0
   23.7550   78.6140    9.8030 C   0  0  0  0  0  0  0  0  0  0  0  0
   22.6480   78.1280   10.4530 C   0  0  0  0  0  0  0  0  0  0  0  0
   21.4940   78.8640   10.5070 C   0  0  0  0  0  0  0  0  0  0  0  0
   21.4530   80.0950    9.9030 C   0  0  0  0  0  0  0  0  0  0  0  0
   22.5620   80.6160    9.2360 C   0  0  0  0  0  0  0  0  0  0  0  0
   23.7060   79.8520    9.1990 C   0  0  0  0  0  0  0  0  0  0  0  0
   20.1830   80.7010   10.0610 N   0  0  0  0  0  0  0  0  0  0  0  0
   19.3910   79.7890   10.8080 C   0  0  0  0  0  0  0  0  0  0  0  0
   18.2010   79.9670   11.1460 O   0  0  0  0  0  0  0  0  0  0  0  0
   20.1800   78.5860   11.1310 C   0  0  1  0  0  0  0  0  0  0  0  0
   19.5780   77.3760   10.6270 N   0  0  0  0  0  0  0  0  0  0  0  0
   19.8110   76.3410   11.5840 C   0  0  1  0  0  0  0  0  0  0  0  0
   19.8190   76.9960   12.9460 C   0  0  2  0  0  0  0  0  0  0  0  0
   20.2450   78.4010   12.6040 C   0  0  1  0  0  0  0  0  0  0  0  0
   21.5960   78.5840   13.1870 C   0  0  0  0  0  0  0  0  0  0  0  0
   22.4810   79.4250   12.8860 O   0  0  0  0  0  0  0  0  0  0  0  0
   21.7210   77.5780   14.2130 N   0  0  0  0  0  0  0  0  0  0  0  0
   20.8780   76.4680   13.8430 C   0  0  0  0  0  0  0  0  0  0  0  0
   20.9980   75.2670   14.2020 O   0  0  0  0  0  0  0  0  0  0  0  0
   22.5370   77.6500   15.4070 C   0  0  0  0  0  0  0  0  0  0  0  0
   21.6970   78.0400   16.5790 C   0  0  0  0  0  0  0  0  0  0  0  0
   21.2460   79.3350   16.7250 C   0  0  0  0  0  0  0  0  0  0  0  0
   20.4680   79.6710   17.8200 C   0  0  0  0  0  0  0  0  0  0  0  0
   20.1220   78.7440   18.7840 C   0  0  0  0  0  0  0  0  0  0  0  0
   20.5680   77.4480   18.6470 C   0  0  0  0  0  0  0  0  0  0  0  0
   21.3390   77.1260   17.5540 C   0  0  0  0  0  0  0  0  0  0  0  0
   21.5970   80.2720   15.7490 O   0  0  0  0  0  0  0  0  0  0  0  0
   22.9060   80.8500   15.8020 C   0  0  0  0  0  0  0  0  0  0  0  0
   18.7700   75.2460   11.4960 C   0  0  2  0  0  0  0  0  0  0  0  0
   19.0970   74.2780   12.4410 O   0  0  0  0  0  0  0  0  0  0  0  0
   18.9460   74.5900   10.1300 C   0  0  0  0  0  0  0  0  0  0  0  0
   22.7570   77.1510   10.9040 H   0  0  0  0  0  0  0  0  0  0  0  0
   22.5360   81.5850    8.7580 H   0  0  0  0  0  0  0  0  0  0  0  0
   24.6090   80.2030    8.6910 H   0  0  0  0  0  0  0  0  0  0  0  0
   19.8450   81.6440    9.7100 H   0  0  0  0  0  0  0  0  0  0  0  0
   19.9530   77.1500    9.7010 H   0  0  0  0  0  0  0  0  0  0  0  0
   20.7860   75.8860   11.4130 H   0  0  0  0  0  0  0  0  0  0  0  0
   18.8290   76.9440   13.4370 H   0  0  0  0  0  0  0  0  0  0  0  0
   19.4950   79.0750   13.0830 H   0  0  0  0  0  0  0  0  0  0  0  0
   23.0300   76.6850   15.6510 H   0  0  0  0  0  0  0  0  0  0  0  0
   23.3590   78.3900   15.3020 H   0  0  0  0  0  0  0  0  0  0  0  0
   20.1130   80.6770   17.9430 H   0  0  0  0  0  0  0  0  0  0  0  0
   19.5160   78.9870   19.6450 H   0  0  0  0  0  0  0  0  0  0  0  0
   20.3290   76.6750   19.3700 H   0  0  0  0  0  0  0  0  0  0  0  0
   21.6760   76.1250   17.4590 H   0  0  0  0  0  0  0  0  0  0  0  0
   23.0030   81.3610   16.7750 H   0  0  0  0  0  0  0  0  0  0  0  0
   23.0070   81.5570   14.9520 H   0  0  0  0  0  0  0  0  0  0  0  0
   23.6940   80.0990   15.7210 H   0  0  0  0  0  0  0  0  0  0  0  0
   17.7520   75.6120   11.6600 H   0  0  0  0  0  0  0  0  0  0  0  0
   20.0560   74.0700   12.3810 H   0  0  0  0  0  0  0  0  0  0  0  0
   18.8850   73.4760   10.2130 H   0  0  0  0  0  0  0  0  0  0  0  0
   18.2250   74.9920    9.3920 H   0  0  0  0  0  0  0  0  0  0  0  0
   19.9640   74.7950    9.7220 H   0  0  0  0  0  0  0  0  0  0  0  0
  1  2  1  0  0  0  0
  2  3  1  0  0  0  0
  3  4  2  0  0  0  0
  3 33  1  0  0  0  0
  5  8  1  0  0  0  0
  5  4  1  0  0  0  0
  6  5  2  0  0  0  0
  7  6  1  0  0  0  0
  7  2  2  0  0  0  0
  8  9  1  0  0  0  0
  9 11  1  0  0  0  0
  9 10  2  0  0  0  0
 11  4  1  6  0  0  0
 11 15  1  0  0  0  0
 12 11  1  0  0  0  0
 12 13  1  0  0  0  0
 13 38  1  6  0  0  0
 13 14  1  0  0  0  0
 14 39  1  1  0  0  0
 14 19  1  0  0  0  0
 15 14  1  0  0  0  0
 15 40  1  1  0  0  0
 15 16  1  0  0  0  0
 16 18  1  0  0  0  0
 17 16  2  0  0  0  0
 18 21  1  0  0  0  0
 19 20  2  0  0  0  0
 19 18  1  0  0  0  0
 21 41  1  0  0  0  0
 21 22  1  0  0  0  0
 22 23  2  0  0  0  0
 22 27  1  0  0  0  0
 23 24  1  0  0  0  0
 24 43  1  0  0  0  0
 24 25  2  0  0  0  0
 25 44  1  0  0  0  0
 26 25  1  0  0  0  0
 26 45  1  0  0  0  0
 27 26  2  0  0  0  0
 28 29  1  0  0  0  0
 28 23  1  0  0  0  0
 29 47  1  0  0  0  0
 30 13  1  0  0  0  0
 30 50  1  1  0  0  0
 30 31  1  0  0  0  0
 32 52  1  0  0  0  0
 32 30  1  0  0  0  0
 34  6  1  0  0  0  0
 35  7  1  0  0  0  0
 36  8  1  0  0  0  0
 37 12  1  0  0  0  0
 42 21  1  0  0  0  0
 46 27  1  0  0  0  0
 48 29  1  0  0  0  0
 49 29  1  0  0  0  0
 51 31  1  0  0  0  0
 53 32  1  0  0  0  0
 54 32  1  0  0  0  0
M  END
>  <Pose>
1

>  <Score>
-6.15

$$$$
