
 OpenBabel03222202113D

 53 56  0  0  0  0  0  0  0  0999 V2000
   16.9820   74.8660    3.8680 B   0  0  0  0  0  0  0  0  0  0  0  0
   17.4940   75.8370    5.4400 C   0  0  0  0  0  0  0  0  0  0  0  0
   16.8750   77.0540    5.7370 C   0  0  0  0  0  0  0  0  0  0  0  0
   17.2630   77.7400    6.8830 C   0  0  0  0  0  0  0  0  0  0  0  0
   18.2340   77.2560    7.7280 C   0  0  0  0  0  0  0  0  0  0  0  0
   18.4250   78.1130    8.7710 N   0  0  0  0  0  0  0  0  0  0  0  0
   17.5710   79.1230    8.5660 C   0  0  0  0  0  0  0  0  0  0  0  0
   16.8340   78.9370    7.4150 C   0  0  0  0  0  0  0  0  0  0  0  0
   19.3730   77.9220    9.8480 C   0  0  0  0  0  0  0  0  0  0  0  0
   19.7430   79.2230   10.5030 C   0  0  0  0  0  0  0  0  0  0  0  0
   18.8890   79.8060   11.1990 O   0  0  0  0  0  0  0  0  0  0  0  0
   21.0210   79.7760   10.3380 N   0  0  0  0  0  0  0  0  0  0  0  0
   21.2890   81.1960   10.4150 C   0  0  0  0  0  0  0  0  0  0  0  0
   22.4210   81.3780   11.4130 C   0  0  0  0  0  0  0  0  0  0  0  0
   22.7410   80.1750   12.0620 N   0  0  0  0  0  0  0  0  0  0  0  0
   23.0940   79.0410   11.3110 C   0  0  0  0  0  0  0  0  0  0  0  0
   22.2060   78.9460   10.0760 C   0  0  0  0  0  0  0  0  0  0  0  0
   22.5410   80.0580   13.4460 C   0  0  0  0  0  0  0  0  0  0  0  0
   23.2250   78.8950   14.0700 C   0  0  0  0  0  0  0  0  0  0  0  0
   24.4790   78.8670   13.9820 O   0  0  0  0  0  0  0  0  0  0  0  0
   22.5540   77.8560   14.7330 N   0  0  0  0  0  0  0  0  0  0  0  0
   22.7110   77.6770   16.1630 C   0  0  0  0  0  0  0  0  0  0  0  0
   21.3210   77.6590   16.7640 C   0  0  0  0  0  0  0  0  0  0  0  0
   20.7110   76.5010   16.2600 O   0  0  0  0  0  0  0  0  0  0  0  0
   20.4870   76.5920   14.9070 C   0  0  0  0  0  0  0  0  0  0  0  0
   21.6810   76.9050   14.0740 C   0  0  0  0  0  0  0  0  0  0  0  0
   18.8480   76.0580    7.4420 C   0  0  0  0  0  0  0  0  0  0  0  0
   18.4650   75.3670    6.2970 C   0  0  0  0  0  0  0  0  0  0  0  0
   16.1230   77.4130    5.0650 H   0  0  0  0  0  0  0  0  0  0  0  0
   17.4720   79.9810    9.2240 H   0  0  0  0  0  0  0  0  0  0  0  0
   16.0730   79.5570    6.9730 H   0  0  0  0  0  0  0  0  0  0  0  0
   18.9690   77.2620   10.6470 H   0  0  0  0  0  0  0  0  0  0  0  0
   20.3330   77.5010    9.4780 H   0  0  0  0  0  0  0  0  0  0  0  0
   20.3990   81.7870   10.6410 H   0  0  0  0  0  0  0  0  0  0  0  0
   21.6660   81.5790    9.4260 H   0  0  0  0  0  0  0  0  0  0  0  0
   22.0160   82.0870   12.1920 H   0  0  0  0  0  0  0  0  0  0  0  0
   23.2750   81.9280   10.9570 H   0  0  0  0  0  0  0  0  0  0  0  0
   24.1520   78.9360   11.0510 H   0  0  0  0  0  0  0  0  0  0  0  0
   22.8400   78.1190   11.9150 H   0  0  0  0  0  0  0  0  0  0  0  0
   22.7500   79.4510    9.2530 H   0  0  0  0  0  0  0  0  0  0  0  0
   21.8980   77.9280    9.8510 H   0  0  0  0  0  0  0  0  0  0  0  0
   22.8340   81.0270   13.9390 H   0  0  0  0  0  0  0  0  0  0  0  0
   21.4330   79.9790   13.6320 H   0  0  0  0  0  0  0  0  0  0  0  0
   23.1280   76.6420   16.3340 H   0  0  0  0  0  0  0  0  0  0  0  0
   23.3760   78.4290   16.6120 H   0  0  0  0  0  0  0  0  0  0  0  0
   21.4120   77.5210   17.8680 H   0  0  0  0  0  0  0  0  0  0  0  0
   20.7890   78.5790   16.4950 H   0  0  0  0  0  0  0  0  0  0  0  0
   20.0860   75.6070   14.5690 H   0  0  0  0  0  0  0  0  0  0  0  0
   19.6520   77.3110   14.7710 H   0  0  0  0  0  0  0  0  0  0  0  0
   22.2410   75.9710   13.8700 H   0  0  0  0  0  0  0  0  0  0  0  0
   21.3290   77.2700   13.0890 H   0  0  0  0  0  0  0  0  0  0  0  0
   19.6200   75.6420    8.0840 H   0  0  0  0  0  0  0  0  0  0  0  0
   18.9600   74.4260    6.0920 H   0  0  0  0  0  0  0  0  0  0  0  0
  1  2  1  0  0  0  0
  2  3  2  0  0  0  0
  2 28  1  0  0  0  0
  3  4  1  0  0  0  0
  4  8  1  0  0  0  0
  4  5  2  0  0  0  0
  5  6  1  0  0  0  0
  6  9  1  0  0  0  0
  7  6  1  0  0  0  0
  7 30  1  0  0  0  0
  8  7  2  0  0  0  0
  9 10  1  0  0  0  0
  9 32  1  0  0  0  0
 10 11  2  0  0  0  0
 12 13  1  0  0  0  0
 12 10  1  0  0  0  0
 13 34  1  0  0  0  0
 13 14  1  0  0  0  0
 14 15  1  0  0  0  0
 14 36  1  0  0  0  0
 15 18  1  0  0  0  0
 16 39  1  0  0  0  0
 16 15  1  0  0  0  0
 17 12  1  0  0  0  0
 17 16  1  0  0  0  0
 18 43  1  0  0  0  0
 18 42  1  0  0  0  0
 18 19  1  0  0  0  0
 19 21  1  0  0  0  0
 20 19  2  0  0  0  0
 21 22  1  0  0  0  0
 22 44  1  0  0  0  0
 22 45  1  0  0  0  0
 22 23  1  0  0  0  0
 23 46  1  0  0  0  0
 24 23  1  0  0  0  0
 25 24  1  0  0  0  0
 26 21  1  0  0  0  0
 26 25  1  0  0  0  0
 27  5  1  0  0  0  0
 27 52  1  0  0  0  0
 28 27  2  0  0  0  0
 29  3  1  0  0  0  0
 31  8  1  0  0  0  0
 33  9  1  0  0  0  0
 35 13  1  0  0  0  0
 37 14  1  0  0  0  0
 38 16  1  0  0  0  0
 40 17  1  0  0  0  0
 41 17  1  0  0  0  0
 47 23  1  0  0  0  0
 48 25  1  0  0  0  0
 49 25  1  0  0  0  0
 50 26  1  0  0  0  0
 51 26  1  0  0  0  0
 53 28  1  0  0  0  0
M  END
>  <Pose>
1

>  <Score>
-6.31

$$$$
