
 OpenBabel03222202113D

 47 50  0  0  1  0  0  0  0  0999 V2000
   19.1070   77.1390   20.6200 Cl  0  0  0  0  0  0  0  0  0  0  0  0
   19.7020   78.3510   19.5180 C   0  0  0  0  0  0  0  0  0  0  0  0
   20.7050   78.0140   18.6360 C   0  0  0  0  0  0  0  0  0  0  0  0
   21.2300   78.9330   17.7200 C   0  0  0  0  0  0  0  0  0  0  0  0
   20.6910   80.1910   17.7490 C   0  0  0  0  0  0  0  0  0  0  0  0
   19.6880   80.5380   18.6290 C   0  0  0  0  0  0  0  0  0  0  0  0
   19.1690   79.6130   19.5390 C   0  0  0  0  0  0  0  0  0  0  0  0
   22.2520   78.4790   16.8430 N   0  0  0  0  0  0  0  0  0  0  0  0
   23.6210   78.8380   16.9440 C   0  0  0  0  0  0  0  0  0  0  0  0
   24.0200   79.6240   17.8140 O   0  0  0  0  0  0  0  0  0  0  0  0
   24.5750   78.2900   16.0240 N   0  0  0  0  0  0  0  0  0  0  0  0
   24.1720   77.3790   15.0030 C   0  0  0  0  0  0  0  0  0  0  0  0
   24.9610   76.5740   14.4800 O   0  0  0  0  0  0  0  0  0  0  0  0
   22.7350   77.4060   14.5520 C   0  0  1  0  0  0  0  0  0  0  0  0
   21.9240   77.5580   15.7790 C   0  0  0  0  0  0  0  0  0  0  0  0
   20.8630   76.8590   15.9600 O   0  0  0  0  0  0  0  0  0  0  0  0
   22.5470   78.5260   13.5820 C   0  0  0  0  0  0  0  0  0  0  0  0
   23.1350   78.7250   12.4210 C   0  0  0  0  0  0  0  0  0  0  0  0
   22.6060   79.9850   11.8300 C   0  0  2  0  0  0  0  0  0  0  0  0
   22.1500   80.6900   13.0550 N   0  0  0  0  0  0  0  0  0  0  0  0
   21.6530   79.6230   13.8140 N   0  0  0  0  0  0  0  0  0  0  0  0
   21.3680   79.6790   11.0630 C   0  0  0  0  0  0  0  0  0  0  0  0
   21.2780   78.5390   10.2350 C   0  0  0  0  0  0  0  0  0  0  0  0
   20.1570   78.2000    9.5420 C   0  0  0  0  0  0  0  0  0  0  0  0
   19.0310   78.9960    9.6380 C   0  0  0  0  0  0  0  0  0  0  0  0
   19.0840   80.1160   10.4360 C   0  0  0  0  0  0  0  0  0  0  0  0
   20.2260   80.4470   11.1310 C   0  0  0  0  0  0  0  0  0  0  0  0
   17.8760   78.6630    8.9380 O   0  0  0  0  0  0  0  0  0  0  0  0
   20.1230   77.0570    8.7300 O   0  0  0  0  0  0  0  0  0  0  0  0
   19.4240   75.9140    9.1710 C   0  0  0  0  0  0  0  0  0  0  0  0
   21.1370   77.0010   18.6120 H   0  0  0  0  0  0  0  0  0  0  0  0
   21.0640   80.9280   17.0710 H   0  0  0  0  0  0  0  0  0  0  0  0
   19.2610   81.5360   18.6550 H   0  0  0  0  0  0  0  0  0  0  0  0
   18.3810   79.8880   20.2250 H   0  0  0  0  0  0  0  0  0  0  0  0
   25.5620   78.5640   16.1140 H   0  0  0  0  0  0  0  0  0  0  0  0
   22.4440   76.4400   14.0960 H   0  0  0  0  0  0  0  0  0  0  0  0
   23.8780   78.1160   11.9360 H   0  0  0  0  0  0  0  0  0  0  0  0
   23.3430   80.5550   11.2730 H   0  0  0  0  0  0  0  0  0  0  0  0
   22.9550   81.1650   13.5080 H   0  0  0  0  0  0  0  0  0  0  0  0
   20.8350   79.6030   14.4130 H   0  0  0  0  0  0  0  0  0  0  0  0
   22.1710   77.9380   10.1800 H   0  0  0  0  0  0  0  0  0  0  0  0
   18.1880   80.7150   10.4800 H   0  0  0  0  0  0  0  0  0  0  0  0
   20.2340   81.3370   11.7540 H   0  0  0  0  0  0  0  0  0  0  0  0
   17.2100   79.3920    8.7160 H   0  0  0  0  0  0  0  0  0  0  0  0
   18.3410   76.0840    9.1840 H   0  0  0  0  0  0  0  0  0  0  0  0
   19.6530   75.1070    8.4290 H   0  0  0  0  0  0  0  0  0  0  0  0
   19.8490   75.6030   10.1550 H   0  0  0  0  0  0  0  0  0  0  0  0
  2  7  1  0  0  0  0
  2  1  1  0  0  0  0
  3  2  2  0  0  0  0
  4  5  2  0  0  0  0
  4  3  1  0  0  0  0
  5  6  1  0  0  0  0
  6 33  1  0  0  0  0
  6  7  2  0  0  0  0
  7 34  1  0  0  0  0
  8  9  1  0  0  0  0
  8  4  1  0  0  0  0
  9 10  2  0  0  0  0
 11 35  1  0  0  0  0
 11  9  1  0  0  0  0
 12 11  1  0  0  0  0
 13 12  2  0  0  0  0
 14 36  1  6  0  0  0
 14 12  1  0  0  0  0
 14 15  1  0  0  0  0
 15 16  2  0  0  0  0
 15  8  1  0  0  0  0
 17 21  1  0  0  0  0
 17 14  1  0  0  0  0
 18 17  2  0  0  0  0
 19 38  1  6  0  0  0
 19 18  1  0  0  0  0
 19 20  1  0  0  0  0
 20 39  1  0  0  0  0
 20 21  1  0  0  0  0
 21 40  1  0  0  0  0
 22 27  1  0  0  0  0
 22 19  1  0  0  0  0
 23 22  2  0  0  0  0
 24 25  2  0  0  0  0
 24 23  1  0  0  0  0
 25 26  1  0  0  0  0
 26 42  1  0  0  0  0
 26 27  2  0  0  0  0
 27 43  1  0  0  0  0
 28 25  1  0  0  0  0
 29 30  1  0  0  0  0
 29 24  1  0  0  0  0
 30 45  1  0  0  0  0
 30 47  1  0  0  0  0
 31  3  1  0  0  0  0
 32  5  1  0  0  0  0
 37 18  1  0  0  0  0
 41 23  1  0  0  0  0
 44 28  1  0  0  0  0
 46 30  1  0  0  0  0
M  END
>  <Pose>
1

>  <Score>
-5.47

$$$$
