
 OpenBabel03222202113D

 61 64  0  0  1  0  0  0  0  0999 V2000
   21.1730   78.3160   17.0350 S   0  0  0  0  0  0  0  0  0  0  0  0
   21.6600   77.1240   17.8570 O   0  0  0  0  0  0  0  0  0  0  0  0
   19.9650   77.7580   16.2790 O   0  0  0  0  0  0  0  0  0  0  0  0
   22.2940   78.8300   15.9240 N   0  0  0  0  0  0  0  0  0  0  0  0
   22.0160   79.2670   14.6430 C   0  0  1  0  0  0  0  0  0  0  0  0
   22.3340   80.7690   14.6430 C   0  0  0  0  0  0  0  0  0  0  0  0
   23.5440   80.8230   15.5480 C   0  0  0  0  0  0  0  0  0  0  0  0
   23.3560   79.6570   16.4890 C   0  0  0  0  0  0  0  0  0  0  0  0
   22.9720   78.5790   13.6830 C   0  0  0  0  0  0  0  0  0  0  0  0
   23.4760   77.5240   14.0900 O   0  0  0  0  0  0  0  0  0  0  0  0
   23.2240   79.1540   12.4250 N   0  0  0  0  0  0  0  0  0  0  0  0
   22.1510   79.7580   11.6740 C   0  0  0  0  0  0  0  0  0  0  0  0
   22.0630   79.3660   10.2490 C   0  0  0  0  0  0  0  0  0  0  0  0
   21.1720   78.3070    9.9350 N   0  0  0  0  0  0  0  0  0  0  0  0
   21.7820   77.0770    9.5450 C   0  0  0  0  0  0  0  0  0  0  0  0
   20.9810   75.9470   10.1590 C   0  0  0  0  0  0  0  0  0  0  0  0
   19.5200   76.1360    9.8080 C   0  0  0  0  0  0  0  0  0  0  0  0
   19.4230   76.4470    8.3390 C   0  0  0  0  0  0  0  0  0  0  0  0
   19.7220   77.8550    7.9830 C   0  0  0  0  0  0  0  0  0  0  0  0
   20.0980   78.7470    9.1060 C   0  0  0  0  0  0  0  0  0  0  0  0
   20.5760   79.5430   18.1140 C   0  0  0  0  0  0  0  0  0  0  0  0
   20.6840   80.8900   17.7300 C   0  0  0  0  0  0  0  0  0  0  0  0
   20.3060   81.9380   18.5210 C   0  0  0  0  0  0  0  0  0  0  0  0
   19.7890   81.6340   19.7670 C   0  0  0  0  0  0  0  0  0  0  0  0
   19.6550   80.3500   20.2020 C   0  0  0  0  0  0  0  0  0  0  0  0
   20.0550   79.3210   19.3570 C   0  0  0  0  0  0  0  0  0  0  0  0
   19.7550   77.7010   19.9450 Cl  0  0  0  0  0  0  0  0  0  0  0  0
   19.3820   82.7260   20.6060 N   0  0  0  0  0  0  0  0  0  0  0  0
   19.5220   84.0640   20.1340 C   0  0  0  0  0  0  0  0  0  0  0  0
   19.6140   85.0040   20.9430 O   0  0  0  0  0  0  0  0  0  0  0  0
   19.5500   84.2680   18.6640 C   0  0  0  0  0  0  0  0  0  0  0  0
   20.4150   83.2650   18.1370 O   0  0  0  0  0  0  0  0  0  0  0  0
   21.0020   79.2050   14.2460 H   0  0  0  0  0  0  0  0  0  0  0  0
   22.4850   81.1740   13.6490 H   0  0  0  0  0  0  0  0  0  0  0  0
   21.4770   81.2800   15.1180 H   0  0  0  0  0  0  0  0  0  0  0  0
   24.4350   80.6960   14.8870 H   0  0  0  0  0  0  0  0  0  0  0  0
   23.5980   81.7480   16.1350 H   0  0  0  0  0  0  0  0  0  0  0  0
   23.0880   79.9950   17.5160 H   0  0  0  0  0  0  0  0  0  0  0  0
   24.2740   79.0450   16.5040 H   0  0  0  0  0  0  0  0  0  0  0  0
   24.1690   79.1640   11.9900 H   0  0  0  0  0  0  0  0  0  0  0  0
   21.1910   79.4250   12.1660 H   0  0  0  0  0  0  0  0  0  0  0  0
   22.1540   80.8560   11.7550 H   0  0  0  0  0  0  0  0  0  0  0  0
   23.0660   79.1030    9.8850 H   0  0  0  0  0  0  0  0  0  0  0  0
   21.7350   80.2640    9.6550 H   0  0  0  0  0  0  0  0  0  0  0  0
   22.8540   77.0140    9.7990 H   0  0  0  0  0  0  0  0  0  0  0  0
   21.7090   76.9730    8.4440 H   0  0  0  0  0  0  0  0  0  0  0  0
   21.2770   74.9540    9.7150 H   0  0  0  0  0  0  0  0  0  0  0  0
   21.1480   75.8440   11.2470 H   0  0  0  0  0  0  0  0  0  0  0  0
   18.8910   75.2950   10.0720 H   0  0  0  0  0  0  0  0  0  0  0  0
   19.1550   77.0280   10.3590 H   0  0  0  0  0  0  0  0  0  0  0  0
   18.4030   76.0970    8.0030 H   0  0  0  0  0  0  0  0  0  0  0  0
   20.1380   75.7880    7.7870 H   0  0  0  0  0  0  0  0  0  0  0  0
   20.4670   77.9250    7.1370 H   0  0  0  0  0  0  0  0  0  0  0  0
   18.7840   78.2900    7.5270 H   0  0  0  0  0  0  0  0  0  0  0  0
   19.2220   78.9660    9.7500 H   0  0  0  0  0  0  0  0  0  0  0  0
   20.3780   79.7370    8.6590 H   0  0  0  0  0  0  0  0  0  0  0  0
   21.0950   81.1100   16.7430 H   0  0  0  0  0  0  0  0  0  0  0  0
   19.2450   80.1510   21.1880 H   0  0  0  0  0  0  0  0  0  0  0  0
   18.9880   82.5100   21.5550 H   0  0  0  0  0  0  0  0  0  0  0  0
   19.8890   85.2580   18.3580 H   0  0  0  0  0  0  0  0  0  0  0  0
   18.5300   84.0350   18.2530 H   0  0  0  0  0  0  0  0  0  0  0  0
  1  2  2  0  0  0  0
  1 21  1  0  0  0  0
  3  1  2  0  0  0  0
  4  8  1  0  0  0  0
  4  1  1  0  0  0  0
  5 33  1  6  0  0  0
  5  6  1  0  0  0  0
  5  4  1  0  0  0  0
  6 35  1  0  0  0  0
  6  7  1  0  0  0  0
  7 37  1  0  0  0  0
  7  8  1  0  0  0  0
  8 39  1  0  0  0  0
  8 38  1  0  0  0  0
  9 10  2  0  0  0  0
  9  5  1  0  0  0  0
 11  9  1  0  0  0  0
 12 42  1  0  0  0  0
 12 41  1  0  0  0  0
 12 11  1  0  0  0  0
 13 12  1  0  0  0  0
 14 13  1  0  0  0  0
 15 45  1  0  0  0  0
 15 14  1  0  0  0  0
 15 16  1  0  0  0  0
 16 48  1  0  0  0  0
 17 49  1  0  0  0  0
 17 16  1  0  0  0  0
 17 50  1  0  0  0  0
 18 17  1  0  0  0  0
 19 18  1  0  0  0  0
 19 20  1  0  0  0  0
 20 55  1  0  0  0  0
 20 14  1  0  0  0  0
 21 26  1  0  0  0  0
 22 21  2  0  0  0  0
 22 23  1  0  0  0  0
 23 24  2  0  0  0  0
 24 25  1  0  0  0  0
 24 28  1  0  0  0  0
 25 58  1  0  0  0  0
 26 27  1  0  0  0  0
 26 25  2  0  0  0  0
 28 59  1  0  0  0  0
 29 28  1  0  0  0  0
 29 30  2  0  0  0  0
 31 29  1  0  0  0  0
 32 23  1  0  0  0  0
 32 31  1  0  0  0  0
 34  6  1  0  0  0  0
 36  7  1  0  0  0  0
 40 11  1  0  0  0  0
 43 13  1  0  0  0  0
 44 13  1  0  0  0  0
 46 15  1  0  0  0  0
 47 16  1  0  0  0  0
 51 18  1  0  0  0  0
 52 18  1  0  0  0  0
 53 19  1  0  0  0  0
 54 19  1  0  0  0  0
 56 20  1  0  0  0  0
 57 22  1  0  0  0  0
 60 31  1  0  0  0  0
 61 31  1  0  0  0  0
M  END
>  <Pose>
1

>  <Score>
-6.59

$$$$
