
 OpenBabel03222202113D

 39 42  0  0  0  0  0  0  0  0999 V2000
   20.1370   78.8230    8.8490 Cl  0  0  0  0  0  0  0  0  0  0  0  0
   21.0460   79.2730   10.2980 C   0  0  0  0  0  0  0  0  0  0  0  0
   21.0420   78.4700   11.4120 C   0  0  0  0  0  0  0  0  0  0  0  0
   21.7490   78.8230   12.5380 C   0  0  0  0  0  0  0  0  0  0  0  0
   22.5080   79.9960   12.6360 C   0  0  0  0  0  0  0  0  0  0  0  0
   22.4940   80.7810   11.5060 C   0  0  0  0  0  0  0  0  0  0  0  0
   21.7750   80.4320   10.3480 C   0  0  0  0  0  0  0  0  0  0  0  0
   23.2490   80.2620   13.8360 C   0  0  0  0  0  0  0  0  0  0  0  0
   23.2830   81.5300   14.1620 O   0  0  0  0  0  0  0  0  0  0  0  0
   23.9300   79.4210   14.7030 N   0  0  0  0  0  0  0  0  0  0  0  0
   24.1260   78.0100   14.6870 C   0  0  0  0  0  0  0  0  0  0  0  0
   23.1100   77.4550   15.7050 C   0  0  0  0  0  0  0  0  0  0  0  0
   23.1170   78.3670   16.8630 N   0  0  0  0  0  0  0  0  0  0  0  0
   24.3040   79.1370   17.1020 C   0  0  0  0  0  0  0  0  0  0  0  0
   24.5380   80.0580   15.9190 C   0  0  0  0  0  0  0  0  0  0  0  0
   21.9630   78.4500   17.6960 C   0  0  0  0  0  0  0  0  0  0  0  0
   21.4170   79.6440   18.0170 N   0  0  0  0  0  0  0  0  0  0  0  0
   20.3500   79.7590   18.7880 N   0  0  0  0  0  0  0  0  0  0  0  0
   19.7240   78.6960   19.3120 C   0  0  0  0  0  0  0  0  0  0  0  0
   18.6650   79.0960   20.0580 N   0  0  0  0  0  0  0  0  0  0  0  0
   18.6300   80.4150   19.9990 N   0  0  0  0  0  0  0  0  0  0  0  0
   19.6480   80.8400   19.2310 C   0  0  0  0  0  0  0  0  0  0  0  0
   20.2240   77.4370   19.0280 C   0  0  0  0  0  0  0  0  0  0  0  0
   21.3350   77.3450   18.2240 C   0  0  0  0  0  0  0  0  0  0  0  0
   20.4650   77.5560   11.3670 H   0  0  0  0  0  0  0  0  0  0  0  0
   21.7210   78.1690   13.3910 H   0  0  0  0  0  0  0  0  0  0  0  0
   23.0710   81.6850   11.4860 H   0  0  0  0  0  0  0  0  0  0  0  0
   21.7880   81.0790    9.4740 H   0  0  0  0  0  0  0  0  0  0  0  0
   24.1810   77.4850   13.7600 H   0  0  0  0  0  0  0  0  0  0  0  0
   25.1230   77.7950   15.2350 H   0  0  0  0  0  0  0  0  0  0  0  0
   23.3790   76.4300   16.0200 H   0  0  0  0  0  0  0  0  0  0  0  0
   22.1430   77.4830   15.1860 H   0  0  0  0  0  0  0  0  0  0  0  0
   25.2170   78.5050   17.1830 H   0  0  0  0  0  0  0  0  0  0  0  0
   24.1740   79.7930   17.9860 H   0  0  0  0  0  0  0  0  0  0  0  0
   25.6100   80.2200   15.7100 H   0  0  0  0  0  0  0  0  0  0  0  0
   24.0630   81.0420   16.0630 H   0  0  0  0  0  0  0  0  0  0  0  0
   19.8850   81.8750   18.9920 H   0  0  0  0  0  0  0  0  0  0  0  0
   19.7470   76.5470   19.4320 H   0  0  0  0  0  0  0  0  0  0  0  0
   21.7690   76.3650   17.9730 H   0  0  0  0  0  0  0  0  0  0  0  0
  1  2  1  0  0  0  0
  2  7  2  0  0  0  0
  2  3  1  0  0  0  0
  3  4  2  0  0  0  0
  4  5  1  0  0  0  0
  4 26  1  0  0  0  0
  5  8  1  0  0  0  0
  6  5  2  0  0  0  0
  7  6  1  0  0  0  0
  8  9  2  0  0  0  0
  8 10  1  0  0  0  0
 10 15  1  0  0  0  0
 11 10  1  0  0  0  0
 11 30  1  0  0  0  0
 11 12  1  0  0  0  0
 12 31  1  0  0  0  0
 12 13  1  0  0  0  0
 13 14  1  0  0  0  0
 13 16  1  0  0  0  0
 14 33  1  0  0  0  0
 14 34  1  0  0  0  0
 15 36  1  0  0  0  0
 15 14  1  0  0  0  0
 16 17  2  0  0  0  0
 16 24  1  0  0  0  0
 17 18  1  0  0  0  0
 18 22  1  0  0  0  0
 18 19  1  0  0  0  0
 19 20  2  0  0  0  0
 21 20  1  0  0  0  0
 22 21  2  0  0  0  0
 23 19  1  0  0  0  0
 23 38  1  0  0  0  0
 24 23  2  0  0  0  0
 25  3  1  0  0  0  0
 27  6  1  0  0  0  0
 28  7  1  0  0  0  0
 29 11  1  0  0  0  0
 32 12  1  0  0  0  0
 35 15  1  0  0  0  0
 37 22  1  0  0  0  0
 39 24  1  0  0  0  0
M  END
>  <Pose>
1

>  <Score>
-6.29

$$$$
