
 OpenBabel03222202113D

 47 50  0  0  0  0  0  0  0  0999 V2000
   17.4700   70.8900   11.8170 Cl  0  0  0  0  0  0  0  0  0  0  0  0
   18.2020   72.2910   12.5750 C   0  0  0  0  0  0  0  0  0  0  0  0
   17.5880   73.5290   12.6060 C   0  0  0  0  0  0  0  0  0  0  0  0
   18.1730   74.6300   13.2090 C   0  0  0  0  0  0  0  0  0  0  0  0
   19.4110   74.5340   13.8130 C   0  0  0  0  0  0  0  0  0  0  0  0
   20.0340   73.3040   13.7890 C   0  0  0  0  0  0  0  0  0  0  0  0
   19.4440   72.1970   13.1820 C   0  0  0  0  0  0  0  0  0  0  0  0
   19.9960   75.6770   14.4280 N   0  0  0  0  0  0  0  0  0  0  0  0
   19.7020   76.1350   15.5930 N   0  0  0  0  0  0  0  0  0  0  0  0
   20.4510   77.2600   15.9020 C   0  0  0  0  0  0  0  0  0  0  0  0
   21.2310   77.4740   14.8590 N   0  0  0  0  0  0  0  0  0  0  0  0
   20.9400   76.4880   13.9440 C   0  0  0  0  0  0  0  0  0  0  0  0
   21.5040   76.3980   12.8330 O   0  0  0  0  0  0  0  0  0  0  0  0
   22.2690   78.4410   14.6840 C   0  0  0  0  0  0  0  0  0  0  0  0
   22.0120   79.4670   13.6560 C   0  0  0  0  0  0  0  0  0  0  0  0
   21.8000   80.6490   14.1560 O   0  0  0  0  0  0  0  0  0  0  0  0
   21.9600   79.3860   12.2820 N   0  0  0  0  0  0  0  0  0  0  0  0
   23.0870   79.1900   11.4110 C   0  0  0  0  0  0  0  0  0  0  0  0
   22.6710   79.0920    9.9320 C   0  0  0  0  0  0  0  0  0  0  0  0
   21.8630   80.2640    9.5860 N   0  0  0  0  0  0  0  0  0  0  0  0
   20.8370   80.5570   10.5600 C   0  0  0  0  0  0  0  0  0  0  0  0
   20.1790   81.6190   10.4860 O   0  0  0  0  0  0  0  0  0  0  0  0
   20.6580   79.5190   11.6050 C   0  0  0  0  0  0  0  0  0  0  0  0
   20.2860   77.9180   17.1960 C   0  0  0  0  0  0  0  0  0  0  0  0
   20.1750   77.1110   18.3350 C   0  0  0  0  0  0  0  0  0  0  0  0
   19.9580   77.5950   19.5960 C   0  0  0  0  0  0  0  0  0  0  0  0
   19.8310   78.9610   19.8140 C   0  0  0  0  0  0  0  0  0  0  0  0
   19.9360   79.7580   18.7090 C   0  0  0  0  0  0  0  0  0  0  0  0
   20.1580   79.2580   17.4230 C   0  0  0  0  0  0  0  0  0  0  0  0
   16.6180   73.6080   12.1350 H   0  0  0  0  0  0  0  0  0  0  0  0
   17.6960   75.5930   13.2340 H   0  0  0  0  0  0  0  0  0  0  0  0
   20.9970   73.2310   14.2580 H   0  0  0  0  0  0  0  0  0  0  0  0
   19.9370   71.2370   13.1670 H   0  0  0  0  0  0  0  0  0  0  0  0
   23.2520   78.0520   14.5420 H   0  0  0  0  0  0  0  0  0  0  0  0
   22.3360   79.0120   15.6920 H   0  0  0  0  0  0  0  0  0  0  0  0
   23.4930   78.1730   11.6600 H   0  0  0  0  0  0  0  0  0  0  0  0
   23.8610   79.9420   11.5080 H   0  0  0  0  0  0  0  0  0  0  0  0
   22.0560   78.1940    9.7660 H   0  0  0  0  0  0  0  0  0  0  0  0
   23.5720   79.0140    9.3050 H   0  0  0  0  0  0  0  0  0  0  0  0
   22.0060   80.8240    8.7410 H   0  0  0  0  0  0  0  0  0  0  0  0
   19.8970   79.8400   12.3540 H   0  0  0  0  0  0  0  0  0  0  0  0
   20.4090   78.5250   11.1700 H   0  0  0  0  0  0  0  0  0  0  0  0
   20.2790   76.0320   18.1770 H   0  0  0  0  0  0  0  0  0  0  0  0
   19.8740   76.9530   20.4580 H   0  0  0  0  0  0  0  0  0  0  0  0
   19.6610   79.3640   20.7980 H   0  0  0  0  0  0  0  0  0  0  0  0
   19.8370   80.8420   18.8440 H   0  0  0  0  0  0  0  0  0  0  0  0
   20.1950   79.9550   16.6320 H   0  0  0  0  0  0  0  0  0  0  0  0
  1  2  1  0  0  0  0
  2  3  2  0  0  0  0
  2  7  1  0  0  0  0
  3  4  1  0  0  0  0
  4 31  1  0  0  0  0
  4  5  2  0  0  0  0
  5  8  1  0  0  0  0
  6  5  1  0  0  0  0
  6 32  1  0  0  0  0
  7  6  2  0  0  0  0
  8  9  1  0  0  0  0
  9 10  2  0  0  0  0
 10 24  1  0  0  0  0
 11 10  1  0  0  0  0
 12  8  1  0  0  0  0
 12 11  1  0  0  0  0
 13 12  2  0  0  0  0
 14 11  1  0  0  0  0
 14 35  1  0  0  0  0
 15 16  2  0  0  0  0
 15 14  1  0  0  0  0
 17 15  1  0  0  0  0
 18 37  1  0  0  0  0
 18 36  1  0  0  0  0
 18 17  1  0  0  0  0
 19 18  1  0  0  0  0
 20 19  1  0  0  0  0
 20 21  1  0  0  0  0
 21 23  1  0  0  0  0
 22 21  2  0  0  0  0
 23 17  1  0  0  0  0
 23 41  1  0  0  0  0
 24 29  2  0  0  0  0
 24 25  1  0  0  0  0
 25 26  2  0  0  0  0
 26 27  1  0  0  0  0
 26 44  1  0  0  0  0
 27 45  1  0  0  0  0
 28 46  1  0  0  0  0
 28 27  2  0  0  0  0
 29 28  1  0  0  0  0
 30  3  1  0  0  0  0
 33  7  1  0  0  0  0
 34 14  1  0  0  0  0
 38 19  1  0  0  0  0
 39 19  1  0  0  0  0
 40 20  1  0  0  0  0
 42 23  1  0  0  0  0
 43 25  1  0  0  0  0
 47 29  1  0  0  0  0
M  END
>  <Pose>
1

>  <Score>
-7.47

$$$$
