
 OpenBabel03222202113D

 42 45  0  0  0  0  0  0  0  0999 V2000
   18.1500   74.7390    6.9170 Cl  0  0  0  0  0  0  0  0  0  0  0  0
   19.0670   75.9830    7.7700 C   0  0  0  0  0  0  0  0  0  0  0  0
   18.9470   77.3140    7.4840 C   0  0  0  0  0  0  0  0  0  0  0  0
   19.6450   78.3140    8.1280 C   0  0  0  0  0  0  0  0  0  0  0  0
   20.5260   77.9240    9.1320 C   0  0  0  0  0  0  0  0  0  0  0  0
   20.6540   76.5620    9.4300 C   0  0  0  0  0  0  0  0  0  0  0  0
   19.9390   75.6090    8.7620 C   0  0  0  0  0  0  0  0  0  0  0  0
   21.2750   78.8920    9.8350 N   0  0  0  0  0  0  0  0  0  0  0  0
   21.9600   79.8680    9.2870 N   0  0  0  0  0  0  0  0  0  0  0  0
   22.5160   80.5500   10.2840 N   0  0  0  0  0  0  0  0  0  0  0  0
   22.1880   80.0110   11.4750 C   0  0  0  0  0  0  0  0  0  0  0  0
   21.4080   78.9690   11.1710 C   0  0  0  0  0  0  0  0  0  0  0  0
   21.0670   78.4120   12.3960 C   0  0  0  0  0  0  0  0  0  0  0  0
   20.3360   77.4040   12.5250 O   0  0  0  0  0  0  0  0  0  0  0  0
   21.6160   79.0820   13.4200 N   0  0  0  0  0  0  0  0  0  0  0  0
   22.3160   80.0790   12.8470 C   0  0  0  0  0  0  0  0  0  0  0  0
   22.9900   80.9500   13.4730 O   0  0  0  0  0  0  0  0  0  0  0  0
   21.5120   78.8310   14.8180 C   0  0  0  0  0  0  0  0  0  0  0  0
   21.3740   79.8380   15.7540 C   0  0  0  0  0  0  0  0  0  0  0  0
   21.2730   79.5860   17.1060 C   0  0  0  0  0  0  0  0  0  0  0  0
   21.3080   78.2960   17.5920 C   0  0  0  0  0  0  0  0  0  0  0  0
   21.4470   77.2800   16.6700 C   0  0  0  0  0  0  0  0  0  0  0  0
   21.5460   77.5420   15.3160 C   0  0  0  0  0  0  0  0  0  0  0  0
   21.2060   78.0520   18.9600 O   0  0  0  0  0  0  0  0  0  0  0  0
   19.9950   77.8540   19.6220 C   0  0  0  0  0  0  0  0  0  0  0  0
   21.1330   80.6010   18.0480 O   0  0  0  0  0  0  0  0  0  0  0  0
   19.8590   80.7670   18.6410 C   0  0  0  0  0  0  0  0  0  0  0  0
   18.2540   77.6110    6.6960 H   0  0  0  0  0  0  0  0  0  0  0  0
   19.5260   79.3610    7.8760 H   0  0  0  0  0  0  0  0  0  0  0  0
   21.3450   76.2460   10.2190 H   0  0  0  0  0  0  0  0  0  0  0  0
   20.0290   74.5380    8.9860 H   0  0  0  0  0  0  0  0  0  0  0  0
   22.0570   80.0800    8.2500 H   0  0  0  0  0  0  0  0  0  0  0  0
   23.1240   81.3900   10.1310 H   0  0  0  0  0  0  0  0  0  0  0  0
   21.3450   80.8500   15.3810 H   0  0  0  0  0  0  0  0  0  0  0  0
   21.4740   76.2670   17.0490 H   0  0  0  0  0  0  0  0  0  0  0  0
   21.6550   76.7350   14.5990 H   0  0  0  0  0  0  0  0  0  0  0  0
   20.0540   78.0430   20.7140 H   0  0  0  0  0  0  0  0  0  0  0  0
   19.1840   78.5280   19.2400 H   0  0  0  0  0  0  0  0  0  0  0  0
   19.6640   76.8110   19.4490 H   0  0  0  0  0  0  0  0  0  0  0  0
   19.4750   79.7980   19.0030 H   0  0  0  0  0  0  0  0  0  0  0  0
   19.8750   81.5040   19.4640 H   0  0  0  0  0  0  0  0  0  0  0  0
   19.1770   81.1750   17.8670 H   0  0  0  0  0  0  0  0  0  0  0  0
  1  2  1  0  0  0  0
  2  7  1  0  0  0  0
  3  2  2  0  0  0  0
  3  4  1  0  0  0  0
  4  5  2  0  0  0  0
  5  6  1  0  0  0  0
  5  8  1  0  0  0  0
  6 30  1  0  0  0  0
  7 31  1  0  0  0  0
  7  6  2  0  0  0  0
  8 12  1  0  0  0  0
  9  8  1  0  0  0  0
  9 10  1  0  0  0  0
 10 11  1  0  0  0  0
 11 16  1  0  0  0  0
 12 11  2  0  0  0  0
 12 13  1  0  0  0  0
 13 14  2  0  0  0  0
 13 15  1  0  0  0  0
 15 18  1  0  0  0  0
 16 15  1  0  0  0  0
 16 17  2  0  0  0  0
 18 23  2  0  0  0  0
 18 19  1  0  0  0  0
 19 20  2  0  0  0  0
 20 21  1  0  0  0  0
 20 26  1  0  0  0  0
 21 24  1  0  0  0  0
 22 35  1  0  0  0  0
 22 21  2  0  0  0  0
 23 22  1  0  0  0  0
 24 25  1  0  0  0  0
 25 37  1  0  0  0  0
 26 27  1  0  0  0  0
 27 40  1  0  0  0  0
 27 41  1  0  0  0  0
 28  3  1  0  0  0  0
 29  4  1  0  0  0  0
 32  9  1  0  0  0  0
 33 10  1  0  0  0  0
 34 19  1  0  0  0  0
 36 23  1  0  0  0  0
 38 25  1  0  0  0  0
 39 25  1  0  0  0  0
 42 27  1  0  0  0  0
M  END
>  <Pose>
1

>  <Score>
-5.86

$$$$
