
 OpenBabel03222202113D

 42 45  0  0  0  0  0  0  0  0999 V2000
   17.7390   76.2890    6.9310 Cl  0  0  0  0  0  0  0  0  0  0  0  0
   18.7800   77.3700    7.8660 C   0  0  0  0  0  0  0  0  0  0  0  0
   18.2230   78.3890    8.6110 C   0  0  0  0  0  0  0  0  0  0  0  0
   18.9920   79.2490    9.3510 C   0  0  0  0  0  0  0  0  0  0  0  0
   20.3720   79.1250    9.3750 C   0  0  0  0  0  0  0  0  0  0  0  0
   20.9140   78.0970    8.6210 C   0  0  0  0  0  0  0  0  0  0  0  0
   20.1430   77.2300    7.8760 C   0  0  0  0  0  0  0  0  0  0  0  0
   21.1990   79.9960   10.1280 N   0  0  0  0  0  0  0  0  0  0  0  0
   21.7270   81.1230    9.6950 N   0  0  0  0  0  0  0  0  0  0  0  0
   22.4220   81.6160   10.7120 N   0  0  0  0  0  0  0  0  0  0  0  0
   22.3460   80.8200   11.7920 C   0  0  0  0  0  0  0  0  0  0  0  0
   21.5670   79.7950   11.4090 C   0  0  0  0  0  0  0  0  0  0  0  0
   21.4900   78.9780   12.5210 C   0  0  0  0  0  0  0  0  0  0  0  0
   20.8270   77.8980   12.5250 O   0  0  0  0  0  0  0  0  0  0  0  0
   22.1910   79.4710   13.5550 N   0  0  0  0  0  0  0  0  0  0  0  0
   22.7250   80.6180   13.1030 C   0  0  0  0  0  0  0  0  0  0  0  0
   23.4610   81.3810   13.7960 O   0  0  0  0  0  0  0  0  0  0  0  0
   22.3100   78.8610   14.8390 C   0  0  0  0  0  0  0  0  0  0  0  0
   23.5220   78.7410   15.4880 C   0  0  0  0  0  0  0  0  0  0  0  0
   23.6620   78.1570   16.7300 C   0  0  0  0  0  0  0  0  0  0  0  0
   22.5340   77.6670   17.3530 C   0  0  0  0  0  0  0  0  0  0  0  0
   21.2960   77.7590   16.7510 C   0  0  0  0  0  0  0  0  0  0  0  0
   21.2050   78.3570   15.4970 C   0  0  0  0  0  0  0  0  0  0  0  0
   20.1820   77.2540   17.4090 O   0  0  0  0  0  0  0  0  0  0  0  0
   19.7570   77.7590   18.6450 C   0  0  0  0  0  0  0  0  0  0  0  0
   24.9230   78.0590   17.3500 O   0  0  0  0  0  0  0  0  0  0  0  0
   25.9790   78.8640   16.8800 C   0  0  0  0  0  0  0  0  0  0  0  0
   17.1290   78.4850    8.5900 H   0  0  0  0  0  0  0  0  0  0  0  0
   18.5470   80.0450    9.9320 H   0  0  0  0  0  0  0  0  0  0  0  0
   22.0100   77.9990    8.6410 H   0  0  0  0  0  0  0  0  0  0  0  0
   20.5970   76.4510    7.3090 H   0  0  0  0  0  0  0  0  0  0  0  0
   21.6080   81.5280    8.7350 H   0  0  0  0  0  0  0  0  0  0  0  0
   22.9600   82.5090   10.6820 H   0  0  0  0  0  0  0  0  0  0  0  0
   24.3910   79.1440   14.9570 H   0  0  0  0  0  0  0  0  0  0  0  0
   22.6420   77.2040   18.3340 H   0  0  0  0  0  0  0  0  0  0  0  0
   20.2170   78.4300   15.0170 H   0  0  0  0  0  0  0  0  0  0  0  0
   20.4800   77.3920   19.4160 H   0  0  0  0  0  0  0  0  0  0  0  0
   19.6530   78.8560   18.6580 H   0  0  0  0  0  0  0  0  0  0  0  0
   18.7310   77.3310   18.8400 H   0  0  0  0  0  0  0  0  0  0  0  0
   25.6880   79.9150   16.7350 H   0  0  0  0  0  0  0  0  0  0  0  0
   26.8240   78.8340   17.5930 H   0  0  0  0  0  0  0  0  0  0  0  0
   26.3710   78.5030   15.8970 H   0  0  0  0  0  0  0  0  0  0  0  0
  1  2  1  0  0  0  0
  2  7  2  0  0  0  0
  2  3  1  0  0  0  0
  3  4  2  0  0  0  0
  4  5  1  0  0  0  0
  4 29  1  0  0  0  0
  5  8  1  0  0  0  0
  6 30  1  0  0  0  0
  6  5  2  0  0  0  0
  7  6  1  0  0  0  0
  8 12  1  0  0  0  0
  9  8  1  0  0  0  0
  9 10  1  0  0  0  0
 10 11  1  0  0  0  0
 11 16  1  0  0  0  0
 12 11  2  0  0  0  0
 12 13  1  0  0  0  0
 13 14  2  0  0  0  0
 13 15  1  0  0  0  0
 15 18  1  0  0  0  0
 16 15  1  0  0  0  0
 16 17  2  0  0  0  0
 18 19  2  0  0  0  0
 18 23  1  0  0  0  0
 19 20  1  0  0  0  0
 20 26  1  0  0  0  0
 20 21  2  0  0  0  0
 21 35  1  0  0  0  0
 22 21  1  0  0  0  0
 22 24  1  0  0  0  0
 23 22  2  0  0  0  0
 24 25  1  0  0  0  0
 25 38  1  0  0  0  0
 25 39  1  0  0  0  0
 25 37  1  0  0  0  0
 27 26  1  0  0  0  0
 27 41  1  0  0  0  0
 28  3  1  0  0  0  0
 31  7  1  0  0  0  0
 32  9  1  0  0  0  0
 33 10  1  0  0  0  0
 34 19  1  0  0  0  0
 36 23  1  0  0  0  0
 40 27  1  0  0  0  0
 42 27  1  0  0  0  0
M  END
>  <Pose>
1

>  <Score>
-6.46

$$$$
