
 OpenBabel03222202113D

 43 46  0  0  1  0  0  0  0  0999 V2000
   21.9310   80.1460    9.4600 Cl  0  0  0  0  0  0  0  0  0  0  0  0
   22.0820   79.7490   11.1740 C   0  0  0  0  0  0  0  0  0  0  0  0
   21.3120   78.6980   11.6780 C   0  0  0  0  0  0  0  0  0  0  0  0
   21.3870   78.3290   13.0060 C   0  0  2  0  0  0  0  0  0  0  0  0
   22.2550   79.0510   13.8010 C   0  0  0  0  0  0  0  0  0  0  0  0
   23.0190   80.0770   13.3520 C   0  0  0  0  0  0  0  0  0  0  0  0
   22.9360   80.4430   12.0000 C   0  0  0  0  0  0  0  0  0  0  0  0
   22.3250   78.6370   15.2260 C   0  0  0  0  0  0  0  0  0  0  0  0
   23.0240   79.0970   16.2190 N   0  0  0  0  0  0  0  0  0  0  0  0
   22.7410   78.3520   17.4250 C   0  0  0  0  0  0  0  0  0  0  0  0
   21.7310   77.2940   17.0580 C   0  0  0  0  0  0  0  0  0  0  0  0
   21.5190   77.5680   15.6470 N   0  0  0  0  0  0  0  0  0  0  0  0
   20.6440   76.8720   14.7600 C   0  0  0  0  0  0  0  0  0  0  0  0
   19.8060   75.8320   14.9520 N   0  0  0  0  0  0  0  0  0  0  0  0
   19.2100   75.5350   13.8000 N   0  0  0  0  0  0  0  0  0  0  0  0
   19.6980   76.4040   12.9170 C   0  0  0  0  0  0  0  0  0  0  0  0
   19.3800   76.4500   11.6960 O   0  0  0  0  0  0  0  0  0  0  0  0
   20.5960   77.2540   13.4870 N   0  0  0  0  0  0  0  0  0  0  0  0
   18.2380   74.4620   13.5720 C   0  0  0  0  0  0  0  0  0  0  0  0
   19.1520   73.2240   13.3150 C   0  0  0  0  0  0  0  0  0  0  0  0
   20.3510   73.5500   13.6260 O   0  0  0  0  0  0  0  0  0  0  0  0
   18.6400   72.0800   12.8410 N   0  0  0  0  0  0  0  0  0  0  0  0
   18.1140   70.9040   12.3540 C   0  0  0  0  0  0  0  0  0  0  0  0
   16.5910   70.9670   12.1850 C   0  0  0  0  0  0  0  0  0  0  0  0
   16.0990   69.8150   11.6190 O   0  0  0  0  0  0  0  0  0  0  0  0
   15.4400   69.9760   10.4350 C   0  0  0  0  0  0  0  0  0  0  0  0
   20.6640   78.1940   10.9840 H   0  0  0  0  0  0  0  0  0  0  0  0
   23.6750   80.6230   13.9970 H   0  0  0  0  0  0  0  0  0  0  0  0
   23.5250   81.2480   11.5980 H   0  0  0  0  0  0  0  0  0  0  0  0
   22.3360   79.0620   18.1790 H   0  0  0  0  0  0  0  0  0  0  0  0
   23.6710   77.8630   17.8150 H   0  0  0  0  0  0  0  0  0  0  0  0
   20.7880   77.4180   17.6000 H   0  0  0  0  0  0  0  0  0  0  0  0
   22.1610   76.2720   17.2260 H   0  0  0  0  0  0  0  0  0  0  0  0
   17.6440   74.2670   14.4440 H   0  0  0  0  0  0  0  0  0  0  0  0
   17.6880   74.6870   12.6700 H   0  0  0  0  0  0  0  0  0  0  0  0
   18.0700   71.8320   14.0480 H   0  0  0  0  0  0  0  0  0  0  0  0
   18.5900   70.4910   11.4390 H   0  0  0  0  0  0  0  0  0  0  0  0
   18.2740   70.0320   13.1030 H   0  0  0  0  0  0  0  0  0  0  0  0
   16.0700   71.2410   13.1170 H   0  0  0  0  0  0  0  0  0  0  0  0
   16.4290   71.7960   11.4540 H   0  0  0  0  0  0  0  0  0  0  0  0
   16.1370   70.3760    9.6330 H   0  0  0  0  0  0  0  0  0  0  0  0
   14.6760   70.7970   10.4910 H   0  0  0  0  0  0  0  0  0  0  0  0
   14.9940   69.0360   10.0720 H   0  0  0  0  0  0  0  0  0  0  0  0
  1  2  1  0  0  0  0
  2  3  2  0  0  0  0
  2  7  1  0  0  0  0
  4  3  1  6  0  0  0
  4 18  1  0  0  0  0
  4  5  1  0  0  0  0
  5  8  2  0  0  0  0
  6  5  1  0  0  0  0
  6 28  1  0  0  0  0
  7  6  2  0  0  0  0
  8 12  1  0  0  0  0
  8  9  1  0  0  0  0
  9 10  1  0  0  0  0
 10 31  1  0  0  0  0
 10 30  1  0  0  0  0
 11 33  1  0  0  0  0
 11 10  1  0  0  0  0
 11 32  1  0  0  0  0
 12 11  1  0  0  0  0
 13 14  2  0  0  0  0
 13 12  1  0  0  0  0
 15 14  1  0  0  0  0
 16 18  1  0  0  0  0
 16 15  1  0  0  0  0
 17 16  2  0  0  0  0
 18 13  1  0  0  0  0
 19 15  1  0  0  0  0
 19 34  1  0  0  0  0
 20 19  1  0  0  0  0
 20 21  2  0  0  0  0
 22 20  1  0  0  0  0
 22 36  1  0  0  0  0
 23 22  1  0  0  0  0
 23 38  1  0  0  0  0
 24 23  1  0  0  0  0
 24 39  1  0  0  0  0
 25 24  1  0  0  0  0
 26 42  1  0  0  0  0
 26 25  1  0  0  0  0
 27  3  1  0  0  0  0
 29  7  1  0  0  0  0
 35 19  1  0  0  0  0
 37 23  1  0  0  0  0
 40 24  1  0  0  0  0
 41 26  1  0  0  0  0
 43 26  1  0  0  0  0
M  END
>  <Pose>
1

>  <Score>
-6.33

$$$$
