
 OpenBabel03222202113D

 43 47  0  0  1  0  0  0  0  0999 V2000
   20.2460   85.1900   18.1610 Cl  0  0  0  0  0  0  0  0  0  0  0  0
   20.2220   83.4640   18.4480 C   0  0  0  0  0  0  0  0  0  0  0  0
   20.7600   82.5440   17.5620 C   0  0  0  0  0  0  0  0  0  0  0  0
   20.7350   81.1900   17.8000 C   0  0  2  0  0  0  0  0  0  0  0  0
   20.1460   80.7810   18.9720 C   0  0  0  0  0  0  0  0  0  0  0  0
   19.5970   81.6480   19.8870 C   0  0  0  0  0  0  0  0  0  0  0  0
   19.6380   83.0180   19.6150 C   0  0  0  0  0  0  0  0  0  0  0  0
   20.1000   79.3350   19.2610 C   0  0  0  0  0  0  0  0  0  0  0  0
   19.6220   78.6800   20.2560 N   0  0  0  0  0  0  0  0  0  0  0  0
   19.8060   77.2610   20.1090 C   0  0  0  0  0  0  0  0  0  0  0  0
   20.5110   77.1120   18.7990 C   0  0  0  0  0  0  0  0  0  0  0  0
   20.6680   78.4570   18.3110 N   0  0  0  0  0  0  0  0  0  0  0  0
   21.2750   78.9440   17.0970 C   0  0  0  0  0  0  0  0  0  0  0  0
   21.8670   78.3130   16.0650 N   0  0  0  0  0  0  0  0  0  0  0  0
   22.2700   79.2060   15.1780 N   0  0  0  0  0  0  0  0  0  0  0  0
   21.9150   80.4000   15.6820 C   0  0  0  0  0  0  0  0  0  0  0  0
   22.1480   81.4900   15.0870 O   0  0  0  0  0  0  0  0  0  0  0  0
   21.2930   80.2690   16.8740 N   0  0  0  0  0  0  0  0  0  0  0  0
   22.9620   78.9590   13.9040 C   0  0  0  0  0  0  0  0  0  0  0  0
   21.9350   78.6630   12.8710 C   0  0  0  0  0  0  0  0  0  0  0  0
   21.0280   77.8550   13.1940 O   0  0  0  0  0  0  0  0  0  0  0  0
   21.9700   79.2580   11.5810 N   0  0  0  0  0  0  0  0  0  0  0  0
   22.9430   78.9360   10.5540 C   0  0  0  0  0  0  0  0  0  0  0  0
   22.7290   79.9280    9.4420 C   0  0  0  0  0  0  0  0  0  0  0  0
   22.0180   81.0570   10.1610 C   0  0  0  0  0  0  0  0  0  0  0  0
   21.0700   80.2620   11.0640 C   0  0  0  0  0  0  0  0  0  0  0  0
   21.2050   82.9090   16.6690 H   0  0  0  0  0  0  0  0  0  0  0  0
   19.1450   81.3010   20.7890 H   0  0  0  0  0  0  0  0  0  0  0  0
   19.2020   83.6760   20.3460 H   0  0  0  0  0  0  0  0  0  0  0  0
   18.8250   76.7230   20.0430 H   0  0  0  0  0  0  0  0  0  0  0  0
   20.4190   76.8370   20.9410 H   0  0  0  0  0  0  0  0  0  0  0  0
   19.9460   76.4670   18.0900 H   0  0  0  0  0  0  0  0  0  0  0  0
   21.5370   76.7100   18.9840 H   0  0  0  0  0  0  0  0  0  0  0  0
   23.6570   78.1020   14.0260 H   0  0  0  0  0  0  0  0  0  0  0  0
   23.5010   79.8830   13.6510 H   0  0  0  0  0  0  0  0  0  0  0  0
   22.7270   77.9000   10.2280 H   0  0  0  0  0  0  0  0  0  0  0  0
   23.9580   79.0350   10.9980 H   0  0  0  0  0  0  0  0  0  0  0  0
   22.0060   79.5190    8.6990 H   0  0  0  0  0  0  0  0  0  0  0  0
   23.6700   80.2660    8.9650 H   0  0  0  0  0  0  0  0  0  0  0  0
   21.4840   81.7090    9.4670 H   0  0  0  0  0  0  0  0  0  0  0  0
   22.7590   81.6130   10.7970 H   0  0  0  0  0  0  0  0  0  0  0  0
   20.5890   80.8790   11.8190 H   0  0  0  0  0  0  0  0  0  0  0  0
   20.3620   79.7380   10.3880 H   0  0  0  0  0  0  0  0  0  0  0  0
  1  2  1  0  0  0  0
  2  7  1  0  0  0  0
  3  2  2  0  0  0  0
  4  3  1  1  0  0  0
  4  5  1  0  0  0  0
  5  8  2  0  0  0  0
  5  6  1  0  0  0  0
  6 28  1  0  0  0  0
  7  6  2  0  0  0  0
  7 29  1  0  0  0  0
  8  9  1  0  0  0  0
 10  9  1  0  0  0  0
 10 31  1  0  0  0  0
 11 33  1  0  0  0  0
 11 10  1  0  0  0  0
 12 11  1  0  0  0  0
 12  8  1  0  0  0  0
 13 12  1  0  0  0  0
 14 13  2  0  0  0  0
 15 16  1  0  0  0  0
 15 14  1  0  0  0  0
 16 18  1  0  0  0  0
 17 16  2  0  0  0  0
 18 13  1  0  0  0  0
 18  4  1  0  0  0  0
 19 34  1  0  0  0  0
 19 15  1  0  0  0  0
 20 21  2  0  0  0  0
 20 19  1  0  0  0  0
 22 20  1  0  0  0  0
 23 37  1  0  0  0  0
 23 22  1  0  0  0  0
 24 25  1  0  0  0  0
 24 23  1  0  0  0  0
 25 41  1  0  0  0  0
 25 26  1  0  0  0  0
 26 22  1  0  0  0  0
 26 42  1  0  0  0  0
 27  3  1  0  0  0  0
 30 10  1  0  0  0  0
 32 11  1  0  0  0  0
 35 19  1  0  0  0  0
 36 23  1  0  0  0  0
 38 24  1  0  0  0  0
 39 24  1  0  0  0  0
 40 25  1  0  0  0  0
 43 26  1  0  0  0  0
M  END
>  <Pose>
1

>  <Score>
-5.98

$$$$
