
 OpenBabel03222202113D

 47 50  0  0  0  0  0  0  0  0999 V2000
   18.1180   84.5600   21.4180 Cl  0  0  0  0  0  0  0  0  0  0  0  0
   18.9680   83.5030   20.2910 C   0  0  0  0  0  0  0  0  0  0  0  0
   18.8640   82.1470   20.3370 C   0  0  0  0  0  0  0  0  0  0  0  0
   19.5490   81.3590   19.4340 C   0  0  0  0  0  0  0  0  0  0  0  0
   20.3450   81.9280   18.4730 C   0  0  0  0  0  0  0  0  0  0  0  0
   20.4480   83.2950   18.4290 C   0  0  0  0  0  0  0  0  0  0  0  0
   19.7630   84.0870   19.3320 C   0  0  0  0  0  0  0  0  0  0  0  0
   21.0780   81.1350   17.5110 N   0  0  0  0  0  0  0  0  0  0  0  0
   21.0010   79.7230   17.5200 C   0  0  0  0  0  0  0  0  0  0  0  0
   21.6490   78.9690   16.6650 C   0  0  0  0  0  0  0  0  0  0  0  0
   22.5070   79.4070   15.6200 N   0  0  0  0  0  0  0  0  0  0  0  0
   23.6530   78.6500   15.1600 C   0  0  0  0  0  0  0  0  0  0  0  0
   23.6200   78.6630   13.6230 C   0  0  0  0  0  0  0  0  0  0  0  0
   22.4220   79.2410   13.1200 N   0  0  0  0  0  0  0  0  0  0  0  0
   22.2300   80.6440   13.4830 C   0  0  0  0  0  0  0  0  0  0  0  0
   22.2540   80.6890   14.9920 C   0  0  0  0  0  0  0  0  0  0  0  0
   21.3980   78.6460   12.3420 C   0  0  0  0  0  0  0  0  0  0  0  0
   20.6450   77.6370   12.9180 N   0  0  0  0  0  0  0  0  0  0  0  0
   19.6660   76.9890   12.2910 C   0  0  0  0  0  0  0  0  0  0  0  0
   19.3840   77.3390   11.0000 C   0  0  0  0  0  0  0  0  0  0  0  0
   20.1060   78.3310   10.3980 C   0  0  0  0  0  0  0  0  0  0  0  0
   21.1430   79.0210   11.0570 C   0  0  0  0  0  0  0  0  0  0  0  0
   21.8580   80.0770   10.4060 C   0  0  0  0  0  0  0  0  0  0  0  0
   22.8080   79.9340    9.6390 O   0  0  0  0  0  0  0  0  0  0  0  0
   21.4550   81.4180   10.6510 N   0  0  0  0  0  0  0  0  0  0  0  0
   20.1670   79.1020   18.5240 N   0  0  0  0  0  0  0  0  0  0  0  0
   19.4620   79.9060   19.4540 C   0  0  0  0  0  0  0  0  0  0  0  0
   18.7190   79.3790   20.3510 O   0  0  0  0  0  0  0  0  0  0  0  0
   18.2560   81.6670   21.0700 H   0  0  0  0  0  0  0  0  0  0  0  0
   21.0810   83.7280   17.6640 H   0  0  0  0  0  0  0  0  0  0  0  0
   19.8470   85.1520   19.2920 H   0  0  0  0  0  0  0  0  0  0  0  0
   21.6630   81.6200   16.8080 H   0  0  0  0  0  0  0  0  0  0  0  0
   21.5100   77.8810   16.7730 H   0  0  0  0  0  0  0  0  0  0  0  0
   23.6690   77.6110   15.4850 H   0  0  0  0  0  0  0  0  0  0  0  0
   24.5840   79.1680   15.5360 H   0  0  0  0  0  0  0  0  0  0  0  0
   23.7230   77.6310   13.3090 H   0  0  0  0  0  0  0  0  0  0  0  0
   24.4980   79.3120   13.3760 H   0  0  0  0  0  0  0  0  0  0  0  0
   21.2730   81.0470   13.1450 H   0  0  0  0  0  0  0  0  0  0  0  0
   23.0550   81.2750   13.0930 H   0  0  0  0  0  0  0  0  0  0  0  0
   23.0650   81.3640   15.3620 H   0  0  0  0  0  0  0  0  0  0  0  0
   21.2990   81.1150   15.3830 H   0  0  0  0  0  0  0  0  0  0  0  0
   19.1180   76.2030   12.8160 H   0  0  0  0  0  0  0  0  0  0  0  0
   18.6040   76.8340   10.4740 H   0  0  0  0  0  0  0  0  0  0  0  0
   19.9180   78.6490    9.3590 H   0  0  0  0  0  0  0  0  0  0  0  0
   21.3290   81.7690   11.6270 H   0  0  0  0  0  0  0  0  0  0  0  0
   21.2660   82.1120    9.8940 H   0  0  0  0  0  0  0  0  0  0  0  0
   20.0870   78.0670   18.5610 H   0  0  0  0  0  0  0  0  0  0  0  0
  2  3  1  0  0  0  0
  2  1  1  0  0  0  0
  3 29  1  0  0  0  0
  4 27  1  0  0  0  0
  4  3  2  0  0  0  0
  5  4  1  0  0  0  0
  6  5  2  0  0  0  0
  6  7  1  0  0  0  0
  7  2  2  0  0  0  0
  8  9  1  0  0  0  0
  8  5  1  0  0  0  0
  9 26  1  0  0  0  0
 10 33  1  0  0  0  0
 10  9  2  0  0  0  0
 11 10  1  0  0  0  0
 12 34  1  0  0  0  0
 12 35  1  0  0  0  0
 12 11  1  0  0  0  0
 13 12  1  0  0  0  0
 14 15  1  0  0  0  0
 14 13  1  0  0  0  0
 15 16  1  0  0  0  0
 16 40  1  0  0  0  0
 16 41  1  0  0  0  0
 16 11  1  0  0  0  0
 17 18  1  0  0  0  0
 17 14  1  0  0  0  0
 19 42  1  0  0  0  0
 19 18  2  0  0  0  0
 20 19  1  0  0  0  0
 21 20  2  0  0  0  0
 21 22  1  0  0  0  0
 22 17  2  0  0  0  0
 23 25  1  0  0  0  0
 23 22  1  0  0  0  0
 24 23  2  0  0  0  0
 25 45  1  0  0  0  0
 26 47  1  0  0  0  0
 26 27  1  0  0  0  0
 27 28  2  0  0  0  0
 30  6  1  0  0  0  0
 31  7  1  0  0  0  0
 32  8  1  0  0  0  0
 36 13  1  0  0  0  0
 37 13  1  0  0  0  0
 38 15  1  0  0  0  0
 39 15  1  0  0  0  0
 43 20  1  0  0  0  0
 44 21  1  0  0  0  0
 46 25  1  0  0  0  0
M  END
>  <Pose>
1

>  <Score>
-6.02

$$$$
