
 OpenBabel03222202113D

 58 61  0  0  0  0  0  0  0  0999 V2000
   19.7570   77.2760   19.1330 Cl  0  0  0  0  0  0  0  0  0  0  0  0
   20.4760   78.4610   18.0670 C   0  0  0  0  0  0  0  0  0  0  0  0
   20.9390   78.1290   16.7970 C   0  0  0  0  0  0  0  0  0  0  0  0
   21.5050   79.0620   15.9620 C   0  0  0  0  0  0  0  0  0  0  0  0
   21.6130   80.3600   16.4020 C   0  0  0  0  0  0  0  0  0  0  0  0
   21.1450   80.6900   17.6810 C   0  0  0  0  0  0  0  0  0  0  0  0
   20.5790   79.7560   18.5180 C   0  0  0  0  0  0  0  0  0  0  0  0
   20.1130   80.0970   19.8010 O   0  0  0  0  0  0  0  0  0  0  0  0
   19.9310   81.4350   20.1960 C   0  0  0  0  0  0  0  0  0  0  0  0
   22.1500   81.2610   15.6160 O   0  0  0  0  0  0  0  0  0  0  0  0
   22.5970   80.9800   14.4160 C   0  0  0  0  0  0  0  0  0  0  0  0
   23.1140   81.8850   13.6790 O   0  0  0  0  0  0  0  0  0  0  0  0
   22.5380   79.6990   13.8710 C   0  0  0  0  0  0  0  0  0  0  0  0
   21.9740   78.7410   14.6840 C   0  0  0  0  0  0  0  0  0  0  0  0
   21.8520   77.3620   14.2240 C   0  0  0  0  0  0  0  0  0  0  0  0
   23.0580   79.4480   12.5080 C   0  0  0  0  0  0  0  0  0  0  0  0
   22.1660   80.0320   11.4690 C   0  0  0  0  0  0  0  0  0  0  0  0
   22.6510   80.9600   10.7340 O   0  0  0  0  0  0  0  0  0  0  0  0
   20.8560   79.6500   11.2410 N   0  0  0  0  0  0  0  0  0  0  0  0
   20.3880   78.3090   11.4070 C   0  0  0  0  0  0  0  0  0  0  0  0
   19.8400   77.8330   10.0600 C   0  0  0  0  0  0  0  0  0  0  0  0
   18.8440   78.7430    9.6050 N   0  0  0  0  0  0  0  0  0  0  0  0
   18.5800   79.9180   10.4630 C   0  0  0  0  0  0  0  0  0  0  0  0
   19.8740   80.6190   10.8110 C   0  0  0  0  0  0  0  0  0  0  0  0
   18.1010   78.6200    8.4120 C   0  0  0  0  0  0  0  0  0  0  0  0
   17.5460   79.7610    8.0160 O   0  0  0  0  0  0  0  0  0  0  0  0
   17.8400   77.5000    7.5580 C   0  0  0  0  0  0  0  0  0  0  0  0
   18.7150   76.3860    7.5870 C   0  0  0  0  0  0  0  0  0  0  0  0
   18.5030   75.2980    6.7830 C   0  0  0  0  0  0  0  0  0  0  0  0
   19.2960   74.3210    6.8270 O   0  0  0  0  0  0  0  0  0  0  0  0
   17.4730   75.2180    5.9310 N   0  0  0  0  0  0  0  0  0  0  0  0
   16.6490   76.2660    5.9030 C   0  0  0  0  0  0  0  0  0  0  0  0
   15.6530   76.2400    5.1090 O   0  0  0  0  0  0  0  0  0  0  0  0
   16.8330   77.3770    6.7000 N   0  0  0  0  0  0  0  0  0  0  0  0
   17.2670   74.0620    5.0890 C   0  0  0  0  0  0  0  0  0  0  0  0
   20.8610   77.1140   16.4360 H   0  0  0  0  0  0  0  0  0  0  0  0
   21.2390   81.7150   18.0090 H   0  0  0  0  0  0  0  0  0  0  0  0
   19.4920   82.0710   19.4050 H   0  0  0  0  0  0  0  0  0  0  0  0
   19.3600   81.4390   21.1400 H   0  0  0  0  0  0  0  0  0  0  0  0
   20.9670   81.8540   20.3590 H   0  0  0  0  0  0  0  0  0  0  0  0
   22.3840   76.7240   14.9920 H   0  0  0  0  0  0  0  0  0  0  0  0
   22.3220   77.1450   13.2750 H   0  0  0  0  0  0  0  0  0  0  0  0
   20.8000   77.0020   14.2650 H   0  0  0  0  0  0  0  0  0  0  0  0
   23.4090   78.4440   12.3060 H   0  0  0  0  0  0  0  0  0  0  0  0
   23.9930   80.0920   12.4460 H   0  0  0  0  0  0  0  0  0  0  0  0
   19.5410   78.2340   12.1240 H   0  0  0  0  0  0  0  0  0  0  0  0
   21.1630   77.6140   11.7870 H   0  0  0  0  0  0  0  0  0  0  0  0
   20.6750   77.8270    9.3160 H   0  0  0  0  0  0  0  0  0  0  0  0
   19.4950   76.7820   10.1800 H   0  0  0  0  0  0  0  0  0  0  0  0
   17.8490   80.5460    9.9480 H   0  0  0  0  0  0  0  0  0  0  0  0
   18.1550   79.5210   11.3950 H   0  0  0  0  0  0  0  0  0  0  0  0
   20.2480   81.1070    9.8950 H   0  0  0  0  0  0  0  0  0  0  0  0
   19.7450   81.3850   11.5880 H   0  0  0  0  0  0  0  0  0  0  0  0
   19.5480   76.4480    8.2740 H   0  0  0  0  0  0  0  0  0  0  0  0
   16.1320   78.1380    6.6050 H   0  0  0  0  0  0  0  0  0  0  0  0
   16.4980   74.3190    4.3290 H   0  0  0  0  0  0  0  0  0  0  0  0
   16.8200   73.2120    5.6770 H   0  0  0  0  0  0  0  0  0  0  0  0
   18.1920   73.7180    4.5900 H   0  0  0  0  0  0  0  0  0  0  0  0
  2  7  1  0  0  0  0
  2  1  1  0  0  0  0
  3  2  2  0  0  0  0
  4  5  2  0  0  0  0
  4  3  1  0  0  0  0
  5  6  1  0  0  0  0
  6 37  1  0  0  0  0
  6  7  2  0  0  0  0
  7  8  1  0  0  0  0
  8  9  1  0  0  0  0
  9 40  1  0  0  0  0
  9 39  1  0  0  0  0
 10  5  1  0  0  0  0
 11 10  1  0  0  0  0
 12 11  2  0  0  0  0
 13 11  1  0  0  0  0
 13 14  2  0  0  0  0
 14  4  1  0  0  0  0
 15 43  1  0  0  0  0
 15 14  1  0  0  0  0
 15 41  1  0  0  0  0
 16 13  1  0  0  0  0
 17 16  1  0  0  0  0
 18 17  2  0  0  0  0
 19 20  1  0  0  0  0
 19 17  1  0  0  0  0
 20 47  1  0  0  0  0
 20 46  1  0  0  0  0
 21 49  1  0  0  0  0
 21 20  1  0  0  0  0
 22 21  1  0  0  0  0
 22 23  1  0  0  0  0
 23 24  1  0  0  0  0
 23 51  1  0  0  0  0
 24 19  1  0  0  0  0
 24 53  1  0  0  0  0
 25 22  1  0  0  0  0
 26 25  2  0  0  0  0
 27 28  2  0  0  0  0
 27 25  1  0  0  0  0
 28 54  1  0  0  0  0
 29 30  2  0  0  0  0
 29 28  1  0  0  0  0
 31 29  1  0  0  0  0
 32 31  1  0  0  0  0
 32 34  1  0  0  0  0
 33 32  2  0  0  0  0
 34 27  1  0  0  0  0
 35 57  1  0  0  0  0
 35 31  1  0  0  0  0
 36  3  1  0  0  0  0
 38  9  1  0  0  0  0
 42 15  1  0  0  0  0
 44 16  1  0  0  0  0
 45 16  1  0  0  0  0
 48 21  1  0  0  0  0
 50 23  1  0  0  0  0
 52 24  1  0  0  0  0
 55 34  1  0  0  0  0
 56 35  1  0  0  0  0
 58 35  1  0  0  0  0
M  END
>  <Pose>
1

>  <Score>
-7.80

$$$$
