
 OpenBabel03222202113D

 49 52  0  0  1  0  0  0  0  0999 V2000
   17.3830   84.7890   21.8680 Cl  0  0  0  0  0  0  0  0  0  0  0  0
   18.7620   83.7320   21.6430 C   0  0  0  0  0  0  0  0  0  0  0  0
   19.5460   83.3780   22.7150 C   0  0  0  0  0  0  0  0  0  0  0  0
   20.6070   82.5480   22.4520 C   0  0  0  0  0  0  0  0  0  0  0  0
   20.9070   82.0660   21.1760 C   0  0  0  0  0  0  0  0  0  0  0  0
   20.1310   82.4130   20.1010 C   0  0  0  0  0  0  0  0  0  0  0  0
   19.0470   83.2650   20.3850 C   0  0  0  0  0  0  0  0  0  0  0  0
   20.3240   81.9800   18.7710 N   0  0  0  0  0  0  0  0  0  0  0  0
   20.0240   80.6820   18.3260 C   0  0  0  0  0  0  0  0  0  0  0  0
   18.9100   80.3650   17.8810 O   0  0  0  0  0  0  0  0  0  0  0  0
   21.0560   79.5900   18.3630 C   0  0  0  0  0  0  0  0  0  0  0  0
   20.6730   78.4500   17.5920 N   0  0  0  0  0  0  0  0  0  0  0  0
   20.0890   77.3480   18.1130 C   0  0  0  0  0  0  0  0  0  0  0  0
   19.7540   76.3100   17.3180 N   0  0  0  0  0  0  0  0  0  0  0  0
   19.9750   76.3060   15.9980 C   0  0  0  0  0  0  0  0  0  0  0  0
   19.6470   75.2780   15.1980 N   0  0  0  0  0  0  0  0  0  0  0  0
   19.8570   75.2480   13.8710 C   0  0  0  0  0  0  0  0  0  0  0  0
   20.4450   76.3480   13.3270 N   0  0  0  0  0  0  0  0  0  0  0  0
   20.7900   77.3970   14.0900 C   0  0  0  0  0  0  0  0  0  0  0  0
   20.5690   77.4170   15.4510 C   0  0  1  0  0  0  0  0  0  0  0  0
   20.9160   78.4860   16.2520 C   0  0  0  0  0  0  0  0  0  0  0  0
   21.4550   79.4730   15.6940 O   0  0  0  0  0  0  0  0  0  0  0  0
   19.4950   74.1450   13.0630 N   0  0  0  0  0  0  0  0  0  0  0  0
   19.9410   72.8280   13.4540 C   0  0  0  0  0  0  0  0  0  0  0  0
   18.8140   71.8290   13.1970 C   0  0  0  0  0  0  0  0  0  0  0  0
   18.2830   71.9700   11.9170 O   0  0  0  0  0  0  0  0  0  0  0  0
   17.6150   73.1950   11.8950 C   0  0  0  0  0  0  0  0  0  0  0  0
   18.7000   74.2710   11.8630 C   0  0  0  0  0  0  0  0  0  0  0  0
   19.2760   83.8420   24.0100 O   0  0  0  0  0  0  0  0  0  0  0  0
   19.3350   85.2230   24.2870 C   0  0  0  0  0  0  0  0  0  0  0  0
   21.2470   82.2530   23.2940 H   0  0  0  0  0  0  0  0  0  0  0  0
   21.7520   81.4370   21.0710 H   0  0  0  0  0  0  0  0  0  0  0  0
   18.4320   83.5360   19.5200 H   0  0  0  0  0  0  0  0  0  0  0  0
   20.7250   82.6800   18.0610 H   0  0  0  0  0  0  0  0  0  0  0  0
   22.0340   79.9380   18.0110 H   0  0  0  0  0  0  0  0  0  0  0  0
   21.1690   79.2730   19.4180 H   0  0  0  0  0  0  0  0  0  0  0  0
   19.9110   77.3540   19.1800 H   0  0  0  0  0  0  0  0  0  0  0  0
   21.2640   78.2900   13.6680 H   0  0  0  0  0  0  0  0  0  0  0  0
   20.8320   72.5010   12.8740 H   0  0  0  0  0  0  0  0  0  0  0  0
   20.1170   72.8350   14.5460 H   0  0  0  0  0  0  0  0  0  0  0  0
   19.2390   70.8090   13.2600 H   0  0  0  0  0  0  0  0  0  0  0  0
   17.9880   72.0010   13.9180 H   0  0  0  0  0  0  0  0  0  0  0  0
   17.0370   73.2950   12.8250 H   0  0  0  0  0  0  0  0  0  0  0  0
   16.9450   73.3130   11.0390 H   0  0  0  0  0  0  0  0  0  0  0  0
   19.3050   74.1660   10.9390 H   0  0  0  0  0  0  0  0  0  0  0  0
   18.1720   75.2460   11.9180 H   0  0  0  0  0  0  0  0  0  0  0  0
   18.7210   85.7450   23.5180 H   0  0  0  0  0  0  0  0  0  0  0  0
   20.3520   85.6310   24.2240 H   0  0  0  0  0  0  0  0  0  0  0  0
   18.8380   85.4300   25.2560 H   0  0  0  0  0  0  0  0  0  0  0  0
  2  1  1  0  0  0  0
  2  3  1  0  0  0  0
  3 29  1  0  0  0  0
  4  3  2  0  0  0  0
  4 31  1  0  0  0  0
  5  4  1  0  0  0  0
  6  7  1  0  0  0  0
  6  5  2  0  0  0  0
  7  2  2  0  0  0  0
  8  6  1  0  0  0  0
  9 11  1  0  0  0  0
  9  8  1  0  0  0  0
 10  9  2  0  0  0  0
 11 36  1  0  0  0  0
 12 13  1  0  0  0  0
 12 11  1  0  0  0  0
 13 37  1  0  0  0  0
 14 13  1  0  0  0  0
 15 14  2  0  0  0  0
 16 15  1  0  0  0  0
 17 16  2  0  0  0  0
 18 17  1  0  0  0  0
 18 19  2  0  0  0  0
 20 19  1  6  0  0  0
 20 15  1  0  0  0  0
 20 21  1  0  0  0  0
 21 12  1  0  0  0  0
 22 21  2  0  0  0  0
 23 24  1  0  0  0  0
 23 17  1  0  0  0  0
 24 40  1  0  0  0  0
 25 41  1  0  0  0  0
 25 24  1  0  0  0  0
 25 42  1  0  0  0  0
 26 25  1  0  0  0  0
 27 26  1  0  0  0  0
 27 43  1  0  0  0  0
 28 27  1  0  0  0  0
 28 46  1  0  0  0  0
 28 23  1  0  0  0  0
 29 30  1  0  0  0  0
 30 49  1  0  0  0  0
 32  5  1  0  0  0  0
 33  7  1  0  0  0  0
 34  8  1  0  0  0  0
 35 11  1  0  0  0  0
 38 19  1  0  0  0  0
 39 24  1  0  0  0  0
 44 27  1  0  0  0  0
 45 28  1  0  0  0  0
 47 30  1  0  0  0  0
 48 30  1  0  0  0  0
M  END
>  <Pose>
1

>  <Score>
-7.61

$$$$
