
 OpenBabel03222202113D

 38 41  0  0  0  0  0  0  0  0999 V2000
   24.1020   78.5660   16.6160 Cl  0  0  0  0  0  0  0  0  0  0  0  0
   22.4910   78.0510   17.0950 C   0  0  0  0  0  0  0  0  0  0  0  0
   21.6670   77.4020   16.1970 C   0  0  0  0  0  0  0  0  0  0  0  0
   20.4150   77.0010   16.5680 C   0  0  0  0  0  0  0  0  0  0  0  0
   19.9990   77.2610   17.8550 C   0  0  0  0  0  0  0  0  0  0  0  0
   20.8050   77.9080   18.7670 C   0  0  0  0  0  0  0  0  0  0  0  0
   22.0680   78.3080   18.3810 C   0  0  0  0  0  0  0  0  0  0  0  0
   19.4730   76.3000   15.6630 C   0  0  0  0  0  0  0  0  0  0  0  0
   20.2000   75.9770   14.4600 N   0  0  0  0  0  0  0  0  0  0  0  0
   21.0150   77.0250   13.8920 C   0  0  0  0  0  0  0  0  0  0  0  0
   22.2190   77.1730   14.8300 C   0  0  0  0  0  0  0  0  0  0  0  0
   20.1370   74.7040   13.8450 C   0  0  0  0  0  0  0  0  0  0  0  0
   19.9620   73.6790   14.5550 O   0  0  0  0  0  0  0  0  0  0  0  0
   20.2680   74.4990   12.3840 C   0  0  0  0  0  0  0  0  0  0  0  0
   19.0900   74.7970   11.7010 O   0  0  0  0  0  0  0  0  0  0  0  0
   19.0420   75.4590   10.4810 C   0  0  0  0  0  0  0  0  0  0  0  0
   18.6630   74.7810    9.3800 N   0  0  0  0  0  0  0  0  0  0  0  0
   18.5970   75.3570    8.1830 N   0  0  0  0  0  0  0  0  0  0  0  0
   18.9020   76.6470    7.9910 C   0  0  0  0  0  0  0  0  0  0  0  0
   18.7450   76.9490    6.6870 N   0  0  0  0  0  0  0  0  0  0  0  0
   18.3480   75.8520    6.0900 N   0  0  0  0  0  0  0  0  0  0  0  0
   18.2480   74.8550    6.9850 C   0  0  0  0  0  0  0  0  0  0  0  0
   19.2980   77.3790    9.1050 C   0  0  0  0  0  0  0  0  0  0  0  0
   19.3660   76.7850   10.3430 C   0  0  0  0  0  0  0  0  0  0  0  0
   19.0130   76.9640   18.2030 H   0  0  0  0  0  0  0  0  0  0  0  0
   20.4520   78.1040   19.7880 H   0  0  0  0  0  0  0  0  0  0  0  0
   22.7440   78.8180   19.0530 H   0  0  0  0  0  0  0  0  0  0  0  0
   18.6130   76.9320   15.3620 H   0  0  0  0  0  0  0  0  0  0  0  0
   19.0670   75.3690   16.1070 H   0  0  0  0  0  0  0  0  0  0  0  0
   21.3510   76.8070   12.8610 H   0  0  0  0  0  0  0  0  0  0  0  0
   20.4900   78.0000   13.8890 H   0  0  0  0  0  0  0  0  0  0  0  0
   22.8600   78.0100   14.5540 H   0  0  0  0  0  0  0  0  0  0  0  0
   22.7850   76.2280   14.8650 H   0  0  0  0  0  0  0  0  0  0  0  0
   20.5680   73.4660   12.1160 H   0  0  0  0  0  0  0  0  0  0  0  0
   21.0910   75.1640   12.0240 H   0  0  0  0  0  0  0  0  0  0  0  0
   17.9430   73.8150    6.8130 H   0  0  0  0  0  0  0  0  0  0  0  0
   19.5400   78.4040    8.9580 H   0  0  0  0  0  0  0  0  0  0  0  0
   19.6680   77.3220   11.2310 H   0  0  0  0  0  0  0  0  0  0  0  0
  1  2  1  0  0  0  0
  2  7  1  0  0  0  0
  3  4  1  0  0  0  0
  3  2  2  0  0  0  0
  4  5  2  0  0  0  0
  5 25  1  0  0  0  0
  5  6  1  0  0  0  0
  6 26  1  0  0  0  0
  7  6  2  0  0  0  0
  7 27  1  0  0  0  0
  8 29  1  0  0  0  0
  8  4  1  0  0  0  0
  9  8  1  0  0  0  0
 10  9  1  0  0  0  0
 10 11  1  0  0  0  0
 11 33  1  0  0  0  0
 11  3  1  0  0  0  0
 12  9  1  0  0  0  0
 12 13  2  0  0  0  0
 14 12  1  0  0  0  0
 15 14  1  0  0  0  0
 16 15  1  0  0  0  0
 17 16  2  0  0  0  0
 18 17  1  0  0  0  0
 19 18  1  0  0  0  0
 19 23  1  0  0  0  0
 20 19  2  0  0  0  0
 21 20  1  0  0  0  0
 21 22  2  0  0  0  0
 22 18  1  0  0  0  0
 23 24  2  0  0  0  0
 24 16  1  0  0  0  0
 24 38  1  0  0  0  0
 28  8  1  0  0  0  0
 30 10  1  0  0  0  0
 31 10  1  0  0  0  0
 32 11  1  0  0  0  0
 34 14  1  0  0  0  0
 35 14  1  0  0  0  0
 36 22  1  0  0  0  0
 37 23  1  0  0  0  0
M  END
>  <Pose>
1

>  <Score>
-5.75

$$$$
