
 OpenBabel03222202113D

 51 54  0  0  0  0  0  0  0  0999 V2000
   22.9280   80.8050   14.3740 B   0  0  0  0  0  0  0  0  0  0  0  0
   22.4090   79.5630   15.7250 C   0  0  0  0  0  0  0  0  0  0  0  0
   21.5740   78.5280   15.4270 C   0  0  0  0  0  0  0  0  0  0  0  0
   21.1950   77.6160   16.4240 C   0  0  0  0  0  0  0  0  0  0  0  0
   21.6800   77.7920   17.6920 C   0  0  0  0  0  0  0  0  0  0  0  0
   22.5390   78.8610   17.9930 C   0  0  0  0  0  0  0  0  0  0  0  0
   22.8960   79.7390   17.0020 C   0  0  0  0  0  0  0  0  0  0  0  0
   21.3400   76.9260   18.7130 O   0  0  0  0  0  0  0  0  0  0  0  0
   20.3030   76.5180   16.0870 C   0  0  0  0  0  0  0  0  0  0  0  0
   19.9270   76.3520   14.8370 N   0  0  0  0  0  0  0  0  0  0  0  0
   19.0710   75.2870   14.5560 N   0  0  0  0  0  0  0  0  0  0  0  0
   18.8240   74.8740   13.2200 C   0  0  0  0  0  0  0  0  0  0  0  0
   19.2510   75.5890   12.1680 N   0  0  0  0  0  4  0  0  0  0  0  0
   19.0400   75.2350   10.8740 C   0  0  0  0  0  0  0  0  0  0  0  0
   18.3480   74.0770   10.7010 N   0  0  0  0  0  0  0  0  0  0  0  0
   17.8960   73.3200   11.7130 C   0  0  0  0  0  0  0  0  0  0  0  0
   18.1420   73.7340   12.9490 N   0  0  0  0  0  0  0  0  0  0  0  0
   17.1820   72.1250   11.4590 N   0  0  0  0  0  0  0  0  0  0  0  0
   16.0830   72.0430   10.5190 C   0  0  0  0  0  0  0  0  0  0  0  0
   16.0200   70.6520    9.9260 C   0  0  0  0  0  0  0  0  0  0  0  0
   15.9100   69.6580   10.8620 O   0  0  0  0  0  0  0  0  0  0  0  0
   16.2140   70.0680   12.1530 C   0  0  0  0  0  0  0  0  0  0  0  0
   17.5120   70.8710   12.1430 C   0  0  0  0  0  0  0  0  0  0  0  0
   19.5020   76.0090    9.7930 N   0  0  0  0  0  0  0  0  0  0  0  0
   19.7200   75.4120    8.5090 C   0  0  0  0  0  0  0  0  0  0  0  0
   18.9390   76.2320    7.4960 C   0  0  0  0  0  0  0  0  0  0  0  0
   19.4220   77.5470    7.5780 O   0  0  0  0  0  0  0  0  0  0  0  0
   19.0500   78.1210    8.7940 C   0  0  0  0  0  0  0  0  0  0  0  0
   19.7650   77.4080    9.9480 C   0  0  0  0  0  0  0  0  0  0  0  0
   21.1750   78.3670   14.4300 H   0  0  0  0  0  0  0  0  0  0  0  0
   22.9050   78.9700   19.0050 H   0  0  0  0  0  0  0  0  0  0  0  0
   23.5640   80.5810   17.2050 H   0  0  0  0  0  0  0  0  0  0  0  0
   21.9930   76.3750   19.2320 H   0  0  0  0  0  0  0  0  0  0  0  0
   19.9400   75.8330   16.8290 H   0  0  0  0  0  0  0  0  0  0  0  0
   18.6210   74.8060   15.3600 H   0  0  0  0  0  0  0  0  0  0  0  0
   16.2440   72.7580    9.6920 H   0  0  0  0  0  0  0  0  0  0  0  0
   15.1450   72.2170   11.0700 H   0  0  0  0  0  0  0  0  0  0  0  0
   16.8500   70.4970    9.2050 H   0  0  0  0  0  0  0  0  0  0  0  0
   15.0770   70.6330    9.3050 H   0  0  0  0  0  0  0  0  0  0  0  0
   16.2700   69.2050   12.8210 H   0  0  0  0  0  0  0  0  0  0  0  0
   15.4080   70.7610   12.4750 H   0  0  0  0  0  0  0  0  0  0  0  0
   17.9110   71.0340   13.1400 H   0  0  0  0  0  0  0  0  0  0  0  0
   18.2030   70.3300   11.4590 H   0  0  0  0  0  0  0  0  0  0  0  0
   20.7900   75.5070    8.2360 H   0  0  0  0  0  0  0  0  0  0  0  0
   19.3800   74.3550    8.5140 H   0  0  0  0  0  0  0  0  0  0  0  0
   17.8540   76.2460    7.7180 H   0  0  0  0  0  0  0  0  0  0  0  0
   19.1040   75.8630    6.4640 H   0  0  0  0  0  0  0  0  0  0  0  0
   17.9670   77.9150    8.9190 H   0  0  0  0  0  0  0  0  0  0  0  0
   19.2880   79.1910    8.7810 H   0  0  0  0  0  0  0  0  0  0  0  0
   20.8430   77.6570    9.9530 H   0  0  0  0  0  0  0  0  0  0  0  0
   19.3010   77.7700   10.8920 H   0  0  0  0  0  0  0  0  0  0  0  0
  1  2  1  0  0  0  0
  2  7  1  0  0  0  0
  3  2  2  0  0  0  0
  3  4  1  0  0  0  0
  4  5  2  0  0  0  0
  5  6  1  0  0  0  0
  5  8  1  0  0  0  0
  6 31  1  0  0  0  0
  7 32  1  0  0  0  0
  7  6  2  0  0  0  0
  8 33  1  0  0  0  0
  9  4  1  0  0  0  0
  9 34  1  0  0  0  0
 10  9  2  0  0  0  0
 11 10  1  0  0  0  0
 11 35  1  0  0  0  0
 12 11  1  0  0  0  0
 13 12  2  0  0  0  0
 14 13  2  0  0  0  0
 15 14  1  0  0  0  0
 15 16  2  0  0  0  0
 16 17  1  0  0  0  0
 17 12  1  0  0  0  0
 18 16  1  0  0  0  0
 18 23  1  0  0  0  0
 19 37  1  0  0  0  0
 19 18  1  0  0  0  0
 20 19  1  0  0  0  0
 20 21  1  0  0  0  0
 21 22  1  0  0  0  0
 22 41  1  0  0  0  0
 22 40  1  0  0  0  0
 23 22  1  0  0  0  0
 23 42  1  0  0  0  0
 24 29  1  0  0  0  0
 24 14  1  0  0  0  0
 25 45  1  0  0  0  0
 25 24  1  0  0  0  0
 26 27  1  0  0  0  0
 26 46  1  0  0  0  0
 26 25  1  0  0  0  0
 27 28  1  0  0  0  0
 28 48  1  0  0  0  0
 28 29  1  0  0  0  0
 29 50  1  0  0  0  0
 29 51  1  0  0  0  0
 30  3  1  0  0  0  0
 36 19  1  0  0  0  0
 38 20  1  0  0  0  0
 39 20  1  0  0  0  0
 43 23  1  0  0  0  0
 44 25  1  0  0  0  0
 47 26  1  0  0  0  0
 49 28  1  0  0  0  0
M  END
>  <Pose>
1

>  <Score>
-7.50

$$$$
