
 OpenBabel03222202113D

 46 49  0  0  0  0  0  0  0  0999 V2000
   15.5830   78.1190    6.2720 Cl  0  0  0  0  0  0  0  0  0  0  0  0
   16.6910   76.8160    6.6500 C   0  0  0  0  0  0  0  0  0  0  0  0
   17.6020   76.8830    7.6840 C   0  0  0  0  0  0  0  0  0  0  0  0
   18.4740   75.8620    7.9850 C   0  0  0  0  0  0  0  0  0  0  0  0
   18.4570   74.7110    7.2320 C   0  0  0  0  0  0  0  0  0  0  0  0
   17.5500   74.6260    6.1900 C   0  0  0  0  0  0  0  0  0  0  0  0
   16.6810   75.6570    5.8990 C   0  0  0  0  0  0  0  0  0  0  0  0
   19.4340   75.9730    9.1040 C   0  0  0  0  0  0  0  0  0  0  0  0
   19.9330   77.3170    9.2830 N   0  0  0  0  0  0  0  0  0  0  0  0
   20.3460   78.2520    8.2750 C   0  0  0  0  0  0  0  0  0  0  0  0
   20.3320   78.0210    7.0200 O   0  0  0  0  0  0  0  0  0  0  0  0
   20.7650   79.4600    8.9050 N   0  0  0  0  0  0  0  0  0  0  0  0
   21.0850   79.0970   10.2670 C   0  0  0  0  0  0  0  0  0  0  0  0
   22.4630   78.4640   10.2440 C   0  0  0  0  0  0  0  0  0  0  0  0
   22.6010   77.7020   11.5570 C   0  0  0  0  0  0  0  0  0  0  0  0
   22.2000   78.5480   12.6660 N   0  0  0  0  0  0  0  0  0  0  0  0
   21.8860   79.9320   12.4300 C   0  0  0  0  0  0  0  0  0  0  0  0
   21.0320   80.2010   11.2350 C   0  0  0  0  0  0  0  0  0  0  0  0
   22.1250   78.0050   13.9750 C   0  0  0  0  0  0  0  0  0  0  0  0
   21.0670   77.4020   14.3430 O   0  0  0  0  0  0  0  0  0  0  0  0
   23.2030   78.0980   14.9450 C   0  0  0  0  0  0  0  0  0  0  0  0
   23.6650   79.2760   15.4080 N   0  0  0  0  0  0  0  0  0  0  0  0
   24.6660   79.2880   16.3050 C   0  0  0  0  0  0  0  0  0  0  0  0
   25.2490   78.1320   16.7790 C   0  0  0  0  0  0  0  0  0  0  0  0
   24.7910   76.9570   16.3200 N   0  0  0  0  0  0  0  0  0  0  0  0
   23.7780   76.9400   15.4130 C   0  0  0  0  0  0  0  0  0  0  0  0
   20.1180   78.0000   10.5200 C   0  0  0  0  0  0  0  0  0  0  0  0
   19.5310   77.6700   11.5860 O   0  0  0  0  0  0  0  0  0  0  0  0
   17.5980   77.7970    8.2650 H   0  0  0  0  0  0  0  0  0  0  0  0
   19.1230   73.8640    7.4180 H   0  0  0  0  0  0  0  0  0  0  0  0
   17.5440   73.7080    5.5970 H   0  0  0  0  0  0  0  0  0  0  0  0
   15.9720   75.5900    5.0830 H   0  0  0  0  0  0  0  0  0  0  0  0
   18.9530   75.5630   10.0030 H   0  0  0  0  0  0  0  0  0  0  0  0
   20.3310   75.3170    8.9120 H   0  0  0  0  0  0  0  0  0  0  0  0
   20.8300   80.4030    8.4790 H   0  0  0  0  0  0  0  0  0  0  0  0
   22.4650   77.7570    9.3880 H   0  0  0  0  0  0  0  0  0  0  0  0
   23.2490   79.2370   10.1410 H   0  0  0  0  0  0  0  0  0  0  0  0
   23.6190   77.3620   11.7210 H   0  0  0  0  0  0  0  0  0  0  0  0
   21.9400   76.8180   11.4630 H   0  0  0  0  0  0  0  0  0  0  0  0
   22.8570   80.4740   12.4000 H   0  0  0  0  0  0  0  0  0  0  0  0
   21.3370   80.3710   13.3130 H   0  0  0  0  0  0  0  0  0  0  0  0
   21.4840   81.1080   10.7310 H   0  0  0  0  0  0  0  0  0  0  0  0
   20.0070   80.5390   11.5010 H   0  0  0  0  0  0  0  0  0  0  0  0
   25.0490   80.2380   16.6870 H   0  0  0  0  0  0  0  0  0  0  0  0
   26.0490   78.2050   17.4990 H   0  0  0  0  0  0  0  0  0  0  0  0
   23.4320   75.9550   15.0620 H   0  0  0  0  0  0  0  0  0  0  0  0
  1  2  1  0  0  0  0
  2  3  1  0  0  0  0
  3  4  2  0  0  0  0
  3 29  1  0  0  0  0
  4  8  1  0  0  0  0
  5 30  1  0  0  0  0
  5  4  1  0  0  0  0
  6  5  2  0  0  0  0
  7  6  1  0  0  0  0
  7  2  2  0  0  0  0
  8  9  1  0  0  0  0
  8 33  1  0  0  0  0
  9 27  1  0  0  0  0
 10 12  1  0  0  0  0
 10  9  1  0  0  0  0
 11 10  2  0  0  0  0
 12 13  1  0  0  0  0
 13 27  1  0  0  0  0
 13 18  1  0  0  0  0
 14 13  1  0  0  0  0
 14 15  1  0  0  0  0
 15 38  1  0  0  0  0
 15 16  1  0  0  0  0
 16 19  1  0  0  0  0
 17 16  1  0  0  0  0
 17 41  1  0  0  0  0
 18 43  1  0  0  0  0
 18 17  1  0  0  0  0
 19 20  2  0  0  0  0
 19 21  1  0  0  0  0
 21 22  2  0  0  0  0
 21 26  1  0  0  0  0
 22 23  1  0  0  0  0
 23 44  1  0  0  0  0
 23 24  2  0  0  0  0
 24 45  1  0  0  0  0
 25 24  1  0  0  0  0
 26 25  2  0  0  0  0
 27 28  2  0  0  0  0
 31  6  1  0  0  0  0
 32  7  1  0  0  0  0
 34  8  1  0  0  0  0
 35 12  1  0  0  0  0
 36 14  1  0  0  0  0
 37 14  1  0  0  0  0
 39 15  1  0  0  0  0
 40 17  1  0  0  0  0
 42 18  1  0  0  0  0
 46 26  1  0  0  0  0
M  END
>  <Pose>
1

>  <Score>
-6.80

$$$$
