
 OpenBabel03222202113D

 50 52  0  0  1  0  0  0  0  0999 V2000
   21.9570   81.4450   10.7670 Cl  0  0  0  0  0  0  0  0  0  0  0  0
   22.0490   80.2810   12.0760 C   0  0  0  0  0  0  0  0  0  0  0  0
   21.5630   78.9880   11.9400 C   0  0  0  0  0  0  0  0  0  0  0  0
   21.6750   78.1230   13.0270 C   0  0  0  0  0  0  0  0  0  0  0  0
   22.2450   78.5130   14.2110 C   0  0  0  0  0  0  0  0  0  0  0  0
   22.7300   79.8010   14.3510 C   0  0  0  0  0  0  0  0  0  0  0  0
   22.6200   80.6590   13.2750 C   0  0  0  0  0  0  0  0  0  0  0  0
   22.3560   77.5590   15.3120 C   0  0  2  0  0  0  0  0  0  0  0  0
   21.2040   76.8530   15.7200 N   0  0  0  0  0  4  0  0  0  0  0  0
   20.5230   77.5570   16.7220 C   0  0  0  0  0  0  0  0  0  0  0  0
   19.5140   77.4420   17.5510 C   0  0  0  0  0  0  0  0  0  0  0  0
   19.1520   78.5200   18.4780 C   0  0  0  0  0  0  0  0  0  0  0  0
   19.6650   79.8690   18.2760 C   0  0  0  0  0  0  0  0  0  0  0  0
   20.6690   80.0190   17.1600 C   0  0  0  0  0  0  0  0  0  0  0  0
   21.2970   78.7820   16.8600 N   0  0  0  0  0  0  0  0  0  0  0  0
   22.6560   78.3170   16.6170 C   0  0  0  0  0  0  0  0  0  0  0  0
   23.5900   79.4470   16.5000 C   0  0  0  0  0  0  0  0  0  0  0  0
   20.5390   76.0830   14.7710 C   0  0  0  0  0  0  0  0  0  0  0  0
   20.6960   74.7090   14.8500 C   0  0  0  0  0  0  0  0  0  0  0  0
   20.1030   73.8390   13.9680 C   0  0  0  0  0  0  0  0  0  0  0  0
   19.2930   74.2880   12.9200 C   0  0  0  0  0  0  0  0  0  0  0  0
   19.1560   75.6530   12.8650 C   0  0  0  0  0  0  0  0  0  0  0  0
   19.7520   76.5160   13.7500 C   0  0  0  0  0  0  0  0  0  0  0  0
   18.6990   73.4030   12.0420 O   0  0  0  0  0  0  0  0  0  0  0  0
   17.7790   72.4560   12.5250 C   0  0  0  0  0  0  0  0  0  0  0  0
   23.4070   76.6870   15.1460 O   0  0  0  0  0  0  0  0  0  0  0  0
   21.1170   78.6770   11.0130 H   0  0  0  0  0  0  0  0  0  0  0  0
   21.2710   77.1350   12.8180 H   0  0  0  0  0  0  0  0  0  0  0  0
   23.1810   80.0740   15.2890 H   0  0  0  0  0  0  0  0  0  0  0  0
   23.0120   81.6540   13.4390 H   0  0  0  0  0  0  0  0  0  0  0  0
   21.6560   76.0400   16.3400 H   0  0  0  0  0  0  0  0  0  0  0  0
   18.9210   76.5030   17.5870 H   0  0  0  0  0  0  0  0  0  0  0  0
   19.3870   78.1550   19.5170 H   0  0  0  0  0  0  0  0  0  0  0  0
   18.0140   78.5470   18.4620 H   0  0  0  0  0  0  0  0  0  0  0  0
   20.1010   80.2600   19.2530 H   0  0  0  0  0  0  0  0  0  0  0  0
   18.8280   80.5770   18.0570 H   0  0  0  0  0  0  0  0  0  0  0  0
   21.4340   80.7410   17.5010 H   0  0  0  0  0  0  0  0  0  0  0  0
   20.2080   80.4920   16.2690 H   0  0  0  0  0  0  0  0  0  0  0  0
   22.9600   77.6360   17.4010 H   0  0  0  0  0  0  0  0  0  0  0  0
   24.5990   79.1000   16.2200 H   0  0  0  0  0  0  0  0  0  0  0  0
   23.2340   80.3490   15.9920 H   0  0  0  0  0  0  0  0  0  0  0  0
   23.7470   79.7840   17.5740 H   0  0  0  0  0  0  0  0  0  0  0  0
   21.2950   74.2240   15.6420 H   0  0  0  0  0  0  0  0  0  0  0  0
   20.2290   72.7560   14.0300 H   0  0  0  0  0  0  0  0  0  0  0  0
   18.5260   76.0440   12.0500 H   0  0  0  0  0  0  0  0  0  0  0  0
   19.5620   77.5440   13.5850 H   0  0  0  0  0  0  0  0  0  0  0  0
   16.7490   72.8930   12.6400 H   0  0  0  0  0  0  0  0  0  0  0  0
   18.0350   72.0090   13.4930 H   0  0  0  0  0  0  0  0  0  0  0  0
   17.6380   71.6090   11.7960 H   0  0  0  0  0  0  0  0  0  0  0  0
   23.1850   75.7620   14.9320 H   0  0  0  0  0  0  0  0  0  0  0  0
  1  2  1  0  0  0  0
  2  7  1  0  0  0  0
  3  2  2  0  0  0  0
  3  4  1  0  0  0  0
  4  5  2  0  0  0  0
  5  6  1  0  0  0  0
  5  8  1  0  0  0  0
  6 29  1  0  0  0  0
  7 30  1  0  0  0  0
  7  6  2  0  0  0  0
  8 26  1  6  0  0  0
  8  9  1  0  0  0  0
  8 16  1  0  0  0  0
  9 31  1  0  0  0  0
  9 10  1  0  0  0  0
 10 15  1  0  0  0  0
 10 11  2  0  0  0  0
 11 32  1  0  0  0  0
 11 12  1  0  0  0  0
 12 33  1  0  0  0  0
 13 12  1  0  0  0  0
 13 35  1  0  0  0  0
 14 37  1  0  0  0  0
 14 13  1  0  0  0  0
 15 14  1  0  0  0  0
 16 15  1  0  0  0  0
 16 39  1  0  0  0  0
 17 42  1  0  0  0  0
 18 19  1  0  0  0  0
 18  9  1  0  0  0  0
 19 43  1  0  0  0  0
 20 44  1  0  0  0  0
 20 19  2  0  0  0  0
 21 20  1  0  0  0  0
 22 21  2  0  0  0  0
 22 23  1  0  0  0  0
 23 18  2  0  0  0  0
 24 25  1  0  0  0  0
 24 21  1  0  0  0  0
 25 47  1  0  0  0  0
 25 48  1  0  0  0  0
 27  3  1  0  0  0  0
 28  4  1  0  0  0  0
 34 12  1  0  0  0  0
 36 13  1  0  0  0  0
 38 14  1  0  0  0  0
 40 17  1  0  0  0  0
 41 17  1  0  0  0  0
 45 22  1  0  0  0  0
 46 23  1  0  0  0  0
 49 25  1  0  0  0  0
 50 26  1  0  0  0  0
M  END
>  <Pose>
1

>  <Score>
-5.26

$$$$
