
 OpenBabel03222202113D

 37 40  0  0  0  0  0  0  0  0999 V2000
   17.3520   74.0910    5.2250 Cl  0  0  0  0  0  0  0  0  0  0  0  0
   17.9730   75.2340    6.4130 C   0  0  0  0  0  0  0  0  0  0  0  0
   18.7340   74.8090    7.4810 C   0  0  0  0  0  0  0  0  0  0  0  0
   19.2220   75.7040    8.4140 C   0  0  0  0  0  0  0  0  0  0  0  0
   18.9730   77.0570    8.3220 C   0  0  0  0  0  0  0  0  0  0  0  0
   18.2100   77.4740    7.2470 C   0  0  0  0  0  0  0  0  0  0  0  0
   17.7180   76.5860    6.3090 C   0  0  0  0  0  0  0  0  0  0  0  0
   19.4810   77.9730    9.2900 N   0  0  0  0  0  0  0  0  0  0  0  0
   20.5690   77.8200   10.0780 C   0  0  0  0  0  0  0  0  0  0  0  0
   21.3070   76.8130   10.0630 O   0  0  0  0  0  0  0  0  0  0  0  0
   20.7490   78.9230   10.8950 C   0  0  0  0  0  0  0  0  0  0  0  0
   19.7490   79.7660   10.5970 C   0  0  0  0  0  0  0  0  0  0  0  0
   19.9350   80.8330   11.3930 N   0  0  0  0  0  0  0  0  0  0  0  0
   21.0040   80.6450   12.1440 N   0  0  0  0  0  0  0  0  0  0  0  0
   21.5190   79.4710   11.8490 N   0  0  0  0  0  0  0  0  0  0  0  0
   22.6900   78.8610   12.4350 C   0  0  0  0  0  0  0  0  0  0  0  0
   22.7280   78.9390   13.9110 C   0  0  0  0  0  0  0  0  0  0  0  0
   22.9360   80.1510   14.5230 C   0  0  0  0  0  0  0  0  0  0  0  0
   22.9710   80.2010   15.8970 C   0  0  0  0  0  0  0  0  0  0  0  0
   22.8020   79.0630   16.6650 C   0  0  0  0  0  0  0  0  0  0  0  0
   22.5930   77.8480   16.0540 C   0  0  0  0  0  0  0  0  0  0  0  0
   22.5610   77.8160   14.6870 C   0  0  0  0  0  0  0  0  0  0  0  0
   18.9830   79.1730    9.6150 C   0  0  0  0  0  0  0  0  0  0  0  0
   17.9560   79.6900    9.0970 O   0  0  0  0  0  0  0  0  0  0  0  0
   18.9220   73.7450    7.5440 H   0  0  0  0  0  0  0  0  0  0  0  0
   19.8200   75.3630    9.2540 H   0  0  0  0  0  0  0  0  0  0  0  0
   18.0040   78.5230    7.1550 H   0  0  0  0  0  0  0  0  0  0  0  0
   17.1130   76.9220    5.4570 H   0  0  0  0  0  0  0  0  0  0  0  0
   19.3470   81.6910   11.4370 H   0  0  0  0  0  0  0  0  0  0  0  0
   21.3910   81.3210   12.8670 H   0  0  0  0  0  0  0  0  0  0  0  0
   22.7180   77.7740   12.1420 H   0  0  0  0  0  0  0  0  0  0  0  0
   23.6320   79.2910   11.9970 H   0  0  0  0  0  0  0  0  0  0  0  0
   23.0750   81.0760   13.9420 H   0  0  0  0  0  0  0  0  0  0  0  0
   23.1380   81.1730   16.3770 H   0  0  0  0  0  0  0  0  0  0  0  0
   22.8280   79.0910   17.7610 H   0  0  0  0  0  0  0  0  0  0  0  0
   22.4580   76.9460   16.6260 H   0  0  0  0  0  0  0  0  0  0  0  0
   22.3940   76.8310   14.2300 H   0  0  0  0  0  0  0  0  0  0  0  0
  1  2  1  0  0  0  0
  2  3  1  0  0  0  0
  3 25  1  0  0  0  0
  3  4  2  0  0  0  0
  4 26  1  0  0  0  0
  5  4  1  0  0  0  0
  5  8  1  0  0  0  0
  6  5  2  0  0  0  0
  7  2  2  0  0  0  0
  7  6  1  0  0  0  0
  8 23  1  0  0  0  0
  8  9  1  0  0  0  0
  9 11  1  0  0  0  0
 10  9  2  0  0  0  0
 11 15  1  0  0  0  0
 12 11  2  0  0  0  0
 12 13  1  0  0  0  0
 13 29  1  0  0  0  0
 13 14  1  0  0  0  0
 14 30  1  0  0  0  0
 15 14  1  0  0  0  0
 15 16  1  0  0  0  0
 16 17  1  0  0  0  0
 17 18  2  0  0  0  0
 17 22  1  0  0  0  0
 18 19  1  0  0  0  0
 19 34  1  0  0  0  0
 19 20  2  0  0  0  0
 20 35  1  0  0  0  0
 21 36  1  0  0  0  0
 21 20  1  0  0  0  0
 22 21  2  0  0  0  0
 23 12  1  0  0  0  0
 24 23  2  0  0  0  0
 27  6  1  0  0  0  0
 28  7  1  0  0  0  0
 31 16  1  0  0  0  0
 32 16  1  0  0  0  0
 33 18  1  0  0  0  0
 37 22  1  0  0  0  0
M  END
>  <Pose>
1

>  <Score>
-6.40

$$$$
