
 OpenBabel03222202113D

 56 59  0  0  1  0  0  0  0  0999 V2000
   20.3040   77.7520    8.0160 S   0  0  0  0  0  0  0  0  0  0  0  0
   20.9790   78.7360    7.1450 O   0  0  0  0  0  0  0  0  0  0  0  0
   21.0530   76.4440    7.9370 O   0  0  0  0  0  0  0  0  0  0  0  0
   20.2090   78.2090    9.6590 N   0  0  0  0  0  0  0  0  0  0  0  0
   21.4070   78.7200   10.2020 C   0  0  0  0  0  0  0  0  0  0  0  0
   21.0720   79.2950   11.5940 C   0  0  0  0  0  0  0  0  0  0  0  0
   20.7790   78.1220   12.3760 N   0  0  0  0  0  0  0  0  0  0  0  0
   19.5480   77.4380   11.9220 C   0  0  0  0  0  0  0  0  0  0  0  0
   19.3770   77.4120   10.4590 C   0  0  0  0  0  0  0  0  0  0  0  0
   21.4760   77.5780   13.4540 C   0  0  0  0  0  0  0  0  0  0  0  0
   20.9750   76.4280   13.8620 O   0  0  0  0  0  0  0  0  0  0  0  0
   22.6230   77.9810   14.2250 C   0  0  0  0  0  0  0  0  0  0  0  0
   22.4170   78.4310   15.5680 N   0  0  0  0  0  0  0  0  0  0  0  0
   23.2640   79.3330   16.2830 C   0  0  0  0  0  0  0  0  0  0  0  0
   24.3340   79.8340   15.7950 O   0  0  0  0  0  0  0  0  0  0  0  0
   22.7060   79.5420   17.5620 N   0  0  0  0  0  0  0  0  0  0  0  0
   21.3190   79.1030   17.5290 C   0  0  1  0  0  0  0  0  0  0  0  0
   20.8540   78.4500   18.7840 C   0  0  1  0  0  0  0  0  0  0  0  0
   19.3700   78.7900   18.9590 C   0  0  0  0  0  0  0  0  0  0  0  0
   19.3210   80.2480   19.3740 C   0  0  0  0  0  0  0  0  0  0  0  0
   20.1970   81.0560   18.4480 C   0  0  0  0  0  0  0  0  0  0  0  0
   20.4870   80.3080   17.1550 C   0  0  0  0  0  0  0  0  0  0  0  0
   20.9400   76.9420   18.7640 C   0  0  0  0  0  0  0  0  0  0  0  0
   21.3310   78.0900   16.4320 C   0  0  0  0  0  0  0  0  0  0  0  0
   20.5470   77.1320   16.2910 O   0  0  0  0  0  0  0  0  0  0  0  0
   18.6470   77.4820    7.4500 C   0  0  0  0  0  0  0  0  0  0  0  0
   17.9480   76.1010    6.7390 S   0  0  0  0  0  0  0  0  0  0  0  0
   16.3650   76.6830    6.5100 C   0  0  0  0  0  0  0  0  0  0  0  0
   16.4260   77.9600    7.0020 C   0  0  0  0  0  0  0  0  0  0  0  0
   17.6110   78.3680    7.4880 C   0  0  0  0  0  0  0  0  0  0  0  0
   14.9750   75.8420    5.8050 Cl  0  0  0  0  0  0  0  0  0  0  0  0
   22.1950   77.9440   10.3070 H   0  0  0  0  0  0  0  0  0  0  0  0
   21.8160   79.5020    9.5450 H   0  0  0  0  0  0  0  0  0  0  0  0
   21.8310   79.9630   11.9430 H   0  0  0  0  0  0  0  0  0  0  0  0
   20.0860   79.8340   11.3970 H   0  0  0  0  0  0  0  0  0  0  0  0
   18.7160   78.0170   12.3880 H   0  0  0  0  0  0  0  0  0  0  0  0
   19.4910   76.4240   12.3630 H   0  0  0  0  0  0  0  0  0  0  0  0
   19.4820   76.3400   10.1120 H   0  0  0  0  0  0  0  0  0  0  0  0
   18.3040   77.6560   10.1960 H   0  0  0  0  0  0  0  0  0  0  0  0
   23.4330   77.1650   14.2340 H   0  0  0  0  0  0  0  0  0  0  0  0
   23.2030   78.8130   13.6900 H   0  0  0  0  0  0  0  0  0  0  0  0
   23.1760   79.9350   18.3910 H   0  0  0  0  0  0  0  0  0  0  0  0
   21.4080   78.8430   19.6680 H   0  0  0  0  0  0  0  0  0  0  0  0
   18.8960   78.6810   17.9770 H   0  0  0  0  0  0  0  0  0  0  0  0
   18.8910   78.1390   19.7150 H   0  0  0  0  0  0  0  0  0  0  0  0
   19.7020   80.2830   20.4320 H   0  0  0  0  0  0  0  0  0  0  0  0
   18.3010   80.6550   19.3710 H   0  0  0  0  0  0  0  0  0  0  0  0
   21.1580   81.2560   18.9670 H   0  0  0  0  0  0  0  0  0  0  0  0
   19.7280   82.0500   18.2440 H   0  0  0  0  0  0  0  0  0  0  0  0
   21.1220   81.0140   16.5460 H   0  0  0  0  0  0  0  0  0  0  0  0
   19.5600   80.0590   16.6280 H   0  0  0  0  0  0  0  0  0  0  0  0
   21.7780   76.5460   18.1830 H   0  0  0  0  0  0  0  0  0  0  0  0
   21.0650   76.5930   19.8310 H   0  0  0  0  0  0  0  0  0  0  0  0
   19.9640   76.4700   18.4500 H   0  0  0  0  0  0  0  0  0  0  0  0
   15.5020   78.5870    6.9760 H   0  0  0  0  0  0  0  0  0  0  0  0
   17.7590   79.3850    7.9080 H   0  0  0  0  0  0  0  0  0  0  0  0
  1  4  1  0  0  0  0
  2  1  2  0  0  0  0
  3  1  2  0  0  0  0
  4  5  1  0  0  0  0
  4  9  1  0  0  0  0
  5 32  1  0  0  0  0
  5  6  1  0  0  0  0
  6 34  1  0  0  0  0
  6  7  1  0  0  0  0
  7 10  1  0  0  0  0
  8 37  1  0  0  0  0
  8  7  1  0  0  0  0
  8 36  1  0  0  0  0
  9  8  1  0  0  0  0
 10 11  2  0  0  0  0
 10 12  1  0  0  0  0
 12 40  1  0  0  0  0
 12 13  1  0  0  0  0
 13 14  1  0  0  0  0
 13 24  1  0  0  0  0
 14 16  1  0  0  0  0
 15 14  2  0  0  0  0
 16 42  1  0  0  0  0
 17 24  1  6  0  0  0
 17 16  1  0  0  0  0
 17 18  1  0  0  0  0
 18 19  1  0  0  0  0
 18 43  1  1  0  0  0
 19 20  1  0  0  0  0
 19 45  1  0  0  0  0
 20 46  1  0  0  0  0
 21 48  1  0  0  0  0
 21 20  1  0  0  0  0
 22 17  1  0  0  0  0
 22 21  1  0  0  0  0
 23 18  1  0  0  0  0
 23 53  1  0  0  0  0
 25 24  2  0  0  0  0
 26 30  2  0  0  0  0
 26  1  1  0  0  0  0
 27 26  1  0  0  0  0
 28 27  1  0  0  0  0
 28 29  2  0  0  0  0
 29 30  1  0  0  0  0
 30 56  1  0  0  0  0
 31 28  1  0  0  0  0
 33  5  1  0  0  0  0
 35  6  1  0  0  0  0
 38  9  1  0  0  0  0
 39  9  1  0  0  0  0
 41 12  1  0  0  0  0
 44 19  1  0  0  0  0
 47 20  1  0  0  0  0
 49 21  1  0  0  0  0
 50 22  1  0  0  0  0
 51 22  1  0  0  0  0
 52 23  1  0  0  0  0
 54 23  1  0  0  0  0
 55 29  1  0  0  0  0
M  END
>  <Pose>
1

>  <Score>
-6.34

$$$$
