
 OpenBabel03222202113D

 60 63  0  0  1  0  0  0  0  0999 V2000
   20.3450   81.6480   18.3720 Cl  0  0  0  0  0  0  0  0  0  0  0  0
   20.1350   79.9020   18.4950 C   0  0  0  0  0  0  0  0  0  0  0  0
   20.1890   79.1360   17.3630 C   0  0  0  0  0  0  0  0  0  0  0  0
   20.0280   77.7750   17.4290 C   0  0  0  0  0  0  0  0  0  0  0  0
   19.8040   77.2090   18.7000 C   0  0  0  0  0  0  0  0  0  0  0  0
   19.7540   77.9840   19.8110 C   0  0  0  0  0  0  0  0  0  0  0  0
   19.9160   79.3430   19.7410 C   0  0  0  0  0  0  0  0  0  0  0  0
   20.0650   76.9630   16.4140 O   0  0  0  0  0  0  0  0  0  0  0  0
   20.5210   75.8950   15.8010 C   0  0  0  0  0  0  0  0  0  0  0  0
   20.8440   75.9170   14.3340 C   0  0  1  0  0  0  0  0  0  0  0  0
   20.5820   74.6210   13.8650 O   0  0  0  0  0  0  0  0  0  0  0  0
   19.2740   74.3880   13.5390 C   0  0  0  0  0  0  0  0  0  0  0  0
   18.8090   75.1100   12.2910 C   0  0  0  0  0  0  0  0  0  0  0  0
   19.4740   76.4360   12.3780 N   0  0  0  0  0  0  0  0  0  0  0  0
   19.7980   76.8450   13.6900 C   0  0  0  0  0  0  0  0  0  0  0  0
   19.7050   77.1260   11.2070 C   0  0  0  0  0  0  0  0  0  0  0  0
   20.2300   78.3150   11.2400 O   0  0  0  0  0  0  0  0  0  0  0  0
   19.4120   76.6390    9.8940 C   0  0  0  0  0  0  0  0  0  0  0  0
   19.1070   75.3690    9.6250 N   0  0  0  0  0  0  0  0  0  0  0  0
   18.8290   74.9030    8.3910 C   0  0  0  0  0  0  0  0  0  0  0  0
   18.8530   75.7750    7.3140 C   0  0  0  0  0  0  0  0  0  0  0  0
   19.1510   77.0440    7.5430 N   0  0  0  0  0  0  0  0  0  0  0  0
   19.4250   77.4870    8.7810 C   0  0  0  0  0  0  0  0  0  0  0  0
   18.5390   75.2080    5.9790 C   0  0  0  0  0  0  0  0  0  0  0  0
   22.2110   76.2730   13.9630 C   0  0  0  0  0  0  0  0  0  0  0  0
   22.7630   77.5380   14.4520 C   0  0  0  0  0  0  0  0  0  0  0  0
   22.3660   78.6280   13.9990 O   0  0  0  0  0  0  0  0  0  0  0  0
   23.7700   77.5680   15.4580 N   0  0  0  0  0  0  0  0  0  0  0  0
   23.5460   78.2240   16.7420 C   0  0  0  0  0  0  0  0  0  0  0  0
   24.7550   79.0940   17.0140 C   0  0  0  0  0  0  0  0  0  0  0  0
   25.8990   78.2890   17.0100 O   0  0  0  0  0  0  0  0  0  0  0  0
   26.1470   77.8760   15.7020 C   0  0  0  0  0  0  0  0  0  0  0  0
   25.0630   76.9480   15.2590 C   0  0  0  0  0  0  0  0  0  0  0  0
   20.3440   79.5950   16.3980 H   0  0  0  0  0  0  0  0  0  0  0  0
   19.6700   76.1310   18.8100 H   0  0  0  0  0  0  0  0  0  0  0  0
   19.5830   77.5660   20.8020 H   0  0  0  0  0  0  0  0  0  0  0  0
   19.8850   79.9960   20.5850 H   0  0  0  0  0  0  0  0  0  0  0  0
   21.4360   75.4390   16.3540 H   0  0  0  0  0  0  0  0  0  0  0  0
   19.7690   75.0240   15.9370 H   0  0  0  0  0  0  0  0  0  0  0  0
   19.1590   73.3100   13.3430 H   0  0  0  0  0  0  0  0  0  0  0  0
   18.6280   74.6240   14.4040 H   0  0  0  0  0  0  0  0  0  0  0  0
   17.7230   75.2060   12.3420 H   0  0  0  0  0  0  0  0  0  0  0  0
   19.2110   74.6360   11.3950 H   0  0  0  0  0  0  0  0  0  0  0  0
   18.8550   76.6460   14.3110 H   0  0  0  0  0  0  0  0  0  0  0  0
   20.0320   77.8740   13.8860 H   0  0  0  0  0  0  0  0  0  0  0  0
   18.5920   73.8540    8.2740 H   0  0  0  0  0  0  0  0  0  0  0  0
   19.6650   78.5260    8.9370 H   0  0  0  0  0  0  0  0  0  0  0  0
   18.2700   76.0070    5.2490 H   0  0  0  0  0  0  0  0  0  0  0  0
   19.4390   74.6500    5.6520 H   0  0  0  0  0  0  0  0  0  0  0  0
   17.6990   74.4870    6.0050 H   0  0  0  0  0  0  0  0  0  0  0  0
   22.3030   76.2690   12.8070 H   0  0  0  0  0  0  0  0  0  0  0  0
   22.9140   75.4230   14.2110 H   0  0  0  0  0  0  0  0  0  0  0  0
   22.6230   78.8350   16.7300 H   0  0  0  0  0  0  0  0  0  0  0  0
   23.5090   77.4630   17.5630 H   0  0  0  0  0  0  0  0  0  0  0  0
   24.8000   79.8790   16.2470 H   0  0  0  0  0  0  0  0  0  0  0  0
   24.7100   79.5510   18.0290 H   0  0  0  0  0  0  0  0  0  0  0  0
   26.1940   78.7220   14.9920 H   0  0  0  0  0  0  0  0  0  0  0  0
   27.0990   77.2930   15.7180 H   0  0  0  0  0  0  0  0  0  0  0  0
   25.2470   76.6900   14.1960 H   0  0  0  0  0  0  0  0  0  0  0  0
   25.0600   75.9840   15.8110 H   0  0  0  0  0  0  0  0  0  0  0  0
  1  2  1  0  0  0  0
  2  7  1  0  0  0  0
  3  4  1  0  0  0  0
  3  2  2  0  0  0  0
  4  5  2  0  0  0  0
  5 35  1  0  0  0  0
  5  6  1  0  0  0  0
  6 36  1  0  0  0  0
  7  6  2  0  0  0  0
  7 37  1  0  0  0  0
  8  4  1  0  0  0  0
  9 39  1  0  0  0  0
  9 38  1  0  0  0  0
  9  8  1  0  0  0  0
 10 25  1  6  0  0  0
 10  9  1  0  0  0  0
 11 10  1  0  0  0  0
 12 11  1  0  0  0  0
 12 41  1  0  0  0  0
 13 42  1  0  0  0  0
 13 14  1  0  0  0  0
 13 12  1  0  0  0  0
 14 15  1  0  0  0  0
 15 45  1  0  0  0  0
 15 44  1  0  0  0  0
 15 10  1  0  0  0  0
 16 17  2  0  0  0  0
 16 14  1  0  0  0  0
 18 16  1  0  0  0  0
 19 18  1  0  0  0  0
 20 19  2  0  0  0  0
 21 22  2  0  0  0  0
 21 20  1  0  0  0  0
 22 23  1  0  0  0  0
 23 47  1  0  0  0  0
 23 18  2  0  0  0  0
 24 50  1  0  0  0  0
 24 21  1  0  0  0  0
 25 52  1  0  0  0  0
 25 26  1  0  0  0  0
 26 28  1  0  0  0  0
 27 26  2  0  0  0  0
 28 29  1  0  0  0  0
 29 30  1  0  0  0  0
 29 54  1  0  0  0  0
 30 56  1  0  0  0  0
 31 30  1  0  0  0  0
 32 58  1  0  0  0  0
 32 31  1  0  0  0  0
 33 28  1  0  0  0  0
 33 32  1  0  0  0  0
 33 60  1  0  0  0  0
 34  3  1  0  0  0  0
 40 12  1  0  0  0  0
 43 13  1  0  0  0  0
 46 20  1  0  0  0  0
 48 24  1  0  0  0  0
 49 24  1  0  0  0  0
 51 25  1  0  0  0  0
 53 29  1  0  0  0  0
 55 30  1  0  0  0  0
 57 32  1  0  0  0  0
 59 33  1  0  0  0  0
M  END
>  <Pose>
1

>  <Score>
-5.95

$$$$
