
 OpenBabel03222202113D

 51 54  0  0  1  0  0  0  0  0999 V2000
   20.5910   74.7520   18.5920 Cl  0  0  0  0  0  0  0  0  0  0  0  0
   20.4530   76.4610   18.3400 C   0  0  0  0  0  0  0  0  0  0  0  0
   19.5930   77.1750   19.0690 N   0  0  0  0  0  4  0  0  0  0  0  0
   19.4470   78.4940   18.9150 C   0  0  0  0  0  0  0  0  0  0  0  0
   18.6770   79.3920   19.5180 N   0  0  0  0  0  0  0  0  0  0  0  0
   18.9780   80.5630   18.9420 C   0  0  0  0  0  0  0  0  0  0  0  0
   19.9150   80.4290   17.9950 N   0  0  0  0  0  0  0  0  0  0  0  0
   20.2390   79.1270   17.9460 C   0  0  0  0  0  0  0  0  0  0  0  0
   21.1250   78.4050   17.1920 C   0  0  0  0  0  0  0  0  0  0  0  0
   21.2090   77.0610   17.4150 N   0  0  0  0  0  0  0  0  0  0  0  0
   21.9070   79.0360   16.2020 N   0  0  0  0  0  0  0  0  0  0  0  0
   22.7160   78.1990   15.3460 C   0  0  0  0  0  0  0  0  0  0  0  0
   23.6010   78.9790   14.4120 C   0  0  0  0  0  0  0  0  0  0  0  0
   22.8190   80.0840   13.7920 C   0  0  2  0  0  0  0  0  0  0  0  0
   22.3870   81.0490   14.8420 C   0  0  0  0  0  0  0  0  0  0  0  0
   21.8570   80.4620   16.0990 C   0  0  0  0  0  0  0  0  0  0  0  0
   21.7480   79.6010   12.9190 C   0  0  0  0  0  0  0  0  0  0  0  0
   21.4590   78.3800   12.9450 O   0  0  0  0  0  0  0  0  0  0  0  0
   21.0240   80.4410   12.0470 N   0  0  0  0  0  0  0  0  0  0  0  0
   19.9630   79.9790   11.1830 C   0  0  0  0  0  0  0  0  0  0  0  0
   20.4230   79.0170   10.1260 C   0  0  0  0  0  0  0  0  0  0  0  0
   19.3450   78.1320    9.7220 N   0  0  0  0  0  0  0  0  0  0  0  0
   19.6100   76.7620   10.0090 C   0  0  0  0  0  0  0  0  0  0  0  0
   19.8670   75.9920    8.7290 C   0  0  0  0  0  0  0  0  0  0  0  0
   18.7160   76.0240    7.9830 O   0  0  0  0  0  0  0  0  0  0  0  0
   18.1970   77.2640    7.7230 C   0  0  0  0  0  0  0  0  0  0  0  0
   18.8470   78.4080    8.4220 C   0  0  0  0  0  0  0  0  0  0  0  0
   18.5240   81.5040   19.2050 H   0  0  0  0  0  0  0  0  0  0  0  0
   20.3460   81.1670   17.3890 H   0  0  0  0  0  0  0  0  0  0  0  0
   22.1590   77.4050   14.8300 H   0  0  0  0  0  0  0  0  0  0  0  0
   23.4370   77.6300   16.0160 H   0  0  0  0  0  0  0  0  0  0  0  0
   24.4730   79.3930   14.9430 H   0  0  0  0  0  0  0  0  0  0  0  0
   23.9580   78.2710   13.6370 H   0  0  0  0  0  0  0  0  0  0  0  0
   23.5380   80.6390   13.1200 H   0  0  0  0  0  0  0  0  0  0  0  0
   23.2990   81.6560   15.1200 H   0  0  0  0  0  0  0  0  0  0  0  0
   21.6980   81.7850   14.3770 H   0  0  0  0  0  0  0  0  0  0  0  0
   20.7940   80.8210   16.2110 H   0  0  0  0  0  0  0  0  0  0  0  0
   22.3680   80.8700   17.0200 H   0  0  0  0  0  0  0  0  0  0  0  0
   21.2700   81.4740   12.0230 H   0  0  0  0  0  0  0  0  0  0  0  0
   19.1140   79.6080   11.7510 H   0  0  0  0  0  0  0  0  0  0  0  0
   19.5970   80.8940   10.6350 H   0  0  0  0  0  0  0  0  0  0  0  0
   20.6790   79.6230    9.2300 H   0  0  0  0  0  0  0  0  0  0  0  0
   21.3060   78.4340   10.4180 H   0  0  0  0  0  0  0  0  0  0  0  0
   18.7880   76.2570   10.5670 H   0  0  0  0  0  0  0  0  0  0  0  0
   20.5060   76.7020   10.6610 H   0  0  0  0  0  0  0  0  0  0  0  0
   20.7390   76.4260    8.2020 H   0  0  0  0  0  0  0  0  0  0  0  0
   20.0680   74.9390    9.0080 H   0  0  0  0  0  0  0  0  0  0  0  0
   18.1150   77.4500    6.6150 H   0  0  0  0  0  0  0  0  0  0  0  0
   17.1200   77.2430    8.0650 H   0  0  0  0  0  0  0  0  0  0  0  0
   18.1830   79.2870    8.4750 H   0  0  0  0  0  0  0  0  0  0  0  0
   19.7210   78.7300    7.7840 H   0  0  0  0  0  0  0  0  0  0  0  0
  2  1  1  0  0  0  0
  2  3  2  0  0  0  0
  4  3  2  0  0  0  0
  4  5  1  0  0  0  0
  6 28  1  0  0  0  0
  6  5  2  0  0  0  0
  7  6  1  0  0  0  0
  8  7  1  0  0  0  0
  8  4  1  0  0  0  0
  9 10  1  0  0  0  0
  9  8  2  0  0  0  0
 10  2  1  0  0  0  0
 11  9  1  0  0  0  0
 12 31  1  0  0  0  0
 12 11  1  0  0  0  0
 13 32  1  0  0  0  0
 13 12  1  0  0  0  0
 14 34  1  6  0  0  0
 14 13  1  0  0  0  0
 14 15  1  0  0  0  0
 15 35  1  0  0  0  0
 15 16  1  0  0  0  0
 16 11  1  0  0  0  0
 16 37  1  0  0  0  0
 16 38  1  0  0  0  0
 17 18  2  0  0  0  0
 17 14  1  0  0  0  0
 19 17  1  0  0  0  0
 20 40  1  0  0  0  0
 20 19  1  0  0  0  0
 21 43  1  0  0  0  0
 21 20  1  0  0  0  0
 22 23  1  0  0  0  0
 22 21  1  0  0  0  0
 23 44  1  0  0  0  0
 23 45  1  0  0  0  0
 24 47  1  0  0  0  0
 24 23  1  0  0  0  0
 25 24  1  0  0  0  0
 26 25  1  0  0  0  0
 26 49  1  0  0  0  0
 26 27  1  0  0  0  0
 27 50  1  0  0  0  0
 27 22  1  0  0  0  0
 29  7  1  0  0  0  0
 30 12  1  0  0  0  0
 33 13  1  0  0  0  0
 36 15  1  0  0  0  0
 39 19  1  0  0  0  0
 41 20  1  0  0  0  0
 42 21  1  0  0  0  0
 46 24  1  0  0  0  0
 48 26  1  0  0  0  0
 51 27  1  0  0  0  0
M  END
>  <Pose>
1

>  <Score>
-5.92

$$$$
