
 OpenBabel03222202113D

 58 61  0  0  1  0  0  0  0  0999 V2000
   19.3030   84.5480   19.9410 Cl  0  0  0  0  0  0  0  0  0  0  0  0
   19.6840   82.9090   19.4370 C   0  0  0  0  0  0  0  0  0  0  0  0
   20.2380   82.6120   18.2180 C   0  0  0  0  0  0  0  0  0  0  0  0
   20.5360   81.3150   17.8290 C   0  0  0  0  0  0  0  0  0  0  0  0
   21.0630   80.7370   16.7360 N   0  0  0  0  0  0  0  0  0  0  0  0
   21.1340   79.4030   16.8830 C   0  0  0  0  0  0  0  0  0  0  0  0
   20.6250   79.1570   18.1250 N   0  0  0  0  0  0  0  0  0  0  0  0
   20.2560   80.2980   18.7180 C   0  0  0  0  0  0  0  0  0  0  0  0
   19.7000   80.5520   19.9530 C   0  0  0  0  0  0  0  0  0  0  0  0
   19.4170   81.8690   20.3020 C   0  0  0  0  0  0  0  0  0  0  0  0
   20.5290   77.8020   18.6660 C   0  0  0  0  0  0  0  0  0  0  0  0
   21.6440   78.3810   15.9360 C   0  0  0  0  0  0  0  0  0  0  0  0
   20.5690   77.6210   15.2290 C   0  0  0  0  0  0  0  0  0  0  0  0
   20.6630   76.1520   15.4110 C   0  0  0  0  0  0  0  0  0  0  0  0
   21.0170   75.6990   16.5290 O   0  0  0  0  0  0  0  0  0  0  0  0
   20.3670   75.2620   14.3620 N   0  0  0  0  0  0  0  0  0  0  0  0
   20.6540   75.5730   12.9620 C   0  0  0  0  0  0  0  0  0  0  0  0
   19.3020   75.6550   12.2830 C   0  0  2  0  0  0  0  0  0  0  0  0
   18.5150   74.3830   12.4930 C   0  0  1  0  0  0  0  0  0  0  0  0
   19.3590   73.3520   13.2520 C   0  0  0  0  0  0  0  0  0  0  0  0
   19.7540   73.9640   14.5850 C   0  0  0  0  0  0  0  0  0  0  0  0
   17.3870   74.5870   13.3250 O   0  0  0  0  0  0  0  0  0  0  0  0
   17.9900   73.7790   11.2250 C   0  0  0  0  0  0  0  0  0  0  0  0
   19.3430   76.1120   10.9390 N   0  0  0  0  0  0  0  0  0  0  0  0
   19.1600   75.2600    9.8870 C   0  0  0  0  0  0  0  0  0  0  0  0
   19.2000   75.7020    8.5820 C   0  0  0  0  0  0  0  0  0  0  0  0
   19.4290   77.0350    8.3240 C   0  0  0  0  0  0  0  0  0  0  0  0
   19.4740   77.4850    7.1280 O   0  0  0  0  0  0  0  0  0  0  0  0
   19.6090   77.8680    9.3640 N   0  0  0  0  0  0  0  0  0  0  0  0
   19.5610   77.3840   10.6390 C   0  0  0  0  0  0  0  0  0  0  0  0
   19.7350   78.2050   11.5670 O   0  0  0  0  0  0  0  0  0  0  0  0
   19.0050   74.8040    7.4170 C   0  0  0  0  0  0  0  0  0  0  0  0
   20.4530   83.4210   17.5300 H   0  0  0  0  0  0  0  0  0  0  0  0
   19.4810   79.7540   20.6480 H   0  0  0  0  0  0  0  0  0  0  0  0
   18.9820   82.0760   21.2660 H   0  0  0  0  0  0  0  0  0  0  0  0
   21.5500   77.3980   18.9170 H   0  0  0  0  0  0  0  0  0  0  0  0
   20.1110   77.0980   17.9120 H   0  0  0  0  0  0  0  0  0  0  0  0
   19.9110   77.8310   19.5940 H   0  0  0  0  0  0  0  0  0  0  0  0
   22.3760   77.6930   16.4320 H   0  0  0  0  0  0  0  0  0  0  0  0
   22.2320   78.9210   15.1650 H   0  0  0  0  0  0  0  0  0  0  0  0
   19.5770   77.9730   15.6330 H   0  0  0  0  0  0  0  0  0  0  0  0
   20.6080   77.9050   14.1560 H   0  0  0  0  0  0  0  0  0  0  0  0
   21.2770   74.7260   12.6100 H   0  0  0  0  0  0  0  0  0  0  0  0
   21.1600   76.5490   12.8540 H   0  0  0  0  0  0  0  0  0  0  0  0
   18.7570   76.4450   12.8860 H   0  0  0  0  0  0  0  0  0  0  0  0
   18.7020   72.4890   13.4780 H   0  0  0  0  0  0  0  0  0  0  0  0
   20.2050   72.9920   12.6680 H   0  0  0  0  0  0  0  0  0  0  0  0
   20.5230   73.3170   15.0570 H   0  0  0  0  0  0  0  0  0  0  0  0
   18.8700   74.0210   15.2380 H   0  0  0  0  0  0  0  0  0  0  0  0
   16.7010   75.0070   12.7500 H   0  0  0  0  0  0  0  0  0  0  0  0
   16.9680   73.3220   11.3720 H   0  0  0  0  0  0  0  0  0  0  0  0
   18.6180   72.9180   10.8620 H   0  0  0  0  0  0  0  0  0  0  0  0
   17.8810   74.5110   10.4170 H   0  0  0  0  0  0  0  0  0  0  0  0
   18.9760   74.1960   10.0950 H   0  0  0  0  0  0  0  0  0  0  0  0
   19.7820   78.8720    9.1740 H   0  0  0  0  0  0  0  0  0  0  0  0
   17.9080   74.8150    7.1970 H   0  0  0  0  0  0  0  0  0  0  0  0
   19.5070   75.2030    6.5120 H   0  0  0  0  0  0  0  0  0  0  0  0
   19.3600   73.7800    7.6560 H   0  0  0  0  0  0  0  0  0  0  0  0
  2  1  1  0  0  0  0
  2 10  1  0  0  0  0
  3  2  2  0  0  0  0
  4  3  1  0  0  0  0
  4  8  2  0  0  0  0
  5  6  2  0  0  0  0
  5  4  1  0  0  0  0
  6  7  1  0  0  0  0
  7 11  1  0  0  0  0
  7  8  1  0  0  0  0
  8  9  1  0  0  0  0
  9 10  2  0  0  0  0
  9 34  1  0  0  0  0
 10 35  1  0  0  0  0
 11 36  1  0  0  0  0
 11 38  1  0  0  0  0
 12 39  1  0  0  0  0
 12  6  1  0  0  0  0
 13 14  1  0  0  0  0
 13 41  1  0  0  0  0
 13 12  1  0  0  0  0
 14 15  2  0  0  0  0
 16 21  1  0  0  0  0
 16 14  1  0  0  0  0
 17 16  1  0  0  0  0
 18 19  1  0  0  0  0
 18 45  1  1  0  0  0
 18 17  1  0  0  0  0
 19 20  1  0  0  0  0
 19 22  1  1  0  0  0
 20 46  1  0  0  0  0
 20 21  1  0  0  0  0
 21 48  1  0  0  0  0
 21 49  1  0  0  0  0
 23 51  1  0  0  0  0
 23 19  1  0  0  0  0
 24 18  1  0  0  0  0
 25 54  1  0  0  0  0
 25 24  1  0  0  0  0
 26 25  2  0  0  0  0
 27 26  1  0  0  0  0
 27 29  1  0  0  0  0
 28 27  2  0  0  0  0
 29 30  1  0  0  0  0
 30 24  1  0  0  0  0
 30 31  2  0  0  0  0
 32 58  1  0  0  0  0
 32 26  1  0  0  0  0
 33  3  1  0  0  0  0
 37 11  1  0  0  0  0
 40 12  1  0  0  0  0
 42 13  1  0  0  0  0
 43 17  1  0  0  0  0
 44 17  1  0  0  0  0
 47 20  1  0  0  0  0
 50 22  1  0  0  0  0
 52 23  1  0  0  0  0
 53 23  1  0  0  0  0
 55 29  1  0  0  0  0
 56 32  1  0  0  0  0
 57 32  1  0  0  0  0
M  END
>  <Pose>
1

>  <Score>
-6.32

$$$$
