
 OpenBabel03222202113D

 42 45  0  0  0  0  0  0  0  0999 V2000
   18.5430   74.7340    6.1360 Cl  0  0  0  0  0  0  0  0  0  0  0  0
   18.8680   75.3410    7.7580 C   0  0  0  0  0  0  0  0  0  0  0  0
   18.5870   74.5980    8.8920 C   0  0  0  0  0  0  0  0  0  0  0  0
   18.8250   75.0360   10.1770 C   0  0  0  0  0  0  0  0  0  0  0  0
   18.6530   74.5370   11.4130 N   0  0  0  0  0  0  0  0  0  0  0  0
   19.0690   75.4170   12.3440 C   0  0  0  0  0  0  0  0  0  0  0  0
   19.5080   76.4860   11.6590 N   0  0  0  0  0  0  0  0  0  0  0  0
   19.3840   76.3090   10.3290 C   0  0  0  0  0  0  0  0  0  0  0  0
   19.6680   77.0570    9.2110 C   0  0  0  0  0  0  0  0  0  0  0  0
   19.4240   76.6040    7.9400 C   0  0  0  0  0  0  0  0  0  0  0  0
   19.0450   75.2360   13.8360 C   0  0  0  0  0  0  0  0  0  0  0  0
   20.2620   75.7710   14.4180 N   0  0  0  0  0  0  0  0  0  0  0  0
   20.2570   76.7020   15.4740 C   0  0  0  0  0  0  0  0  0  0  0  0
   19.2070   76.8280   16.1270 O   0  0  0  0  0  0  0  0  0  0  0  0
   21.4310   77.5190   15.8260 C   0  0  0  0  0  0  0  0  0  0  0  0
   22.7070   77.1430   15.1820 C   0  0  0  0  0  0  0  0  0  0  0  0
   22.0320   78.3370   14.6330 C   0  0  0  0  0  0  0  0  0  0  0  0
   21.4210   78.2950   17.0300 N   0  0  0  0  0  0  0  0  0  0  0  0
   21.9290   77.6680   18.1850 C   0  0  0  0  0  0  0  0  0  0  0  0
   20.7450   77.1220   18.9750 C   0  0  0  0  0  0  0  0  0  0  0  0
   20.0090   78.1580   19.4970 O   0  0  0  0  0  0  0  0  0  0  0  0
   20.0190   79.3110   18.7530 C   0  0  0  0  0  0  0  0  0  0  0  0
   20.2650   79.0550   17.2800 C   0  0  0  0  0  0  0  0  0  0  0  0
   18.1480   73.6010    8.7670 H   0  0  0  0  0  0  0  0  0  0  0  0
   19.8980   77.3470   12.1070 H   0  0  0  0  0  0  0  0  0  0  0  0
   20.0970   78.0330    9.3440 H   0  0  0  0  0  0  0  0  0  0  0  0
   19.6380   77.1720    7.0360 H   0  0  0  0  0  0  0  0  0  0  0  0
   18.9310   74.1950   14.1120 H   0  0  0  0  0  0  0  0  0  0  0  0
   18.2100   75.8510   14.2150 H   0  0  0  0  0  0  0  0  0  0  0  0
   21.1800   75.4480   14.0320 H   0  0  0  0  0  0  0  0  0  0  0  0
   22.7770   76.2700   14.5020 H   0  0  0  0  0  0  0  0  0  0  0  0
   23.6840   77.2980   15.6960 H   0  0  0  0  0  0  0  0  0  0  0  0
   21.4450   78.2830   13.6860 H   0  0  0  0  0  0  0  0  0  0  0  0
   22.4670   79.3070   14.8300 H   0  0  0  0  0  0  0  0  0  0  0  0
   22.7240   76.9360   18.0650 H   0  0  0  0  0  0  0  0  0  0  0  0
   22.3660   78.4740   18.8490 H   0  0  0  0  0  0  0  0  0  0  0  0
   20.1160   76.5160   18.2970 H   0  0  0  0  0  0  0  0  0  0  0  0
   21.1710   76.4740   19.7890 H   0  0  0  0  0  0  0  0  0  0  0  0
   18.9760   79.7460   18.8190 H   0  0  0  0  0  0  0  0  0  0  0  0
   20.6830   80.1030   19.1580 H   0  0  0  0  0  0  0  0  0  0  0  0
   19.3180   78.6550   16.8720 H   0  0  0  0  0  0  0  0  0  0  0  0
   20.3740   80.0760   16.8130 H   0  0  0  0  0  0  0  0  0  0  0  0
  1  2  1  0  0  0  0
  2 10  2  0  0  0  0
  2  3  1  0  0  0  0
  3  4  2  0  0  0  0
  4  8  1  0  0  0  0
  4  5  1  0  0  0  0
  5  6  2  0  0  0  0
  6 11  1  0  0  0  0
  7 25  1  0  0  0  0
  7  6  1  0  0  0  0
  8  7  1  0  0  0  0
  9 26  1  0  0  0  0
  9  8  2  0  0  0  0
 10  9  1  0  0  0  0
 11 28  1  0  0  0  0
 11 29  1  0  0  0  0
 11 12  1  0  0  0  0
 12 13  1  0  0  0  0
 13 15  1  0  0  0  0
 13 14  2  0  0  0  0
 15 18  1  0  0  0  0
 16 32  1  0  0  0  0
 16 15  1  0  0  0  0
 17 34  1  0  0  0  0
 17 16  1  0  0  0  0
 17 15  1  0  0  0  0
 18 23  1  0  0  0  0
 18 19  1  0  0  0  0
 19 36  1  0  0  0  0
 19 20  1  0  0  0  0
 20 21  1  0  0  0  0
 20 38  1  0  0  0  0
 22 39  1  0  0  0  0
 22 40  1  0  0  0  0
 22 21  1  0  0  0  0
 23 22  1  0  0  0  0
 24  3  1  0  0  0  0
 27 10  1  0  0  0  0
 30 12  1  0  0  0  0
 31 16  1  0  0  0  0
 33 17  1  0  0  0  0
 35 19  1  0  0  0  0
 37 20  1  0  0  0  0
 41 23  1  0  0  0  0
 42 23  1  0  0  0  0
M  END
>  <Pose>
1

>  <Score>
-5.81

$$$$
