
 OpenBabel03222202113D

 54 57  0  0  1  0  0  0  0  0999 V2000
   17.6960   78.6530    7.4080 Cl  0  0  0  0  0  0  0  0  0  0  0  0
   18.3540   77.0340    7.4350 C   0  0  0  0  0  0  0  0  0  0  0  0
   19.4490   76.7810    8.2530 C   0  0  0  0  0  0  0  0  0  0  0  0
   19.9010   75.4890    8.2870 C   0  0  0  0  0  0  0  0  0  0  0  0
   19.2950   74.4930    7.5280 C   0  0  0  0  0  0  0  0  0  0  0  0
   18.1840   74.7460    6.6980 C   0  0  0  0  0  0  0  0  0  0  0  0
   17.7550   76.0580    6.7070 C   0  0  0  0  0  0  0  0  0  0  0  0
   20.1410   77.9410    8.8730 C   0  0  0  0  0  0  0  0  0  0  0  0
   19.6730   78.2330   10.1800 N   0  0  0  0  0  0  0  0  0  0  0  0
   19.4890   79.4930   10.7540 C   0  0  0  0  0  0  0  0  0  0  0  0
   18.4030   79.9880   10.9100 O   0  0  0  0  0  0  0  0  0  0  0  0
   20.7400   80.2490   11.2150 C   0  0  0  0  0  0  0  0  0  0  0  0
   21.2720   79.5220   12.3420 N   0  0  0  0  0  0  0  0  0  0  0  0
   20.5420   78.5770   13.0500 C   0  0  0  0  0  0  0  0  0  0  0  0
   21.5640   77.7970   13.9810 C   0  0  0  0  0  0  0  0  0  0  0  0
   22.5480   78.8220   14.2100 N   0  0  0  0  0  0  0  0  0  0  0  0
   23.5030   78.9020   13.0670 C   0  0  0  0  0  0  0  0  0  0  0  0
   22.5790   78.9330   11.8820 C   0  0  0  0  0  0  0  0  0  0  0  0
   22.6660   79.5650   15.3470 C   0  0  0  0  0  0  0  0  0  0  0  0
   21.6920   80.3350   15.6540 O   0  0  0  0  0  0  0  0  0  0  0  0
   23.8220   79.6190   16.2960 C   0  0  1  0  0  0  0  0  0  0  0  0
   23.1980   79.8580   17.6000 O   0  0  0  0  0  0  0  0  0  0  0  0
   21.9570   79.1620   17.6880 C   0  0  0  0  0  0  0  0  0  0  0  0
   21.8700   77.9490   17.0580 C   0  0  0  0  0  0  0  0  0  0  0  0
   20.6990   77.2000   17.0820 C   0  0  0  0  0  0  0  0  0  0  0  0
   19.6300   77.7490   17.7800 C   0  0  0  0  0  0  0  0  0  0  0  0
   19.6870   78.9610   18.4320 C   0  0  0  0  0  0  0  0  0  0  0  0
   20.8690   79.6730   18.3860 C   0  0  0  0  0  0  0  0  0  0  0  0
   22.9870   77.4540   16.3740 O   0  0  0  0  0  0  0  0  0  0  0  0
   24.2640   78.1370   16.4330 C   0  0  0  0  0  0  0  0  0  0  0  0
   20.7470   75.1810    8.8810 H   0  0  0  0  0  0  0  0  0  0  0  0
   19.6270   73.4600    7.5090 H   0  0  0  0  0  0  0  0  0  0  0  0
   17.7340   73.9530    6.1230 H   0  0  0  0  0  0  0  0  0  0  0  0
   16.8900   76.2660    6.1090 H   0  0  0  0  0  0  0  0  0  0  0  0
   21.2270   77.5670    8.9670 H   0  0  0  0  0  0  0  0  0  0  0  0
   20.0720   78.8010    8.2020 H   0  0  0  0  0  0  0  0  0  0  0  0
   19.5090   77.4050   10.8550 H   0  0  0  0  0  0  0  0  0  0  0  0
   21.4910   80.2860   10.4160 H   0  0  0  0  0  0  0  0  0  0  0  0
   20.4220   81.2510   11.5240 H   0  0  0  0  0  0  0  0  0  0  0  0
   19.9740   77.8190   12.5460 H   0  0  0  0  0  0  0  0  0  0  0  0
   19.9390   79.1160   13.8480 H   0  0  0  0  0  0  0  0  0  0  0  0
   21.9730   76.9750   13.3780 H   0  0  0  0  0  0  0  0  0  0  0  0
   21.0770   77.4830   14.8960 H   0  0  0  0  0  0  0  0  0  0  0  0
   23.9990   77.9140   13.0530 H   0  0  0  0  0  0  0  0  0  0  0  0
   24.2080   79.7000   13.1600 H   0  0  0  0  0  0  0  0  0  0  0  0
   22.3030   77.9120   11.5660 H   0  0  0  0  0  0  0  0  0  0  0  0
   22.8950   79.5120   11.0240 H   0  0  0  0  0  0  0  0  0  0  0  0
   24.6020   80.2960   16.0560 H   0  0  0  0  0  0  0  0  0  0  0  0
   20.6510   76.2370   16.5550 H   0  0  0  0  0  0  0  0  0  0  0  0
   18.7130   77.1730   17.7840 H   0  0  0  0  0  0  0  0  0  0  0  0
   18.8040   79.3630   18.9640 H   0  0  0  0  0  0  0  0  0  0  0  0
   20.9730   80.6310   18.8780 H   0  0  0  0  0  0  0  0  0  0  0  0
   24.7490   77.9120   15.4460 H   0  0  0  0  0  0  0  0  0  0  0  0
   24.8410   77.9410   17.3090 H   0  0  0  0  0  0  0  0  0  0  0  0
  1  2  1  0  0  0  0
  2  3  1  0  0  0  0
  3  4  2  0  0  0  0
  3  8  1  0  0  0  0
  4 31  1  0  0  0  0
  5  4  1  0  0  0  0
  6  7  1  0  0  0  0
  6  5  2  0  0  0  0
  7  2  2  0  0  0  0
  8 35  1  0  0  0  0
  8  9  1  0  0  0  0
  9 10  1  0  0  0  0
  9 37  1  0  0  0  0
 10 11  2  0  0  0  0
 10 12  1  0  0  0  0
 12 39  1  0  0  0  0
 12 13  1  0  0  0  0
 13 14  1  0  0  0  0
 14 41  1  0  0  0  0
 14 15  1  0  0  0  0
 15 16  1  0  0  0  0
 15 43  1  0  0  0  0
 16 19  1  0  0  0  0
 17 45  1  0  0  0  0
 17 16  1  0  0  0  0
 18 13  1  0  0  0  0
 18 17  1  0  0  0  0
 19 20  2  0  0  0  0
 19 21  1  0  0  0  0
 21 48  1  6  0  0  0
 21 30  1  0  0  0  0
 21 22  1  0  0  0  0
 22 23  1  0  0  0  0
 23 28  1  0  0  0  0
 24 25  1  0  0  0  0
 24 23  2  0  0  0  0
 25 26  2  0  0  0  0
 26 50  1  0  0  0  0
 26 27  1  0  0  0  0
 27 51  1  0  0  0  0
 28 27  2  0  0  0  0
 28 52  1  0  0  0  0
 29 30  1  0  0  0  0
 29 24  1  0  0  0  0
 30 54  1  0  0  0  0
 32  5  1  0  0  0  0
 33  6  1  0  0  0  0
 34  7  1  0  0  0  0
 36  8  1  0  0  0  0
 38 12  1  0  0  0  0
 40 14  1  0  0  0  0
 42 15  1  0  0  0  0
 44 17  1  0  0  0  0
 46 18  1  0  0  0  0
 47 18  1  0  0  0  0
 49 25  1  0  0  0  0
 53 30  1  0  0  0  0
M  END
>  <Pose>
1

>  <Score>
-5.55

$$$$
