
 OpenBabel03222202113D

 45 48  0  0  0  0  0  0  0  0999 V2000
   24.9790   77.4120   15.6430 Cl  0  0  0  0  0  0  0  0  0  0  0  0
   23.8900   78.7420   15.9700 C   0  0  0  0  0  0  0  0  0  0  0  0
   22.7740   78.8770   15.2010 C   0  0  0  0  0  0  0  0  0  0  0  0
   21.8780   79.9260   15.4300 C   0  0  0  0  0  0  0  0  0  0  0  0
   22.0680   80.8460   16.4090 C   0  0  0  0  0  0  0  0  0  0  0  0
   23.2260   80.6770   17.1830 C   0  0  0  0  0  0  0  0  0  0  0  0
   24.1200   79.6530   16.9750 C   0  0  0  0  0  0  0  0  0  0  0  0
   21.1370   81.9270   16.7230 C   0  0  0  0  0  0  0  0  0  0  0  0
   20.4000   81.8160   17.9540 N   0  0  0  0  0  0  0  0  0  0  0  0
   20.0770   82.9010   18.7210 C   0  0  0  0  0  0  0  0  0  0  0  0
   19.3770   82.5000   19.8250 C   0  0  0  0  0  0  0  0  0  0  0  0
   19.2900   81.1830   19.7010 N   0  0  0  0  0  0  0  0  0  0  0  0
   19.9090   80.7350   18.5610 C   0  0  0  0  0  0  0  0  0  0  0  0
   19.9410   79.3690   18.2020 N   0  0  0  0  0  0  0  0  0  0  0  0
   21.1970   78.6520   18.3790 C   0  0  0  0  0  0  0  0  0  0  0  0
   20.7450   77.2440   18.8090 C   0  0  0  0  0  0  0  0  0  0  0  0
   19.5310   77.2900   19.5930 N   0  0  0  0  0  0  0  0  0  0  0  0
   18.3700   77.7330   18.8520 C   0  0  0  0  0  0  0  0  0  0  0  0
   18.8990   78.5590   17.6880 C   0  0  0  0  0  0  0  0  0  0  0  0
   18.9340   83.3820   20.7400 N   0  0  0  0  0  0  0  0  0  0  0  0
   19.1820   84.7080   20.5740 C   0  0  0  0  0  0  0  0  0  0  0  0
   18.7510   85.4900   21.4510 O   0  0  0  0  0  0  0  0  0  0  0  0
   19.8660   85.1500   19.5060 N   0  0  0  0  0  0  0  0  0  0  0  0
   20.3020   84.2630   18.5990 C   0  0  0  0  0  0  0  0  0  0  0  0
   20.9320   84.7250   17.6230 O   0  0  0  0  0  0  0  0  0  0  0  0
   18.1980   82.8690   21.8830 C   0  0  0  0  0  0  0  0  0  0  0  0
   22.5480   78.1890   14.4020 H   0  0  0  0  0  0  0  0  0  0  0  0
   21.0210   79.9810   14.7780 H   0  0  0  0  0  0  0  0  0  0  0  0
   23.4010   81.4080   17.9820 H   0  0  0  0  0  0  0  0  0  0  0  0
   25.0130   79.5230   17.5720 H   0  0  0  0  0  0  0  0  0  0  0  0
   20.4540   82.1730   15.8530 H   0  0  0  0  0  0  0  0  0  0  0  0
   21.7560   82.8680   16.7640 H   0  0  0  0  0  0  0  0  0  0  0  0
   21.8440   79.1050   19.1340 H   0  0  0  0  0  0  0  0  0  0  0  0
   21.7460   78.5170   17.4350 H   0  0  0  0  0  0  0  0  0  0  0  0
   20.6940   76.5610   17.9400 H   0  0  0  0  0  0  0  0  0  0  0  0
   21.5360   76.8560   19.4970 H   0  0  0  0  0  0  0  0  0  0  0  0
   19.3470   76.3250   19.9130 H   0  0  0  0  0  0  0  0  0  0  0  0
   17.6570   78.3120   19.4740 H   0  0  0  0  0  0  0  0  0  0  0  0
   17.7960   76.8720   18.4370 H   0  0  0  0  0  0  0  0  0  0  0  0
   19.3370   77.7460   16.9980 H   0  0  0  0  0  0  0  0  0  0  0  0
   18.1490   78.9970   17.0570 H   0  0  0  0  0  0  0  0  0  0  0  0
   20.0300   86.1760   19.4250 H   0  0  0  0  0  0  0  0  0  0  0  0
   18.8740   82.2820   22.5500 H   0  0  0  0  0  0  0  0  0  0  0  0
   17.3640   82.1850   21.5660 H   0  0  0  0  0  0  0  0  0  0  0  0
   17.7540   83.6610   22.4950 H   0  0  0  0  0  0  0  0  0  0  0  0
  1  2  1  0  0  0  0
  2  7  1  0  0  0  0
  3  4  1  0  0  0  0
  3  2  2  0  0  0  0
  4  5  2  0  0  0  0
  5  8  1  0  0  0  0
  5  6  1  0  0  0  0
  6 29  1  0  0  0  0
  7  6  2  0  0  0  0
  7 30  1  0  0  0  0
  8 32  1  0  0  0  0
  8  9  1  0  0  0  0
  9 13  1  0  0  0  0
  9 10  1  0  0  0  0
 10 11  2  0  0  0  0
 11 20  1  0  0  0  0
 12 11  1  0  0  0  0
 13 12  2  0  0  0  0
 14 15  1  0  0  0  0
 14 13  1  0  0  0  0
 15 16  1  0  0  0  0
 15 33  1  0  0  0  0
 16 36  1  0  0  0  0
 16 17  1  0  0  0  0
 17 37  1  0  0  0  0
 18 38  1  0  0  0  0
 18 17  1  0  0  0  0
 19 14  1  0  0  0  0
 19 18  1  0  0  0  0
 20 26  1  0  0  0  0
 21 20  1  0  0  0  0
 21 22  2  0  0  0  0
 23 21  1  0  0  0  0
 24 10  1  0  0  0  0
 24 23  1  0  0  0  0
 25 24  2  0  0  0  0
 26 45  1  0  0  0  0
 26 43  1  0  0  0  0
 27  3  1  0  0  0  0
 28  4  1  0  0  0  0
 31  8  1  0  0  0  0
 34 15  1  0  0  0  0
 35 16  1  0  0  0  0
 39 18  1  0  0  0  0
 40 19  1  0  0  0  0
 41 19  1  0  0  0  0
 42 23  1  0  0  0  0
 44 26  1  0  0  0  0
M  END
>  <Pose>
1

>  <Score>
-6.40

$$$$
