
 OpenBabel03222202113D

 50 53  0  0  1  0  0  0  0  0999 V2000
   27.6870   78.1150   17.1880 Cl  0  0  0  0  0  0  0  0  0  0  0  0
   26.0450   78.4630   16.7060 C   0  0  0  0  0  0  0  0  0  0  0  0
   25.2310   79.3210   17.4140 C   0  0  0  0  0  0  0  0  0  0  0  0
   23.9410   79.5490   16.9780 C   0  0  0  0  0  0  0  0  0  0  0  0
   23.4200   78.9550   15.8560 C   0  0  0  0  0  0  0  0  0  0  0  0
   24.2580   78.0890   15.1520 C   0  0  0  0  0  0  0  0  0  0  0  0
   25.5460   77.8570   15.5820 C   0  0  0  0  0  0  0  0  0  0  0  0
   22.0290   79.1980   15.4030 C   0  0  1  0  0  0  0  0  0  0  0  0
   21.5540   80.5060   15.8710 N   0  0  0  0  0  0  0  0  0  0  0  0
   22.3580   81.4600   15.2010 C   0  0  0  0  0  0  0  0  0  0  0  0
   22.6670   82.6020   15.6150 O   0  0  0  0  0  0  0  0  0  0  0  0
   22.7630   80.8530   13.9190 C   0  0  0  0  0  0  0  0  0  0  0  0
   23.4790   81.3570   13.0240 O   0  0  0  0  0  0  0  0  0  0  0  0
   22.1480   79.5340   13.9250 C   0  0  0  0  0  0  0  0  0  0  0  0
   21.7850   78.8350   12.9060 C   0  0  0  0  0  0  0  0  0  0  0  0
   21.1910   77.5840   13.0660 O   0  0  0  0  0  0  0  0  0  0  0  0
   21.9880   79.3330   11.5490 C   0  0  0  0  0  0  0  0  0  0  0  0
   21.4940   80.3370   10.9170 O   0  0  0  0  0  0  0  0  0  0  0  0
   21.9640   80.4020    9.7040 C   0  0  0  0  0  0  0  0  0  0  0  0
   22.8400   79.3670    9.5020 C   0  0  0  0  0  0  0  0  0  0  0  0
   22.8650   78.6710   10.6790 C   0  0  0  0  0  0  0  0  0  0  0  0
   20.4860   80.7390   16.8330 C   0  0  0  0  0  0  0  0  0  0  0  0
   20.5120   79.8220   18.0160 C   0  0  0  0  0  0  0  0  0  0  0  0
   19.4670   78.8600   18.0880 N   0  0  0  0  0  4  0  0  0  0  0  0
   19.5140   77.7850   17.1500 C   0  0  0  0  0  0  0  0  0  0  0  0
   20.7170   76.8850   17.3160 C   0  0  0  0  0  0  0  0  0  0  0  0
   20.7710   76.3620   18.6030 O   0  0  0  0  0  0  0  0  0  0  0  0
   20.6620   77.3520   19.5750 C   0  0  0  0  0  0  0  0  0  0  0  0
   19.4340   78.2100   19.4150 C   0  0  0  0  0  0  0  0  0  0  0  0
   25.6560   79.7800   18.2930 H   0  0  0  0  0  0  0  0  0  0  0  0
   23.3350   80.2320   17.5580 H   0  0  0  0  0  0  0  0  0  0  0  0
   23.8380   77.6120   14.2550 H   0  0  0  0  0  0  0  0  0  0  0  0
   26.1920   77.1820   15.0280 H   0  0  0  0  0  0  0  0  0  0  0  0
   21.3340   78.3860   15.5940 H   0  0  0  0  0  0  0  0  0  0  0  0
   21.7380   81.1370    8.9220 H   0  0  0  0  0  0  0  0  0  0  0  0
   23.4180   79.1160    8.6020 H   0  0  0  0  0  0  0  0  0  0  0  0
   23.4490   77.7910   10.8870 H   0  0  0  0  0  0  0  0  0  0  0  0
   19.4910   80.6940   16.3280 H   0  0  0  0  0  0  0  0  0  0  0  0
   20.6380   81.7970   17.1860 H   0  0  0  0  0  0  0  0  0  0  0  0
   21.5280   79.3870   18.1440 H   0  0  0  0  0  0  0  0  0  0  0  0
   20.3910   80.4880   18.9190 H   0  0  0  0  0  0  0  0  0  0  0  0
   18.5570   79.3540   17.9580 H   0  0  0  0  0  0  0  0  0  0  0  0
   18.6300   77.1230   17.4050 H   0  0  0  0  0  0  0  0  0  0  0  0
   19.3780   78.0500   16.1060 H   0  0  0  0  0  0  0  0  0  0  0  0
   20.5070   75.9980   16.6460 H   0  0  0  0  0  0  0  0  0  0  0  0
   21.6570   77.3220   16.9640 H   0  0  0  0  0  0  0  0  0  0  0  0
   21.5580   78.0120   19.5970 H   0  0  0  0  0  0  0  0  0  0  0  0
   20.5900   76.8320   20.5530 H   0  0  0  0  0  0  0  0  0  0  0  0
   18.5510   77.5500   19.4310 H   0  0  0  0  0  0  0  0  0  0  0  0
   19.4550   78.9530   20.2320 H   0  0  0  0  0  0  0  0  0  0  0  0
  2  1  1  0  0  0  0
  2  3  1  0  0  0  0
  3 30  1  0  0  0  0
  4  3  2  0  0  0  0
  4 31  1  0  0  0  0
  5  4  1  0  0  0  0
  6  7  1  0  0  0  0
  6  5  2  0  0  0  0
  7  2  2  0  0  0  0
  8 34  1  1  0  0  0
  8  5  1  0  0  0  0
  8  9  1  0  0  0  0
  9 22  1  0  0  0  0
 10 11  2  0  0  0  0
 10  9  1  0  0  0  0
 12 14  1  0  0  0  0
 12 10  1  0  0  0  0
 13 12  2  0  0  0  0
 14  8  1  0  0  0  0
 15 16  1  0  0  0  0
 15 14  2  0  0  0  0
 17 15  1  0  0  0  0
 18 17  1  0  0  0  0
 19 18  1  0  0  0  0
 20 19  2  0  0  0  0
 20 21  1  0  0  0  0
 21 37  1  0  0  0  0
 21 17  2  0  0  0  0
 22 39  1  0  0  0  0
 22 23  1  0  0  0  0
 23 24  1  0  0  0  0
 23 40  1  0  0  0  0
 23 41  1  0  0  0  0
 24 29  1  0  0  0  0
 25 26  1  0  0  0  0
 25 43  1  0  0  0  0
 25 24  1  0  0  0  0
 26 27  1  0  0  0  0
 27 28  1  0  0  0  0
 28 47  1  0  0  0  0
 28 48  1  0  0  0  0
 29 49  1  0  0  0  0
 29 28  1  0  0  0  0
 29 50  1  0  0  0  0
 32  6  1  0  0  0  0
 33  7  1  0  0  0  0
 35 19  1  0  0  0  0
 36 20  1  0  0  0  0
 38 22  1  0  0  0  0
 42 24  1  0  0  0  0
 44 25  1  0  0  0  0
 45 26  1  0  0  0  0
 46 26  1  0  0  0  0
M  END
>  <Pose>
1

>  <Score>
-5.58

$$$$
