
 OpenBabel03222202113D

 34 37  0  0  1  0  0  0  0  0999 V2000
   19.1900   78.3440    7.4690 Cl  0  0  0  0  0  0  0  0  0  0  0  0
   20.0140   78.4440    9.0210 C   0  0  0  0  0  0  0  0  0  0  0  0
   19.3620   78.1570   10.1950 C   0  0  0  0  0  0  0  0  0  0  0  0
   20.0140   78.2370   11.4050 C   0  0  0  0  0  0  0  0  0  0  0  0
   21.3420   78.6080   11.5040 C   0  0  0  0  0  0  0  0  0  0  0  0
   21.9780   78.8910   10.3160 C   0  0  0  0  0  0  0  0  0  0  0  0
   21.3460   78.8170    9.0970 C   0  0  0  0  0  0  0  0  0  0  0  0
   21.9690   78.6780   12.7790 N   0  0  0  0  0  0  0  0  0  0  0  0
   21.9040   77.7220   13.8470 C   0  0  0  0  0  0  0  0  0  0  0  0
   20.9180   76.9150   13.9700 O   0  0  0  0  0  0  0  0  0  0  0  0
   23.1000   77.8500   14.6950 C   0  0  1  0  0  0  0  0  0  0  0  0
   23.5990   79.2370   14.3690 C   0  0  2  0  0  0  0  0  0  0  0  0
   23.5200   80.0930   15.6140 C   0  0  2  0  0  0  0  0  0  0  0  0
   24.5610   79.5050   16.5780 C   0  0  0  0  0  0  0  0  0  0  0  0
   24.0690   78.1220   16.8950 C   0  0  0  0  0  0  0  0  0  0  0  0
   24.6430   77.4410   17.7010 O   0  0  0  0  0  0  0  0  0  0  0  0
   22.8440   77.6650   16.1520 C   0  0  1  0  0  0  0  0  0  0  0  0
   21.7150   78.5910   16.6180 C   0  0  0  0  0  0  0  0  0  0  0  0
   22.1810   79.9830   16.2890 C   0  0  0  0  0  0  0  0  0  0  0  0
   21.4950   80.9270   16.5670 O   0  0  0  0  0  0  0  0  0  0  0  0
   22.8010   79.7300   13.2470 C   0  0  0  0  0  0  0  0  0  0  0  0
   22.8450   80.8890   12.7770 O   0  0  0  0  0  0  0  0  0  0  0  0
   18.3290   77.8670   10.1440 H   0  0  0  0  0  0  0  0  0  0  0  0
   19.5010   78.0090   12.3480 H   0  0  0  0  0  0  0  0  0  0  0  0
   23.0150   79.1860   10.3310 H   0  0  0  0  0  0  0  0  0  0  0  0
   21.8550   79.0430    8.1520 H   0  0  0  0  0  0  0  0  0  0  0  0
   23.8480   77.0680   14.3890 H   0  0  0  0  0  0  0  0  0  0  0  0
   24.6760   79.1580   14.1010 H   0  0  0  0  0  0  0  0  0  0  0  0
   23.7270   81.1540   15.3910 H   0  0  0  0  0  0  0  0  0  0  0  0
   25.4850   79.3560   15.9570 H   0  0  0  0  0  0  0  0  0  0  0  0
   24.7070   80.1220   17.4610 H   0  0  0  0  0  0  0  0  0  0  0  0
   22.6540   76.6170   16.3810 H   0  0  0  0  0  0  0  0  0  0  0  0
   21.6440   78.4370   17.7280 H   0  0  0  0  0  0  0  0  0  0  0  0
   20.7640   78.3560   16.1300 H   0  0  0  0  0  0  0  0  0  0  0  0
  1  2  1  0  0  0  0
  2  7  2  0  0  0  0
  2  3  1  0  0  0  0
  3  4  2  0  0  0  0
  4  5  1  0  0  0  0
  4 24  1  0  0  0  0
  5  8  1  0  0  0  0
  6 25  1  0  0  0  0
  6  5  2  0  0  0  0
  7  6  1  0  0  0  0
  8 21  1  0  0  0  0
  8  9  1  0  0  0  0
  9 10  2  0  0  0  0
  9 11  1  0  0  0  0
 11 27  1  6  0  0  0
 11 17  1  0  0  0  0
 12 28  1  6  0  0  0
 12 11  1  0  0  0  0
 12 13  1  0  0  0  0
 13 29  1  6  0  0  0
 13 19  1  0  0  0  0
 13 14  1  0  0  0  0
 14 15  1  0  0  0  0
 14 31  1  0  0  0  0
 15 16  2  0  0  0  0
 17 32  1  1  0  0  0
 17 18  1  0  0  0  0
 17 15  1  0  0  0  0
 18 33  1  0  0  0  0
 19 20  2  0  0  0  0
 19 18  1  0  0  0  0
 21 12  1  0  0  0  0
 22 21  2  0  0  0  0
 23  3  1  0  0  0  0
 26  7  1  0  0  0  0
 30 14  1  0  0  0  0
 34 18  1  0  0  0  0
M  END
>  <Pose>
1

>  <Score>
-5.16

$$$$
