
 OpenBabel03222202113D

 47 51  0  0  1  0  0  0  0  0999 V2000
   17.8380   78.0200    7.1140 Cl  0  0  0  0  0  0  0  0  0  0  0  0
   18.8720   78.3710    8.4880 C   0  0  0  0  0  0  0  0  0  0  0  0
   18.4420   79.2370    9.4630 C   0  0  0  0  0  0  0  0  0  0  0  0
   19.2730   79.5140   10.5420 C   0  0  0  0  0  0  0  0  0  0  0  0
   20.5160   78.9640   10.6930 C   0  0  0  0  0  0  0  0  0  0  0  0
   20.9190   78.1010    9.7030 C   0  0  0  0  0  0  0  0  0  0  0  0
   20.1040   77.8040    8.6060 C   0  0  0  0  0  0  0  0  0  0  0  0
   21.3560   79.2450   11.7760 N   0  0  0  0  0  0  0  0  0  0  0  0
   21.6040   78.4580   12.9620 C   0  0  0  0  0  0  0  0  0  0  0  0
   21.0650   77.3840   13.2460 O   0  0  0  0  0  0  0  0  0  0  0  0
   22.6100   79.1300   13.7950 C   0  0  2  0  0  0  0  0  0  0  0  0
   22.2790   79.2330   15.2650 C   0  0  2  0  0  0  0  0  0  0  0  0
   21.6090   80.4930   15.4790 N   0  0  0  0  0  0  0  0  0  0  0  0
   21.2470   80.9880   14.1660 C   0  0  2  0  0  0  0  0  0  0  0  0
   22.4540   80.5660   13.3520 C   0  0  2  0  0  0  0  0  0  0  0  0
   22.1740   80.4180   11.9120 C   0  0  0  0  0  0  0  0  0  0  0  0
   22.5960   81.1890   11.0450 O   0  0  0  0  0  0  0  0  0  0  0  0
   21.0710   82.4840   14.1480 C   0  0  0  0  0  0  0  0  0  0  0  0
   19.7290   82.9260   13.7830 C   0  0  0  0  0  0  0  0  0  0  0  0
   19.0580   83.6280   14.5650 O   0  0  0  0  0  0  0  0  0  0  0  0
   19.1780   82.5590   12.5340 N   0  0  0  0  0  0  0  0  0  0  0  0
   23.6110   79.1890   15.9630 C   0  0  0  0  0  0  0  0  0  0  0  0
   23.6910   77.9970   16.6250 C   0  0  0  0  0  0  0  0  0  0  0  0
   24.8440   77.6200   17.3320 C   0  0  0  0  0  0  0  0  0  0  0  0
   25.9350   78.4620   17.3740 C   0  0  0  0  0  0  0  0  0  0  0  0
   25.8550   79.6590   16.7130 C   0  0  0  0  0  0  0  0  0  0  0  0
   24.7150   80.0130   16.0220 C   0  0  0  0  0  0  0  0  0  0  0  0
   22.4620   77.2920   16.5540 N   0  0  0  0  0  0  0  0  0  0  0  0
   21.5620   78.0970   15.8080 C   0  0  0  0  0  0  0  0  0  0  0  0
   20.3500   77.8270   15.6740 O   0  0  0  0  0  0  0  0  0  0  0  0
   17.4580   79.7040    9.3920 H   0  0  0  0  0  0  0  0  0  0  0  0
   18.8860   80.1900   11.2590 H   0  0  0  0  0  0  0  0  0  0  0  0
   21.8660   77.6130    9.7140 H   0  0  0  0  0  0  0  0  0  0  0  0
   20.4410   77.1170    7.8300 H   0  0  0  0  0  0  0  0  0  0  0  0
   23.6370   78.7520   13.6120 H   0  0  0  0  0  0  0  0  0  0  0  0
   20.7620   80.3070   16.0670 H   0  0  0  0  0  0  0  0  0  0  0  0
   20.3740   80.4390   13.7500 H   0  0  0  0  0  0  0  0  0  0  0  0
   23.3350   81.1960   13.5550 H   0  0  0  0  0  0  0  0  0  0  0  0
   21.7920   82.8720   13.3670 H   0  0  0  0  0  0  0  0  0  0  0  0
   21.4410   82.8800   15.1170 H   0  0  0  0  0  0  0  0  0  0  0  0
   18.7590   83.2340   11.8500 H   0  0  0  0  0  0  0  0  0  0  0  0
   19.1510   81.5540   12.1910 H   0  0  0  0  0  0  0  0  0  0  0  0
   24.8990   76.6710   17.8530 H   0  0  0  0  0  0  0  0  0  0  0  0
   26.8200   78.1420   17.9280 H   0  0  0  0  0  0  0  0  0  0  0  0
   26.6920   80.3300   16.7360 H   0  0  0  0  0  0  0  0  0  0  0  0
   24.6680   80.9680   15.5080 H   0  0  0  0  0  0  0  0  0  0  0  0
   22.2540   76.3370   16.9800 H   0  0  0  0  0  0  0  0  0  0  0  0
  1  2  1  0  0  0  0
  2  7  2  0  0  0  0
  2  3  1  0  0  0  0
  3  4  2  0  0  0  0
  4  5  1  0  0  0  0
  4 32  1  0  0  0  0
  5  8  1  0  0  0  0
  6 33  1  0  0  0  0
  6  5  2  0  0  0  0
  7  6  1  0  0  0  0
  8 16  1  0  0  0  0
  8  9  1  0  0  0  0
  9 10  2  0  0  0  0
  9 11  1  0  0  0  0
 11 35  1  6  0  0  0
 11 12  1  0  0  0  0
 12 13  1  0  0  0  0
 12 29  1  1  0  0  0
 12 22  1  0  0  0  0
 13 36  1  0  0  0  0
 14 37  1  6  0  0  0
 14 13  1  0  0  0  0
 15 38  1  1  0  0  0
 15 11  1  0  0  0  0
 15 14  1  0  0  0  0
 16 15  1  0  0  0  0
 17 16  2  0  0  0  0
 18 14  1  0  0  0  0
 18 40  1  0  0  0  0
 19 18  1  0  0  0  0
 19 20  2  0  0  0  0
 21 19  1  0  0  0  0
 22 27  2  0  0  0  0
 22 23  1  0  0  0  0
 23 24  2  0  0  0  0
 24 25  1  0  0  0  0
 24 43  1  0  0  0  0
 25 44  1  0  0  0  0
 26 45  1  0  0  0  0
 26 25  2  0  0  0  0
 27 26  1  0  0  0  0
 28 23  1  0  0  0  0
 28 47  1  0  0  0  0
 29 28  1  0  0  0  0
 30 29  2  0  0  0  0
 31  3  1  0  0  0  0
 34  7  1  0  0  0  0
 39 18  1  0  0  0  0
 41 21  1  0  0  0  0
 42 21  1  0  0  0  0
 46 27  1  0  0  0  0
M  END
>  <Pose>
1

>  <Score>
-4.74

$$$$
