
 OpenBabel03222202113D

 40 43  0  0  0  0  0  0  0  0999 V2000
   17.5400   73.4570   12.3020 Cl  0  0  0  0  0  0  0  0  0  0  0  0
   18.6970   74.7300   12.6380 C   0  0  0  0  0  0  0  0  0  0  0  0
   18.8130   75.8370   11.8290 C   0  0  0  0  0  0  0  0  0  0  0  0
   19.7400   76.8450   12.1080 C   0  0  0  0  0  0  0  0  0  0  0  0
   20.5450   76.7030   13.2280 C   0  0  0  0  0  0  0  0  0  0  0  0
   20.4410   75.6040   14.0460 C   0  0  0  0  0  0  0  0  0  0  0  0
   19.5280   74.6210   13.7600 C   0  0  0  0  0  0  0  0  0  0  0  0
   21.5370   77.7410   13.5630 C   0  0  0  0  0  0  0  0  0  0  0  0
   22.3910   77.8580   14.5220 N   0  0  0  0  0  0  0  0  0  0  0  0
   23.1590   79.0690   14.4320 C   0  0  0  0  0  0  0  0  0  0  0  0
   22.6360   79.7450   13.2020 C   0  0  0  0  0  0  0  0  0  0  0  0
   21.6180   78.8600   12.7020 N   0  0  0  0  0  0  0  0  0  0  0  0
   20.7780   78.9760   11.5610 C   0  0  0  0  0  0  0  0  0  0  0  0
   20.8350   79.9680   10.7800 O   0  0  0  0  0  0  0  0  0  0  0  0
   19.8090   77.9640   11.2320 N   0  0  0  0  0  0  0  0  0  0  0  0
   18.9590   78.1050   10.0580 C   0  0  0  0  0  0  0  0  0  0  0  0
   19.3270   77.1240    9.0110 C   0  0  0  0  0  0  0  0  0  0  0  0
   20.5090   77.1240    8.5880 O   0  0  0  0  0  0  0  0  0  0  0  0
   18.4110   76.1900    8.4690 N   0  0  0  0  0  0  0  0  0  0  0  0
   18.6920   75.4570    7.2590 C   0  0  0  0  0  0  0  0  0  0  0  0
   17.5710   75.6420    6.2710 C   0  0  0  0  0  0  0  0  0  0  0  0
   16.7520   74.4680    5.8650 C   0  0  0  0  0  0  0  0  0  0  0  0
   17.7470   75.0220    4.9170 C   0  0  0  0  0  0  0  0  0  0  0  0
   18.1790   75.9480   10.9500 H   0  0  0  0  0  0  0  0  0  0  0  0
   21.0670   75.5050   14.9060 H   0  0  0  0  0  0  0  0  0  0  0  0
   19.3980   73.7230   14.3730 H   0  0  0  0  0  0  0  0  0  0  0  0
   24.2520   78.8810   14.3770 H   0  0  0  0  0  0  0  0  0  0  0  0
   22.9350   79.7410   15.3060 H   0  0  0  0  0  0  0  0  0  0  0  0
   22.2310   80.7670   13.4200 H   0  0  0  0  0  0  0  0  0  0  0  0
   23.4840   79.8160   12.4800 H   0  0  0  0  0  0  0  0  0  0  0  0
   18.8560   79.1340    9.7040 H   0  0  0  0  0  0  0  0  0  0  0  0
   17.9270   77.8000   10.4070 H   0  0  0  0  0  0  0  0  0  0  0  0
   17.5150   76.0420    8.9750 H   0  0  0  0  0  0  0  0  0  0  0  0
   18.8400   74.3680    7.5070 H   0  0  0  0  0  0  0  0  0  0  0  0
   19.6400   75.8260    6.8360 H   0  0  0  0  0  0  0  0  0  0  0  0
   17.1560   76.6710    6.2440 H   0  0  0  0  0  0  0  0  0  0  0  0
   16.9440   73.4970    6.3750 H   0  0  0  0  0  0  0  0  0  0  0  0
   15.6650   74.6520    5.7070 H   0  0  0  0  0  0  0  0  0  0  0  0
   18.6750   74.4210    4.7770 H   0  0  0  0  0  0  0  0  0  0  0  0
   17.3690   75.5700    4.0250 H   0  0  0  0  0  0  0  0  0  0  0  0
  1  2  1  0  0  0  0
  2  7  1  0  0  0  0
  3  4  1  0  0  0  0
  3  2  2  0  0  0  0
  4  5  2  0  0  0  0
  5  8  1  0  0  0  0
  5  6  1  0  0  0  0
  6 25  1  0  0  0  0
  7  6  2  0  0  0  0
  7 26  1  0  0  0  0
  8  9  2  0  0  0  0
 10  9  1  0  0  0  0
 10 28  1  0  0  0  0
 11 29  1  0  0  0  0
 11 10  1  0  0  0  0
 12 11  1  0  0  0  0
 12  8  1  0  0  0  0
 13 12  1  0  0  0  0
 14 13  2  0  0  0  0
 15 13  1  0  0  0  0
 15  4  1  0  0  0  0
 16 32  1  0  0  0  0
 16 15  1  0  0  0  0
 17 16  1  0  0  0  0
 18 17  2  0  0  0  0
 19 33  1  0  0  0  0
 19 17  1  0  0  0  0
 20 34  1  0  0  0  0
 20 19  1  0  0  0  0
 21 20  1  0  0  0  0
 22 21  1  0  0  0  0
 22 37  1  0  0  0  0
 23 22  1  0  0  0  0
 23 21  1  0  0  0  0
 24  3  1  0  0  0  0
 27 10  1  0  0  0  0
 30 11  1  0  0  0  0
 31 16  1  0  0  0  0
 35 20  1  0  0  0  0
 36 21  1  0  0  0  0
 38 22  1  0  0  0  0
 39 23  1  0  0  0  0
 40 23  1  0  0  0  0
M  END
>  <Pose>
1

>  <Score>
-5.58

$$$$
