
 OpenBabel03222202113D

 63 66  0  0  1  0  0  0  0  0999 V2000
   16.4290   70.6280   11.9320 Cl  0  0  0  0  0  0  0  0  0  0  0  0
   17.6290   71.7930   12.4430 C   0  0  0  0  0  0  0  0  0  0  0  0
   18.8350   71.4310   12.9950 C   0  0  0  0  0  0  0  0  0  0  0  0
   19.7470   72.3900   13.3820 C   0  0  0  0  0  0  0  0  0  0  0  0
   19.5040   73.7640   13.2400 C   0  0  0  0  0  0  0  0  0  0  0  0
   18.2920   74.0950   12.6840 C   0  0  0  0  0  0  0  0  0  0  0  0
   17.3620   73.1230   12.2890 C   0  0  0  0  0  0  0  0  0  0  0  0
   20.5250   74.7120   13.6260 C   0  0  0  0  0  0  0  0  0  0  0  0
   20.3030   75.7070   14.4690 C   0  0  0  0  0  0  0  0  0  0  0  0
   21.3230   76.7290   14.9030 C   0  0  2  0  0  0  0  0  0  0  0  0
   20.7450   77.3920   16.0350 N   0  0  0  0  0  0  0  0  0  0  0  0
   19.3700   77.0600   16.1630 C   0  0  0  0  0  0  0  0  0  0  0  0
   18.5510   77.5600   16.9480 O   0  0  0  0  0  0  0  0  0  0  0  0
   19.0930   75.9930   15.1740 C   0  0  0  0  0  0  0  0  0  0  0  0
   17.9740   75.4530   15.0120 O   0  0  0  0  0  0  0  0  0  0  0  0
   21.4620   78.2760   16.9480 C   0  0  0  0  0  0  0  0  0  0  0  0
   22.4370   77.4870   17.7520 C   0  0  0  0  0  0  0  0  0  0  0  0
   23.8240   77.8720   17.4460 N   0  0  0  0  0  4  0  0  0  0  0  0
   23.8470   79.2800   17.1960 C   0  0  0  0  0  0  0  0  0  0  0  0
   25.1310   79.7130   16.4930 C   0  0  0  0  0  0  0  0  0  0  0  0
   25.1940   78.9690   15.3020 O   0  0  0  0  0  0  0  0  0  0  0  0
   25.4580   77.6610   15.6510 C   0  0  0  0  0  0  0  0  0  0  0  0
   24.2290   77.0700   16.3120 C   0  0  0  0  0  0  0  0  0  0  0  0
   21.5460   77.6230   13.7340 C   0  0  0  0  0  0  0  0  0  0  0  0
   22.6240   78.4610   13.7110 C   0  0  0  0  0  0  0  0  0  0  0  0
   22.8280   79.2690   12.6290 C   0  0  0  0  0  0  0  0  0  0  0  0
   21.9720   79.2660   11.5490 C   0  0  0  0  0  0  0  0  0  0  0  0
   20.8800   78.4180   11.5710 C   0  0  0  0  0  0  0  0  0  0  0  0
   20.6780   77.5990   12.6720 C   0  0  0  0  0  0  0  0  0  0  0  0
   22.1870   80.0920   10.4510 O   0  0  0  0  0  0  0  0  0  0  0  0
   23.0150   79.6010    9.3870 C   0  0  0  0  0  0  0  0  0  0  0  0
   22.9630   80.5940    8.2280 C   0  0  0  0  0  0  0  0  0  0  0  0
   24.1460   80.2810    7.3230 C   0  0  0  0  0  0  0  0  0  0  0  0
   21.8390   74.6200   13.1080 O   0  0  0  0  0  0  0  0  0  0  0  0
   19.0350   70.3770   13.1120 H   0  0  0  0  0  0  0  0  0  0  0  0
   20.6930   72.0880   13.8150 H   0  0  0  0  0  0  0  0  0  0  0  0
   18.0560   75.1390   12.5190 H   0  0  0  0  0  0  0  0  0  0  0  0
   16.4130   73.4380   11.8550 H   0  0  0  0  0  0  0  0  0  0  0  0
   22.2710   76.2100   15.1600 H   0  0  0  0  0  0  0  0  0  0  0  0
   20.7140   78.7430   17.6290 H   0  0  0  0  0  0  0  0  0  0  0  0
   21.9580   79.0640   16.3600 H   0  0  0  0  0  0  0  0  0  0  0  0
   22.3660   76.4060   17.5440 H   0  0  0  0  0  0  0  0  0  0  0  0
   22.2890   77.6930   18.8430 H   0  0  0  0  0  0  0  0  0  0  0  0
   24.4530   77.6550   18.2620 H   0  0  0  0  0  0  0  0  0  0  0  0
   23.8280   79.7900   18.1980 H   0  0  0  0  0  0  0  0  0  0  0  0
   23.0030   79.6090   16.5560 H   0  0  0  0  0  0  0  0  0  0  0  0
   25.9570   79.4570   17.1800 H   0  0  0  0  0  0  0  0  0  0  0  0
   25.0550   80.7760   16.2600 H   0  0  0  0  0  0  0  0  0  0  0  0
   25.6550   77.0570   14.7500 H   0  0  0  0  0  0  0  0  0  0  0  0
   26.2910   77.5630   16.3610 H   0  0  0  0  0  0  0  0  0  0  0  0
   24.4910   76.0640   16.7000 H   0  0  0  0  0  0  0  0  0  0  0  0
   23.3740   77.0110   15.6120 H   0  0  0  0  0  0  0  0  0  0  0  0
   23.3260   78.5010   14.5340 H   0  0  0  0  0  0  0  0  0  0  0  0
   23.6800   79.9400   12.5970 H   0  0  0  0  0  0  0  0  0  0  0  0
   20.2220   78.4290   10.7150 H   0  0  0  0  0  0  0  0  0  0  0  0
   19.7980   76.9530   12.6310 H   0  0  0  0  0  0  0  0  0  0  0  0
   24.0590   79.5280    9.7260 H   0  0  0  0  0  0  0  0  0  0  0  0
   22.6650   78.6030    9.0680 H   0  0  0  0  0  0  0  0  0  0  0  0
   22.0340   80.3940    7.6570 H   0  0  0  0  0  0  0  0  0  0  0  0
   22.9990   81.6340    8.6040 H   0  0  0  0  0  0  0  0  0  0  0  0
   23.8850   80.4720    6.2750 H   0  0  0  0  0  0  0  0  0  0  0  0
   24.4430   79.2080    7.3950 H   0  0  0  0  0  0  0  0  0  0  0  0
   24.9850   80.9360    7.6320 H   0  0  0  0  0  0  0  0  0  0  0  0
  1  2  1  0  0  0  0
  2  3  1  0  0  0  0
  3 35  1  0  0  0  0
  3  4  2  0  0  0  0
  4 36  1  0  0  0  0
  5  4  1  0  0  0  0
  5  8  1  0  0  0  0
  6  5  2  0  0  0  0
  7  2  2  0  0  0  0
  7  6  1  0  0  0  0
  8  9  2  0  0  0  0
  9 10  1  0  0  0  0
  9 14  1  0  0  0  0
 10 39  1  1  0  0  0
 10 11  1  0  0  0  0
 11 12  1  0  0  0  0
 11 16  1  0  0  0  0
 12 13  2  0  0  0  0
 14 12  1  0  0  0  0
 15 14  2  0  0  0  0
 16 40  1  0  0  0  0
 16 17  1  0  0  0  0
 17 43  1  0  0  0  0
 18 17  1  0  0  0  0
 18 44  1  0  0  0  0
 19 18  1  0  0  0  0
 19 45  1  0  0  0  0
 20 47  1  0  0  0  0
 20 19  1  0  0  0  0
 21 22  1  0  0  0  0
 21 20  1  0  0  0  0
 22 23  1  0  0  0  0
 22 50  1  0  0  0  0
 23 51  1  0  0  0  0
 23 18  1  0  0  0  0
 24 10  1  0  0  0  0
 25 24  1  0  0  0  0
 25 53  1  0  0  0  0
 26 25  2  0  0  0  0
 27 28  2  0  0  0  0
 27 26  1  0  0  0  0
 28 29  1  0  0  0  0
 29 24  2  0  0  0  0
 30 27  1  0  0  0  0
 31 57  1  0  0  0  0
 31 30  1  0  0  0  0
 32 60  1  0  0  0  0
 32 31  1  0  0  0  0
 33 62  1  0  0  0  0
 33 63  1  0  0  0  0
 33 32  1  0  0  0  0
 34  8  1  0  0  0  0
 37  6  1  0  0  0  0
 38  7  1  0  0  0  0
 41 16  1  0  0  0  0
 42 17  1  0  0  0  0
 46 19  1  0  0  0  0
 48 20  1  0  0  0  0
 49 22  1  0  0  0  0
 52 23  1  0  0  0  0
 54 26  1  0  0  0  0
 55 28  1  0  0  0  0
 56 29  1  0  0  0  0
 58 31  1  0  0  0  0
 59 32  1  0  0  0  0
 61 33  1  0  0  0  0
M  END
>  <Pose>
1

>  <Score>
-5.35

$$$$
