
 OpenBabel03222202113D

 57 61  0  0  1  0  0  0  0  0999 V2000
   17.3620   74.5450    4.8270 Cl  0  0  0  0  0  0  0  0  0  0  0  0
   18.0300   75.2100    6.3080 C   0  0  0  0  0  0  0  0  0  0  0  0
   18.9130   74.5010    7.0990 C   0  0  0  0  0  0  0  0  0  0  0  0
   19.4280   75.0290    8.2530 C   0  0  0  0  0  0  0  0  0  0  0  0
   19.0860   76.3100    8.6840 C   0  0  0  0  0  0  0  0  0  0  0  0
   18.2100   77.0260    7.9060 C   0  0  0  0  0  0  0  0  0  0  0  0
   17.7070   76.4730    6.7530 C   0  0  0  0  0  0  0  0  0  0  0  0
   19.6790   76.8700    9.9320 C   0  0  1  0  0  0  0  0  0  0  0  0
   19.4520   78.2210    9.9690 O   0  0  0  0  0  0  0  0  0  0  0  0
   19.2370   76.1410   11.1730 C   0  0  2  0  0  0  0  0  0  0  0  0
   19.6330   76.9860   12.2920 N   0  0  0  0  0  0  0  0  0  0  0  0
   20.1000   76.1000   13.3390 C   0  0  1  0  0  0  0  0  0  0  0  0
   20.7210   74.9750   12.5630 C   0  0  2  0  0  0  0  0  0  0  0  0
   19.8550   74.8050   11.3550 C   0  0  1  0  0  0  0  0  0  0  0  0
   18.8720   73.7430   11.7040 C   0  0  0  0  0  0  0  0  0  0  0  0
   17.8160   73.4700   11.0850 O   0  0  0  0  0  0  0  0  0  0  0  0
   19.3780   73.0940   12.8910 N   0  0  0  0  0  0  0  0  0  0  0  0
   20.6300   73.6590   13.2200 C   0  0  0  0  0  0  0  0  0  0  0  0
   21.5240   73.1550   13.9420 O   0  0  0  0  0  0  0  0  0  0  0  0
   18.7040   72.0560   13.6140 C   0  0  0  0  0  0  0  0  0  0  0  0
   18.2160   70.9120   12.8070 C   0  0  0  0  0  0  0  0  0  0  0  0
   16.7860   70.9430   12.3960 C   0  0  0  0  0  0  0  0  0  0  0  0
   16.3380   69.7400   11.8670 O   0  0  0  0  0  0  0  0  0  0  0  0
   15.5770   69.9940   10.7070 C   0  0  0  0  0  0  0  0  0  0  0  0
   21.0860   76.7610   14.2290 C   0  0  0  0  0  0  0  0  0  0  0  0
   20.5340   76.7730   15.4890 C   0  0  0  0  0  0  0  0  0  0  0  0
   21.2560   77.3380   16.5310 C   0  0  0  0  0  0  0  0  0  0  0  0
   22.4990   77.8680   16.2780 C   0  0  0  0  0  0  0  0  0  0  0  0
   23.0630   77.8610   15.0130 C   0  0  0  0  0  0  0  0  0  0  0  0
   22.3350   77.2970   13.9870 C   0  0  0  0  0  0  0  0  0  0  0  0
   19.2300   76.1640   15.4870 N   0  0  0  0  0  0  0  0  0  0  0  0
   18.9550   75.7520   14.1610 C   0  0  0  0  0  0  0  0  0  0  0  0
   17.9000   75.1950   13.8150 O   0  0  0  0  0  0  0  0  0  0  0  0
   19.2010   73.4920    6.7880 H   0  0  0  0  0  0  0  0  0  0  0  0
   20.1320   74.4570    8.8790 H   0  0  0  0  0  0  0  0  0  0  0  0
   17.9010   78.0300    8.1620 H   0  0  0  0  0  0  0  0  0  0  0  0
   17.0070   77.0290    6.1190 H   0  0  0  0  0  0  0  0  0  0  0  0
   20.8090   76.6730    9.8170 H   0  0  0  0  0  0  0  0  0  0  0  0
   18.5280   78.3860    9.6500 H   0  0  0  0  0  0  0  0  0  0  0  0
   18.1090   76.1030   11.1970 H   0  0  0  0  0  0  0  0  0  0  0  0
   18.8470   77.5680   12.6020 H   0  0  0  0  0  0  0  0  0  0  0  0
   21.7660   75.2300   12.3020 H   0  0  0  0  0  0  0  0  0  0  0  0
   20.4220   74.4500   10.4790 H   0  0  0  0  0  0  0  0  0  0  0  0
   17.8660   72.5080   14.1780 H   0  0  0  0  0  0  0  0  0  0  0  0
   19.3750   71.6240   14.4130 H   0  0  0  0  0  0  0  0  0  0  0  0
   18.8130   70.9180   11.8450 H   0  0  0  0  0  0  0  0  0  0  0  0
   18.4710   69.9140   13.2510 H   0  0  0  0  0  0  0  0  0  0  0  0
   16.5420   71.7260   11.6590 H   0  0  0  0  0  0  0  0  0  0  0  0
   16.1840   71.1540   13.3140 H   0  0  0  0  0  0  0  0  0  0  0  0
   14.7010   70.6280   10.9340 H   0  0  0  0  0  0  0  0  0  0  0  0
   16.2180   70.5700   10.0050 H   0  0  0  0  0  0  0  0  0  0  0  0
   15.2950   69.0470   10.2070 H   0  0  0  0  0  0  0  0  0  0  0  0
   20.8200   77.3500   17.5410 H   0  0  0  0  0  0  0  0  0  0  0  0
   23.0530   78.3060   17.1060 H   0  0  0  0  0  0  0  0  0  0  0  0
   24.0450   78.2960   14.8880 H   0  0  0  0  0  0  0  0  0  0  0  0
   22.7740   77.2850   12.9780 H   0  0  0  0  0  0  0  0  0  0  0  0
   18.6420   76.0720   16.3470 H   0  0  0  0  0  0  0  0  0  0  0  0
  1  2  1  0  0  0  0
  2  7  2  0  0  0  0
  2  3  1  0  0  0  0
  3  4  2  0  0  0  0
  4  5  1  0  0  0  0
  4 35  1  0  0  0  0
  5  8  1  0  0  0  0
  6 36  1  0  0  0  0
  6  5  2  0  0  0  0
  7  6  1  0  0  0  0
  8 38  1  6  0  0  0
  8  9  1  0  0  0  0
  8 10  1  0  0  0  0
 10 40  1  6  0  0  0
 10 14  1  0  0  0  0
 10 11  1  0  0  0  0
 11 41  1  0  0  0  0
 11 12  1  0  0  0  0
 12 32  1  1  0  0  0
 12 25  1  0  0  0  0
 13 42  1  6  0  0  0
 13 18  1  0  0  0  0
 13 12  1  0  0  0  0
 14 43  1  6  0  0  0
 14 15  1  0  0  0  0
 14 13  1  0  0  0  0
 15 17  1  0  0  0  0
 16 15  2  0  0  0  0
 17 18  1  0  0  0  0
 17 20  1  0  0  0  0
 18 19  2  0  0  0  0
 20 44  1  0  0  0  0
 20 45  1  0  0  0  0
 21 47  1  0  0  0  0
 21 20  1  0  0  0  0
 22 21  1  0  0  0  0
 22 49  1  0  0  0  0
 23 22  1  0  0  0  0
 24 50  1  0  0  0  0
 24 23  1  0  0  0  0
 25 26  1  0  0  0  0
 26 27  2  0  0  0  0
 27 53  1  0  0  0  0
 28 27  1  0  0  0  0
 28 54  1  0  0  0  0
 29 28  2  0  0  0  0
 30 25  2  0  0  0  0
 30 29  1  0  0  0  0
 31 26  1  0  0  0  0
 31 57  1  0  0  0  0
 32 31  1  0  0  0  0
 33 32  2  0  0  0  0
 34  3  1  0  0  0  0
 37  7  1  0  0  0  0
 39  9  1  0  0  0  0
 46 21  1  0  0  0  0
 48 22  1  0  0  0  0
 51 24  1  0  0  0  0
 52 24  1  0  0  0  0
 55 29  1  0  0  0  0
 56 30  1  0  0  0  0
M  END
>  <Pose>
1

>  <Score>
-6.18

$$$$
