
 OpenBabel03222202113D

 52 55  0  0  0  0  0  0  0  0999 V2000
   16.2430   75.7330    4.8160 Cl  0  0  0  0  0  0  0  0  0  0  0  0
   17.3640   76.0210    6.1120 C   0  0  0  0  0  0  0  0  0  0  0  0
   18.1190   74.9760    6.6480 C   0  0  0  0  0  0  0  0  0  0  0  0
   19.0090   75.2130    7.6800 C   0  0  0  0  0  0  0  0  0  0  0  0
   19.1750   76.4920    8.2050 C   0  0  0  0  0  0  0  0  0  0  0  0
   18.4370   77.5180    7.6820 C   0  0  0  0  0  0  0  0  0  0  0  0
   17.5400   77.2770    6.6420 C   0  0  0  0  0  0  0  0  0  0  0  0
   20.1420   76.7020    9.3150 C   0  0  0  0  0  0  0  0  0  0  0  0
   19.8730   77.9610   10.0360 C   0  0  0  0  0  0  0  0  0  0  0  0
   18.7610   78.0720   10.6160 O   0  0  0  0  0  0  0  0  0  0  0  0
   20.7800   79.0300   10.1090 N   0  0  0  0  0  0  0  0  0  0  0  0
   20.4820   80.2260   10.9170 C   0  0  0  0  0  0  0  0  0  0  0  0
   21.7760   80.6880   11.5700 C   0  0  0  0  0  0  0  0  0  0  0  0
   22.6130   79.5140   11.7130 N   0  0  0  0  0  0  0  0  0  0  0  0
   23.1860   79.0050   10.4790 C   0  0  0  0  0  0  0  0  0  0  0  0
   22.0660   79.0730    9.4270 C   0  0  0  0  0  0  0  0  0  0  0  0
   22.8390   78.8990   12.9710 C   0  0  0  0  0  0  0  0  0  0  0  0
   24.1190   78.8320   13.4890 C   0  0  0  0  0  0  0  0  0  0  0  0
   24.3110   78.2240   14.6960 N   0  0  0  0  0  0  0  0  0  0  0  0
   23.3280   77.6920   15.3960 N   0  0  0  0  0  0  0  0  0  0  0  0
   22.0370   77.7230   14.9440 C   0  0  0  0  0  0  0  0  0  0  0  0
   21.8500   78.3310   13.7390 C   0  0  0  0  0  0  0  0  0  0  0  0
   21.0330   77.1320   15.7430 N   0  0  0  0  0  0  0  0  0  0  0  0
   20.1110   76.1610   15.1850 C   0  0  0  0  0  0  0  0  0  0  0  0
   18.6810   76.4570   15.6420 C   0  0  0  0  0  0  0  0  0  0  0  0
   18.6200   76.6930   17.0010 O   0  0  0  0  0  0  0  0  0  0  0  0
   19.3700   77.8260   17.2740 C   0  0  0  0  0  0  0  0  0  0  0  0
   20.8570   77.4520   17.1360 C   0  0  0  0  0  0  0  0  0  0  0  0
   17.9900   73.9950    6.2440 H   0  0  0  0  0  0  0  0  0  0  0  0
   19.6130   74.4220    8.1220 H   0  0  0  0  0  0  0  0  0  0  0  0
   18.5300   78.5410    8.0580 H   0  0  0  0  0  0  0  0  0  0  0  0
   16.9730   78.1050    6.2520 H   0  0  0  0  0  0  0  0  0  0  0  0
   21.1570   76.7720    8.8260 H   0  0  0  0  0  0  0  0  0  0  0  0
   20.1440   75.8310   10.0000 H   0  0  0  0  0  0  0  0  0  0  0  0
   19.7300   79.9100   11.6540 H   0  0  0  0  0  0  0  0  0  0  0  0
   20.0280   81.0150   10.2830 H   0  0  0  0  0  0  0  0  0  0  0  0
   21.6140   81.2160   12.5210 H   0  0  0  0  0  0  0  0  0  0  0  0
   22.3010   81.3900   10.8840 H   0  0  0  0  0  0  0  0  0  0  0  0
   23.5790   77.9910   10.5420 H   0  0  0  0  0  0  0  0  0  0  0  0
   23.9570   79.7350   10.1590 H   0  0  0  0  0  0  0  0  0  0  0  0
   22.1830   78.3140    8.6550 H   0  0  0  0  0  0  0  0  0  0  0  0
   22.1020   80.0640    8.9170 H   0  0  0  0  0  0  0  0  0  0  0  0
   24.9770   79.2300   13.0040 H   0  0  0  0  0  0  0  0  0  0  0  0
   20.8530   78.3780   13.3390 H   0  0  0  0  0  0  0  0  0  0  0  0
   20.1030   76.1670   14.0760 H   0  0  0  0  0  0  0  0  0  0  0  0
   20.3590   75.1650   15.5940 H   0  0  0  0  0  0  0  0  0  0  0  0
   18.0640   75.5830   15.3950 H   0  0  0  0  0  0  0  0  0  0  0  0
   18.2560   77.3160   15.0960 H   0  0  0  0  0  0  0  0  0  0  0  0
   19.1610   78.2660   18.2520 H   0  0  0  0  0  0  0  0  0  0  0  0
   19.1890   78.5610   16.4400 H   0  0  0  0  0  0  0  0  0  0  0  0
   21.4770   78.2460   17.5330 H   0  0  0  0  0  0  0  0  0  0  0  0
   20.9890   76.4940   17.7110 H   0  0  0  0  0  0  0  0  0  0  0  0
  1  2  1  0  0  0  0
  2  7  2  0  0  0  0
  2  3  1  0  0  0  0
  3  4  2  0  0  0  0
  4 30  1  0  0  0  0
  4  5  1  0  0  0  0
  5  8  1  0  0  0  0
  6 31  1  0  0  0  0
  6  5  2  0  0  0  0
  7  6  1  0  0  0  0
  8 34  1  0  0  0  0
  8  9  1  0  0  0  0
  9 11  1  0  0  0  0
  9 10  2  0  0  0  0
 11 12  1  0  0  0  0
 12 13  1  0  0  0  0
 12 35  1  0  0  0  0
 13 14  1  0  0  0  0
 13 37  1  0  0  0  0
 14 17  1  0  0  0  0
 15 39  1  0  0  0  0
 15 14  1  0  0  0  0
 16 11  1  0  0  0  0
 16 15  1  0  0  0  0
 17 18  2  0  0  0  0
 17 22  1  0  0  0  0
 18 19  1  0  0  0  0
 19 20  2  0  0  0  0
 21 20  1  0  0  0  0
 21 23  1  0  0  0  0
 22 21  2  0  0  0  0
 23 28  1  0  0  0  0
 24 46  1  0  0  0  0
 24 25  1  0  0  0  0
 24 23  1  0  0  0  0
 25 26  1  0  0  0  0
 26 27  1  0  0  0  0
 27 49  1  0  0  0  0
 28 27  1  0  0  0  0
 28 51  1  0  0  0  0
 28 52  1  0  0  0  0
 29  3  1  0  0  0  0
 32  7  1  0  0  0  0
 33  8  1  0  0  0  0
 36 12  1  0  0  0  0
 38 13  1  0  0  0  0
 40 15  1  0  0  0  0
 41 16  1  0  0  0  0
 42 16  1  0  0  0  0
 43 18  1  0  0  0  0
 44 22  1  0  0  0  0
 45 24  1  0  0  0  0
 47 25  1  0  0  0  0
 48 25  1  0  0  0  0
 50 27  1  0  0  0  0
M  END
>  <Pose>
1

>  <Score>
-6.49

$$$$
