
 OpenBabel03222202113D

 37 40  0  0  0  0  0  0  0  0999 V2000
   17.5110   75.6550   13.5410 F   0  0  0  0  0  0  0  0  0  0  0  0
   18.5620   74.8010   13.6100 C   0  0  0  0  0  0  0  0  0  0  0  0
   18.4820   73.5140   13.1520 N   0  0  0  0  0  0  0  0  0  0  0  0
   19.6910   72.9790   13.3850 C   0  0  0  0  0  0  0  0  0  0  0  0
   20.4810   73.8990   13.9630 N   0  0  0  0  0  0  0  0  0  0  0  0
   19.8090   75.0560   14.1210 C   0  0  0  0  0  0  0  0  0  0  0  0
   20.3370   76.3130   14.7180 C   0  0  0  0  0  0  0  0  0  0  0  0
   21.4030   76.6920   14.0950 O   0  0  0  0  0  0  0  0  0  0  0  0
   19.7830   76.9860   15.7770 N   0  0  0  0  0  0  0  0  0  0  0  0
   19.2310   77.6570   16.8290 C   0  0  0  0  0  0  0  0  0  0  0  0
   19.9850   77.5600   18.1320 C   0  0  0  0  0  0  0  0  0  0  0  0
   21.2410   77.9630   18.3380 N   0  0  0  0  0  0  0  0  0  0  0  0
   21.5410   77.7150   19.6020 N   0  0  0  0  0  0  0  0  0  0  0  0
   20.5120   77.1650   20.2090 N   0  0  0  0  0  0  0  0  0  0  0  0
   19.5510   77.0720   19.2900 N   0  0  0  0  0  0  0  0  0  0  0  0
   22.0400   78.5590   17.3160 C   0  0  0  0  0  0  0  0  0  0  0  0
   23.3560   78.1300   17.1790 C   0  0  0  0  0  0  0  0  0  0  0  0
   24.1930   78.6820   16.2170 C   0  0  0  0  0  0  0  0  0  0  0  0
   23.7450   79.6730   15.3670 C   0  0  0  0  0  0  0  0  0  0  0  0
   22.4400   80.0930   15.5070 C   0  0  0  0  0  0  0  0  0  0  0  0
   21.6050   79.5460   16.4650 C   0  0  0  0  0  0  0  0  0  0  0  0
   19.8820   71.6710   13.0140 C   0  0  0  0  0  0  0  0  0  0  0  0
   18.8780   70.9070   12.4160 C   0  0  0  0  0  0  0  0  0  0  0  0
   17.6580   71.4870   12.1930 C   0  0  0  0  0  0  0  0  0  0  0  0
   17.4900   72.8120   12.5790 C   0  0  0  0  0  0  0  0  0  0  0  0
   16.3450   70.5830   11.4380 Cl  0  0  0  0  0  0  0  0  0  0  0  0
   18.7620   76.0790   15.8390 H   0  0  0  0  0  0  0  0  0  0  0  0
   18.1840   77.2630   17.1040 H   0  0  0  0  0  0  0  0  0  0  0  0
   19.0020   78.7630   16.6850 H   0  0  0  0  0  0  0  0  0  0  0  0
   23.7190   77.3550   17.8360 H   0  0  0  0  0  0  0  0  0  0  0  0
   25.2180   78.3590   16.1010 H   0  0  0  0  0  0  0  0  0  0  0  0
   24.4070   80.1150   14.6060 H   0  0  0  0  0  0  0  0  0  0  0  0
   22.0790   80.8840   14.8320 H   0  0  0  0  0  0  0  0  0  0  0  0
   20.5870   79.9060   16.5430 H   0  0  0  0  0  0  0  0  0  0  0  0
   20.8280   71.1700   13.1700 H   0  0  0  0  0  0  0  0  0  0  0  0
   19.0400   69.8610   12.1260 H   0  0  0  0  0  0  0  0  0  0  0  0
   16.5230   73.2510   12.3930 H   0  0  0  0  0  0  0  0  0  0  0  0
  1  2  1  0  0  0  0
  2  6  2  0  0  0  0
  3  4  1  0  0  0  0
  3  2  1  0  0  0  0
  4  5  2  0  0  0  0
  5  6  1  0  0  0  0
  6  7  1  0  0  0  0
  7  9  1  0  0  0  0
  8  7  2  0  0  0  0
  9 27  1  0  0  0  0
  9 10  1  0  0  0  0
 10 28  1  0  0  0  0
 10 11  1  0  0  0  0
 11 12  1  0  0  0  0
 11 15  2  0  0  0  0
 12 13  1  0  0  0  0
 13 14  2  0  0  0  0
 15 14  1  0  0  0  0
 16 12  1  0  0  0  0
 17 16  1  0  0  0  0
 17 30  1  0  0  0  0
 18 17  2  0  0  0  0
 19 20  2  0  0  0  0
 19 18  1  0  0  0  0
 20 21  1  0  0  0  0
 21 34  1  0  0  0  0
 21 16  2  0  0  0  0
 22 35  1  0  0  0  0
 22  4  1  0  0  0  0
 23 22  2  0  0  0  0
 24 23  1  0  0  0  0
 24 25  2  0  0  0  0
 25  3  1  0  0  0  0
 26 24  1  0  0  0  0
 29 10  1  0  0  0  0
 31 18  1  0  0  0  0
 32 19  1  0  0  0  0
 33 20  1  0  0  0  0
 36 23  1  0  0  0  0
 37 25  1  0  0  0  0
M  END
>  <Pose>
1

>  <Score>
-7.12

$$$$
