
 OpenBabel03222202113D

 33 36  0  0  1  0  0  0  0  0999 V2000
   19.0200   78.9310    9.9560 Cl  0  0  0  0  0  0  0  0  0  0  0  0
   20.6170   78.9400   10.6710 C   0  0  0  0  0  0  0  0  0  0  0  0
   20.8120   78.6600   12.0070 C   0  0  0  0  0  0  0  0  0  0  0  0
   22.0720   78.6620   12.5850 C   0  0  0  0  0  0  0  0  0  0  0  0
   23.1370   78.9610   11.7590 C   0  0  0  0  0  0  0  0  0  0  0  0
   22.9420   79.2430   10.4130 C   0  0  0  0  0  0  0  0  0  0  0  0
   21.6830   79.2370    9.8470 C   0  0  0  0  0  0  0  0  0  0  0  0
   22.2750   78.3750   13.9630 N   0  0  0  0  0  0  0  0  0  0  0  0
   21.6550   77.3480   14.7600 C   0  0  0  0  0  0  0  0  0  0  0  0
   20.7420   76.5890   14.3580 O   0  0  0  0  0  0  0  0  0  0  0  0
   22.2510   77.3320   16.0930 C   0  0  2  0  0  0  0  0  0  0  0  0
   21.3830   77.8610   17.1870 C   0  0  1  0  0  0  0  0  0  0  0  0
   22.3740   78.2940   18.1040 O   0  0  0  0  0  0  0  0  0  0  0  0
   22.9790   79.2500   17.2480 C   0  0  1  0  0  0  0  0  0  0  0  0
   23.3730   78.3830   16.0780 C   0  0  2  0  0  0  0  0  0  0  0  0
   23.1610   79.0920   14.8150 C   0  0  0  0  0  0  0  0  0  0  0  0
   23.6830   80.1900   14.5010 O   0  0  0  0  0  0  0  0  0  0  0  0
   21.7960   80.0400   16.8450 C   0  0  0  0  0  0  0  0  0  0  0  0
   20.7680   79.1620   16.8410 C   0  0  0  0  0  0  0  0  0  0  0  0
   20.4550   76.8710   17.7980 C   0  0  0  0  0  0  0  0  0  0  0  0
   20.8860   76.5660   19.0830 O   0  0  0  0  0  0  0  0  0  0  0  0
   19.9760   78.4220   12.6650 H   0  0  0  0  0  0  0  0  0  0  0  0
   24.1350   78.9680   12.1940 H   0  0  0  0  0  0  0  0  0  0  0  0
   23.7900   79.4750    9.7750 H   0  0  0  0  0  0  0  0  0  0  0  0
   21.5510   79.4610    8.7920 H   0  0  0  0  0  0  0  0  0  0  0  0
   22.6440   76.3500   16.4040 H   0  0  0  0  0  0  0  0  0  0  0  0
   23.7820   79.7930   17.7130 H   0  0  0  0  0  0  0  0  0  0  0  0
   24.3600   77.9270   16.1750 H   0  0  0  0  0  0  0  0  0  0  0  0
   21.7300   81.0800   16.6050 H   0  0  0  0  0  0  0  0  0  0  0  0
   19.7330   79.3890   16.6290 H   0  0  0  0  0  0  0  0  0  0  0  0
   20.5270   75.9350   17.1850 H   0  0  0  0  0  0  0  0  0  0  0  0
   19.3990   77.1780   17.7750 H   0  0  0  0  0  0  0  0  0  0  0  0
   21.2070   75.6360   19.1240 H   0  0  0  0  0  0  0  0  0  0  0  0
  1  2  1  0  0  0  0
  2  3  1  0  0  0  0
  3  4  2  0  0  0  0
  3 22  1  0  0  0  0
  4  8  1  0  0  0  0
  5 23  1  0  0  0  0
  5  4  1  0  0  0  0
  6  5  2  0  0  0  0
  7  6  1  0  0  0  0
  7  2  2  0  0  0  0
  8  9  1  0  0  0  0
  8 16  1  0  0  0  0
  9 11  1  0  0  0  0
 10  9  2  0  0  0  0
 11 26  1  1  0  0  0
 11 12  1  0  0  0  0
 12 20  1  1  0  0  0
 12 13  1  0  0  0  0
 14 27  1  1  0  0  0
 14 13  1  0  0  0  0
 15 11  1  0  0  0  0
 15 28  1  1  0  0  0
 15 14  1  0  0  0  0
 16 15  1  0  0  0  0
 17 16  2  0  0  0  0
 18 14  1  0  0  0  0
 19 18  2  0  0  0  0
 19 12  1  0  0  0  0
 20 21  1  0  0  0  0
 21 33  1  0  0  0  0
 24  6  1  0  0  0  0
 25  7  1  0  0  0  0
 29 18  1  0  0  0  0
 30 19  1  0  0  0  0
 31 20  1  0  0  0  0
 32 20  1  0  0  0  0
M  END
>  <Pose>
1

>  <Score>
-4.96

$$$$
