
 OpenBabel03222202113D

 41 44  0  0  0  0  0  0  0  0999 V2000
   21.5580   79.8350   11.0570 F   0  0  0  0  0  0  0  0  0  0  0  0
   21.8520   79.3280   12.2780 C   0  0  0  0  0  0  0  0  0  0  0  0
   21.1540   78.2120   12.7150 C   0  0  0  0  0  0  0  0  0  0  0  0
   21.3980   77.6430   13.9450 C   0  0  0  0  0  0  0  0  0  0  0  0
   22.3700   78.2250   14.7400 C   0  0  0  0  0  0  0  0  0  0  0  0
   23.0640   79.3310   14.3090 C   0  0  0  0  0  0  0  0  0  0  0  0
   22.8150   79.8950   13.0790 C   0  0  0  0  0  0  0  0  0  0  0  0
   22.6850   77.5030   16.3080 Cl  0  0  0  0  0  0  0  0  0  0  0  0
   20.5460   76.4930   14.1710 C   0  0  0  0  0  0  0  0  0  0  0  0
   20.4990   75.7430   15.1730 O   0  0  0  0  0  0  0  0  0  0  0  0
   19.7290   76.3750   12.9710 C   0  0  0  0  0  0  0  0  0  0  0  0
   18.8450   75.4840   12.7690 O   0  0  0  0  0  0  0  0  0  0  0  0
   20.1120   77.4260   12.0990 N   0  0  0  0  0  0  0  0  0  0  0  0
   19.5690   77.7090   10.7860 C   0  0  0  0  0  0  0  0  0  0  0  0
   20.1010   76.8520    9.7480 N   0  0  0  0  0  0  0  0  0  0  0  0
   19.4560   75.5830    9.7510 C   0  0  0  0  0  0  0  0  0  0  0  0
   19.0780   75.0500    8.4140 C   0  0  0  0  0  0  0  0  0  0  0  0
   18.5910   76.0560    7.5060 N   0  0  0  0  0  0  0  0  0  0  0  0
   18.8670   77.4430    7.8010 C   0  0  0  0  0  0  0  0  0  0  0  0
   20.2210   77.4830    8.4780 C   0  0  0  0  0  0  0  0  0  0  0  0
   17.8570   75.7350    6.3420 C   0  0  0  0  0  0  0  0  0  0  0  0
   18.3880   74.9810    5.3660 N   0  0  0  0  0  0  0  0  0  0  0  0
   17.7100   74.6620    4.2460 C   0  0  0  0  0  0  0  0  0  0  0  0
   16.4160   75.1100    4.0620 C   0  0  0  0  0  0  0  0  0  0  0  0
   15.8780   75.8630    5.0350 N   0  0  0  0  0  0  0  0  0  0  0  0
   16.5550   76.1830    6.1540 C   0  0  0  0  0  0  0  0  0  0  0  0
   23.8300   79.7700   14.9630 H   0  0  0  0  0  0  0  0  0  0  0  0
   23.3840   80.7770   12.7620 H   0  0  0  0  0  0  0  0  0  0  0  0
   18.4790   77.6540   10.8680 H   0  0  0  0  0  0  0  0  0  0  0  0
   19.8250   78.7550   10.5190 H   0  0  0  0  0  0  0  0  0  0  0  0
   20.1490   74.8470   10.2350 H   0  0  0  0  0  0  0  0  0  0  0  0
   18.5620   75.6120   10.4350 H   0  0  0  0  0  0  0  0  0  0  0  0
   19.8760   74.4180    7.9540 H   0  0  0  0  0  0  0  0  0  0  0  0
   18.2170   74.3370    8.5760 H   0  0  0  0  0  0  0  0  0  0  0  0
   18.1110   77.7460    8.5730 H   0  0  0  0  0  0  0  0  0  0  0  0
   18.8260   78.0860    6.9060 H   0  0  0  0  0  0  0  0  0  0  0  0
   20.6620   78.4720    8.5670 H   0  0  0  0  0  0  0  0  0  0  0  0
   20.9550   76.8800    7.8680 H   0  0  0  0  0  0  0  0  0  0  0  0
   18.1490   74.0520    3.4640 H   0  0  0  0  0  0  0  0  0  0  0  0
   15.8920   74.8370    3.1510 H   0  0  0  0  0  0  0  0  0  0  0  0
   16.1290   76.7910    6.9430 H   0  0  0  0  0  0  0  0  0  0  0  0
  1  2  1  0  0  0  0
  2  3  2  0  0  0  0
  2  7  1  0  0  0  0
  3  4  1  0  0  0  0
  4  9  1  0  0  0  0
  4  5  2  0  0  0  0
  5  8  1  0  0  0  0
  6  5  1  0  0  0  0
  6 27  1  0  0  0  0
  7  6  2  0  0  0  0
  9 10  2  0  0  0  0
 11  9  1  0  0  0  0
 12 11  2  0  0  0  0
 13  3  1  0  0  0  0
 13 11  1  0  0  0  0
 14 29  1  0  0  0  0
 14 13  1  0  0  0  0
 15 16  1  0  0  0  0
 15 14  1  0  0  0  0
 16 31  1  0  0  0  0
 16 32  1  0  0  0  0
 17 34  1  0  0  0  0
 17 16  1  0  0  0  0
 18 19  1  0  0  0  0
 18 17  1  0  0  0  0
 19 20  1  0  0  0  0
 19 35  1  0  0  0  0
 20 37  1  0  0  0  0
 20 15  1  0  0  0  0
 21 18  1  0  0  0  0
 22 21  2  0  0  0  0
 23 22  1  0  0  0  0
 24 23  2  0  0  0  0
 24 25  1  0  0  0  0
 25 26  2  0  0  0  0
 26 21  1  0  0  0  0
 26 41  1  0  0  0  0
 28  7  1  0  0  0  0
 30 14  1  0  0  0  0
 33 17  1  0  0  0  0
 36 19  1  0  0  0  0
 38 20  1  0  0  0  0
 39 23  1  0  0  0  0
 40 24  1  0  0  0  0
M  END
>  <Pose>
1

>  <Score>
-7.01

$$$$
