
 OpenBabel03222202113D

 36 39  0  0  1  0  0  0  0  0999 V2000
   22.3520   80.0740    9.7390 Cl  0  0  0  0  0  0  0  0  0  0  0  0
   22.1720   79.5210   11.3900 C   0  0  0  0  0  0  0  0  0  0  0  0
   21.3350   78.4820   11.7410 C   0  0  0  0  0  0  0  0  0  0  0  0
   21.1830   78.0360   13.0380 C   0  0  2  0  0  0  0  0  0  0  0  0
   21.9140   78.6730   14.0220 C   0  0  0  0  0  0  0  0  0  0  0  0
   22.7550   79.7130   13.6840 C   0  0  0  0  0  0  0  0  0  0  0  0
   22.9060   80.1590   12.3870 C   0  0  0  0  0  0  0  0  0  0  0  0
   21.7680   78.2120   15.4200 C   0  0  0  0  0  0  0  0  0  0  0  0
   22.3120   78.6150   16.4900 N   0  0  0  0  0  0  0  0  0  0  0  0
   21.8910   77.8830   17.6660 C   0  0  0  0  0  0  0  0  0  0  0  0
   20.9190   76.8690   17.1570 C   0  0  0  0  0  0  0  0  0  0  0  0
   20.8930   77.1370   15.7320 N   0  0  0  0  0  0  0  0  0  0  0  0
   20.1750   76.5330   14.6560 C   0  0  0  0  0  0  0  0  0  0  0  0
   19.2940   75.5170   14.6510 N   0  0  0  0  0  0  0  0  0  0  0  0
   18.8610   75.2740   13.4250 N   0  0  0  0  0  0  0  0  0  0  0  0
   19.5000   76.1760   12.6410 C   0  0  0  0  0  0  0  0  0  0  0  0
   19.3350   76.2450   11.4040 O   0  0  0  0  0  0  0  0  0  0  0  0
   20.3110   76.9580   13.3730 N   0  0  0  0  0  0  0  0  0  0  0  0
   17.9080   74.2610   13.0140 C   0  0  0  0  0  0  0  0  0  0  0  0
   18.6440   73.1620   12.2340 C   0  0  0  0  0  0  0  0  0  0  0  0
   18.0180   71.8420   12.4980 C   0  0  0  0  0  0  0  0  0  0  0  0
   16.8010   71.6750   12.7650 O   0  0  0  0  0  0  0  0  0  0  0  0
   18.8470   70.6930   12.4450 N   0  0  0  0  0  0  0  0  0  0  0  0
   20.7790   78.0070   10.9450 H   0  0  0  0  0  0  0  0  0  0  0  0
   23.3120   80.1900   14.4760 H   0  0  0  0  0  0  0  0  0  0  0  0
   23.5660   80.9780   12.1180 H   0  0  0  0  0  0  0  0  0  0  0  0
   21.4390   78.5520   18.4250 H   0  0  0  0  0  0  0  0  0  0  0  0
   22.8140   77.4030   18.0780 H   0  0  0  0  0  0  0  0  0  0  0  0
   19.9200   76.9390   17.6270 H   0  0  0  0  0  0  0  0  0  0  0  0
   21.3270   75.8330   17.3400 H   0  0  0  0  0  0  0  0  0  0  0  0
   17.5150   73.7530   13.9250 H   0  0  0  0  0  0  0  0  0  0  0  0
   17.1050   74.6690   12.4010 H   0  0  0  0  0  0  0  0  0  0  0  0
   19.7120   73.1320   12.5210 H   0  0  0  0  0  0  0  0  0  0  0  0
   18.5700   73.3420   11.1330 H   0  0  0  0  0  0  0  0  0  0  0  0
   18.9590   70.0300   13.2340 H   0  0  0  0  0  0  0  0  0  0  0  0
   19.3690   70.5110   11.5630 H   0  0  0  0  0  0  0  0  0  0  0  0
  1  2  1  0  0  0  0
  2  3  2  0  0  0  0
  2  7  1  0  0  0  0
  4  3  1  6  0  0  0
  4 18  1  0  0  0  0
  4  5  1  0  0  0  0
  5  8  2  0  0  0  0
  6  5  1  0  0  0  0
  6 25  1  0  0  0  0
  7  6  2  0  0  0  0
  8 12  1  0  0  0  0
  8  9  1  0  0  0  0
  9 10  1  0  0  0  0
 10 28  1  0  0  0  0
 10 27  1  0  0  0  0
 11 30  1  0  0  0  0
 11 29  1  0  0  0  0
 11 10  1  0  0  0  0
 12 11  1  0  0  0  0
 13 12  1  0  0  0  0
 14 13  2  0  0  0  0
 15 14  1  0  0  0  0
 16 18  1  0  0  0  0
 16 15  1  0  0  0  0
 17 16  2  0  0  0  0
 18 13  1  0  0  0  0
 19 15  1  0  0  0  0
 19 31  1  0  0  0  0
 20 21  1  0  0  0  0
 20 33  1  0  0  0  0
 20 19  1  0  0  0  0
 21 22  2  0  0  0  0
 23 21  1  0  0  0  0
 23 35  1  0  0  0  0
 24  3  1  0  0  0  0
 26  7  1  0  0  0  0
 32 19  1  0  0  0  0
 34 20  1  0  0  0  0
 36 23  1  0  0  0  0
M  END
>  <Pose>
1

>  <Score>
-6.08

$$$$
