
 OpenBabel03222202113D

 46 49  0  0  1  0  0  0  0  0999 V2000
   20.6950   82.2600   20.4730 Cl  0  0  0  0  0  0  0  0  0  0  0  0
   20.3260   80.7870   19.5940 C   0  0  0  0  0  0  0  0  0  0  0  0
   20.8600   80.5540   18.3420 C   0  0  0  0  0  0  0  0  0  0  0  0
   20.5660   79.3780   17.6390 C   0  0  0  0  0  0  0  0  0  0  0  0
   19.7300   78.4840   18.2570 C   0  0  0  0  0  0  0  0  0  0  0  0
   19.1900   78.7240   19.5280 C   0  0  0  0  0  0  0  0  0  0  0  0
   19.4850   79.8840   20.2110 C   0  0  0  0  0  0  0  0  0  0  0  0
   19.4230   77.3070   17.5800 O   0  0  0  0  0  0  0  0  0  0  0  0
   19.9180   77.0030   16.3240 C   0  0  0  0  0  0  0  0  0  0  0  0
   20.7620   77.9080   15.7010 C   0  0  0  0  0  0  0  0  0  0  0  0
   21.1630   79.1840   16.3040 C   0  0  2  0  0  0  0  0  0  0  0  0
   22.6570   79.2240   16.4300 C   0  0  0  0  0  0  0  0  0  0  0  0
   23.3480   78.1680   16.9800 C   0  0  0  0  0  0  0  0  0  0  0  0
   24.7030   78.2170   17.0910 N   0  0  0  0  0  0  0  0  0  0  0  0
   25.3890   79.3060   16.6630 C   0  0  0  0  0  0  0  0  0  0  0  0
   26.6470   79.3170   16.7820 O   0  0  0  0  0  0  0  0  0  0  0  0
   24.7430   80.3510   16.1220 N   0  0  0  0  0  0  0  0  0  0  0  0
   23.4020   80.3080   16.0100 C   0  0  0  0  0  0  0  0  0  0  0  0
   22.8200   81.2800   15.5090 O   0  0  0  0  0  0  0  0  0  0  0  0
   25.5120   81.5070   15.6730 C   0  0  0  0  0  0  0  0  0  0  0  0
   25.3770   77.0650   17.6810 C   0  0  0  0  0  0  0  0  0  0  0  0
   22.6600   77.0680   17.4130 O   0  0  0  0  0  0  0  0  0  0  0  0
   21.2310   77.5580   14.4500 C   0  0  0  0  0  0  0  0  0  0  0  0
   22.0100   78.3500   13.8290 O   0  0  0  0  0  0  0  0  0  0  0  0
   20.9210   76.4170   13.8160 N   0  0  0  0  0  0  0  0  0  0  0  0
   20.0920   75.5620   14.4640 C   0  0  0  0  0  0  0  0  0  0  0  0
   19.8140   74.4960   13.8510 O   0  0  0  0  0  0  0  0  0  0  0  0
   19.6110   75.8610   15.6840 N   0  0  0  0  0  0  0  0  0  0  0  0
   18.7290   74.8960   16.3110 C   0  0  0  0  0  0  0  0  0  0  0  0
   21.4480   76.0940   12.4900 C   0  0  0  0  0  0  0  0  0  0  0  0
   21.5230   81.2780   17.8700 H   0  0  0  0  0  0  0  0  0  0  0  0
   18.5350   77.9690   19.9540 H   0  0  0  0  0  0  0  0  0  0  0  0
   19.0590   80.0510   21.1900 H   0  0  0  0  0  0  0  0  0  0  0  0
   20.8880   80.0000   15.5990 H   0  0  0  0  0  0  0  0  0  0  0  0
   24.9060   82.4060   15.5650 H   0  0  0  0  0  0  0  0  0  0  0  0
   25.9380   81.2090   14.6760 H   0  0  0  0  0  0  0  0  0  0  0  0
   26.3880   81.6270   16.3480 H   0  0  0  0  0  0  0  0  0  0  0  0
   24.6770   76.5930   18.4050 H   0  0  0  0  0  0  0  0  0  0  0  0
   25.5770   76.3190   16.8570 H   0  0  0  0  0  0  0  0  0  0  0  0
   26.3270   77.3680   18.1560 H   0  0  0  0  0  0  0  0  0  0  0  0
   19.3600   74.1140   16.8030 H   0  0  0  0  0  0  0  0  0  0  0  0
   18.0860   75.3550   17.0770 H   0  0  0  0  0  0  0  0  0  0  0  0
   18.0610   74.4220   15.5540 H   0  0  0  0  0  0  0  0  0  0  0  0
   22.2730   75.3520   12.6870 H   0  0  0  0  0  0  0  0  0  0  0  0
   20.6880   75.7050   11.8160 H   0  0  0  0  0  0  0  0  0  0  0  0
   21.9330   76.9800   12.0760 H   0  0  0  0  0  0  0  0  0  0  0  0
  2  7  1  0  0  0  0
  2  1  1  0  0  0  0
  3  2  2  0  0  0  0
  4  5  2  0  0  0  0
  4  3  1  0  0  0  0
  5  6  1  0  0  0  0
  6 32  1  0  0  0  0
  6  7  2  0  0  0  0
  7 33  1  0  0  0  0
  8  5  1  0  0  0  0
  9  8  1  0  0  0  0
 10 11  1  0  0  0  0
 10  9  2  0  0  0  0
 11 34  1  6  0  0  0
 11 12  1  0  0  0  0
 11  4  1  0  0  0  0
 12 13  1  0  0  0  0
 13 14  1  0  0  0  0
 13 22  2  0  0  0  0
 14 21  1  0  0  0  0
 15 16  2  0  0  0  0
 15 14  1  0  0  0  0
 17 15  1  0  0  0  0
 18 17  1  0  0  0  0
 18 12  1  0  0  0  0
 19 18  2  0  0  0  0
 20 17  1  0  0  0  0
 20 37  1  0  0  0  0
 21 40  1  0  0  0  0
 21 38  1  0  0  0  0
 23 10  1  0  0  0  0
 24 23  2  0  0  0  0
 25 23  1  0  0  0  0
 25 26  1  0  0  0  0
 26 28  1  0  0  0  0
 27 26  2  0  0  0  0
 28 29  1  0  0  0  0
 28  9  1  0  0  0  0
 29 41  1  0  0  0  0
 29 42  1  0  0  0  0
 30 44  1  0  0  0  0
 30 25  1  0  0  0  0
 31  3  1  0  0  0  0
 35 20  1  0  0  0  0
 36 20  1  0  0  0  0
 39 21  1  0  0  0  0
 43 29  1  0  0  0  0
 45 30  1  0  0  0  0
 46 30  1  0  0  0  0
M  END
>  <Pose>
1

>  <Score>
-5.05

$$$$
