
 OpenBabel03222202113D

 43 46  0  0  0  0  0  0  0  0999 V2000
   23.0840   79.8740   13.8430 S   0  0  0  0  0  0  0  0  0  0  0  0
   24.3460   79.1570   13.5510 O   0  0  0  0  0  0  0  0  0  0  0  0
   23.3290   81.3660   13.8350 O   0  0  0  0  0  0  0  0  0  0  0  0
   21.8930   79.5120   12.6950 N   0  0  0  0  0  0  0  0  0  0  0  0
   21.4570   78.1490   12.6970 C   0  0  0  0  0  0  0  0  0  0  0  0
   20.1880   77.9280   11.9170 C   0  0  0  0  0  0  0  0  0  0  0  0
   20.1140   78.7620   10.7390 N   0  0  0  0  0  0  0  0  0  0  0  0
   21.1550   79.6720   10.3420 C   0  0  0  0  0  0  0  0  0  0  0  0
   22.0840   80.0960   11.4160 C   0  0  0  0  0  0  0  0  0  0  0  0
   18.9500   78.6750    9.9280 C   0  0  0  0  0  0  0  0  0  0  0  0
   18.0180   79.5430   10.0150 O   0  0  0  0  0  0  0  0  0  0  0  0
   18.7830   77.5850    8.9680 C   0  0  0  0  0  0  0  0  0  0  0  0
   19.3700   76.3450    9.1210 C   0  0  0  0  0  0  0  0  0  0  0  0
   19.1700   75.3870    8.1960 N   0  0  0  0  0  0  0  0  0  0  0  0
   18.4130   75.5650    7.0990 C   0  0  0  0  0  0  0  0  0  0  0  0
   17.8330   76.7680    6.9340 N   0  0  0  0  0  0  0  0  0  0  0  0
   17.0690   76.9650    5.8410 C   0  0  0  0  0  0  0  0  0  0  0  0
   16.8700   75.9790    4.8960 C   0  0  0  0  0  0  0  0  0  0  0  0
   17.4510   74.7340    5.0360 C   0  0  0  0  0  0  0  0  0  0  0  0
   18.2300   74.5530    6.1650 C   0  0  0  0  0  0  0  0  0  0  0  0
   18.0080   77.7520    7.8370 C   0  0  0  0  0  0  0  0  0  0  0  0
   17.4670   78.8740    7.6840 O   0  0  0  0  0  0  0  0  0  0  0  0
   22.4870   79.4130   15.4460 C   0  0  0  0  0  0  0  0  0  0  0  0
   21.6520   78.0070   15.9280 S   0  0  0  0  0  0  0  0  0  0  0  0
   21.4640   78.3600   17.5860 C   0  0  0  0  0  0  0  0  0  0  0  0
   22.0670   79.5800   17.7130 C   0  0  0  0  0  0  0  0  0  0  0  0
   22.5950   80.1260   16.6130 C   0  0  0  0  0  0  0  0  0  0  0  0
   20.6860   77.4070   18.8670 Cl  0  0  0  0  0  0  0  0  0  0  0  0
   22.2480   77.5280   12.2280 H   0  0  0  0  0  0  0  0  0  0  0  0
   21.3470   77.8250   13.7500 H   0  0  0  0  0  0  0  0  0  0  0  0
   20.0390   76.8680   11.6390 H   0  0  0  0  0  0  0  0  0  0  0  0
   19.3480   78.2150   12.5810 H   0  0  0  0  0  0  0  0  0  0  0  0
   20.6280   80.5940    9.9560 H   0  0  0  0  0  0  0  0  0  0  0  0
   21.6940   79.2760    9.4430 H   0  0  0  0  0  0  0  0  0  0  0  0
   23.1320   79.8360   11.0840 H   0  0  0  0  0  0  0  0  0  0  0  0
   22.1010   81.2170   11.5530 H   0  0  0  0  0  0  0  0  0  0  0  0
   19.9820   76.1890   10.0010 H   0  0  0  0  0  0  0  0  0  0  0  0
   16.6040   77.9400    5.7140 H   0  0  0  0  0  0  0  0  0  0  0  0
   16.2530   76.1420    4.0140 H   0  0  0  0  0  0  0  0  0  0  0  0
   17.3150   73.9370    4.3150 H   0  0  0  0  0  0  0  0  0  0  0  0
   18.6940   73.5840    6.2950 H   0  0  0  0  0  0  0  0  0  0  0  0
   22.1020   80.0760   18.7060 H   0  0  0  0  0  0  0  0  0  0  0  0
   23.1120   81.1130   16.5890 H   0  0  0  0  0  0  0  0  0  0  0  0
  1 23  1  0  0  0  0
  2  1  2  0  0  0  0
  3  1  2  0  0  0  0
  4  5  1  0  0  0  0
  4  1  1  0  0  0  0
  5 30  1  0  0  0  0
  6 32  1  0  0  0  0
  6  5  1  0  0  0  0
  7  6  1  0  0  0  0
  8  7  1  0  0  0  0
  8  9  1  0  0  0  0
  9 36  1  0  0  0  0
  9  4  1  0  0  0  0
 10 11  2  0  0  0  0
 10  7  1  0  0  0  0
 12 13  2  0  0  0  0
 12 10  1  0  0  0  0
 13 37  1  0  0  0  0
 14 13  1  0  0  0  0
 15 14  2  0  0  0  0
 16 15  1  0  0  0  0
 16 21  1  0  0  0  0
 17 16  1  0  0  0  0
 18 19  1  0  0  0  0
 18 17  2  0  0  0  0
 19 20  2  0  0  0  0
 20 41  1  0  0  0  0
 20 15  1  0  0  0  0
 21 12  1  0  0  0  0
 22 21  2  0  0  0  0
 23 24  1  0  0  0  0
 23 27  2  0  0  0  0
 24 25  1  0  0  0  0
 25 26  2  0  0  0  0
 25 28  1  0  0  0  0
 26 42  1  0  0  0  0
 27 26  1  0  0  0  0
 29  5  1  0  0  0  0
 31  6  1  0  0  0  0
 33  8  1  0  0  0  0
 34  8  1  0  0  0  0
 35  9  1  0  0  0  0
 38 17  1  0  0  0  0
 39 18  1  0  0  0  0
 40 19  1  0  0  0  0
 43 27  1  0  0  0  0
M  END
>  <Pose>
1

>  <Score>
-7.47

$$$$
