
 OpenBabel03222202113D

 37 40  0  0  1  0  0  0  0  0999 V2000
   18.3270   84.4600   22.3980 Cl  0  0  0  0  0  0  0  0  0  0  0  0
   19.0540   83.9090   20.8920 C   0  0  0  0  0  0  0  0  0  0  0  0
   19.1490   82.5480   20.6130 C   0  0  0  0  0  0  0  0  0  0  0  0
   19.7220   82.1680   19.4220 C   0  0  0  0  0  0  0  0  0  0  0  0
   20.1990   83.1260   18.5130 C   0  0  0  0  0  0  0  0  0  0  0  0
   20.1030   84.4560   18.7930 C   0  0  0  0  0  0  0  0  0  0  0  0
   19.5240   84.8410   19.9900 C   0  0  0  0  0  0  0  0  0  0  0  0
   19.8650   80.8020   19.0510 N   0  0  0  0  0  0  0  0  0  0  0  0
   19.2510   79.6230   19.5590 C   0  0  0  0  0  0  0  0  0  0  0  0
   18.1810   79.6050   20.1910 O   0  0  0  0  0  0  0  0  0  0  0  0
   20.0820   78.4570   19.2170 C   0  0  1  0  0  0  0  0  0  0  0  0
   19.4550   77.2910   18.9130 O   0  0  0  0  0  0  0  0  0  0  0  0
   20.2700   76.7600   17.9300 N   0  0  0  0  0  0  0  0  0  0  0  0
   20.7180   77.8320   17.0980 C   0  0  0  0  0  0  0  0  0  0  0  0
   20.6030   78.8990   17.8810 C   0  0  0  0  0  0  0  0  0  0  0  0
   20.7310   80.3450   17.9790 C   0  0  0  0  0  0  0  0  0  0  0  0
   21.4810   81.0300   17.2380 O   0  0  0  0  0  0  0  0  0  0  0  0
   21.2310   77.7770   15.7430 C   0  0  0  0  0  0  0  0  0  0  0  0
   22.1980   78.6770   15.2860 C   0  0  0  0  0  0  0  0  0  0  0  0
   22.4850   78.4160   14.0020 N   0  0  0  0  0  0  0  0  0  0  0  0
   21.7370   77.3810   13.6160 N   0  0  0  0  0  0  0  0  0  0  0  0
   20.9740   76.9860   14.6610 C   0  0  0  0  0  0  0  0  0  0  0  0
   19.9900   75.8740   14.6390 C   0  0  0  0  0  0  0  0  0  0  0  0
   23.4250   79.0910   13.1140 C   0  0  0  0  0  0  0  0  0  0  0  0
   18.7800   81.7880   21.3120 H   0  0  0  0  0  0  0  0  0  0  0  0
   20.6460   82.7800   17.5790 H   0  0  0  0  0  0  0  0  0  0  0  0
   20.4870   85.1950   18.0640 H   0  0  0  0  0  0  0  0  0  0  0  0
   19.4340   85.8970   20.2470 H   0  0  0  0  0  0  0  0  0  0  0  0
   20.9200   78.3500   19.9410 H   0  0  0  0  0  0  0  0  0  0  0  0
   20.4970   75.7550   17.8530 H   0  0  0  0  0  0  0  0  0  0  0  0
   22.6560   79.4680   15.8560 H   0  0  0  0  0  0  0  0  0  0  0  0
   20.4860   74.9420   14.9240 H   0  0  0  0  0  0  0  0  0  0  0  0
   19.6300   75.7260   13.5930 H   0  0  0  0  0  0  0  0  0  0  0  0
   19.0950   76.0990   15.2430 H   0  0  0  0  0  0  0  0  0  0  0  0
   22.8990   79.5160   12.2320 H   0  0  0  0  0  0  0  0  0  0  0  0
   23.8640   79.9960   13.6220 H   0  0  0  0  0  0  0  0  0  0  0  0
   24.2140   78.4100   12.7450 H   0  0  0  0  0  0  0  0  0  0  0  0
  2  1  1  0  0  0  0
  3  2  1  0  0  0  0
  3 25  1  0  0  0  0
  4  3  2  0  0  0  0
  5  6  2  0  0  0  0
  5  4  1  0  0  0  0
  6  7  1  0  0  0  0
  7 28  1  0  0  0  0
  7  2  2  0  0  0  0
  8  4  1  0  0  0  0
  8  9  1  0  0  0  0
  9 10  2  0  0  0  0
 11  9  1  0  0  0  0
 11 29  1  1  0  0  0
 12 11  1  0  0  0  0
 13 12  1  0  0  0  0
 14 15  2  0  0  0  0
 14 13  1  0  0  0  0
 15 16  1  0  0  0  0
 15 11  1  0  0  0  0
 16  8  1  0  0  0  0
 17 16  2  0  0  0  0
 18 14  1  0  0  0  0
 19 18  2  0  0  0  0
 19 31  1  0  0  0  0
 20 19  1  0  0  0  0
 21 20  1  0  0  0  0
 21 22  2  0  0  0  0
 22 18  1  0  0  0  0
 23 22  1  0  0  0  0
 23 32  1  0  0  0  0
 23 34  1  0  0  0  0
 24 36  1  0  0  0  0
 24 20  1  0  0  0  0
 26  5  1  0  0  0  0
 27  6  1  0  0  0  0
 30 13  1  0  0  0  0
 33 23  1  0  0  0  0
 35 24  1  0  0  0  0
 37 24  1  0  0  0  0
M  END
>  <Pose>
1

>  <Score>
-6.53

$$$$
