
 OpenBabel03222202113D

 41 44  0  0  0  0  0  0  0  0999 V2000
   25.8310   78.8510   16.2470 B   0  0  0  0  0  0  0  0  0  0  0  0
   24.0160   78.2440   16.1080 C   0  0  0  0  0  0  0  0  0  0  0  0
   23.1620   78.3570   17.1690 C   0  0  0  0  0  0  0  0  0  0  0  0
   21.8470   77.9130   17.0560 C   0  0  0  0  0  0  0  0  0  0  0  0
   21.4740   77.3700   15.8440 C   0  0  0  0  0  0  0  0  0  0  0  0
   22.3350   77.2630   14.7910 C   0  0  0  0  0  0  0  0  0  0  0  0
   23.6450   77.7010   14.8900 C   0  0  0  0  0  0  0  0  0  0  0  0
   20.1360   76.9280   15.7560 O   0  0  0  0  0  0  0  0  0  0  0  0
   19.7530   75.9600   14.7970 C   0  0  0  0  0  0  0  0  0  0  0  0
   20.9470   77.9510   18.2040 C   0  0  0  0  0  0  0  0  0  0  0  0
   20.3320   78.9420   18.8440 N   0  0  0  0  0  0  0  0  0  0  0  0
   19.5950   78.4400   19.8780 C   0  0  0  0  0  0  0  0  0  0  0  0
   19.7940   77.1020   19.8380 N   0  0  0  0  0  0  0  0  0  0  0  0
   20.5930   76.7970   18.8510 N   0  0  0  0  0  0  0  0  0  0  0  0
   18.9700   79.4280   20.5360 N   0  0  0  0  0  0  0  0  0  0  0  0
   19.2750   80.5870   19.9640 C   0  0  0  0  0  0  0  0  0  0  0  0
   20.1360   80.2830   18.8960 C   0  0  0  0  0  0  0  0  0  0  0  0
   20.6220   81.2740   18.1380 N   0  0  0  0  0  0  0  0  0  0  0  0
   20.2510   82.5480   18.4370 C   0  0  0  0  0  0  0  0  0  0  0  0
   20.7250   83.4680   17.6990 O   0  0  0  0  0  0  0  0  0  0  0  0
   19.4380   82.8890   19.4340 N   0  0  0  0  0  0  0  0  0  0  0  0
   18.9540   81.9050   20.1940 C   0  0  0  0  0  0  0  0  0  0  0  0
   18.1810   82.1700   21.1500 O   0  0  0  0  0  0  0  0  0  0  0  0
   19.0840   84.2950   19.6910 C   0  0  0  0  0  0  0  0  0  0  0  0
   21.5340   81.0390   17.0560 C   0  0  0  0  0  0  0  0  0  0  0  0
   18.0990   79.2830   21.6850 C   0  0  0  0  0  0  0  0  0  0  0  0
   23.4760   78.7850   18.1110 H   0  0  0  0  0  0  0  0  0  0  0  0
   21.9800   76.8220   13.8510 H   0  0  0  0  0  0  0  0  0  0  0  0
   24.3270   77.6170   14.0560 H   0  0  0  0  0  0  0  0  0  0  0  0
   18.6380   75.9680   14.7670 H   0  0  0  0  0  0  0  0  0  0  0  0
   20.1320   76.1930   13.7900 H   0  0  0  0  0  0  0  0  0  0  0  0
   20.0720   74.9450   15.0470 H   0  0  0  0  0  0  0  0  0  0  0  0
   19.8920   84.8390   20.1840 H   0  0  0  0  0  0  0  0  0  0  0  0
   18.8780   84.7490   18.6820 H   0  0  0  0  0  0  0  0  0  0  0  0
   18.1260   84.2990   20.2210 H   0  0  0  0  0  0  0  0  0  0  0  0
   21.9330   82.0780   16.7500 H   0  0  0  0  0  0  0  0  0  0  0  0
   21.0720   80.6830   16.1440 H   0  0  0  0  0  0  0  0  0  0  0  0
   22.4280   80.5480   17.4160 H   0  0  0  0  0  0  0  0  0  0  0  0
   18.2820   80.1210   22.4010 H   0  0  0  0  0  0  0  0  0  0  0  0
   17.0510   79.3420   21.3260 H   0  0  0  0  0  0  0  0  0  0  0  0
   18.3090   78.3540   22.2560 H   0  0  0  0  0  0  0  0  0  0  0  0
  2  1  1  0  0  0  0
  2  3  1  0  0  0  0
  3 27  1  0  0  0  0
  4  3  2  0  0  0  0
  4 10  1  0  0  0  0
  5  4  1  0  0  0  0
  6  7  1  0  0  0  0
  6  5  2  0  0  0  0
  7  2  2  0  0  0  0
  8  5  1  0  0  0  0
  9 32  1  0  0  0  0
  9  8  1  0  0  0  0
 10 11  1  0  0  0  0
 10 14  2  0  0  0  0
 11 17  1  0  0  0  0
 11 12  1  0  0  0  0
 12 15  1  0  0  0  0
 13 12  2  0  0  0  0
 14 13  1  0  0  0  0
 15 26  1  0  0  0  0
 16 22  1  0  0  0  0
 16 15  1  0  0  0  0
 17 16  2  0  0  0  0
 18 19  1  0  0  0  0
 18 17  1  0  0  0  0
 19 21  1  0  0  0  0
 20 19  2  0  0  0  0
 21 24  1  0  0  0  0
 21 22  1  0  0  0  0
 22 23  2  0  0  0  0
 24 33  1  0  0  0  0
 24 35  1  0  0  0  0
 25 38  1  0  0  0  0
 25 18  1  0  0  0  0
 26 41  1  0  0  0  0
 26 39  1  0  0  0  0
 28  6  1  0  0  0  0
 29  7  1  0  0  0  0
 30  9  1  0  0  0  0
 31  9  1  0  0  0  0
 34 24  1  0  0  0  0
 36 25  1  0  0  0  0
 37 25  1  0  0  0  0
 40 26  1  0  0  0  0
M  END
>  <Pose>
1

>  <Score>
-6.56

$$$$
