
 OpenBabel03222202113D

 40 43  0  0  0  0  0  0  0  0999 V2000
   19.0060   83.8130   21.2150 Cl  0  0  0  0  0  0  0  0  0  0  0  0
   19.5100   82.6170   20.0340 C   0  0  0  0  0  0  0  0  0  0  0  0
   19.2950   81.2640   20.2130 C   0  0  0  0  0  0  0  0  0  0  0  0
   19.6890   80.3460   19.2920 N   0  0  0  0  0  0  0  0  0  0  0  0
   20.3110   80.6890   18.1510 C   0  0  0  0  0  0  0  0  0  0  0  0
   20.7050   79.7870   17.2330 N   0  0  0  0  0  0  0  0  0  0  0  0
   20.5010   78.4680   17.4000 C   0  0  0  0  0  0  0  0  0  0  0  0
   19.8550   78.1020   18.5820 C   0  0  0  0  0  0  0  0  0  0  0  0
   19.4560   79.0350   19.5150 C   0  0  0  0  0  0  0  0  0  0  0  0
   18.8680   78.6960   20.5920 O   0  0  0  0  0  0  0  0  0  0  0  0
   20.9170   77.4360   16.4150 C   0  0  0  0  0  0  0  0  0  0  0  0
   22.1790   77.7860   15.8760 N   0  0  0  0  0  0  0  0  0  0  0  0
   22.7720   78.9940   16.3120 C   0  0  0  0  0  0  0  0  0  0  0  0
   23.6820   79.6520   15.2860 C   0  0  0  0  0  0  0  0  0  0  0  0
   22.9030   79.6980   14.0200 C   0  0  0  0  0  0  0  0  0  0  0  0
   22.2820   78.5220   13.6550 C   0  0  0  0  0  0  0  0  0  0  0  0
   21.5660   78.5150   12.5200 N   0  0  0  0  0  0  0  0  0  0  0  0
   21.4630   79.6480   11.7580 C   0  0  0  0  0  0  0  0  0  0  0  0
   22.0870   80.7840   12.1500 N   0  0  0  0  0  0  0  0  0  0  0  0
   22.8220   80.8560   13.2810 C   0  0  0  0  0  0  0  0  0  0  0  0
   20.6730   79.6530   10.5000 C   0  0  0  0  0  0  0  0  0  0  0  0
   22.4560   77.3520   14.5490 C   0  0  0  0  0  0  0  0  0  0  0  0
   20.5390   82.0430   17.9450 C   0  0  0  0  0  0  0  0  0  0  0  0
   20.1460   82.9900   18.8690 C   0  0  0  0  0  0  0  0  0  0  0  0
   18.7920   80.9560   21.1330 H   0  0  0  0  0  0  0  0  0  0  0  0
   19.6750   77.0540   18.7490 H   0  0  0  0  0  0  0  0  0  0  0  0
   20.9840   76.4730   16.9740 H   0  0  0  0  0  0  0  0  0  0  0  0
   20.1320   77.3710   15.6460 H   0  0  0  0  0  0  0  0  0  0  0  0
   23.3330   78.9060   17.2660 H   0  0  0  0  0  0  0  0  0  0  0  0
   21.9500   79.7500   16.4780 H   0  0  0  0  0  0  0  0  0  0  0  0
   24.5520   78.9480   15.1560 H   0  0  0  0  0  0  0  0  0  0  0  0
   23.9820   80.6420   15.6210 H   0  0  0  0  0  0  0  0  0  0  0  0
   23.3080   81.7790   13.5650 H   0  0  0  0  0  0  0  0  0  0  0  0
   20.5340   78.6030   10.1760 H   0  0  0  0  0  0  0  0  0  0  0  0
   19.6760   80.0940   10.7550 H   0  0  0  0  0  0  0  0  0  0  0  0
   21.1840   80.2290    9.7050 H   0  0  0  0  0  0  0  0  0  0  0  0
   23.4770   76.9100   14.4320 H   0  0  0  0  0  0  0  0  0  0  0  0
   21.7220   76.5630   14.2810 H   0  0  0  0  0  0  0  0  0  0  0  0
   21.0430   82.3310   17.0200 H   0  0  0  0  0  0  0  0  0  0  0  0
   20.3300   84.0550   18.6970 H   0  0  0  0  0  0  0  0  0  0  0  0
  2  3  1  0  0  0  0
  2  1  1  0  0  0  0
  3 25  1  0  0  0  0
  4  9  1  0  0  0  0
  4  3  1  0  0  0  0
  5  4  1  0  0  0  0
  6  7  2  0  0  0  0
  6  5  1  0  0  0  0
  7  8  1  0  0  0  0
  8 26  1  0  0  0  0
  8  9  1  0  0  0  0
  9 10  2  0  0  0  0
 11 27  1  0  0  0  0
 11  7  1  0  0  0  0
 12 13  1  0  0  0  0
 12 11  1  0  0  0  0
 13 30  1  0  0  0  0
 13 29  1  0  0  0  0
 14 32  1  0  0  0  0
 14 13  1  0  0  0  0
 15 14  1  0  0  0  0
 16 15  2  0  0  0  0
 16 22  1  0  0  0  0
 17 16  1  0  0  0  0
 18 19  1  0  0  0  0
 18 17  2  0  0  0  0
 19 20  2  0  0  0  0
 20 33  1  0  0  0  0
 20 15  1  0  0  0  0
 21 35  1  0  0  0  0
 21 18  1  0  0  0  0
 22 12  1  0  0  0  0
 23  5  2  0  0  0  0
 23 24  1  0  0  0  0
 24  2  2  0  0  0  0
 28 11  1  0  0  0  0
 31 14  1  0  0  0  0
 34 21  1  0  0  0  0
 36 21  1  0  0  0  0
 37 22  1  0  0  0  0
 38 22  1  0  0  0  0
 39 23  1  0  0  0  0
 40 24  1  0  0  0  0
M  END
>  <Pose>
1

>  <Score>
-5.54

$$$$
