
 OpenBabel03222202113D

 35 37  0  0  1  0  0  0  0  0999 V2000
   25.2840   79.2130   17.1750 B   0  0  0  0  0  0  0  0  0  0  0  0
   23.8010   78.6490   16.1250 C   0  0  0  0  0  0  0  0  0  0  0  0
   22.5690   78.4010   16.7320 C   0  0  0  0  0  0  0  0  0  0  0  0
   21.4590   77.9930   15.9820 C   0  0  0  0  0  0  0  0  0  0  0  0
   21.6680   77.8530   14.6210 C   0  0  0  0  0  0  0  0  0  0  0  0
   22.8980   78.1040   14.0380 C   0  0  0  0  0  0  0  0  0  0  0  0
   23.9710   78.5010   14.7850 C   0  0  0  0  0  0  0  0  0  0  0  0
   20.5790   77.4440   13.9050 O   0  0  0  0  0  0  0  0  0  0  0  0
   20.0890   76.1390   14.0600 C   0  0  0  0  0  0  0  0  0  0  0  0
   20.1950   77.8540   16.6970 C   0  0  2  0  0  0  0  0  0  0  0  0
   20.2400   79.0380   17.7030 C   0  0  2  0  0  0  0  0  0  0  0  0
   21.6570   78.7860   18.2520 C   0  0  1  0  0  0  0  0  0  0  0  0
   22.5050   79.6520   18.3640 O   0  0  0  0  0  0  0  0  0  0  0  0
   21.8230   77.3940   18.6090 N   0  0  0  0  0  0  0  0  0  0  0  0
   20.5530   76.6710   18.8070 C   0  0  1  0  0  0  0  0  0  0  0  0
   19.7720   77.5910   19.6440 N   0  0  0  0  0  0  0  0  0  0  0  0
   19.4100   78.7840   18.9200 C   0  0  0  0  0  0  0  0  0  0  0  0
   18.4900   79.5480   19.2650 O   0  0  0  0  0  0  0  0  0  0  0  0
   19.8330   76.6760   17.4310 C   0  0  0  0  0  0  0  0  0  0  0  0
   20.6710   75.3200   19.3590 C   0  0  0  0  0  0  0  0  0  0  0  0
   22.5500   78.5560   17.7960 H   0  0  0  0  0  0  0  0  0  0  0  0
   22.9550   77.9680   12.9760 H   0  0  0  0  0  0  0  0  0  0  0  0
   24.9160   78.6740   14.2400 H   0  0  0  0  0  0  0  0  0  0  0  0
   20.9030   75.4010   14.0070 H   0  0  0  0  0  0  0  0  0  0  0  0
   19.7110   76.1100   15.1370 H   0  0  0  0  0  0  0  0  0  0  0  0
   19.2350   75.9070   13.4110 H   0  0  0  0  0  0  0  0  0  0  0  0
   19.3910   78.1760   15.9860 H   0  0  0  0  0  0  0  0  0  0  0  0
   20.1060   80.0020   17.2960 H   0  0  0  0  0  0  0  0  0  0  0  0
   22.7320   76.9330   18.7000 H   0  0  0  0  0  0  0  0  0  0  0  0
   19.5270   77.3950   20.6220 H   0  0  0  0  0  0  0  0  0  0  0  0
   18.7360   76.7820   17.7160 H   0  0  0  0  0  0  0  0  0  0  0  0
   19.8350   75.7050   16.9450 H   0  0  0  0  0  0  0  0  0  0  0  0
   19.7970   75.1820   20.0840 H   0  0  0  0  0  0  0  0  0  0  0  0
   20.6110   74.4970   18.6260 H   0  0  0  0  0  0  0  0  0  0  0  0
   21.5800   75.1870   19.9390 H   0  0  0  0  0  0  0  0  0  0  0  0
  2  3  1  0  0  0  0
  2  1  1  0  0  0  0
  4 10  1  0  0  0  0
  4  3  2  0  0  0  0
  5  4  1  0  0  0  0
  6  5  2  0  0  0  0
  6  7  1  0  0  0  0
  7  2  2  0  0  0  0
  8  9  1  0  0  0  0
  8  5  1  0  0  0  0
  9 25  1  0  0  0  0
 10 27  1  6  0  0  0
 10 19  1  0  0  0  0
 10 11  1  0  0  0  0
 11 28  1  6  0  0  0
 11 12  1  0  0  0  0
 11 17  1  0  0  0  0
 12 21  1  6  0  0  0
 12 13  1  0  0  0  0
 12 14  1  0  0  0  0
 14 29  1  0  0  0  0
 14 15  1  0  0  0  0
 15 20  1  1  0  0  0
 15 16  1  0  0  0  0
 16 30  1  0  0  0  0
 17 18  2  0  0  0  0
 17 16  1  0  0  0  0
 19 31  1  0  0  0  0
 19 15  1  0  0  0  0
 20 35  1  0  0  0  0
 20 33  1  0  0  0  0
 22  6  1  0  0  0  0
 23  7  1  0  0  0  0
 24  9  1  0  0  0  0
 26  9  1  0  0  0  0
 32 19  1  0  0  0  0
 34 20  1  0  0  0  0
M  END
>  <Pose>
1

>  <Score>
-4.38

$$$$
