
 OpenBabel03222202113D

 50 53  0  0  1  0  0  0  0  0999 V2000
   16.9230   78.7060   19.4020 Cl  0  0  0  0  0  0  0  0  0  0  0  0
   18.5480   79.3620   19.2290 C   0  0  0  0  0  0  0  0  0  0  0  0
   19.4060   78.7660   18.2880 C   0  0  0  0  0  0  0  0  0  0  0  0
   20.6620   79.2800   18.1540 C   0  0  0  0  0  0  0  0  0  0  0  0
   21.1000   80.3530   18.9170 C   0  0  0  0  0  0  0  0  0  0  0  0
   20.2390   80.9140   19.8320 C   0  0  0  0  0  0  0  0  0  0  0  0
   18.9610   80.4290   19.9960 C   0  0  0  0  0  0  0  0  0  0  0  0
   20.7400   82.0760   20.6470 C   0  0  0  0  0  0  0  0  0  0  0  0
   21.3120   78.5600   17.0160 C   0  0  2  0  0  0  0  0  0  0  0  0
   22.6860   78.2990   17.1790 N   0  0  0  0  0  0  0  0  0  0  0  0
   23.3890   79.4380   16.6610 C   0  0  2  0  0  0  0  0  0  0  0  0
   22.4410   80.3100   15.9440 C   0  0  2  0  0  0  0  0  0  0  0  0
   21.2430   79.3740   15.7610 C   0  0  1  0  0  0  0  0  0  0  0  0
   21.6400   78.6490   14.5690 C   0  0  0  0  0  0  0  0  0  0  0  0
   21.5180   77.4580   14.2050 O   0  0  0  0  0  0  0  0  0  0  0  0
   22.2940   79.6410   13.7340 N   0  0  0  0  0  0  0  0  0  0  0  0
   22.7660   80.6840   14.5730 C   0  0  0  0  0  0  0  0  0  0  0  0
   23.3430   81.7090   14.1830 O   0  0  0  0  0  0  0  0  0  0  0  0
   22.4530   79.6290   12.3040 C   0  0  0  0  0  0  0  0  0  0  0  0
   21.9990   80.8500   11.5940 C   0  0  0  0  0  0  0  0  0  0  0  0
   21.2480   80.6900   10.4690 O   0  0  0  0  0  0  0  0  0  0  0  0
   19.9380   80.3140   10.6830 C   0  0  0  0  0  0  0  0  0  0  0  0
   24.6320   79.0420   15.8870 C   0  0  1  0  0  0  0  0  0  0  0  0
   25.8110   79.4670   16.4240 O   0  0  0  0  0  0  0  0  0  0  0  0
   24.5490   77.5950   15.5280 C   0  0  0  0  0  0  0  0  0  0  0  0
   20.4720   77.3780   16.8400 C   0  0  0  0  0  0  0  0  0  0  0  0
   20.6870   76.2790   16.2380 O   0  0  0  0  0  0  0  0  0  0  0  0
   19.2420   77.5990   17.4910 N   0  0  0  0  0  0  0  0  0  0  0  0
   22.0990   80.7830   18.8480 H   0  0  0  0  0  0  0  0  0  0  0  0
   18.2970   80.8980   20.7300 H   0  0  0  0  0  0  0  0  0  0  0  0
   21.2740   82.7710   19.9680 H   0  0  0  0  0  0  0  0  0  0  0  0
   21.5160   81.7240   21.3870 H   0  0  0  0  0  0  0  0  0  0  0  0
   19.9250   82.6090   21.1420 H   0  0  0  0  0  0  0  0  0  0  0  0
   22.9530   78.1010   18.1740 H   0  0  0  0  0  0  0  0  0  0  0  0
   23.8190   80.0370   17.5270 H   0  0  0  0  0  0  0  0  0  0  0  0
   22.0360   81.1630   16.5410 H   0  0  0  0  0  0  0  0  0  0  0  0
   20.3030   79.9510   15.6610 H   0  0  0  0  0  0  0  0  0  0  0  0
   23.5310   79.4820   12.0600 H   0  0  0  0  0  0  0  0  0  0  0  0
   21.9400   78.7230   11.8980 H   0  0  0  0  0  0  0  0  0  0  0  0
   22.9270   81.4150   11.2930 H   0  0  0  0  0  0  0  0  0  0  0  0
   21.4880   81.5480   12.3010 H   0  0  0  0  0  0  0  0  0  0  0  0
   19.3810   81.0280   11.2920 H   0  0  0  0  0  0  0  0  0  0  0  0
   19.4460   80.2370    9.6900 H   0  0  0  0  0  0  0  0  0  0  0  0
   19.9650   79.3110   11.1860 H   0  0  0  0  0  0  0  0  0  0  0  0
   24.5250   79.6270   14.9130 H   0  0  0  0  0  0  0  0  0  0  0  0
   25.7830   80.3760   16.8160 H   0  0  0  0  0  0  0  0  0  0  0  0
   24.6150   77.4880   14.4020 H   0  0  0  0  0  0  0  0  0  0  0  0
   25.4200   77.0050   15.8900 H   0  0  0  0  0  0  0  0  0  0  0  0
   23.5710   77.1980   15.8250 H   0  0  0  0  0  0  0  0  0  0  0  0
   18.3470   77.0510   17.4400 H   0  0  0  0  0  0  0  0  0  0  0  0
  2  1  1  0  0  0  0
  2  7  1  0  0  0  0
  3  2  2  0  0  0  0
  4  3  1  0  0  0  0
  4  5  2  0  0  0  0
  5  6  1  0  0  0  0
  6  7  2  0  0  0  0
  6  8  1  0  0  0  0
  7 30  1  0  0  0  0
  8 33  1  0  0  0  0
  8 32  1  0  0  0  0
  9 26  1  6  0  0  0
  9 10  1  0  0  0  0
  9  4  1  0  0  0  0
 10 34  1  0  0  0  0
 11 10  1  0  0  0  0
 11 35  1  1  0  0  0
 12 36  1  1  0  0  0
 12 11  1  0  0  0  0
 13 37  1  6  0  0  0
 13 12  1  0  0  0  0
 13  9  1  0  0  0  0
 14 13  1  0  0  0  0
 15 14  2  0  0  0  0
 16 14  1  0  0  0  0
 16 17  1  0  0  0  0
 17 12  1  0  0  0  0
 18 17  2  0  0  0  0
 19 16  1  0  0  0  0
 20 41  1  0  0  0  0
 20 19  1  0  0  0  0
 21 22  1  0  0  0  0
 21 20  1  0  0  0  0
 22 44  1  0  0  0  0
 22 42  1  0  0  0  0
 23 45  1  6  0  0  0
 23 24  1  0  0  0  0
 23 11  1  0  0  0  0
 24 46  1  0  0  0  0
 25 49  1  0  0  0  0
 25 23  1  0  0  0  0
 25 48  1  0  0  0  0
 26 28  1  0  0  0  0
 27 26  2  0  0  0  0
 28  3  1  0  0  0  0
 29  5  1  0  0  0  0
 31  8  1  0  0  0  0
 38 19  1  0  0  0  0
 39 19  1  0  0  0  0
 40 20  1  0  0  0  0
 43 22  1  0  0  0  0
 47 25  1  0  0  0  0
 50 28  1  0  0  0  0
M  END
>  <Pose>
1

>  <Score>
-5.70

$$$$
