
 OpenBabel03222202113D

 55 58  0  0  0  0  0  0  0  0999 V2000
   15.7660   79.3000    6.6500 B   0  0  0  0  0  0  0  0  0  0  0  0
   17.2050   78.2170    7.2470 C   0  0  0  0  0  0  0  0  0  0  0  0
   18.3080   78.7560    7.9330 C   0  0  0  0  0  0  0  0  0  0  0  0
   19.3350   77.9490    8.3470 C   0  0  0  0  0  0  0  0  0  0  0  0
   19.2820   76.5990    8.0900 C   0  0  0  0  0  0  0  0  0  0  0  0
   18.1810   76.0630    7.4060 C   0  0  0  0  0  0  0  0  0  0  0  0
   17.1650   76.8630    6.9940 C   0  0  0  0  0  0  0  0  0  0  0  0
   20.3230   75.8530    8.5260 O   0  0  0  0  0  0  0  0  0  0  0  0
   20.5210   74.4930    8.3520 C   0  0  0  0  0  0  0  0  0  0  0  0
   20.4540   78.5090    9.0930 C   0  0  0  0  0  0  0  0  0  0  0  0
   20.7470   78.2950   10.3350 C   0  0  0  0  0  0  0  0  0  0  0  0
   20.0670   77.4960   11.2100 O   0  0  0  0  0  0  0  0  0  0  0  0
   20.7080   77.5270   12.4470 C   0  0  0  0  0  0  0  0  0  0  0  0
   21.8030   78.3300   12.4370 C   0  0  0  0  0  0  0  0  0  0  0  0
   22.5980   78.4840   13.5780 C   0  0  0  0  0  0  0  0  0  0  0  0
   22.3160   77.8430   14.7560 C   0  0  0  0  0  0  0  0  0  0  0  0
   21.1710   77.0280   14.7180 C   0  0  0  0  0  0  0  0  0  0  0  0
   20.3840   76.8540   13.6310 C   0  0  0  0  0  0  0  0  0  0  0  0
   19.1540   76.0400   13.6030 C   0  0  0  0  0  0  0  0  0  0  0  0
   19.4100   74.7080   13.1080 N   0  0  0  0  0  4  0  0  0  0  0  0
   18.5810   74.4650   11.9410 C   0  0  0  0  0  0  0  0  0  0  0  0
   18.0170   73.1100   11.8500 C   0  0  0  0  0  0  0  0  0  0  0  0
   18.7980   72.0610   12.4230 N   0  0  0  0  0  0  0  0  0  0  0  0
   19.9110   72.4080   13.1820 C   0  0  0  0  0  0  0  0  0  0  0  0
   19.6010   73.6820   14.0130 C   0  0  0  0  0  0  0  0  0  0  0  0
   18.1200   70.8620   12.7400 C   0  0  0  0  0  0  0  0  0  0  0  0
   16.7980   70.6770   12.0810 C   0  0  0  0  0  0  0  0  0  0  0  0
   20.9140   76.4050   15.9580 O   0  0  0  0  0  0  0  0  0  0  0  0
   21.8770   78.8630   11.0730 C   0  0  0  0  0  0  0  0  0  0  0  0
   22.7540   79.6590   10.6260 O   0  0  0  0  0  0  0  0  0  0  0  0
   18.2730   79.8210    8.0920 H   0  0  0  0  0  0  0  0  0  0  0  0
   18.1330   74.9930    7.2070 H   0  0  0  0  0  0  0  0  0  0  0  0
   16.3330   76.3960    6.4710 H   0  0  0  0  0  0  0  0  0  0  0  0
   21.5120   74.2620    7.8720 H   0  0  0  0  0  0  0  0  0  0  0  0
   19.7840   73.9580    7.7290 H   0  0  0  0  0  0  0  0  0  0  0  0
   20.4930   73.9590    9.3630 H   0  0  0  0  0  0  0  0  0  0  0  0
   21.1610   79.1990    8.5690 H   0  0  0  0  0  0  0  0  0  0  0  0
   23.4540   79.1450   13.4580 H   0  0  0  0  0  0  0  0  0  0  0  0
   22.9040   77.9410   15.6380 H   0  0  0  0  0  0  0  0  0  0  0  0
   18.3290   76.5600   13.0950 H   0  0  0  0  0  0  0  0  0  0  0  0
   18.8020   75.9870   14.6880 H   0  0  0  0  0  0  0  0  0  0  0  0
   20.4210   74.8560   12.6480 H   0  0  0  0  0  0  0  0  0  0  0  0
   19.1360   74.7490   11.0110 H   0  0  0  0  0  0  0  0  0  0  0  0
   17.7390   75.1940   11.9790 H   0  0  0  0  0  0  0  0  0  0  0  0
   16.9540   73.0980   12.1940 H   0  0  0  0  0  0  0  0  0  0  0  0
   17.9360   72.8580   10.7440 H   0  0  0  0  0  0  0  0  0  0  0  0
   20.2990   71.6090   13.7990 H   0  0  0  0  0  0  0  0  0  0  0  0
   20.7480   72.7660   12.5190 H   0  0  0  0  0  0  0  0  0  0  0  0
   20.6040   73.8210   14.5330 H   0  0  0  0  0  0  0  0  0  0  0  0
   18.8710   73.5270   14.7880 H   0  0  0  0  0  0  0  0  0  0  0  0
   18.7850   70.0040   12.4250 H   0  0  0  0  0  0  0  0  0  0  0  0
   18.0530   70.8080   13.8610 H   0  0  0  0  0  0  0  0  0  0  0  0
   16.3960   71.5740   11.6060 H   0  0  0  0  0  0  0  0  0  0  0  0
   16.8180   69.8320   11.3430 H   0  0  0  0  0  0  0  0  0  0  0  0
   16.0750   70.3930   12.8660 H   0  0  0  0  0  0  0  0  0  0  0  0
  1  2  1  0  0  0  0
  2  3  1  0  0  0  0
  3 31  1  0  0  0  0
  3  4  2  0  0  0  0
  4 10  1  0  0  0  0
  5  4  1  0  0  0  0
  5  8  1  0  0  0  0
  6  5  2  0  0  0  0
  7  2  2  0  0  0  0
  7  6  1  0  0  0  0
  9  8  1  0  0  0  0
  9 36  1  0  0  0  0
 10 11  2  0  0  0  0
 11 29  1  0  0  0  0
 11 12  1  0  0  0  0
 12 13  1  0  0  0  0
 13 18  1  0  0  0  0
 14 13  2  0  0  0  0
 14 15  1  0  0  0  0
 15 16  2  0  0  0  0
 16 39  1  0  0  0  0
 17 16  1  0  0  0  0
 17 28  1  0  0  0  0
 18 17  2  0  0  0  0
 19 18  1  0  0  0  0
 19 41  1  0  0  0  0
 20 19  1  0  0  0  0
 20 25  1  0  0  0  0
 21 44  1  0  0  0  0
 21 20  1  0  0  0  0
 22 21  1  0  0  0  0
 22 45  1  0  0  0  0
 22 23  1  0  0  0  0
 23 26  1  0  0  0  0
 23 24  1  0  0  0  0
 24 47  1  0  0  0  0
 24 25  1  0  0  0  0
 25 49  1  0  0  0  0
 25 50  1  0  0  0  0
 26 52  1  0  0  0  0
 27 26  1  0  0  0  0
 27 55  1  0  0  0  0
 29 14  1  0  0  0  0
 30 29  2  0  0  0  0
 32  6  1  0  0  0  0
 33  7  1  0  0  0  0
 34  9  1  0  0  0  0
 35  9  1  0  0  0  0
 37 10  1  0  0  0  0
 38 15  1  0  0  0  0
 40 19  1  0  0  0  0
 42 20  1  0  0  0  0
 43 21  1  0  0  0  0
 46 22  1  0  0  0  0
 48 24  1  0  0  0  0
 51 26  1  0  0  0  0
 53 27  1  0  0  0  0
 54 27  1  0  0  0  0
M  END
>  <Pose>
1

>  <Score>
-6.40

$$$$
