
 OpenBabel03222202113D

 44 47  0  0  0  0  0  0  0  0999 V2000
   23.0630   78.3970   17.2020 Cl  0  0  0  0  0  0  0  0  0  0  0  0
   21.8550   77.6460   16.2060 C   0  0  0  0  0  0  0  0  0  0  0  0
   20.6900   77.1640   16.7440 C   0  0  0  0  0  0  0  0  0  0  0  0
   19.7710   76.5790   15.9020 C   0  0  0  0  0  0  0  0  0  0  0  0
   19.9620   76.4520   14.5430 C   0  0  0  0  0  0  0  0  0  0  0  0
   21.1370   76.9410   14.0200 C   0  0  0  0  0  0  0  0  0  0  0  0
   22.0630   77.5280   14.8550 C   0  0  0  0  0  0  0  0  0  0  0  0
   18.9770   75.8310   13.6800 N   0  0  0  0  0  0  0  0  0  0  0  0
   19.4660   74.8880   12.7360 C   0  0  0  0  0  0  0  0  0  0  0  0
   19.0690   75.0330   11.3390 C   0  0  0  0  0  0  0  0  0  0  0  0
   18.2230   74.1060   10.9610 O   0  0  0  0  0  0  0  0  0  0  0  0
   19.4120   75.9430   10.3710 N   0  0  0  0  0  0  0  0  0  0  0  0
   19.3600   75.7380    8.9590 C   0  0  0  0  0  0  0  0  0  0  0  0
   18.4300   76.7870    8.3550 C   0  0  0  0  0  0  0  0  0  0  0  0
   19.0660   78.0210    8.6130 O   0  0  0  0  0  0  0  0  0  0  0  0
   18.9800   78.2760    9.9640 C   0  0  0  0  0  0  0  0  0  0  0  0
   19.8530   77.3000   10.7610 C   0  0  0  0  0  0  0  0  0  0  0  0
   20.4050   77.2370   18.1190 N   0  0  0  0  0  0  0  0  0  0  0  0
   20.7640   76.3320   19.0070 N   0  0  0  0  0  0  0  0  0  0  0  0
   20.3600   76.6910   20.2100 N   0  0  0  0  0  0  0  0  0  0  0  0
   19.7360   77.8420   20.0650 N   0  0  0  0  0  0  0  0  0  0  0  0
   19.7540   78.2070   18.7470 C   0  0  0  0  0  0  0  0  0  0  0  0
   19.1310   79.4380   18.2640 C   0  0  0  0  0  0  0  0  0  0  0  0
   18.9500   80.6600   19.0370 C   0  0  0  0  0  0  0  0  0  0  0  0
   20.1180   80.6200   18.0380 C   0  0  0  0  0  0  0  0  0  0  0  0
   18.8250   76.1830   16.3120 H   0  0  0  0  0  0  0  0  0  0  0  0
   21.2840   76.8390   12.9470 H   0  0  0  0  0  0  0  0  0  0  0  0
   22.9830   77.9010   14.3830 H   0  0  0  0  0  0  0  0  0  0  0  0
   17.9820   76.0660   13.7530 H   0  0  0  0  0  0  0  0  0  0  0  0
   19.0800   73.8740   13.0680 H   0  0  0  0  0  0  0  0  0  0  0  0
   20.5830   74.7550   12.8250 H   0  0  0  0  0  0  0  0  0  0  0  0
   20.3970   76.0990    8.5910 H   0  0  0  0  0  0  0  0  0  0  0  0
   19.2320   74.7360    8.5880 H   0  0  0  0  0  0  0  0  0  0  0  0
   18.3010   76.5960    7.2880 H   0  0  0  0  0  0  0  0  0  0  0  0
   17.4590   76.8430    8.8440 H   0  0  0  0  0  0  0  0  0  0  0  0
   17.9230   78.1970   10.2880 H   0  0  0  0  0  0  0  0  0  0  0  0
   19.3110   79.2990   10.1830 H   0  0  0  0  0  0  0  0  0  0  0  0
   19.7480   77.4800   11.8280 H   0  0  0  0  0  0  0  0  0  0  0  0
   20.8790   77.4020   10.3570 H   0  0  0  0  0  0  0  0  0  0  0  0
   18.4620   79.3420   17.3490 H   0  0  0  0  0  0  0  0  0  0  0  0
   18.0790   81.3320   18.7680 H   0  0  0  0  0  0  0  0  0  0  0  0
   19.2990   80.8650   20.0460 H   0  0  0  0  0  0  0  0  0  0  0  0
   19.9640   81.2650   17.1630 H   0  0  0  0  0  0  0  0  0  0  0  0
   21.1380   80.5040   18.3950 H   0  0  0  0  0  0  0  0  0  0  0  0
  2  3  1  0  0  0  0
  2  1  1  0  0  0  0
  3 18  1  0  0  0  0
  4 26  1  0  0  0  0
  4  3  2  0  0  0  0
  5  4  1  0  0  0  0
  6  5  2  0  0  0  0
  6  7  1  0  0  0  0
  7  2  2  0  0  0  0
  8 29  1  0  0  0  0
  8  5  1  0  0  0  0
  9 31  1  0  0  0  0
  9 30  1  0  0  0  0
  9  8  1  0  0  0  0
 10  9  1  0  0  0  0
 11 10  2  0  0  0  0
 12 17  1  0  0  0  0
 12 10  1  0  0  0  0
 13 12  1  0  0  0  0
 14 15  1  0  0  0  0
 14 35  1  0  0  0  0
 14 13  1  0  0  0  0
 15 16  1  0  0  0  0
 16 37  1  0  0  0  0
 16 36  1  0  0  0  0
 16 17  1  0  0  0  0
 17 38  1  0  0  0  0
 18 22  1  0  0  0  0
 18 19  1  0  0  0  0
 19 20  2  0  0  0  0
 21 20  1  0  0  0  0
 22 21  2  0  0  0  0
 23 22  1  0  0  0  0
 23 24  1  0  0  0  0
 24 42  1  0  0  0  0
 25 23  1  0  0  0  0
 25 44  1  0  0  0  0
 25 24  1  0  0  0  0
 27  6  1  0  0  0  0
 28  7  1  0  0  0  0
 32 13  1  0  0  0  0
 33 13  1  0  0  0  0
 34 14  1  0  0  0  0
 39 17  1  0  0  0  0
 40 23  1  0  0  0  0
 41 24  1  0  0  0  0
 43 25  1  0  0  0  0
M  END
>  <Pose>
1

>  <Score>
-6.60

$$$$
