
 OpenBabel03222202113D

 49 52  0  0  1  0  0  0  0  0999 V2000
   16.2620   75.2760    4.2700 B   0  0  0  0  0  0  0  0  0  0  0  0
   17.2400   75.9180    5.7830 C   0  0  0  0  0  0  0  0  0  0  0  0
   18.2830   75.2030    6.3250 C   0  0  0  0  0  0  0  0  0  0  0  0
   19.0010   75.6600    7.4240 C   0  0  0  0  0  0  0  0  0  0  0  0
   18.6800   76.8660    8.0120 C   0  0  0  0  0  0  0  0  0  0  0  0
   17.6300   77.5830    7.4640 C   0  0  0  0  0  0  0  0  0  0  0  0
   16.9170   77.1310    6.3730 C   0  0  0  0  0  0  0  0  0  0  0  0
   19.3850   77.4020    9.1580 C   0  0  0  0  0  0  0  0  0  0  0  0
   19.3910   76.7430   10.3840 C   0  0  0  0  0  0  0  0  0  0  0  0
   20.0230   77.2110   11.4340 O   0  0  0  0  0  0  0  0  0  0  0  0
   20.7010   78.3340   11.4150 C   0  0  0  0  0  0  0  0  0  0  0  0
   20.7530   79.0570   10.2460 C   0  0  0  0  0  0  0  0  0  0  0  0
   21.4720   80.2260   10.2710 C   0  0  0  0  0  0  0  0  0  0  0  0
   22.1240   80.6880   11.3860 C   0  0  0  0  0  0  0  0  0  0  0  0
   22.0830   79.9630   12.5950 C   0  0  0  0  0  0  0  0  0  0  0  0
   21.3610   78.7940   12.5620 C   0  0  0  0  0  0  0  0  0  0  0  0
   22.7510   80.4620   13.6940 O   0  0  0  0  0  0  0  0  0  0  0  0
   22.7610   79.9300   14.9500 C   0  0  2  0  0  0  0  0  0  0  0  0
   22.1850   80.7870   15.9260 O   0  0  0  0  0  0  0  0  0  0  0  0
   21.7930   79.9590   16.9560 C   0  0  1  0  0  0  0  0  0  0  0  0
   22.9190   79.2570   17.6500 C   0  0  2  0  0  0  0  0  0  0  0  0
   23.9420   78.7110   16.6830 C   0  0  1  0  0  0  0  0  0  0  0  0
   24.1450   79.6310   15.4970 C   0  0  1  0  0  0  0  0  0  0  0  0
   24.9320   78.9650   14.5660 O   0  0  0  0  0  0  0  0  0  0  0  0
   25.1260   78.4470   17.3590 O   0  0  0  0  0  0  0  0  0  0  0  0
   22.3680   78.1500   18.3160 O   0  0  0  0  0  0  0  0  0  0  0  0
   20.9220   80.6540   17.9710 C   0  0  0  0  0  0  0  0  0  0  0  0
   19.8070   81.2480   17.3840 O   0  0  0  0  0  0  0  0  0  0  0  0
   20.0990   78.5930    9.1240 C   0  0  0  0  0  0  0  0  0  0  0  0
   20.1460   79.2540    8.0520 O   0  0  0  0  0  0  0  0  0  0  0  0
   18.5510   74.2490    5.8760 H   0  0  0  0  0  0  0  0  0  0  0  0
   19.8150   75.1050    7.8500 H   0  0  0  0  0  0  0  0  0  0  0  0
   17.3750   78.5380    7.9280 H   0  0  0  0  0  0  0  0  0  0  0  0
   16.0940   77.6930    5.9440 H   0  0  0  0  0  0  0  0  0  0  0  0
   18.8280   75.8050   10.4080 H   0  0  0  0  0  0  0  0  0  0  0  0
   21.5050   80.7870    9.3350 H   0  0  0  0  0  0  0  0  0  0  0  0
   22.6890   81.6100   11.3980 H   0  0  0  0  0  0  0  0  0  0  0  0
   21.2910   78.1960   13.4500 H   0  0  0  0  0  0  0  0  0  0  0  0
   22.2090   78.9770   14.9950 H   0  0  0  0  0  0  0  0  0  0  0  0
   21.1500   79.1590   16.4950 H   0  0  0  0  0  0  0  0  0  0  0  0
   23.4070   79.8910   18.4330 H   0  0  0  0  0  0  0  0  0  0  0  0
   23.5540   77.7550   16.2760 H   0  0  0  0  0  0  0  0  0  0  0  0
   24.5950   80.6050   15.7860 H   0  0  0  0  0  0  0  0  0  0  0  0
   25.8770   79.2340   14.6480 H   0  0  0  0  0  0  0  0  0  0  0  0
   25.3490   79.1660   18.0270 H   0  0  0  0  0  0  0  0  0  0  0  0
   23.0670   77.6590   18.8150 H   0  0  0  0  0  0  0  0  0  0  0  0
   21.5000   81.3790   18.5780 H   0  0  0  0  0  0  0  0  0  0  0  0
   20.5140   79.9130   18.7110 H   0  0  0  0  0  0  0  0  0  0  0  0
   19.2630   80.4850   17.0140 H   0  0  0  0  0  0  0  0  0  0  0  0
  1  2  1  0  0  0  0
  2  3  2  0  0  0  0
  2  7  1  0  0  0  0
  3  4  1  0  0  0  0
  4 32  1  0  0  0  0
  4  5  2  0  0  0  0
  5  8  1  0  0  0  0
  6 33  1  0  0  0  0
  6  5  1  0  0  0  0
  7  6  2  0  0  0  0
  8  9  2  0  0  0  0
  9 35  1  0  0  0  0
  9 10  1  0  0  0  0
 11 10  1  0  0  0  0
 11 16  1  0  0  0  0
 12 13  1  0  0  0  0
 12 11  2  0  0  0  0
 13 14  2  0  0  0  0
 14 37  1  0  0  0  0
 14 15  1  0  0  0  0
 15 17  1  0  0  0  0
 16 15  2  0  0  0  0
 16 38  1  0  0  0  0
 17 18  1  0  0  0  0
 18 39  1  6  0  0  0
 18 23  1  0  0  0  0
 18 19  1  0  0  0  0
 19 20  1  0  0  0  0
 20 40  1  6  0  0  0
 20 21  1  0  0  0  0
 20 27  1  0  0  0  0
 21 26  1  0  0  0  0
 21 41  1  1  0  0  0
 22 42  1  6  0  0  0
 22 25  1  0  0  0  0
 22 21  1  0  0  0  0
 23 43  1  1  0  0  0
 23 22  1  0  0  0  0
 24 44  1  0  0  0  0
 24 23  1  0  0  0  0
 25 45  1  0  0  0  0
 26 46  1  0  0  0  0
 27 47  1  0  0  0  0
 27 48  1  0  0  0  0
 28 27  1  0  0  0  0
 29  8  1  0  0  0  0
 29 12  1  0  0  0  0
 30 29  2  0  0  0  0
 31  3  1  0  0  0  0
 34  7  1  0  0  0  0
 36 13  1  0  0  0  0
 49 28  1  0  0  0  0
M  END
>  <Pose>
1

>  <Score>
-7.25

$$$$
