
 OpenBabel03222202113D

 45 48  0  0  0  0  0  0  0  0999 V2000
   19.2410   78.7620   10.1950 S   0  0  0  0  0  0  0  0  0  0  0  0
   19.3830   77.8310   11.3780 O   0  0  0  0  0  0  0  0  0  0  0  0
   18.1500   79.7180   10.4980 O   0  0  0  0  0  0  0  0  0  0  0  0
   20.7470   79.5630    9.9490 N   0  0  0  0  0  0  0  0  0  0  0  0
   21.8050   78.6790   10.2740 C   0  0  0  0  0  0  0  0  0  0  0  0
   22.8670   79.1810   11.2100 C   0  0  0  0  0  0  0  0  0  0  0  0
   22.2820   80.0930   12.1370 N   0  0  0  0  0  0  0  0  0  0  0  0
   21.8570   81.2510   11.3510 C   0  0  0  0  0  0  0  0  0  0  0  0
   20.7030   80.8470   10.5120 C   0  0  0  0  0  0  0  0  0  0  0  0
   23.1210   80.4830   13.2180 C   0  0  0  0  0  0  0  0  0  0  0  0
   23.3120   79.3800   14.2020 C   0  0  0  0  0  0  0  0  0  0  0  0
   22.3470   79.4280   15.2800 N   0  0  0  0  0  0  0  0  0  0  0  0
   22.0510   80.4710   16.0540 N   0  0  0  0  0  0  0  0  0  0  0  0
   21.0970   80.1430   16.9360 C   0  0  0  0  0  0  0  0  0  0  0  0
   20.7800   78.8610   16.7170 N   0  0  0  0  0  0  0  0  0  0  0  0
   19.8360   78.2340   17.4590 C   0  0  0  0  0  0  0  0  0  0  0  0
   19.1550   78.8730   18.4700 C   0  0  0  0  0  0  0  0  0  0  0  0
   19.4610   80.1970   18.7170 C   0  0  0  0  0  0  0  0  0  0  0  0
   20.4260   80.8080   17.9460 C   0  0  0  0  0  0  0  0  0  0  0  0
   21.5640   78.4280   15.6860 C   0  0  0  0  0  0  0  0  0  0  0  0
   21.4890   77.2510   15.2580 O   0  0  0  0  0  0  0  0  0  0  0  0
   18.7870   77.8580    8.7430 C   0  0  0  0  0  0  0  0  0  0  0  0
   19.0180   76.2080    8.3810 S   0  0  0  0  0  0  0  0  0  0  0  0
   18.3090   76.1630    6.8340 C   0  0  0  0  0  0  0  0  0  0  0  0
   17.9050   77.4570    6.6400 C   0  0  0  0  0  0  0  0  0  0  0  0
   18.1510   78.3300    7.6240 C   0  0  0  0  0  0  0  0  0  0  0  0
   18.1060   74.6750    5.6250 B   0  0  0  0  0  0  0  0  0  0  0  0
   21.3470   77.7740   10.7840 H   0  0  0  0  0  0  0  0  0  0  0  0
   22.2720   78.3290    9.3020 H   0  0  0  0  0  0  0  0  0  0  0  0
   23.3340   78.2830   11.6660 H   0  0  0  0  0  0  0  0  0  0  0  0
   23.6140   79.7110   10.5450 H   0  0  0  0  0  0  0  0  0  0  0  0
   21.5730   82.0980   11.9880 H   0  0  0  0  0  0  0  0  0  0  0  0
   22.7150   81.4760   10.6750 H   0  0  0  0  0  0  0  0  0  0  0  0
   19.7750   80.9850   11.1400 H   0  0  0  0  0  0  0  0  0  0  0  0
   20.6360   81.5920    9.6690 H   0  0  0  0  0  0  0  0  0  0  0  0
   24.1510   80.8000   12.8640 H   0  0  0  0  0  0  0  0  0  0  0  0
   22.6490   81.3670   13.7350 H   0  0  0  0  0  0  0  0  0  0  0  0
   23.1480   78.3970   13.6770 H   0  0  0  0  0  0  0  0  0  0  0  0
   24.3380   79.3920   14.6600 H   0  0  0  0  0  0  0  0  0  0  0  0
   19.5980   77.1920   17.2600 H   0  0  0  0  0  0  0  0  0  0  0  0
   18.3980   78.3880   19.0700 H   0  0  0  0  0  0  0  0  0  0  0  0
   18.9300   80.7160   19.5150 H   0  0  0  0  0  0  0  0  0  0  0  0
   20.6560   81.8390   18.1490 H   0  0  0  0  0  0  0  0  0  0  0  0
   17.3960   77.7330    5.6900 H   0  0  0  0  0  0  0  0  0  0  0  0
   17.8610   79.4070    7.5600 H   0  0  0  0  0  0  0  0  0  0  0  0
  1  3  2  0  0  0  0
  1  2  2  0  0  0  0
  4  1  1  0  0  0  0
  4  5  1  0  0  0  0
  4  9  1  0  0  0  0
  5 28  1  0  0  0  0
  5  6  1  0  0  0  0
  6 30  1  0  0  0  0
  6  7  1  0  0  0  0
  7 10  1  0  0  0  0
  8 32  1  0  0  0  0
  8  7  1  0  0  0  0
  9 34  1  0  0  0  0
  9  8  1  0  0  0  0
 10 37  1  0  0  0  0
 10 11  1  0  0  0  0
 11 39  1  0  0  0  0
 11 12  1  0  0  0  0
 12 20  1  0  0  0  0
 12 13  1  0  0  0  0
 13 14  2  0  0  0  0
 14 19  1  0  0  0  0
 15 14  1  0  0  0  0
 15 16  1  0  0  0  0
 16 17  2  0  0  0  0
 17 18  1  0  0  0  0
 17 41  1  0  0  0  0
 18 42  1  0  0  0  0
 19 43  1  0  0  0  0
 19 18  2  0  0  0  0
 20 15  1  0  0  0  0
 21 20  2  0  0  0  0
 22  1  1  0  0  0  0
 23 22  1  0  0  0  0
 24 23  1  0  0  0  0
 25 24  2  0  0  0  0
 25 26  1  0  0  0  0
 26 22  2  0  0  0  0
 27 24  1  0  0  0  0
 29  5  1  0  0  0  0
 31  6  1  0  0  0  0
 33  8  1  0  0  0  0
 35  9  1  0  0  0  0
 36 10  1  0  0  0  0
 38 11  1  0  0  0  0
 40 16  1  0  0  0  0
 44 25  1  0  0  0  0
 45 26  1  0  0  0  0
M  END
>  <Pose>
1

>  <Score>
-8.10

$$$$
