
 OpenBabel03222202113D

 52 55  0  0  0  0  0  0  0  0999 V2000
   17.3510   74.2650    5.5240 Cl  0  0  0  0  0  0  0  0  0  0  0  0
   18.0280   75.2890    6.8140 C   0  0  0  0  0  0  0  0  0  0  0  0
   17.7950   76.6570    6.8870 C   0  0  0  0  0  0  0  0  0  0  0  0
   18.3860   77.4520    7.8530 C   0  0  0  0  0  0  0  0  0  0  0  0
   19.2550   76.8790    8.8000 C   0  0  0  0  0  0  0  0  0  0  0  0
   19.4570   75.5480    8.7090 C   0  0  0  0  0  0  0  0  0  0  0  0
   18.8800   74.7330    7.7520 C   0  0  0  0  0  0  0  0  0  0  0  0
   19.8900   77.8020    9.7620 C   0  0  0  0  0  0  0  0  0  0  0  0
   20.5550   78.9330    9.3470 C   0  0  0  0  0  0  0  0  0  0  0  0
   21.2340   79.7040   10.3010 C   0  0  0  0  0  0  0  0  0  0  0  0
   21.2420   79.3540   11.6330 C   0  0  0  0  0  0  0  0  0  0  0  0
   21.8890   80.0540   12.6520 C   0  0  0  0  0  0  0  0  0  0  0  0
   22.5800   81.2030   12.1930 C   0  0  0  0  0  0  0  0  0  0  0  0
   22.6000   81.5870   10.8550 C   0  0  0  0  0  0  0  0  0  0  0  0
   21.9240   80.8250    9.9160 C   0  0  0  0  0  0  0  0  0  0  0  0
   23.2910   82.0350   13.0350 O   0  0  0  0  0  0  0  0  0  0  0  0
   22.0760   79.6710   14.0070 C   0  0  0  0  0  0  0  0  0  0  0  0
   22.4220   80.5720   15.0760 N   0  0  0  0  0  4  0  0  0  0  0  0
   21.3770   80.5900   16.1380 C   0  0  0  0  0  0  0  0  0  0  0  0
   20.8730   79.2110   16.3750 C   0  0  0  0  0  0  0  0  0  0  0  0
   21.8650   78.2570   16.8150 N   0  0  0  0  0  0  0  0  0  0  0  0
   23.1750   78.5610   16.3490 C   0  0  0  0  0  0  0  0  0  0  0  0
   23.4990   79.8960   15.8690 C   0  0  0  0  0  0  0  0  0  0  0  0
   21.4800   76.8980   16.4060 C   0  0  0  0  0  0  0  0  0  0  0  0
   20.1530   76.4800   16.9950 C   0  0  0  0  0  0  0  0  0  0  0  0
   20.1570   76.4850   18.3820 O   0  0  0  0  0  0  0  0  0  0  0  0
   20.6140   78.3010   11.9720 O   0  0  0  0  0  0  0  0  0  0  0  0
   19.9420   77.5020   11.1390 C   0  0  0  0  0  0  0  0  0  0  0  0
   19.3470   76.4950   11.5400 O   0  0  0  0  0  0  0  0  0  0  0  0
   17.1400   77.0770    6.1440 H   0  0  0  0  0  0  0  0  0  0  0  0
   18.1960   78.5190    7.8880 H   0  0  0  0  0  0  0  0  0  0  0  0
   20.1050   75.0290    9.4070 H   0  0  0  0  0  0  0  0  0  0  0  0
   19.0680   73.6700    7.7230 H   0  0  0  0  0  0  0  0  0  0  0  0
   20.5710   79.2500    8.3190 H   0  0  0  0  0  0  0  0  0  0  0  0
   23.0780   82.4740   10.5120 H   0  0  0  0  0  0  0  0  0  0  0  0
   21.9740   81.0990    8.8450 H   0  0  0  0  0  0  0  0  0  0  0  0
   23.1790   79.1460   13.9300 H   0  0  0  0  0  0  0  0  0  0  0  0
   21.5500   78.7920   14.2960 H   0  0  0  0  0  0  0  0  0  0  0  0
   22.7800   81.4780   14.8780 H   0  0  0  0  0  0  0  0  0  0  0  0
   20.6230   81.3430   16.0110 H   0  0  0  0  0  0  0  0  0  0  0  0
   21.9450   80.9050   17.0880 H   0  0  0  0  0  0  0  0  0  0  0  0
   20.3160   78.8260   15.5120 H   0  0  0  0  0  0  0  0  0  0  0  0
   20.1330   79.3030   17.2210 H   0  0  0  0  0  0  0  0  0  0  0  0
   23.4690   77.7790   15.6110 H   0  0  0  0  0  0  0  0  0  0  0  0
   23.8930   78.3610   17.2290 H   0  0  0  0  0  0  0  0  0  0  0  0
   24.4040   79.9080   15.2190 H   0  0  0  0  0  0  0  0  0  0  0  0
   23.6660   80.5630   16.7720 H   0  0  0  0  0  0  0  0  0  0  0  0
   22.2730   76.2310   16.7510 H   0  0  0  0  0  0  0  0  0  0  0  0
   21.3850   76.7870   15.3060 H   0  0  0  0  0  0  0  0  0  0  0  0
   19.7130   75.5930   16.5560 H   0  0  0  0  0  0  0  0  0  0  0  0
   19.4470   77.3210   16.6650 H   0  0  0  0  0  0  0  0  0  0  0  0
   19.2330   76.2300   18.6990 H   0  0  0  0  0  0  0  0  0  0  0  0
  1  2  1  0  0  0  0
  2  3  2  0  0  0  0
  2  7  1  0  0  0  0
  3  4  1  0  0  0  0
  4 31  1  0  0  0  0
  4  5  2  0  0  0  0
  5  8  1  0  0  0  0
  6  5  1  0  0  0  0
  6 32  1  0  0  0  0
  7  6  2  0  0  0  0
  8 28  1  0  0  0  0
  9  8  2  0  0  0  0
  9 10  1  0  0  0  0
 10 11  1  0  0  0  0
 11 27  1  0  0  0  0
 11 12  2  0  0  0  0
 12 17  1  0  0  0  0
 13 12  1  0  0  0  0
 13 16  1  0  0  0  0
 14 13  2  0  0  0  0
 15 10  2  0  0  0  0
 15 14  1  0  0  0  0
 17 38  1  0  0  0  0
 17 18  1  0  0  0  0
 18 23  1  0  0  0  0
 18 19  1  0  0  0  0
 19 20  1  0  0  0  0
 19 41  1  0  0  0  0
 20 21  1  0  0  0  0
 20 43  1  0  0  0  0
 22 21  1  0  0  0  0
 22 45  1  0  0  0  0
 23 22  1  0  0  0  0
 23 47  1  0  0  0  0
 24 48  1  0  0  0  0
 24 21  1  0  0  0  0
 24 25  1  0  0  0  0
 25 26  1  0  0  0  0
 26 52  1  0  0  0  0
 28 29  2  0  0  0  0
 28 27  1  0  0  0  0
 30  3  1  0  0  0  0
 33  7  1  0  0  0  0
 34  9  1  0  0  0  0
 35 14  1  0  0  0  0
 36 15  1  0  0  0  0
 37 17  1  0  0  0  0
 39 18  1  0  0  0  0
 40 19  1  0  0  0  0
 42 20  1  0  0  0  0
 44 22  1  0  0  0  0
 46 23  1  0  0  0  0
 49 24  1  0  0  0  0
 50 25  1  0  0  0  0
 51 25  1  0  0  0  0
M  END
>  <Pose>
1

>  <Score>
-6.55

$$$$
