
 OpenBabel03222202113D

 54 57  0  0  0  0  0  0  0  0999 V2000
   21.7790   80.9730    9.9900 B   0  0  0  0  0  0  0  0  0  0  0  0
   22.0120   79.9750   11.5990 C   0  0  0  0  0  0  0  0  0  0  0  0
   21.9720   78.5990   11.5940 C   0  0  0  0  0  0  0  0  0  0  0  0
   22.1440   77.8850   12.7800 C   0  0  0  0  0  0  0  0  0  0  0  0
   22.3510   78.5710   13.9410 C   0  0  0  0  0  0  0  0  0  0  0  0
   22.3920   79.9350   13.9630 C   0  0  0  0  0  0  0  0  0  0  0  0
   22.2240   80.6380   12.7960 C   0  0  0  0  0  0  0  0  0  0  0  0
   22.4940   77.7530   15.2110 C   0  0  0  0  0  0  0  0  0  0  0  0
   21.2070   77.4450   15.7810 N   0  0  0  0  0  0  0  0  0  0  0  0
   20.7290   78.0040   16.9410 C   0  0  0  0  0  0  0  0  0  0  0  0
   19.4860   77.4760   17.2290 C   0  0  0  0  0  0  0  0  0  0  0  0
   19.2330   76.6120   16.2410 N   0  0  0  0  0  0  0  0  0  0  0  0
   20.2770   76.5910   15.3530 C   0  0  0  0  0  0  0  0  0  0  0  0
   20.2230   75.8390   14.1690 N   0  0  0  0  0  0  0  0  0  0  0  0
   19.6640   76.1640   12.9060 C   0  0  0  0  0  0  0  0  0  0  0  0
   19.2040   74.9210   12.1370 C   0  0  0  0  0  0  0  0  0  0  0  0
   18.9000   73.7970   12.9240 N   0  0  0  0  0  0  0  0  0  0  0  0
   19.8240   73.4350   13.9250 C   0  0  0  0  0  0  0  0  0  0  0  0
   20.8630   74.4950   14.2120 C   0  0  0  0  0  0  0  0  0  0  0  0
   17.5780   73.3330   13.0140 C   0  0  0  0  0  0  0  0  0  0  0  0
   17.3660   71.8780   12.9940 C   0  0  0  0  0  0  0  0  0  0  0  0
   17.9140   71.1000   13.8200 O   0  0  0  0  0  0  0  0  0  0  0  0
   16.5400   71.3200   12.0430 O   0  0  0  0  0  0  0  0  0  0  0  0
   16.3220   69.9390   11.9470 C   0  0  0  0  0  0  0  0  0  0  0  0
   18.8000   77.8700   18.3190 N   0  0  0  0  0  0  0  0  0  0  0  0
   19.3550   78.7920   19.1190 C   0  0  0  0  0  0  0  0  0  0  0  0
   18.7060   79.1520   20.1330 O   0  0  0  0  0  0  0  0  0  0  0  0
   20.5560   79.3280   18.8720 N   0  0  0  0  0  0  0  0  0  0  0  0
   21.2810   78.9510   17.7760 C   0  0  0  0  0  0  0  0  0  0  0  0
   22.4020   79.4750   17.5710 O   0  0  0  0  0  0  0  0  0  0  0  0
   17.4990   77.2850   18.5880 C   0  0  0  0  0  0  0  0  0  0  0  0
   21.8080   78.0310   10.6730 H   0  0  0  0  0  0  0  0  0  0  0  0
   22.1090   76.7900   12.7200 H   0  0  0  0  0  0  0  0  0  0  0  0
   22.5420   80.4700   14.8830 H   0  0  0  0  0  0  0  0  0  0  0  0
   22.2590   81.7170   12.8220 H   0  0  0  0  0  0  0  0  0  0  0  0
   23.1480   78.3710   15.8220 H   0  0  0  0  0  0  0  0  0  0  0  0
   23.0090   76.8020   14.9090 H   0  0  0  0  0  0  0  0  0  0  0  0
   18.7340   76.7880   12.9640 H   0  0  0  0  0  0  0  0  0  0  0  0
   20.4470   76.6080   12.2610 H   0  0  0  0  0  0  0  0  0  0  0  0
   18.3220   75.1560   11.4860 H   0  0  0  0  0  0  0  0  0  0  0  0
   19.9940   74.5920   11.3940 H   0  0  0  0  0  0  0  0  0  0  0  0
   20.3890   72.5380   13.5620 H   0  0  0  0  0  0  0  0  0  0  0  0
   19.2980   73.1160   14.8390 H   0  0  0  0  0  0  0  0  0  0  0  0
   21.6510   74.5350   13.4340 H   0  0  0  0  0  0  0  0  0  0  0  0
   21.2960   74.2940   15.1990 H   0  0  0  0  0  0  0  0  0  0  0  0
   16.9140   73.8680   12.2910 H   0  0  0  0  0  0  0  0  0  0  0  0
   17.1800   73.6750   14.0200 H   0  0  0  0  0  0  0  0  0  0  0  0
   16.9370   69.4910   11.1300 H   0  0  0  0  0  0  0  0  0  0  0  0
   15.2480   69.8130   11.6270 H   0  0  0  0  0  0  0  0  0  0  0  0
   16.5400   69.3720   12.8720 H   0  0  0  0  0  0  0  0  0  0  0  0
   20.9750   80.0520   19.5090 H   0  0  0  0  0  0  0  0  0  0  0  0
   16.8420   77.5450   17.7320 H   0  0  0  0  0  0  0  0  0  0  0  0
   17.5590   76.1670   18.6090 H   0  0  0  0  0  0  0  0  0  0  0  0
   17.1380   77.6330   19.5630 H   0  0  0  0  0  0  0  0  0  0  0  0
  1  2  1  0  0  0  0
  2  7  1  0  0  0  0
  3  2  2  0  0  0  0
  3  4  1  0  0  0  0
  4  5  2  0  0  0  0
  5  6  1  0  0  0  0
  5  8  1  0  0  0  0
  6 34  1  0  0  0  0
  7 35  1  0  0  0  0
  7  6  2  0  0  0  0
  8  9  1  0  0  0  0
  8 36  1  0  0  0  0
  9 10  1  0  0  0  0
 10 11  2  0  0  0  0
 10 29  1  0  0  0  0
 11 25  1  0  0  0  0
 12 11  1  0  0  0  0
 13  9  1  0  0  0  0
 13 12  2  0  0  0  0
 14 19  1  0  0  0  0
 14 13  1  0  0  0  0
 15 38  1  0  0  0  0
 15 14  1  0  0  0  0
 16 15  1  0  0  0  0
 16 17  1  0  0  0  0
 17 20  1  0  0  0  0
 17 18  1  0  0  0  0
 18 19  1  0  0  0  0
 18 43  1  0  0  0  0
 19 45  1  0  0  0  0
 20 47  1  0  0  0  0
 21 20  1  0  0  0  0
 21 22  2  0  0  0  0
 23 21  1  0  0  0  0
 24 23  1  0  0  0  0
 24 50  1  0  0  0  0
 25 31  1  0  0  0  0
 25 26  1  0  0  0  0
 26 27  2  0  0  0  0
 28 26  1  0  0  0  0
 28 51  1  0  0  0  0
 29 28  1  0  0  0  0
 30 29  2  0  0  0  0
 31 53  1  0  0  0  0
 31 54  1  0  0  0  0
 32  3  1  0  0  0  0
 33  4  1  0  0  0  0
 37  8  1  0  0  0  0
 39 15  1  0  0  0  0
 40 16  1  0  0  0  0
 41 16  1  0  0  0  0
 42 18  1  0  0  0  0
 44 19  1  0  0  0  0
 46 20  1  0  0  0  0
 48 24  1  0  0  0  0
 49 24  1  0  0  0  0
 52 31  1  0  0  0  0
M  END
>  <Pose>
1

>  <Score>
-6.32

$$$$
