
 OpenBabel03222202113D

 43 46  0  0  0  0  0  0  0  0999 V2000
   19.7160   69.7160   13.1280 B   0  0  0  0  0  0  0  0  0  0  0  0
   18.7880   71.3790   12.9870 C   0  0  0  0  0  0  0  0  0  0  0  0
   17.4550   71.4060   12.7240 C   0  0  0  0  0  0  0  0  0  0  0  0
   16.7940   72.5590   12.6230 N   0  0  0  0  0  0  0  0  0  0  0  0
   17.4500   73.7170   12.7830 C   0  0  0  0  0  0  0  0  0  0  0  0
   18.8140   73.7490   13.0540 C   0  0  0  0  0  0  0  0  0  0  0  0
   19.5030   72.5630   13.1600 C   0  0  0  0  0  0  0  0  0  0  0  0
   19.4390   75.0400   13.2180 C   0  0  0  0  0  0  0  0  0  0  0  0
   19.0870   76.0100   12.5260 O   0  0  0  0  0  0  0  0  0  0  0  0
   20.5120   75.2380   14.2140 N   0  0  0  0  0  0  0  0  0  0  0  0
   20.1450   75.9390   15.3650 C   0  0  0  0  0  0  0  0  0  0  0  0
   20.6670   77.2250   15.7750 C   0  0  0  0  0  0  0  0  0  0  0  0
   20.3820   77.4890   17.1620 C   0  0  0  0  0  0  0  0  0  0  0  0
   20.7820   78.6470   17.7210 C   0  0  0  0  0  0  0  0  0  0  0  0
   21.4790   79.6130   16.9720 C   0  0  0  0  0  0  0  0  0  0  0  0
   21.7620   79.3760   15.6490 C   0  0  0  0  0  0  0  0  0  0  0  0
   21.3520   78.1720   15.0560 C   0  0  0  0  0  0  0  0  0  0  0  0
   21.7320   77.8590   13.6540 C   0  0  0  0  0  0  0  0  0  0  0  0
   22.8850   78.7080   13.1290 C   0  0  0  0  0  0  0  0  0  0  0  0
   22.7050   80.1060   13.4440 N   0  0  0  0  0  0  0  0  0  0  0  0
   22.4530   80.3680   14.8310 C   0  0  0  0  0  0  0  0  0  0  0  0
   22.8520   81.4660   15.2710 O   0  0  0  0  0  0  0  0  0  0  0  0
   22.7740   81.1490   12.4430 C   0  0  0  0  0  0  0  0  0  0  0  0
   21.8430   80.7440   17.6030 O   0  0  0  0  0  0  0  0  0  0  0  0
   20.3700   78.6230   19.0620 O   0  0  0  0  0  0  0  0  0  0  0  0
   19.4830   77.5440   19.2720 C   0  0  0  0  0  0  0  0  0  0  0  0
   19.7200   76.7360   18.1360 O   0  0  0  0  0  0  0  0  0  0  0  0
   16.8570   70.4910   12.5810 H   0  0  0  0  0  0  0  0  0  0  0  0
   16.9450   74.6770   12.7090 H   0  0  0  0  0  0  0  0  0  0  0  0
   20.5580   72.5530   13.3730 H   0  0  0  0  0  0  0  0  0  0  0  0
   21.4060   74.8490   13.8810 H   0  0  0  0  0  0  0  0  0  0  0  0
   18.9760   76.0200   15.3320 H   0  0  0  0  0  0  0  0  0  0  0  0
   20.2010   75.1960   16.2680 H   0  0  0  0  0  0  0  0  0  0  0  0
   20.9150   77.9840   12.9360 H   0  0  0  0  0  0  0  0  0  0  0  0
   22.1450   76.8240   13.5810 H   0  0  0  0  0  0  0  0  0  0  0  0
   22.8970   78.5320   12.0240 H   0  0  0  0  0  0  0  0  0  0  0  0
   23.8080   78.3110   13.6060 H   0  0  0  0  0  0  0  0  0  0  0  0
   21.8080   81.1120   11.8820 H   0  0  0  0  0  0  0  0  0  0  0  0
   23.5870   80.9370   11.7260 H   0  0  0  0  0  0  0  0  0  0  0  0
   22.8410   82.1290   12.9330 H   0  0  0  0  0  0  0  0  0  0  0  0
   22.4560   81.4430   17.3590 H   0  0  0  0  0  0  0  0  0  0  0  0
   19.7000   77.0060   20.2180 H   0  0  0  0  0  0  0  0  0  0  0  0
   18.4620   77.9580   19.2980 H   0  0  0  0  0  0  0  0  0  0  0  0
  2  1  1  0  0  0  0
  2  7  1  0  0  0  0
  3  2  2  0  0  0  0
  4  3  1  0  0  0  0
  4  5  2  0  0  0  0
  5  6  1  0  0  0  0
  6  7  2  0  0  0  0
  6  8  1  0  0  0  0
  7 30  1  0  0  0  0
  8 10  1  0  0  0  0
  9  8  2  0  0  0  0
 10 11  1  0  0  0  0
 11 12  1  0  0  0  0
 11 33  1  0  0  0  0
 12 13  1  0  0  0  0
 13 14  2  0  0  0  0
 13 27  1  0  0  0  0
 14 25  1  0  0  0  0
 15 24  1  0  0  0  0
 15 14  1  0  0  0  0
 16 15  2  0  0  0  0
 17 16  1  0  0  0  0
 17 12  2  0  0  0  0
 18 17  1  0  0  0  0
 19 20  1  0  0  0  0
 19 37  1  0  0  0  0
 19 18  1  0  0  0  0
 20 21  1  0  0  0  0
 21 22  2  0  0  0  0
 21 16  1  0  0  0  0
 23 40  1  0  0  0  0
 23 20  1  0  0  0  0
 25 26  1  0  0  0  0
 26 43  1  0  0  0  0
 26 42  1  0  0  0  0
 27 26  1  0  0  0  0
 28  3  1  0  0  0  0
 29  5  1  0  0  0  0
 31 10  1  0  0  0  0
 32 11  1  0  0  0  0
 34 18  1  0  0  0  0
 35 18  1  0  0  0  0
 36 19  1  0  0  0  0
 38 23  1  0  0  0  0
 39 23  1  0  0  0  0
 41 24  1  0  0  0  0
M  END
>  <Pose>
1

>  <Score>
-6.45

$$$$
