
 OpenBabel03222202113D

 36 39  0  0  1  0  0  0  0  0999 V2000
   17.9710   74.6020    6.6000 Cl  0  0  0  0  0  0  0  0  0  0  0  0
   18.7600   75.8570    7.5390 C   0  0  0  0  0  0  0  0  0  0  0  0
   19.5270   75.5340    8.6400 C   0  0  0  0  0  0  0  0  0  0  0  0
   20.1460   76.5310    9.3760 C   0  0  0  0  0  0  0  0  0  0  0  0
   20.0370   77.8690    9.0620 C   0  0  0  0  0  0  0  0  0  0  0  0
   19.2640   78.1830    7.9540 C   0  0  0  0  0  0  0  0  0  0  0  0
   18.6440   77.1920    7.2160 C   0  0  0  0  0  0  0  0  0  0  0  0
   20.6710   78.9040    9.8150 N   0  0  0  0  0  0  0  0  0  0  0  0
   20.0900   79.7540   10.8140 C   0  0  0  0  0  0  0  0  0  0  0  0
   18.8870   79.7560   11.1780 O   0  0  0  0  0  0  0  0  0  0  0  0
   21.1240   80.6540   11.3740 C   0  0  1  0  0  0  0  0  0  0  0  0
   21.1600   80.6280   12.7640 O   0  0  0  0  0  0  0  0  0  0  0  0
   21.5640   79.4270   13.1410 N   0  0  1  0  0  0  0  0  0  0  0  0
   22.3110   78.8040   12.1390 C   0  0  1  0  0  0  0  0  0  0  0  0
   22.3900   79.8700   11.0450 C   0  0  1  0  0  0  0  0  0  0  0  0
   22.0370   79.3080    9.7200 C   0  0  0  0  0  0  0  0  0  0  0  0
   22.7480   79.1810    8.6790 O   0  0  0  0  0  0  0  0  0  0  0  0
   23.6210   78.2250   12.4680 C   0  0  0  0  0  0  0  0  0  0  0  0
   24.0670   78.2680   13.8760 C   0  0  0  0  0  0  0  0  0  0  0  0
   22.8570   78.1320   14.7750 C   0  0  0  0  0  0  0  0  0  0  0  0
   21.9720   79.3150   14.4800 C   0  0  0  0  0  0  0  0  0  0  0  0
   19.6460   74.4820    8.9330 H   0  0  0  0  0  0  0  0  0  0  0  0
   20.7460   76.2850   10.2370 H   0  0  0  0  0  0  0  0  0  0  0  0
   19.1740   79.2360    7.7000 H   0  0  0  0  0  0  0  0  0  0  0  0
   18.0440   77.4350    6.3560 H   0  0  0  0  0  0  0  0  0  0  0  0
   21.1250   81.6570   10.9570 H   0  0  0  0  0  0  0  0  0  0  0  0
   21.6670   77.9880   11.6910 H   0  0  0  0  0  0  0  0  0  0  0  0
   23.2920   80.4620   11.0680 H   0  0  0  0  0  0  0  0  0  0  0  0
   24.4050   78.7620   11.8540 H   0  0  0  0  0  0  0  0  0  0  0  0
   23.7150   77.1560   12.1100 H   0  0  0  0  0  0  0  0  0  0  0  0
   24.7290   77.3980   14.1040 H   0  0  0  0  0  0  0  0  0  0  0  0
   24.5900   79.1980   14.1760 H   0  0  0  0  0  0  0  0  0  0  0  0
   23.2110   78.2240   15.8200 H   0  0  0  0  0  0  0  0  0  0  0  0
   22.3490   77.1710   14.6640 H   0  0  0  0  0  0  0  0  0  0  0  0
   22.4940   80.2280   14.8630 H   0  0  0  0  0  0  0  0  0  0  0  0
   21.0630   79.2050   15.1360 H   0  0  0  0  0  0  0  0  0  0  0  0
  1  2  1  0  0  0  0
  2  3  1  0  0  0  0
  3 22  1  0  0  0  0
  3  4  2  0  0  0  0
  4 23  1  0  0  0  0
  5  4  1  0  0  0  0
  5  8  1  0  0  0  0
  6  5  2  0  0  0  0
  7  2  2  0  0  0  0
  7  6  1  0  0  0  0
  8  9  1  0  0  0  0
  9 10  2  0  0  0  0
  9 11  1  0  0  0  0
 11 26  1  6  0  0  0
 11 12  1  0  0  0  0
 13 12  1  6  0  0  0
 13 21  1  0  0  0  0
 14 27  1  6  0  0  0
 14 18  1  0  0  0  0
 14 13  1  0  0  0  0
 15 28  1  1  0  0  0
 15 11  1  0  0  0  0
 15 14  1  0  0  0  0
 16  8  1  0  0  0  0
 16 15  1  0  0  0  0
 17 16  2  0  0  0  0
 18 19  1  0  0  0  0
 19 31  1  0  0  0  0
 19 32  1  0  0  0  0
 19 20  1  0  0  0  0
 20 33  1  0  0  0  0
 21 20  1  0  0  0  0
 21 35  1  0  0  0  0
 21 36  1  0  0  0  0
 24  6  1  0  0  0  0
 25  7  1  0  0  0  0
 29 18  1  0  0  0  0
 30 18  1  0  0  0  0
 34 20  1  0  0  0  0
M  END
>  <Pose>
1

>  <Score>
-4.77

$$$$
