
 OpenBabel03222202113D

 46 49  0  0  0  0  0  0  0  0999 V2000
   15.4540   79.8460    6.9050 Cl  0  0  0  0  0  0  0  0  0  0  0  0
   16.1630   78.2680    6.6020 C   0  0  0  0  0  0  0  0  0  0  0  0
   17.2610   77.8740    7.3610 C   0  0  0  0  0  0  0  0  0  0  0  0
   17.8160   76.6250    7.1190 C   0  0  0  0  0  0  0  0  0  0  0  0
   17.2440   75.8280    6.1250 C   0  0  0  0  0  0  0  0  0  0  0  0
   16.1680   76.2290    5.3880 C   0  0  0  0  0  0  0  0  0  0  0  0
   15.6210   77.4530    5.6230 C   0  0  0  0  0  0  0  0  0  0  0  0
   17.9640   74.7480    6.1280 O   0  0  0  0  0  0  0  0  0  0  0  0
   18.9190   74.8000    7.0210 C   0  0  0  0  0  0  0  0  0  0  0  0
   19.7480   73.8700    7.2130 O   0  0  0  0  0  0  0  0  0  0  0  0
   18.8500   75.9780    7.6650 N   0  0  0  0  0  0  0  0  0  0  0  0
   19.7450   76.3780    8.7110 C   0  0  0  0  0  0  0  0  0  0  0  0
   19.3490   75.7530   10.0020 C   0  0  0  0  0  0  0  0  0  0  0  0
   18.8880   74.4990   10.1500 N   0  0  0  0  0  0  0  0  0  0  0  0
   18.5990   74.2630   11.3990 O   0  0  0  0  0  0  0  0  0  0  0  0
   18.8720   75.3610   12.0740 C   0  0  0  0  0  0  0  0  0  0  0  0
   19.3350   76.2880   11.2300 N   0  0  0  0  0  0  0  0  0  0  0  0
   18.6530   75.4430   13.5570 C   0  0  0  0  0  0  0  0  0  0  0  0
   17.5490   74.8820   13.8800 O   0  0  0  0  0  0  0  0  0  0  0  0
   19.5600   76.0440   14.3480 N   0  0  0  0  0  0  0  0  0  0  0  0
   20.4870   76.6510   15.1740 C   0  0  0  0  0  0  0  0  0  0  0  0
   20.0600   76.6860   16.6470 C   0  0  0  0  0  0  0  0  0  0  0  0
   19.9460   77.9760   17.2020 N   0  0  0  0  0  0  0  0  0  0  0  0
   20.9100   78.8540   16.6650 C   0  0  0  0  0  0  0  0  0  0  0  0
   21.2670   79.9730   17.5840 C   0  0  0  0  0  0  0  0  0  0  0  0
   20.1270   80.4370   18.1870 O   0  0  0  0  0  0  0  0  0  0  0  0
   19.5410   79.5330   19.0530 C   0  0  0  0  0  0  0  0  0  0  0  0
   19.5520   78.1220   18.5430 C   0  0  0  0  0  0  0  0  0  0  0  0
   17.7050   78.4690    8.1260 H   0  0  0  0  0  0  0  0  0  0  0  0
   15.7550   75.5670    4.6250 H   0  0  0  0  0  0  0  0  0  0  0  0
   14.7610   77.7740    5.0330 H   0  0  0  0  0  0  0  0  0  0  0  0
   19.7470   77.4810    8.7690 H   0  0  0  0  0  0  0  0  0  0  0  0
   20.8000   76.0920    8.5030 H   0  0  0  0  0  0  0  0  0  0  0  0
   19.1830   75.2290   15.3850 H   0  0  0  0  0  0  0  0  0  0  0  0
   20.6000   77.7490   14.9200 H   0  0  0  0  0  0  0  0  0  0  0  0
   21.5040   76.2270   15.1760 H   0  0  0  0  0  0  0  0  0  0  0  0
   20.7410   76.0940   17.2940 H   0  0  0  0  0  0  0  0  0  0  0  0
   19.0760   76.1850   16.6850 H   0  0  0  0  0  0  0  0  0  0  0  0
   21.8140   78.3050   16.3250 H   0  0  0  0  0  0  0  0  0  0  0  0
   20.5030   79.3440   15.7280 H   0  0  0  0  0  0  0  0  0  0  0  0
   22.0350   79.6860   18.3290 H   0  0  0  0  0  0  0  0  0  0  0  0
   21.6750   80.8500   16.9920 H   0  0  0  0  0  0  0  0  0  0  0  0
   18.5080   79.8980   19.2760 H   0  0  0  0  0  0  0  0  0  0  0  0
   20.1010   79.5660   20.0060 H   0  0  0  0  0  0  0  0  0  0  0  0
   18.5070   77.7270   18.7300 H   0  0  0  0  0  0  0  0  0  0  0  0
   20.2120   77.4920   19.1710 H   0  0  0  0  0  0  0  0  0  0  0  0
  2  1  1  0  0  0  0
  2  3  1  0  0  0  0
  3 29  1  0  0  0  0
  4  3  2  0  0  0  0
  4 11  1  0  0  0  0
  5  8  1  0  0  0  0
  5  4  1  0  0  0  0
  6  7  1  0  0  0  0
  6  5  2  0  0  0  0
  7  2  2  0  0  0  0
  8  9  1  0  0  0  0
  9 10  2  0  0  0  0
  9 11  1  0  0  0  0
 11 12  1  0  0  0  0
 12 32  1  0  0  0  0
 12 13  1  0  0  0  0
 13 14  2  0  0  0  0
 13 17  1  0  0  0  0
 14 15  1  0  0  0  0
 15 16  1  0  0  0  0
 16 18  1  0  0  0  0
 17 16  2  0  0  0  0
 18 19  2  0  0  0  0
 18 20  1  0  0  0  0
 20 21  1  0  0  0  0
 20 34  1  0  0  0  0
 21 36  1  0  0  0  0
 21 22  1  0  0  0  0
 22 38  1  0  0  0  0
 22 23  1  0  0  0  0
 22 37  1  0  0  0  0
 23 28  1  0  0  0  0
 24 23  1  0  0  0  0
 24 25  1  0  0  0  0
 25 26  1  0  0  0  0
 25 41  1  0  0  0  0
 26 27  1  0  0  0  0
 27 43  1  0  0  0  0
 27 44  1  0  0  0  0
 28 45  1  0  0  0  0
 28 27  1  0  0  0  0
 28 46  1  0  0  0  0
 30  6  1  0  0  0  0
 31  7  1  0  0  0  0
 33 12  1  0  0  0  0
 35 21  1  0  0  0  0
 39 24  1  0  0  0  0
 40 24  1  0  0  0  0
 42 25  1  0  0  0  0
M  END
>  <Pose>
1

>  <Score>
-6.57

$$$$
