
 OpenBabel03222202113D

 41 45  0  0  1  0  0  0  0  0999 V2000
   19.1260   85.1590   21.3870 Cl  0  0  0  0  0  0  0  0  0  0  0  0
   19.5360   83.8710   20.2500 C   0  0  0  0  0  0  0  0  0  0  0  0
   19.8270   84.1400   18.9340 C   0  0  0  0  0  0  0  0  0  0  0  0
   20.1480   83.1070   18.0710 C   0  0  0  0  0  0  0  0  0  0  0  0
   20.1920   81.7930   18.4690 C   0  0  0  0  0  0  0  0  0  0  0  0
   19.9000   81.5200   19.7930 C   0  0  0  0  0  0  0  0  0  0  0  0
   19.5780   82.5590   20.6640 C   0  0  0  0  0  0  0  0  0  0  0  0
   20.5240   80.7170   17.5870 N   0  0  0  0  0  0  0  0  0  0  0  0
   21.6190   80.5830   16.6930 C   0  0  0  0  0  0  0  0  0  0  0  0
   22.5880   81.3840   16.6050 O   0  0  0  0  0  0  0  0  0  0  0  0
   21.4650   79.3470   15.8560 C   0  0  1  0  0  0  0  0  0  0  0  0
   22.6450   78.4460   16.0060 C   0  0  2  0  0  0  0  0  0  0  0  0
   22.0890   77.1770   16.3040 O   0  0  0  0  0  0  0  0  0  0  0  0
   21.2940   77.6080   17.3970 C   0  0  2  0  0  0  0  0  0  0  0  0
   20.3920   78.5780   16.6400 C   0  0  1  0  0  0  0  0  0  0  0  0
   19.7210   79.5470   17.4930 C   0  0  0  0  0  0  0  0  0  0  0  0
   18.6080   79.3540   18.0470 O   0  0  0  0  0  0  0  0  0  0  0  0
   22.3140   78.3110   18.2100 C   0  0  0  0  0  0  0  0  0  0  0  0
   23.2530   78.7430   17.3420 C   0  0  0  0  0  0  0  0  0  0  0  0
   20.5780   76.5240   18.0880 C   0  0  0  0  0  0  0  0  0  0  0  0
   23.6070   78.4110   14.8970 C   0  0  0  0  0  0  0  0  0  0  0  0
   24.7840   79.0350   15.3120 O   0  0  0  0  0  0  0  0  0  0  0  0
   25.5820   78.0930   15.9110 C   0  0  0  0  0  0  0  0  0  0  0  0
   25.1470   76.8160   15.2420 C   0  0  0  0  0  0  0  0  0  0  0  0
   23.9500   77.0880   14.6170 O   0  0  0  0  0  0  0  0  0  0  0  0
   19.8020   85.1530   18.5910 H   0  0  0  0  0  0  0  0  0  0  0  0
   20.3850   83.2950   17.0180 H   0  0  0  0  0  0  0  0  0  0  0  0
   19.9210   80.4970   20.1500 H   0  0  0  0  0  0  0  0  0  0  0  0
   19.3500   82.3620   21.6980 H   0  0  0  0  0  0  0  0  0  0  0  0
   21.1610   79.5620   14.8320 H   0  0  0  0  0  0  0  0  0  0  0  0
   19.7470   77.9990   15.9840 H   0  0  0  0  0  0  0  0  0  0  0  0
   22.3840   78.4920   19.2740 H   0  0  0  0  0  0  0  0  0  0  0  0
   24.2110   79.1980   17.5310 H   0  0  0  0  0  0  0  0  0  0  0  0
   19.5170   76.3900   17.7730 H   0  0  0  0  0  0  0  0  0  0  0  0
   20.5540   76.6700   19.2050 H   0  0  0  0  0  0  0  0  0  0  0  0
   21.0490   75.5140   17.9590 H   0  0  0  0  0  0  0  0  0  0  0  0
   23.1920   78.8510   13.9910 H   0  0  0  0  0  0  0  0  0  0  0  0
   26.6490   78.3570   15.6600 H   0  0  0  0  0  0  0  0  0  0  0  0
   25.5320   78.0630   17.0060 H   0  0  0  0  0  0  0  0  0  0  0  0
   25.0550   76.0480   16.0520 H   0  0  0  0  0  0  0  0  0  0  0  0
   25.9610   76.5420   14.5220 H   0  0  0  0  0  0  0  0  0  0  0  0
  2  7  1  0  0  0  0
  2  1  1  0  0  0  0
  3  2  2  0  0  0  0
  4  5  2  0  0  0  0
  4  3  1  0  0  0  0
  5  6  1  0  0  0  0
  6 28  1  0  0  0  0
  6  7  2  0  0  0  0
  7 29  1  0  0  0  0
  8  5  1  0  0  0  0
  9  8  1  0  0  0  0
 10  9  2  0  0  0  0
 11 30  1  6  0  0  0
 11 12  1  0  0  0  0
 11 15  1  0  0  0  0
 11  9  1  0  0  0  0
 12 21  1  6  0  0  0
 12 13  1  0  0  0  0
 12 19  1  0  0  0  0
 13 14  1  0  0  0  0
 14 20  1  1  0  0  0
 14 18  1  0  0  0  0
 15 31  1  6  0  0  0
 15 14  1  0  0  0  0
 15 16  1  0  0  0  0
 16  8  1  0  0  0  0
 16 17  2  0  0  0  0
 18 32  1  0  0  0  0
 19 33  1  0  0  0  0
 19 18  2  0  0  0  0
 20 35  1  0  0  0  0
 21 22  1  0  0  0  0
 22 23  1  0  0  0  0
 23 39  1  0  0  0  0
 24 23  1  0  0  0  0
 24 40  1  0  0  0  0
 25 21  1  0  0  0  0
 25 24  1  0  0  0  0
 26  3  1  0  0  0  0
 27  4  1  0  0  0  0
 34 20  1  0  0  0  0
 36 20  1  0  0  0  0
 37 21  1  0  0  0  0
 38 23  1  0  0  0  0
 41 24  1  0  0  0  0
M  END
>  <Pose>
1

>  <Score>
-5.00

$$$$
