
 OpenBabel03222202113D

 49 52  0  0  0  0  0  0  0  0999 V2000
   20.3050   85.4140   18.5180 Cl  0  0  0  0  0  0  0  0  0  0  0  0
   19.9610   83.7530   19.0180 C   0  0  0  0  0  0  0  0  0  0  0  0
   19.4910   83.4880   20.2780 C   0  0  0  0  0  0  0  0  0  0  0  0
   19.2520   82.1680   20.5930 C   0  0  0  0  0  0  0  0  0  0  0  0
   19.4750   81.1400   19.6800 C   0  0  0  0  0  0  0  0  0  0  0  0
   19.9520   81.4590   18.4170 C   0  0  0  0  0  0  0  0  0  0  0  0
   20.1950   82.7740   18.0900 C   0  0  0  0  0  0  0  0  0  0  0  0
   19.2190   79.7840   20.0330 N   0  0  0  0  0  0  0  0  0  0  0  0
   19.1430   78.7060   19.1340 C   0  0  0  0  0  0  0  0  0  0  0  0
   18.5760   78.9080   18.0260 O   0  0  0  0  0  0  0  0  0  0  0  0
   19.6560   77.4220   19.4010 N   0  0  0  0  0  0  0  0  0  0  0  0
   20.8870   76.9160   18.9980 N   0  0  0  0  0  0  0  0  0  0  0  0
   21.5300   77.5090   17.8860 C   0  0  0  0  0  0  0  0  0  0  0  0
   22.4230   78.3940   18.0830 O   0  0  0  0  0  0  0  0  0  0  0  0
   21.1550   77.1020   16.5460 C   0  0  0  0  0  0  0  0  0  0  0  0
   20.4070   76.0640   16.2640 N   0  0  0  0  0  0  0  0  0  0  0  0
   20.2060   75.9080   14.9160 N   0  0  0  0  0  0  0  0  0  0  0  0
   20.9180   76.9780   14.2920 C   0  0  0  0  0  0  0  0  0  0  0  0
   21.0800   77.3240   13.0500 N   0  0  0  0  0  0  0  0  0  0  0  0
   21.8510   78.4580   12.6830 N   0  0  0  0  0  0  0  0  0  0  0  0
   22.4820   79.2720   13.6410 C   0  0  0  0  0  0  0  0  0  0  0  0
   23.1980   80.3390   13.3140 C   0  0  0  0  0  0  0  0  0  0  0  0
   22.3140   78.8990   15.0410 C   0  0  0  0  0  0  0  0  0  0  0  0
   22.8610   79.5990   15.9000 O   0  0  0  0  0  0  0  0  0  0  0  0
   21.5250   77.7440   15.3310 N   0  0  0  0  0  0  0  0  0  0  0  0
   19.4040   74.9110   14.2910 C   0  0  0  0  0  0  0  0  0  0  0  0
   18.0910   75.1470   13.9640 C   0  0  0  0  0  0  0  0  0  0  0  0
   17.2780   74.2270   13.3170 C   0  0  0  0  0  0  0  0  0  0  0  0
   17.7840   72.9910   12.9660 C   0  0  0  0  0  0  0  0  0  0  0  0
   19.0990   72.7290   13.2870 C   0  0  0  0  0  0  0  0  0  0  0  0
   19.8920   73.6730   13.9370 C   0  0  0  0  0  0  0  0  0  0  0  0
   16.9550   71.9840   12.2350 C   0  0  0  0  0  0  0  0  0  0  0  0
   19.3120   84.2850   21.0020 H   0  0  0  0  0  0  0  0  0  0  0  0
   18.8770   81.9030   21.5860 H   0  0  0  0  0  0  0  0  0  0  0  0
   20.1100   80.6300   17.7290 H   0  0  0  0  0  0  0  0  0  0  0  0
   20.5650   83.0030   17.0820 H   0  0  0  0  0  0  0  0  0  0  0  0
   19.0770   79.6120   21.0600 H   0  0  0  0  0  0  0  0  0  0  0  0
   19.0750   76.7320   19.9790 H   0  0  0  0  0  0  0  0  0  0  0  0
   21.2940   76.1300   19.5260 H   0  0  0  0  0  0  0  0  0  0  0  0
   21.9180   78.6470   11.6570 H   0  0  0  0  0  0  0  0  0  0  0  0
   23.3490   80.6620   12.2980 H   0  0  0  0  0  0  0  0  0  0  0  0
   23.6630   80.9460   14.0830 H   0  0  0  0  0  0  0  0  0  0  0  0
   17.6810   76.1300   14.2390 H   0  0  0  0  0  0  0  0  0  0  0  0
   16.2530   74.4460   13.0780 H   0  0  0  0  0  0  0  0  0  0  0  0
   19.4830   71.7480   13.0090 H   0  0  0  0  0  0  0  0  0  0  0  0
   20.9260   73.4350   14.1790 H   0  0  0  0  0  0  0  0  0  0  0  0
   16.2440   71.4500   12.8700 H   0  0  0  0  0  0  0  0  0  0  0  0
   17.5690   71.2540   11.6940 H   0  0  0  0  0  0  0  0  0  0  0  0
   16.3610   72.5090   11.4240 H   0  0  0  0  0  0  0  0  0  0  0  0
  1  2  1  0  0  0  0
  2  3  1  0  0  0  0
  3  4  2  0  0  0  0
  3 33  1  0  0  0  0
  4 34  1  0  0  0  0
  5  8  1  0  0  0  0
  5  4  1  0  0  0  0
  6  5  2  0  0  0  0
  7  6  1  0  0  0  0
  7  2  2  0  0  0  0
  8 37  1  0  0  0  0
  9 11  1  0  0  0  0
  9  8  1  0  0  0  0
 10  9  2  0  0  0  0
 11 38  1  0  0  0  0
 12 11  1  0  0  0  0
 12 39  1  0  0  0  0
 13 14  2  0  0  0  0
 13 12  1  0  0  0  0
 15 13  1  0  0  0  0
 16 15  2  0  0  0  0
 17 16  1  0  0  0  0
 18 17  1  0  0  0  0
 18 25  1  0  0  0  0
 19 18  2  0  0  0  0
 20 19  1  0  0  0  0
 20 21  1  0  0  0  0
 21 23  1  0  0  0  0
 22 21  2  0  0  0  0
 22 42  1  0  0  0  0
 23 25  1  0  0  0  0
 23 24  2  0  0  0  0
 25 15  1  0  0  0  0
 26 17  1  0  0  0  0
 27 43  1  0  0  0  0
 27 26  1  0  0  0  0
 28 27  2  0  0  0  0
 29 30  2  0  0  0  0
 29 28  1  0  0  0  0
 30 31  1  0  0  0  0
 31 46  1  0  0  0  0
 31 26  2  0  0  0  0
 32 47  1  0  0  0  0
 32 29  1  0  0  0  0
 35  6  1  0  0  0  0
 36  7  1  0  0  0  0
 40 20  1  0  0  0  0
 41 22  1  0  0  0  0
 44 28  1  0  0  0  0
 45 30  1  0  0  0  0
 48 32  1  0  0  0  0
 49 32  1  0  0  0  0
M  END
>  <Pose>
1

>  <Score>
-7.96

$$$$
