
 OpenBabel03222202113D

 53 57  0  0  1  0  0  0  0  0999 V2000
   24.1090   79.4480    8.9480 Cl  0  0  0  0  0  0  0  0  0  0  0  0
   22.7420   79.7270   10.0070 C   0  0  0  0  0  0  0  0  0  0  0  0
   22.7330   79.3390   11.3310 C   0  0  0  0  0  0  0  0  0  0  0  0
   21.6290   79.5750   12.1430 C   0  0  0  0  0  0  0  0  0  0  0  0
   20.5640   80.2080   11.5640 C   0  0  0  0  0  0  0  0  0  0  0  0
   20.5550   80.6030   10.2470 C   0  0  0  0  0  0  0  0  0  0  0  0
   21.6390   80.3690    9.4540 C   0  0  0  0  0  0  0  0  0  0  0  0
   21.9290   79.0500   13.4810 C   0  0  2  0  0  0  0  0  0  0  0  0
   20.9740   78.0440   13.9090 N   0  0  0  0  0  0  0  0  0  0  0  0
   21.2410   77.9670   15.3480 C   0  0  1  0  0  0  0  0  0  0  0  0
   21.5750   79.3390   15.7950 C   0  0  2  0  0  0  0  0  0  0  0  0
   21.7580   80.1160   14.5310 C   0  0  1  0  0  0  0  0  0  0  0  0
   22.9370   80.9740   14.6770 C   0  0  0  0  0  0  0  0  0  0  0  0
   23.2090   81.9300   13.9090 O   0  0  0  0  0  0  0  0  0  0  0  0
   23.6490   80.5020   15.8140 N   0  0  0  0  0  0  0  0  0  0  0  0
   22.9540   79.4110   16.4040 C   0  0  0  0  0  0  0  0  0  0  0  0
   23.3530   78.6030   17.2870 O   0  0  0  0  0  0  0  0  0  0  0  0
   24.9090   81.0650   16.2940 C   0  0  0  0  0  0  0  0  0  0  0  0
   26.0450   80.2930   15.6380 C   0  0  0  0  0  0  0  0  0  0  0  0
   26.6210   79.4060   16.5340 O   0  0  0  0  0  0  0  0  0  0  0  0
   26.3450   78.1110   16.1400 C   0  0  0  0  0  0  0  0  0  0  0  0
   20.0590   77.4200   16.0910 C   0  0  0  0  0  0  0  0  0  0  0  0
   19.8970   77.9440   17.4570 C   0  0  0  0  0  0  0  0  0  0  0  0
   20.4170   77.1870   18.5050 C   0  0  0  0  0  0  0  0  0  0  0  0
   20.3010   77.6590   19.7870 C   0  0  0  0  0  0  0  0  0  0  0  0
   19.6910   78.8520   20.0910 C   0  0  0  0  0  0  0  0  0  0  0  0
   19.1900   79.5720   19.0270 C   0  0  0  0  0  0  0  0  0  0  0  0
   19.2800   79.1440   17.7190 C   0  0  0  0  0  0  0  0  0  0  0  0
   23.2830   78.4780   13.4150 C   0  0  0  0  0  0  0  0  0  0  0  0
   23.9370   77.9260   14.3120 O   0  0  0  0  0  0  0  0  0  0  0  0
   23.7380   78.6780   12.0850 N   0  0  0  0  0  0  0  0  0  0  0  0
   19.6870   80.3980   12.2070 H   0  0  0  0  0  0  0  0  0  0  0  0
   19.6950   81.0940    9.8520 H   0  0  0  0  0  0  0  0  0  0  0  0
   21.6520   80.6710    8.4190 H   0  0  0  0  0  0  0  0  0  0  0  0
   21.1480   77.1120   13.4430 H   0  0  0  0  0  0  0  0  0  0  0  0
   22.0750   77.2350   15.5220 H   0  0  0  0  0  0  0  0  0  0  0  0
   20.8510   79.8230   16.4780 H   0  0  0  0  0  0  0  0  0  0  0  0
   20.8440   80.6840   14.2390 H   0  0  0  0  0  0  0  0  0  0  0  0
   25.0040   80.9300   17.3750 H   0  0  0  0  0  0  0  0  0  0  0  0
   24.9870   82.1420   16.0620 H   0  0  0  0  0  0  0  0  0  0  0  0
   25.6230   79.7850   14.7450 H   0  0  0  0  0  0  0  0  0  0  0  0
   26.8440   80.9920   15.3170 H   0  0  0  0  0  0  0  0  0  0  0  0
   26.7430   77.8980   15.1330 H   0  0  0  0  0  0  0  0  0  0  0  0
   25.2600   77.8790   16.1210 H   0  0  0  0  0  0  0  0  0  0  0  0
   26.7990   77.4260   16.8910 H   0  0  0  0  0  0  0  0  0  0  0  0
   19.1390   77.5290   15.4790 H   0  0  0  0  0  0  0  0  0  0  0  0
   20.2330   76.3060   16.1680 H   0  0  0  0  0  0  0  0  0  0  0  0
   20.9090   76.2290   18.2810 H   0  0  0  0  0  0  0  0  0  0  0  0
   20.7050   77.0700   20.5980 H   0  0  0  0  0  0  0  0  0  0  0  0
   19.5910   79.2380   21.0950 H   0  0  0  0  0  0  0  0  0  0  0  0
   18.7000   80.5190   19.2060 H   0  0  0  0  0  0  0  0  0  0  0  0
   18.8720   79.7720   16.9090 H   0  0  0  0  0  0  0  0  0  0  0  0
   24.6730   78.3900   11.6880 H   0  0  0  0  0  0  0  0  0  0  0  0
  1  2  1  0  0  0  0
  2  3  1  0  0  0  0
  3 31  1  0  0  0  0
  3  4  2  0  0  0  0
  5  4  1  0  0  0  0
  5 32  1  0  0  0  0
  6  5  2  0  0  0  0
  7  2  2  0  0  0  0
  7  6  1  0  0  0  0
  8  4  1  6  0  0  0
  8  9  1  0  0  0  0
  8 12  1  0  0  0  0
  9 10  1  0  0  0  0
 10 36  1  1  0  0  0
 10 11  1  0  0  0  0
 10 22  1  0  0  0  0
 11 16  1  0  0  0  0
 11 37  1  1  0  0  0
 12 38  1  6  0  0  0
 12 13  1  0  0  0  0
 12 11  1  0  0  0  0
 13 15  1  0  0  0  0
 14 13  2  0  0  0  0
 15 18  1  0  0  0  0
 15 16  1  0  0  0  0
 16 17  2  0  0  0  0
 18 39  1  0  0  0  0
 19 18  1  0  0  0  0
 19 20  1  0  0  0  0
 21 20  1  0  0  0  0
 21 45  1  0  0  0  0
 22 47  1  0  0  0  0
 22 23  1  0  0  0  0
 23 28  2  0  0  0  0
 23 24  1  0  0  0  0
 24 25  2  0  0  0  0
 25 26  1  0  0  0  0
 25 49  1  0  0  0  0
 26 50  1  0  0  0  0
 27 51  1  0  0  0  0
 27 26  2  0  0  0  0
 28 27  1  0  0  0  0
 29  8  1  0  0  0  0
 29 30  2  0  0  0  0
 31 29  1  0  0  0  0
 33  6  1  0  0  0  0
 34  7  1  0  0  0  0
 35  9  1  0  0  0  0
 40 18  1  0  0  0  0
 41 19  1  0  0  0  0
 42 19  1  0  0  0  0
 43 21  1  0  0  0  0
 44 21  1  0  0  0  0
 46 22  1  0  0  0  0
 48 24  1  0  0  0  0
 52 28  1  0  0  0  0
 53 31  1  0  0  0  0
M  END
>  <Pose>
1

>  <Score>
-5.82

$$$$
