
 OpenBabel03222202113D

 42 45  0  0  0  0  0  0  0  0999 V2000
   18.5860   79.7040   19.9860 Cl  0  0  0  0  0  0  0  0  0  0  0  0
   19.8020   79.0580   18.8900 C   0  0  0  0  0  0  0  0  0  0  0  0
   20.7040   79.9010   18.2920 C   0  0  0  0  0  0  0  0  0  0  0  0
   21.6540   79.3760   17.4320 C   0  0  0  0  0  0  0  0  0  0  0  0
   21.7140   78.0350   17.1660 C   0  0  0  0  0  0  0  0  0  0  0  0
   20.8130   77.1870   17.7650 C   0  0  0  0  0  0  0  0  0  0  0  0
   19.8710   77.7070   18.6160 C   0  0  0  0  0  0  0  0  0  0  0  0
   22.7670   77.5630   16.2310 C   0  0  0  0  0  0  0  0  0  0  0  0
   22.3670   77.9530   14.8800 N   0  0  0  0  0  0  0  0  0  0  0  0
   21.7070   77.2500   13.9790 N   0  0  0  0  0  0  0  0  0  0  0  0
   21.5310   77.9430   12.8690 N   0  0  0  0  0  0  0  0  0  0  0  0
   22.0860   79.1440   13.0260 C   0  0  0  0  0  0  0  0  0  0  0  0
   22.6170   79.1530   14.2980 C   0  0  0  0  0  0  0  0  0  0  0  0
   23.2410   80.2660   14.7080 N   0  0  0  0  0  0  0  0  0  0  0  0
   23.3450   81.3370   13.9020 C   0  0  0  0  0  0  0  0  0  0  0  0
   22.8190   81.3050   12.6650 N   0  0  0  0  0  0  0  0  0  0  0  0
   22.1680   80.2250   12.1580 C   0  0  0  0  0  0  0  0  0  0  0  0
   21.6170   80.1870   10.8640 N   0  0  0  0  0  0  0  0  0  0  0  0
   22.1720   79.5300    9.7110 C   0  0  0  0  0  0  0  0  0  0  0  0
   21.1930   78.5240    9.2300 C   0  0  0  0  0  0  0  0  0  0  0  0
   19.8640   78.6320    9.6630 N   0  0  0  0  0  0  0  0  0  0  0  0
   19.3770   79.8430   10.1720 C   0  0  0  0  0  0  0  0  0  0  0  0
   20.3680   80.8580   10.6040 C   0  0  0  0  0  0  0  0  0  0  0  0
   19.5770   77.5630   10.6030 C   0  0  0  0  0  0  0  0  0  0  0  0
   20.6820   80.9640   18.4810 H   0  0  0  0  0  0  0  0  0  0  0  0
   22.3650   80.0560   16.9620 H   0  0  0  0  0  0  0  0  0  0  0  0
   20.8600   76.1440   17.5570 H   0  0  0  0  0  0  0  0  0  0  0  0
   19.1290   77.0710   19.1180 H   0  0  0  0  0  0  0  0  0  0  0  0
   23.7300   78.0330   16.4620 H   0  0  0  0  0  0  0  0  0  0  0  0
   22.8660   76.4610   16.3200 H   0  0  0  0  0  0  0  0  0  0  0  0
   23.8550   82.2180   14.2650 H   0  0  0  0  0  0  0  0  0  0  0  0
   23.1460   79.0460    9.9130 H   0  0  0  0  0  0  0  0  0  0  0  0
   22.3770   80.2920    8.9290 H   0  0  0  0  0  0  0  0  0  0  0  0
   21.1960   78.5660    8.1000 H   0  0  0  0  0  0  0  0  0  0  0  0
   21.5890   77.4910    9.4450 H   0  0  0  0  0  0  0  0  0  0  0  0
   18.7320   80.3270    9.3780 H   0  0  0  0  0  0  0  0  0  0  0  0
   18.6490   79.6630   11.0160 H   0  0  0  0  0  0  0  0  0  0  0  0
   20.5190   81.6440    9.8330 H   0  0  0  0  0  0  0  0  0  0  0  0
   19.9960   81.3710   11.5350 H   0  0  0  0  0  0  0  0  0  0  0  0
   20.4220   76.8200   10.6410 H   0  0  0  0  0  0  0  0  0  0  0  0
   19.5010   77.9860   11.6280 H   0  0  0  0  0  0  0  0  0  0  0  0
   18.6780   76.9870   10.3180 H   0  0  0  0  0  0  0  0  0  0  0  0
  2  1  1  0  0  0  0
  3 25  1  0  0  0  0
  3  2  2  0  0  0  0
  4  3  1  0  0  0  0
  5  4  2  0  0  0  0
  5  6  1  0  0  0  0
  6  7  2  0  0  0  0
  7  2  1  0  0  0  0
  7 28  1  0  0  0  0
  8 30  1  0  0  0  0
  8 29  1  0  0  0  0
  8  5  1  0  0  0  0
  9  8  1  0  0  0  0
 10  9  1  0  0  0  0
 11 12  1  0  0  0  0
 11 10  2  0  0  0  0
 12 13  2  0  0  0  0
 13 14  1  0  0  0  0
 13  9  1  0  0  0  0
 15 31  1  0  0  0  0
 15 14  2  0  0  0  0
 16 15  1  0  0  0  0
 17 16  2  0  0  0  0
 17 12  1  0  0  0  0
 18 17  1  0  0  0  0
 19 32  1  0  0  0  0
 19 18  1  0  0  0  0
 20 35  1  0  0  0  0
 20 21  1  0  0  0  0
 20 19  1  0  0  0  0
 21 22  1  0  0  0  0
 21 24  1  0  0  0  0
 22 23  1  0  0  0  0
 22 37  1  0  0  0  0
 23 18  1  0  0  0  0
 23 39  1  0  0  0  0
 24 40  1  0  0  0  0
 24 41  1  0  0  0  0
 26  4  1  0  0  0  0
 27  6  1  0  0  0  0
 33 19  1  0  0  0  0
 34 20  1  0  0  0  0
 36 22  1  0  0  0  0
 38 23  1  0  0  0  0
 42 24  1  0  0  0  0
M  END
>  <Pose>
1

>  <Score>
-6.15

$$$$
