
 OpenBabel03222202113D

 54 57  0  0  0  0  0  0  0  0999 V2000
   18.8520   84.7510   20.4260 B   0  0  0  0  0  0  0  0  0  0  0  0
   19.6320   83.0620   20.8400 C   0  0  0  0  0  0  0  0  0  0  0  0
   19.3770   81.9530   20.0650 C   0  0  0  0  0  0  0  0  0  0  0  0
   19.9400   80.7360   20.3630 C   0  0  0  0  0  0  0  0  0  0  0  0
   20.7700   80.6550   21.4600 C   0  0  0  0  0  0  0  0  0  0  0  0
   21.0360   81.7730   22.2550 C   0  0  0  0  0  0  0  0  0  0  0  0
   20.4660   82.9980   21.9500 C   0  0  0  0  0  0  0  0  0  0  0  0
   21.3250   79.4120   21.7390 O   0  0  0  0  0  0  0  0  0  0  0  0
   22.1930   79.1660   22.8210 C   0  0  0  0  0  0  0  0  0  0  0  0
   19.6780   79.5540   19.5490 C   0  0  0  0  0  0  0  0  0  0  0  0
   19.9440   78.3630   19.9360 N   0  0  0  0  0  0  0  0  0  0  0  0
   19.6990   77.2220   19.1710 N   0  0  0  0  0  0  0  0  0  0  0  0
   20.1680   77.0760   17.8360 C   0  0  0  0  0  0  0  0  0  0  0  0
   19.4350   76.5040   16.8560 N   0  0  0  0  0  4  0  0  0  0  0  0
   19.9050   76.3820   15.6090 C   0  0  0  0  0  0  0  0  0  0  0  0
   21.1370   76.8440   15.3420 N   0  0  0  0  0  0  0  0  0  0  0  0
   21.9290   77.4300   16.2790 C   0  0  0  0  0  0  0  0  0  0  0  0
   21.3850   77.5210   17.5240 N   0  0  0  0  0  0  0  0  0  0  0  0
   23.2180   77.9130   15.9930 N   0  0  0  0  0  0  0  0  0  0  0  0
   23.9880   77.3840   14.9060 C   0  0  0  0  0  0  0  0  0  0  0  0
   25.3420   76.9690   15.4790 C   0  0  0  0  0  0  0  0  0  0  0  0
   25.8810   78.0860   16.0930 O   0  0  0  0  0  0  0  0  0  0  0  0
   25.1820   78.4770   17.2100 C   0  0  0  0  0  0  0  0  0  0  0  0
   23.7890   78.9530   16.7960 C   0  0  0  0  0  0  0  0  0  0  0  0
   19.1350   75.7820   14.5770 N   0  0  0  0  0  0  0  0  0  0  0  0
   19.3550   74.4220   14.1360 C   0  0  0  0  0  0  0  0  0  0  0  0
   19.2840   74.3160   12.6210 C   0  0  0  0  0  0  0  0  0  0  0  0
   18.1800   75.0240   12.1310 O   0  0  0  0  0  0  0  0  0  0  0  0
   18.2610   76.3630   12.4300 C   0  0  0  0  0  0  0  0  0  0  0  0
   18.0830   76.5280   13.9240 C   0  0  0  0  0  0  0  0  0  0  0  0
   18.7200   81.9990   19.1890 H   0  0  0  0  0  0  0  0  0  0  0  0
   21.6970   81.6880   23.1210 H   0  0  0  0  0  0  0  0  0  0  0  0
   20.6870   83.8460   22.5760 H   0  0  0  0  0  0  0  0  0  0  0  0
   23.2340   79.3350   22.4460 H   0  0  0  0  0  0  0  0  0  0  0  0
   21.9560   79.7580   23.7180 H   0  0  0  0  0  0  0  0  0  0  0  0
   22.1310   78.0860   23.0850 H   0  0  0  0  0  0  0  0  0  0  0  0
   19.2370   79.6680   18.5690 H   0  0  0  0  0  0  0  0  0  0  0  0
   19.1410   76.4570   19.6380 H   0  0  0  0  0  0  0  0  0  0  0  0
   23.4780   76.5120   14.4220 H   0  0  0  0  0  0  0  0  0  0  0  0
   24.1840   78.1920   14.1650 H   0  0  0  0  0  0  0  0  0  0  0  0
   25.9720   76.7130   14.6040 H   0  0  0  0  0  0  0  0  0  0  0  0
   25.2440   76.1050   16.1410 H   0  0  0  0  0  0  0  0  0  0  0  0
   25.0170   77.6320   17.9210 H   0  0  0  0  0  0  0  0  0  0  0  0
   25.7090   79.3060   17.6930 H   0  0  0  0  0  0  0  0  0  0  0  0
   23.1770   79.2060   17.6810 H   0  0  0  0  0  0  0  0  0  0  0  0
   23.9660   79.8480   16.1530 H   0  0  0  0  0  0  0  0  0  0  0  0
   18.4700   73.8330   14.5120 H   0  0  0  0  0  0  0  0  0  0  0  0
   20.3040   74.0040   14.4840 H   0  0  0  0  0  0  0  0  0  0  0  0
   20.2360   74.6800   12.2150 H   0  0  0  0  0  0  0  0  0  0  0  0
   19.0800   73.2430   12.3750 H   0  0  0  0  0  0  0  0  0  0  0  0
   19.2460   76.7410   12.0860 H   0  0  0  0  0  0  0  0  0  0  0  0
   17.4920   76.8940   11.8600 H   0  0  0  0  0  0  0  0  0  0  0  0
   17.1230   76.0780   14.1910 H   0  0  0  0  0  0  0  0  0  0  0  0
   18.0930   77.5870   14.2290 H   0  0  0  0  0  0  0  0  0  0  0  0
  1  2  1  0  0  0  0
  2  7  1  0  0  0  0
  3  4  1  0  0  0  0
  3  2  2  0  0  0  0
  4  5  2  0  0  0  0
  5  8  1  0  0  0  0
  5  6  1  0  0  0  0
  6 32  1  0  0  0  0
  7  6  2  0  0  0  0
  7 33  1  0  0  0  0
  8  9  1  0  0  0  0
  9 36  1  0  0  0  0
  9 35  1  0  0  0  0
 10 11  2  0  0  0  0
 10  4  1  0  0  0  0
 12 38  1  0  0  0  0
 12 11  1  0  0  0  0
 13 12  1  0  0  0  0
 14 13  2  0  0  0  0
 15 14  2  0  0  0  0
 16 15  1  0  0  0  0
 16 17  2  0  0  0  0
 17 18  1  0  0  0  0
 18 13  1  0  0  0  0
 19 17  1  0  0  0  0
 19 24  1  0  0  0  0
 20 21  1  0  0  0  0
 20 19  1  0  0  0  0
 21 22  1  0  0  0  0
 21 42  1  0  0  0  0
 22 23  1  0  0  0  0
 23 44  1  0  0  0  0
 23 43  1  0  0  0  0
 24 23  1  0  0  0  0
 24 45  1  0  0  0  0
 25 15  1  0  0  0  0
 26 48  1  0  0  0  0
 26 47  1  0  0  0  0
 26 25  1  0  0  0  0
 27 26  1  0  0  0  0
 28 29  1  0  0  0  0
 28 27  1  0  0  0  0
 29 30  1  0  0  0  0
 30 53  1  0  0  0  0
 30 54  1  0  0  0  0
 30 25  1  0  0  0  0
 31  3  1  0  0  0  0
 34  9  1  0  0  0  0
 37 10  1  0  0  0  0
 39 20  1  0  0  0  0
 40 20  1  0  0  0  0
 41 21  1  0  0  0  0
 46 24  1  0  0  0  0
 49 27  1  0  0  0  0
 50 27  1  0  0  0  0
 51 29  1  0  0  0  0
 52 29  1  0  0  0  0
M  END
>  <Pose>
1

>  <Score>
-5.88

$$$$
