
 OpenBabel03222202113D

 38 41  0  0  1  0  0  0  0  0999 V2000
   25.4260   78.5110   16.5250 B   0  0  0  0  0  0  0  0  0  0  0  0
   24.0420   79.1960   15.4090 C   0  0  0  0  0  0  0  0  0  0  0  0
   23.5480   78.4720   14.3490 C   0  0  0  0  0  0  0  0  0  0  0  0
   22.5300   78.9470   13.5090 C   0  0  0  0  0  0  0  0  0  0  0  0
   22.0420   80.1900   13.7990 C   0  0  0  0  0  0  0  0  0  0  0  0
   22.5490   80.9180   14.8780 C   0  0  0  0  0  0  0  0  0  0  0  0
   23.5360   80.4340   15.6750 C   0  0  0  0  0  0  0  0  0  0  0  0
   22.0840   78.1380   12.4470 N   0  0  0  0  0  0  0  0  0  0  0  0
   20.9180   78.3520   11.6970 C   0  0  0  0  0  0  0  0  0  0  0  0
   19.8700   77.6950   11.7840 O   0  0  0  0  0  0  0  0  0  0  0  0
   20.8910   79.4650   10.6860 C   0  0  2  0  0  0  0  0  0  0  0  0
   19.5060   79.8500   10.2370 C   0  0  0  0  0  0  0  0  0  0  0  0
   19.6190   78.9880    9.0510 N   0  0  2  0  0  0  0  0  0  0  0  0
   21.0550   79.0180    9.2620 C   0  0  0  0  0  0  0  0  0  0  0  0
   18.6740   78.4230    8.1510 C   0  0  2  0  0  0  0  0  0  0  0  0
   17.6260   79.1360    7.6640 N   0  0  0  0  0  0  0  0  0  0  0  0
   16.7320   78.5710    6.8000 C   0  0  0  0  0  0  0  0  0  0  0  0
   16.8580   77.3000    6.4070 N   0  0  0  0  0  0  0  0  0  0  0  0
   17.8640   76.5410    6.8470 C   0  0  0  0  0  0  0  0  0  0  0  0
   18.2040   75.2590    6.6060 N   0  0  0  0  0  0  0  0  0  0  0  0
   19.2930   75.0270    7.3070 N   0  0  0  0  0  0  0  0  0  0  0  0
   19.6550   76.1210    7.9860 N   0  0  0  0  0  0  0  0  0  0  0  0
   18.7660   77.1150    7.7200 C   0  0  0  0  0  0  0  0  0  0  0  0
   17.5260   74.2930    5.7460 C   0  0  0  0  0  0  0  0  0  0  0  0
   23.9670   77.4900   14.1580 H   0  0  0  0  0  0  0  0  0  0  0  0
   21.2480   80.6380   13.1960 H   0  0  0  0  0  0  0  0  0  0  0  0
   22.1190   81.9120   15.0630 H   0  0  0  0  0  0  0  0  0  0  0  0
   23.9150   81.0210   16.5110 H   0  0  0  0  0  0  0  0  0  0  0  0
   22.7080   77.2830   12.2030 H   0  0  0  0  0  0  0  0  0  0  0  0
   21.4670   80.3530   10.9970 H   0  0  0  0  0  0  0  0  0  0  0  0
   18.6710   79.4590   10.8560 H   0  0  0  0  0  0  0  0  0  0  0  0
   19.3750   80.8870    9.9170 H   0  0  0  0  0  0  0  0  0  0  0  0
   21.5540   78.0290    9.1850 H   0  0  0  0  0  0  0  0  0  0  0  0
   21.5150   79.7570    8.5910 H   0  0  0  0  0  0  0  0  0  0  0  0
   15.9240   79.1980    6.4540 H   0  0  0  0  0  0  0  0  0  0  0  0
   18.2320   73.5550    5.3320 H   0  0  0  0  0  0  0  0  0  0  0  0
   17.0770   74.8130    4.8490 H   0  0  0  0  0  0  0  0  0  0  0  0
   16.6980   73.7930    6.2510 H   0  0  0  0  0  0  0  0  0  0  0  0
  2  7  1  0  0  0  0
  2  1  1  0  0  0  0
  3  2  2  0  0  0  0
  4  5  2  0  0  0  0
  4  3  1  0  0  0  0
  5  6  1  0  0  0  0
  6 27  1  0  0  0  0
  6  7  2  0  0  0  0
  7 28  1  0  0  0  0
  8  4  1  0  0  0  0
  9 10  2  0  0  0  0
  9  8  1  0  0  0  0
 11 30  1  1  0  0  0
 11  9  1  0  0  0  0
 12 11  1  0  0  0  0
 12 31  1  0  0  0  0
 13 14  1  6  0  0  0
 13 12  1  0  0  0  0
 14 11  1  0  0  0  0
 15 16  1  1  0  0  0
 15 13  1  0  0  0  0
 17 16  2  0  0  0  0
 18 17  1  0  0  0  0
 18 19  1  0  0  0  0
 19 23  2  0  0  0  0
 20 19  1  0  0  0  0
 20 21  1  0  0  0  0
 21 22  2  0  0  0  0
 23 22  1  0  0  0  0
 23 15  1  0  0  0  0
 24 38  1  0  0  0  0
 24 20  1  0  0  0  0
 25  3  1  0  0  0  0
 26  5  1  0  0  0  0
 29  8  1  0  0  0  0
 32 12  1  0  0  0  0
 33 14  1  0  0  0  0
 34 14  1  0  0  0  0
 35 17  1  0  0  0  0
 36 24  1  0  0  0  0
 37 24  1  0  0  0  0
M  END
>  <Pose>
1

>  <Score>
-6.76

$$$$
