
 OpenBabel03222202113D

 47 50  0  0  1  0  0  0  0  0999 V2000
   26.1470   78.7490   16.7150 S   0  0  0  0  0  0  0  0  0  0  0  0
   25.8480   79.0680   18.1370 O   0  0  0  0  0  0  0  0  0  0  0  0
   27.0120   79.8290   16.0970 O   0  0  0  0  0  0  0  0  0  0  0  0
   24.7590   78.5770   15.7590 N   0  0  0  0  0  0  0  0  0  0  0  0
   23.8380   79.6150   15.8790 C   0  0  0  0  0  0  0  0  0  0  0  0
   22.4590   79.4610   15.4100 C   0  0  1  0  0  0  0  0  0  0  0  0
   22.3260   78.2750   14.4900 C   0  0  0  0  0  0  0  0  0  0  0  0
   22.8960   77.0810   15.1690 C   0  0  0  0  0  0  0  0  0  0  0  0
   24.3610   77.2910   15.4200 C   0  0  0  0  0  0  0  0  0  0  0  0
   21.4340   79.3450   16.4830 C   0  0  0  0  0  0  0  0  0  0  0  0
   21.3800   80.1590   17.5350 N   0  0  0  0  0  0  0  0  0  0  0  0
   20.4440   80.0220   18.4910 C   0  0  0  0  0  0  0  0  0  0  0  0
   20.1680   80.6970   19.6410 N   0  0  0  0  0  0  0  0  0  0  0  0
   19.1210   80.1050   20.1760 N   0  0  0  0  0  0  0  0  0  0  0  0
   18.7100   79.0910   19.4380 N   0  0  0  0  0  0  0  0  0  0  0  0
   19.5100   79.0020   18.3710 C   0  0  0  0  0  0  0  0  0  0  0  0
   19.5550   78.1490   17.2820 C   0  0  0  0  0  0  0  0  0  0  0  0
   20.5250   78.3690   16.3850 N   0  0  0  0  0  0  0  0  0  0  0  0
   18.6300   77.1230   17.1440 O   0  0  0  0  0  0  0  0  0  0  0  0
   20.8810   81.8240   20.1550 C   0  0  0  0  0  0  0  0  0  0  0  0
   20.0010   82.9010   20.6690 C   0  0  0  0  0  0  0  0  0  0  0  0
   19.7870   84.0030   19.8810 C   0  0  0  0  0  0  0  0  0  0  0  0
   18.9740   85.0600   20.2870 C   0  0  0  0  0  0  0  0  0  0  0  0
   18.3550   85.0170   21.5180 C   0  0  0  0  0  0  0  0  0  0  0  0
   18.5640   83.9130   22.3140 C   0  0  0  0  0  0  0  0  0  0  0  0
   19.3790   82.8630   21.8970 C   0  0  0  0  0  0  0  0  0  0  0  0
   20.5440   84.1210   18.3060 Cl  0  0  0  0  0  0  0  0  0  0  0  0
   27.1500   77.2560   16.6670 C   0  0  0  0  0  0  0  0  0  0  0  0
   24.2960   80.5430   15.4200 H   0  0  0  0  0  0  0  0  0  0  0  0
   23.7860   79.8930   16.9780 H   0  0  0  0  0  0  0  0  0  0  0  0
   22.1910   80.3560   14.7580 H   0  0  0  0  0  0  0  0  0  0  0  0
   21.2670   78.1470   14.1840 H   0  0  0  0  0  0  0  0  0  0  0  0
   22.9150   78.4390   13.5550 H   0  0  0  0  0  0  0  0  0  0  0  0
   22.8050   76.2290   14.4240 H   0  0  0  0  0  0  0  0  0  0  0  0
   22.3720   76.7230   16.0560 H   0  0  0  0  0  0  0  0  0  0  0  0
   24.6740   76.5230   16.1750 H   0  0  0  0  0  0  0  0  0  0  0  0
   24.9020   76.9870   14.4780 H   0  0  0  0  0  0  0  0  0  0  0  0
   17.6990   77.3220   16.8110 H   0  0  0  0  0  0  0  0  0  0  0  0
   21.5520   82.3000   19.4040 H   0  0  0  0  0  0  0  0  0  0  0  0
   21.4860   81.4790   21.0410 H   0  0  0  0  0  0  0  0  0  0  0  0
   18.7970   85.9350   19.6770 H   0  0  0  0  0  0  0  0  0  0  0  0
   17.7130   85.8470   21.8460 H   0  0  0  0  0  0  0  0  0  0  0  0
   18.0710   83.8800   23.2950 H   0  0  0  0  0  0  0  0  0  0  0  0
   19.5320   82.0050   22.5360 H   0  0  0  0  0  0  0  0  0  0  0  0
   26.6500   76.4320   17.1930 H   0  0  0  0  0  0  0  0  0  0  0  0
   27.3310   77.0460   15.5930 H   0  0  0  0  0  0  0  0  0  0  0  0
   28.0750   77.4990   17.2290 H   0  0  0  0  0  0  0  0  0  0  0  0
  1  2  2  0  0  0  0
  3  1  2  0  0  0  0
  4  5  1  0  0  0  0
  4  1  1  0  0  0  0
  5 30  1  0  0  0  0
  6 31  1  6  0  0  0
  6  5  1  0  0  0  0
  6 10  1  0  0  0  0
  7  8  1  0  0  0  0
  7  6  1  0  0  0  0
  8  9  1  0  0  0  0
  8 35  1  0  0  0  0
  9  4  1  0  0  0  0
  9 36  1  0  0  0  0
 10 11  2  0  0  0  0
 11 12  1  0  0  0  0
 12 13  1  0  0  0  0
 13 20  1  0  0  0  0
 13 14  1  0  0  0  0
 15 14  2  0  0  0  0
 16 12  2  0  0  0  0
 16 15  1  0  0  0  0
 17 16  1  0  0  0  0
 18 10  1  0  0  0  0
 18 17  2  0  0  0  0
 19 17  1  0  0  0  0
 20 21  1  0  0  0  0
 20 40  1  0  0  0  0
 21 26  1  0  0  0  0
 22 23  1  0  0  0  0
 22 21  2  0  0  0  0
 23 24  2  0  0  0  0
 24 42  1  0  0  0  0
 24 25  1  0  0  0  0
 25 43  1  0  0  0  0
 26 25  2  0  0  0  0
 26 44  1  0  0  0  0
 27 22  1  0  0  0  0
 28  1  1  0  0  0  0
 28 45  1  0  0  0  0
 28 47  1  0  0  0  0
 29  5  1  0  0  0  0
 32  7  1  0  0  0  0
 33  7  1  0  0  0  0
 34  8  1  0  0  0  0
 37  9  1  0  0  0  0
 38 19  1  0  0  0  0
 39 20  1  0  0  0  0
 41 23  1  0  0  0  0
 46 28  1  0  0  0  0
M  END
>  <Pose>
1

>  <Score>
-7.02

$$$$
