
 OpenBabel03222202113D

 54 57  0  0  1  0  0  0  0  0999 V2000
   18.9960   77.8300    8.1310 S   0  0  0  0  0  0  0  0  0  0  0  0
   18.7390   79.3400    8.0380 O   0  0  0  0  0  0  0  0  0  0  0  0
   20.3460   77.6490    7.4800 O   0  0  0  0  0  0  0  0  0  0  0  0
   18.9750   77.4160    9.7620 N   0  0  0  0  0  0  0  0  0  0  0  0
   19.4140   78.5410   10.6140 C   0  0  0  0  0  0  0  0  0  0  0  0
   20.8470   78.7860   10.3130 C   0  0  2  0  0  0  0  0  0  0  0  0
   21.6910   77.7390   10.2750 O   0  0  0  0  0  0  0  0  0  0  0  0
   21.2170   76.4900   10.1690 C   0  0  0  0  0  0  0  0  0  0  0  0
   19.7380   76.3100   10.2100 C   0  0  0  0  0  0  0  0  0  0  0  0
   21.3400   79.7740   11.3170 C   0  0  0  0  0  0  0  0  0  0  0  0
   21.2020   80.9950   11.0370 O   0  0  0  0  0  0  0  0  0  0  0  0
   21.9440   79.4410   12.5440 N   0  0  0  0  0  0  0  0  0  0  0  0
   21.9270   78.1130   13.1280 C   0  0  0  0  0  0  0  0  0  0  0  0
   22.7860   78.1610   14.3760 C   0  0  0  0  0  0  0  0  0  0  0  0
   22.2850   79.0960   15.3650 N   0  0  0  0  0  0  0  0  0  0  0  0
   22.0170   80.3520   14.7390 C   0  0  0  0  0  0  0  0  0  0  0  0
   22.6580   80.4440   13.3490 C   0  0  0  0  0  0  0  0  0  0  0  0
   21.1740   78.4950   16.0290 C   0  0  0  0  0  0  0  0  0  0  0  0
   21.5430   77.7540   17.2850 C   0  0  0  0  0  0  0  0  0  0  0  0
   20.4070   76.8880   17.8270 C   0  0  0  0  0  0  0  0  0  0  0  0
   20.9460   78.0600   18.5870 C   0  0  0  0  0  0  0  0  0  0  0  0
   17.7340   77.0860    7.2010 C   0  0  0  0  0  0  0  0  0  0  0  0
   17.8110   75.7740    6.7880 C   0  0  0  0  0  0  0  0  0  0  0  0
   16.8380   75.1910    5.9990 C   0  0  0  0  0  0  0  0  0  0  0  0
   15.7510   75.9310    5.6080 C   0  0  0  0  0  0  0  0  0  0  0  0
   15.6550   77.2530    6.0170 C   0  0  0  0  0  0  0  0  0  0  0  0
   16.6210   77.8250    6.7960 C   0  0  0  0  0  0  0  0  0  0  0  0
   19.1410   74.7330    7.3290 Cl  0  0  0  0  0  0  0  0  0  0  0  0
   19.3030   78.2160   11.6470 H   0  0  0  0  0  0  0  0  0  0  0  0
   18.8380   79.4460   10.4270 H   0  0  0  0  0  0  0  0  0  0  0  0
   20.9550   79.3270    9.3200 H   0  0  0  0  0  0  0  0  0  0  0  0
   21.6580   75.8760   11.0120 H   0  0  0  0  0  0  0  0  0  0  0  0
   21.6100   76.0100    9.2550 H   0  0  0  0  0  0  0  0  0  0  0  0
   19.3850   75.3770    9.7780 H   0  0  0  0  0  0  0  0  0  0  0  0
   19.4540   76.1980   11.3200 H   0  0  0  0  0  0  0  0  0  0  0  0
   20.9030   77.7920   13.3320 H   0  0  0  0  0  0  0  0  0  0  0  0
   22.4190   77.3800   12.4570 H   0  0  0  0  0  0  0  0  0  0  0  0
   22.7860   77.1240   14.8230 H   0  0  0  0  0  0  0  0  0  0  0  0
   23.8170   78.3530   14.0680 H   0  0  0  0  0  0  0  0  0  0  0  0
   22.4600   81.1630   15.3290 H   0  0  0  0  0  0  0  0  0  0  0  0
   20.9270   80.4790   14.5700 H   0  0  0  0  0  0  0  0  0  0  0  0
   22.3620   81.4340   12.9490 H   0  0  0  0  0  0  0  0  0  0  0  0
   23.7330   80.2700   13.3740 H   0  0  0  0  0  0  0  0  0  0  0  0
   20.3820   79.2460   16.1910 H   0  0  0  0  0  0  0  0  0  0  0  0
   20.7380   77.7420   15.3230 H   0  0  0  0  0  0  0  0  0  0  0  0
   22.5340   77.2550   17.2740 H   0  0  0  0  0  0  0  0  0  0  0  0
   19.4090   76.9690   17.3640 H   0  0  0  0  0  0  0  0  0  0  0  0
   20.6450   75.8710   18.1840 H   0  0  0  0  0  0  0  0  0  0  0  0
   21.5110   77.8040   19.4970 H   0  0  0  0  0  0  0  0  0  0  0  0
   20.2150   78.8770   18.7410 H   0  0  0  0  0  0  0  0  0  0  0  0
   16.8980   74.1600    5.6720 H   0  0  0  0  0  0  0  0  0  0  0  0
   14.9980   75.4660    4.9930 H   0  0  0  0  0  0  0  0  0  0  0  0
   14.7820   77.7950    5.6860 H   0  0  0  0  0  0  0  0  0  0  0  0
   16.5600   78.8570    7.1230 H   0  0  0  0  0  0  0  0  0  0  0  0
  1  4  1  0  0  0  0
  2  1  2  0  0  0  0
  3  1  2  0  0  0  0
  4  9  1  0  0  0  0
  4  5  1  0  0  0  0
  5 29  1  0  0  0  0
  6 31  1  6  0  0  0
  6  5  1  0  0  0  0
  6 10  1  0  0  0  0
  7  6  1  0  0  0  0
  8  9  1  0  0  0  0
  8  7  1  0  0  0  0
  8 32  1  0  0  0  0
  9 35  1  0  0  0  0
 10 12  1  0  0  0  0
 11 10  2  0  0  0  0
 12 13  1  0  0  0  0
 12 17  1  0  0  0  0
 13 36  1  0  0  0  0
 13 14  1  0  0  0  0
 14 38  1  0  0  0  0
 14 15  1  0  0  0  0
 15 18  1  0  0  0  0
 16 40  1  0  0  0  0
 16 15  1  0  0  0  0
 17 43  1  0  0  0  0
 17 16  1  0  0  0  0
 18 44  1  0  0  0  0
 18 19  1  0  0  0  0
 19 20  1  0  0  0  0
 19 21  1  0  0  0  0
 20 48  1  0  0  0  0
 20 21  1  0  0  0  0
 21 50  1  0  0  0  0
 21 49  1  0  0  0  0
 22  1  1  0  0  0  0
 23 22  2  0  0  0  0
 23 28  1  0  0  0  0
 24 23  1  0  0  0  0
 25 24  2  0  0  0  0
 25 26  1  0  0  0  0
 26 27  2  0  0  0  0
 27 54  1  0  0  0  0
 27 22  1  0  0  0  0
 30  5  1  0  0  0  0
 33  8  1  0  0  0  0
 34  9  1  0  0  0  0
 37 13  1  0  0  0  0
 39 14  1  0  0  0  0
 41 16  1  0  0  0  0
 42 17  1  0  0  0  0
 45 18  1  0  0  0  0
 46 19  1  0  0  0  0
 47 20  1  0  0  0  0
 51 24  1  0  0  0  0
 52 25  1  0  0  0  0
 53 26  1  0  0  0  0
M  END
>  <Pose>
1

>  <Score>
-6.17

$$$$
