
 OpenBabel03222202113D

 56 59  0  0  0  0  0  0  0  0999 V2000
   18.7100   74.3510   12.9030 B   0  0  0  0  0  0  0  0  0  0  0  0
   19.0800   75.3260   11.3080 C   0  0  0  0  0  0  0  0  0  0  0  0
   19.4230   76.6860   11.3880 C   0  0  0  0  0  0  0  0  0  0  0  0
   19.6800   77.3570   10.2460 C   0  0  0  0  0  0  0  0  0  0  0  0
   19.6200   76.7440    9.0150 C   0  0  0  0  0  0  0  0  0  0  0  0
   19.2800   75.3850    8.9590 C   0  0  0  0  0  0  0  0  0  0  0  0
   19.0050   74.6680   10.1060 C   0  0  0  0  0  0  0  0  0  0  0  0
   19.8980   77.4670    7.8630 O   0  0  0  0  0  0  0  0  0  0  0  0
   19.1000   78.4430    7.2900 C   0  0  0  0  0  0  0  0  0  0  0  0
   20.1360   78.7560   10.3180 C   0  0  0  0  0  0  0  0  0  0  0  0
   20.8580   79.0620   11.4040 C   0  0  0  0  0  0  0  0  0  0  0  0
   21.1640   78.1580   12.4140 O   0  0  0  0  0  0  0  0  0  0  0  0
   21.9550   78.8070   13.3730 C   0  0  0  0  0  0  0  0  0  0  0  0
   22.1910   80.1090   13.0560 C   0  0  0  0  0  0  0  0  0  0  0  0
   22.9650   80.9220   13.8510 C   0  0  0  0  0  0  0  0  0  0  0  0
   23.5320   80.4160   15.0150 C   0  0  0  0  0  0  0  0  0  0  0  0
   23.2830   79.0800   15.3350 C   0  0  0  0  0  0  0  0  0  0  0  0
   22.5160   78.2820   14.5500 C   0  0  0  0  0  0  0  0  0  0  0  0
   22.0560   76.9260   14.9200 C   0  0  0  0  0  0  0  0  0  0  0  0
   21.1380   76.9080   15.9590 N   0  0  0  0  0  4  0  0  0  0  0  0
   21.7370   76.3960   17.2320 C   0  0  0  0  0  0  0  0  0  0  0  0
   21.3120   77.4430   18.2920 C   0  0  0  0  0  0  0  0  0  0  0  0
   20.2560   78.2470   17.7640 N   0  0  0  0  0  0  0  0  0  0  0  0
   19.2000   77.5430   17.1500 C   0  0  0  0  0  0  0  0  0  0  0  0
   19.7800   76.6290   15.9840 C   0  0  0  0  0  0  0  0  0  0  0  0
   20.3370   79.6180   17.8690 C   0  0  0  0  0  0  0  0  0  0  0  0
   19.1510   80.4180   18.3030 C   0  0  0  0  0  0  0  0  0  0  0  0
   18.8000   80.1200   19.6290 O   0  0  0  0  0  0  0  0  0  0  0  0
   23.8850   78.6490   16.5180 O   0  0  0  0  0  0  0  0  0  0  0  0
   21.4780   80.3200   11.7630 C   0  0  0  0  0  0  0  0  0  0  0  0
   21.4200   81.3740   11.1160 O   0  0  0  0  0  0  0  0  0  0  0  0
   19.4640   77.0970   12.3840 H   0  0  0  0  0  0  0  0  0  0  0  0
   19.2180   74.8660    8.0140 H   0  0  0  0  0  0  0  0  0  0  0  0
   18.7330   73.5990   10.0120 H   0  0  0  0  0  0  0  0  0  0  0  0
   18.8590   79.2980    7.9210 H   0  0  0  0  0  0  0  0  0  0  0  0
   19.6340   78.8450    6.3890 H   0  0  0  0  0  0  0  0  0  0  0  0
   18.1300   78.0020    6.9120 H   0  0  0  0  0  0  0  0  0  0  0  0
   19.9050   79.4850    9.5830 H   0  0  0  0  0  0  0  0  0  0  0  0
   23.1250   81.9590   13.5540 H   0  0  0  0  0  0  0  0  0  0  0  0
   24.1320   81.0740   15.6280 H   0  0  0  0  0  0  0  0  0  0  0  0
   21.6250   76.4550   13.9660 H   0  0  0  0  0  0  0  0  0  0  0  0
   22.9610   76.2840   15.0880 H   0  0  0  0  0  0  0  0  0  0  0  0
   21.1940   78.0220   16.2260 H   0  0  0  0  0  0  0  0  0  0  0  0
   22.8300   76.3560   17.1300 H   0  0  0  0  0  0  0  0  0  0  0  0
   21.2630   75.4260   17.4480 H   0  0  0  0  0  0  0  0  0  0  0  0
   21.0040   76.8920   19.1930 H   0  0  0  0  0  0  0  0  0  0  0  0
   22.1920   78.0430   18.4980 H   0  0  0  0  0  0  0  0  0  0  0  0
   18.8050   76.8150   17.8750 H   0  0  0  0  0  0  0  0  0  0  0  0
   18.4120   78.1660   16.7850 H   0  0  0  0  0  0  0  0  0  0  0  0
   19.6400   75.5470   16.2980 H   0  0  0  0  0  0  0  0  0  0  0  0
   19.1450   76.8010   15.1230 H   0  0  0  0  0  0  0  0  0  0  0  0
   21.1680   79.9100   18.6240 H   0  0  0  0  0  0  0  0  0  0  0  0
   20.7410   80.0790   16.9170 H   0  0  0  0  0  0  0  0  0  0  0  0
   18.2640   80.3580   17.6760 H   0  0  0  0  0  0  0  0  0  0  0  0
   19.4480   81.5110   18.3060 H   0  0  0  0  0  0  0  0  0  0  0  0
   18.1240   79.3660   19.6240 H   0  0  0  0  0  0  0  0  0  0  0  0
  2  3  1  0  0  0  0
  2  1  1  0  0  0  0
  3 32  1  0  0  0  0
  4 10  1  0  0  0  0
  4  3  2  0  0  0  0
  5  4  1  0  0  0  0
  6  5  2  0  0  0  0
  6  7  1  0  0  0  0
  7  2  2  0  0  0  0
  8  5  1  0  0  0  0
  9  8  1  0  0  0  0
  9 35  1  0  0  0  0
 10 11  2  0  0  0  0
 11 30  1  0  0  0  0
 11 12  1  0  0  0  0
 12 13  1  0  0  0  0
 13 18  1  0  0  0  0
 14 13  2  0  0  0  0
 14 15  1  0  0  0  0
 15 16  2  0  0  0  0
 16 17  1  0  0  0  0
 16 40  1  0  0  0  0
 17 29  1  0  0  0  0
 18 19  1  0  0  0  0
 18 17  2  0  0  0  0
 19 42  1  0  0  0  0
 19 20  1  0  0  0  0
 20 25  1  0  0  0  0
 20 43  1  0  0  0  0
 20 21  1  0  0  0  0
 21 45  1  0  0  0  0
 21 22  1  0  0  0  0
 22 47  1  0  0  0  0
 22 46  1  0  0  0  0
 23 26  1  0  0  0  0
 23 22  1  0  0  0  0
 24 23  1  0  0  0  0
 24 48  1  0  0  0  0
 25 50  1  0  0  0  0
 25 24  1  0  0  0  0
 26 27  1  0  0  0  0
 26 52  1  0  0  0  0
 27 55  1  0  0  0  0
 27 28  1  0  0  0  0
 30 14  1  0  0  0  0
 31 30  2  0  0  0  0
 33  6  1  0  0  0  0
 34  7  1  0  0  0  0
 36  9  1  0  0  0  0
 37  9  1  0  0  0  0
 38 10  1  0  0  0  0
 39 15  1  0  0  0  0
 41 19  1  0  0  0  0
 44 21  1  0  0  0  0
 49 24  1  0  0  0  0
 51 25  1  0  0  0  0
 53 26  1  0  0  0  0
 54 27  1  0  0  0  0
 56 28  1  0  0  0  0
M  END
>  <Pose>
1

>  <Score>
-6.32

$$$$
