
 OpenBabel03222202113D

 51 55  0  0  1  0  0  0  0  0999 V2000
   21.2260   81.9730   21.5170 Cl  0  0  0  0  0  0  0  0  0  0  0  0
   20.3300   81.3330   20.1550 C   0  0  0  0  0  0  0  0  0  0  0  0
   20.9390   80.6590   19.1320 C   0  0  0  0  0  0  0  0  0  0  0  0
   20.1850   80.1650   18.0630 C   0  0  0  0  0  0  0  0  0  0  0  0
   18.8390   80.3780   18.0780 C   0  0  0  0  0  0  0  0  0  0  0  0
   18.2120   81.0700   19.1270 C   0  0  0  0  0  0  0  0  0  0  0  0
   18.9480   81.5520   20.1720 C   0  0  0  0  0  0  0  0  0  0  0  0
   18.2730   79.7990   16.9060 N   0  0  0  0  0  0  0  0  0  0  0  0
   19.2910   79.2080   16.1350 C   0  0  0  0  0  0  0  0  0  0  0  0
   19.0920   78.6140   15.0290 O   0  0  0  0  0  0  0  0  0  0  0  0
   20.5540   79.4170   16.8500 C   0  0  1  0  0  0  0  0  0  0  0  0
   21.4770   80.2510   16.1120 N   0  0  0  0  0  0  0  0  0  0  0  0
   22.6410   79.5010   15.7620 C   0  0  2  0  0  0  0  0  0  0  0  0
   22.3280   78.0990   16.1040 C   0  0  1  0  0  0  0  0  0  0  0  0
   21.2660   78.1230   17.1680 C   0  0  2  0  0  0  0  0  0  0  0  0
   20.4550   76.9300   16.8410 C   0  0  0  0  0  0  0  0  0  0  0  0
   19.6560   76.3020   17.5810 O   0  0  0  0  0  0  0  0  0  0  0  0
   20.6990   76.5330   15.4750 N   0  0  0  0  0  0  0  0  0  0  0  0
   21.6160   77.4770   14.9330 C   0  0  0  0  0  0  0  0  0  0  0  0
   21.7680   77.7110   13.7120 O   0  0  0  0  0  0  0  0  0  0  0  0
   20.1100   75.3920   14.8060 C   0  0  0  0  0  0  0  0  0  0  0  0
   19.1480   75.7780   13.7150 C   0  0  1  0  0  0  0  0  0  0  0  0
   19.5400   75.1880   12.5170 O   0  0  0  0  0  0  0  0  0  0  0  0
   18.8900   73.9780   12.4260 C   0  0  0  0  0  0  0  0  0  0  0  0
   17.5930   74.0820   13.1980 C   0  0  0  0  0  0  0  0  0  0  0  0
   17.7350   75.3820   13.9660 C   0  0  0  0  0  0  0  0  0  0  0  0
   23.8950   80.0360   16.4010 C   0  0  0  0  0  0  0  0  0  0  0  0
   24.9620   79.0660   16.5610 C   0  0  0  0  0  0  0  0  0  0  0  0
   25.7350   79.1380   17.5400 O   0  0  0  0  0  0  0  0  0  0  0  0
   25.1500   78.0290   15.6210 N   0  0  0  0  0  0  0  0  0  0  0  0
   21.9860   80.4950   19.1230 H   0  0  0  0  0  0  0  0  0  0  0  0
   17.1530   81.2050   19.0830 H   0  0  0  0  0  0  0  0  0  0  0  0
   18.4500   82.0810   20.9690 H   0  0  0  0  0  0  0  0  0  0  0  0
   17.2440   79.8000   16.6350 H   0  0  0  0  0  0  0  0  0  0  0  0
   21.7880   81.0900   16.6490 H   0  0  0  0  0  0  0  0  0  0  0  0
   22.7300   79.5750   14.6380 H   0  0  0  0  0  0  0  0  0  0  0  0
   23.1950   77.4670   16.3850 H   0  0  0  0  0  0  0  0  0  0  0  0
   21.6710   78.0910   18.1950 H   0  0  0  0  0  0  0  0  0  0  0  0
   20.9110   74.7560   14.3770 H   0  0  0  0  0  0  0  0  0  0  0  0
   19.5860   74.7480   15.5640 H   0  0  0  0  0  0  0  0  0  0  0  0
   19.1940   76.8760   13.5680 H   0  0  0  0  0  0  0  0  0  0  0  0
   18.6630   73.8040   11.3490 H   0  0  0  0  0  0  0  0  0  0  0  0
   19.5070   73.1180   12.7590 H   0  0  0  0  0  0  0  0  0  0  0  0
   16.7500   74.1820   12.4940 H   0  0  0  0  0  0  0  0  0  0  0  0
   17.4710   73.2360   13.9030 H   0  0  0  0  0  0  0  0  0  0  0  0
   17.4760   75.2810   15.0240 H   0  0  0  0  0  0  0  0  0  0  0  0
   17.0130   76.1500   13.5580 H   0  0  0  0  0  0  0  0  0  0  0  0
   24.2680   80.8560   15.7240 H   0  0  0  0  0  0  0  0  0  0  0  0
   23.6110   80.5610   17.3400 H   0  0  0  0  0  0  0  0  0  0  0  0
   26.0030   78.0330   15.0160 H   0  0  0  0  0  0  0  0  0  0  0  0
   24.4890   77.2420   15.4800 H   0  0  0  0  0  0  0  0  0  0  0  0
  2  7  1  0  0  0  0
  2  1  1  0  0  0  0
  3  2  2  0  0  0  0
  4  5  2  0  0  0  0
  4  3  1  0  0  0  0
  5  6  1  0  0  0  0
  6  7  2  0  0  0  0
  7 33  1  0  0  0  0
  8  5  1  0  0  0  0
  9  8  1  0  0  0  0
 10  9  2  0  0  0  0
 11  9  1  6  0  0  0
 11 15  1  0  0  0  0
 11  4  1  0  0  0  0
 12 35  1  0  0  0  0
 12 11  1  0  0  0  0
 13 36  1  6  0  0  0
 13 14  1  0  0  0  0
 13 12  1  0  0  0  0
 13 27  1  0  0  0  0
 14 37  1  1  0  0  0
 14 15  1  0  0  0  0
 15 38  1  1  0  0  0
 16 15  1  0  0  0  0
 16 17  2  0  0  0  0
 18 16  1  0  0  0  0
 19 18  1  0  0  0  0
 19 14  1  0  0  0  0
 20 19  2  0  0  0  0
 21 18  1  0  0  0  0
 21 40  1  0  0  0  0
 22 41  1  6  0  0  0
 22 26  1  0  0  0  0
 22 21  1  0  0  0  0
 23 22  1  0  0  0  0
 24 23  1  0  0  0  0
 24 43  1  0  0  0  0
 24 25  1  0  0  0  0
 25 45  1  0  0  0  0
 25 26  1  0  0  0  0
 26 46  1  0  0  0  0
 27 28  1  0  0  0  0
 27 49  1  0  0  0  0
 28 29  2  0  0  0  0
 30 28  1  0  0  0  0
 31  3  1  0  0  0  0
 32  6  1  0  0  0  0
 34  8  1  0  0  0  0
 39 21  1  0  0  0  0
 42 24  1  0  0  0  0
 44 25  1  0  0  0  0
 47 26  1  0  0  0  0
 48 27  1  0  0  0  0
 50 30  1  0  0  0  0
 51 30  1  0  0  0  0
M  END
>  <Pose>
1

>  <Score>
-4.68

$$$$
