
 OpenBabel03222202113D

 53 56  0  0  0  0  0  0  0  0999 V2000
   16.7190   70.6940   11.8820 Cl  0  0  0  0  0  0  0  0  0  0  0  0
   17.6820   72.0310   12.4610 C   0  0  0  0  0  0  0  0  0  0  0  0
   17.2140   73.3240   12.4360 C   0  0  0  0  0  0  0  0  0  0  0  0
   17.9540   74.3750   12.8860 C   0  0  0  0  0  0  0  0  0  0  0  0
   19.2550   74.1980   13.4060 C   0  0  0  0  0  0  0  0  0  0  0  0
   19.7160   72.8650   13.4230 C   0  0  0  0  0  0  0  0  0  0  0  0
   18.9480   71.8370   12.9650 C   0  0  0  0  0  0  0  0  0  0  0  0
   20.0050   75.1560   13.8460 O   0  0  0  0  0  0  0  0  0  0  0  0
   20.7420   76.1280   14.2490 C   0  0  0  0  0  0  0  0  0  0  0  0
   20.2740   77.2280   15.1140 C   0  0  0  0  0  0  0  0  0  0  0  0
   19.9640   78.3150   14.4620 O   0  0  0  0  0  0  0  0  0  0  0  0
   20.1140   77.2830   16.4890 N   0  0  0  0  0  0  0  0  0  0  0  0
   18.7520   77.6010   17.0160 C   0  0  0  0  0  0  0  0  0  0  0  0
   18.9680   78.5420   18.1740 C   0  0  0  0  0  0  0  0  0  0  0  0
   20.2550   79.2110   18.1330 N   0  0  0  0  0  0  0  0  0  0  0  0
   21.4290   78.3830   18.2030 C   0  0  0  0  0  0  0  0  0  0  0  0
   21.0820   77.0650   17.5320 C   0  0  0  0  0  0  0  0  0  0  0  0
   20.3210   80.6160   18.0240 C   0  0  0  0  0  0  0  0  0  0  0  0
   20.0130   81.4220   19.0780 N   0  0  0  0  0  0  0  0  0  0  0  0
   20.0630   82.7460   19.0260 C   0  0  0  0  0  0  0  0  0  0  0  0
   20.4430   83.3100   17.8500 N   0  0  0  0  0  0  0  0  0  0  0  0
   20.7570   82.5960   16.7850 C   0  0  0  0  0  0  0  0  0  0  0  0
   20.7020   81.2070   16.8460 C   0  0  0  0  0  0  0  0  0  0  0  0
   19.7450   83.5970   20.1130 N   0  0  0  0  0  0  0  0  0  0  0  0
   20.4310   83.4330   21.3900 C   0  0  0  0  0  0  0  0  0  0  0  0
   19.3140   83.3060   22.4300 C   0  0  0  0  0  0  0  0  0  0  0  0
   18.5420   84.4370   22.4320 O   0  0  0  0  0  0  0  0  0  0  0  0
   17.8670   84.6800   21.2600 C   0  0  0  0  0  0  0  0  0  0  0  0
   18.7570   84.6450   20.0370 C   0  0  0  0  0  0  0  0  0  0  0  0
   16.2070   73.4560   12.0330 H   0  0  0  0  0  0  0  0  0  0  0  0
   17.5750   75.3650   12.8650 H   0  0  0  0  0  0  0  0  0  0  0  0
   20.7150   72.7140   13.8220 H   0  0  0  0  0  0  0  0  0  0  0  0
   19.3280   70.8210   12.9920 H   0  0  0  0  0  0  0  0  0  0  0  0
   21.2070   76.6970   13.3420 H   0  0  0  0  0  0  0  0  0  0  0  0
   21.7450   75.8070   14.7470 H   0  0  0  0  0  0  0  0  0  0  0  0
   18.3610   76.6250   17.3650 H   0  0  0  0  0  0  0  0  0  0  0  0
   18.1380   78.0540   16.2060 H   0  0  0  0  0  0  0  0  0  0  0  0
   18.9950   77.9240   19.1200 H   0  0  0  0  0  0  0  0  0  0  0  0
   18.1570   79.3140   18.2540 H   0  0  0  0  0  0  0  0  0  0  0  0
   22.3390   78.8280   17.7930 H   0  0  0  0  0  0  0  0  0  0  0  0
   21.6630   78.1880   19.2920 H   0  0  0  0  0  0  0  0  0  0  0  0
   20.5360   76.4850   18.3500 H   0  0  0  0  0  0  0  0  0  0  0  0
   21.9300   76.4400   17.2850 H   0  0  0  0  0  0  0  0  0  0  0  0
   21.0610   83.0710   15.8470 H   0  0  0  0  0  0  0  0  0  0  0  0
   20.9670   80.6250   15.9650 H   0  0  0  0  0  0  0  0  0  0  0  0
   21.0630   82.5260   21.4040 H   0  0  0  0  0  0  0  0  0  0  0  0
   20.9730   84.3560   21.5910 H   0  0  0  0  0  0  0  0  0  0  0  0
   18.7420   82.3800   22.1860 H   0  0  0  0  0  0  0  0  0  0  0  0
   19.7910   83.1790   23.4020 H   0  0  0  0  0  0  0  0  0  0  0  0
   17.0160   83.9840   21.0900 H   0  0  0  0  0  0  0  0  0  0  0  0
   17.4360   85.7010   21.3180 H   0  0  0  0  0  0  0  0  0  0  0  0
   18.0910   84.4960   19.1620 H   0  0  0  0  0  0  0  0  0  0  0  0
   19.2470   85.6250   19.9150 H   0  0  0  0  0  0  0  0  0  0  0  0
  1  2  1  0  0  0  0
  2  7  1  0  0  0  0
  3  2  2  0  0  0  0
  3  4  1  0  0  0  0
  4  5  2  0  0  0  0
  5  6  1  0  0  0  0
  5  8  1  0  0  0  0
  6 32  1  0  0  0  0
  7 33  1  0  0  0  0
  7  6  2  0  0  0  0
  8  9  1  0  0  0  0
  9 35  1  0  0  0  0
  9 10  1  0  0  0  0
 10 12  1  0  0  0  0
 11 10  2  0  0  0  0
 12 13  1  0  0  0  0
 12 17  1  0  0  0  0
 13 36  1  0  0  0  0
 13 14  1  0  0  0  0
 14 39  1  0  0  0  0
 14 38  1  0  0  0  0
 15 14  1  0  0  0  0
 15 16  1  0  0  0  0
 16 41  1  0  0  0  0
 17 16  1  0  0  0  0
 17 42  1  0  0  0  0
 18 15  1  0  0  0  0
 18 19  1  0  0  0  0
 20 19  2  0  0  0  0
 20 24  1  0  0  0  0
 21 20  1  0  0  0  0
 22 23  1  0  0  0  0
 22 21  2  0  0  0  0
 23 18  2  0  0  0  0
 24 25  1  0  0  0  0
 25 46  1  0  0  0  0
 25 47  1  0  0  0  0
 25 26  1  0  0  0  0
 26 27  1  0  0  0  0
 26 49  1  0  0  0  0
 28 51  1  0  0  0  0
 28 27  1  0  0  0  0
 29 24  1  0  0  0  0
 29 28  1  0  0  0  0
 30  3  1  0  0  0  0
 31  4  1  0  0  0  0
 34  9  1  0  0  0  0
 37 13  1  0  0  0  0
 40 16  1  0  0  0  0
 43 17  1  0  0  0  0
 44 22  1  0  0  0  0
 45 23  1  0  0  0  0
 48 26  1  0  0  0  0
 50 28  1  0  0  0  0
 52 29  1  0  0  0  0
 53 29  1  0  0  0  0
M  END
>  <Pose>
1

>  <Score>
-6.92

$$$$
