
 OpenBabel03222202113D

 45 49  0  0  0  0  0  0  0  0999 V2000
   25.7430   79.2540   17.3470 Cl  0  0  0  0  0  0  0  0  0  0  0  0
   24.6210   79.0460   16.0380 C   0  0  0  0  0  0  0  0  0  0  0  0
   23.9320   80.1280   15.5500 C   0  0  0  0  0  0  0  0  0  0  0  0
   23.0410   79.9670   14.5130 C   0  0  0  0  0  0  0  0  0  0  0  0
   22.8120   78.7400   13.9370 C   0  0  0  0  0  0  0  0  0  0  0  0
   23.5180   77.6730   14.4470 C   0  0  0  0  0  0  0  0  0  0  0  0
   24.4160   77.8140   15.4880 C   0  0  0  0  0  0  0  0  0  0  0  0
   21.9080   78.5130   12.8660 N   0  0  0  0  0  0  0  0  0  0  0  0
   20.9200   77.6370   12.8190 N   0  0  0  0  0  0  0  0  0  0  0  0
   20.2750   77.6910   11.6700 N   0  0  0  0  0  0  0  0  0  0  0  0
   20.8340   78.6350   10.8930 C   0  0  0  0  0  0  0  0  0  0  0  0
   21.8600   79.1410   11.6640 C   0  0  0  0  0  0  0  0  0  0  0  0
   22.6160   80.1290   11.1330 N   0  0  0  0  0  0  0  0  0  0  0  0
   22.3450   80.5740    9.8930 C   0  0  0  0  0  0  0  0  0  0  0  0
   21.3340   80.0730    9.1400 N   0  0  0  0  0  0  0  0  0  0  0  0
   20.5510   79.0890    9.6210 C   0  0  0  0  0  0  0  0  0  0  0  0
   19.4840   78.5480    8.8430 N   0  0  0  0  0  0  0  0  0  0  0  0
   19.8200   77.4480    7.9590 C   0  0  0  0  0  0  0  0  0  0  0  0
   18.5890   76.5960    7.6580 C   0  0  0  0  0  0  0  0  0  0  0  0
   17.4190   77.3910    7.5560 N   0  0  0  0  0  0  0  0  0  0  0  0
   17.0800   78.0960    8.8310 C   0  0  0  0  0  0  0  0  0  0  0  0
   18.1840   79.1240    8.9920 C   0  0  0  0  0  0  0  0  0  0  0  0
   16.6270   77.5580    6.4330 C   0  0  0  0  0  0  0  0  0  0  0  0
   16.6350   78.7860    5.9430 O   0  0  0  0  0  0  0  0  0  0  0  0
   15.7810   76.6500    5.6730 C   0  0  0  0  0  0  0  0  0  0  0  0
   16.4010   75.8120    4.6200 C   0  0  0  0  0  0  0  0  0  0  0  0
   15.6890   75.1990    5.8040 C   0  0  0  0  0  0  0  0  0  0  0  0
   24.1200   81.1030   16.0160 H   0  0  0  0  0  0  0  0  0  0  0  0
   22.5170   80.8390   14.1550 H   0  0  0  0  0  0  0  0  0  0  0  0
   23.3570   76.6860   14.0090 H   0  0  0  0  0  0  0  0  0  0  0  0
   24.9350   76.9110   15.8330 H   0  0  0  0  0  0  0  0  0  0  0  0
   22.9650   81.3760    9.4710 H   0  0  0  0  0  0  0  0  0  0  0  0
   20.3040   77.8310    7.0440 H   0  0  0  0  0  0  0  0  0  0  0  0
   20.5500   76.7780    8.4540 H   0  0  0  0  0  0  0  0  0  0  0  0
   18.4260   75.9480    8.5910 H   0  0  0  0  0  0  0  0  0  0  0  0
   18.8420   75.9000    6.8880 H   0  0  0  0  0  0  0  0  0  0  0  0
   16.1020   78.5660    8.7650 H   0  0  0  0  0  0  0  0  0  0  0  0
   17.1730   77.3680    9.6370 H   0  0  0  0  0  0  0  0  0  0  0  0
   17.9600   79.9280    8.2470 H   0  0  0  0  0  0  0  0  0  0  0  0
   18.0560   79.5780    9.9980 H   0  0  0  0  0  0  0  0  0  0  0  0
   14.7790   77.1360    5.3560 H   0  0  0  0  0  0  0  0  0  0  0  0
   17.4930   75.7590    4.5010 H   0  0  0  0  0  0  0  0  0  0  0  0
   15.8910   75.6910    3.6280 H   0  0  0  0  0  0  0  0  0  0  0  0
   14.6710   74.7310    5.5790 H   0  0  0  0  0  0  0  0  0  0  0  0
   16.2740   74.5430    6.4310 H   0  0  0  0  0  0  0  0  0  0  0  0
  2  1  1  0  0  0  0
  3 28  1  0  0  0  0
  3  2  1  0  0  0  0
  4  3  2  0  0  0  0
  5  6  2  0  0  0  0
  5  4  1  0  0  0  0
  6  7  1  0  0  0  0
  7 31  1  0  0  0  0
  7  2  2  0  0  0  0
  8  5  1  0  0  0  0
  9  8  1  0  0  0  0
 10  9  2  0  0  0  0
 11 12  2  0  0  0  0
 11 10  1  0  0  0  0
 12  8  1  0  0  0  0
 13 12  1  0  0  0  0
 14 13  2  0  0  0  0
 15 16  2  0  0  0  0
 15 14  1  0  0  0  0
 16 11  1  0  0  0  0
 17 22  1  0  0  0  0
 17 16  1  0  0  0  0
 18 34  1  0  0  0  0
 18 17  1  0  0  0  0
 19 18  1  0  0  0  0
 19 35  1  0  0  0  0
 20 19  1  0  0  0  0
 20 21  1  0  0  0  0
 21 22  1  0  0  0  0
 21 38  1  0  0  0  0
 22 40  1  0  0  0  0
 23 20  1  0  0  0  0
 24 23  2  0  0  0  0
 25 27  1  0  0  0  0
 25 23  1  0  0  0  0
 26 25  1  0  0  0  0
 26 27  1  0  0  0  0
 27 45  1  0  0  0  0
 29  4  1  0  0  0  0
 30  6  1  0  0  0  0
 32 14  1  0  0  0  0
 33 18  1  0  0  0  0
 36 19  1  0  0  0  0
 37 21  1  0  0  0  0
 39 22  1  0  0  0  0
 41 25  1  0  0  0  0
 42 26  1  0  0  0  0
 43 26  1  0  0  0  0
 44 27  1  0  0  0  0
M  END
>  <Pose>
1

>  <Score>
-6.45

$$$$
