
 OpenBabel03222202113D

 41 44  0  0  1  0  0  0  0  0999 V2000
   22.3500   78.8480   14.1470 S   0  0  0  0  0  0  0  0  0  0  0  0
   22.1330   77.5110   13.4760 O   0  0  0  0  0  0  0  0  0  0  0  0
   23.8240   78.9720   14.3940 O   0  0  0  0  0  0  0  0  0  0  0  0
   21.7940   80.0650   13.1520 N   0  0  0  0  0  0  0  0  0  0  0  0
   20.6610   80.7880   13.5220 C   0  0  0  0  0  0  0  0  0  0  0  0
   19.7780   81.1730   12.3580 C   0  0  0  0  0  0  0  0  0  0  0  0
   19.8700   80.2400   11.2110 C   0  0  2  0  0  0  0  0  0  0  0  0
   21.1050   79.7010   10.9440 C   0  0  0  0  0  0  0  0  0  0  0  0
   21.2840   78.8500    9.9270 N   0  0  0  0  0  0  0  0  0  0  0  0
   20.2120   78.5100    9.1380 C   0  0  1  0  0  0  0  0  0  0  0  0
   19.0070   79.0500    9.4150 N   0  0  0  0  0  0  0  0  0  0  0  0
   18.1460   78.5670    8.5150 N   0  0  0  0  0  0  0  0  0  0  0  0
   18.7670   77.7420    7.6810 C   0  0  0  0  0  0  0  0  0  0  0  0
   20.1100   77.6750    8.0470 C   0  0  0  0  0  0  0  0  0  0  0  0
   18.7720   79.9050   10.4180 C   0  0  0  0  0  0  0  0  0  0  0  0
   17.6510   80.4060   10.6750 O   0  0  0  0  0  0  0  0  0  0  0  0
   22.2360   80.0790   11.8080 C   0  0  0  0  0  0  0  0  0  0  0  0
   21.5540   78.7610   15.7030 C   0  0  0  0  0  0  0  0  0  0  0  0
   21.1580   79.8850   16.4070 C   0  0  0  0  0  0  0  0  0  0  0  0
   20.5310   79.7560   17.6380 C   0  0  0  0  0  0  0  0  0  0  0  0
   20.2750   78.5310   18.2080 C   0  0  0  0  0  0  0  0  0  0  0  0
   20.6690   77.4110   17.5070 C   0  0  0  0  0  0  0  0  0  0  0  0
   21.2910   77.5390   16.2850 C   0  0  0  0  0  0  0  0  0  0  0  0
   19.6380   78.4240   19.4550 O   0  0  0  0  0  0  0  0  0  0  0  0
   20.0990   77.4760   20.3980 C   0  0  0  0  0  0  0  0  0  0  0  0
   20.0360   81.1900   18.5160 Cl  0  0  0  0  0  0  0  0  0  0  0  0
   20.0650   80.2810   14.3250 H   0  0  0  0  0  0  0  0  0  0  0  0
   20.9960   81.7670   13.9790 H   0  0  0  0  0  0  0  0  0  0  0  0
   18.7290   81.3450   12.6750 H   0  0  0  0  0  0  0  0  0  0  0  0
   20.1110   82.1740   11.9500 H   0  0  0  0  0  0  0  0  0  0  0  0
   17.1280   78.7960    8.4630 H   0  0  0  0  0  0  0  0  0  0  0  0
   18.3470   77.2040    6.8570 H   0  0  0  0  0  0  0  0  0  0  0  0
   20.8590   77.0930    7.5620 H   0  0  0  0  0  0  0  0  0  0  0  0
   23.1070   79.4220   11.7030 H   0  0  0  0  0  0  0  0  0  0  0  0
   22.4910   81.1470   11.5430 H   0  0  0  0  0  0  0  0  0  0  0  0
   21.3630   80.8450   15.9490 H   0  0  0  0  0  0  0  0  0  0  0  0
   20.4700   76.4260   17.9520 H   0  0  0  0  0  0  0  0  0  0  0  0
   21.5950   76.6410   15.7490 H   0  0  0  0  0  0  0  0  0  0  0  0
   21.2090   77.6510   20.4960 H   0  0  0  0  0  0  0  0  0  0  0  0
   19.6940   77.7150   21.4090 H   0  0  0  0  0  0  0  0  0  0  0  0
   19.8790   76.4410   20.0950 H   0  0  0  0  0  0  0  0  0  0  0  0
  1  3  2  0  0  0  0
  1 18  1  0  0  0  0
  2  1  2  0  0  0  0
  4  5  1  0  0  0  0
  4  1  1  0  0  0  0
  5 28  1  0  0  0  0
  5 27  1  0  0  0  0
  6 29  1  0  0  0  0
  6  5  1  0  0  0  0
  7 15  1  6  0  0  0
  7  6  1  0  0  0  0
  8  7  1  0  0  0  0
  8 17  1  0  0  0  0
  9  8  2  0  0  0  0
 10 14  1  6  0  0  0
 10 11  1  0  0  0  0
 10  9  1  0  0  0  0
 11 15  1  0  0  0  0
 12 11  1  0  0  0  0
 13 14  2  0  0  0  0
 13 12  1  0  0  0  0
 15 16  2  0  0  0  0
 17  4  1  0  0  0  0
 18 23  2  0  0  0  0
 18 19  1  0  0  0  0
 19 20  2  0  0  0  0
 20 21  1  0  0  0  0
 20 26  1  0  0  0  0
 21 24  1  0  0  0  0
 22 37  1  0  0  0  0
 22 21  2  0  0  0  0
 23 22  1  0  0  0  0
 24 25  1  0  0  0  0
 25 39  1  0  0  0  0
 25 40  1  0  0  0  0
 30  6  1  0  0  0  0
 31 12  1  0  0  0  0
 32 13  1  0  0  0  0
 33 14  1  0  0  0  0
 34 17  1  0  0  0  0
 35 17  1  0  0  0  0
 36 19  1  0  0  0  0
 38 23  1  0  0  0  0
 41 25  1  0  0  0  0
M  END
>  <Pose>
1

>  <Score>
-5.95

$$$$
