
 OpenBabel03222202113D

 41 43  0  0  1  0  0  0  0  0999 V2000
   20.1040   84.8260   18.8140 Cl  0  0  0  0  0  0  0  0  0  0  0  0
   20.1100   83.0760   19.0160 C   0  0  0  0  0  0  0  0  0  0  0  0
   19.9430   82.5410   20.2750 C   0  0  0  0  0  0  0  0  0  0  0  0
   19.9500   81.1710   20.4140 C   0  0  0  0  0  0  0  0  0  0  0  0
   20.1180   80.2950   19.3360 C   0  0  0  0  0  0  0  0  0  0  0  0
   20.2830   80.8350   18.0930 C   0  0  0  0  0  0  0  0  0  0  0  0
   20.2780   82.2260   17.9330 C   0  0  0  0  0  0  0  0  0  0  0  0
   20.1040   78.8820   19.6150 C   0  0  0  0  0  0  0  0  0  0  0  0
   19.3430   78.4440   20.5230 O   0  0  0  0  0  0  0  0  0  0  0  0
   20.9460   78.0060   18.8640 N   0  0  0  0  0  0  0  0  0  0  0  0
   21.0910   78.2560   17.4600 C   0  0  0  0  0  0  0  0  0  0  0  0
   22.4380   78.0900   16.8790 C   0  0  2  0  0  0  0  0  0  0  0  0
   23.2240   79.2700   16.6900 N   0  0  1  0  0  0  0  0  0  0  0  0
   24.6150   78.8620   17.0040 C   0  0  0  0  0  0  0  0  0  0  0  0
   24.7920   77.5450   16.2380 C   0  0  0  0  0  0  0  0  0  0  0  0
   23.8730   77.4340   15.1230 N   0  0  1  0  0  0  0  0  0  0  0  0
   22.4820   77.3220   15.5680 C   0  0  0  0  0  0  0  0  0  0  0  0
   23.9400   78.6910   14.3990 C   0  0  0  0  0  0  0  0  0  0  0  0
   23.3150   79.7310   15.3200 C   0  0  0  0  0  0  0  0  0  0  0  0
   19.7740   83.3850   21.3640 O   0  0  0  0  0  0  0  0  0  0  0  0
   18.6890   84.2900   21.4330 C   0  0  0  0  0  0  0  0  0  0  0  0
   19.8150   80.7870   21.4250 H   0  0  0  0  0  0  0  0  0  0  0  0
   20.4140   80.2300   17.2240 H   0  0  0  0  0  0  0  0  0  0  0  0
   20.4100   82.6300   16.9390 H   0  0  0  0  0  0  0  0  0  0  0  0
   21.4120   77.2420   19.3530 H   0  0  0  0  0  0  0  0  0  0  0  0
   20.3790   77.6410   16.8910 H   0  0  0  0  0  0  0  0  0  0  0  0
   20.8010   79.3350   17.3020 H   0  0  0  0  0  0  0  0  0  0  0  0
   22.9910   77.3980   17.6010 H   0  0  0  0  0  0  0  0  0  0  0  0
   24.6200   78.6800   18.0940 H   0  0  0  0  0  0  0  0  0  0  0  0
   25.3110   79.6320   16.6680 H   0  0  0  0  0  0  0  0  0  0  0  0
   25.8090   77.6120   15.7970 H   0  0  0  0  0  0  0  0  0  0  0  0
   24.7710   76.6920   16.9240 H   0  0  0  0  0  0  0  0  0  0  0  0
   21.8540   77.7490   14.7860 H   0  0  0  0  0  0  0  0  0  0  0  0
   22.2360   76.2530   15.7550 H   0  0  0  0  0  0  0  0  0  0  0  0
   23.3140   78.5680   13.4930 H   0  0  0  0  0  0  0  0  0  0  0  0
   24.9980   78.8770   14.1820 H   0  0  0  0  0  0  0  0  0  0  0  0
   22.4170   80.1730   14.9060 H   0  0  0  0  0  0  0  0  0  0  0  0
   24.0910   80.5610   15.3480 H   0  0  0  0  0  0  0  0  0  0  0  0
   17.7630   83.6750   21.4460 H   0  0  0  0  0  0  0  0  0  0  0  0
   18.6350   84.9170   20.5050 H   0  0  0  0  0  0  0  0  0  0  0  0
   18.7690   84.8810   22.3450 H   0  0  0  0  0  0  0  0  0  0  0  0
  1  2  1  0  0  0  0
  2  3  1  0  0  0  0
  3  4  2  0  0  0  0
  3 20  1  0  0  0  0
  4 22  1  0  0  0  0
  5  8  1  0  0  0  0
  5  4  1  0  0  0  0
  6  5  2  0  0  0  0
  7  6  1  0  0  0  0
  7  2  2  0  0  0  0
  8  9  2  0  0  0  0
 10 25  1  0  0  0  0
 10  8  1  0  0  0  0
 11 10  1  0  0  0  0
 12 11  1  0  0  0  0
 12 28  1  1  0  0  0
 13 19  1  6  0  0  0
 13 12  1  0  0  0  0
 13 14  1  0  0  0  0
 14 29  1  0  0  0  0
 15 32  1  0  0  0  0
 15 14  1  0  0  0  0
 16 18  1  6  0  0  0
 16 17  1  0  0  0  0
 16 15  1  0  0  0  0
 17 34  1  0  0  0  0
 17 12  1  0  0  0  0
 18 19  1  0  0  0  0
 19 38  1  0  0  0  0
 20 21  1  0  0  0  0
 21 39  1  0  0  0  0
 21 41  1  0  0  0  0
 23  6  1  0  0  0  0
 24  7  1  0  0  0  0
 26 11  1  0  0  0  0
 27 11  1  0  0  0  0
 30 14  1  0  0  0  0
 31 15  1  0  0  0  0
 33 17  1  0  0  0  0
 35 18  1  0  0  0  0
 36 18  1  0  0  0  0
 37 19  1  0  0  0  0
 40 21  1  0  0  0  0
M  END
>  <Pose>
1

>  <Score>
-5.64

$$$$
