
 OpenBabel03222202113D

 47 50  0  0  1  0  0  0  0  0999 V2000
   18.9820   79.3680   19.7430 Cl  0  0  0  0  0  0  0  0  0  0  0  0
   20.1230   79.6630   18.4550 C   0  0  0  0  0  0  0  0  0  0  0  0
   20.1520   80.8460   17.7280 C   0  0  0  0  0  0  0  0  0  0  0  0
   21.0520   81.0570   16.7250 C   0  0  0  0  0  0  0  0  0  0  0  0
   21.9770   80.0860   16.3940 C   0  0  0  0  0  0  0  0  0  0  0  0
   21.9530   78.9140   17.1080 C   0  0  0  0  0  0  0  0  0  0  0  0
   21.0390   78.7030   18.1260 C   0  0  0  0  0  0  0  0  0  0  0  0
   22.9330   80.3510   15.3380 C   0  0  2  0  0  0  0  0  0  0  0  0
   23.2050   79.4790   14.3070 N   0  0  0  0  0  4  0  0  0  0  0  0
   23.9780   78.4130   14.9110 C   0  0  0  0  0  0  0  0  0  0  0  0
   23.9970   77.1220   14.8340 C   0  0  0  0  0  0  0  0  0  0  0  0
   24.9270   76.2650   15.5910 C   0  0  0  0  0  0  0  0  0  0  0  0
   25.8680   76.9760   16.4980 C   0  0  0  0  0  0  0  0  0  0  0  0
   26.0980   78.4090   16.1540 C   0  0  0  0  0  0  0  0  0  0  0  0
   24.8840   79.0920   15.7620 N   0  0  0  0  0  0  0  0  0  0  0  0
   24.3160   80.4070   16.0470 C   0  0  0  0  0  0  0  0  0  0  0  0
   22.2640   79.0210   13.3980 C   0  0  0  0  0  0  0  0  0  0  0  0
   21.3970   77.9960   13.5650 C   0  0  0  0  0  0  0  0  0  0  0  0
   20.4950   77.6610   12.5560 C   0  0  0  0  0  0  0  0  0  0  0  0
   20.4380   78.3430   11.3530 C   0  0  0  0  0  0  0  0  0  0  0  0
   21.3340   79.3830   11.2110 C   0  0  0  0  0  0  0  0  0  0  0  0
   22.2310   79.7360   12.1830 C   0  0  0  0  0  0  0  0  0  0  0  0
   19.5270   77.9770   10.3760 O   0  0  0  0  0  0  0  0  0  0  0  0
   19.7390   78.3840    9.0490 C   0  0  0  0  0  0  0  0  0  0  0  0
   22.7730   81.6870   14.8740 O   0  0  0  0  0  0  0  0  0  0  0  0
   19.4070   81.6000   18.0120 H   0  0  0  0  0  0  0  0  0  0  0  0
   21.0020   82.0200   16.2060 H   0  0  0  0  0  0  0  0  0  0  0  0
   22.6360   78.0960   16.9440 H   0  0  0  0  0  0  0  0  0  0  0  0
   21.0270   77.7620   18.6940 H   0  0  0  0  0  0  0  0  0  0  0  0
   23.9650   79.9610   13.7000 H   0  0  0  0  0  0  0  0  0  0  0  0
   23.2980   76.5900   14.1990 H   0  0  0  0  0  0  0  0  0  0  0  0
   25.4380   75.5280   14.9220 H   0  0  0  0  0  0  0  0  0  0  0  0
   24.2640   75.6090   16.2320 H   0  0  0  0  0  0  0  0  0  0  0  0
   26.8550   76.4330   16.4430 H   0  0  0  0  0  0  0  0  0  0  0  0
   25.5260   76.9490   17.5700 H   0  0  0  0  0  0  0  0  0  0  0  0
   26.8680   78.4700   15.3320 H   0  0  0  0  0  0  0  0  0  0  0  0
   26.5330   78.9590   17.0110 H   0  0  0  0  0  0  0  0  0  0  0  0
   24.9580   81.1500   15.5310 H   0  0  0  0  0  0  0  0  0  0  0  0
   24.2080   80.5950   17.1170 H   0  0  0  0  0  0  0  0  0  0  0  0
   21.4130   77.4500   14.4940 H   0  0  0  0  0  0  0  0  0  0  0  0
   19.8250   76.8250   12.7560 H   0  0  0  0  0  0  0  0  0  0  0  0
   21.2710   79.9100   10.2530 H   0  0  0  0  0  0  0  0  0  0  0  0
   22.9060   80.5850   12.0070 H   0  0  0  0  0  0  0  0  0  0  0  0
   19.6080   79.4790    8.9460 H   0  0  0  0  0  0  0  0  0  0  0  0
   19.1070   77.8130    8.3350 H   0  0  0  0  0  0  0  0  0  0  0  0
   20.7940   78.1720    8.7080 H   0  0  0  0  0  0  0  0  0  0  0  0
   21.8210   81.7630   14.6070 H   0  0  0  0  0  0  0  0  0  0  0  0
  2  1  1  0  0  0  0
  3 26  1  0  0  0  0
  3  2  2  0  0  0  0
  4  3  1  0  0  0  0
  5  4  2  0  0  0  0
  5  6  1  0  0  0  0
  6  7  2  0  0  0  0
  7  2  1  0  0  0  0
  7 29  1  0  0  0  0
  8 25  1  6  0  0  0
  8 16  1  0  0  0  0
  8  5  1  0  0  0  0
  9 10  1  0  0  0  0
  9  8  1  0  0  0  0
 10 15  1  0  0  0  0
 11 10  2  0  0  0  0
 11 12  1  0  0  0  0
 12 33  1  0  0  0  0
 12 13  1  0  0  0  0
 13 35  1  0  0  0  0
 14 13  1  0  0  0  0
 14 37  1  0  0  0  0
 15 16  1  0  0  0  0
 15 14  1  0  0  0  0
 16 39  1  0  0  0  0
 17 18  1  0  0  0  0
 17  9  1  0  0  0  0
 18 40  1  0  0  0  0
 19 41  1  0  0  0  0
 19 18  2  0  0  0  0
 20 19  1  0  0  0  0
 21 20  2  0  0  0  0
 21 22  1  0  0  0  0
 22 17  2  0  0  0  0
 23 20  1  0  0  0  0
 24 23  1  0  0  0  0
 27  4  1  0  0  0  0
 28  6  1  0  0  0  0
 30  9  1  0  0  0  0
 31 11  1  0  0  0  0
 32 12  1  0  0  0  0
 34 13  1  0  0  0  0
 36 14  1  0  0  0  0
 38 16  1  0  0  0  0
 42 21  1  0  0  0  0
 43 22  1  0  0  0  0
 44 24  1  0  0  0  0
 45 24  1  0  0  0  0
 46 24  1  0  0  0  0
 47 25  1  0  0  0  0
M  END
>  <Pose>
1

>  <Score>
-4.99

$$$$
