
 OpenBabel03222202113D

 51 54  0  0  0  0  0  0  0  0999 V2000
   19.5630   78.4400   20.3940 Cl  0  0  0  0  0  0  0  0  0  0  0  0
   20.3920   78.6320   18.8700 C   0  0  0  0  0  0  0  0  0  0  0  0
   21.2300   77.6560   18.4060 C   0  0  0  0  0  0  0  0  0  0  0  0
   21.8720   77.8310   17.1740 C   0  0  0  0  0  0  0  0  0  0  0  0
   21.6910   78.9580   16.4080 C   0  0  0  0  0  0  0  0  0  0  0  0
   20.8310   79.9690   16.8710 C   0  0  0  0  0  0  0  0  0  0  0  0
   20.2120   79.7620   18.0930 C   0  0  0  0  0  0  0  0  0  0  0  0
   22.3990   78.8700   15.2850 N   0  0  0  0  0  0  0  0  0  0  0  0
   23.0390   77.6540   15.3620 C   0  0  0  0  0  0  0  0  0  0  0  0
   23.8220   77.1870   14.4860 O   0  0  0  0  0  0  0  0  0  0  0  0
   22.6960   77.0820   16.4900 O   0  0  0  0  0  0  0  0  0  0  0  0
   22.6070   79.8080   14.1960 C   0  0  0  0  0  0  0  0  0  0  0  0
   22.3520   79.3310   12.8400 C   0  0  0  0  0  0  0  0  0  0  0  0
   22.0940   80.2320   11.7430 C   0  0  0  0  0  0  0  0  0  0  0  0
   22.8260   81.2940   11.7330 O   0  0  0  0  0  0  0  0  0  0  0  0
   21.1890   80.1120   10.6860 N   0  0  0  0  0  0  0  0  0  0  0  0
   21.5720   80.0040    9.2660 C   0  0  0  0  0  0  0  0  0  0  0  0
   21.1800   78.5110    9.0340 C   0  0  0  0  0  0  0  0  0  0  0  0
   19.7300   78.4180    9.1350 N   0  0  0  0  0  0  0  0  0  0  0  0
   19.0210   79.3240    9.8560 C   0  0  0  0  0  0  0  0  0  0  0  0
   19.7650   80.1380   10.8770 C   0  0  0  0  0  0  0  0  0  0  0  0
   19.3620   77.1270    8.7930 C   0  0  0  0  0  0  0  0  0  0  0  0
   18.5770   77.0860    7.4820 C   0  0  0  0  0  0  0  0  0  0  0  0
   18.3550   78.2540    6.9800 O   0  0  0  0  0  0  0  0  0  0  0  0
   18.1750   75.9360    6.9520 N   0  0  0  0  0  0  0  0  0  0  0  0
   17.7480   74.7130    6.3880 C   0  0  0  0  0  0  0  0  0  0  0  0
   17.6250   74.7210    4.8160 C   0  0  0  0  0  0  0  0  0  0  0  0
   16.4310   74.6940    5.6400 C   0  0  0  0  0  0  0  0  0  0  0  0
   21.4010   76.7530   18.9850 H   0  0  0  0  0  0  0  0  0  0  0  0
   20.7130   80.8260   16.2650 H   0  0  0  0  0  0  0  0  0  0  0  0
   19.5580   80.5420   18.4470 H   0  0  0  0  0  0  0  0  0  0  0  0
   23.6790   80.1620   14.2870 H   0  0  0  0  0  0  0  0  0  0  0  0
   21.9380   80.6850   14.4870 H   0  0  0  0  0  0  0  0  0  0  0  0
   21.4550   78.6010   12.8450 H   0  0  0  0  0  0  0  0  0  0  0  0
   23.2600   78.7040   12.5220 H   0  0  0  0  0  0  0  0  0  0  0  0
   22.5990   80.1930    9.0580 H   0  0  0  0  0  0  0  0  0  0  0  0
   20.9260   80.6300    8.6240 H   0  0  0  0  0  0  0  0  0  0  0  0
   21.5060   78.1900    8.0460 H   0  0  0  0  0  0  0  0  0  0  0  0
   21.6190   77.8450    9.7760 H   0  0  0  0  0  0  0  0  0  0  0  0
   18.1390   78.8400   10.3830 H   0  0  0  0  0  0  0  0  0  0  0  0
   18.4780   80.0540    9.1320 H   0  0  0  0  0  0  0  0  0  0  0  0
   19.4540   79.9040   11.8910 H   0  0  0  0  0  0  0  0  0  0  0  0
   19.3960   81.2170   10.7070 H   0  0  0  0  0  0  0  0  0  0  0  0
   18.7060   76.6970    9.5880 H   0  0  0  0  0  0  0  0  0  0  0  0
   20.2190   76.3940    8.7020 H   0  0  0  0  0  0  0  0  0  0  0  0
   17.1450   75.8450    7.8330 H   0  0  0  0  0  0  0  0  0  0  0  0
   18.2870   73.7700    6.6390 H   0  0  0  0  0  0  0  0  0  0  0  0
   18.1260   75.5680    4.3800 H   0  0  0  0  0  0  0  0  0  0  0  0
   17.8930   73.7450    4.3100 H   0  0  0  0  0  0  0  0  0  0  0  0
   15.7470   75.5820    5.7370 H   0  0  0  0  0  0  0  0  0  0  0  0
   15.8190   73.7490    5.6330 H   0  0  0  0  0  0  0  0  0  0  0  0
  2  1  1  0  0  0  0
  3  2  1  0  0  0  0
  3 29  1  0  0  0  0
  4  3  2  0  0  0  0
  5  6  2  0  0  0  0
  5  4  1  0  0  0  0
  6  7  1  0  0  0  0
  7 31  1  0  0  0  0
  7  2  2  0  0  0  0
  8  9  1  0  0  0  0
  8  5  1  0  0  0  0
  9 11  1  0  0  0  0
 10  9  2  0  0  0  0
 11  4  1  0  0  0  0
 12 32  1  0  0  0  0
 12 33  1  0  0  0  0
 12  8  1  0  0  0  0
 13 34  1  0  0  0  0
 13 12  1  0  0  0  0
 14 13  1  0  0  0  0
 15 14  2  0  0  0  0
 16 21  1  0  0  0  0
 16 14  1  0  0  0  0
 17 16  1  0  0  0  0
 18 19  1  0  0  0  0
 18 17  1  0  0  0  0
 18 39  1  0  0  0  0
 19 20  1  0  0  0  0
 20 40  1  0  0  0  0
 20 21  1  0  0  0  0
 21 42  1  0  0  0  0
 22 19  1  0  0  0  0
 22 44  1  0  0  0  0
 23 22  1  0  0  0  0
 24 23  2  0  0  0  0
 25 23  1  0  0  0  0
 25 46  1  0  0  0  0
 26 47  1  0  0  0  0
 26 25  1  0  0  0  0
 27 28  1  0  0  0  0
 27 26  1  0  0  0  0
 28 50  1  0  0  0  0
 28 26  1  0  0  0  0
 30  6  1  0  0  0  0
 35 13  1  0  0  0  0
 36 17  1  0  0  0  0
 37 17  1  0  0  0  0
 38 18  1  0  0  0  0
 41 20  1  0  0  0  0
 43 21  1  0  0  0  0
 45 22  1  0  0  0  0
 48 27  1  0  0  0  0
 49 27  1  0  0  0  0
 51 28  1  0  0  0  0
M  END
>  <Pose>
1

>  <Score>
-7.77

$$$$
