
 OpenBabel03222202113D

 38 40  0  0  1  0  0  0  0  0999 V2000
   19.9280   75.9050   14.8800 Cl  0  0  0  0  0  0  0  0  0  0  0  0
   20.8460   76.9970   13.8670 C   0  0  0  0  0  0  0  0  0  0  0  0
   22.0490   77.5050   14.3120 C   0  0  0  0  0  0  0  0  0  0  0  0
   22.7200   78.3540   13.4600 C   0  0  0  0  0  0  0  0  0  0  0  0
   23.8340   78.8770   13.7690 O   0  0  0  0  0  0  0  0  0  0  0  0
   22.1970   78.6520   12.2610 N   0  0  0  0  0  0  0  0  0  0  0  0
   21.0530   78.1910   11.7960 N   0  0  0  0  0  0  0  0  0  0  0  0
   20.5240   78.5400   10.4890 C   0  0  1  0  0  0  0  0  0  0  0  0
   20.0110   79.9630   10.4360 C   0  0  0  0  0  0  0  0  0  0  0  0
   21.1590   80.9340   10.2160 C   0  0  0  0  0  0  0  0  0  0  0  0
   22.1650   80.8590   11.3410 C   0  0  0  0  0  0  0  0  0  0  0  0
   22.9310   79.5630   11.3690 C   0  0  2  0  0  0  0  0  0  0  0  0
   22.8640   78.9560   10.0130 C   0  0  0  0  0  0  0  0  0  0  0  0
   21.7070   78.4950    9.5510 C   0  0  0  0  0  0  0  0  0  0  0  0
   20.3680   77.3460   12.6220 C   0  0  0  0  0  0  0  0  0  0  0  0
   19.2550   76.8820   12.1990 O   0  0  0  0  0  0  0  0  0  0  0  0
   22.6030   77.1920   15.5860 N   0  0  0  0  0  0  0  0  0  0  0  0
   22.9480   78.1640   16.5870 C   0  0  0  0  0  0  0  0  0  0  0  0
   22.0920   78.0240   17.8340 C   0  0  0  0  0  0  0  0  0  0  0  0
   24.3800   78.1390   17.0060 C   0  0  0  0  0  0  0  0  0  0  0  0
   19.7580   77.8420   10.1510 H   0  0  0  0  0  0  0  0  0  0  0  0
   19.3940   80.2350   11.3010 H   0  0  0  0  0  0  0  0  0  0  0  0
   19.3600   80.0380    9.5380 H   0  0  0  0  0  0  0  0  0  0  0  0
   20.7300   81.9540   10.2400 H   0  0  0  0  0  0  0  0  0  0  0  0
   21.6420   80.6980    9.2540 H   0  0  0  0  0  0  0  0  0  0  0  0
   21.5680   80.9890   12.2910 H   0  0  0  0  0  0  0  0  0  0  0  0
   22.8240   81.7480   11.2910 H   0  0  0  0  0  0  0  0  0  0  0  0
   23.9750   79.6930   11.7170 H   0  0  0  0  0  0  0  0  0  0  0  0
   23.7570   78.8830    9.3900 H   0  0  0  0  0  0  0  0  0  0  0  0
   21.5960   78.0990    8.5490 H   0  0  0  0  0  0  0  0  0  0  0  0
   22.7490   76.1500   15.7520 H   0  0  0  0  0  0  0  0  0  0  0  0
   22.7320   79.1710   16.1800 H   0  0  0  0  0  0  0  0  0  0  0  0
   22.2470   77.0310   18.3120 H   0  0  0  0  0  0  0  0  0  0  0  0
   22.4500   78.7840   18.5510 H   0  0  0  0  0  0  0  0  0  0  0  0
   21.0200   78.2240   17.6310 H   0  0  0  0  0  0  0  0  0  0  0  0
   24.4790   78.8610   17.8520 H   0  0  0  0  0  0  0  0  0  0  0  0
   25.0860   78.4620   16.2020 H   0  0  0  0  0  0  0  0  0  0  0  0
   24.6510   77.1570   17.4180 H   0  0  0  0  0  0  0  0  0  0  0  0
  2  3  2  0  0  0  0
  2  1  1  0  0  0  0
  3 17  1  0  0  0  0
  4  5  2  0  0  0  0
  4  3  1  0  0  0  0
  6  4  1  0  0  0  0
  7  6  1  0  0  0  0
  7 15  1  0  0  0  0
  8 21  1  6  0  0  0
  8  7  1  0  0  0  0
  9  8  1  0  0  0  0
  9 22  1  0  0  0  0
 10 24  1  0  0  0  0
 10  9  1  0  0  0  0
 10 11  1  0  0  0  0
 11 12  1  0  0  0  0
 11 26  1  0  0  0  0
 12 28  1  1  0  0  0
 12  6  1  0  0  0  0
 13 12  1  0  0  0  0
 14 13  2  0  0  0  0
 14  8  1  0  0  0  0
 15  2  1  0  0  0  0
 16 15  2  0  0  0  0
 17 31  1  0  0  0  0
 17 18  1  0  0  0  0
 18 20  1  0  0  0  0
 18 19  1  0  0  0  0
 19 33  1  0  0  0  0
 19 34  1  0  0  0  0
 20 38  1  0  0  0  0
 20 36  1  0  0  0  0
 23  9  1  0  0  0  0
 25 10  1  0  0  0  0
 27 11  1  0  0  0  0
 29 13  1  0  0  0  0
 30 14  1  0  0  0  0
 32 18  1  0  0  0  0
 35 19  1  0  0  0  0
 37 20  1  0  0  0  0
M  END
>  <Pose>
1

>  <Score>
-4.71

$$$$
