
 OpenBabel03222202113D

 36 39  0  0  1  0  0  0  0  0999 V2000
   22.3070   81.1240   10.7390 Cl  0  0  0  0  0  0  0  0  0  0  0  0
   22.2180   80.1670   12.2040 C   0  0  0  0  0  0  0  0  0  0  0  0
   21.6470   78.9150   12.1250 C   0  0  0  0  0  0  0  0  0  0  0  0
   21.6040   78.2090   13.3340 C   0  0  0  0  0  0  0  0  0  0  0  0
   21.0980   77.0700   13.3210 O   0  0  0  0  0  0  0  0  0  0  0  0
   22.0890   78.7360   14.4650 N   0  0  0  0  0  0  0  0  0  0  0  0
   22.6370   79.9400   14.5330 N   0  0  0  0  0  0  0  0  0  0  0  0
   23.1210   80.3580   15.8410 C   0  0  1  0  0  0  0  0  0  0  0  0
   21.9370   80.2710   16.7870 C   0  0  1  0  0  0  0  0  0  0  0  0
   21.2890   78.9580   16.6890 C   0  0  1  0  0  0  0  0  0  0  0  0
   22.0490   78.0200   15.7420 C   0  0  2  0  0  0  0  0  0  0  0  0
   23.4760   78.0320   16.2150 C   0  0  0  0  0  0  0  0  0  0  0  0
   24.0320   79.2310   16.2680 C   0  0  0  0  0  0  0  0  0  0  0  0
   22.0020   79.3900   17.9780 C   0  0  0  0  0  0  0  0  0  0  0  0
   22.7020   80.6540   13.4150 C   0  0  0  0  0  0  0  0  0  0  0  0
   23.2200   81.7990   13.4690 O   0  0  0  0  0  0  0  0  0  0  0  0
   21.1300   78.3390   10.9290 N   0  0  0  0  0  0  0  0  0  0  0  0
   19.7750   78.3750   10.5170 C   0  0  0  0  0  0  0  0  0  0  0  0
   19.1690   79.7540   10.4670 C   0  0  0  0  0  0  0  0  0  0  0  0
   19.5480   77.7550    9.1450 C   0  0  0  0  0  0  0  0  0  0  0  0
   23.6170   81.3220   15.8410 H   0  0  0  0  0  0  0  0  0  0  0  0
   21.3860   81.2170   16.9160 H   0  0  0  0  0  0  0  0  0  0  0  0
   20.1930   78.8190   16.7530 H   0  0  0  0  0  0  0  0  0  0  0  0
   21.6170   77.0330   15.6780 H   0  0  0  0  0  0  0  0  0  0  0  0
   23.9380   77.0970   16.4700 H   0  0  0  0  0  0  0  0  0  0  0  0
   25.0310   79.4740   16.5750 H   0  0  0  0  0  0  0  0  0  0  0  0
   21.3900   79.6380   18.8470 H   0  0  0  0  0  0  0  0  0  0  0  0
   22.9790   78.8490   18.1330 H   0  0  0  0  0  0  0  0  0  0  0  0
   21.8340   77.8600   10.3280 H   0  0  0  0  0  0  0  0  0  0  0  0
   19.1500   77.7840   11.2160 H   0  0  0  0  0  0  0  0  0  0  0  0
   19.0130   80.2050   11.4680 H   0  0  0  0  0  0  0  0  0  0  0  0
   18.1300   79.7030   10.0240 H   0  0  0  0  0  0  0  0  0  0  0  0
   19.7090   80.4680    9.8530 H   0  0  0  0  0  0  0  0  0  0  0  0
   18.4290   77.7710    9.0010 H   0  0  0  0  0  0  0  0  0  0  0  0
   19.8230   76.6860    9.1460 H   0  0  0  0  0  0  0  0  0  0  0  0
   19.9670   78.3430    8.3310 H   0  0  0  0  0  0  0  0  0  0  0  0
  1  2  1  0  0  0  0
  2 15  1  0  0  0  0
  3  2  2  0  0  0  0
  3  4  1  0  0  0  0
  4  6  1  0  0  0  0
  5  4  2  0  0  0  0
  6  7  1  0  0  0  0
  6 11  1  0  0  0  0
  7  8  1  0  0  0  0
  8 21  1  6  0  0  0
  8 13  1  0  0  0  0
  8  9  1  0  0  0  0
  9 22  1  1  0  0  0
  9 14  1  0  0  0  0
 10 23  1  1  0  0  0
 10  9  1  0  0  0  0
 10 14  1  0  0  0  0
 11 24  1  6  0  0  0
 11 12  1  0  0  0  0
 11 10  1  0  0  0  0
 12 13  2  0  0  0  0
 12 25  1  0  0  0  0
 13 26  1  0  0  0  0
 14 28  1  0  0  0  0
 14 27  1  0  0  0  0
 15 16  2  0  0  0  0
 15  7  1  0  0  0  0
 17  3  1  0  0  0  0
 18 17  1  0  0  0  0
 18 30  1  0  0  0  0
 19 18  1  0  0  0  0
 19 31  1  0  0  0  0
 20 35  1  0  0  0  0
 20 18  1  0  0  0  0
 29 17  1  0  0  0  0
 32 19  1  0  0  0  0
 33 19  1  0  0  0  0
 34 20  1  0  0  0  0
 36 20  1  0  0  0  0
M  END
>  <Pose>
1

>  <Score>
-4.85

$$$$
