
 OpenBabel03222202113D

 59 62  0  0  1  0  0  0  0  0999 V2000
   24.7320   77.4570   14.9340 Cl  0  0  0  0  0  0  0  0  0  0  0  0
   23.3800   78.6420   15.1400 C   0  0  2  0  0  0  0  0  0  0  0  0
   23.0270   79.3500   14.0760 C   0  0  2  0  0  0  0  0  0  0  0  0
   21.9480   80.3390   14.3170 C   0  0  0  0  0  0  0  0  0  0  0  0
   21.4480   80.4010   15.4930 N   0  0  0  0  0  0  0  0  0  0  0  0
   21.8290   79.6420   16.5540 N   0  0  0  0  0  0  0  0  0  0  0  0
   22.7850   78.7680   16.3960 C   0  0  0  0  0  0  0  0  0  0  0  0
   23.2090   77.9980   17.3240 O   0  0  0  0  0  0  0  0  0  0  0  0
   20.9580   79.6690   17.7280 C   0  0  0  0  0  0  0  0  0  0  0  0
   20.6520   80.8140   18.3900 C   0  0  0  0  0  0  0  0  0  0  0  0
   19.7340   80.8250   19.4180 C   0  0  0  0  0  0  0  0  0  0  0  0
   19.0880   79.6530   19.8070 C   0  0  0  0  0  0  0  0  0  0  0  0
   19.4280   78.4910   19.1150 C   0  0  0  0  0  0  0  0  0  0  0  0
   20.3250   78.5020   18.1180 C   0  0  0  0  0  0  0  0  0  0  0  0
   23.3020   79.0610   12.7490 N   0  0  0  0  0  0  0  0  0  0  0  0
   23.9100   79.7480   11.6900 C   0  0  0  0  0  0  0  0  0  0  0  0
   22.8490   79.8390   10.5320 C   0  0  0  0  0  0  0  0  0  0  0  0
   21.5510   79.4930   10.8350 N   0  0  0  0  0  0  0  0  0  0  0  0
   21.2980   78.5570   11.8970 C   0  0  0  0  0  0  0  0  0  0  0  0
   22.6150   77.7930   12.2550 C   0  0  0  0  0  0  0  0  0  0  0  0
   20.7700   78.8960    9.7010 C   0  0  0  0  0  0  0  0  0  0  0  0
   19.4400   78.5260   10.1620 C   0  0  0  0  0  0  0  0  0  0  0  0
   18.5750   79.0640   10.6210 O   0  0  0  0  0  0  0  0  0  0  0  0
   19.1850   76.8560    9.9130 N   0  0  0  0  0  0  0  0  0  0  0  0
   19.2890   76.9410    8.4140 C   0  0  0  0  0  0  0  0  0  0  0  0
   20.2430   77.3310    7.7990 O   0  0  0  0  0  0  0  0  0  0  0  0
   18.0690   76.4670    7.8020 N   0  0  0  0  0  0  0  0  0  0  0  0
   17.7900   76.3350    6.4220 C   0  0  0  0  0  0  0  0  0  0  0  0
   17.9340   75.0220    5.7680 C   0  0  0  0  0  0  0  0  0  0  0  0
   16.5720   74.3240    5.8350 C   0  0  0  0  0  0  0  0  0  0  0  0
   15.6330   75.5010    5.7170 C   0  0  0  0  0  0  0  0  0  0  0  0
   16.2910   76.6790    6.2870 C   0  0  0  0  0  0  0  0  0  0  0  0
   21.7470   80.8850   13.4210 H   0  0  0  0  0  0  0  0  0  0  0  0
   21.1590   81.7400   18.1230 H   0  0  0  0  0  0  0  0  0  0  0  0
   19.4600   81.7060   19.9120 H   0  0  0  0  0  0  0  0  0  0  0  0
   18.3740   79.7100   20.5970 H   0  0  0  0  0  0  0  0  0  0  0  0
   18.8860   77.5980   19.4290 H   0  0  0  0  0  0  0  0  0  0  0  0
   20.5600   77.5820   17.6000 H   0  0  0  0  0  0  0  0  0  0  0  0
   24.3690   80.7100   11.8740 H   0  0  0  0  0  0  0  0  0  0  0  0
   24.7540   79.0960   11.3250 H   0  0  0  0  0  0  0  0  0  0  0  0
   23.3150   79.2030    9.7180 H   0  0  0  0  0  0  0  0  0  0  0  0
   22.9990   80.8820   10.1130 H   0  0  0  0  0  0  0  0  0  0  0  0
   21.0290   79.0210   12.8780 H   0  0  0  0  0  0  0  0  0  0  0  0
   20.6420   77.7580   11.5600 H   0  0  0  0  0  0  0  0  0  0  0  0
   22.4880   77.0590   12.9930 H   0  0  0  0  0  0  0  0  0  0  0  0
   23.0590   77.5180   11.2660 H   0  0  0  0  0  0  0  0  0  0  0  0
   20.8030   79.6740    8.9500 H   0  0  0  0  0  0  0  0  0  0  0  0
   21.3200   78.0120    9.3660 H   0  0  0  0  0  0  0  0  0  0  0  0
   19.1310   76.8170   10.6840 H   0  0  0  0  0  0  0  0  0  0  0  0
   17.2870   76.2050    8.4900 H   0  0  0  0  0  0  0  0  0  0  0  0
   18.4390   77.0760    5.8180 H   0  0  0  0  0  0  0  0  0  0  0  0
   18.1190   75.1980    4.6810 H   0  0  0  0  0  0  0  0  0  0  0  0
   18.7350   74.3710    6.1740 H   0  0  0  0  0  0  0  0  0  0  0  0
   16.4330   73.8180    6.8140 H   0  0  0  0  0  0  0  0  0  0  0  0
   16.4390   73.6080    4.9810 H   0  0  0  0  0  0  0  0  0  0  0  0
   14.7410   75.2370    6.3920 H   0  0  0  0  0  0  0  0  0  0  0  0
   15.2380   75.6610    4.6930 H   0  0  0  0  0  0  0  0  0  0  0  0
   16.1170   77.6540    5.7900 H   0  0  0  0  0  0  0  0  0  0  0  0
   15.8940   76.7710    7.3760 H   0  0  0  0  0  0  0  0  0  0  0  0
  2  1  1  1  0  0  0
  2  7  1  0  0  0  0
  3 15  1  6  0  0  0
  3  4  1  0  0  0  0
  3  2  1  0  0  0  0
  4  5  2  0  0  0  0
  5  6  1  0  0  0  0
  6  9  1  0  0  0  0
  7  6  1  0  0  0  0
  7  8  2  0  0  0  0
  9 14  2  0  0  0  0
  9 10  1  0  0  0  0
 10 11  2  0  0  0  0
 11 12  1  0  0  0  0
 11 35  1  0  0  0  0
 12 36  1  0  0  0  0
 13 37  1  0  0  0  0
 13 12  2  0  0  0  0
 14 13  1  0  0  0  0
 16 39  1  0  0  0  0
 16 15  1  0  0  0  0
 17 18  1  0  0  0  0
 17 16  1  0  0  0  0
 18 19  1  0  0  0  0
 19 20  1  0  0  0  0
 19 43  1  0  0  0  0
 20 15  1  0  0  0  0
 20 45  1  0  0  0  0
 21 22  1  0  0  0  0
 21 18  1  0  0  0  0
 22 23  2  0  0  0  0
 24 22  1  0  0  0  0
 24 49  1  0  0  0  0
 25 24  1  0  0  0  0
 26 25  2  0  0  0  0
 27 25  1  0  0  0  0
 27 50  1  0  0  0  0
 28 27  1  0  0  0  0
 29 30  1  0  0  0  0
 29 53  1  0  0  0  0
 29 28  1  0  0  0  0
 30 54  1  0  0  0  0
 31 30  1  0  0  0  0
 31 32  1  0  0  0  0
 31 56  1  0  0  0  0
 32 28  1  0  0  0  0
 32 59  1  0  0  0  0
 33  4  1  0  0  0  0
 34 10  1  0  0  0  0
 38 14  1  0  0  0  0
 40 16  1  0  0  0  0
 41 17  1  0  0  0  0
 42 17  1  0  0  0  0
 44 19  1  0  0  0  0
 46 20  1  0  0  0  0
 47 21  1  0  0  0  0
 48 21  1  0  0  0  0
 51 28  1  0  0  0  0
 52 29  1  0  0  0  0
 55 30  1  0  0  0  0
 57 31  1  0  0  0  0
 58 32  1  0  0  0  0
M  END
>  <Pose>
1

>  <Score>
-7.77

$$$$
