
 OpenBabel03222202113D

 50 54  0  0  0  0  0  0  0  0999 V2000
   22.5490   78.8130   17.0830 S   0  0  0  0  0  0  0  0  0  0  0  0
   22.6990   80.3300   17.1350 O   0  0  0  0  0  0  0  0  0  0  0  0
   23.8060   78.1620   17.5990 O   0  0  0  0  0  0  0  0  0  0  0  0
   22.1930   78.3690   15.5240 N   0  0  0  0  0  0  0  0  0  0  0  0
   23.1590   77.8000   14.6900 C   0  0  0  0  0  0  0  0  0  0  0  0
   22.8430   78.0870   13.2190 C   0  0  0  0  0  0  0  0  0  0  0  0
   22.6170   79.4690   13.0670 N   0  0  0  0  0  0  0  0  0  0  0  0
   21.5780   79.9880   13.8730 C   0  0  0  0  0  0  0  0  0  0  0  0
   21.1020   78.9340   14.8480 C   0  0  0  0  0  0  0  0  0  0  0  0
   22.6910   79.9900   11.7400 C   0  0  0  0  0  0  0  0  0  0  0  0
   21.4800   79.5710   10.9940 C   0  0  0  0  0  0  0  0  0  0  0  0
   20.2490   80.1650   11.1860 C   0  0  0  0  0  0  0  0  0  0  0  0
   19.1020   79.8140   10.5210 C   0  0  0  0  0  0  0  0  0  0  0  0
   18.0210   80.4370   10.7850 O   0  0  0  0  0  0  0  0  0  0  0  0
   19.1410   78.8090    9.5970 N   0  0  0  0  0  0  0  0  0  0  0  0
   18.1520   78.3870    8.9140 N   0  0  0  0  0  0  0  0  0  0  0  0
   18.2590   77.4230    8.0480 C   0  0  0  0  0  0  0  0  0  0  0  0
   19.9420   77.0710    8.2140 S   0  0  0  0  0  0  0  0  0  0  0  0
   20.3320   78.2360    9.4140 C   0  0  0  0  0  0  0  0  0  0  0  0
   21.4600   78.5860   10.0700 N   0  0  0  0  0  0  0  0  0  0  0  0
   17.2770   76.7840    7.1640 C   0  0  0  0  0  0  0  0  0  0  0  0
   16.0590   77.4000    6.9740 C   0  0  0  0  0  0  0  0  0  0  0  0
   15.0880   76.8460    6.1500 C   0  0  0  0  0  0  0  0  0  0  0  0
   15.3390   75.6550    5.5010 C   0  0  0  0  0  0  0  0  0  0  0  0
   16.5550   75.0180    5.6770 C   0  0  0  0  0  0  0  0  0  0  0  0
   17.4860   75.6050    6.5040 C   0  0  0  0  0  0  0  0  0  0  0  0
   14.1360   74.9520    4.4690 Cl  0  0  0  0  0  0  0  0  0  0  0  0
   21.2260   78.4410   18.1650 C   0  0  0  0  0  0  0  0  0  0  0  0
   20.3320   79.3230   18.6940 N   0  0  0  0  0  0  0  0  0  0  0  0
   19.4640   78.6850   19.4800 C   0  0  0  0  0  0  0  0  0  0  0  0
   19.7520   77.3760   19.4950 N   0  0  0  0  0  0  0  0  0  0  0  0
   20.8360   77.2300   18.6850 C   0  0  0  0  0  0  0  0  0  0  0  0
   23.1220   76.6750   14.8490 H   0  0  0  0  0  0  0  0  0  0  0  0
   24.2140   78.1220   14.8450 H   0  0  0  0  0  0  0  0  0  0  0  0
   21.9120   77.5270   12.9920 H   0  0  0  0  0  0  0  0  0  0  0  0
   23.6610   77.7060   12.5680 H   0  0  0  0  0  0  0  0  0  0  0  0
   21.9920   80.8150   14.4960 H   0  0  0  0  0  0  0  0  0  0  0  0
   20.6890   80.3330   13.2860 H   0  0  0  0  0  0  0  0  0  0  0  0
   20.3800   79.3900   15.5900 H   0  0  0  0  0  0  0  0  0  0  0  0
   20.5230   78.1430   14.3230 H   0  0  0  0  0  0  0  0  0  0  0  0
   23.5770   79.5440   11.2450 H   0  0  0  0  0  0  0  0  0  0  0  0
   22.7160   81.0820   11.7830 H   0  0  0  0  0  0  0  0  0  0  0  0
   20.2360   80.9790   11.9400 H   0  0  0  0  0  0  0  0  0  0  0  0
   15.8100   78.3330    7.4550 H   0  0  0  0  0  0  0  0  0  0  0  0
   14.1240   77.3040    5.9810 H   0  0  0  0  0  0  0  0  0  0  0  0
   16.7520   74.0840    5.1690 H   0  0  0  0  0  0  0  0  0  0  0  0
   18.4270   75.1030    6.6320 H   0  0  0  0  0  0  0  0  0  0  0  0
   18.6530   79.1550   20.0200 H   0  0  0  0  0  0  0  0  0  0  0  0
   19.2520   76.6360   20.0150 H   0  0  0  0  0  0  0  0  0  0  0  0
   21.2930   76.2760   18.5080 H   0  0  0  0  0  0  0  0  0  0  0  0
  1  2  2  0  0  0  0
  1  3  2  0  0  0  0
  1 28  1  0  0  0  0
  4  1  1  0  0  0  0
  5 34  1  0  0  0  0
  5 33  1  0  0  0  0
  5  4  1  0  0  0  0
  6  5  1  0  0  0  0
  7  6  1  0  0  0  0
  7  8  1  0  0  0  0
  8 37  1  0  0  0  0
  8  9  1  0  0  0  0
  9  4  1  0  0  0  0
  9 39  1  0  0  0  0
 10 42  1  0  0  0  0
 10  7  1  0  0  0  0
 11 12  2  0  0  0  0
 11 10  1  0  0  0  0
 12 43  1  0  0  0  0
 13 14  2  0  0  0  0
 13 12  1  0  0  0  0
 15 13  1  0  0  0  0
 16 15  1  0  0  0  0
 17 18  1  0  0  0  0
 17 16  2  0  0  0  0
 18 19  1  0  0  0  0
 19 15  1  0  0  0  0
 19 20  2  0  0  0  0
 20 11  1  0  0  0  0
 21 17  1  0  0  0  0
 22 21  1  0  0  0  0
 22 44  1  0  0  0  0
 23 22  2  0  0  0  0
 24 25  2  0  0  0  0
 24 23  1  0  0  0  0
 25 26  1  0  0  0  0
 26 47  1  0  0  0  0
 26 21  2  0  0  0  0
 27 24  1  0  0  0  0
 28 32  2  0  0  0  0
 28 29  1  0  0  0  0
 29 30  2  0  0  0  0
 30 31  1  0  0  0  0
 30 48  1  0  0  0  0
 31 49  1  0  0  0  0
 32 31  1  0  0  0  0
 35  6  1  0  0  0  0
 36  6  1  0  0  0  0
 38  8  1  0  0  0  0
 40  9  1  0  0  0  0
 41 10  1  0  0  0  0
 45 23  1  0  0  0  0
 46 25  1  0  0  0  0
 50 32  1  0  0  0  0
M  END
>  <Pose>
1

>  <Score>
-8.84

$$$$
