
 OpenBabel03222202113D

 55 58  0  0  0  0  0  0  0  0999 V2000
   21.8820   80.1240   10.4070 S   0  0  0  0  0  0  0  0  0  0  0  0
   21.1400   81.4140   10.7020 O   0  0  0  0  0  0  0  0  0  0  0  0
   22.9180   80.3670    9.3680 O   0  0  0  0  0  0  0  0  0  0  0  0
   22.6960   79.6390   11.9130 N   0  0  0  0  0  0  0  0  0  0  0  0
   22.9190   80.8560   12.6370 C   0  0  0  0  0  0  0  0  0  0  0  0
   23.0730   80.6630   14.1570 C   0  0  0  0  0  0  0  0  0  0  0  0
   21.9020   79.9740   14.6000 N   0  0  0  0  0  0  0  0  0  0  0  0
   21.9420   78.6440   14.0580 C   0  0  0  0  0  0  0  0  0  0  0  0
   21.6290   78.8290   12.5990 C   0  0  0  0  0  0  0  0  0  0  0  0
   21.3690   80.2690   15.8420 C   0  0  0  0  0  0  0  0  0  0  0  0
   21.2010   79.1630   16.7880 C   0  0  0  0  0  0  0  0  0  0  0  0
   20.1330   79.2960   17.5340 O   0  0  0  0  0  0  0  0  0  0  0  0
   21.9360   78.0370   17.0230 N   0  0  0  0  0  0  0  0  0  0  0  0
   22.8380   77.4070   16.0550 C   0  0  0  0  0  0  0  0  0  0  0  0
   24.1660   78.0440   16.1520 C   0  0  0  0  0  0  0  0  0  0  0  0
   25.3440   77.3210   15.8510 C   0  0  0  0  0  0  0  0  0  0  0  0
   26.5750   77.8150   16.0560 C   0  0  0  0  0  0  0  0  0  0  0  0
   26.7470   79.1280   16.5970 C   0  0  0  0  0  0  0  0  0  0  0  0
   25.6440   79.8220   16.8950 C   0  0  0  0  0  0  0  0  0  0  0  0
   24.3490   79.3290   16.6950 C   0  0  0  0  0  0  0  0  0  0  0  0
   25.1650   75.6920   15.1530 Cl  0  0  0  0  0  0  0  0  0  0  0  0
   20.7530   78.9420    9.8740 C   0  0  0  0  0  0  0  0  0  0  0  0
   19.5890   79.4540    9.2850 C   0  0  0  0  0  0  0  0  0  0  0  0
   18.6020   78.6510    8.7070 C   0  0  0  0  0  0  0  0  0  0  0  0
   18.7890   77.2720    8.7180 C   0  0  0  0  0  0  0  0  0  0  0  0
   19.9400   76.7820    9.3090 C   0  0  0  0  0  0  0  0  0  0  0  0
   20.9160   77.5910    9.8770 C   0  0  0  0  0  0  0  0  0  0  0  0
   17.7780   76.5400    8.1250 O   0  0  0  0  0  0  0  0  0  0  0  0
   17.1790   77.0860    6.9190 C   0  0  0  0  0  0  0  0  0  0  0  0
   16.9270   78.5550    7.0050 C   0  0  0  0  0  0  0  0  0  0  0  0
   17.4620   79.1940    8.1390 O   0  0  0  0  0  0  0  0  0  0  0  0
   23.9510   81.2210   12.3010 H   0  0  0  0  0  0  0  0  0  0  0  0
   22.2560   81.7110   12.4480 H   0  0  0  0  0  0  0  0  0  0  0  0
   23.9640   80.0620   14.3410 H   0  0  0  0  0  0  0  0  0  0  0  0
   23.1460   81.6030   14.6860 H   0  0  0  0  0  0  0  0  0  0  0  0
   22.9320   78.2090   14.1440 H   0  0  0  0  0  0  0  0  0  0  0  0
   21.0970   78.0330   14.4750 H   0  0  0  0  0  0  0  0  0  0  0  0
   20.7090   79.5010   12.5260 H   0  0  0  0  0  0  0  0  0  0  0  0
   21.5790   77.8870   12.0910 H   0  0  0  0  0  0  0  0  0  0  0  0
   20.2990   80.6820   15.5920 H   0  0  0  0  0  0  0  0  0  0  0  0
   21.8020   81.1710   16.3530 H   0  0  0  0  0  0  0  0  0  0  0  0
   21.9600   77.5120   17.9590 H   0  0  0  0  0  0  0  0  0  0  0  0
   22.9770   76.3590   16.5090 H   0  0  0  0  0  0  0  0  0  0  0  0
   22.4000   77.3880   15.0830 H   0  0  0  0  0  0  0  0  0  0  0  0
   27.4320   77.2450   15.8180 H   0  0  0  0  0  0  0  0  0  0  0  0
   27.7310   79.4990   16.7490 H   0  0  0  0  0  0  0  0  0  0  0  0
   25.7170   80.8270   17.3230 H   0  0  0  0  0  0  0  0  0  0  0  0
   23.5150   79.9220   16.9830 H   0  0  0  0  0  0  0  0  0  0  0  0
   19.4540   80.5540    9.3070 H   0  0  0  0  0  0  0  0  0  0  0  0
   20.0320   75.7280    9.3130 H   0  0  0  0  0  0  0  0  0  0  0  0
   21.7950   77.1540   10.3050 H   0  0  0  0  0  0  0  0  0  0  0  0
   17.9160   76.8150    6.0920 H   0  0  0  0  0  0  0  0  0  0  0  0
   16.2400   76.5650    6.7290 H   0  0  0  0  0  0  0  0  0  0  0  0
   15.8510   78.7600    6.9860 H   0  0  0  0  0  0  0  0  0  0  0  0
   17.3870   79.0020    6.0790 H   0  0  0  0  0  0  0  0  0  0  0  0
  1  2  2  0  0  0  0
  1  4  1  0  0  0  0
  3  1  2  0  0  0  0
  4  9  1  0  0  0  0
  4  5  1  0  0  0  0
  5  6  1  0  0  0  0
  6 34  1  0  0  0  0
  6  7  1  0  0  0  0
  6 35  1  0  0  0  0
  7 10  1  0  0  0  0
  8 36  1  0  0  0  0
  8 37  1  0  0  0  0
  8  7  1  0  0  0  0
  9  8  1  0  0  0  0
 10 41  1  0  0  0  0
 10 11  1  0  0  0  0
 11 13  1  0  0  0  0
 11 12  2  0  0  0  0
 13 42  1  0  0  0  0
 14 15  1  0  0  0  0
 14 43  1  0  0  0  0
 14 13  1  0  0  0  0
 15 20  1  0  0  0  0
 16 17  1  0  0  0  0
 16 15  2  0  0  0  0
 17 18  2  0  0  0  0
 18 46  1  0  0  0  0
 18 19  1  0  0  0  0
 19 47  1  0  0  0  0
 20 19  2  0  0  0  0
 20 48  1  0  0  0  0
 21 16  1  0  0  0  0
 22 27  1  0  0  0  0
 22  1  1  0  0  0  0
 23 49  1  0  0  0  0
 23 22  2  0  0  0  0
 24 25  2  0  0  0  0
 24 23  1  0  0  0  0
 25 26  1  0  0  0  0
 26 50  1  0  0  0  0
 26 27  2  0  0  0  0
 27 51  1  0  0  0  0
 28 25  1  0  0  0  0
 29 30  1  0  0  0  0
 29 28  1  0  0  0  0
 30 31  1  0  0  0  0
 31 24  1  0  0  0  0
 32  5  1  0  0  0  0
 33  5  1  0  0  0  0
 38  9  1  0  0  0  0
 39  9  1  0  0  0  0
 40 10  1  0  0  0  0
 44 14  1  0  0  0  0
 45 17  1  0  0  0  0
 52 29  1  0  0  0  0
 53 29  1  0  0  0  0
 54 30  1  0  0  0  0
 55 30  1  0  0  0  0
M  END
>  <Pose>
1

>  <Score>
-5.56

$$$$
