
 OpenBabel03222202113D

 50 53  0  0  1  0  0  0  0  0999 V2000
   19.4670   78.2450    7.8390 S   0  0  0  0  0  0  0  0  0  0  0  0
   19.5720   79.6540    7.3450 O   0  0  0  0  0  0  0  0  0  0  0  0
   20.7280   77.5390    7.4040 O   0  0  0  0  0  0  0  0  0  0  0  0
   19.3860   78.1990    9.5330 N   0  0  0  0  0  0  0  0  0  0  0  0
   19.6800   79.4120   10.1960 C   0  0  0  0  0  0  0  0  0  0  0  0
   20.1760   79.2600   11.6100 C   0  0  0  0  0  0  0  0  0  0  0  0
   21.1250   78.1940   11.7640 N   0  0  0  0  0  0  0  0  0  0  0  0
   21.2620   77.2760   10.6610 C   0  0  0  0  0  0  0  0  0  0  0  0
   19.8530   77.0030   10.1410 C   0  0  0  0  0  0  0  0  0  0  0  0
   21.8670   78.0760   12.9510 C   0  0  0  0  0  0  0  0  0  0  0  0
   21.4700   77.2280   13.7990 O   0  0  0  0  0  0  0  0  0  0  0  0
   23.0790   78.8810   13.2650 C   0  0  2  0  0  0  0  0  0  0  0  0
   23.6440   78.5190   14.5130 N   0  0  0  0  0  0  0  0  0  0  0  0
   23.1670   79.2240   15.6580 C   0  0  2  0  0  0  0  0  0  0  0  0
   22.7650   80.8500   14.9850 S   0  0  0  0  0  0  0  0  0  0  0  0
   22.8150   80.3570   13.2170 C   0  0  0  0  0  0  0  0  0  0  0  0
   24.4200   79.3860   16.4970 C   0  0  0  0  0  0  0  0  0  0  0  0
   24.9520   77.9490   16.4100 C   0  0  0  0  0  0  0  0  0  0  0  0
   24.6210   77.5880   15.0340 C   0  0  0  0  0  0  0  0  0  0  0  0
   25.1340   76.6010   14.4250 O   0  0  0  0  0  0  0  0  0  0  0  0
   22.0630   78.5910   16.4060 C   0  0  0  0  0  0  0  0  0  0  0  0
   18.1280   77.4040    7.0630 C   0  0  0  0  0  0  0  0  0  0  0  0
   18.2800   76.1100    6.6170 C   0  0  0  0  0  0  0  0  0  0  0  0
   17.2550   75.4250    6.0060 C   0  0  0  0  0  0  0  0  0  0  0  0
   16.0170   76.0100    5.8100 C   0  0  0  0  0  0  0  0  0  0  0  0
   15.8960   77.3110    6.2690 C   0  0  0  0  0  0  0  0  0  0  0  0
   16.9090   78.0060    6.8810 C   0  0  0  0  0  0  0  0  0  0  0  0
   14.6910   75.1680    5.0360 Cl  0  0  0  0  0  0  0  0  0  0  0  0
   18.8140   80.1020   10.1420 H   0  0  0  0  0  0  0  0  0  0  0  0
   20.5080   79.9220    9.6290 H   0  0  0  0  0  0  0  0  0  0  0  0
   19.2810   79.1540   12.2620 H   0  0  0  0  0  0  0  0  0  0  0  0
   20.6380   80.2390   11.9320 H   0  0  0  0  0  0  0  0  0  0  0  0
   21.7700   76.3350   10.9400 H   0  0  0  0  0  0  0  0  0  0  0  0
   21.8280   77.8110    9.8630 H   0  0  0  0  0  0  0  0  0  0  0  0
   19.2070   76.6250   10.9360 H   0  0  0  0  0  0  0  0  0  0  0  0
   19.8920   76.2060    9.3530 H   0  0  0  0  0  0  0  0  0  0  0  0
   23.7960   78.6860   12.4380 H   0  0  0  0  0  0  0  0  0  0  0  0
   23.6180   80.9460   12.7460 H   0  0  0  0  0  0  0  0  0  0  0  0
   21.8640   80.6320   12.7170 H   0  0  0  0  0  0  0  0  0  0  0  0
   25.0800   80.0890   15.9400 H   0  0  0  0  0  0  0  0  0  0  0  0
   24.2140   79.6860   17.5230 H   0  0  0  0  0  0  0  0  0  0  0  0
   26.0560   77.9830   16.5870 H   0  0  0  0  0  0  0  0  0  0  0  0
   24.4080   77.3430   17.1400 H   0  0  0  0  0  0  0  0  0  0  0  0
   22.1290   78.9380   17.4800 H   0  0  0  0  0  0  0  0  0  0  0  0
   21.0470   78.9380   16.0780 H   0  0  0  0  0  0  0  0  0  0  0  0
   22.1330   77.4890   16.4610 H   0  0  0  0  0  0  0  0  0  0  0  0
   19.2550   75.6310    6.7650 H   0  0  0  0  0  0  0  0  0  0  0  0
   17.3900   74.4000    5.6580 H   0  0  0  0  0  0  0  0  0  0  0  0
   14.9070   77.7510    6.1010 H   0  0  0  0  0  0  0  0  0  0  0  0
   16.7380   79.0110    7.2080 H   0  0  0  0  0  0  0  0  0  0  0  0
  1  4  1  0  0  0  0
  2  1  2  0  0  0  0
  3  1  2  0  0  0  0
  4  9  1  0  0  0  0
  4  5  1  0  0  0  0
  5  6  1  0  0  0  0
  6  7  1  0  0  0  0
  6 32  1  0  0  0  0
  6 31  1  0  0  0  0
  7 10  1  0  0  0  0
  8 33  1  0  0  0  0
  8  7  1  0  0  0  0
  9  8  1  0  0  0  0
  9 35  1  0  0  0  0
 10 12  1  0  0  0  0
 10 11  2  0  0  0  0
 12 37  1  6  0  0  0
 12 13  1  0  0  0  0
 13 19  1  0  0  0  0
 13 14  1  0  0  0  0
 14 21  1  1  0  0  0
 14 17  1  0  0  0  0
 15 14  1  0  0  0  0
 16 12  1  0  0  0  0
 16 15  1  0  0  0  0
 17 41  1  0  0  0  0
 18 17  1  0  0  0  0
 18 42  1  0  0  0  0
 18 43  1  0  0  0  0
 19 18  1  0  0  0  0
 20 19  2  0  0  0  0
 21 46  1  0  0  0  0
 21 44  1  0  0  0  0
 22  1  1  0  0  0  0
 23 47  1  0  0  0  0
 23 22  2  0  0  0  0
 24 23  1  0  0  0  0
 25 24  2  0  0  0  0
 25 26  1  0  0  0  0
 26 27  2  0  0  0  0
 27 22  1  0  0  0  0
 27 50  1  0  0  0  0
 28 25  1  0  0  0  0
 29  5  1  0  0  0  0
 30  5  1  0  0  0  0
 34  8  1  0  0  0  0
 36  9  1  0  0  0  0
 38 16  1  0  0  0  0
 39 16  1  0  0  0  0
 40 17  1  0  0  0  0
 45 21  1  0  0  0  0
 48 24  1  0  0  0  0
 49 26  1  0  0  0  0
M  END
>  <Pose>
1

>  <Score>
-6.36

$$$$
