
 OpenBabel03222202113D

 44 47  0  0  1  0  0  0  0  0999 V2000
   14.4340   75.8140    5.4240 B   0  0  0  0  0  0  0  0  0  0  0  0
   16.2690   75.7030    5.9570 C   0  0  0  0  0  0  0  0  0  0  0  0
   16.8770   76.7110    6.6760 C   0  0  0  0  0  0  0  0  0  0  0  0
   18.2030   76.6410    7.0690 C   0  0  0  0  0  0  0  0  0  0  0  0
   18.8930   75.5060    6.7030 C   0  0  0  0  0  0  0  0  0  0  0  0
   18.3210   74.4800    5.9850 C   0  0  0  0  0  0  0  0  0  0  0  0
   16.9930   74.5650    5.6000 C   0  0  0  0  0  0  0  0  0  0  0  0
   19.3350   72.9300    5.5110 B   0  0  0  0  0  0  0  0  0  0  0  0
   18.5920   77.8290    7.8140 C   0  0  0  0  0  0  0  0  0  0  0  0
   19.7150   78.1430    8.3420 N   0  0  0  0  0  0  0  0  0  0  0  0
   19.9190   79.3410    9.0340 N   0  0  0  0  0  0  0  0  0  0  0  0
   19.9870   79.2900   10.4440 C   0  0  0  0  0  0  0  0  0  0  0  0
   18.9560   79.0980   11.1210 O   0  0  0  0  0  0  0  0  0  0  0  0
   21.2740   79.4610   11.1890 C   0  0  0  0  0  0  0  0  0  0  0  0
   21.4870   78.4070   12.1420 N   0  0  0  0  0  0  0  0  0  0  0  0
   22.3020   78.5630   13.2970 C   0  0  0  0  0  0  0  0  0  0  0  0
   22.8620   79.6650   13.4830 O   0  0  0  0  0  0  0  0  0  0  0  0
   22.5260   77.4790   14.3000 C   0  0  2  0  0  0  0  0  0  0  0  0
   21.3240   76.9990   14.8270 O   0  0  0  0  0  0  0  0  0  0  0  0
   20.8870   77.2100   16.1330 C   0  0  0  0  0  0  0  0  0  0  0  0
   21.8320   77.5830   17.0520 C   0  0  0  0  0  0  0  0  0  0  0  0
   21.4220   77.8000   18.3680 C   0  0  0  0  0  0  0  0  0  0  0  0
   20.1140   77.6510   18.7690 C   0  0  0  0  0  0  0  0  0  0  0  0
   19.1900   77.2730   17.8140 C   0  0  0  0  0  0  0  0  0  0  0  0
   19.5880   77.0580   16.5150 C   0  0  0  0  0  0  0  0  0  0  0  0
   23.1340   77.7330   16.6640 O   0  0  0  0  0  0  0  0  0  0  0  0
   23.5370   77.8510   15.3270 C   0  0  0  0  0  0  0  0  0  0  0  0
   17.3930   78.6730    7.8670 C   0  0  0  0  0  0  0  0  0  0  0  0
   17.3490   79.7960    8.4380 O   0  0  0  0  0  0  0  0  0  0  0  0
   16.3940   77.9560    7.1690 N   0  0  0  0  0  0  0  0  0  0  0  0
   19.9270   75.4060    6.9860 H   0  0  0  0  0  0  0  0  0  0  0  0
   16.5290   73.7820    5.0460 H   0  0  0  0  0  0  0  0  0  0  0  0
   20.0080   80.2120    8.4670 H   0  0  0  0  0  0  0  0  0  0  0  0
   22.0740   79.4060   10.4180 H   0  0  0  0  0  0  0  0  0  0  0  0
   21.3400   80.4710   11.6500 H   0  0  0  0  0  0  0  0  0  0  0  0
   21.0420   77.4670   12.0210 H   0  0  0  0  0  0  0  0  0  0  0  0
   22.9490   76.6270   13.6910 H   0  0  0  0  0  0  0  0  0  0  0  0
   22.1870   78.0940   19.0760 H   0  0  0  0  0  0  0  0  0  0  0  0
   19.8400   77.8290   19.7970 H   0  0  0  0  0  0  0  0  0  0  0  0
   18.1420   77.1560   18.1420 H   0  0  0  0  0  0  0  0  0  0  0  0
   18.8440   76.7620   15.7890 H   0  0  0  0  0  0  0  0  0  0  0  0
   24.4810   77.2380   15.1890 H   0  0  0  0  0  0  0  0  0  0  0  0
   23.8480   78.9110   15.1720 H   0  0  0  0  0  0  0  0  0  0  0  0
   15.4260   78.2930    7.0320 H   0  0  0  0  0  0  0  0  0  0  0  0
  1  2  1  0  0  0  0
  2  3  1  0  0  0  0
  3  4  2  0  0  0  0
  3 30  1  0  0  0  0
  4  9  1  0  0  0  0
  5 31  1  0  0  0  0
  5  4  1  0  0  0  0
  6  5  2  0  0  0  0
  7  2  2  0  0  0  0
  7  6  1  0  0  0  0
  8  6  1  0  0  0  0
  9 28  1  0  0  0  0
  9 10  2  0  0  0  0
 10 11  1  0  0  0  0
 11 12  1  0  0  0  0
 12 13  2  0  0  0  0
 12 14  1  0  0  0  0
 14 35  1  0  0  0  0
 14 15  1  0  0  0  0
 15 16  1  0  0  0  0
 16 17  2  0  0  0  0
 16 18  1  0  0  0  0
 18 37  1  6  0  0  0
 18 19  1  0  0  0  0
 18 27  1  0  0  0  0
 19 20  1  0  0  0  0
 20 25  2  0  0  0  0
 20 21  1  0  0  0  0
 21 22  2  0  0  0  0
 22 23  1  0  0  0  0
 22 38  1  0  0  0  0
 23 39  1  0  0  0  0
 24 40  1  0  0  0  0
 24 23  2  0  0  0  0
 25 24  1  0  0  0  0
 26 21  1  0  0  0  0
 27 26  1  0  0  0  0
 28 29  2  0  0  0  0
 30 28  1  0  0  0  0
 32  7  1  0  0  0  0
 33 11  1  0  0  0  0
 34 14  1  0  0  0  0
 36 15  1  0  0  0  0
 41 25  1  0  0  0  0
 42 27  1  0  0  0  0
 43 27  1  0  0  0  0
 44 30  1  0  0  0  0
M  END
>  <Pose>
1

>  <Score>
-6.96

$$$$
