
 OpenBabel03222202113D

 39 42  0  0  0  0  0  0  0  0999 V2000
   23.1040   81.0080   14.0160 Cl  0  0  0  0  0  0  0  0  0  0  0  0
   22.3500   80.2640   15.4180 C   0  0  0  0  0  0  0  0  0  0  0  0
   22.0890   78.9110   15.3600 C   0  0  0  0  0  0  0  0  0  0  0  0
   21.4980   78.3470   16.4700 C   0  0  0  0  0  0  0  0  0  0  0  0
   21.1620   79.0410   17.6030 C   0  0  0  0  0  0  0  0  0  0  0  0
   21.4470   80.4110   17.6130 C   0  0  0  0  0  0  0  0  0  0  0  0
   22.0340   81.0280   16.5400 C   0  0  0  0  0  0  0  0  0  0  0  0
   20.5380   78.4240   18.7650 C   0  0  0  0  0  0  0  0  0  0  0  0
   20.7470   77.2190   19.3030 N   0  0  0  0  0  0  0  0  0  0  0  0
   19.9480   77.0740   20.3720 N   0  0  0  0  0  0  0  0  0  0  0  0
   19.2370   78.1790   20.5090 N   0  0  0  0  0  0  0  0  0  0  0  0
   19.5990   79.0070   19.5270 N   0  0  0  0  0  0  0  0  0  0  0  0
   22.4240   78.1020   14.1740 C   0  0  0  0  0  0  0  0  0  0  0  0
   23.4440   77.3780   14.2450 O   0  0  0  0  0  0  0  0  0  0  0  0
   21.6700   78.1080   12.9990 N   0  0  0  0  0  0  0  0  0  0  0  0
   21.9410   78.6380   11.7260 C   0  0  0  0  0  0  0  0  0  0  0  0
   21.2880   79.8690   11.2610 C   0  0  0  0  0  0  0  0  0  0  0  0
   20.0170   79.7880   10.5480 C   0  0  0  0  0  0  0  0  0  0  0  0
   19.7210   79.0300    9.4870 N   0  0  0  0  0  0  0  0  0  0  0  0
   18.4480   79.2250    9.1790 C   0  0  0  0  0  0  0  0  0  0  0  0
   17.9480   80.1090   10.0520 N   0  0  0  0  0  0  0  0  0  0  0  0
   18.9000   80.4470   10.8790 N   0  0  0  0  0  0  0  0  0  0  0  0
   17.8340   78.5830    8.1240 C   0  0  0  0  0  0  0  0  0  0  0  0
   18.6040   77.7090    7.3780 C   0  0  0  0  0  0  0  0  0  0  0  0
   19.9190   77.5150    7.7040 C   0  0  0  0  0  0  0  0  0  0  0  0
   20.4700   78.1780    8.7600 C   0  0  0  0  0  0  0  0  0  0  0  0
   21.2930   77.2870   16.4270 H   0  0  0  0  0  0  0  0  0  0  0  0
   21.1730   80.9490   18.5220 H   0  0  0  0  0  0  0  0  0  0  0  0
   22.2450   82.0880   16.5690 H   0  0  0  0  0  0  0  0  0  0  0  0
   19.8820   76.2400   21.0000 H   0  0  0  0  0  0  0  0  0  0  0  0
   20.7110   77.6160   13.1030 H   0  0  0  0  0  0  0  0  0  0  0  0
   23.0730   78.7960   11.6290 H   0  0  0  0  0  0  0  0  0  0  0  0
   21.7860   77.8440   10.9260 H   0  0  0  0  0  0  0  0  0  0  0  0
   22.0370   80.4980   10.6700 H   0  0  0  0  0  0  0  0  0  0  0  0
   21.1060   80.5570   12.1530 H   0  0  0  0  0  0  0  0  0  0  0  0
   16.8070   78.7650    7.9060 H   0  0  0  0  0  0  0  0  0  0  0  0
   18.1840   77.1820    6.5490 H   0  0  0  0  0  0  0  0  0  0  0  0
   20.5440   76.8410    7.1430 H   0  0  0  0  0  0  0  0  0  0  0  0
   21.5110   78.0480    9.0460 H   0  0  0  0  0  0  0  0  0  0  0  0
  1  2  1  0  0  0  0
  2  7  1  0  0  0  0
  3  2  2  0  0  0  0
  3  4  1  0  0  0  0
  4  5  2  0  0  0  0
  5  6  1  0  0  0  0
  5  8  1  0  0  0  0
  6 28  1  0  0  0  0
  7 29  1  0  0  0  0
  7  6  2  0  0  0  0
  8  9  2  0  0  0  0
  8 12  1  0  0  0  0
  9 10  1  0  0  0  0
 10 11  1  0  0  0  0
 10 30  1  0  0  0  0
 12 11  2  0  0  0  0
 13 14  2  0  0  0  0
 13  3  1  0  0  0  0
 15 31  1  0  0  0  0
 15 13  1  0  0  0  0
 16 15  1  0  0  0  0
 17 16  1  0  0  0  0
 17 35  1  0  0  0  0
 18 22  2  0  0  0  0
 18 17  1  0  0  0  0
 19 18  1  0  0  0  0
 20 19  1  0  0  0  0
 20 21  2  0  0  0  0
 21 22  1  0  0  0  0
 23 20  1  0  0  0  0
 24 25  1  0  0  0  0
 24 23  2  0  0  0  0
 25 26  2  0  0  0  0
 26 39  1  0  0  0  0
 26 19  1  0  0  0  0
 27  4  1  0  0  0  0
 32 16  1  0  0  0  0
 33 16  1  0  0  0  0
 34 17  1  0  0  0  0
 36 23  1  0  0  0  0
 37 24  1  0  0  0  0
 38 25  1  0  0  0  0
M  END
>  <Pose>
1

>  <Score>
-7.94

$$$$
