
 OpenBabel03222202113D

 67 70  0  0  1  0  0  0  0  0999 V2000
   22.5520   79.9550   14.2030 S   0  0  0  0  0  0  0  0  0  0  0  0
   23.4290   81.1860   14.4230 O   0  0  0  0  0  0  0  0  0  0  0  0
   23.5610   78.8240   14.0500 O   0  0  0  0  0  0  0  0  0  0  0  0
   21.7390   80.1330   12.7640 N   0  0  0  0  0  0  0  0  0  0  0  0
   20.6250   79.3180   12.4780 C   0  0  0  0  0  0  0  0  0  0  0  0
   20.7760   78.5080   11.2090 C   0  0  2  0  0  0  0  0  0  0  0  0
   21.6660   79.1230   10.1980 C   0  0  0  0  0  0  0  0  0  0  0  0
   21.9820   80.5650   10.3640 C   0  0  0  0  0  0  0  0  0  0  0  0
   22.1600   81.0340   11.7850 C   0  0  0  0  0  0  0  0  0  0  0  0
   19.4510   78.2100   10.6100 C   0  0  0  0  0  0  0  0  0  0  0  0
   18.5720   79.1060   10.6470 O   0  0  0  0  0  0  0  0  0  0  0  0
   19.1940   76.9230   10.0040 N   0  0  0  0  0  0  0  0  0  0  0  0
   19.6220   76.7360    8.6650 C   0  0  0  0  0  0  0  0  0  0  0  0
   19.3980   75.4230    8.0160 C   0  0  0  0  0  0  0  0  0  0  0  0
   18.1510   75.1600    7.4000 N   0  0  0  0  0  0  0  0  0  0  0  0
   18.1470   74.6000    6.1280 C   0  0  0  0  0  0  0  0  0  0  0  0
   17.6030   75.4530    5.0190 C   0  0  0  0  0  0  0  0  0  0  0  0
   16.4900   76.1850    5.4060 O   0  0  0  0  0  0  0  0  0  0  0  0
   16.9190   77.0560    6.4070 C   0  0  0  0  0  0  0  0  0  0  0  0
   17.1910   76.2140    7.6320 C   0  0  0  0  0  0  0  0  0  0  0  0
   21.5980   79.6430   15.6050 C   0  0  0  0  0  0  0  0  0  0  0  0
   21.3900   80.6410   16.5440 C   0  0  0  0  0  0  0  0  0  0  0  0
   20.6270   80.4480   17.6700 C   0  0  0  0  0  0  0  0  0  0  0  0
   20.0380   79.1950   17.8800 C   0  0  0  0  0  0  0  0  0  0  0  0
   20.2470   78.2250   16.9560 C   0  0  0  0  0  0  0  0  0  0  0  0
   21.0160   78.4220   15.8200 C   0  0  0  0  0  0  0  0  0  0  0  0
   21.2470   76.9640   14.5780 B   0  0  0  0  0  0  0  0  0  0  0  0
   19.2600   79.1950   19.1490 C   0  0  0  0  0  0  0  0  0  0  0  0
   19.8920   80.3530   19.8940 C   0  0  0  0  0  0  0  0  0  0  0  0
   20.2290   81.2440   18.7780 N   0  0  0  0  0  0  0  0  0  0  0  0
   20.1470   82.6330   18.8560 C   0  0  0  0  0  0  0  0  0  0  0  0
   20.4520   83.3440   17.8380 O   0  0  0  0  0  0  0  0  0  0  0  0
   19.7290   83.3620   20.0520 C   0  0  0  0  0  0  0  0  0  0  0  0
   19.4760   84.8390   19.7620 C   0  0  0  0  0  0  0  0  0  0  0  0
   19.7300   79.9860   12.3130 H   0  0  0  0  0  0  0  0  0  0  0  0
   20.3810   78.6970   13.3560 H   0  0  0  0  0  0  0  0  0  0  0  0
   21.2190   77.5250   11.5510 H   0  0  0  0  0  0  0  0  0  0  0  0
   21.1860   79.0210    9.1770 H   0  0  0  0  0  0  0  0  0  0  0  0
   22.6360   78.5680   10.1600 H   0  0  0  0  0  0  0  0  0  0  0  0
   22.9600   80.7720    9.8510 H   0  0  0  0  0  0  0  0  0  0  0  0
   21.2440   81.1840    9.7910 H   0  0  0  0  0  0  0  0  0  0  0  0
   23.1710   81.4230   12.0060 H   0  0  0  0  0  0  0  0  0  0  0  0
   21.5050   81.9590   11.8700 H   0  0  0  0  0  0  0  0  0  0  0  0
   18.7090   76.2480   10.6000 H   0  0  0  0  0  0  0  0  0  0  0  0
   20.7370   76.9050    8.6620 H   0  0  0  0  0  0  0  0  0  0  0  0
   19.1500   77.5800    8.0650 H   0  0  0  0  0  0  0  0  0  0  0  0
   20.2350   75.2350    7.2530 H   0  0  0  0  0  0  0  0  0  0  0  0
   19.6440   74.6100    8.7830 H   0  0  0  0  0  0  0  0  0  0  0  0
   17.3860   73.7260    6.1760 H   0  0  0  0  0  0  0  0  0  0  0  0
   19.0750   74.0670    5.8770 H   0  0  0  0  0  0  0  0  0  0  0  0
   18.3740   76.1770    4.7080 H   0  0  0  0  0  0  0  0  0  0  0  0
   17.3300   74.8560    4.1270 H   0  0  0  0  0  0  0  0  0  0  0  0
   17.7600   77.6690    6.0810 H   0  0  0  0  0  0  0  0  0  0  0  0
   16.0990   77.7660    6.6950 H   0  0  0  0  0  0  0  0  0  0  0  0
   16.2170   75.6880    7.8630 H   0  0  0  0  0  0  0  0  0  0  0  0
   17.4150   76.8070    8.5310 H   0  0  0  0  0  0  0  0  0  0  0  0
   21.8200   81.6260   16.4320 H   0  0  0  0  0  0  0  0  0  0  0  0
   19.8000   77.2340   17.0910 H   0  0  0  0  0  0  0  0  0  0  0  0
   18.1860   79.3290   19.0070 H   0  0  0  0  0  0  0  0  0  0  0  0
   19.4590   78.2680   19.7150 H   0  0  0  0  0  0  0  0  0  0  0  0
   19.1820   80.8340   20.5950 H   0  0  0  0  0  0  0  0  0  0  0  0
   20.7630   80.0240   20.4620 H   0  0  0  0  0  0  0  0  0  0  0  0
   18.7320   82.9060   20.3530 H   0  0  0  0  0  0  0  0  0  0  0  0
   20.4020   83.2960   20.9090 H   0  0  0  0  0  0  0  0  0  0  0  0
   18.5610   85.1600   20.2820 H   0  0  0  0  0  0  0  0  0  0  0  0
   19.4010   84.9590   18.6590 H   0  0  0  0  0  0  0  0  0  0  0  0
   20.3580   85.4130   20.1100 H   0  0  0  0  0  0  0  0  0  0  0  0
  1  2  2  0  0  0  0
  1 21  1  0  0  0  0
  3  1  2  0  0  0  0
  4  1  1  0  0  0  0
  5  4  1  0  0  0  0
  5 36  1  0  0  0  0
  6 37  1  1  0  0  0
  6  5  1  0  0  0  0
  7  8  1  0  0  0  0
  7  6  1  0  0  0  0
  8  9  1  0  0  0  0
  9 43  1  0  0  0  0
  9 42  1  0  0  0  0
  9  4  1  0  0  0  0
 10 11  2  0  0  0  0
 10  6  1  0  0  0  0
 12 44  1  0  0  0  0
 12 10  1  0  0  0  0
 13 12  1  0  0  0  0
 14 13  1  0  0  0  0
 14 48  1  0  0  0  0
 15 20  1  0  0  0  0
 15 14  1  0  0  0  0
 16 49  1  0  0  0  0
 16 15  1  0  0  0  0
 17 18  1  0  0  0  0
 17 16  1  0  0  0  0
 18 19  1  0  0  0  0
 19 54  1  0  0  0  0
 19 20  1  0  0  0  0
 20 55  1  0  0  0  0
 20 56  1  0  0  0  0
 21 26  2  0  0  0  0
 21 22  1  0  0  0  0
 22 23  2  0  0  0  0
 23 24  1  0  0  0  0
 23 30  1  0  0  0  0
 24 28  1  0  0  0  0
 25 58  1  0  0  0  0
 25 24  2  0  0  0  0
 26 25  1  0  0  0  0
 27 26  1  0  0  0  0
 28 60  1  0  0  0  0
 28 29  1  0  0  0  0
 29 62  1  0  0  0  0
 29 61  1  0  0  0  0
 30 31  1  0  0  0  0
 30 29  1  0  0  0  0
 31 33  1  0  0  0  0
 32 31  2  0  0  0  0
 33 63  1  0  0  0  0
 33 64  1  0  0  0  0
 34 33  1  0  0  0  0
 34 67  1  0  0  0  0
 34 65  1  0  0  0  0
 35  5  1  0  0  0  0
 38  7  1  0  0  0  0
 39  7  1  0  0  0  0
 40  8  1  0  0  0  0
 41  8  1  0  0  0  0
 45 13  1  0  0  0  0
 46 13  1  0  0  0  0
 47 14  1  0  0  0  0
 50 16  1  0  0  0  0
 51 17  1  0  0  0  0
 52 17  1  0  0  0  0
 53 19  1  0  0  0  0
 57 22  1  0  0  0  0
 59 28  1  0  0  0  0
 66 34  1  0  0  0  0
M  END
>  <Pose>
1

>  <Score>
-7.98

$$$$
