
 OpenBabel03222202113D

 49 52  0  0  1  0  0  0  0  0999 V2000
   17.9780   75.7990    6.7650 Cl  0  0  0  0  0  0  0  0  0  0  0  0
   18.6790   76.8280    8.0140 C   0  0  0  0  0  0  0  0  0  0  0  0
   19.5050   76.3030    8.9730 C   0  0  0  0  0  0  0  0  0  0  0  0
   20.0480   77.1210    9.9460 C   0  0  0  0  0  0  0  0  0  0  0  0
   19.7940   78.4750    9.9990 C   0  0  0  0  0  0  0  0  0  0  0  0
   18.9620   78.9890    9.0280 C   0  0  0  0  0  0  0  0  0  0  0  0
   18.4060   78.1670    8.0370 C   0  0  0  0  0  0  0  0  0  0  0  0
   20.3580   79.3160   11.0010 N   0  0  0  0  0  0  0  0  0  0  0  0
   20.3590   79.1220   12.4460 C   0  0  0  0  0  0  0  0  0  0  0  0
   21.5570   79.8610   12.9730 C   0  0  2  0  0  0  0  0  0  0  0  0
   21.9890   80.8140   11.9090 C   0  0  0  0  0  0  0  0  0  0  0  0
   21.0590   80.5600   10.7840 C   0  0  0  0  0  0  0  0  0  0  0  0
   20.8360   81.2590    9.7420 O   0  0  0  0  0  0  0  0  0  0  0  0
   22.6130   79.0110   13.5350 C   0  0  0  0  0  0  0  0  0  0  0  0
   23.5950   78.7160   12.7570 O   0  0  0  0  0  0  0  0  0  0  0  0
   22.6710   78.4820   14.8290 N   0  0  0  0  0  0  0  0  0  0  0  0
   21.9400   77.2680   15.1570 C   0  0  0  0  0  0  0  0  0  0  0  0
   20.9840   77.5170   16.3200 C   0  0  0  0  0  0  0  0  0  0  0  0
   21.5820   78.4560   17.2220 N   0  0  0  0  0  0  0  0  0  0  0  0
   23.0090   78.5500   17.2720 C   0  0  0  0  0  0  0  0  0  0  0  0
   23.4380   79.0860   15.8920 C   0  0  0  0  0  0  0  0  0  0  0  0
   20.7850   79.2820   18.0430 C   0  0  0  0  0  0  0  0  0  0  0  0
   20.0920   78.9020   19.1520 N   0  0  0  0  0  0  0  0  0  0  0  0
   19.4640   79.9700   19.6600 C   0  0  0  0  0  0  0  0  0  0  0  0
   19.7520   81.0560   18.8680 C   0  0  0  0  0  0  0  0  0  0  0  0
   20.5440   80.6010   17.9120 N   0  0  0  0  0  0  0  0  0  0  0  0
   20.0420   77.5390   19.6980 C   0  0  0  0  0  0  0  0  0  0  0  0
   19.7060   75.2370    8.9330 H   0  0  0  0  0  0  0  0  0  0  0  0
   20.6930   76.6490   10.6780 H   0  0  0  0  0  0  0  0  0  0  0  0
   18.7350   80.0250    9.0260 H   0  0  0  0  0  0  0  0  0  0  0  0
   17.7540   78.5820    7.2790 H   0  0  0  0  0  0  0  0  0  0  0  0
   20.3460   78.0570   12.6690 H   0  0  0  0  0  0  0  0  0  0  0  0
   19.3900   79.5620   12.8110 H   0  0  0  0  0  0  0  0  0  0  0  0
   21.1440   80.5170   13.8030 H   0  0  0  0  0  0  0  0  0  0  0  0
   21.8180   81.9010   12.1780 H   0  0  0  0  0  0  0  0  0  0  0  0
   23.0520   80.7350   11.6480 H   0  0  0  0  0  0  0  0  0  0  0  0
   22.6950   76.5150   15.4860 H   0  0  0  0  0  0  0  0  0  0  0  0
   21.4200   76.8350   14.2920 H   0  0  0  0  0  0  0  0  0  0  0  0
   20.8880   76.5540   16.8770 H   0  0  0  0  0  0  0  0  0  0  0  0
   20.0100   77.8580   15.9090 H   0  0  0  0  0  0  0  0  0  0  0  0
   23.3700   79.3000   18.0110 H   0  0  0  0  0  0  0  0  0  0  0  0
   23.4540   77.5480   17.4320 H   0  0  0  0  0  0  0  0  0  0  0  0
   24.5290   78.9040   15.8130 H   0  0  0  0  0  0  0  0  0  0  0  0
   23.1640   80.1510   15.9370 H   0  0  0  0  0  0  0  0  0  0  0  0
   18.8350   79.9790   20.5420 H   0  0  0  0  0  0  0  0  0  0  0  0
   19.4090   82.0900   18.9840 H   0  0  0  0  0  0  0  0  0  0  0  0
   18.9850   77.1760   19.6560 H   0  0  0  0  0  0  0  0  0  0  0  0
   20.6690   76.8860   19.0740 H   0  0  0  0  0  0  0  0  0  0  0  0
   20.3300   77.5570   20.7510 H   0  0  0  0  0  0  0  0  0  0  0  0
  1  2  1  0  0  0  0
  2  7  2  0  0  0  0
  2  3  1  0  0  0  0
  3  4  2  0  0  0  0
  4  5  1  0  0  0  0
  4 29  1  0  0  0  0
  5  8  1  0  0  0  0
  6  5  2  0  0  0  0
  7  6  1  0  0  0  0
  8  9  1  0  0  0  0
  9 32  1  0  0  0  0
  9 33  1  0  0  0  0
  9 10  1  0  0  0  0
 10 14  1  0  0  0  0
 10 34  1  1  0  0  0
 11 35  1  0  0  0  0
 11 10  1  0  0  0  0
 12  8  1  0  0  0  0
 12 11  1  0  0  0  0
 13 12  2  0  0  0  0
 14 16  1  0  0  0  0
 15 14  2  0  0  0  0
 16 17  1  0  0  0  0
 16 21  1  0  0  0  0
 17 37  1  0  0  0  0
 17 18  1  0  0  0  0
 18 39  1  0  0  0  0
 18 19  1  0  0  0  0
 19 20  1  0  0  0  0
 19 22  1  0  0  0  0
 20 42  1  0  0  0  0
 20 41  1  0  0  0  0
 21 44  1  0  0  0  0
 21 20  1  0  0  0  0
 22 23  1  0  0  0  0
 23 24  1  0  0  0  0
 23 27  1  0  0  0  0
 24 45  1  0  0  0  0
 25 46  1  0  0  0  0
 25 24  2  0  0  0  0
 26 22  2  0  0  0  0
 26 25  1  0  0  0  0
 27 49  1  0  0  0  0
 28  3  1  0  0  0  0
 30  6  1  0  0  0  0
 31  7  1  0  0  0  0
 36 11  1  0  0  0  0
 38 17  1  0  0  0  0
 40 18  1  0  0  0  0
 43 21  1  0  0  0  0
 47 27  1  0  0  0  0
 48 27  1  0  0  0  0
M  END
>  <Pose>
1

>  <Score>
-5.70

$$$$
