
 OpenBabel03222202113D

 51 54  0  0  1  0  0  0  0  0999 V2000
   17.8670   74.3360    6.9740 Cl  0  0  0  0  0  0  0  0  0  0  0  0
   18.7250   75.6580    7.7770 C   0  0  0  0  0  0  0  0  0  0  0  0
   18.6770   76.9360    7.2790 C   0  0  0  0  0  0  0  0  0  0  0  0
   19.3530   77.9550    7.9180 C   0  0  0  0  0  0  0  0  0  0  0  0
   20.0850   77.7360    9.0570 C   0  0  0  0  0  0  0  0  0  0  0  0
   20.1330   76.4630    9.5520 C   0  0  0  0  0  0  0  0  0  0  0  0
   19.4530   75.4150    8.9170 C   0  0  0  0  0  0  0  0  0  0  0  0
   20.7730   78.8060    9.6900 N   0  0  0  0  0  0  0  0  0  0  0  0
   22.0520   79.2050    9.2200 C   0  0  0  0  0  0  0  0  0  0  0  0
   22.5330   78.5620    8.2230 O   0  0  0  0  0  0  0  0  0  0  0  0
   22.7450   80.2560    9.8300 N   0  0  0  0  0  0  0  0  0  0  0  0
   22.1870   80.9470   10.9300 C   0  0  0  0  0  0  0  0  0  0  0  0
   22.6320   82.0590   11.2730 O   0  0  0  0  0  0  0  0  0  0  0  0
   21.0660   80.3460   11.6860 C   0  0  1  0  0  0  0  0  0  0  0  0
   20.2260   79.5090   10.7960 C   0  0  0  0  0  0  0  0  0  0  0  0
   19.0080   79.4260   11.0290 O   0  0  0  0  0  0  0  0  0  0  0  0
   21.5890   79.4660   12.7880 C   0  0  0  0  0  0  0  0  0  0  0  0
   22.2490   79.8290   13.8700 C   0  0  0  0  0  0  0  0  0  0  0  0
   22.5740   78.6360   14.6910 C   0  0  2  0  0  0  0  0  0  0  0  0
   22.4390   77.5590   13.7500 N   0  0  0  0  0  0  0  0  0  0  0  0
   21.4720   78.0490   12.8590 N   0  0  0  0  0  0  0  0  0  0  0  0
   21.6520   78.5800   15.8200 C   0  0  0  0  0  0  0  0  0  0  0  0
   20.6850   77.5980   15.8300 C   0  0  0  0  0  0  0  0  0  0  0  0
   19.7690   77.4600   16.8530 C   0  0  0  0  0  0  0  0  0  0  0  0
   19.8400   78.3670   17.9190 C   0  0  0  0  0  0  0  0  0  0  0  0
   20.7880   79.3660   17.9530 C   0  0  0  0  0  0  0  0  0  0  0  0
   21.6720   79.4420   16.8940 C   0  0  0  0  0  0  0  0  0  0  0  0
   20.8140   80.2230   19.0120 O   0  0  0  0  0  0  0  0  0  0  0  0
   19.8660   81.2050   19.3150 C   0  0  0  0  0  0  0  0  0  0  0  0
   18.9490   78.2700   18.9630 O   0  0  0  0  0  0  0  0  0  0  0  0
   18.7910   76.4730   16.8730 O   0  0  0  0  0  0  0  0  0  0  0  0
   19.1350   75.2470   17.4850 C   0  0  0  0  0  0  0  0  0  0  0  0
   18.1010   77.1070    6.3850 H   0  0  0  0  0  0  0  0  0  0  0  0
   19.2980   78.9520    7.5060 H   0  0  0  0  0  0  0  0  0  0  0  0
   20.7030   76.2710   10.4440 H   0  0  0  0  0  0  0  0  0  0  0  0
   19.4960   74.4160    9.3130 H   0  0  0  0  0  0  0  0  0  0  0  0
   23.6960   80.5130    9.4370 H   0  0  0  0  0  0  0  0  0  0  0  0
   20.4910   81.1730   12.1490 H   0  0  0  0  0  0  0  0  0  0  0  0
   22.5000   80.8730   14.0920 H   0  0  0  0  0  0  0  0  0  0  0  0
   23.6310   78.7380   15.0320 H   0  0  0  0  0  0  0  0  0  0  0  0
   22.2140   76.6510   14.1550 H   0  0  0  0  0  0  0  0  0  0  0  0
   20.7900   77.4580   12.3440 H   0  0  0  0  0  0  0  0  0  0  0  0
   20.6000   76.8780   15.0210 H   0  0  0  0  0  0  0  0  0  0  0  0
   22.4250   80.2080   16.8840 H   0  0  0  0  0  0  0  0  0  0  0  0
   19.5180   81.7660   18.4190 H   0  0  0  0  0  0  0  0  0  0  0  0
   20.1870   81.9410   20.0470 H   0  0  0  0  0  0  0  0  0  0  0  0
   18.9610   80.6980   19.7180 H   0  0  0  0  0  0  0  0  0  0  0  0
   18.8230   77.3860   19.4370 H   0  0  0  0  0  0  0  0  0  0  0  0
   18.3500   74.4900   17.3240 H   0  0  0  0  0  0  0  0  0  0  0  0
   19.4040   75.3600   18.5450 H   0  0  0  0  0  0  0  0  0  0  0  0
   20.0470   74.8550   16.9640 H   0  0  0  0  0  0  0  0  0  0  0  0
  1  2  1  0  0  0  0
  2  7  1  0  0  0  0
  3  2  2  0  0  0  0
  3  4  1  0  0  0  0
  4  5  2  0  0  0  0
  5  6  1  0  0  0  0
  5  8  1  0  0  0  0
  6 35  1  0  0  0  0
  7 36  1  0  0  0  0
  7  6  2  0  0  0  0
  8 15  1  0  0  0  0
  9  8  1  0  0  0  0
  9 11  1  0  0  0  0
 10  9  2  0  0  0  0
 11 12  1  0  0  0  0
 12 13  2  0  0  0  0
 12 14  1  0  0  0  0
 14 38  1  1  0  0  0
 14 17  1  0  0  0  0
 15 16  2  0  0  0  0
 15 14  1  0  0  0  0
 17 21  1  0  0  0  0
 17 18  2  0  0  0  0
 18 39  1  0  0  0  0
 18 19  1  0  0  0  0
 19 40  1  1  0  0  0
 19 22  1  0  0  0  0
 20 41  1  0  0  0  0
 20 19  1  0  0  0  0
 21 20  1  0  0  0  0
 22 23  2  0  0  0  0
 22 27  1  0  0  0  0
 23 24  1  0  0  0  0
 24 31  1  0  0  0  0
 24 25  2  0  0  0  0
 25 26  1  0  0  0  0
 25 30  1  0  0  0  0
 26 28  1  0  0  0  0
 27 26  2  0  0  0  0
 28 29  1  0  0  0  0
 29 47  1  0  0  0  0
 29 46  1  0  0  0  0
 30 48  1  0  0  0  0
 31 32  1  0  0  0  0
 32 50  1  0  0  0  0
 33  3  1  0  0  0  0
 34  4  1  0  0  0  0
 37 11  1  0  0  0  0
 42 21  1  0  0  0  0
 43 23  1  0  0  0  0
 44 27  1  0  0  0  0
 45 29  1  0  0  0  0
 49 32  1  0  0  0  0
 51 32  1  0  0  0  0
M  END
>  <Pose>
1

>  <Score>
-6.72

$$$$
