
 OpenBabel03222202113D

 43 46  0  0  1  0  0  0  0  0999 V2000
   17.5480   76.6660    7.0000 Cl  0  0  0  0  0  0  0  0  0  0  0  0
   18.5670   77.5260    8.1160 C   0  0  0  0  0  0  0  0  0  0  0  0
   19.8510   77.0460    8.3360 C   0  0  0  0  0  0  0  0  0  0  0  0
   20.6800   77.7140    9.2180 C   0  0  0  0  0  0  0  0  0  0  0  0
   20.2920   78.8500    9.9010 C   0  0  0  0  0  0  0  0  0  0  0  0
   19.0110   79.3130    9.6690 C   0  0  0  0  0  0  0  0  0  0  0  0
   18.1540   78.6710    8.7940 C   0  0  0  0  0  0  0  0  0  0  0  0
   21.1850   79.5270   10.8150 N   0  0  0  0  0  0  0  0  0  0  0  0
   21.7730   80.7560   10.3610 C   0  0  0  0  0  0  0  0  0  0  0  0
   21.5190   81.2260    9.2090 O   0  0  0  0  0  0  0  0  0  0  0  0
   22.6500   81.4150   11.2620 N   0  0  0  0  0  0  0  0  0  0  0  0
   22.9220   80.8570   12.5680 C   0  0  0  0  0  0  0  0  0  0  0  0
   23.2970   81.6470   13.4430 O   0  0  0  0  0  0  0  0  0  0  0  0
   22.7460   79.4340   12.7840 C   0  0  2  0  0  0  0  0  0  0  0  0
   21.4810   79.0190   12.1060 C   0  0  0  0  0  0  0  0  0  0  0  0
   20.6420   78.2330   12.6130 O   0  0  0  0  0  0  0  0  0  0  0  0
   22.8530   78.9360   14.1360 C   0  0  0  0  0  0  0  0  0  0  0  0
   22.5780   79.5410   15.2690 C   0  0  0  0  0  0  0  0  0  0  0  0
   22.8320   78.6530   16.4300 C   0  0  2  0  0  0  0  0  0  0  0  0
   23.0340   77.3650   15.8070 N   0  0  0  0  0  0  0  0  0  0  0  0
   23.3180   77.6100   14.4660 N   0  0  0  0  0  0  0  0  0  0  0  0
   21.6810   78.5400   17.3330 C   0  0  0  0  0  0  0  0  0  0  0  0
   21.7200   77.5700   18.3230 C   0  0  0  0  0  0  0  0  0  0  0  0
   20.6580   77.4380   19.1870 C   0  0  0  0  0  0  0  0  0  0  0  0
   19.5490   78.2470   19.0970 C   0  0  0  0  0  0  0  0  0  0  0  0
   19.4950   79.2130   18.1200 C   0  0  0  0  0  0  0  0  0  0  0  0
   20.5740   79.3430   17.2450 C   0  0  0  0  0  0  0  0  0  0  0  0
   20.6860   76.4630   20.1930 O   0  0  0  0  0  0  0  0  0  0  0  0
   20.1910   76.1430    7.8090 H   0  0  0  0  0  0  0  0  0  0  0  0
   21.6700   77.3440    9.3890 H   0  0  0  0  0  0  0  0  0  0  0  0
   18.6530   80.1880   10.1670 H   0  0  0  0  0  0  0  0  0  0  0  0
   17.1440   79.0070    8.5880 H   0  0  0  0  0  0  0  0  0  0  0  0
   23.0840   82.3030   10.9540 H   0  0  0  0  0  0  0  0  0  0  0  0
   23.5900   78.9290   12.1900 H   0  0  0  0  0  0  0  0  0  0  0  0
   22.2120   80.5560   15.4380 H   0  0  0  0  0  0  0  0  0  0  0  0
   23.7500   78.9930   16.9740 H   0  0  0  0  0  0  0  0  0  0  0  0
   22.2300   76.7160   15.9470 H   0  0  0  0  0  0  0  0  0  0  0  0
   23.7930   76.9130   13.8540 H   0  0  0  0  0  0  0  0  0  0  0  0
   22.5930   76.9270   18.4040 H   0  0  0  0  0  0  0  0  0  0  0  0
   18.7070   78.1420   19.7830 H   0  0  0  0  0  0  0  0  0  0  0  0
   18.6460   79.8860   17.9940 H   0  0  0  0  0  0  0  0  0  0  0  0
   20.5440   80.1000   16.4730 H   0  0  0  0  0  0  0  0  0  0  0  0
   19.8270   76.2030   20.6460 H   0  0  0  0  0  0  0  0  0  0  0  0
  1  2  1  0  0  0  0
  2  3  2  0  0  0  0
  2  7  1  0  0  0  0
  3  4  1  0  0  0  0
  4 30  1  0  0  0  0
  4  5  2  0  0  0  0
  5  8  1  0  0  0  0
  6  5  1  0  0  0  0
  6 31  1  0  0  0  0
  7  6  2  0  0  0  0
  8 15  1  0  0  0  0
  9  8  1  0  0  0  0
  9 11  1  0  0  0  0
 10  9  2  0  0  0  0
 11 12  1  0  0  0  0
 12 14  1  0  0  0  0
 12 13  2  0  0  0  0
 14 34  1  6  0  0  0
 14 17  1  0  0  0  0
 15 16  2  0  0  0  0
 15 14  1  0  0  0  0
 17 21  1  0  0  0  0
 17 18  2  0  0  0  0
 18 35  1  0  0  0  0
 18 19  1  0  0  0  0
 19 36  1  1  0  0  0
 19 22  1  0  0  0  0
 20 37  1  0  0  0  0
 20 19  1  0  0  0  0
 21 20  1  0  0  0  0
 22 23  1  0  0  0  0
 23 39  1  0  0  0  0
 23 24  2  0  0  0  0
 24 28  1  0  0  0  0
 25 24  1  0  0  0  0
 25 40  1  0  0  0  0
 26 25  2  0  0  0  0
 27 22  2  0  0  0  0
 27 26  1  0  0  0  0
 28 43  1  0  0  0  0
 29  3  1  0  0  0  0
 32  7  1  0  0  0  0
 33 11  1  0  0  0  0
 38 21  1  0  0  0  0
 41 26  1  0  0  0  0
 42 27  1  0  0  0  0
M  END
>  <Pose>
1

>  <Score>
-7.31

$$$$
