
 OpenBabel03222202113D

 41 44  0  0  1  0  0  0  0  0999 V2000
   18.0390   74.6260    6.7460 Cl  0  0  0  0  0  0  0  0  0  0  0  0
   18.8040   75.7770    7.8270 C   0  0  0  0  0  0  0  0  0  0  0  0
   19.1360   75.4330    9.1210 C   0  0  0  0  0  0  0  0  0  0  0  0
   19.7400   76.3480    9.9740 C   0  0  0  0  0  0  0  0  0  0  0  0
   20.0310   77.6310    9.5610 C   0  0  0  0  0  0  0  0  0  0  0  0
   19.6980   77.9710    8.2690 C   0  0  0  0  0  0  0  0  0  0  0  0
   19.0970   77.0610    7.4190 C   0  0  0  0  0  0  0  0  0  0  0  0
   20.6610   78.5950   10.4380 N   0  0  0  0  0  0  0  0  0  0  0  0
   19.9300   79.6950   10.9480 C   0  0  0  0  0  0  0  0  0  0  0  0
   18.7190   79.8430   10.6480 O   0  0  0  0  0  0  0  0  0  0  0  0
   20.5970   80.6320   11.8110 N   0  0  0  0  0  0  0  0  0  0  0  0
   21.9660   80.4670   12.1520 C   0  0  0  0  0  0  0  0  0  0  0  0
   22.6110   81.4420   12.6110 O   0  0  0  0  0  0  0  0  0  0  0  0
   22.6050   79.1550   11.9600 C   0  0  2  0  0  0  0  0  0  0  0  0
   22.0250   78.4610   10.7970 C   0  0  0  0  0  0  0  0  0  0  0  0
   22.7650   77.7060   10.0770 O   0  0  0  0  0  0  0  0  0  0  0  0
   22.4630   78.3060   13.1900 C   0  0  0  0  0  0  0  0  0  0  0  0
   21.3880   77.7240   13.6560 C   0  0  0  0  0  0  0  0  0  0  0  0
   21.7270   76.9980   14.8900 C   0  0  1  0  0  0  0  0  0  0  0  0
   23.1610   76.9370   14.8750 N   0  0  0  0  0  0  0  0  0  0  0  0
   23.5490   78.0060   14.0520 N   0  0  0  0  0  0  0  0  0  0  0  0
   21.2620   77.8330   16.0280 C   0  0  0  0  0  0  0  0  0  0  0  0
   20.1780   77.4410   16.7760 C   0  0  0  0  0  0  0  0  0  0  0  0
   19.7460   78.2020   17.8190 N   0  0  0  0  0  0  0  0  0  0  0  0
   20.3420   79.3540   18.1680 C   0  0  0  0  0  0  0  0  0  0  0  0
   21.4310   79.7760   17.4390 C   0  0  0  0  0  0  0  0  0  0  0  0
   21.8890   79.0040   16.3620 C   0  0  0  0  0  0  0  0  0  0  0  0
   18.9170   74.4340    9.4610 H   0  0  0  0  0  0  0  0  0  0  0  0
   20.0080   76.0940   10.9870 H   0  0  0  0  0  0  0  0  0  0  0  0
   19.9220   78.9880    7.9270 H   0  0  0  0  0  0  0  0  0  0  0  0
   18.8270   77.3220    6.3930 H   0  0  0  0  0  0  0  0  0  0  0  0
   20.0970   81.4560   12.2090 H   0  0  0  0  0  0  0  0  0  0  0  0
   23.7040   79.2380   11.7980 H   0  0  0  0  0  0  0  0  0  0  0  0
   20.4160   77.7830   13.1840 H   0  0  0  0  0  0  0  0  0  0  0  0
   21.2640   75.9830   14.9270 H   0  0  0  0  0  0  0  0  0  0  0  0
   23.5150   76.0410   14.5270 H   0  0  0  0  0  0  0  0  0  0  0  0
   24.4930   78.4500   14.1210 H   0  0  0  0  0  0  0  0  0  0  0  0
   19.6750   76.5060   16.5120 H   0  0  0  0  0  0  0  0  0  0  0  0
   19.9780   79.9540   19.0150 H   0  0  0  0  0  0  0  0  0  0  0  0
   21.9180   80.6990   17.7110 H   0  0  0  0  0  0  0  0  0  0  0  0
   22.7290   79.3380   15.8060 H   0  0  0  0  0  0  0  0  0  0  0  0
  1  2  1  0  0  0  0
  2  3  1  0  0  0  0
  3 28  1  0  0  0  0
  3  4  2  0  0  0  0
  4 29  1  0  0  0  0
  5  4  1  0  0  0  0
  5  8  1  0  0  0  0
  6  5  2  0  0  0  0
  7  2  2  0  0  0  0
  7  6  1  0  0  0  0
  8 15  1  0  0  0  0
  8  9  1  0  0  0  0
  9 11  1  0  0  0  0
 10  9  2  0  0  0  0
 11 12  1  0  0  0  0
 11 32  1  0  0  0  0
 12 13  2  0  0  0  0
 14 33  1  6  0  0  0
 14 12  1  0  0  0  0
 14 17  1  0  0  0  0
 15 14  1  0  0  0  0
 16 15  2  0  0  0  0
 17 18  2  0  0  0  0
 17 21  1  0  0  0  0
 18 19  1  0  0  0  0
 19 35  1  1  0  0  0
 19 22  1  0  0  0  0
 20 19  1  0  0  0  0
 21 37  1  0  0  0  0
 21 20  1  0  0  0  0
 22 27  2  0  0  0  0
 22 23  1  0  0  0  0
 23 24  2  0  0  0  0
 24 25  1  0  0  0  0
 25 39  1  0  0  0  0
 26 40  1  0  0  0  0
 26 25  2  0  0  0  0
 27 26  1  0  0  0  0
 30  6  1  0  0  0  0
 31  7  1  0  0  0  0
 34 18  1  0  0  0  0
 36 20  1  0  0  0  0
 38 23  1  0  0  0  0
 41 27  1  0  0  0  0
M  END
>  <Pose>
1

>  <Score>
-7.58

$$$$
