
 OpenBabel03222202113D

 53 56  0  0  1  0  0  0  0  0999 V2000
   19.6710   78.4330   20.1410 Cl  0  0  0  0  0  0  0  0  0  0  0  0
   20.2720   78.5720   18.4850 C   0  0  0  0  0  0  0  0  0  0  0  0
   20.3200   77.4470   17.6930 C   0  0  0  0  0  0  0  0  0  0  0  0
   20.7920   77.5500   16.3880 C   0  0  0  0  0  0  0  0  0  0  0  0
   21.2090   78.7530   15.8830 C   0  0  0  0  0  0  0  0  0  0  0  0
   21.1500   79.8610   16.6990 C   0  0  0  0  0  0  0  0  0  0  0  0
   20.6860   79.7950   18.0010 C   0  0  0  0  0  0  0  0  0  0  0  0
   21.7100   78.8770   14.5080 N   0  0  0  0  0  0  0  0  0  0  0  0
   20.7880   78.9230   13.4290 C   0  0  2  0  0  0  0  0  0  0  0  0
   21.3980   78.9310   12.1080 C   0  0  0  0  0  0  0  0  0  0  0  0
   22.7460   78.9890   11.9180 C   0  0  0  0  0  0  0  0  0  0  0  0
   23.2660   79.0160   10.6100 C   0  0  0  0  0  0  0  0  0  0  0  0
   22.4700   78.9860    9.4930 C   0  0  0  0  0  0  0  0  0  0  0  0
   21.1030   78.9260    9.7050 C   0  0  0  0  0  0  0  0  0  0  0  0
   20.5950   78.9000   10.9630 C   0  0  0  0  0  0  0  0  0  0  0  0
   23.6720   78.9990   13.0160 N   0  0  0  0  0  0  0  0  0  0  0  0
   23.0970   78.9430   14.3070 C   0  0  0  0  0  0  0  0  0  0  0  0
   23.8510   78.9500   15.3340 O   0  0  0  0  0  0  0  0  0  0  0  0
   20.1210   80.1890   13.5880 O   0  0  0  0  0  0  0  0  0  0  0  0
   19.7180   77.9010   13.5560 C   0  0  0  0  0  0  0  0  0  0  0  0
   18.5520   78.2480   13.7580 O   0  0  0  0  0  0  0  0  0  0  0  0
   20.0810   76.5470   13.4360 N   0  0  0  0  0  0  0  0  0  0  0  0
   19.6700   75.5330   14.4080 C   0  0  0  0  0  0  0  0  0  0  0  0
   20.0050   74.1580   13.9740 C   0  0  0  0  0  0  0  0  0  0  0  0
   19.0000   73.4200   13.3110 N   0  0  0  0  0  0  0  0  0  0  0  0
   18.3830   73.9790   12.1790 C   0  0  0  0  0  0  0  0  0  0  0  0
   17.5490   72.8930   11.4930 C   0  0  0  0  0  0  0  0  0  0  0  0
   17.0050   72.0190   12.4510 O   0  0  0  0  0  0  0  0  0  0  0  0
   17.9880   71.2090   13.0130 C   0  0  0  0  0  0  0  0  0  0  0  0
   19.2430   72.0250   13.1680 C   0  0  0  0  0  0  0  0  0  0  0  0
   19.9880   76.5160   18.1110 H   0  0  0  0  0  0  0  0  0  0  0  0
   20.8190   76.6630   15.7920 H   0  0  0  0  0  0  0  0  0  0  0  0
   21.4710   80.8150   16.3250 H   0  0  0  0  0  0  0  0  0  0  0  0
   20.6300   80.6420   18.6560 H   0  0  0  0  0  0  0  0  0  0  0  0
   24.3350   79.0620   10.5080 H   0  0  0  0  0  0  0  0  0  0  0  0
   22.8470   79.0060    8.4860 H   0  0  0  0  0  0  0  0  0  0  0  0
   20.4430   78.9000    8.8190 H   0  0  0  0  0  0  0  0  0  0  0  0
   19.5360   78.8540   11.1150 H   0  0  0  0  0  0  0  0  0  0  0  0
   24.6900   79.0470   12.8340 H   0  0  0  0  0  0  0  0  0  0  0  0
   20.6450   80.8980   13.1320 H   0  0  0  0  0  0  0  0  0  0  0  0
   20.6730   76.1860   12.6370 H   0  0  0  0  0  0  0  0  0  0  0  0
   20.0820   75.8440   15.3710 H   0  0  0  0  0  0  0  0  0  0  0  0
   18.5660   75.6200   14.4800 H   0  0  0  0  0  0  0  0  0  0  0  0
   20.3000   73.5790   14.8930 H   0  0  0  0  0  0  0  0  0  0  0  0
   20.9150   74.1670   13.3410 H   0  0  0  0  0  0  0  0  0  0  0  0
   17.7910   74.8950   12.3540 H   0  0  0  0  0  0  0  0  0  0  0  0
   19.1670   74.2630   11.4420 H   0  0  0  0  0  0  0  0  0  0  0  0
   16.7490   73.3110   10.8770 H   0  0  0  0  0  0  0  0  0  0  0  0
   18.1820   72.2520   10.8360 H   0  0  0  0  0  0  0  0  0  0  0  0
   18.1780   70.2910   12.4230 H   0  0  0  0  0  0  0  0  0  0  0  0
   17.6590   70.8820   14.0130 H   0  0  0  0  0  0  0  0  0  0  0  0
   19.8900   71.6500   13.9880 H   0  0  0  0  0  0  0  0  0  0  0  0
   19.8300   71.8750   12.2180 H   0  0  0  0  0  0  0  0  0  0  0  0
  2  1  1  0  0  0  0
  3 31  1  0  0  0  0
  3  2  2  0  0  0  0
  4  3  1  0  0  0  0
  5  4  2  0  0  0  0
  5  6  1  0  0  0  0
  6  7  2  0  0  0  0
  7  2  1  0  0  0  0
  7 34  1  0  0  0  0
  8  5  1  0  0  0  0
  9 20  1  1  0  0  0
  9 19  1  0  0  0  0
  9  8  1  0  0  0  0
 10  9  1  0  0  0  0
 11 10  1  0  0  0  0
 11 16  1  0  0  0  0
 12 11  2  0  0  0  0
 13 14  2  0  0  0  0
 13 12  1  0  0  0  0
 14 15  1  0  0  0  0
 15 38  1  0  0  0  0
 15 10  2  0  0  0  0
 16 17  1  0  0  0  0
 17  8  1  0  0  0  0
 17 18  2  0  0  0  0
 20 21  2  0  0  0  0
 22 20  1  0  0  0  0
 22 23  1  0  0  0  0
 23 43  1  0  0  0  0
 23 42  1  0  0  0  0
 24 23  1  0  0  0  0
 24 44  1  0  0  0  0
 25 24  1  0  0  0  0
 26 46  1  0  0  0  0
 26 25  1  0  0  0  0
 27 26  1  0  0  0  0
 27 28  1  0  0  0  0
 28 29  1  0  0  0  0
 29 30  1  0  0  0  0
 29 51  1  0  0  0  0
 30 25  1  0  0  0  0
 30 52  1  0  0  0  0
 32  4  1  0  0  0  0
 33  6  1  0  0  0  0
 35 12  1  0  0  0  0
 36 13  1  0  0  0  0
 37 14  1  0  0  0  0
 39 16  1  0  0  0  0
 40 19  1  0  0  0  0
 41 22  1  0  0  0  0
 45 24  1  0  0  0  0
 47 26  1  0  0  0  0
 48 27  1  0  0  0  0
 49 27  1  0  0  0  0
 50 29  1  0  0  0  0
 53 30  1  0  0  0  0
M  END
>  <Pose>
1

>  <Score>
-5.87

$$$$
