
 OpenBabel03222202113D

 55 59  0  0  1  0  0  0  0  0999 V2000
   18.1470   74.9220    6.2140 B   0  0  0  0  0  0  0  0  0  0  0  0
   18.9700   75.7300    7.7310 C   0  0  0  0  0  0  0  0  0  0  0  0
   18.9490   77.0500    8.1360 C   0  0  0  0  0  0  0  0  0  0  0  0
   19.6730   77.1870    9.2770 N   0  0  0  0  0  0  0  0  0  0  0  0
   20.1330   76.0040    9.5820 N   0  0  0  0  0  0  0  0  0  0  0  0
   19.7460   75.0740    8.6900 C   0  0  0  0  0  0  0  0  0  0  0  0
   19.9140   78.3900   10.0380 C   0  0  0  0  0  0  0  0  0  0  0  0
   20.6090   79.4600    9.2280 C   0  0  2  0  0  0  0  0  0  0  0  0
   21.3410   78.8850    8.0630 C   0  0  0  0  0  0  0  0  0  0  0  0
   21.4980   80.2530   10.1260 C   0  0  0  0  0  0  0  0  0  0  0  0
   22.6510   80.5090    9.6950 O   0  0  0  0  0  0  0  0  0  0  0  0
   21.0790   80.6980   11.4020 N   0  0  0  0  0  0  0  0  0  0  0  0
   21.1770   79.9620   12.5620 N   0  0  0  0  0  0  0  0  0  0  0  0
   22.0100   80.3660   13.6160 C   0  0  0  0  0  0  0  0  0  0  0  0
   22.3630   81.5830   13.6710 O   0  0  0  0  0  0  0  0  0  0  0  0
   22.5120   79.4630   14.6790 C   0  0  1  0  0  0  0  0  0  0  0  0
   21.5850   79.4810   15.8770 C   0  0  0  0  0  0  0  0  0  0  0  0
   22.0960   78.5760   16.9620 C   0  0  1  0  0  0  0  0  0  0  0  0
   22.0910   77.1530   16.3990 C   0  0  0  0  0  0  0  0  0  0  0  0
   22.9830   77.0870   15.2010 C   0  0  1  0  0  0  0  0  0  0  0  0
   22.5140   78.0500   14.1350 C   0  0  0  0  0  0  0  0  0  0  0  0
   24.3930   77.4420   15.6130 C   0  0  0  0  0  0  0  0  0  0  0  0
   24.3750   78.8510   16.1590 C   0  0  2  0  0  0  0  0  0  0  0  0
   23.4960   78.8970   17.3830 C   0  0  0  0  0  0  0  0  0  0  0  0
   23.9210   79.8180   15.0990 C   0  0  0  0  0  0  0  0  0  0  0  0
   21.1560   78.6510   18.0630 N   0  0  2  0  0  0  0  0  0  0  0  0
   20.4120   79.6620   18.4780 N   0  0  0  0  0  0  0  0  0  0  0  0
   19.6870   79.3420   19.5080 N   0  0  0  0  0  0  0  0  0  0  0  0
   19.9410   78.0800   19.8080 C   0  0  0  0  0  0  0  0  0  0  0  0
   20.8610   77.6440   18.9030 N   0  0  0  0  0  0  0  0  0  0  0  0
   18.4430   77.8480    7.6330 H   0  0  0  0  0  0  0  0  0  0  0  0
   19.9560   74.0150    8.6580 H   0  0  0  0  0  0  0  0  0  0  0  0
   20.5740   78.1360   10.8840 H   0  0  0  0  0  0  0  0  0  0  0  0
   18.9790   78.8160   10.4610 H   0  0  0  0  0  0  0  0  0  0  0  0
   19.8430   80.1670    8.8430 H   0  0  0  0  0  0  0  0  0  0  0  0
   20.6080   78.2310    7.5130 H   0  0  0  0  0  0  0  0  0  0  0  0
   21.5960   79.6860    7.3320 H   0  0  0  0  0  0  0  0  0  0  0  0
   22.1880   78.2450    8.3330 H   0  0  0  0  0  0  0  0  0  0  0  0
   20.6630   81.6700   11.4530 H   0  0  0  0  0  0  0  0  0  0  0  0
   20.6160   79.0820   12.6620 H   0  0  0  0  0  0  0  0  0  0  0  0
   21.4360   80.5290   16.2430 H   0  0  0  0  0  0  0  0  0  0  0  0
   20.6190   79.0310   15.5280 H   0  0  0  0  0  0  0  0  0  0  0  0
   22.4000   76.4220   17.1510 H   0  0  0  0  0  0  0  0  0  0  0  0
   21.0430   76.9920   16.0450 H   0  0  0  0  0  0  0  0  0  0  0  0
   22.9540   76.0740   14.7670 H   0  0  0  0  0  0  0  0  0  0  0  0
   23.1590   77.9420   13.2380 H   0  0  0  0  0  0  0  0  0  0  0  0
   21.4590   77.7910   13.8920 H   0  0  0  0  0  0  0  0  0  0  0  0
   24.6740   76.7400   16.4380 H   0  0  0  0  0  0  0  0  0  0  0  0
   25.0470   77.3410   14.7420 H   0  0  0  0  0  0  0  0  0  0  0  0
   25.4430   79.1000   16.4220 H   0  0  0  0  0  0  0  0  0  0  0  0
   23.5730   79.8830   17.8710 H   0  0  0  0  0  0  0  0  0  0  0  0
   23.8230   78.0840   18.0660 H   0  0  0  0  0  0  0  0  0  0  0  0
   24.5580   79.7250   14.2160 H   0  0  0  0  0  0  0  0  0  0  0  0
   23.9150   80.8300   15.5440 H   0  0  0  0  0  0  0  0  0  0  0  0
   19.4950   77.5230   20.6160 H   0  0  0  0  0  0  0  0  0  0  0  0
  1  2  1  0  0  0  0
  2  3  2  0  0  0  0
  2  6  1  0  0  0  0
  3  4  1  0  0  0  0
  4  5  1  0  0  0  0
  4  7  1  0  0  0  0
  6  5  2  0  0  0  0
  7 34  1  0  0  0  0
  7 33  1  0  0  0  0
  8 35  1  6  0  0  0
  8  7  1  0  0  0  0
  8 10  1  0  0  0  0
  9 38  1  0  0  0  0
  9  8  1  0  0  0  0
 10 12  1  0  0  0  0
 11 10  2  0  0  0  0
 12 39  1  0  0  0  0
 12 13  1  0  0  0  0
 13 40  1  0  0  0  0
 13 14  1  0  0  0  0
 14 15  2  0  0  0  0
 16 14  1  6  0  0  0
 16 25  1  0  0  0  0
 16 17  1  0  0  0  0
 17 41  1  0  0  0  0
 18 17  1  6  0  0  0
 18 24  1  0  0  0  0
 18 26  1  0  0  0  0
 19 18  1  0  0  0  0
 19 43  1  0  0  0  0
 20 45  1  6  0  0  0
 20 22  1  0  0  0  0
 20 19  1  0  0  0  0
 21 16  1  0  0  0  0
 21 20  1  0  0  0  0
 22 23  1  0  0  0  0
 22 48  1  0  0  0  0
 23 50  1  1  0  0  0
 23 24  1  0  0  0  0
 24 51  1  0  0  0  0
 24 52  1  0  0  0  0
 25 54  1  0  0  0  0
 25 23  1  0  0  0  0
 26 27  1  1  0  0  0
 26 30  1  0  0  0  0
 27 28  1  0  0  0  0
 28 29  2  0  0  0  0
 29 55  1  0  0  0  0
 30 29  1  0  0  0  0
 31  3  1  0  0  0  0
 32  6  1  0  0  0  0
 36  9  1  0  0  0  0
 37  9  1  0  0  0  0
 42 17  1  0  0  0  0
 44 19  1  0  0  0  0
 46 21  1  0  0  0  0
 47 21  1  0  0  0  0
 49 22  1  0  0  0  0
 53 25  1  0  0  0  0
M  END
>  <Pose>
1

>  <Score>
-6.76

$$$$
