
 OpenBabel03222202113D

 52 55  0  0  1  0  0  0  0  0999 V2000
   19.9360   78.4600    8.4940 Cl  0  0  0  0  0  0  0  0  0  0  0  0
   20.7540   79.0810    9.9050 C   0  0  0  0  0  0  0  0  0  0  0  0
   21.3930   80.2950    9.9470 C   0  0  0  0  0  0  0  0  0  0  0  0
   22.0220   80.7370   11.0840 C   0  0  0  0  0  0  0  0  0  0  0  0
   22.0410   79.9680   12.2540 C   0  0  0  0  0  0  0  0  0  0  0  0
   21.4060   78.7620   12.2130 C   0  0  0  0  0  0  0  0  0  0  0  0
   20.7780   78.3270   11.0670 C   0  0  0  0  0  0  0  0  0  0  0  0
   22.7170   80.4940   13.4200 C   0  0  0  0  0  0  0  0  0  0  0  0
   22.9620   81.7450   13.4790 O   0  0  0  0  0  0  0  0  0  0  0  0
   23.1500   79.6670   14.5670 C   0  0  0  0  0  0  0  0  0  0  0  0
   22.1280   79.7690   15.6140 N   0  0  0  0  0  0  0  0  0  0  0  0
   21.2080   78.9130   16.0210 C   0  0  2  0  0  0  0  0  0  0  0  0
   20.4720   79.4360   17.0380 N   0  0  0  0  0  0  0  0  0  0  0  0
   20.9340   80.6420   17.2870 C   0  0  0  0  0  0  0  0  0  0  0  0
   21.9890   80.8530   16.3750 C   0  0  0  0  0  0  0  0  0  0  0  0
   20.5010   81.6500   18.2590 C   0  0  0  0  0  0  0  0  0  0  0  0
   20.4780   82.9940   18.0630 C   0  0  0  0  0  0  0  0  0  0  0  0
   20.1200   83.9060   19.0550 C   0  0  0  0  0  0  0  0  0  0  0  0
   19.7650   83.4690   20.3020 C   0  0  0  0  0  0  0  0  0  0  0  0
   19.7750   82.1150   20.5310 C   0  0  0  0  0  0  0  0  0  0  0  0
   20.1330   81.2270   19.5410 C   0  0  0  0  0  0  0  0  0  0  0  0
   19.4000   84.3660   21.3200 O   0  0  0  0  0  0  0  0  0  0  0  0
   18.0690   84.5590   21.7200 C   0  0  0  0  0  0  0  0  0  0  0  0
   19.3660   78.7590   17.6540 C   0  0  0  0  0  0  0  0  0  0  0  0
   19.8670   77.6470   18.5730 C   0  0  0  0  0  0  0  0  0  0  0  0
   21.1030   77.0840   17.8640 C   0  0  0  0  0  0  0  0  0  0  0  0
   20.6670   76.5510   16.5270 C   0  0  0  0  0  0  0  0  0  0  0  0
   21.0530   77.5500   15.4250 C   0  0  0  0  0  0  0  0  0  0  0  0
   21.3990   80.9170    9.0600 H   0  0  0  0  0  0  0  0  0  0  0  0
   22.5220   81.7140   11.0770 H   0  0  0  0  0  0  0  0  0  0  0  0
   21.3810   78.1220   13.0720 H   0  0  0  0  0  0  0  0  0  0  0  0
   20.2810   77.3550   11.0780 H   0  0  0  0  0  0  0  0  0  0  0  0
   23.1610   78.6060   14.1840 H   0  0  0  0  0  0  0  0  0  0  0  0
   24.1410   79.9250   14.9390 H   0  0  0  0  0  0  0  0  0  0  0  0
   22.5810   81.7700   16.3300 H   0  0  0  0  0  0  0  0  0  0  0  0
   20.7000   83.4000   17.1130 H   0  0  0  0  0  0  0  0  0  0  0  0
   20.1170   84.9750   18.8560 H   0  0  0  0  0  0  0  0  0  0  0  0
   19.4940   81.7750   21.5160 H   0  0  0  0  0  0  0  0  0  0  0  0
   20.1420   80.1640   19.7330 H   0  0  0  0  0  0  0  0  0  0  0  0
   17.7570   83.7070   22.3640 H   0  0  0  0  0  0  0  0  0  0  0  0
   17.9290   85.5430   22.2290 H   0  0  0  0  0  0  0  0  0  0  0  0
   17.3500   84.5780   20.8490 H   0  0  0  0  0  0  0  0  0  0  0  0
   18.5450   79.3430   18.0070 H   0  0  0  0  0  0  0  0  0  0  0  0
   18.8780   78.1400   16.7970 H   0  0  0  0  0  0  0  0  0  0  0  0
   20.1120   78.0620   19.5550 H   0  0  0  0  0  0  0  0  0  0  0  0
   19.1620   76.8220   18.6700 H   0  0  0  0  0  0  0  0  0  0  0  0
   21.8240   77.9300   17.7000 H   0  0  0  0  0  0  0  0  0  0  0  0
   21.6390   76.3540   18.4860 H   0  0  0  0  0  0  0  0  0  0  0  0
   21.2150   75.5940   16.3720 H   0  0  0  0  0  0  0  0  0  0  0  0
   19.5960   76.2790   16.4820 H   0  0  0  0  0  0  0  0  0  0  0  0
   20.2100   77.6420   14.6920 H   0  0  0  0  0  0  0  0  0  0  0  0
   21.9420   77.2210   14.8640 H   0  0  0  0  0  0  0  0  0  0  0  0
  1  2  1  0  0  0  0
  2  3  2  0  0  0  0
  2  7  1  0  0  0  0
  3  4  1  0  0  0  0
  4  5  2  0  0  0  0
  5  8  1  0  0  0  0
  6  5  1  0  0  0  0
  6 31  1  0  0  0  0
  7 32  1  0  0  0  0
  7  6  2  0  0  0  0
  8  9  2  0  0  0  0
  8 10  1  0  0  0  0
 10 34  1  0  0  0  0
 10 11  1  0  0  0  0
 11 12  1  0  0  0  0
 11 15  1  0  0  0  0
 12 28  1  1  0  0  0
 12 13  1  0  0  0  0
 13 14  1  0  0  0  0
 13 24  1  0  0  0  0
 14 16  1  0  0  0  0
 15 14  2  0  0  0  0
 16 21  1  0  0  0  0
 17 16  2  0  0  0  0
 17 18  1  0  0  0  0
 18 19  2  0  0  0  0
 19 20  1  0  0  0  0
 19 22  1  0  0  0  0
 20 38  1  0  0  0  0
 21 39  1  0  0  0  0
 21 20  2  0  0  0  0
 22 23  1  0  0  0  0
 23 41  1  0  0  0  0
 23 40  1  0  0  0  0
 24 43  1  0  0  0  0
 24 25  1  0  0  0  0
 25 46  1  0  0  0  0
 25 45  1  0  0  0  0
 26 48  1  0  0  0  0
 26 25  1  0  0  0  0
 27 26  1  0  0  0  0
 28 27  1  0  0  0  0
 29  3  1  0  0  0  0
 30  4  1  0  0  0  0
 33 10  1  0  0  0  0
 35 15  1  0  0  0  0
 36 17  1  0  0  0  0
 37 18  1  0  0  0  0
 42 23  1  0  0  0  0
 44 24  1  0  0  0  0
 47 26  1  0  0  0  0
 49 27  1  0  0  0  0
 50 27  1  0  0  0  0
 51 28  1  0  0  0  0
 52 28  1  0  0  0  0
M  END
>  <Pose>
1

>  <Score>
-6.69

$$$$
