
 OpenBabel03222202113D

 58 61  0  0  1  0  0  0  0  0999 V2000
   17.5020   75.7480    5.7810 Cl  0  0  0  0  0  0  0  0  0  0  0  0
   18.3780   76.4600    7.1570 C   0  0  0  0  0  0  0  0  0  0  0  0
   19.0530   75.6570    8.0470 C   0  0  0  0  0  0  0  0  0  0  0  0
   19.7260   76.2320    9.1350 C   0  0  0  0  0  0  0  0  0  0  0  0
   19.7380   77.6020    9.3460 C   0  0  0  0  0  0  0  0  0  0  0  0
   19.0670   78.3720    8.4520 C   0  0  0  0  0  0  0  0  0  0  0  0
   18.3890   77.8280    7.3680 C   0  0  0  0  0  0  0  0  0  0  0  0
   20.4590   78.0730   10.5510 C   0  0  1  0  0  0  0  0  0  0  0  0
   21.9110   77.8420   10.5130 C   0  0  0  0  0  0  0  0  0  0  0  0
   22.7970   78.8750   11.1620 C   0  0  0  0  0  0  0  0  0  0  0  0
   22.1230   79.8960   11.8960 N   0  0  0  0  0  0  0  0  0  0  0  0
   20.9720   80.4860   11.1840 C   0  0  0  0  0  0  0  0  0  0  0  0
   20.0080   79.4990   10.7430 C   0  0  0  0  0  0  0  0  0  0  0  0
   22.5980   80.5580   13.0530 C   0  0  0  0  0  0  0  0  0  0  0  0
   22.8110   81.7680   13.0510 O   0  0  0  0  0  0  0  0  0  0  0  0
   22.8480   79.7730   14.3330 C   0  0  1  0  0  0  0  0  0  0  0  0
   22.5180   78.3840   14.1190 N   0  0  0  0  0  0  0  0  0  0  0  0
   21.4440   77.7150   14.7030 C   0  0  0  0  0  0  0  0  0  0  0  0
   20.5960   77.2600   13.7130 O   0  0  0  0  0  0  0  0  0  0  0  0
   20.9820   77.3460   15.9580 C   0  0  0  0  0  0  0  0  0  0  0  0
   20.4910   77.6750   17.1150 C   0  0  0  0  0  0  0  0  0  0  0  0
   20.1850   76.6170   18.0880 N   0  0  0  0  0  0  0  0  0  0  0  0
   19.7480   76.8730   19.3730 N   0  0  0  0  0  0  0  0  0  0  0  0
   19.5650   78.1630   19.8460 C   0  0  0  0  0  0  0  0  0  0  0  0
   19.1640   78.4420   21.0050 O   0  0  0  0  0  0  0  0  0  0  0  0
   19.8490   79.2980   18.9360 C   0  0  0  0  0  0  0  0  0  0  0  0
   20.2840   78.9990   17.6670 C   0  0  0  0  0  0  0  0  0  0  0  0
   20.6350   80.1010   16.8800 C   0  0  0  0  0  0  0  0  0  0  0  0
   20.5310   81.3970   17.3660 C   0  0  0  0  0  0  0  0  0  0  0  0
   20.0820   81.6470   18.6360 C   0  0  0  0  0  0  0  0  0  0  0  0
   19.7390   80.5750   19.4320 C   0  0  0  0  0  0  0  0  0  0  0  0
   23.9260   80.1880   15.1830 C   0  0  0  0  0  0  0  0  0  0  0  0
   19.9470   77.3180   11.6490 O   0  0  0  0  0  0  0  0  0  0  0  0
   19.0560   74.5800    7.8880 H   0  0  0  0  0  0  0  0  0  0  0  0
   20.2520   75.5610    9.7970 H   0  0  0  0  0  0  0  0  0  0  0  0
   19.0310   79.4520    8.5330 H   0  0  0  0  0  0  0  0  0  0  0  0
   17.8520   78.4250    6.6590 H   0  0  0  0  0  0  0  0  0  0  0  0
   22.3290   77.6570    9.4870 H   0  0  0  0  0  0  0  0  0  0  0  0
   22.1190   76.8710   11.0690 H   0  0  0  0  0  0  0  0  0  0  0  0
   23.3030   79.4570   10.3000 H   0  0  0  0  0  0  0  0  0  0  0  0
   23.6780   78.4560   11.6850 H   0  0  0  0  0  0  0  0  0  0  0  0
   21.5010   80.8980   10.2260 H   0  0  0  0  0  0  0  0  0  0  0  0
   20.5490   81.3460   11.6880 H   0  0  0  0  0  0  0  0  0  0  0  0
   19.1140   79.5030   11.3970 H   0  0  0  0  0  0  0  0  0  0  0  0
   19.5720   79.8910    9.7510 H   0  0  0  0  0  0  0  0  0  0  0  0
   21.8600   80.1080   14.9350 H   0  0  0  0  0  0  0  0  0  0  0  0
   23.2560   77.9160   13.4930 H   0  0  0  0  0  0  0  0  0  0  0  0
   21.0690   76.1370   16.0220 H   0  0  0  0  0  0  0  0  0  0  0  0
   20.3220   75.6290   17.7430 H   0  0  0  0  0  0  0  0  0  0  0  0
   19.5460   76.0620   20.0200 H   0  0  0  0  0  0  0  0  0  0  0  0
   21.0250   79.9320   15.9330 H   0  0  0  0  0  0  0  0  0  0  0  0
   20.8080   82.2440   16.7150 H   0  0  0  0  0  0  0  0  0  0  0  0
   20.0310   82.6730   18.9560 H   0  0  0  0  0  0  0  0  0  0  0  0
   19.3840   80.7170   20.4430 H   0  0  0  0  0  0  0  0  0  0  0  0
   24.7410   79.4480   15.3600 H   0  0  0  0  0  0  0  0  0  0  0  0
   23.5880   80.4530   16.2450 H   0  0  0  0  0  0  0  0  0  0  0  0
   24.3770   81.1700   14.8580 H   0  0  0  0  0  0  0  0  0  0  0  0
   19.4660   77.8830   12.2760 H   0  0  0  0  0  0  0  0  0  0  0  0
  1  2  1  0  0  0  0
  2  7  2  0  0  0  0
  2  3  1  0  0  0  0
  3  4  2  0  0  0  0
  4  5  1  0  0  0  0
  4 35  1  0  0  0  0
  5  8  1  0  0  0  0
  6 36  1  0  0  0  0
  6  5  2  0  0  0  0
  7  6  1  0  0  0  0
  8 13  1  0  0  0  0
  8 33  1  1  0  0  0
  9  8  1  0  0  0  0
  9 39  1  0  0  0  0
  9 10  1  0  0  0  0
 10 41  1  0  0  0  0
 10 11  1  0  0  0  0
 11 14  1  0  0  0  0
 12 43  1  0  0  0  0
 12 11  1  0  0  0  0
 13 12  1  0  0  0  0
 13 44  1  0  0  0  0
 14 16  1  0  0  0  0
 15 14  2  0  0  0  0
 16 46  1  1  0  0  0
 16 32  1  0  0  0  0
 17 16  1  0  0  0  0
 17 18  1  0  0  0  0
 18 20  1  0  0  0  0
 19 18  2  0  0  0  0
 20 48  1  0  0  0  0
 20 21  2  0  0  0  0
 21 27  1  0  0  0  0
 21 22  1  0  0  0  0
 22 23  1  0  0  0  0
 23 24  1  0  0  0  0
 23 50  1  0  0  0  0
 24 25  2  0  0  0  0
 26 31  1  0  0  0  0
 26 24  1  0  0  0  0
 27 26  2  0  0  0  0
 28 29  2  0  0  0  0
 28 27  1  0  0  0  0
 29 30  1  0  0  0  0
 30 53  1  0  0  0  0
 30 31  2  0  0  0  0
 31 54  1  0  0  0  0
 32 55  1  0  0  0  0
 32 56  1  0  0  0  0
 33 58  1  0  0  0  0
 34  3  1  0  0  0  0
 37  7  1  0  0  0  0
 38  9  1  0  0  0  0
 40 10  1  0  0  0  0
 42 12  1  0  0  0  0
 45 13  1  0  0  0  0
 47 17  1  0  0  0  0
 49 22  1  0  0  0  0
 51 28  1  0  0  0  0
 52 29  1  0  0  0  0
 57 32  1  0  0  0  0
M  END
>  <Pose>
1

>  <Score>
-7.50

$$$$
