
 OpenBabel03222202113D

 58 61  0  0  0  0  0  0  0  0999 V2000
   19.5790   76.4380    8.0730 Cl  0  0  0  0  0  0  0  0  0  0  0  0
   19.3950   76.1230    9.7810 C   0  0  0  0  0  0  0  0  0  0  0  0
   19.6880   77.1410   10.6620 C   0  0  0  0  0  0  0  0  0  0  0  0
   19.4960   76.8070   12.0100 C   0  0  0  0  0  0  0  0  0  0  0  0
   19.0610   75.5880   12.3780 N   0  0  0  0  0  0  0  0  0  0  0  0
   18.7800   74.6110   11.5420 N   0  0  0  0  0  0  0  0  0  0  0  0
   18.9480   74.8820   10.2420 C   0  0  0  0  0  0  0  0  0  0  0  0
   18.7010   74.0030    9.3780 O   0  0  0  0  0  0  0  0  0  0  0  0
   18.3240   73.3480   12.0190 C   0  0  0  0  0  0  0  0  0  0  0  0
   19.1910   72.2910   12.2510 C   0  0  0  0  0  0  0  0  0  0  0  0
   18.7660   71.0620   12.7120 C   0  0  0  0  0  0  0  0  0  0  0  0
   17.4190   70.8860   12.9510 C   0  0  0  0  0  0  0  0  0  0  0  0
   16.5260   71.9190   12.7290 C   0  0  0  0  0  0  0  0  0  0  0  0
   16.9880   73.1540   12.2610 C   0  0  0  0  0  0  0  0  0  0  0  0
   20.1740   78.4020   10.2680 N   0  0  0  0  0  0  0  0  0  0  0  0
   19.3600   79.5970   10.4690 C   0  0  0  0  0  0  0  0  0  0  0  0
   20.0660   80.6270   11.3220 C   0  0  0  0  0  0  0  0  0  0  0  0
   21.4740   80.3120   11.3240 N   0  0  0  0  0  0  0  0  0  0  0  0
   22.0440   79.9580   10.0370 C   0  0  0  0  0  0  0  0  0  0  0  0
   21.5140   78.5690    9.6860 C   0  0  0  0  0  0  0  0  0  0  0  0
   22.2890   80.3320   12.4740 C   0  0  0  0  0  0  0  0  0  0  0  0
   22.5810   81.4320   12.9930 O   0  0  0  0  0  0  0  0  0  0  0  0
   22.8280   79.1070   13.1130 C   0  0  0  0  0  0  0  0  0  0  0  0
   22.0910   78.8020   14.3970 C   0  0  0  0  0  0  0  0  0  0  0  0
   22.7610   77.7290   15.2020 C   0  0  0  0  0  0  0  0  0  0  0  0
   24.0620   78.1030   15.7110 N   0  0  0  0  0  0  0  0  0  0  0  0
   25.2480   77.3350   15.6150 C   0  0  0  0  0  0  0  0  0  0  0  0
   25.3680   76.1880   15.0680 O   0  0  0  0  0  0  0  0  0  0  0  0
   26.3390   78.0000   16.2140 N   0  0  0  0  0  0  0  0  0  0  0  0
   25.8660   79.2580   16.7470 C   0  0  0  0  0  0  0  0  0  0  0  0
   24.4280   79.3020   16.4030 C   0  0  0  0  0  0  0  0  0  0  0  0
   23.6420   80.2360   16.6700 O   0  0  0  0  0  0  0  0  0  0  0  0
   27.7030   77.5180   16.2920 C   0  0  0  0  0  0  0  0  0  0  0  0
   19.7260   77.5760   12.7240 H   0  0  0  0  0  0  0  0  0  0  0  0
   20.2450   72.4470   12.0590 H   0  0  0  0  0  0  0  0  0  0  0  0
   19.4710   70.2370   12.8900 H   0  0  0  0  0  0  0  0  0  0  0  0
   17.0940   69.9200   13.3130 H   0  0  0  0  0  0  0  0  0  0  0  0
   15.4830   71.7420   12.9280 H   0  0  0  0  0  0  0  0  0  0  0  0
   16.3010   73.9700   12.0840 H   0  0  0  0  0  0  0  0  0  0  0  0
   19.2340   80.0130    9.4150 H   0  0  0  0  0  0  0  0  0  0  0  0
   18.3860   79.4220   10.9320 H   0  0  0  0  0  0  0  0  0  0  0  0
   19.6720   80.6380   12.3580 H   0  0  0  0  0  0  0  0  0  0  0  0
   19.8740   81.6420   10.8700 H   0  0  0  0  0  0  0  0  0  0  0  0
   21.6620   80.6710    9.2780 H   0  0  0  0  0  0  0  0  0  0  0  0
   23.1490   79.9920   10.0310 H   0  0  0  0  0  0  0  0  0  0  0  0
   22.1840   77.8890   10.2300 H   0  0  0  0  0  0  0  0  0  0  0  0
   21.4340   78.4840    8.6190 H   0  0  0  0  0  0  0  0  0  0  0  0
   22.7400   78.2290   12.4420 H   0  0  0  0  0  0  0  0  0  0  0  0
   23.9210   79.2140   13.3220 H   0  0  0  0  0  0  0  0  0  0  0  0
   21.0630   78.4600   14.1800 H   0  0  0  0  0  0  0  0  0  0  0  0
   21.9950   79.7270   15.0160 H   0  0  0  0  0  0  0  0  0  0  0  0
   22.8850   76.7980   14.5880 H   0  0  0  0  0  0  0  0  0  0  0  0
   22.1610   77.4170   16.0820 H   0  0  0  0  0  0  0  0  0  0  0  0
   26.4060   80.1260   16.2820 H   0  0  0  0  0  0  0  0  0  0  0  0
   26.0300   79.3540   17.8370 H   0  0  0  0  0  0  0  0  0  0  0  0
   28.1960   77.7150   15.3110 H   0  0  0  0  0  0  0  0  0  0  0  0
   27.6810   76.3950   16.3780 H   0  0  0  0  0  0  0  0  0  0  0  0
   28.2390   77.9880   17.1280 H   0  0  0  0  0  0  0  0  0  0  0  0
  1  2  1  0  0  0  0
  2  7  1  0  0  0  0
  2  3  2  0  0  0  0
  3  4  1  0  0  0  0
  4  5  2  0  0  0  0
  4 34  1  0  0  0  0
  6  9  1  0  0  0  0
  6  5  1  0  0  0  0
  7  6  1  0  0  0  0
  8  7  2  0  0  0  0
  9 10  2  0  0  0  0
  9 14  1  0  0  0  0
 10 11  1  0  0  0  0
 11 36  1  0  0  0  0
 11 12  2  0  0  0  0
 12 37  1  0  0  0  0
 13 38  1  0  0  0  0
 13 12  1  0  0  0  0
 14 13  2  0  0  0  0
 15 16  1  0  0  0  0
 15  3  1  0  0  0  0
 16 41  1  0  0  0  0
 16 17  1  0  0  0  0
 17 18  1  0  0  0  0
 17 42  1  0  0  0  0
 18 21  1  0  0  0  0
 19 18  1  0  0  0  0
 20 19  1  0  0  0  0
 20 46  1  0  0  0  0
 20 15  1  0  0  0  0
 21 22  2  0  0  0  0
 21 23  1  0  0  0  0
 23 49  1  0  0  0  0
 23 24  1  0  0  0  0
 24 51  1  0  0  0  0
 24 25  1  0  0  0  0
 25 26  1  0  0  0  0
 25 53  1  0  0  0  0
 26 31  1  0  0  0  0
 27 26  1  0  0  0  0
 27 29  1  0  0  0  0
 28 27  2  0  0  0  0
 29 33  1  0  0  0  0
 29 30  1  0  0  0  0
 30 55  1  0  0  0  0
 31 32  2  0  0  0  0
 31 30  1  0  0  0  0
 33 57  1  0  0  0  0
 33 58  1  0  0  0  0
 35 10  1  0  0  0  0
 39 14  1  0  0  0  0
 40 16  1  0  0  0  0
 43 17  1  0  0  0  0
 44 19  1  0  0  0  0
 45 19  1  0  0  0  0
 47 20  1  0  0  0  0
 48 23  1  0  0  0  0
 50 24  1  0  0  0  0
 52 25  1  0  0  0  0
 54 30  1  0  0  0  0
 56 33  1  0  0  0  0
M  END
>  <Pose>
1

>  <Score>
-7.29

$$$$
