
 OpenBabel03222202113D

 50 53  0  0  0  0  0  0  0  0999 V2000
   20.0090   80.5720    8.2010 Cl  0  0  0  0  0  0  0  0  0  0  0  0
   19.7360   78.8520    8.3610 C   0  0  0  0  0  0  0  0  0  0  0  0
   20.3970   78.1590    9.3550 C   0  0  0  0  0  0  0  0  0  0  0  0
   20.1390   76.8010    9.4250 C   0  0  0  0  0  0  0  0  0  0  0  0
   19.2940   76.1910    8.5730 N   0  0  0  0  0  0  0  0  0  0  0  0
   18.6520   76.8400    7.6150 N   0  0  0  0  0  0  0  0  0  0  0  0
   18.8790   78.1620    7.5170 C   0  0  0  0  0  0  0  0  0  0  0  0
   18.2770   78.7830    6.6160 O   0  0  0  0  0  0  0  0  0  0  0  0
   17.7550   76.1840    6.7150 C   0  0  0  0  0  0  0  0  0  0  0  0
   16.4780   76.6670    6.5110 C   0  0  0  0  0  0  0  0  0  0  0  0
   15.6060   76.0390    5.6450 C   0  0  0  0  0  0  0  0  0  0  0  0
   15.9650   74.9060    4.9450 C   0  0  0  0  0  0  0  0  0  0  0  0
   17.2400   74.4190    5.1440 C   0  0  0  0  0  0  0  0  0  0  0  0
   18.1050   75.0480    6.0090 C   0  0  0  0  0  0  0  0  0  0  0  0
   21.2950   78.7960   10.2650 N   0  0  0  0  0  0  0  0  0  0  0  0
   22.6830   78.4280   10.2250 C   0  0  0  0  0  0  0  0  0  0  0  0
   23.2840   78.3770   11.6120 C   0  0  0  0  0  0  0  0  0  0  0  0
   22.7070   79.3680   12.4860 N   0  0  0  0  0  0  0  0  0  0  0  0
   21.9110   80.4220   11.9070 C   0  0  0  0  0  0  0  0  0  0  0  0
   20.7560   79.7800   11.1820 C   0  0  0  0  0  0  0  0  0  0  0  0
   22.9250   79.2980   13.8850 C   0  0  0  0  0  0  0  0  0  0  0  0
   24.0950   79.3840   14.3800 O   0  0  0  0  0  0  0  0  0  0  0  0
   21.8120   79.1220   14.8560 C   0  0  0  0  0  0  0  0  0  0  0  0
   22.1210   79.6630   16.1110 O   0  0  0  0  0  0  0  0  0  0  0  0
   21.1170   80.0700   16.9680 C   0  0  0  0  0  0  0  0  0  0  0  0
   20.4240   81.2140   16.9940 N   0  0  0  0  0  0  0  0  0  0  0  0
   19.5670   81.1980   17.9620 O   0  0  0  0  0  0  0  0  0  0  0  0
   19.6250   80.0690   18.6370 C   0  0  0  0  0  0  0  0  0  0  0  0
   20.6110   79.3230   18.0220 C   0  0  0  0  0  0  0  0  0  0  0  0
   18.7670   79.7620   19.7960 C   0  0  0  0  0  0  0  0  0  0  0  0
   20.6600   76.2380   10.2130 H   0  0  0  0  0  0  0  0  0  0  0  0
   16.1680   77.5530    7.0470 H   0  0  0  0  0  0  0  0  0  0  0  0
   14.6050   76.4160    5.4850 H   0  0  0  0  0  0  0  0  0  0  0  0
   15.2700   74.4210    4.2650 H   0  0  0  0  0  0  0  0  0  0  0  0
   17.4980   73.5260    4.5810 H   0  0  0  0  0  0  0  0  0  0  0  0
   19.0910   74.6340    6.1350 H   0  0  0  0  0  0  0  0  0  0  0  0
   22.8380   77.4380    9.7560 H   0  0  0  0  0  0  0  0  0  0  0  0
   23.2010   79.1770    9.5740 H   0  0  0  0  0  0  0  0  0  0  0  0
   23.2540   77.3620   12.0110 H   0  0  0  0  0  0  0  0  0  0  0  0
   24.3690   78.6410   11.5030 H   0  0  0  0  0  0  0  0  0  0  0  0
   22.5420   80.9100   11.1140 H   0  0  0  0  0  0  0  0  0  0  0  0
   21.5900   81.1750   12.6470 H   0  0  0  0  0  0  0  0  0  0  0  0
   20.0380   79.3110   11.8920 H   0  0  0  0  0  0  0  0  0  0  0  0
   20.2480   80.5930   10.5870 H   0  0  0  0  0  0  0  0  0  0  0  0
   21.4920   78.0660   14.9350 H   0  0  0  0  0  0  0  0  0  0  0  0
   20.9070   79.6860   14.4830 H   0  0  0  0  0  0  0  0  0  0  0  0
   20.9080   78.3360   18.3360 H   0  0  0  0  0  0  0  0  0  0  0  0
   19.1130   78.8790   20.3580 H   0  0  0  0  0  0  0  0  0  0  0  0
   17.7000   79.5690   19.4780 H   0  0  0  0  0  0  0  0  0  0  0  0
   18.7300   80.6670   20.4720 H   0  0  0  0  0  0  0  0  0  0  0  0
  1  2  1  0  0  0  0
  2  3  2  0  0  0  0
  3  4  1  0  0  0  0
  3 15  1  0  0  0  0
  4 31  1  0  0  0  0
  5  4  2  0  0  0  0
  6  5  1  0  0  0  0
  7  6  1  0  0  0  0
  7  2  1  0  0  0  0
  8  7  2  0  0  0  0
  9  6  1  0  0  0  0
 10  9  1  0  0  0  0
 10 32  1  0  0  0  0
 11 10  2  0  0  0  0
 12 13  2  0  0  0  0
 12 11  1  0  0  0  0
 13 14  1  0  0  0  0
 14 36  1  0  0  0  0
 14  9  2  0  0  0  0
 15 20  1  0  0  0  0
 16 15  1  0  0  0  0
 16 17  1  0  0  0  0
 17 39  1  0  0  0  0
 17 18  1  0  0  0  0
 18 21  1  0  0  0  0
 19 18  1  0  0  0  0
 19 42  1  0  0  0  0
 20 43  1  0  0  0  0
 20 19  1  0  0  0  0
 21 22  2  0  0  0  0
 21 23  1  0  0  0  0
 23 45  1  0  0  0  0
 23 24  1  0  0  0  0
 24 25  1  0  0  0  0
 25 26  2  0  0  0  0
 25 29  1  0  0  0  0
 26 27  1  0  0  0  0
 27 28  1  0  0  0  0
 28 30  1  0  0  0  0
 29 47  1  0  0  0  0
 29 28  2  0  0  0  0
 30 48  1  0  0  0  0
 30 50  1  0  0  0  0
 33 11  1  0  0  0  0
 34 12  1  0  0  0  0
 35 13  1  0  0  0  0
 37 16  1  0  0  0  0
 38 16  1  0  0  0  0
 40 17  1  0  0  0  0
 41 19  1  0  0  0  0
 44 20  1  0  0  0  0
 46 23  1  0  0  0  0
 49 30  1  0  0  0  0
M  END
>  <Pose>
1

>  <Score>
-6.23

$$$$
