
 OpenBabel03222202113D

 53 56  0  0  0  0  0  0  0  0999 V2000
   19.1170   74.1840   13.2030 Cl  0  0  0  0  0  0  0  0  0  0  0  0
   19.2710   75.4600   14.4070 C   0  0  0  0  0  0  0  0  0  0  0  0
   20.4750   76.1600   14.4390 C   0  0  0  0  0  0  0  0  0  0  0  0
   20.6110   77.1610   15.3750 C   0  0  0  0  0  0  0  0  0  0  0  0
   19.5710   77.4500   16.2490 C   0  0  0  0  0  0  0  0  0  0  0  0
   18.3730   76.7470   16.2100 C   0  0  0  0  0  0  0  0  0  0  0  0
   18.2380   75.7410   15.2700 C   0  0  0  0  0  0  0  0  0  0  0  0
   19.6320   78.4400   17.2160 O   0  0  0  0  0  0  0  0  0  0  0  0
   20.7360   78.9600   17.9020 C   0  0  0  0  0  0  0  0  0  0  0  0
   21.7860   79.5960   17.0660 C   0  0  0  0  0  0  0  0  0  0  0  0
   21.8560   79.1870   15.7000 N   0  0  0  0  0  0  0  0  0  0  0  0
   21.9530   77.7900   15.2550 C   0  0  0  0  0  0  0  0  0  0  0  0
   21.8400   80.1810   14.6840 C   0  0  0  0  0  0  0  0  0  0  0  0
   20.9260   81.0350   14.7410 O   0  0  0  0  0  0  0  0  0  0  0  0
   22.8300   80.2260   13.6190 C   0  0  0  0  0  0  0  0  0  0  0  0
   22.4460   79.7330   12.2840 C   0  0  0  0  0  0  0  0  0  0  0  0
   21.1950   80.1970   11.6630 C   0  0  0  0  0  0  0  0  0  0  0  0
   20.6670   79.5340   10.5300 N   0  0  0  0  0  0  0  0  0  0  0  0
   21.4260   78.9870    9.4670 C   0  0  0  0  0  0  0  0  0  0  0  0
   22.6840   78.9730    9.3210 O   0  0  0  0  0  0  0  0  0  0  0  0
   20.5080   78.4280    8.5440 N   0  0  0  0  0  0  0  0  0  0  0  0
   19.2090   78.2900    9.2000 C   0  0  0  0  0  0  0  0  0  0  0  0
   19.2960   79.3140   10.2630 C   0  0  0  0  0  0  0  0  0  0  0  0
   18.2910   79.8820   10.8230 O   0  0  0  0  0  0  0  0  0  0  0  0
   20.2190   79.9970   18.9170 C   0  0  0  0  0  0  0  0  0  0  0  0
   19.1110   79.3250   19.6830 C   0  0  0  0  0  0  0  0  0  0  0  0
   18.9820   77.9840   19.3680 O   0  0  0  0  0  0  0  0  0  0  0  0
   20.1520   77.2720   19.5670 C   0  0  0  0  0  0  0  0  0  0  0  0
   21.3180   77.8540   18.7970 C   0  0  0  0  0  0  0  0  0  0  0  0
   21.2520   75.9020   13.7430 H   0  0  0  0  0  0  0  0  0  0  0  0
   17.6000   76.9940   16.8950 H   0  0  0  0  0  0  0  0  0  0  0  0
   17.3070   75.1710   15.2150 H   0  0  0  0  0  0  0  0  0  0  0  0
   22.7830   79.3300   17.5260 H   0  0  0  0  0  0  0  0  0  0  0  0
   21.7440   80.7180   17.1680 H   0  0  0  0  0  0  0  0  0  0  0  0
   22.3980   77.6830   14.2690 H   0  0  0  0  0  0  0  0  0  0  0  0
   22.6190   77.2170   15.9560 H   0  0  0  0  0  0  0  0  0  0  0  0
   23.7960   79.7310   13.8930 H   0  0  0  0  0  0  0  0  0  0  0  0
   23.1320   81.3110   13.4940 H   0  0  0  0  0  0  0  0  0  0  0  0
   22.3530   78.5990   12.3760 H   0  0  0  0  0  0  0  0  0  0  0  0
   23.3280   79.8140   11.5640 H   0  0  0  0  0  0  0  0  0  0  0  0
   20.4250   80.2410   12.5110 H   0  0  0  0  0  0  0  0  0  0  0  0
   21.2480   81.3030   11.3800 H   0  0  0  0  0  0  0  0  0  0  0  0
   20.6850   78.1480    7.5590 H   0  0  0  0  0  0  0  0  0  0  0  0
   19.1190   77.3020    9.6870 H   0  0  0  0  0  0  0  0  0  0  0  0
   18.3790   78.5030    8.4960 H   0  0  0  0  0  0  0  0  0  0  0  0
   19.9140   80.9200   18.4190 H   0  0  0  0  0  0  0  0  0  0  0  0
   21.0760   80.1900   19.5970 H   0  0  0  0  0  0  0  0  0  0  0  0
   19.2270   79.4380   20.7880 H   0  0  0  0  0  0  0  0  0  0  0  0
   18.1620   79.8310   19.4140 H   0  0  0  0  0  0  0  0  0  0  0  0
   20.4010   77.1270   20.6420 H   0  0  0  0  0  0  0  0  0  0  0  0
   19.9690   76.2360   19.1630 H   0  0  0  0  0  0  0  0  0  0  0  0
   21.9800   78.3550   19.5490 H   0  0  0  0  0  0  0  0  0  0  0  0
   21.8700   77.1060   18.2290 H   0  0  0  0  0  0  0  0  0  0  0  0
  1  2  1  0  0  0  0
  2  3  2  0  0  0  0
  2  7  1  0  0  0  0
  3  4  1  0  0  0  0
  4  5  2  0  0  0  0
  5  8  1  0  0  0  0
  6  5  1  0  0  0  0
  6 31  1  0  0  0  0
  7  6  2  0  0  0  0
  8  9  1  0  0  0  0
  9 29  1  0  0  0  0
  9 25  1  0  0  0  0
 10 34  1  0  0  0  0
 10 33  1  0  0  0  0
 10  9  1  0  0  0  0
 11 10  1  0  0  0  0
 12  4  1  0  0  0  0
 12 11  1  0  0  0  0
 12 36  1  0  0  0  0
 13 14  2  0  0  0  0
 13 11  1  0  0  0  0
 15 37  1  0  0  0  0
 15 13  1  0  0  0  0
 16 39  1  0  0  0  0
 16 15  1  0  0  0  0
 17 16  1  0  0  0  0
 17 41  1  0  0  0  0
 18 17  1  0  0  0  0
 19 18  1  0  0  0  0
 20 19  2  0  0  0  0
 21 22  1  0  0  0  0
 21 19  1  0  0  0  0
 22 44  1  0  0  0  0
 22 23  1  0  0  0  0
 23 18  1  0  0  0  0
 23 24  2  0  0  0  0
 25 47  1  0  0  0  0
 25 26  1  0  0  0  0
 26 48  1  0  0  0  0
 27 28  1  0  0  0  0
 27 26  1  0  0  0  0
 28 50  1  0  0  0  0
 29 52  1  0  0  0  0
 29 28  1  0  0  0  0
 30  3  1  0  0  0  0
 32  7  1  0  0  0  0
 35 12  1  0  0  0  0
 38 15  1  0  0  0  0
 40 16  1  0  0  0  0
 42 17  1  0  0  0  0
 43 21  1  0  0  0  0
 45 22  1  0  0  0  0
 46 25  1  0  0  0  0
 49 26  1  0  0  0  0
 51 28  1  0  0  0  0
 53 29  1  0  0  0  0
M  END
>  <Pose>
1

>  <Score>
-5.97

$$$$
