
 OpenBabel03222202113D

 53 56  0  0  1  0  0  0  0  0999 V2000
   19.6160   75.7230    8.9190 S   0  0  0  0  0  0  0  0  0  0  0  0
   20.7230   74.7060    8.7100 O   0  0  0  0  0  0  0  0  0  0  0  0
   18.7970   75.1970   10.0790 O   0  0  0  0  0  0  0  0  0  0  0  0
   20.2990   77.2090    9.1910 N   0  0  0  0  0  0  0  0  0  0  0  0
   21.6220   77.4910    8.8630 C   0  0  0  0  0  0  0  0  0  0  0  0
   21.9950   78.8650    9.4350 C   0  0  0  0  0  0  0  0  0  0  0  0
   21.4190   79.0090   10.7740 N   0  0  0  0  0  0  0  0  0  0  0  0
   19.9800   78.8650   10.8690 C   0  0  0  0  0  0  0  0  0  0  0  0
   19.5110   78.3260    9.5090 C   0  0  0  0  0  0  0  0  0  0  0  0
   22.2600   79.2550   11.8950 C   0  0  0  0  0  0  0  0  0  0  0  0
   23.4980   79.1790   11.7170 O   0  0  0  0  0  0  0  0  0  0  0  0
   21.6890   79.5810   13.2010 C   0  0  0  0  0  0  0  0  0  0  0  0
   22.4660   79.0120   14.3800 C   0  0  2  0  0  0  0  0  0  0  0  0
   21.8440   77.8590   14.9750 N   0  0  0  0  0  0  0  0  0  0  0  0
   21.2080   77.6540   16.2290 C   0  0  0  0  0  0  0  0  0  0  0  0
   21.0930   76.4900   16.6960 O   0  0  0  0  0  0  0  0  0  0  0  0
   20.6300   78.6890   17.1140 C   0  0  0  0  0  0  0  0  0  0  0  0
   20.9880   80.0400   17.1680 C   0  0  0  0  0  0  0  0  0  0  0  0
   20.3470   80.8720   18.0420 C   0  0  0  0  0  0  0  0  0  0  0  0
   19.3340   80.4300   18.8950 C   0  0  0  0  0  0  0  0  0  0  0  0
   18.9980   79.0780   18.8160 C   0  0  0  0  0  0  0  0  0  0  0  0
   19.6380   78.2290   17.9410 C   0  0  0  0  0  0  0  0  0  0  0  0
   21.9880   80.6690   16.3800 N   0  0  0  0  0  0  0  0  0  0  0  0
   22.7770   80.1000   15.3310 C   0  0  0  0  0  0  0  0  0  0  0  0
   23.9300   80.6510   15.2360 O   0  0  0  0  0  0  0  0  0  0  0  0
   18.6010   75.6550    7.4740 C   0  0  0  0  0  0  0  0  0  0  0  0
   17.8730   76.7430    7.0530 C   0  0  0  0  0  0  0  0  0  0  0  0
   17.0910   76.6400    5.9230 C   0  0  0  0  0  0  0  0  0  0  0  0
   16.9950   75.4830    5.1720 C   0  0  0  0  0  0  0  0  0  0  0  0
   17.7310   74.3850    5.5990 C   0  0  0  0  0  0  0  0  0  0  0  0
   18.5100   74.4940    6.7290 C   0  0  0  0  0  0  0  0  0  0  0  0
   16.0160   75.3450    3.7480 Cl  0  0  0  0  0  0  0  0  0  0  0  0
   21.8330   77.5460    7.7540 H   0  0  0  0  0  0  0  0  0  0  0  0
   22.3840   76.8030    9.3000 H   0  0  0  0  0  0  0  0  0  0  0  0
   21.5810   79.6750    8.8130 H   0  0  0  0  0  0  0  0  0  0  0  0
   23.0920   79.0030    9.4620 H   0  0  0  0  0  0  0  0  0  0  0  0
   19.6990   78.0690   11.5960 H   0  0  0  0  0  0  0  0  0  0  0  0
   19.4870   79.8160   11.0580 H   0  0  0  0  0  0  0  0  0  0  0  0
   19.6440   79.1760    8.7770 H   0  0  0  0  0  0  0  0  0  0  0  0
   18.4130   78.1210    9.5430 H   0  0  0  0  0  0  0  0  0  0  0  0
   21.7150   80.7050   13.3690 H   0  0  0  0  0  0  0  0  0  0  0  0
   20.6190   79.3090   13.2760 H   0  0  0  0  0  0  0  0  0  0  0  0
   23.4540   78.6650   13.9450 H   0  0  0  0  0  0  0  0  0  0  0  0
   21.8350   76.9590   14.4000 H   0  0  0  0  0  0  0  0  0  0  0  0
   20.6260   81.9060   18.0830 H   0  0  0  0  0  0  0  0  0  0  0  0
   18.8360   81.0920   19.5750 H   0  0  0  0  0  0  0  0  0  0  0  0
   18.2110   78.7440   19.4770 H   0  0  0  0  0  0  0  0  0  0  0  0
   19.3810   77.1860   17.8790 H   0  0  0  0  0  0  0  0  0  0  0  0
   22.1540   81.6510   16.5980 H   0  0  0  0  0  0  0  0  0  0  0  0
   17.8930   77.6770    7.5760 H   0  0  0  0  0  0  0  0  0  0  0  0
   16.5070   77.5090    5.5780 H   0  0  0  0  0  0  0  0  0  0  0  0
   17.6620   73.4790    5.0250 H   0  0  0  0  0  0  0  0  0  0  0  0
   19.0640   73.6230    7.0310 H   0  0  0  0  0  0  0  0  0  0  0  0
  1  4  1  0  0  0  0
  1  3  2  0  0  0  0
  2  1  2  0  0  0  0
  4  9  1  0  0  0  0
  5  4  1  0  0  0  0
  5 34  1  0  0  0  0
  5  6  1  0  0  0  0
  6 36  1  0  0  0  0
  6  7  1  0  0  0  0
  7  8  1  0  0  0  0
  7 10  1  0  0  0  0
  8 38  1  0  0  0  0
  8 37  1  0  0  0  0
  9 40  1  0  0  0  0
  9  8  1  0  0  0  0
 10 12  1  0  0  0  0
 11 10  2  0  0  0  0
 12 42  1  0  0  0  0
 12 41  1  0  0  0  0
 12 13  1  0  0  0  0
 13 43  1  6  0  0  0
 13 14  1  0  0  0  0
 13 24  1  0  0  0  0
 14 15  1  0  0  0  0
 15 16  2  0  0  0  0
 15 17  1  0  0  0  0
 17 18  2  0  0  0  0
 17 22  1  0  0  0  0
 18 19  1  0  0  0  0
 19 45  1  0  0  0  0
 19 20  2  0  0  0  0
 20 46  1  0  0  0  0
 21 20  1  0  0  0  0
 21 47  1  0  0  0  0
 22 21  2  0  0  0  0
 23 49  1  0  0  0  0
 23 18  1  0  0  0  0
 24 23  1  0  0  0  0
 25 24  2  0  0  0  0
 26  1  1  0  0  0  0
 27 26  1  0  0  0  0
 27 50  1  0  0  0  0
 28 27  2  0  0  0  0
 29 30  2  0  0  0  0
 29 28  1  0  0  0  0
 30 31  1  0  0  0  0
 31 53  1  0  0  0  0
 31 26  2  0  0  0  0
 32 29  1  0  0  0  0
 33  5  1  0  0  0  0
 35  6  1  0  0  0  0
 39  9  1  0  0  0  0
 44 14  1  0  0  0  0
 48 22  1  0  0  0  0
 51 28  1  0  0  0  0
 52 30  1  0  0  0  0
M  END
>  <Pose>
1

>  <Score>
-7.75

$$$$
