
 OpenBabel03222202113D

 53 56  0  0  1  0  0  0  0  0999 V2000
   20.7520   76.9050   18.9750 Cl  0  0  0  0  0  0  0  0  0  0  0  0
   20.3310   78.6130   18.9120 C   0  0  0  0  0  0  0  0  0  0  0  0
   20.9430   79.3840   17.9520 C   0  0  0  0  0  0  0  0  0  0  0  0
   20.5390   80.6950   17.8400 C   0  0  0  0  0  0  0  0  0  0  0  0
   21.3420   81.2260   16.8930 N   0  0  0  0  0  0  0  0  0  0  0  0
   22.1830   80.3200   16.4710 N   0  0  0  0  0  0  0  0  0  0  0  0
   21.9910   79.1060   17.1040 C   0  0  0  0  0  0  0  0  0  0  0  0
   22.6450   77.8610   16.7860 C   0  0  0  0  0  0  0  0  0  0  0  0
   21.9020   76.9130   15.9420 N   0  0  0  0  0  0  0  0  0  0  0  0
   22.4290   77.0890   14.5690 C   0  0  0  0  0  0  0  0  0  0  0  0
   21.4950   78.0490   13.9880 C   0  0  2  0  0  0  0  0  0  0  0  0
   20.1680   77.3810   14.3090 C   0  0  2  0  0  0  0  0  0  0  0  0
   20.5150   77.0600   15.8250 C   0  0  0  0  0  0  0  0  0  0  0  0
   20.0660   76.0240   13.6750 C   0  0  0  0  0  0  0  0  0  0  0  0
   18.7680   75.4980   13.9060 O   0  0  0  0  0  0  0  0  0  0  0  0
   21.6210   78.2730   12.5010 C   0  0  0  0  0  0  0  0  0  0  0  0
   21.0460   79.5430   12.1850 N   0  0  0  0  0  0  0  0  0  0  0  0
   22.0370   80.5820   11.9960 C   0  0  0  0  0  0  0  0  0  0  0  0
   21.9780   81.2340   10.6340 C   0  0  0  0  0  0  0  0  0  0  0  0
   20.7340   81.7160   10.2970 O   0  0  0  0  0  0  0  0  0  0  0  0
   19.6980   80.9160   10.7710 C   0  0  0  0  0  0  0  0  0  0  0  0
   20.2110   79.5280   11.0070 C   0  0  0  0  0  0  0  0  0  0  0  0
   21.1880   82.5860   16.3480 C   0  0  0  0  0  0  0  0  0  0  0  0
   19.5830   81.2430   18.6400 C   0  0  0  0  0  0  0  0  0  0  0  0
   18.9760   80.4450   19.6140 C   0  0  0  0  0  0  0  0  0  0  0  0
   19.3670   79.1160   19.7430 C   0  0  0  0  0  0  0  0  0  0  0  0
   23.6770   77.7920   16.5560 H   0  0  0  0  0  0  0  0  0  0  0  0
   22.5880   77.2580   17.7980 H   0  0  0  0  0  0  0  0  0  0  0  0
   23.4980   77.2790   14.5240 H   0  0  0  0  0  0  0  0  0  0  0  0
   22.3190   76.0780   14.0800 H   0  0  0  0  0  0  0  0  0  0  0  0
   21.4520   79.0230   14.4530 H   0  0  0  0  0  0  0  0  0  0  0  0
   19.3300   78.0420   14.2510 H   0  0  0  0  0  0  0  0  0  0  0  0
   19.9860   77.8060   16.3620 H   0  0  0  0  0  0  0  0  0  0  0  0
   19.9750   76.0660   16.0080 H   0  0  0  0  0  0  0  0  0  0  0  0
   20.7170   75.2900   14.2950 H   0  0  0  0  0  0  0  0  0  0  0  0
   20.3610   75.8780   12.6710 H   0  0  0  0  0  0  0  0  0  0  0  0
   18.1280   76.1220   13.3900 H   0  0  0  0  0  0  0  0  0  0  0  0
   22.6980   78.3200   12.2900 H   0  0  0  0  0  0  0  0  0  0  0  0
   21.1830   77.4520   11.9200 H   0  0  0  0  0  0  0  0  0  0  0  0
   21.9110   81.3300   12.7880 H   0  0  0  0  0  0  0  0  0  0  0  0
   23.0810   80.1640   12.0900 H   0  0  0  0  0  0  0  0  0  0  0  0
   22.4130   80.5470    9.9060 H   0  0  0  0  0  0  0  0  0  0  0  0
   22.6550   82.1250   10.7090 H   0  0  0  0  0  0  0  0  0  0  0  0
   19.3400   81.3720   11.7090 H   0  0  0  0  0  0  0  0  0  0  0  0
   18.8850   80.9120    9.9980 H   0  0  0  0  0  0  0  0  0  0  0  0
   19.3760   78.8060   11.1280 H   0  0  0  0  0  0  0  0  0  0  0  0
   20.8690   79.2460   10.1630 H   0  0  0  0  0  0  0  0  0  0  0  0
   20.0820   82.7130   16.0690 H   0  0  0  0  0  0  0  0  0  0  0  0
   21.6870   82.6790   15.3700 H   0  0  0  0  0  0  0  0  0  0  0  0
   21.3800   83.3050   17.1090 H   0  0  0  0  0  0  0  0  0  0  0  0
   19.3270   82.3270   18.6400 H   0  0  0  0  0  0  0  0  0  0  0  0
   18.2640   80.8300   20.2920 H   0  0  0  0  0  0  0  0  0  0  0  0
   18.9370   78.4540   20.4570 H   0  0  0  0  0  0  0  0  0  0  0  0
  2  1  1  0  0  0  0
  2 26  1  0  0  0  0
  3  2  2  0  0  0  0
  4  3  1  0  0  0  0
  4 24  2  0  0  0  0
  5  4  1  0  0  0  0
  6  5  1  0  0  0  0
  6  7  2  0  0  0  0
  7  3  1  0  0  0  0
  8  7  1  0  0  0  0
  8 28  1  0  0  0  0
  9  8  1  0  0  0  0
 10  9  1  0  0  0  0
 11 12  1  0  0  0  0
 11 31  1  1  0  0  0
 11 10  1  0  0  0  0
 12 32  1  6  0  0  0
 12 13  1  0  0  0  0
 13  9  1  0  0  0  0
 13 34  1  0  0  0  0
 13 33  1  0  0  0  0
 14 15  1  0  0  0  0
 14 35  1  0  0  0  0
 14 12  1  0  0  0  0
 16 11  1  0  0  0  0
 17 16  1  0  0  0  0
 18 41  1  0  0  0  0
 18 17  1  0  0  0  0
 18 40  1  0  0  0  0
 19 43  1  0  0  0  0
 19 18  1  0  0  0  0
 20 19  1  0  0  0  0
 20 21  1  0  0  0  0
 21 22  1  0  0  0  0
 21 44  1  0  0  0  0
 22 46  1  0  0  0  0
 22 17  1  0  0  0  0
 23  5  1  0  0  0  0
 23 50  1  0  0  0  0
 24 51  1  0  0  0  0
 24 25  1  0  0  0  0
 25 26  2  0  0  0  0
 25 52  1  0  0  0  0
 26 53  1  0  0  0  0
 27  8  1  0  0  0  0
 29 10  1  0  0  0  0
 30 10  1  0  0  0  0
 36 14  1  0  0  0  0
 37 15  1  0  0  0  0
 38 16  1  0  0  0  0
 39 16  1  0  0  0  0
 42 19  1  0  0  0  0
 45 21  1  0  0  0  0
 47 22  1  0  0  0  0
 48 23  1  0  0  0  0
 49 23  1  0  0  0  0
M  END
>  <Pose>
1

>  <Score>
-5.38

$$$$
