
 OpenBabel03222202113D

 58 62  0  0  1  0  0  0  0  0999 V2000
   17.2590   70.9870   12.1560 B   0  0  0  0  0  0  0  0  0  0  0  0
   18.2700   72.5620   12.6090 C   0  0  0  0  0  0  0  0  0  0  0  0
   19.4300   72.4860   13.3170 C   0  0  0  0  0  0  0  0  0  0  0  0
   20.1440   73.6050   13.6360 C   0  0  0  0  0  0  0  0  0  0  0  0
   19.7320   74.8680   13.2610 C   0  0  0  0  0  0  0  0  0  0  0  0
   18.5790   74.9460   12.5560 C   0  0  0  0  0  0  0  0  0  0  0  0
   17.8270   73.7940   12.2180 C   0  0  0  0  0  0  0  0  0  0  0  0
   20.5410   76.0040   13.6480 C   0  0  0  0  0  0  0  0  0  0  0  0
   21.4230   75.9730   14.7400 C   0  0  0  0  0  0  0  0  0  0  0  0
   22.0050   77.1640   14.7940 N   0  0  0  0  0  0  0  0  0  0  0  0
   22.9330   77.8310   15.5470 C   0  0  0  0  0  0  0  0  0  0  0  0
   23.0350   79.0750   14.9780 C   0  0  0  0  0  0  0  0  0  0  0  0
   22.2010   79.1090   13.9500 N   0  0  0  0  0  0  0  0  0  0  0  0
   21.5470   77.9180   13.8230 C   0  0  1  0  0  0  0  0  0  0  0  0
   20.6300   77.2170   13.0920 N   0  0  0  0  0  0  0  0  0  0  0  0
   19.9820   77.7990   11.9570 C   0  0  0  0  0  0  0  0  0  0  0  0
   20.7510   78.7760   11.1620 C   0  0  0  0  0  0  0  0  0  0  0  0
   20.9940   78.4970    9.7230 C   0  0  0  0  0  0  0  0  0  0  0  0
   19.7830   78.6000    8.9390 N   0  0  0  0  0  4  0  0  0  0  0  0
   19.4390   77.3820    8.2660 C   0  0  0  0  0  0  0  0  0  0  0  0
   19.5370   76.1410    9.1080 C   0  0  0  0  0  0  0  0  0  0  0  0
   19.6180   74.9640    8.1240 C   0  0  0  0  0  0  0  0  0  0  0  0
   18.3620   74.9260    7.3260 C   0  0  0  0  0  0  0  0  0  0  0  0
   18.0230   76.2390    6.6580 C   0  0  0  0  0  0  0  0  0  0  0  0
   18.0320   77.3810    7.6810 C   0  0  0  0  0  0  0  0  0  0  0  0
   23.9040   80.0420   15.4910 C   0  0  0  0  0  0  0  0  0  0  0  0
   24.6780   79.7470   16.5920 C   0  0  0  0  0  0  0  0  0  0  0  0
   24.5580   78.4920   17.1440 C   0  0  0  0  0  0  0  0  0  0  0  0
   23.6960   77.5250   16.6400 C   0  0  0  0  0  0  0  0  0  0  0  0
   19.8000   71.4990   13.6390 H   0  0  0  0  0  0  0  0  0  0  0  0
   21.0820   73.4720   14.2120 H   0  0  0  0  0  0  0  0  0  0  0  0
   18.1340   75.8340   12.2050 H   0  0  0  0  0  0  0  0  0  0  0  0
   16.9120   73.8660   11.6580 H   0  0  0  0  0  0  0  0  0  0  0  0
   21.5980   75.1390   15.4140 H   0  0  0  0  0  0  0  0  0  0  0  0
   22.0930   79.9400   13.3390 H   0  0  0  0  0  0  0  0  0  0  0  0
   18.9770   78.1430   12.1800 H   0  0  0  0  0  0  0  0  0  0  0  0
   19.8090   76.9190   11.2110 H   0  0  0  0  0  0  0  0  0  0  0  0
   20.1160   79.7270   11.1700 H   0  0  0  0  0  0  0  0  0  0  0  0
   21.6930   79.1510   11.6700 H   0  0  0  0  0  0  0  0  0  0  0  0
   21.4220   77.4930    9.5280 H   0  0  0  0  0  0  0  0  0  0  0  0
   21.6700   79.3170    9.3490 H   0  0  0  0  0  0  0  0  0  0  0  0
   18.9820   79.0290    9.3950 H   0  0  0  0  0  0  0  0  0  0  0  0
   20.0220   79.2950    8.1420 H   0  0  0  0  0  0  0  0  0  0  0  0
   20.1070   77.2100    7.3690 H   0  0  0  0  0  0  0  0  0  0  0  0
   20.3740   76.1300    9.8050 H   0  0  0  0  0  0  0  0  0  0  0  0
   18.5560   75.9930    9.6440 H   0  0  0  0  0  0  0  0  0  0  0  0
   20.5160   75.1070    7.4710 H   0  0  0  0  0  0  0  0  0  0  0  0
   19.6920   74.0230    8.6950 H   0  0  0  0  0  0  0  0  0  0  0  0
   18.4880   74.1780    6.5170 H   0  0  0  0  0  0  0  0  0  0  0  0
   17.5270   74.6040    7.9750 H   0  0  0  0  0  0  0  0  0  0  0  0
   17.0050   76.1450    6.2500 H   0  0  0  0  0  0  0  0  0  0  0  0
   18.7740   76.4430    5.8920 H   0  0  0  0  0  0  0  0  0  0  0  0
   17.2840   77.1440    8.4790 H   0  0  0  0  0  0  0  0  0  0  0  0
   17.8650   78.3210    7.1590 H   0  0  0  0  0  0  0  0  0  0  0  0
   23.9910   81.0200   15.0520 H   0  0  0  0  0  0  0  0  0  0  0  0
   25.3740   80.4800   17.0240 H   0  0  0  0  0  0  0  0  0  0  0  0
   25.1610   78.2620   18.0030 H   0  0  0  0  0  0  0  0  0  0  0  0
   23.6040   76.5490   17.0710 H   0  0  0  0  0  0  0  0  0  0  0  0
  1  2  1  0  0  0  0
  2  3  1  0  0  0  0
  3  4  2  0  0  0  0
  3 30  1  0  0  0  0
  4 31  1  0  0  0  0
  5  4  1  0  0  0  0
  5  8  1  0  0  0  0
  6  5  2  0  0  0  0
  7  6  1  0  0  0  0
  7  2  2  0  0  0  0
  8  9  2  0  0  0  0
  9 10  1  0  0  0  0
  9 34  1  0  0  0  0
 10 11  1  0  0  0  0
 11 29  1  0  0  0  0
 12 26  1  0  0  0  0
 12 11  2  0  0  0  0
 13 12  1  0  0  0  0
 14 15  1  6  0  0  0
 14 13  1  0  0  0  0
 14 10  1  0  0  0  0
 15  8  1  0  0  0  0
 16 36  1  0  0  0  0
 16 15  1  0  0  0  0
 17 38  1  0  0  0  0
 17 39  1  0  0  0  0
 17 16  1  0  0  0  0
 18 17  1  0  0  0  0
 19 42  1  0  0  0  0
 19 18  1  0  0  0  0
 20 19  1  0  0  0  0
 20 21  1  0  0  0  0
 21 46  1  0  0  0  0
 21 45  1  0  0  0  0
 22 48  1  0  0  0  0
 22 21  1  0  0  0  0
 23 50  1  0  0  0  0
 23 22  1  0  0  0  0
 24 23  1  0  0  0  0
 24 25  1  0  0  0  0
 25 20  1  0  0  0  0
 25 53  1  0  0  0  0
 26 27  2  0  0  0  0
 27 56  1  0  0  0  0
 27 28  1  0  0  0  0
 28 57  1  0  0  0  0
 29 58  1  0  0  0  0
 29 28  2  0  0  0  0
 32  6  1  0  0  0  0
 33  7  1  0  0  0  0
 35 13  1  0  0  0  0
 37 16  1  0  0  0  0
 40 18  1  0  0  0  0
 41 18  1  0  0  0  0
 43 19  1  0  0  0  0
 44 20  1  0  0  0  0
 47 22  1  0  0  0  0
 49 23  1  0  0  0  0
 51 24  1  0  0  0  0
 52 24  1  0  0  0  0
 54 25  1  0  0  0  0
 55 26  1  0  0  0  0
M  END
>  <Pose>
1

>  <Score>
-6.56

$$$$
