
 OpenBabel03222202113D

 49 52  0  0  1  0  0  0  0  0999 V2000
   18.6780   84.4260   22.9680 B   0  0  0  0  0  0  0  0  0  0  0  0
   19.0370   83.1590   21.5940 C   0  0  0  0  0  0  0  0  0  0  0  0
   19.5120   83.5650   20.3670 C   0  0  0  0  0  0  0  0  0  0  0  0
   19.7740   82.6710   19.3720 C   0  0  0  0  0  0  0  0  0  0  0  0
   20.2360   82.7580   18.0920 N   0  0  0  0  0  0  0  0  0  0  0  0
   20.3030   81.5460   17.5620 N   0  0  0  0  0  0  0  0  0  0  0  0
   19.8980   80.6260   18.4470 C   0  0  0  0  0  0  0  0  0  0  0  0
   19.5620   81.3330   19.5950 C   0  0  0  0  0  0  0  0  0  0  0  0
   19.0840   80.8960   20.8250 C   0  0  0  0  0  0  0  0  0  0  0  0
   18.8190   81.8000   21.8290 C   0  0  0  0  0  0  0  0  0  0  0  0
   19.8040   79.2160   18.3290 N   0  0  0  0  0  0  0  0  0  0  0  0
   19.6060   78.4420   17.1050 C   0  0  0  0  0  0  0  0  0  0  0  0
   20.5030   77.2430   17.3120 C   0  0  2  0  0  0  0  0  0  0  0  0
   20.2370   76.8910   18.7710 C   0  0  0  0  0  0  0  0  0  0  0  0
   19.8770   78.2280   19.3620 C   0  0  0  0  0  0  0  0  0  0  0  0
   19.6670   78.4570   20.5900 O   0  0  0  0  0  0  0  0  0  0  0  0
   21.9330   77.5820   17.1180 C   0  0  0  0  0  0  0  0  0  0  0  0
   22.6120   77.8910   18.1280 O   0  0  0  0  0  0  0  0  0  0  0  0
   22.5530   77.5700   15.8480 N   0  0  0  0  0  0  0  0  0  0  0  0
   21.8090   77.5200   14.6150 C   0  0  0  0  0  0  0  0  0  0  0  0
   22.2280   78.6710   13.7250 C   0  0  0  0  0  0  0  0  0  0  0  0
   22.2920   78.3090   12.3300 N   0  0  0  0  0  0  0  0  0  0  0  0
   20.9420   78.4200   11.7890 C   0  0  0  0  0  0  0  0  0  0  0  0
   20.6520   79.8620   11.3830 C   0  0  0  0  0  0  0  0  0  0  0  0
   21.4050   80.2720   10.3080 O   0  0  0  0  0  0  0  0  0  0  0  0
   22.5340   79.4910   10.2140 C   0  0  0  0  0  0  0  0  0  0  0  0
   23.1420   79.1970   11.5700 C   0  0  0  0  0  0  0  0  0  0  0  0
   19.6850   84.6150   20.1740 H   0  0  0  0  0  0  0  0  0  0  0  0
   20.4740   83.6960   17.6830 H   0  0  0  0  0  0  0  0  0  0  0  0
   18.9180   79.8200   20.9880 H   0  0  0  0  0  0  0  0  0  0  0  0
   18.4440   81.4390   22.7900 H   0  0  0  0  0  0  0  0  0  0  0  0
   19.8250   79.0110   16.1940 H   0  0  0  0  0  0  0  0  0  0  0  0
   18.5600   78.0770   17.0520 H   0  0  0  0  0  0  0  0  0  0  0  0
   20.1730   76.3930   16.6930 H   0  0  0  0  0  0  0  0  0  0  0  0
   21.2110   76.6280   19.2330 H   0  0  0  0  0  0  0  0  0  0  0  0
   19.4530   76.1490   18.8970 H   0  0  0  0  0  0  0  0  0  0  0  0
   23.6040   77.5990   15.8270 H   0  0  0  0  0  0  0  0  0  0  0  0
   20.7390   77.7340   14.8910 H   0  0  0  0  0  0  0  0  0  0  0  0
   21.8320   76.5580   14.1070 H   0  0  0  0  0  0  0  0  0  0  0  0
   23.2650   78.9850   14.0150 H   0  0  0  0  0  0  0  0  0  0  0  0
   21.5830   79.5590   13.8700 H   0  0  0  0  0  0  0  0  0  0  0  0
   20.7560   77.7760   10.9320 H   0  0  0  0  0  0  0  0  0  0  0  0
   20.2440   78.1710   12.6190 H   0  0  0  0  0  0  0  0  0  0  0  0
   19.5590   79.8700   11.1040 H   0  0  0  0  0  0  0  0  0  0  0  0
   20.8160   80.5660   12.2230 H   0  0  0  0  0  0  0  0  0  0  0  0
   22.3690   78.5350    9.6810 H   0  0  0  0  0  0  0  0  0  0  0  0
   23.2780   80.0730    9.6170 H   0  0  0  0  0  0  0  0  0  0  0  0
   24.1390   78.7350   11.3580 H   0  0  0  0  0  0  0  0  0  0  0  0
   23.3430   80.1520   12.1060 H   0  0  0  0  0  0  0  0  0  0  0  0
  2 10  1  0  0  0  0
  2  1  1  0  0  0  0
  3  2  2  0  0  0  0
  4  8  2  0  0  0  0
  4  3  1  0  0  0  0
  5  4  1  0  0  0  0
  6  5  1  0  0  0  0
  6  7  2  0  0  0  0
  7  8  1  0  0  0  0
  8  9  1  0  0  0  0
  9 30  1  0  0  0  0
  9 10  2  0  0  0  0
 10 31  1  0  0  0  0
 11  7  1  0  0  0  0
 11 15  1  0  0  0  0
 12 13  1  0  0  0  0
 12 11  1  0  0  0  0
 13 34  1  6  0  0  0
 13 14  1  0  0  0  0
 14 36  1  0  0  0  0
 14 35  1  0  0  0  0
 14 15  1  0  0  0  0
 15 16  2  0  0  0  0
 17 13  1  0  0  0  0
 17 18  2  0  0  0  0
 19 17  1  0  0  0  0
 20 38  1  0  0  0  0
 20 19  1  0  0  0  0
 21 41  1  0  0  0  0
 21 40  1  0  0  0  0
 21 20  1  0  0  0  0
 22 21  1  0  0  0  0
 23 22  1  0  0  0  0
 23 43  1  0  0  0  0
 24 23  1  0  0  0  0
 24 45  1  0  0  0  0
 25 24  1  0  0  0  0
 26 25  1  0  0  0  0
 26 27  1  0  0  0  0
 27 49  1  0  0  0  0
 27 22  1  0  0  0  0
 28  3  1  0  0  0  0
 29  5  1  0  0  0  0
 32 12  1  0  0  0  0
 33 12  1  0  0  0  0
 37 19  1  0  0  0  0
 39 20  1  0  0  0  0
 42 23  1  0  0  0  0
 44 24  1  0  0  0  0
 46 26  1  0  0  0  0
 47 26  1  0  0  0  0
 48 27  1  0  0  0  0
M  END
>  <Pose>
1

>  <Score>
-5.65

$$$$
