
 OpenBabel03222202113D

 40 43  0  0  1  0  0  0  0  0999 V2000
   19.5030   81.2600   10.7110 Cl  0  0  0  0  0  0  0  0  0  0  0  0
   20.7150   80.1520   11.3170 C   0  0  0  0  0  0  0  0  0  0  0  0
   21.3680   80.1840   12.5120 N   0  0  0  0  0  0  0  0  0  0  0  0
   22.2300   79.1740   12.6340 C   0  0  0  0  0  0  0  0  0  0  0  0
   22.0960   78.4710   11.4300 C   0  0  0  0  0  0  0  0  0  0  0  0
   21.1650   79.0680   10.6140 C   0  0  0  0  0  0  0  0  0  0  0  0
   20.6490   78.5690    9.0170 Cl  0  0  0  0  0  0  0  0  0  0  0  0
   23.1340   78.8240   13.6990 C   0  0  0  0  0  0  0  0  0  0  0  0
   24.2540   79.5200   13.6530 O   0  0  0  0  0  0  0  0  0  0  0  0
   23.0090   77.9010   14.7250 N   0  0  0  0  0  0  0  0  0  0  0  0
   21.8190   77.0160   14.7190 C   0  0  0  0  0  0  0  0  0  0  0  0
   21.0720   77.3150   15.9910 C   0  0  0  0  0  0  0  0  0  0  0  0
   21.7460   78.2040   16.8840 N   0  0  0  0  0  0  0  0  0  0  0  0
   23.1930   78.2860   17.0220 C   0  0  0  0  0  0  0  0  0  0  0  0
   23.8710   77.6470   15.8190 C   0  0  0  0  0  0  0  0  0  0  0  0
   20.9920   79.0830   17.7090 C   0  0  2  0  0  0  0  0  0  0  0  0
   20.8500   80.3830   17.3920 N   0  0  0  0  0  0  0  0  0  0  0  0
   20.1370   81.2350   18.1670 C   0  0  0  0  0  0  0  0  0  0  0  0
   19.5440   80.7970   19.2900 N   0  0  0  0  0  0  0  0  0  0  0  0
   19.6380   79.5140   19.6760 C   0  0  0  0  0  0  0  0  0  0  0  0
   19.1490   78.8370   20.7310 N   0  0  0  0  0  0  0  0  0  0  0  0
   19.5530   77.5880   20.6110 N   0  0  0  0  0  0  0  0  0  0  0  0
   20.3000   77.4330   19.4930 C   0  0  0  0  0  0  0  0  0  0  0  0
   20.3780   78.6480   18.8640 C   0  0  0  0  0  0  0  0  0  0  0  0
   18.3240   79.3540   21.8240 C   0  0  0  0  0  0  0  0  0  0  0  0
   21.1380   80.9450   13.1820 H   0  0  0  0  0  0  0  0  0  0  0  0
   22.6260   77.5640   11.1120 H   0  0  0  0  0  0  0  0  0  0  0  0
   21.2270   77.1990   13.8110 H   0  0  0  0  0  0  0  0  0  0  0  0
   22.1980   75.9630   14.7270 H   0  0  0  0  0  0  0  0  0  0  0  0
   20.0630   77.6660   15.6990 H   0  0  0  0  0  0  0  0  0  0  0  0
   20.8890   76.3370   16.5240 H   0  0  0  0  0  0  0  0  0  0  0  0
   23.5090   77.7990   17.9490 H   0  0  0  0  0  0  0  0  0  0  0  0
   23.4600   79.3540   17.0470 H   0  0  0  0  0  0  0  0  0  0  0  0
   23.8110   76.5180   16.0750 H   0  0  0  0  0  0  0  0  0  0  0  0
   24.9120   77.8870   15.7580 H   0  0  0  0  0  0  0  0  0  0  0  0
   20.0390   82.2740   17.8900 H   0  0  0  0  0  0  0  0  0  0  0  0
   20.7470   76.5270   19.1610 H   0  0  0  0  0  0  0  0  0  0  0  0
   18.9640   79.3550   22.7450 H   0  0  0  0  0  0  0  0  0  0  0  0
   17.4200   78.7490   21.9780 H   0  0  0  0  0  0  0  0  0  0  0  0
   18.0210   80.3870   21.6270 H   0  0  0  0  0  0  0  0  0  0  0  0
  1  2  1  0  0  0  0
  2  3  1  0  0  0  0
  3  4  1  0  0  0  0
  3 26  1  0  0  0  0
  4  8  1  0  0  0  0
  5  4  2  0  0  0  0
  6  2  2  0  0  0  0
  6  5  1  0  0  0  0
  7  6  1  0  0  0  0
  8 10  1  0  0  0  0
  9  8  2  0  0  0  0
 10 15  1  0  0  0  0
 11 10  1  0  0  0  0
 11 29  1  0  0  0  0
 11 12  1  0  0  0  0
 12 31  1  0  0  0  0
 12 13  1  0  0  0  0
 13 14  1  0  0  0  0
 14 33  1  0  0  0  0
 14 32  1  0  0  0  0
 15 34  1  0  0  0  0
 15 14  1  0  0  0  0
 16 13  1  1  0  0  0
 16 24  1  0  0  0  0
 17 16  1  0  0  0  0
 17 18  2  0  0  0  0
 18 19  1  0  0  0  0
 19 20  1  0  0  0  0
 20 21  1  0  0  0  0
 21 25  1  0  0  0  0
 22 21  1  0  0  0  0
 23 22  2  0  0  0  0
 24 23  1  0  0  0  0
 24 20  2  0  0  0  0
 25 39  1  0  0  0  0
 25 38  1  0  0  0  0
 27  5  1  0  0  0  0
 28 11  1  0  0  0  0
 30 12  1  0  0  0  0
 35 15  1  0  0  0  0
 36 18  1  0  0  0  0
 37 23  1  0  0  0  0
 40 25  1  0  0  0  0
M  END
>  <Pose>
1

>  <Score>
-6.48

$$$$
