
 OpenBabel03222202113D

 55 59  0  0  1  0  0  0  0  0999 V2000
   17.4280   78.4530    7.0290 B   0  0  0  0  0  0  0  0  0  0  0  0
   18.3660   78.1800    8.6550 C   0  0  0  0  0  0  0  0  0  0  0  0
   18.5740   79.1940    9.5440 C   0  0  0  0  0  0  0  0  0  0  0  0
   19.2620   78.9580   10.7190 C   0  0  0  0  0  0  0  0  0  0  0  0
   19.7770   77.7130   11.0770 C   0  0  0  0  0  0  0  0  0  0  0  0
   19.5630   76.7100   10.1830 C   0  0  0  0  0  0  0  0  0  0  0  0
   18.8600   76.9460    8.9770 C   0  0  0  0  0  0  0  0  0  0  0  0
   20.5000   77.6000   12.3490 C   0  0  0  0  0  0  0  0  0  0  0  0
   21.6160   78.4050   12.6390 C   0  0  0  0  0  0  0  0  0  0  0  0
   22.0580   78.1080   13.8590 N   0  0  0  0  0  0  0  0  0  0  0  0
   23.0120   78.4370   14.7700 C   0  0  0  0  0  0  0  0  0  0  0  0
   22.8000   77.6560   15.8540 C   0  0  0  0  0  0  0  0  0  0  0  0
   21.7390   76.8820   15.5830 N   0  0  0  0  0  0  0  0  0  0  0  0
   21.2660   77.1510   14.3450 C   0  0  1  0  0  0  0  0  0  0  0  0
   20.3000   76.8250   13.4240 N   0  0  0  0  0  0  0  0  0  0  0  0
   19.2840   75.8510   13.6500 C   0  0  0  0  0  0  0  0  0  0  0  0
   19.6450   74.4350   13.2810 C   0  0  0  0  0  0  0  0  0  0  0  0
   18.5500   73.4690   13.1960 C   0  0  0  0  0  0  0  0  0  0  0  0
   18.6340   72.3790   12.2690 N   0  0  0  0  0  4  0  0  0  0  0  0
   19.5340   71.3340   12.7210 C   0  0  0  0  0  0  0  0  0  0  0  0
   18.9460   70.2900   13.5720 C   0  0  0  0  0  0  0  0  0  0  0  0
   17.4660   70.2560   13.6620 C   0  0  0  0  0  0  0  0  0  0  0  0
   16.8370   70.6780   12.3810 C   0  0  0  0  0  0  0  0  0  0  0  0
   17.3900   71.9110   11.7700 C   0  0  0  0  0  0  0  0  0  0  0  0
   23.6180   77.7560   16.9650 C   0  0  0  0  0  0  0  0  0  0  0  0
   24.6690   78.6580   16.9900 C   0  0  0  0  0  0  0  0  0  0  0  0
   24.8870   79.4590   15.8770 C   0  0  0  0  0  0  0  0  0  0  0  0
   24.0530   79.3320   14.7890 C   0  0  0  0  0  0  0  0  0  0  0  0
   18.1880   80.1720    9.2990 H   0  0  0  0  0  0  0  0  0  0  0  0
   19.3930   79.8050   11.3880 H   0  0  0  0  0  0  0  0  0  0  0  0
   19.9160   75.7320   10.3530 H   0  0  0  0  0  0  0  0  0  0  0  0
   18.7140   76.1220    8.3010 H   0  0  0  0  0  0  0  0  0  0  0  0
   22.0860   79.1530   12.0250 H   0  0  0  0  0  0  0  0  0  0  0  0
   21.3180   76.1710   16.2360 H   0  0  0  0  0  0  0  0  0  0  0  0
   18.2930   76.1410   13.2750 H   0  0  0  0  0  0  0  0  0  0  0  0
   19.1060   75.8900   14.7900 H   0  0  0  0  0  0  0  0  0  0  0  0
   20.3130   74.0760   14.1330 H   0  0  0  0  0  0  0  0  0  0  0  0
   20.3630   74.4050   12.4220 H   0  0  0  0  0  0  0  0  0  0  0  0
   17.6200   74.0440   12.8950 H   0  0  0  0  0  0  0  0  0  0  0  0
   18.2760   73.1040   14.2310 H   0  0  0  0  0  0  0  0  0  0  0  0
   19.1530   72.7730   11.4520 H   0  0  0  0  0  0  0  0  0  0  0  0
   20.0810   70.8440   11.8850 H   0  0  0  0  0  0  0  0  0  0  0  0
   20.3470   71.8850   13.2850 H   0  0  0  0  0  0  0  0  0  0  0  0
   19.3370   70.3890   14.6290 H   0  0  0  0  0  0  0  0  0  0  0  0
   19.2950   69.2560   13.2740 H   0  0  0  0  0  0  0  0  0  0  0  0
   17.1370   69.2220   13.8970 H   0  0  0  0  0  0  0  0  0  0  0  0
   17.1010   70.8660   14.5420 H   0  0  0  0  0  0  0  0  0  0  0  0
   15.7380   70.7970   12.5680 H   0  0  0  0  0  0  0  0  0  0  0  0
   16.9000   69.8080   11.6710 H   0  0  0  0  0  0  0  0  0  0  0  0
   16.6470   72.7490   11.9090 H   0  0  0  0  0  0  0  0  0  0  0  0
   17.3980   71.7520   10.6560 H   0  0  0  0  0  0  0  0  0  0  0  0
   23.4510   77.1340   17.8320 H   0  0  0  0  0  0  0  0  0  0  0  0
   25.3260   78.7580   17.8460 H   0  0  0  0  0  0  0  0  0  0  0  0
   25.7110   80.1510   15.9250 H   0  0  0  0  0  0  0  0  0  0  0  0
   24.2260   79.9510   13.9390 H   0  0  0  0  0  0  0  0  0  0  0  0
  1  2  1  0  0  0  0
  2  7  2  0  0  0  0
  2  3  1  0  0  0  0
  3  4  2  0  0  0  0
  4  5  1  0  0  0  0
  4 30  1  0  0  0  0
  5  8  1  0  0  0  0
  6 31  1  0  0  0  0
  6  5  2  0  0  0  0
  7  6  1  0  0  0  0
  8  9  2  0  0  0  0
  8 15  1  0  0  0  0
  9 10  1  0  0  0  0
 10 14  1  0  0  0  0
 10 11  1  0  0  0  0
 11 28  2  0  0  0  0
 11 12  1  0  0  0  0
 12 25  2  0  0  0  0
 13 12  1  0  0  0  0
 13 34  1  0  0  0  0
 14 15  1  1  0  0  0
 14 13  1  0  0  0  0
 15 16  1  0  0  0  0
 16 36  1  0  0  0  0
 17 16  1  0  0  0  0
 17 37  1  0  0  0  0
 18 17  1  0  0  0  0
 18 40  1  0  0  0  0
 19 20  1  0  0  0  0
 19 18  1  0  0  0  0
 20 43  1  0  0  0  0
 20 21  1  0  0  0  0
 21 22  1  0  0  0  0
 21 44  1  0  0  0  0
 22 46  1  0  0  0  0
 22 47  1  0  0  0  0
 23 48  1  0  0  0  0
 23 22  1  0  0  0  0
 24 50  1  0  0  0  0
 24 19  1  0  0  0  0
 24 23  1  0  0  0  0
 25 26  1  0  0  0  0
 25 52  1  0  0  0  0
 26 53  1  0  0  0  0
 27 54  1  0  0  0  0
 27 26  2  0  0  0  0
 28 27  1  0  0  0  0
 29  3  1  0  0  0  0
 32  7  1  0  0  0  0
 33  9  1  0  0  0  0
 35 16  1  0  0  0  0
 38 17  1  0  0  0  0
 39 18  1  0  0  0  0
 41 19  1  0  0  0  0
 42 20  1  0  0  0  0
 45 21  1  0  0  0  0
 49 23  1  0  0  0  0
 51 24  1  0  0  0  0
 55 28  1  0  0  0  0
M  END
>  <Pose>
1

>  <Score>
-5.23

$$$$
