
 OpenBabel03222202113D

 62 65  0  0  1  0  0  0  0  0999 V2000
   17.6960   75.5200    6.1170 S   0  0  0  0  0  0  0  0  0  0  0  0
   18.3500   74.5140    7.0390 O   0  0  0  0  0  0  0  0  0  0  0  0
   16.1960   75.3610    6.3270 O   0  0  0  0  0  0  0  0  0  0  0  0
   18.1080   77.1290    6.4750 N   0  0  0  0  0  0  0  0  0  0  0  0
   19.4960   77.4290    6.3590 C   0  0  0  0  0  0  0  0  0  0  0  0
   20.1310   77.3270    7.7320 C   0  0  0  0  0  0  0  0  0  0  0  0
   19.6370   78.4330    8.5150 N   0  0  0  0  0  0  0  0  0  0  0  0
   18.3200   78.8530    8.2080 C   0  0  0  0  0  0  0  0  0  0  0  0
   17.5480   77.6420    7.6830 C   0  0  0  0  0  0  0  0  0  0  0  0
   20.5960   79.4340    8.8230 C   0  0  0  0  0  0  0  0  0  0  0  0
   21.4720   78.9460    9.9220 C   0  0  1  0  0  0  0  0  0  0  0  0
   22.9100   78.8610    9.5350 C   0  0  0  0  0  0  0  0  0  0  0  0
   23.3040   79.0250    8.3550 O   0  0  0  0  0  0  0  0  0  0  0  0
   23.7630   78.5850   10.6000 O   0  0  0  0  0  0  0  0  0  0  0  0
   23.5190   78.9320   11.9120 C   0  0  0  0  0  0  0  0  0  0  0  0
   22.3710   79.5880   12.1870 C   0  0  0  0  0  0  0  0  0  0  0  0
   21.4690   79.8910   11.0960 C   0  0  0  0  0  0  0  0  0  0  0  0
   20.7180   80.8810   11.1040 O   0  0  0  0  0  0  0  0  0  0  0  0
   22.0460   80.0080   13.5570 C   0  0  0  0  0  0  0  0  0  0  0  0
   22.5720   79.1980   14.5770 N   0  0  0  0  0  0  0  0  0  0  0  0
   21.9120   78.0330   14.9890 C   0  0  0  0  0  0  0  0  0  0  0  0
   22.3610   77.6360   16.4140 C   0  0  0  0  0  0  0  0  0  0  0  0
   22.2710   78.8510   17.1820 N   0  0  0  0  0  0  0  0  0  0  0  0
   23.2680   79.8540   16.8360 C   0  0  0  0  0  0  0  0  0  0  0  0
   23.6350   79.7060   15.3660 C   0  0  0  0  0  0  0  0  0  0  0  0
   21.2940   79.0550   18.1760 C   0  0  0  0  0  0  0  0  0  0  0  0
   20.8500   80.2960   18.5700 C   0  0  0  0  0  0  0  0  0  0  0  0
   19.8890   80.4380   19.5440 C   0  0  0  0  0  0  0  0  0  0  0  0
   19.3200   79.3570   20.1760 C   0  0  0  0  0  0  0  0  0  0  0  0
   19.7420   78.1060   19.8050 C   0  0  0  0  0  0  0  0  0  0  0  0
   20.7110   77.9600   18.8230 C   0  0  0  0  0  0  0  0  0  0  0  0
   19.3690   82.0370   20.0010 Cl  0  0  0  0  0  0  0  0  0  0  0  0
   18.0390   75.0510    4.4620 C   0  0  0  0  0  0  0  0  0  0  0  0
   19.5610   78.5250    6.0890 H   0  0  0  0  0  0  0  0  0  0  0  0
   20.0160   76.8840    5.5770 H   0  0  0  0  0  0  0  0  0  0  0  0
   19.7730   76.3920    8.2070 H   0  0  0  0  0  0  0  0  0  0  0  0
   21.2210   77.2890    7.6860 H   0  0  0  0  0  0  0  0  0  0  0  0
   18.2440   79.7190    7.5290 H   0  0  0  0  0  0  0  0  0  0  0  0
   17.8100   79.1530    9.1630 H   0  0  0  0  0  0  0  0  0  0  0  0
   17.5750   76.8800    8.5050 H   0  0  0  0  0  0  0  0  0  0  0  0
   16.4680   77.8930    7.5560 H   0  0  0  0  0  0  0  0  0  0  0  0
   21.2540   79.6610    7.9480 H   0  0  0  0  0  0  0  0  0  0  0  0
   20.0360   80.3620    9.0830 H   0  0  0  0  0  0  0  0  0  0  0  0
   21.1490   77.9640   10.2660 H   0  0  0  0  0  0  0  0  0  0  0  0
   24.1820   78.7140   12.7320 H   0  0  0  0  0  0  0  0  0  0  0  0
   20.9250   80.1260   13.6040 H   0  0  0  0  0  0  0  0  0  0  0  0
   22.4610   81.0520   13.6940 H   0  0  0  0  0  0  0  0  0  0  0  0
   22.1030   77.1390   14.3760 H   0  0  0  0  0  0  0  0  0  0  0  0
   20.8150   78.2430   15.1500 H   0  0  0  0  0  0  0  0  0  0  0  0
   21.8210   76.7800   16.8000 H   0  0  0  0  0  0  0  0  0  0  0  0
   23.4190   77.3160   16.2800 H   0  0  0  0  0  0  0  0  0  0  0  0
   22.9140   80.8760   16.9850 H   0  0  0  0  0  0  0  0  0  0  0  0
   24.1850   79.6030   17.4060 H   0  0  0  0  0  0  0  0  0  0  0  0
   23.9200   80.7100   14.9980 H   0  0  0  0  0  0  0  0  0  0  0  0
   24.5330   79.0660   15.2430 H   0  0  0  0  0  0  0  0  0  0  0  0
   21.2960   81.1710   18.0760 H   0  0  0  0  0  0  0  0  0  0  0  0
   18.5530   79.4870   20.9530 H   0  0  0  0  0  0  0  0  0  0  0  0
   19.3280   77.2070   20.2700 H   0  0  0  0  0  0  0  0  0  0  0  0
   21.0540   76.9760   18.5160 H   0  0  0  0  0  0  0  0  0  0  0  0
   19.0350   74.5890    4.3210 H   0  0  0  0  0  0  0  0  0  0  0  0
   17.3010   74.2750    4.1070 H   0  0  0  0  0  0  0  0  0  0  0  0
   17.9660   75.8810    3.7310 H   0  0  0  0  0  0  0  0  0  0  0  0
  1  3  2  0  0  0  0
  1  4  1  0  0  0  0
  1  2  2  0  0  0  0
  4  9  1  0  0  0  0
  5  4  1  0  0  0  0
  5  6  1  0  0  0  0
  6 36  1  0  0  0  0
  6  7  1  0  0  0  0
  7 10  1  0  0  0  0
  8  7  1  0  0  0  0
  8 39  1  0  0  0  0
  9  8  1  0  0  0  0
  9 40  1  0  0  0  0
 10 43  1  0  0  0  0
 10 11  1  0  0  0  0
 11 44  1  1  0  0  0
 11 17  1  0  0  0  0
 12 11  1  0  0  0  0
 12 14  1  0  0  0  0
 13 12  2  0  0  0  0
 14 15  1  0  0  0  0
 15 16  2  0  0  0  0
 15 45  1  0  0  0  0
 16 19  1  0  0  0  0
 17 18  2  0  0  0  0
 17 16  1  0  0  0  0
 19 46  1  0  0  0  0
 19 47  1  0  0  0  0
 19 20  1  0  0  0  0
 20 21  1  0  0  0  0
 20 25  1  0  0  0  0
 21 49  1  0  0  0  0
 21 22  1  0  0  0  0
 22 50  1  0  0  0  0
 22 23  1  0  0  0  0
 23 26  1  0  0  0  0
 24 52  1  0  0  0  0
 24 23  1  0  0  0  0
 24 53  1  0  0  0  0
 25 24  1  0  0  0  0
 26 27  2  0  0  0  0
 26 31  1  0  0  0  0
 27 28  1  0  0  0  0
 28 32  1  0  0  0  0
 28 29  2  0  0  0  0
 29 57  1  0  0  0  0
 30 29  1  0  0  0  0
 30 58  1  0  0  0  0
 31 30  2  0  0  0  0
 33  1  1  0  0  0  0
 34  5  1  0  0  0  0
 35  5  1  0  0  0  0
 37  6  1  0  0  0  0
 38  8  1  0  0  0  0
 41  9  1  0  0  0  0
 42 10  1  0  0  0  0
 48 21  1  0  0  0  0
 51 22  1  0  0  0  0
 54 25  1  0  0  0  0
 55 25  1  0  0  0  0
 56 27  1  0  0  0  0
 59 31  1  0  0  0  0
 60 33  1  0  0  0  0
 61 33  1  0  0  0  0
 62 33  1  0  0  0  0
M  END
>  <Pose>
1

>  <Score>
-7.21

$$$$
