3


 38 41  0  0  0  0  0  0  0  0999 V2000
  -39.2462  -62.8138   48.0258 C   0  0  0  0  0  0  0  0  0  0  0  0
  -39.9687  -62.0847   47.1148 N   0  0  0  0  0  0  0  0  0  0  0  0
  -39.1601  -61.3263   46.4279 N   0  0  0  0  0  0  0  0  0  0  0  0
  -37.9051  -61.4874   46.8105 N   0  0  0  0  0  0  0  0  0  0  0  0
  -37.9297  -62.3990   47.7975 C   0  0  0  0  0  0  0  0  0  0  0  0
  -36.8044  -60.8183   46.2210 C   0  0  0  0  0  0  0  0  0  0  0  0
  -36.3794  -59.5487   46.3951 N   0  0  0  0  0  0  0  0  0  0  0  0
  -35.3149  -59.3348   45.6682 O   0  0  0  0  0  0  0  0  0  0  0  0
  -34.9941  -60.4136   45.0005 N   0  0  0  0  0  0  0  0  0  0  0  0
  -35.8975  -61.3553   45.3200 C   0  0  0  0  0  0  0  0  0  0  0  0
  -35.8926  -62.6685   44.8023 N   0  0  0  0  0  0  0  0  0  0  0  0
  -35.1503  -63.3238   45.1075 H   0  0  0  0  0  0  0  0  0  0  0  0
  -36.6028  -63.0056   44.1278 H   0  0  0  0  0  0  0  0  0  0  0  0
  -39.9322  -65.1410   48.8511 N   0  0  0  0  0  0  0  0  0  0  0  0
  -39.8049  -63.7636   48.9692 C   0  0  0  0  0  0  0  0  0  0  0  0
  -40.2389  -63.2369   50.0620 O   0  0  0  0  0  0  0  0  0  0  0  0
  -39.6425  -65.7386   48.0409 H   0  0  0  0  0  0  0  0  0  0  0  0
  -39.7795  -66.5219   50.7446 C   0  0  0  0  0  0  0  0  0  0  0  0
  -40.5298  -65.8407   49.9540 N   0  0  0  0  0  0  0  0  0  0  0  0
  -39.0423  -70.4882   54.1898 Br  0  0  0  0  0  0  0  0  0  0  0  0
  -40.0576  -69.0386   53.5139 C   0  0  0  0  0  0  0  0  0  0  0  0
  -41.2439  -68.7046   54.0988 C   0  0  0  0  0  0  0  0  0  0  0  0
  -41.9681  -67.6350   53.5786 C   0  0  0  0  0  0  0  0  0  0  0  0
  -41.4711  -66.9363   52.4829 C   0  0  0  0  0  0  0  0  0  0  0  0
  -40.2816  -67.2652   51.8900 C   0  0  0  0  0  0  0  0  0  0  0  0
  -39.5764  -68.3252   52.4149 C   0  0  0  0  0  0  0  0  0  0  0  0
  -38.3733  -68.6491   51.8069 O   0  0  0  0  0  0  0  0  0  0  0  0
  -43.6198  -67.1447   54.3687 Br  0  0  0  0  0  0  0  0  0  0  0  0
  -41.7568  -69.3878   55.1918 O   0  0  0  0  0  0  0  0  0  0  0  0
  -37.8177  -69.4202   52.1555 H   0  0  0  0  0  0  0  0  0  0  0  0
  -42.6356  -69.1219   55.6051 H   0  0  0  0  0  0  0  0  0  0  0  0
  -36.7780  -62.9399   48.5255 C   0  0  0  0  0  0  0  0  0  0  0  0
  -35.9476  -63.8600   47.7437 N   0  0  0  0  0  0  0  0  0  0  0  0
  -36.3037  -65.2431   48.1166 C   0  0  0  0  0  0  0  0  0  0  0  0
  -36.3633  -65.3666   49.5991 C   0  0  0  0  0  0  0  0  0  0  0  0
  -35.1835  -64.9263   50.1470 O   0  0  0  0  0  0  0  0  0  0  0  0
  -34.1907  -64.6845   49.2343 C   0  0  0  0  0  0  0  0  0  0  0  0
  -34.5391  -63.6787   48.1682 C   0  0  0  0  0  0  0  0  0  0  0  0
 20 21  1  0  0  0
 21 22  2  0  0  0
 21 26  1  0  0  0
 22 23  1  0  0  0
 22 29  1  0  0  0
 23 24  2  0  0  0
 23 28  1  0  0  0
 24 25  1  0  0  0
 25 26  2  0  0  0
 25 18  1  0  0  0
 26 27  1  0  0  0
 18 19  2  0  0  0
 19 14  1  0  0  0
 14 15  1  0  0  0
 15 16  2  0  0  0
 15  1  1  0  0  0
  1  2  1  0  0  0
  1  5  2  0  0  0
  2  3  2  0  0  0
  3  4  1  0  0  0
  4  5  1  0  0  0
  4  6  1  0  0  0
  5 32  1  0  0  0
 32 33  1  0  0  0
 33 34  1  0  0  0
 33 38  1  0  0  0
 34 35  1  0  0  0
 35 36  1  0  0  0
 36 37  1  0  0  0
 37 38  1  0  0  0
  6  7  2  0  0  0
  6 10  1  0  0  0
  7  8  1  0  0  0
  8  9  1  0  0  0
  9 10  2  0  0  0
 10 11  1  0  0  0
 27 30  1  0  0  0
 14 17  1  0  0  0
 11 12  1  0  0  0
 11 13  1  0  0  0
 29 31  1  0  0  0
M  END
> <minimizedAffinity>
-8.04954

$$$$
708


 31 34  0  0  0  0  0  0  0  0999 V2000
  -38.1458  -65.4713   49.4378 C   0  0  0  0  0  0  0  0  0  0  0  0
  -39.1895  -66.5481   49.3812 C   0  0  0  0  0  0  0  0  0  0  0  0
  -41.5988  -64.7093   50.5649 Br  0  0  0  0  0  0  0  0  0  0  0  0
  -40.7385  -66.2339   51.3138 C   0  0  0  0  0  0  0  0  0  0  0  0
  -39.7331  -66.9069   50.6750 N   0  0  0  0  0  0  0  0  0  0  0  0
  -39.3987  -67.9032   51.5189 C   0  0  0  0  0  0  0  0  0  0  0  0
  -40.1762  -67.8622   52.6651 C   0  0  0  0  0  0  0  0  0  0  0  0
  -41.0002  -66.8054   52.4984 N   0  0  0  0  0  0  0  0  0  0  0  0
  -40.0631  -68.7284   53.6867 N   0  0  0  0  0  0  0  0  0  0  0  0
  -39.1257  -69.6849   53.5627 C   0  0  0  0  0  0  0  0  0  0  0  0
  -38.9796  -70.5330   54.5060 O   0  0  0  0  0  0  0  0  0  0  0  0
  -38.3478  -69.7609   52.4671 N   0  0  0  0  0  0  0  0  0  0  0  0
  -38.4599  -68.8847   51.4301 C   0  0  0  0  0  0  0  0  0  0  0  0
  -37.7291  -68.9677   50.4215 O   0  0  0  0  0  0  0  0  0  0  0  0
  -40.8807  -68.6789   54.8800 C   0  0  0  0  0  0  0  0  0  0  0  0
  -37.6173  -70.4958   52.3554 H   0  0  0  0  0  0  0  0  0  0  0  0
  -37.6516  -65.0072   48.0978 C   0  0  0  0  0  0  0  0  0  0  0  0
  -36.2078  -65.1780   48.0121 N   0  0  0  0  0  0  0  0  0  0  0  0
  -35.2386  -64.2632   48.2426 C   0  0  0  0  0  0  0  0  0  0  0  0
  -33.9975  -64.8255   48.0540 C   0  0  0  0  0  0  0  0  0  0  0  0
  -34.2295  -66.1042   47.7028 N   0  0  0  0  0  0  0  0  0  0  0  0
  -35.5642  -66.3084   47.6793 C   0  0  0  0  0  0  0  0  0  0  0  0
  -36.4640  -67.9368   47.2486 Br  0  0  0  0  0  0  0  0  0  0  0  0
  -32.8420  -64.1534   48.2116 N   0  0  0  0  0  0  0  0  0  0  0  0
  -32.9445  -62.8519   48.5768 C   0  0  0  0  0  0  0  0  0  0  0  0
  -31.8573  -62.2151   48.7276 O   0  0  0  0  0  0  0  0  0  0  0  0
  -34.1422  -62.2615   48.7722 N   0  0  0  0  0  0  0  0  0  0  0  0
  -35.2939  -62.9449   48.6117 C   0  0  0  0  0  0  0  0  0  0  0  0
  -36.4230  -62.4255   48.7856 O   0  0  0  0  0  0  0  0  0  0  0  0
  -31.5457  -64.7928   47.9997 C   0  0  0  0  0  0  0  0  0  0  0  0
  -34.1588  -61.2608   49.0524 H   0  0  0  0  0  0  0  0  0  0  0  0
  3  4  1  0  0  0
  4  5  1  0  0  0
  4  8  2  0  0  0
  5  6  1  0  0  0
  5  2  1  0  0  0
  6  7  2  0  0  0
  6 13  1  0  0  0
  7  8  1  0  0  0
  7  9  1  0  0  0
  9 10  1  0  0  0
  9 15  1  0  0  0
 10 11  2  0  0  0
 10 12  1  0  0  0
 12 13  1  0  0  0
 13 14  2  0  0  0
  2  1  1  0  0  0
  1 17  1  0  0  0
 17 18  1  0  0  0
 18 19  1  0  0  0
 18 22  1  0  0  0
 19 20  2  0  0  0
 19 28  1  0  0  0
 20 21  1  0  0  0
 20 24  1  0  0  0
 21 22  2  0  0  0
 22 23  1  0  0  0
 24 25  1  0  0  0
 24 30  1  0  0  0
 25 26  2  0  0  0
 25 27  1  0  0  0
 27 28  1  0  0  0
 28 29  2  0  0  0
 12 16  1  0  0  0
 27 31  1  0  0  0
M  END
> <minimizedAffinity>
-8.19901

$$$$
1808


 24 28  0  0  0  0  0  0  0  0999 V2000
  -36.9545  -67.2781   49.1114 N   0  0  0  0  0  0  0  0  0  0  0  0
  -35.5427  -67.2830   49.2539 C   0  0  0  0  0  0  0  0  0  0  0  0
  -34.9211  -67.9860   50.0864 O   0  0  0  0  0  0  0  0  0  0  0  0
  -34.9513  -66.3363   48.2705 C   0  0  0  0  0  0  0  0  0  0  0  0
  -34.7168  -64.9802   48.8609 C   0  0  0  0  0  0  0  0  0  0  0  0
  -34.9090  -64.1687   47.7207 O   0  0  0  0  0  0  0  0  0  0  0  0
  -36.2467  -64.5581   47.4583 C   0  0  0  0  0  0  0  0  0  0  0  0
  -36.0896  -66.0308   47.2958 C   0  0  0  0  0  0  0  0  0  0  0  0
  -37.2829  -66.7399   47.8309 C   0  0  0  0  0  0  0  0  0  0  0  0
  -38.3658  -66.8344   47.2471 O   0  0  0  0  0  0  0  0  0  0  0  0
  -36.8421  -64.2921   48.7937 C   0  0  0  0  0  0  0  0  0  0  0  0
  -35.8946  -64.6214   49.6665 C   0  0  0  0  0  0  0  0  0  0  0  0
  -40.7489  -69.2695   53.4425 Br  0  0  0  0  0  0  0  0  0  0  0  0
  -39.5610  -68.6568   52.0966 C   0  0  0  0  0  0  0  0  0  0  0  0
  -38.4271  -69.3793   51.8144 C   0  0  0  0  0  0  0  0  0  0  0  0
  -37.5829  -68.9117   50.8316 C   0  0  0  0  0  0  0  0  0  0  0  0
  -37.8401  -67.7525   50.1335 C   0  0  0  0  0  0  0  0  0  0  0  0
  -38.9859  -67.0218   50.4170 C   0  0  0  0  0  0  0  0  0  0  0  0
  -39.8397  -67.4996   51.4133 C   0  0  0  0  0  0  0  0  0  0  0  0
  -33.4063  -64.7800   49.4917 C   0  0  0  0  0  0  0  0  0  0  0  0
  -32.9240  -63.5045   49.3822 O   0  0  0  0  0  0  0  0  0  0  0  0
  -31.8459  -63.5114   48.5330 C   0  0  0  0  0  0  0  0  0  0  0  0
  -31.6589  -64.9279   48.0990 C   0  0  0  0  0  0  0  0  0  0  0  0
  -32.4531  -65.6456   48.9862 O   0  0  0  0  0  0  0  0  0  0  0  0
 13 14  1  0  0  0
 14 15  2  0  0  0
 14 19  1  0  0  0
 15 16  1  0  0  0
 16 17  2  0  0  0
 17 18  1  0  0  0
 17  1  1  0  0  0
 18 19  2  0  0  0
  1  2  1  0  0  0
  1  9  1  0  0  0
  2  3  2  0  0  0
  2  4  1  0  0  0
  4  5  1  0  0  0
  4  8  1  0  0  0
  5  6  1  0  0  0
  5 12  1  0  0  0
  5 20  1  0  0  0
  6  7  1  0  0  0
  7  8  1  0  0  0
  7 11  1  0  0  0
  8  9  1  0  0  0
  9 10  2  0  0  0
 11 12  2  0  0  0
 20 21  1  0  0  0
 20 24  1  0  0  0
 21 22  1  0  0  0
 22 23  1  0  0  0
 23 24  1  0  0  0
M  END
> <minimizedAffinity>
-7.93907

$$$$
