out/docking_results/vina_output/3elj_docked_ligand.pdbqt
 OpenBabel03072216093D

 39 42  0  0  1  0  0  0  0  0999 V2000
   20.6650    8.7190   32.3950 C   0  0  2  0  0  3  0  0  0  0  0  0
   21.3110    7.6430   31.9120 N   0  0  0  0  0  0  0  0  0  0  0  0
   19.4060    8.5020   32.9140 C   0  0  0  0  0  0  0  0  0  0  0  0
   18.9190    7.2200   32.8980 C   0  0  0  0  0  0  0  0  0  0  0  0
   17.6710    7.2370   33.4520 N   0  0  0  0  0  0  0  0  0  0  0  0
   17.0760    6.4290   33.5660 H   0  0  0  0  0  0  0  0  0  0  0  0
   17.3470    8.5090   33.8290 C   0  0  0  0  0  3  0  0  0  0  0  0
   18.4110    9.3230   33.5050 C   0  0  0  0  0  3  0  0  0  0  0  0
   19.5430    6.1460   32.4280 N   0  0  0  0  0  2  0  0  0  0  0  0
   20.7540    6.4260   31.9430 C   0  0  0  0  0  0  0  0  0  0  0  0
   21.4590    5.3210   31.4270 N   0  0  0  0  0  0  0  0  0  0  0  0
   20.9850    4.4290   31.4080 H   0  0  0  0  0  0  0  0  0  0  0  0
   22.7800    5.3720   30.9370 C   0  0  0  0  0  0  0  0  0  0  0  0
   23.7050    4.4600   31.3970 C   0  0  0  0  0  0  0  0  0  0  0  0
   25.0100    4.4720   30.9350 C   0  0  0  0  0  3  0  0  0  0  0  0
   25.3940    5.4090   29.9970 C   0  0  0  0  0  0  0  0  0  0  0  0
   24.4690    6.3240   29.5390 C   0  0  0  0  0  3  0  0  0  0  0  0
   23.1710    6.3020   29.9970 C   0  0  0  0  0  3  0  0  0  0  0  0
   23.2390    3.5520   32.3390 O   0  0  0  0  0  0  0  0  0  0  0  0
   24.2980    2.6980   32.7520 C   0  0  0  0  0  1  0  0  0  0  0  0
   26.7970    5.4610   29.4840 C   0  0  0  0  0  2  0  0  0  0  0  0
   26.7530    5.4320   27.7060 S   0  0  0  0  0  0  0  0  0  0  0  0
   27.0380    6.7630   27.2040 O   0  0  0  0  0  0  0  0  0  0  0  0
   25.5370    4.7420   27.3160 O   0  0  0  0  0  0  0  0  0  0  0  0
   28.1270    4.3920   27.3140 C   0  0  0  0  0  1  0  0  0  0  0  0
   21.1360   10.0370   32.4210 N   0  0  0  0  0  0  0  0  0  0  0  0
   20.4780   10.7350   32.7340 H   0  0  0  0  0  0  0  0  0  0  0  0
   22.4050   10.5070   32.0650 C   0  0  0  0  0  0  0  0  0  0  0  0
   22.5340   11.8290   31.6840 C   0  0  0  0  0  0  0  0  0  0  0  0
   23.7610   12.3430   31.3260 C   0  0  0  0  0  0  0  0  0  0  0  0
   23.8890   13.6270   30.9570 F   0  0  0  0  0  0  0  0  0  0  0  0
   24.8760   11.5380   31.3420 C   0  0  0  0  0  3  0  0  0  0  0  0
   24.7580   10.2200   31.7200 C   0  0  0  0  0  3  0  0  0  0  0  0
   23.5300    9.7100   32.0800 C   0  0  0  0  0  3  0  0  0  0  0  0
   21.3370   12.6910   31.6660 C   0  0  0  0  0  0  0  0  0  0  0  0
   20.6800   12.8680   32.6850 O   0  0  0  0  0  0  0  0  0  0  0  0
   21.0580   13.2460   30.4440 N   0  0  0  0  0  0  0  0  0  0  0  0
   20.2560   13.8510   30.3360 H   0  0  0  0  0  0  0  0  0  0  0  0
   21.6530   13.0480   29.6520 H   0  0  0  0  0  0  0  0  0  0  0  0
  1 26  1  6  0  0  0
  1  3  1  0  0  0  0
  2 10  2  0  0  0  0
  2  1  1  0  0  0  0
  3  8  1  0  0  0  0
  4  3  2  0  0  0  0
  4  5  1  0  0  0  0
  5  6  1  0  0  0  0
  5  7  1  0  0  0  0
  8  7  2  0  0  0  0
  9  4  1  0  0  0  0
 10  9  1  0  0  0  0
 11 10  1  0  0  0  0
 12 11  1  0  0  0  0
 13 14  1  0  0  0  0
 13 11  1  0  0  0  0
 14 19  1  0  0  0  0
 15 14  2  0  0  0  0
 16 15  1  0  0  0  0
 17 16  2  0  0  0  0
 17 18  1  0  0  0  0
 18 13  2  0  0  0  0
 19 20  1  0  0  0  0
 21 16  1  0  0  0  0
 22 21  1  0  0  0  0
 23 22  2  0  0  0  0
 24 22  2  0  0  0  0
 25 22  1  0  0  0  0
 26 27  1  0  0  0  0
 28 34  1  0  0  0  0
 28 26  1  0  0  0  0
 29 28  2  0  0  0  0
 30 32  2  0  0  0  0
 30 29  1  0  0  0  0
 31 30  1  0  0  0  0
 32 33  1  0  0  0  0
 33 34  2  0  0  0  0
 35 29  1  0  0  0  0
 35 36  2  0  0  0  0
 37 35  1  0  0  0  0
 38 37  1  0  0  0  0
 39 37  1  0  0  0  0
M  END
>  <Pose>
1

>  <Score>
-9.769

$$$$
out/docking_results/vina_output/3elj_docked_ligand.pdbqt
 OpenBabel03072216093D

 39 42  0  0  1  0  0  0  0  0999 V2000
   20.8170    8.6280   32.7200 C   0  0  2  0  0  3  0  0  0  0  0  0
   21.4270    7.5830   32.1340 N   0  0  0  0  0  0  0  0  0  0  0  0
   19.4760    8.4780   33.0070 C   0  0  0  0  0  0  0  0  0  0  0  0
   18.8780    7.2890   32.6760 C   0  0  0  0  0  0  0  0  0  0  0  0
   17.5650    7.3620   33.0430 N   0  0  0  0  0  0  0  0  0  0  0  0
   16.8860    6.6250   32.9150 H   0  0  0  0  0  0  0  0  0  0  0  0
   17.3070    8.5770   33.6090 C   0  0  0  0  0  3  0  0  0  0  0  0
   18.4810    9.2990   33.6000 C   0  0  0  0  0  3  0  0  0  0  0  0
   19.4650    6.2460   32.1000 N   0  0  0  0  0  2  0  0  0  0  0  0
   20.7590    6.4570   31.8510 C   0  0  0  0  0  0  0  0  0  0  0  0
   21.4300    5.3820   31.2350 N   0  0  0  0  0  0  0  0  0  0  0  0
   20.9190    4.5200   31.1090 H   0  0  0  0  0  0  0  0  0  0  0  0
   22.7640    5.4250   30.7840 C   0  0  0  0  0  0  0  0  0  0  0  0
   23.6810    4.5350   31.3020 C   0  0  0  0  0  0  0  0  0  0  0  0
   24.9990    4.5400   30.8790 C   0  0  0  0  0  3  0  0  0  0  0  0
   25.4060    5.4460   29.9220 C   0  0  0  0  0  0  0  0  0  0  0  0
   24.4900    6.3390   29.4050 C   0  0  0  0  0  3  0  0  0  0  0  0
   23.1790    6.3250   29.8240 C   0  0  0  0  0  3  0  0  0  0  0  0
   23.1920    3.6580   32.2610 O   0  0  0  0  0  0  0  0  0  0  0  0
   24.1960    2.7160   32.6110 C   0  0  0  0  0  1  0  0  0  0  0  0
   26.8240    5.4900   29.4500 C   0  0  0  0  0  2  0  0  0  0  0  0
   26.8300    5.4960   27.6710 S   0  0  0  0  0  0  0  0  0  0  0  0
   27.0430    6.8530   27.2040 O   0  0  0  0  0  0  0  0  0  0  0  0
   25.6720    4.7390   27.2330 O   0  0  0  0  0  0  0  0  0  0  0  0
   28.2780    4.5540   27.2970 C   0  0  0  0  0  1  0  0  0  0  0  0
   21.4000    9.8520   33.0650 N   0  0  0  0  0  0  0  0  0  0  0  0
   22.0330    9.8350   33.8510 H   0  0  0  0  0  0  0  0  0  0  0  0
   21.2140   11.0980   32.4550 C   0  0  0  0  0  0  0  0  0  0  0  0
   21.9620   11.3990   31.3330 C   0  0  0  0  0  0  0  0  0  0  0  0
   21.8180   12.6120   30.6930 C   0  0  0  0  0  0  0  0  0  0  0  0
   22.5420   12.9050   29.6030 F   0  0  0  0  0  0  0  0  0  0  0  0
   20.9220   13.5400   31.1720 C   0  0  0  0  0  3  0  0  0  0  0  0
   20.1730   13.2490   32.2900 C   0  0  0  0  0  3  0  0  0  0  0  0
   20.3190   12.0350   32.9250 C   0  0  0  0  0  3  0  0  0  0  0  0
   22.9230   10.4040   30.8210 C   0  0  0  0  0  0  0  0  0  0  0  0
   23.9980   10.2300   31.3810 O   0  0  0  0  0  0  0  0  0  0  0  0
   22.4980    9.7290   29.7060 N   0  0  0  0  0  0  0  0  0  0  0  0
   23.0900    9.0270   29.2850 H   0  0  0  0  0  0  0  0  0  0  0  0
   21.5940    9.9340   29.3060 H   0  0  0  0  0  0  0  0  0  0  0  0
  1  3  1  0  0  0  0
  1 26  1  6  0  0  0
  2  1  1  0  0  0  0
  3  8  1  0  0  0  0
  4  3  2  0  0  0  0
  4  5  1  0  0  0  0
  5  7  1  0  0  0  0
  6  5  1  0  0  0  0
  8  7  2  0  0  0  0
  9  4  1  0  0  0  0
 10  9  1  0  0  0  0
 10  2  2  0  0  0  0
 11 10  1  0  0  0  0
 12 11  1  0  0  0  0
 13 11  1  0  0  0  0
 13 14  1  0  0  0  0
 14 19  1  0  0  0  0
 15 14  2  0  0  0  0
 16 15  1  0  0  0  0
 17 18  1  0  0  0  0
 17 16  2  0  0  0  0
 18 13  2  0  0  0  0
 19 20  1  0  0  0  0
 21 16  1  0  0  0  0
 22 21  1  0  0  0  0
 23 22  2  0  0  0  0
 24 22  2  0  0  0  0
 25 22  1  0  0  0  0
 26 27  1  0  0  0  0
 28 34  1  0  0  0  0
 28 26  1  0  0  0  0
 29 28  2  0  0  0  0
 30 32  2  0  0  0  0
 30 29  1  0  0  0  0
 31 30  1  0  0  0  0
 32 33  1  0  0  0  0
 33 34  2  0  0  0  0
 35 29  1  0  0  0  0
 35 36  2  0  0  0  0
 37 35  1  0  0  0  0
 38 37  1  0  0  0  0
 39 37  1  0  0  0  0
M  END
>  <Pose>
2

>  <Score>
-9.453

$$$$
out/docking_results/vina_output/3elj_docked_ligand.pdbqt
 OpenBabel03072216093D

 39 42  0  0  1  0  0  0  0  0999 V2000
   21.0000    8.6290   32.4660 C   0  0  2  0  0  3  0  0  0  0  0  0
   21.5690    7.6170   31.7860 N   0  0  0  0  0  0  0  0  0  0  0  0
   19.6920    8.4470   32.8640 C   0  0  0  0  0  0  0  0  0  0  0  0
   19.0830    7.2610   32.5400 C   0  0  0  0  0  0  0  0  0  0  0  0
   17.8070    7.2980   33.0250 N   0  0  0  0  0  0  0  0  0  0  0  0
   17.1280    6.5570   32.9290 H   0  0  0  0  0  0  0  0  0  0  0  0
   17.5850    8.4870   33.6610 C   0  0  0  0  0  3  0  0  0  0  0  0
   18.7440    9.2270   33.5770 C   0  0  0  0  0  3  0  0  0  0  0  0
   19.6280    6.2520   31.8730 N   0  0  0  0  0  2  0  0  0  0  0  0
   20.8930    6.4930   31.5190 C   0  0  0  0  0  0  0  0  0  0  0  0
   21.5190    5.4540   30.8030 N   0  0  0  0  0  0  0  0  0  0  0  0
   21.0380    5.0830   29.9970 H   0  0  0  0  0  0  0  0  0  0  0  0
   22.7700    4.8960   31.1340 C   0  0  0  0  0  0  0  0  0  0  0  0
   23.8920    5.2970   30.4410 C   0  0  0  0  0  0  0  0  0  0  0  0
   25.1410    4.7790   30.7410 C   0  0  0  0  0  3  0  0  0  0  0  0
   25.2700    3.8480   31.7510 C   0  0  0  0  0  0  0  0  0  0  0  0
   24.1470    3.4440   32.4430 C   0  0  0  0  0  3  0  0  0  0  0  0
   22.9090    3.9680   32.1450 C   0  0  0  0  0  3  0  0  0  0  0  0
   23.6780    6.2360   29.4410 O   0  0  0  0  0  0  0  0  0  0  0  0
   24.7220    7.1990   29.4490 C   0  0  0  0  0  1  0  0  0  0  0  0
   26.5980    3.2570   32.0950 C   0  0  0  0  0  2  0  0  0  0  0  0
   26.7540    1.6900   31.2660 S   0  0  0  0  0  0  0  0  0  0  0  0
   26.3980    1.8570   29.8690 O   0  0  0  0  0  0  0  0  0  0  0  0
   26.0810    0.7010   32.0860 O   0  0  0  0  0  0  0  0  0  0  0  0
   28.4940    1.3900   31.3570 C   0  0  0  0  0  1  0  0  0  0  0  0
   21.5960    9.8480   32.8060 N   0  0  0  0  0  0  0  0  0  0  0  0
   22.3070    9.8080   33.5220 H   0  0  0  0  0  0  0  0  0  0  0  0
   21.3290   11.1160   32.2780 C   0  0  0  0  0  0  0  0  0  0  0  0
   21.9810   11.4970   31.1210 C   0  0  0  0  0  0  0  0  0  0  0  0
   21.7540   12.7350   30.5580 C   0  0  0  0  0  0  0  0  0  0  0  0
   22.3850   13.1060   29.4340 F   0  0  0  0  0  0  0  0  0  0  0  0
   20.8700   13.6080   31.1500 C   0  0  0  0  0  3  0  0  0  0  0  0
   20.2170   13.2370   32.3020 C   0  0  0  0  0  3  0  0  0  0  0  0
   20.4450   11.9990   32.8610 C   0  0  0  0  0  3  0  0  0  0  0  0
   22.9290   10.5610   30.4880 C   0  0  0  0  0  0  0  0  0  0  0  0
   24.0480   10.3940   30.9580 O   0  0  0  0  0  0  0  0  0  0  0  0
   22.4420    9.9300   29.3730 N   0  0  0  0  0  0  0  0  0  0  0  0
   23.0210    9.2700   28.8730 H   0  0  0  0  0  0  0  0  0  0  0  0
   21.5050   10.1260   29.0520 H   0  0  0  0  0  0  0  0  0  0  0  0
  1 26  1  6  0  0  0
  1  3  1  0  0  0  0
  2  1  1  0  0  0  0
  3  8  1  0  0  0  0
  4  3  2  0  0  0  0
  4  5  1  0  0  0  0
  5  7  1  0  0  0  0
  6  5  1  0  0  0  0
  8  7  2  0  0  0  0
  9  4  1  0  0  0  0
 10  2  2  0  0  0  0
 10  9  1  0  0  0  0
 11 13  1  0  0  0  0
 11 10  1  0  0  0  0
 12 11  1  0  0  0  0
 13 18  1  0  0  0  0
 14 15  1  0  0  0  0
 14 13  2  0  0  0  0
 15 16  2  0  0  0  0
 16 21  1  0  0  0  0
 16 17  1  0  0  0  0
 18 17  2  0  0  0  0
 19 20  1  0  0  0  0
 19 14  1  0  0  0  0
 22 25  1  0  0  0  0
 22 24  2  0  0  0  0
 22 21  1  0  0  0  0
 23 22  2  0  0  0  0
 26 27  1  0  0  0  0
 28 26  1  0  0  0  0
 28 34  1  0  0  0  0
 29 28  2  0  0  0  0
 30 29  1  0  0  0  0
 30 32  2  0  0  0  0
 31 30  1  0  0  0  0
 32 33  1  0  0  0  0
 33 34  2  0  0  0  0
 35 36  2  0  0  0  0
 35 29  1  0  0  0  0
 37 35  1  0  0  0  0
 38 37  1  0  0  0  0
 39 37  1  0  0  0  0
M  END
>  <Pose>
3

>  <Score>
-9.383

$$$$
out/docking_results/vina_output/3elj_docked_ligand.pdbqt
 OpenBabel03072216093D

 39 42  0  0  1  0  0  0  0  0999 V2000
   22.2630    6.9850   31.3560 C   0  0  2  0  0  3  0  0  0  0  0  0
   23.0560    8.0650   31.4600 N   0  0  0  0  0  0  0  0  0  0  0  0
   20.9960    7.0950   31.8910 C   0  0  0  0  0  0  0  0  0  0  0  0
   20.6500    8.2850   32.4790 C   0  0  0  0  0  0  0  0  0  0  0  0
   19.3690    8.1700   32.9380 N   0  0  0  0  0  0  0  0  0  0  0  0
   18.8580    8.8970   33.4170 H   0  0  0  0  0  0  0  0  0  0  0  0
   18.8820    6.9270   32.6510 C   0  0  0  0  0  3  0  0  0  0  0  0
   19.8750    6.2310   31.9980 C   0  0  0  0  0  3  0  0  0  0  0  0
   21.4190    9.3620   32.5890 N   0  0  0  0  0  2  0  0  0  0  0  0
   22.6280    9.1880   32.0500 C   0  0  0  0  0  0  0  0  0  0  0  0
   23.4860   10.3010   32.1420 N   0  0  0  0  0  0  0  0  0  0  0  0
   24.3880   10.1640   32.5770 H   0  0  0  0  0  0  0  0  0  0  0  0
   23.1750   11.5920   31.6710 C   0  0  0  0  0  0  0  0  0  0  0  0
   24.1490   12.3290   31.0310 C   0  0  0  0  0  0  0  0  0  0  0  0
   23.8820   13.5980   30.5460 C   0  0  0  0  0  3  0  0  0  0  0  0
   22.6210   14.1370   30.7010 C   0  0  0  0  0  0  0  0  0  0  0  0
   21.6470   13.4010   31.3440 C   0  0  0  0  0  3  0  0  0  0  0  0
   21.9170   12.1370   31.8180 C   0  0  0  0  0  3  0  0  0  0  0  0
   25.3900   11.7160   30.9170 O   0  0  0  0  0  0  0  0  0  0  0  0
   25.6260   11.3540   29.5630 C   0  0  0  0  0  1  0  0  0  0  0  0
   22.2980   15.5080   30.2030 C   0  0  0  0  0  2  0  0  0  0  0  0
   21.7910   16.5100   31.5830 S   0  0  0  0  0  0  0  0  0  0  0  0
   20.4140   16.1920   31.9160 O   0  0  0  0  0  0  0  0  0  0  0  0
   22.1830   17.8760   31.2910 O   0  0  0  0  0  0  0  0  0  0  0  0
   22.8230   15.9050   32.8840 C   0  0  0  0  0  1  0  0  0  0  0  0
   22.5900    5.7590   30.7660 N   0  0  0  0  0  0  0  0  0  0  0  0
   22.1000    5.5330   29.9130 H   0  0  0  0  0  0  0  0  0  0  0  0
   23.5140    4.8060   31.2120 C   0  0  0  0  0  0  0  0  0  0  0  0
   24.7790    4.8070   30.6560 C   0  0  0  0  0  0  0  0  0  0  0  0
   25.7270    3.8910   31.0590 C   0  0  0  0  0  0  0  0  0  0  0  0
   26.9560    3.8900   30.5210 F   0  0  0  0  0  0  0  0  0  0  0  0
   25.4170    2.9600   32.0240 C   0  0  0  0  0  3  0  0  0  0  0  0
   24.1600    2.9520   32.5830 C   0  0  0  0  0  3  0  0  0  0  0  0
   23.2160    3.8700   32.1790 C   0  0  0  0  0  3  0  0  0  0  0  0
   25.1090    5.8040   29.6200 C   0  0  0  0  0  0  0  0  0  0  0  0
   24.8300    5.5980   28.4450 O   0  0  0  0  0  0  0  0  0  0  0  0
   25.7300    6.9290   30.0960 N   0  0  0  0  0  0  0  0  0  0  0  0
   25.9940    7.6680   29.4590 H   0  0  0  0  0  0  0  0  0  0  0  0
   25.9250    7.0190   31.0830 H   0  0  0  0  0  0  0  0  0  0  0  0
  1 26  1  1  0  0  0
  1  2  1  0  0  0  0
  1  3  1  0  0  0  0
  2 10  2  0  0  0  0
  3  8  1  0  0  0  0
  3  4  2  0  0  0  0
  4  9  1  0  0  0  0
  4  5  1  0  0  0  0
  5  6  1  0  0  0  0
  7  5  1  0  0  0  0
  8  7  2  0  0  0  0
 10 11  1  0  0  0  0
 10  9  1  0  0  0  0
 11 12  1  0  0  0  0
 13 18  1  0  0  0  0
 13 11  1  0  0  0  0
 14 13  2  0  0  0  0
 15 16  2  0  0  0  0
 15 14  1  0  0  0  0
 16 17  1  0  0  0  0
 17 18  2  0  0  0  0
 19 14  1  0  0  0  0
 20 19  1  0  0  0  0
 21 16  1  0  0  0  0
 21 22  1  0  0  0  0
 22 23  2  0  0  0  0
 22 25  1  0  0  0  0
 24 22  2  0  0  0  0
 26 28  1  0  0  0  0
 27 26  1  0  0  0  0
 28 34  1  0  0  0  0
 29 30  1  0  0  0  0
 29 28  2  0  0  0  0
 30 32  2  0  0  0  0
 31 30  1  0  0  0  0
 32 33  1  0  0  0  0
 34 33  2  0  0  0  0
 35 37  1  0  0  0  0
 35 29  1  0  0  0  0
 36 35  2  0  0  0  0
 37 39  1  0  0  0  0
 38 37  1  0  0  0  0
M  END
>  <Pose>
4

>  <Score>
-9.382

$$$$
out/docking_results/vina_output/3elj_docked_ligand.pdbqt
 OpenBabel03072216093D

 39 42  0  0  1  0  0  0  0  0999 V2000
   22.5750    7.6790   31.1670 C   0  0  2  0  0  3  0  0  0  0  0  0
   23.4960    8.6520   31.0560 N   0  0  0  0  0  0  0  0  0  0  0  0
   21.4300    7.9900   31.8700 C   0  0  0  0  0  0  0  0  0  0  0  0
   21.3220    9.2530   32.3930 C   0  0  0  0  0  0  0  0  0  0  0  0
   20.1250    9.3390   33.0420 N   0  0  0  0  0  0  0  0  0  0  0  0
   19.7830   10.1590   33.5240 H   0  0  0  0  0  0  0  0  0  0  0  0
   19.4560    8.1530   32.9430 C   0  0  0  0  0  3  0  0  0  0  0  0
   20.2460    7.2890   32.2170 C   0  0  0  0  0  3  0  0  0  0  0  0
   22.2190   10.2270   32.2910 N   0  0  0  0  0  2  0  0  0  0  0  0
   23.3000    9.8600   31.5990 C   0  0  0  0  0  0  0  0  0  0  0  0
   24.2880   10.8560   31.4640 N   0  0  0  0  0  0  0  0  0  0  0  0
   24.5490   11.3730   32.2910 H   0  0  0  0  0  0  0  0  0  0  0  0
   24.9360   11.1810   30.2560 C   0  0  0  0  0  0  0  0  0  0  0  0
   24.3530   12.0950   29.4040 C   0  0  0  0  0  0  0  0  0  0  0  0
   24.9610   12.4480   28.2110 C   0  0  0  0  0  3  0  0  0  0  0  0
   26.1710   11.8800   27.8660 C   0  0  0  0  0  0  0  0  0  0  0  0
   26.7520   10.9630   28.7170 C   0  0  0  0  0  3  0  0  0  0  0  0
   26.1460   10.6210   29.9050 C   0  0  0  0  0  3  0  0  0  0  0  0
   23.1380   12.6200   29.8230 O   0  0  0  0  0  0  0  0  0  0  0  0
   23.2520   14.0260   29.9940 C   0  0  0  0  0  1  0  0  0  0  0  0
   26.8510   12.2260   26.5810 C   0  0  0  0  0  2  0  0  0  0  0  0
   27.8420   13.6810   26.8370 S   0  0  0  0  0  0  0  0  0  0  0  0
   28.9620   13.3450   27.6970 O   0  0  0  0  0  0  0  0  0  0  0  0
   26.9390   14.7610   27.1900 O   0  0  0  0  0  0  0  0  0  0  0  0
   28.4710   13.9960   25.2160 C   0  0  0  0  0  1  0  0  0  0  0  0
   22.6600    6.3820   30.6480 N   0  0  0  0  0  0  0  0  0  0  0  0
   22.1180    6.2030   29.8150 H   0  0  0  0  0  0  0  0  0  0  0  0
   23.4030    5.3030   31.1390 C   0  0  0  0  0  0  0  0  0  0  0  0
   24.6460    5.0550   30.5880 C   0  0  0  0  0  0  0  0  0  0  0  0
   25.4190    4.0060   31.0360 C   0  0  0  0  0  0  0  0  0  0  0  0
   26.6270    3.7640   30.5030 F   0  0  0  0  0  0  0  0  0  0  0  0
   24.9550    3.1890   32.0420 C   0  0  0  0  0  3  0  0  0  0  0  0
   23.7190    3.4280   32.5960 C   0  0  0  0  0  3  0  0  0  0  0  0
   22.9500    4.4790   32.1470 C   0  0  0  0  0  3  0  0  0  0  0  0
   25.1420    5.9310   29.5100 C   0  0  0  0  0  0  0  0  0  0  0  0
   24.8340    5.7180   28.3430 O   0  0  0  0  0  0  0  0  0  0  0  0
   25.9440    6.9560   29.9370 N   0  0  0  0  0  0  0  0  0  0  0  0
   26.3300    7.6070   29.2680 H   0  0  0  0  0  0  0  0  0  0  0  0
   26.1500    7.0600   30.9200 H   0  0  0  0  0  0  0  0  0  0  0  0
  1 26  1  1  0  0  0
  1  3  1  0  0  0  0
  2  1  1  0  0  0  0
  2 10  2  0  0  0  0
  3  8  1  0  0  0  0
  3  4  2  0  0  0  0
  4  5  1  0  0  0  0
  5  6  1  0  0  0  0
  7  5  1  0  0  0  0
  8  7  2  0  0  0  0
  9  4  1  0  0  0  0
 10  9  1  0  0  0  0
 11 10  1  0  0  0  0
 11 12  1  0  0  0  0
 13 11  1  0  0  0  0
 14 19  1  0  0  0  0
 14 13  2  0  0  0  0
 15 14  1  0  0  0  0
 16 15  2  0  0  0  0
 16 17  1  0  0  0  0
 17 18  2  0  0  0  0
 18 13  1  0  0  0  0
 19 20  1  0  0  0  0
 21 22  1  0  0  0  0
 21 16  1  0  0  0  0
 22 24  2  0  0  0  0
 22 23  2  0  0  0  0
 25 22  1  0  0  0  0
 26 28  1  0  0  0  0
 27 26  1  0  0  0  0
 28 34  1  0  0  0  0
 29 30  1  0  0  0  0
 29 28  2  0  0  0  0
 30 32  2  0  0  0  0
 31 30  1  0  0  0  0
 32 33  1  0  0  0  0
 34 33  2  0  0  0  0
 35 37  1  0  0  0  0
 35 29  1  0  0  0  0
 36 35  2  0  0  0  0
 37 39  1  0  0  0  0
 38 37  1  0  0  0  0
M  END
>  <Pose>
5

>  <Score>
-8.281

$$$$
out/docking_results/vina_output/3elj_docked_ligand.pdbqt
 OpenBabel03072216093D

 39 42  0  0  1  0  0  0  0  0999 V2000
   22.1520   10.9790   31.8460 C   0  0  2  0  0  3  0  0  0  0  0  0
   22.9200   11.3670   30.8130 N   0  0  0  0  0  0  0  0  0  0  0  0
   21.1400   11.8370   32.2200 C   0  0  0  0  0  0  0  0  0  0  0  0
   20.9970   13.0050   31.5150 C   0  0  0  0  0  0  0  0  0  0  0  0
   19.9480   13.6950   32.0510 N   0  0  0  0  0  0  0  0  0  0  0  0
   19.6190   14.5940   31.7290 H   0  0  0  0  0  0  0  0  0  0  0  0
   19.4080   12.9880   33.0880 C   0  0  0  0  0  3  0  0  0  0  0  0
   20.1310   11.8220   33.2190 C   0  0  0  0  0  3  0  0  0  0  0  0
   21.7440   13.4040   30.4920 N   0  0  0  0  0  2  0  0  0  0  0  0
   22.7020   12.5280   30.1830 C   0  0  0  0  0  0  0  0  0  0  0  0
   23.5270   12.9040   29.1040 N   0  0  0  0  0  0  0  0  0  0  0  0
   23.2160   13.6660   28.5190 H   0  0  0  0  0  0  0  0  0  0  0  0
   24.7560   12.2920   28.7860 C   0  0  0  0  0  0  0  0  0  0  0  0
   25.6560   12.9630   27.9860 C   0  0  0  0  0  0  0  0  0  0  0  0
   26.8770   12.4000   27.6570 C   0  0  0  0  0  3  0  0  0  0  0  0
   27.2040   11.1480   28.1370 C   0  0  0  0  0  0  0  0  0  0  0  0
   26.3020   10.4750   28.9340 C   0  0  0  0  0  3  0  0  0  0  0  0
   25.0920   11.0430   29.2640 C   0  0  0  0  0  3  0  0  0  0  0  0
   25.2520   14.2160   27.5450 O   0  0  0  0  0  0  0  0  0  0  0  0
   26.3350   14.8740   26.9020 C   0  0  0  0  0  1  0  0  0  0  0  0
   28.5070   10.5020   27.7930 C   0  0  0  0  0  2  0  0  0  0  0  0
   28.2190    9.2800   26.5320 S   0  0  0  0  0  0  0  0  0  0  0  0
   27.4270    9.8730   25.4710 O   0  0  0  0  0  0  0  0  0  0  0  0
   27.7720    8.0710   27.1990 O   0  0  0  0  0  0  0  0  0  0  0  0
   29.8480    8.9940   25.9080 C   0  0  0  0  0  1  0  0  0  0  0  0
   22.2770    9.7960   32.5840 N   0  0  0  0  0  0  0  0  0  0  0  0
   22.9800    9.7990   33.3080 H   0  0  0  0  0  0  0  0  0  0  0  0
   21.5490    8.6100   32.4430 C   0  0  0  0  0  0  0  0  0  0  0  0
   22.0340    7.6390   31.5870 C   0  0  0  0  0  0  0  0  0  0  0  0
   21.3560    6.4510   31.4120 C   0  0  0  0  0  0  0  0  0  0  0  0
   21.8250    5.5070   30.5830 F   0  0  0  0  0  0  0  0  0  0  0  0
   20.1810    6.2230   32.0910 C   0  0  0  0  0  3  0  0  0  0  0  0
   19.6910    7.1840   32.9440 C   0  0  0  0  0  3  0  0  0  0  0  0
   20.3720    8.3690   33.1190 C   0  0  0  0  0  3  0  0  0  0  0  0
   23.2920    7.8850   30.8590 C   0  0  0  0  0  0  0  0  0  0  0  0
   24.3730    7.7660   31.4240 O   0  0  0  0  0  0  0  0  0  0  0  0
   23.1260    8.2440   29.5470 N   0  0  0  0  0  0  0  0  0  0  0  0
   23.9330    8.4330   28.9690 H   0  0  0  0  0  0  0  0  0  0  0  0
   22.1970    8.3210   29.1580 H   0  0  0  0  0  0  0  0  0  0  0  0
  1  3  1  0  0  0  0
  1 26  1  1  0  0  0
  2  1  1  0  0  0  0
  3  8  1  0  0  0  0
  4  5  1  0  0  0  0
  4  3  2  0  0  0  0
  5  7  1  0  0  0  0
  6  5  1  0  0  0  0
  7  8  2  0  0  0  0
  9  4  1  0  0  0  0
 10  9  1  0  0  0  0
 10  2  2  0  0  0  0
 11 10  1  0  0  0  0
 12 11  1  0  0  0  0
 13 11  1  0  0  0  0
 13 18  1  0  0  0  0
 14 13  2  0  0  0  0
 15 14  1  0  0  0  0
 15 16  2  0  0  0  0
 16 17  1  0  0  0  0
 17 18  2  0  0  0  0
 19 14  1  0  0  0  0
 20 19  1  0  0  0  0
 21 16  1  0  0  0  0
 22 24  2  0  0  0  0
 22 21  1  0  0  0  0
 23 22  2  0  0  0  0
 25 22  1  0  0  0  0
 26 27  1  0  0  0  0
 28 26  1  0  0  0  0
 28 34  1  0  0  0  0
 29 28  2  0  0  0  0
 30 29  1  0  0  0  0
 30 32  2  0  0  0  0
 31 30  1  0  0  0  0
 32 33  1  0  0  0  0
 33 34  2  0  0  0  0
 35 36  2  0  0  0  0
 35 29  1  0  0  0  0
 37 35  1  0  0  0  0
 38 37  1  0  0  0  0
 39 37  1  0  0  0  0
M  END
>  <Pose>
6

>  <Score>
-8.179

$$$$
out/docking_results/vina_output/3elj_docked_ligand.pdbqt
 OpenBabel03072216093D

 39 42  0  0  1  0  0  0  0  0999 V2000
   22.6470    9.4310   31.6050 C   0  0  2  0  0  3  0  0  0  0  0  0
   22.9040    8.2370   31.0440 N   0  0  0  0  0  0  0  0  0  0  0  0
   21.4390    9.5590   32.2580 C   0  0  0  0  0  0  0  0  0  0  0  0
   20.6050    8.4710   32.2830 C   0  0  0  0  0  0  0  0  0  0  0  0
   19.4790    8.8190   32.9710 N   0  0  0  0  0  0  0  0  0  0  0  0
   18.6910    8.2090   33.1420 H   0  0  0  0  0  0  0  0  0  0  0  0
   19.5740   10.1140   33.3940 C   0  0  0  0  0  3  0  0  0  0  0  0
   20.7870   10.6050   32.9630 C   0  0  0  0  0  3  0  0  0  0  0  0
   20.8430    7.2840   31.7370 N   0  0  0  0  0  2  0  0  0  0  0  0
   22.0280    7.2280   31.1240 C   0  0  0  0  0  0  0  0  0  0  0  0
   22.3290    5.9900   30.5230 N   0  0  0  0  0  0  0  0  0  0  0  0
   21.7580    5.6950   29.7440 H   0  0  0  0  0  0  0  0  0  0  0  0
   23.3720    5.1350   30.9320 C   0  0  0  0  0  0  0  0  0  0  0  0
   24.5250    5.0700   30.1790 C   0  0  0  0  0  0  0  0  0  0  0  0
   25.5750    4.2480   30.5520 C   0  0  0  0  0  3  0  0  0  0  0  0
   25.4720    3.4830   31.6950 C   0  0  0  0  0  0  0  0  0  0  0  0
   24.3180    3.5460   32.4470 C   0  0  0  0  0  3  0  0  0  0  0  0
   23.2790    4.3700   32.0750 C   0  0  0  0  0  3  0  0  0  0  0  0
   24.5490    5.8700   29.0450 O   0  0  0  0  0  0  0  0  0  0  0  0
   25.6720    6.7390   29.0900 C   0  0  0  0  0  1  0  0  0  0  0  0
   26.5800    2.5750   32.1220 C   0  0  0  0  0  2  0  0  0  0  0  0
   26.3090    0.9710   31.4010 S   0  0  0  0  0  0  0  0  0  0  0  0
   26.3230    1.0950   29.9550 O   0  0  0  0  0  0  0  0  0  0  0  0
   25.1710    0.3810   32.0800 O   0  0  0  0  0  0  0  0  0  0  0  0
   27.7610    0.0900   31.8910 C   0  0  0  0  0  1  0  0  0  0  0  0
   23.4760   10.5580   31.5920 N   0  0  0  0  0  0  0  0  0  0  0  0
   23.5750   11.0450   32.4710 H   0  0  0  0  0  0  0  0  0  0  0  0
   24.1850   11.0960   30.5120 C   0  0  0  0  0  0  0  0  0  0  0  0
   23.7540   12.2930   29.9720 C   0  0  0  0  0  0  0  0  0  0  0  0
   24.4160   12.8660   28.9080 C   0  0  0  0  0  0  0  0  0  0  0  0
   24.0000   14.0280   28.3840 F   0  0  0  0  0  0  0  0  0  0  0  0
   25.5200   12.2450   28.3700 C   0  0  0  0  0  3  0  0  0  0  0  0
   25.9560   11.0530   28.9000 C   0  0  0  0  0  3  0  0  0  0  0  0
   25.2920   10.4840   29.9650 C   0  0  0  0  0  3  0  0  0  0  0  0
   22.5700   12.9570   30.5500 C   0  0  0  0  0  0  0  0  0  0  0  0
   22.6230   13.4680   31.6620 O   0  0  0  0  0  0  0  0  0  0  0  0
   21.4610   12.9390   29.7450 N   0  0  0  0  0  0  0  0  0  0  0  0
   20.6030   13.3700   30.0570 H   0  0  0  0  0  0  0  0  0  0  0  0
   21.5030   12.4940   28.8390 H   0  0  0  0  0  0  0  0  0  0  0  0
  1 26  1  6  0  0  0
  1  3  1  0  0  0  0
  2 10  2  0  0  0  0
  2  1  1  0  0  0  0
  3  4  2  0  0  0  0
  3  8  1  0  0  0  0
  4  5  1  0  0  0  0
  5  6  1  0  0  0  0
  5  7  1  0  0  0  0
  8  7  2  0  0  0  0
  9  4  1  0  0  0  0
 10  9  1  0  0  0  0
 11 13  1  0  0  0  0
 11 10  1  0  0  0  0
 12 11  1  0  0  0  0
 13 18  1  0  0  0  0
 14 15  1  0  0  0  0
 14 13  2  0  0  0  0
 15 16  2  0  0  0  0
 16 21  1  0  0  0  0
 16 17  1  0  0  0  0
 18 17  2  0  0  0  0
 19 20  1  0  0  0  0
 19 14  1  0  0  0  0
 22 25  1  0  0  0  0
 22 24  2  0  0  0  0
 22 21  1  0  0  0  0
 23 22  2  0  0  0  0
 26 27  1  0  0  0  0
 28 26  1  0  0  0  0
 29 28  1  0  0  0  0
 29 35  1  0  0  0  0
 30 29  2  0  0  0  0
 31 30  1  0  0  0  0
 32 33  2  0  0  0  0
 32 30  1  0  0  0  0
 33 34  1  0  0  0  0
 34 28  2  0  0  0  0
 35 36  2  0  0  0  0
 37 38  1  0  0  0  0
 37 35  1  0  0  0  0
 39 37  1  0  0  0  0
M  END
>  <Pose>
7

>  <Score>
-8.174

$$$$
out/docking_results/vina_output/3elj_docked_ligand.pdbqt
 OpenBabel03072216093D

 39 42  0  0  1  0  0  0  0  0999 V2000
   22.5650   10.7460   31.4310 C   0  0  2  0  0  3  0  0  0  0  0  0
   23.3570   10.6870   30.3450 N   0  0  0  0  0  0  0  0  0  0  0  0
   21.8540   11.9130   31.6140 C   0  0  0  0  0  0  0  0  0  0  0  0
   22.0080   12.9100   30.6850 C   0  0  0  0  0  0  0  0  0  0  0  0
   21.2230   13.9620   31.0620 N   0  0  0  0  0  0  0  0  0  0  0  0
   21.1430   14.8350   30.5600 H   0  0  0  0  0  0  0  0  0  0  0  0
   20.5620   13.6570   32.2170 C   0  0  0  0  0  3  0  0  0  0  0  0
   20.9350   12.3840   32.5880 C   0  0  0  0  0  3  0  0  0  0  0  0
   22.7820   12.8690   29.6070 N   0  0  0  0  0  2  0  0  0  0  0  0
   23.4400   11.7130   29.4900 C   0  0  0  0  0  0  0  0  0  0  0  0
   24.2800   11.6180   28.3630 N   0  0  0  0  0  0  0  0  0  0  0  0
   24.2420   10.7680   27.8190 H   0  0  0  0  0  0  0  0  0  0  0  0
   25.1700   12.6270   27.9420 C   0  0  0  0  0  0  0  0  0  0  0  0
   26.4300   12.2740   27.5060 C   0  0  0  0  0  0  0  0  0  0  0  0
   27.3310   13.2340   27.0770 C   0  0  0  0  0  3  0  0  0  0  0  0
   26.9670   14.5650   27.0810 C   0  0  0  0  0  0  0  0  0  0  0  0
   25.7080   14.9170   27.5210 C   0  0  0  0  0  3  0  0  0  0  0  0
   24.8130   13.9580   27.9400 C   0  0  0  0  0  3  0  0  0  0  0  0
   26.7180   10.9170   27.5320 O   0  0  0  0  0  0  0  0  0  0  0  0
   27.8110   10.6720   28.4070 C   0  0  0  0  0  1  0  0  0  0  0  0
   27.9170   15.6290   26.6380 C   0  0  0  0  0  2  0  0  0  0  0  0
   27.4180   16.2010   25.0280 S   0  0  0  0  0  0  0  0  0  0  0  0
   26.5580   17.3590   25.1840 O   0  0  0  0  0  0  0  0  0  0  0  0
   26.9660   15.0420   24.2810 O   0  0  0  0  0  0  0  0  0  0  0  0
   28.9490   16.7440   24.3320 C   0  0  0  0  0  1  0  0  0  0  0  0
   22.3920    9.7470   32.3960 N   0  0  0  0  0  0  0  0  0  0  0  0
   23.0210    9.7810   33.1850 H   0  0  0  0  0  0  0  0  0  0  0  0
   21.4560    8.7070   32.4030 C   0  0  0  0  0  0  0  0  0  0  0  0
   21.7500    7.5530   31.7020 C   0  0  0  0  0  0  0  0  0  0  0  0
   20.8640    6.4980   31.6780 C   0  0  0  0  0  0  0  0  0  0  0  0
   21.1480    5.3760   30.9990 F   0  0  0  0  0  0  0  0  0  0  0  0
   19.6690    6.5870   32.3540 C   0  0  0  0  0  3  0  0  0  0  0  0
   19.3670    7.7330   33.0530 C   0  0  0  0  0  3  0  0  0  0  0  0
   20.2570    8.7840   33.0780 C   0  0  0  0  0  3  0  0  0  0  0  0
   23.0310    7.4590   30.9770 C   0  0  0  0  0  0  0  0  0  0  0  0
   24.0770    7.2580   31.5830 O   0  0  0  0  0  0  0  0  0  0  0  0
   22.9260    7.6140   29.6200 N   0  0  0  0  0  0  0  0  0  0  0  0
   23.7520    7.5650   29.0400 H   0  0  0  0  0  0  0  0  0  0  0  0
   22.0230    7.7780   29.1990 H   0  0  0  0  0  0  0  0  0  0  0  0
  1  3  1  0  0  0  0
  1 26  1  1  0  0  0
  2  1  1  0  0  0  0
  3  8  1  0  0  0  0
  4  5  1  0  0  0  0
  4  3  2  0  0  0  0
  5  7  1  0  0  0  0
  6  5  1  0  0  0  0
  7  8  2  0  0  0  0
  9  4  1  0  0  0  0
 10  9  1  0  0  0  0
 10  2  2  0  0  0  0
 11 10  1  0  0  0  0
 12 11  1  0  0  0  0
 13 11  1  0  0  0  0
 14 19  1  0  0  0  0
 14 13  2  0  0  0  0
 15 16  2  0  0  0  0
 15 14  1  0  0  0  0
 16 17  1  0  0  0  0
 17 18  2  0  0  0  0
 18 13  1  0  0  0  0
 19 20  1  0  0  0  0
 21 16  1  0  0  0  0
 22 23  2  0  0  0  0
 22 21  1  0  0  0  0
 24 22  2  0  0  0  0
 25 22  1  0  0  0  0
 26 28  1  0  0  0  0
 26 27  1  0  0  0  0
 28 34  1  0  0  0  0
 29 28  2  0  0  0  0
 30 29  1  0  0  0  0
 30 32  2  0  0  0  0
 31 30  1  0  0  0  0
 32 33  1  0  0  0  0
 33 34  2  0  0  0  0
 35 36  2  0  0  0  0
 35 29  1  0  0  0  0
 37 35  1  0  0  0  0
 38 37  1  0  0  0  0
 39 37  1  0  0  0  0
M  END
>  <Pose>
8

>  <Score>
-8.171

$$$$
out/docking_results/vina_output/3elj_docked_ligand.pdbqt
 OpenBabel03072216093D

 39 42  0  0  1  0  0  0  0  0999 V2000
   23.2720   11.8760   31.0000 C   0  0  2  0  0  3  0  0  0  0  0  0
   24.0360   11.6110   29.9260 N   0  0  0  0  0  0  0  0  0  0  0  0
   22.6760   13.1190   31.0430 C   0  0  0  0  0  0  0  0  0  0  0  0
   22.9060   13.9760   29.9980 C   0  0  0  0  0  0  0  0  0  0  0  0
   22.2280   15.1350   30.2470 N   0  0  0  0  0  0  0  0  0  0  0  0
   22.2210   15.9450   29.6430 H   0  0  0  0  0  0  0  0  0  0  0  0
   21.5620   15.0380   31.4350 C   0  0  0  0  0  3  0  0  0  0  0  0
   21.8220   13.7890   31.9570 C   0  0  0  0  0  3  0  0  0  0  0  0
   23.6540   13.7320   28.9280 N   0  0  0  0  0  2  0  0  0  0  0  0
   24.1990   12.5140   28.9500 C   0  0  0  0  0  0  0  0  0  0  0  0
   25.0070   12.2030   27.8380 N   0  0  0  0  0  0  0  0  0  0  0  0
   24.5680   12.1820   26.9290 H   0  0  0  0  0  0  0  0  0  0  0  0
   26.3860   11.9210   27.9070 C   0  0  0  0  0  0  0  0  0  0  0  0
   27.2810   12.7780   27.3030 C   0  0  0  0  0  0  0  0  0  0  0  0
   28.6440   12.5410   27.3540 C   0  0  0  0  0  3  0  0  0  0  0  0
   29.1190   11.4300   28.0210 C   0  0  0  0  0  0  0  0  0  0  0  0
   28.2240   10.5700   28.6220 C   0  0  0  0  0  3  0  0  0  0  0  0
   26.8710   10.8150   28.5740 C   0  0  0  0  0  3  0  0  0  0  0  0
   26.7220   13.8710   26.6530 O   0  0  0  0  0  0  0  0  0  0  0  0
   27.4360   15.0520   26.9930 C   0  0  0  0  0  1  0  0  0  0  0  0
   30.5830   11.1340   28.0860 C   0  0  0  0  0  2  0  0  0  0  0  0
   31.1230   11.3090   29.7720 S   0  0  0  0  0  0  0  0  0  0  0  0
   31.1210   10.0040   30.4070 O   0  0  0  0  0  0  0  0  0  0  0  0
   30.3780   12.4120   30.3510 O   0  0  0  0  0  0  0  0  0  0  0  0
   32.8030   11.8220   29.5760 C   0  0  0  0  0  1  0  0  0  0  0  0
   23.0230   11.0230   32.0810 N   0  0  0  0  0  0  0  0  0  0  0  0
   23.6720   11.0860   32.8520 H   0  0  0  0  0  0  0  0  0  0  0  0
   21.9880   10.0930   32.2270 C   0  0  0  0  0  0  0  0  0  0  0  0
   22.1730    8.8190   31.7240 C   0  0  0  0  0  0  0  0  0  0  0  0
   21.1860    7.8640   31.8410 C   0  0  0  0  0  0  0  0  0  0  0  0
   21.3640    6.6270   31.3550 F   0  0  0  0  0  0  0  0  0  0  0  0
   19.9980    8.1750   32.4620 C   0  0  0  0  0  3  0  0  0  0  0  0
   19.8050    9.4420   32.9650 C   0  0  0  0  0  3  0  0  0  0  0  0
   20.7950   10.3920   32.8480 C   0  0  0  0  0  3  0  0  0  0  0  0
   23.4460    8.4870   31.0580 C   0  0  0  0  0  0  0  0  0  0  0  0
   24.4620    8.2950   31.7140 O   0  0  0  0  0  0  0  0  0  0  0  0
   23.3700    8.4210   29.6910 N   0  0  0  0  0  0  0  0  0  0  0  0
   24.1930    8.2000   29.1490 H   0  0  0  0  0  0  0  0  0  0  0  0
   22.4900    8.5950   29.2260 H   0  0  0  0  0  0  0  0  0  0  0  0
  1  3  1  0  0  0  0
  1 26  1  1  0  0  0
  2  1  1  0  0  0  0
  3  8  1  0  0  0  0
  4  5  1  0  0  0  0
  4  3  2  0  0  0  0
  5  7  1  0  0  0  0
  6  5  1  0  0  0  0
  7  8  2  0  0  0  0
  9 10  1  0  0  0  0
  9  4  1  0  0  0  0
 10  2  2  0  0  0  0
 11 13  1  0  0  0  0
 11 10  1  0  0  0  0
 12 11  1  0  0  0  0
 13 18  1  0  0  0  0
 14 15  1  0  0  0  0
 14 13  2  0  0  0  0
 15 16  2  0  0  0  0
 16 21  1  0  0  0  0
 16 17  1  0  0  0  0
 18 17  2  0  0  0  0
 19 20  1  0  0  0  0
 19 14  1  0  0  0  0
 21 22  1  0  0  0  0
 22 24  2  0  0  0  0
 22 23  2  0  0  0  0
 25 22  1  0  0  0  0
 26 28  1  0  0  0  0
 26 27  1  0  0  0  0
 28 34  1  0  0  0  0
 29 30  1  0  0  0  0
 29 28  2  0  0  0  0
 30 32  2  0  0  0  0
 31 30  1  0  0  0  0
 32 33  1  0  0  0  0
 34 33  2  0  0  0  0
 35 36  2  0  0  0  0
 35 29  1  0  0  0  0
 37 35  1  0  0  0  0
 38 37  1  0  0  0  0
 39 37  1  0  0  0  0
M  END
>  <Pose>
9

>  <Score>
-7.956

$$$$
out/docking_results/vina_output/3elj_docked_ligand.pdbqt
 OpenBabel03072216093D

 39 42  0  0  1  0  0  0  0  0999 V2000
   22.3980    8.7290   31.8710 C   0  0  2  0  0  3  0  0  0  0  0  0
   23.2270    8.1370   30.9930 N   0  0  0  0  0  0  0  0  0  0  0  0
   21.2770    8.0150   32.2400 C   0  0  0  0  0  0  0  0  0  0  0  0
   21.0980    6.7720   31.6880 C   0  0  0  0  0  0  0  0  0  0  0  0
   19.9370    6.2540   32.1850 N   0  0  0  0  0  0  0  0  0  0  0  0
   19.5570    5.3490   31.9470 H   0  0  0  0  0  0  0  0  0  0  0  0
   19.3660    7.1410   33.0520 C   0  0  0  0  0  3  0  0  0  0  0  0
   20.1790    8.2520   33.1070 C   0  0  0  0  0  3  0  0  0  0  0  0
   21.9060    6.1710   30.8220 N   0  0  0  0  0  2  0  0  0  0  0  0
   22.9700    6.9150   30.5100 C   0  0  0  0  0  0  0  0  0  0  0  0
   23.8590    6.3250   29.5900 N   0  0  0  0  0  0  0  0  0  0  0  0
   23.6860    6.4770   28.6070 H   0  0  0  0  0  0  0  0  0  0  0  0
   24.9730    5.5380   29.9460 C   0  0  0  0  0  0  0  0  0  0  0  0
   26.1800    5.7540   29.3160 C   0  0  0  0  0  0  0  0  0  0  0  0
   27.2990    5.0080   29.6430 C   0  0  0  0  0  3  0  0  0  0  0  0
   27.2110    4.0330   30.6160 C   0  0  0  0  0  0  0  0  0  0  0  0
   26.0020    3.8140   31.2430 C   0  0  0  0  0  3  0  0  0  0  0  0
   24.8940    4.5640   30.9190 C   0  0  0  0  0  3  0  0  0  0  0  0
   26.1850    6.7520   28.3510 O   0  0  0  0  0  0  0  0  0  0  0  0
   27.4670    7.3610   28.2920 C   0  0  0  0  0  1  0  0  0  0  0  0
   28.3940    3.1990   30.9860 C   0  0  0  0  0  2  0  0  0  0  0  0
   28.7170    2.0530   29.6640 S   0  0  0  0  0  0  0  0  0  0  0  0
   29.7580    2.5970   28.8110 O   0  0  0  0  0  0  0  0  0  0  0  0
   27.4350    1.6650   29.1070 O   0  0  0  0  0  0  0  0  0  0  0  0
   29.3860    0.6640   30.5280 C   0  0  0  0  0  1  0  0  0  0  0  0
   22.5530    9.9950   32.4460 N   0  0  0  0  0  0  0  0  0  0  0  0
   23.1810   10.0480   33.2350 H   0  0  0  0  0  0  0  0  0  0  0  0
   21.9460   11.1960   32.0640 C   0  0  0  0  0  0  0  0  0  0  0  0
   22.5520   11.9560   31.0810 C   0  0  0  0  0  0  0  0  0  0  0  0
   21.9960   13.1460   30.6660 C   0  0  0  0  0  0  0  0  0  0  0  0
   22.5820   13.8850   29.7110 F   0  0  0  0  0  0  0  0  0  0  0  0
   20.8250   13.5930   31.2340 C   0  0  0  0  0  3  0  0  0  0  0  0
   20.2150   12.8440   32.2140 C   0  0  0  0  0  3  0  0  0  0  0  0
   20.7730   11.6530   32.6240 C   0  0  0  0  0  3  0  0  0  0  0  0
   23.8080   11.4760   30.4740 C   0  0  0  0  0  0  0  0  0  0  0  0
   24.8730   11.5990   31.0650 O   0  0  0  0  0  0  0  0  0  0  0  0
   23.6570   10.9050   29.2370 N   0  0  0  0  0  0  0  0  0  0  0  0
   24.4630   10.5470   28.7440 H   0  0  0  0  0  0  0  0  0  0  0  0
   22.7390   10.8430   28.8180 H   0  0  0  0  0  0  0  0  0  0  0  0
  1  3  1  0  0  0  0
  1 26  1  6  0  0  0
  2  1  1  0  0  0  0
  3  8  1  0  0  0  0
  4  5  1  0  0  0  0
  4  3  2  0  0  0  0
  5  7  1  0  0  0  0
  6  5  1  0  0  0  0
  7  8  2  0  0  0  0
  9  4  1  0  0  0  0
 10  9  1  0  0  0  0
 10  2  2  0  0  0  0
 11 13  1  0  0  0  0
 11 10  1  0  0  0  0
 12 11  1  0  0  0  0
 13 18  1  0  0  0  0
 14 15  1  0  0  0  0
 14 13  2  0  0  0  0
 15 16  2  0  0  0  0
 16 21  1  0  0  0  0
 16 17  1  0  0  0  0
 18 17  2  0  0  0  0
 19 14  1  0  0  0  0
 20 19  1  0  0  0  0
 22 25  1  0  0  0  0
 22 21  1  0  0  0  0
 23 22  2  0  0  0  0
 24 22  2  0  0  0  0
 26 27  1  0  0  0  0
 28 26  1  0  0  0  0
 28 34  1  0  0  0  0
 29 28  2  0  0  0  0
 30 29  1  0  0  0  0
 30 32  2  0  0  0  0
 31 30  1  0  0  0  0
 32 33  1  0  0  0  0
 33 34  2  0  0  0  0
 35 36  2  0  0  0  0
 35 29  1  0  0  0  0
 37 35  1  0  0  0  0
 38 37  1  0  0  0  0
 39 37  1  0  0  0  0
M  END
>  <Pose>
10

>  <Score>
-7.870

$$$$
