out/docking_results/vina_output/4agl_docked_ligand.pdbqt
 OpenBabel03072216143D

 15 15  0  0  0  0  0  0  0  0999 V2000
   91.7480   98.9970  -42.7790 C   0  0  0  0  0  0  0  0  0  0  0  0
   92.0510   97.8070  -42.1070 C   0  0  0  0  0  0  0  0  0  0  0  0
   91.6320   96.5790  -42.6140 C   0  0  0  0  0  0  0  0  0  0  0  0
   90.8910   96.5060  -43.8020 C   0  0  0  0  0  3  0  0  0  0  0  0
   91.0040   98.9180  -43.9760 C   0  0  0  0  0  3  0  0  0  0  0  0
   90.5770   97.6840  -44.4840 C   0  0  0  0  0  0  0  0  0  0  0  0
   92.1050   94.8370  -41.5270 I   0  0  0  0  0  0  0  0  0  0  0  0
   89.4730   97.6370  -46.2600 I   0  0  0  0  0  0  0  0  0  0  0  0
   92.1710  100.3520  -42.2330 C   0  0  0  0  0  2  0  0  0  0  0  0
   91.4430  100.7610  -41.0170 N   0  0  0  0  0  4  0  0  0  0  0  0
   91.1790   99.8960  -40.5660 H   0  0  0  0  0  0  0  0  0  0  0  0
   92.2720  101.4840  -40.0310 C   0  0  0  0  0  1  0  0  0  0  0  0
   90.2120  101.5020  -41.3340 C   0  0  0  0  0  1  0  0  0  0  0  0
   92.7970   97.8750  -40.9630 O   0  0  0  0  0  0  0  0  0  0  0  0
   93.5950   98.4050  -41.0290 H   0  0  0  0  0  0  0  0  0  0  0  0
  1  9  1  0  0  0  0
  1  2  1  0  0  0  0
  2 14  1  0  0  0  0
  3  2  2  0  0  0  0
  3  7  1  0  0  0  0
  4  3  1  0  0  0  0
  5  1  2  0  0  0  0
  6  5  1  0  0  0  0
  6  4  2  0  0  0  0
  8  6  1  0  0  0  0
  9 10  1  0  0  0  0
 10 11  1  0  0  0  0
 10 12  1  0  0  0  0
 13 10  1  0  0  0  0
 15 14  1  0  0  0  0
M  END
>  <Pose>
1

>  <Score>
-4.421

$$$$
out/docking_results/vina_output/4agl_docked_ligand.pdbqt
 OpenBabel03072216143D

 15 15  0  0  0  0  0  0  0  0999 V2000
   90.9870   95.6730  -45.3190 C   0  0  0  0  0  0  0  0  0  0  0  0
   91.3840   95.5420  -43.9830 C   0  0  0  0  0  0  0  0  0  0  0  0
   91.8150   94.3140  -43.4880 C   0  0  0  0  0  0  0  0  0  0  0  0
   91.8540   93.1800  -44.3120 C   0  0  0  0  0  3  0  0  0  0  0  0
   91.0290   94.5300  -46.1440 C   0  0  0  0  0  3  0  0  0  0  0  0
   91.4580   93.2920  -45.6460 C   0  0  0  0  0  0  0  0  0  0  0  0
   92.3690   94.1940  -41.4590 I   0  0  0  0  0  0  0  0  0  0  0  0
   91.4940   91.6350  -46.9230 I   0  0  0  0  0  0  0  0  0  0  0  0
   90.4870   96.9980  -45.8760 C   0  0  0  0  0  2  0  0  0  0  0  0
   89.2840   97.5170  -45.1970 N   0  0  0  0  0  4  0  0  0  0  0  0
   89.2800   97.0680  -44.2920 H   0  0  0  0  0  0  0  0  0  0  0  0
   89.3260   98.9670  -44.9190 C   0  0  0  0  0  1  0  0  0  0  0  0
   88.0480   97.1360  -45.8990 C   0  0  0  0  0  1  0  0  0  0  0  0
   91.3720   96.6540  -43.1850 O   0  0  0  0  0  0  0  0  0  0  0  0
   90.5080   97.0540  -43.0600 H   0  0  0  0  0  0  0  0  0  0  0  0
  1  2  1  0  0  0  0
  2  3  2  0  0  0  0
  2 14  1  0  0  0  0
  3  7  1  0  0  0  0
  4  3  1  0  0  0  0
  5  6  1  0  0  0  0
  5  1  2  0  0  0  0
  6  4  2  0  0  0  0
  8  6  1  0  0  0  0
  9  1  1  0  0  0  0
  9 10  1  0  0  0  0
 10 12  1  0  0  0  0
 10 11  1  0  0  0  0
 13 10  1  0  0  0  0
 14 15  1  0  0  0  0
M  END
>  <Pose>
2

>  <Score>
-4.366

$$$$
out/docking_results/vina_output/4agl_docked_ligand.pdbqt
 OpenBabel03072216143D

 15 15  0  0  0  0  0  0  0  0999 V2000
   91.1010   95.9230  -45.3130 C   0  0  0  0  0  0  0  0  0  0  0  0
   89.9530   95.9960  -46.1100 C   0  0  0  0  0  0  0  0  0  0  0  0
   89.0780   97.0740  -45.9980 C   0  0  0  0  0  0  0  0  0  0  0  0
   89.3210   98.1050  -45.0790 C   0  0  0  0  0  3  0  0  0  0  0  0
   91.3430   96.9640  -44.3920 C   0  0  0  0  0  3  0  0  0  0  0  0
   90.4600   98.0460  -44.2730 C   0  0  0  0  0  0  0  0  0  0  0  0
   87.3580   97.0940  -47.2140 I   0  0  0  0  0  0  0  0  0  0  0  0
   90.8750   99.5540  -42.8840 I   0  0  0  0  0  0  0  0  0  0  0  0
   92.0590   94.7440  -45.3990 C   0  0  0  0  0  2  0  0  0  0  0  0
   91.5050   93.4840  -44.8670 N   0  0  0  0  0  4  0  0  0  0  0  0
   90.5100   93.6430  -44.8000 H   0  0  0  0  0  0  0  0  0  0  0  0
   91.6600   92.3270  -45.7720 C   0  0  0  0  0  1  0  0  0  0  0  0
   92.0100   93.1860  -43.5170 C   0  0  0  0  0  1  0  0  0  0  0  0
   89.7290   95.0050  -47.0260 O   0  0  0  0  0  0  0  0  0  0  0  0
   90.3520   94.9780  -47.7560 H   0  0  0  0  0  0  0  0  0  0  0  0
  1  5  1  0  0  0  0
  2  3  1  0  0  0  0
  2  1  2  0  0  0  0
  3  4  2  0  0  0  0
  4  6  1  0  0  0  0
  5  6  2  0  0  0  0
  6  8  1  0  0  0  0
  7  3  1  0  0  0  0
  9  1  1  0  0  0  0
  9 10  1  0  0  0  0
 10 11  1  0  0  0  0
 10 13  1  0  0  0  0
 12 10  1  0  0  0  0
 14  2  1  0  0  0  0
 15 14  1  0  0  0  0
M  END
>  <Pose>
3

>  <Score>
-4.123

$$$$
out/docking_results/vina_output/4agl_docked_ligand.pdbqt
 OpenBabel03072216143D

 15 15  0  0  0  0  0  0  0  0999 V2000
   90.7070   95.9930  -45.4600 C   0  0  0  0  0  0  0  0  0  0  0  0
   90.6920   97.0490  -44.5400 C   0  0  0  0  0  0  0  0  0  0  0  0
   89.6530   97.9760  -44.5400 C   0  0  0  0  0  0  0  0  0  0  0  0
   88.6030   97.8790  -45.4640 C   0  0  0  0  0  3  0  0  0  0  0  0
   89.6460   95.8980  -46.3860 C   0  0  0  0  0  3  0  0  0  0  0  0
   88.6020   96.8340  -46.3900 C   0  0  0  0  0  0  0  0  0  0  0  0
   89.7210   99.5510  -43.1430 I   0  0  0  0  0  0  0  0  0  0  0  0
   87.0630   96.6380  -47.7930 I   0  0  0  0  0  0  0  0  0  0  0  0
   91.8440   94.9830  -45.4970 C   0  0  0  0  0  2  0  0  0  0  0  0
   91.4690   93.6430  -45.0070 N   0  0  0  0  0  4  0  0  0  0  0  0
   90.5000   93.7250  -44.7340 H   0  0  0  0  0  0  0  0  0  0  0  0
   91.5020   92.5900  -46.0420 C   0  0  0  0  0  1  0  0  0  0  0  0
   92.2440   93.2550  -43.8170 C   0  0  0  0  0  1  0  0  0  0  0  0
   91.7030   97.1290  -43.6220 O   0  0  0  0  0  0  0  0  0  0  0  0
   91.8400   98.0010  -43.2450 H   0  0  0  0  0  0  0  0  0  0  0  0
  1  2  1  0  0  0  0
  2  3  2  0  0  0  0
  2 14  1  0  0  0  0
  3  7  1  0  0  0  0
  4  3  1  0  0  0  0
  5  1  2  0  0  0  0
  6  5  1  0  0  0  0
  6  4  2  0  0  0  0
  8  6  1  0  0  0  0
  9  1  1  0  0  0  0
  9 10  1  0  0  0  0
 10 11  1  0  0  0  0
 10 13  1  0  0  0  0
 12 10  1  0  0  0  0
 14 15  1  0  0  0  0
M  END
>  <Pose>
4

>  <Score>
-3.992

$$$$
out/docking_results/vina_output/4agl_docked_ligand.pdbqt
 OpenBabel03072216143D

 15 15  0  0  0  0  0  0  0  0999 V2000
   90.3950   97.4310  -44.5990 C   0  0  0  0  0  0  0  0  0  0  0  0
   91.0810   96.2750  -44.2080 C   0  0  0  0  0  0  0  0  0  0  0  0
   91.0290   95.1210  -44.9860 C   0  0  0  0  0  0  0  0  0  0  0  0
   90.2820   95.0870  -46.1730 C   0  0  0  0  0  3  0  0  0  0  0  0
   89.6470   97.3920  -45.7950 C   0  0  0  0  0  3  0  0  0  0  0  0
   89.5890   96.2300  -46.5760 C   0  0  0  0  0  0  0  0  0  0  0  0
   92.0660   93.4160  -44.3130 I   0  0  0  0  0  0  0  0  0  0  0  0
   88.4590   96.2380  -48.3360 I   0  0  0  0  0  0  0  0  0  0  0  0
   90.4150   98.6960  -43.7540 C   0  0  0  0  0  2  0  0  0  0  0  0
   91.7710   99.1490  -43.3870 N   0  0  0  0  0  4  0  0  0  0  0  0
   92.2410   98.3200  -43.0500 H   0  0  0  0  0  0  0  0  0  0  0  0
   92.5780   99.6240  -44.5290 C   0  0  0  0  0  1  0  0  0  0  0  0
   91.7460  100.1340  -42.2940 C   0  0  0  0  0  1  0  0  0  0  0  0
   91.8310   96.3160  -43.0650 O   0  0  0  0  0  0  0  0  0  0  0  0
   91.3970   95.9660  -42.2830 H   0  0  0  0  0  0  0  0  0  0  0  0
  1  2  1  0  0  0  0
  1  9  1  0  0  0  0
  2 14  1  0  0  0  0
  3  7  1  0  0  0  0
  3  2  2  0  0  0  0
  4  3  1  0  0  0  0
  5  1  2  0  0  0  0
  6  4  2  0  0  0  0
  6  5  1  0  0  0  0
  8  6  1  0  0  0  0
  9 10  1  0  0  0  0
 10 11  1  0  0  0  0
 10 13  1  0  0  0  0
 12 10  1  0  0  0  0
 14 15  1  0  0  0  0
M  END
>  <Pose>
5

>  <Score>
-3.835

$$$$
out/docking_results/vina_output/4agl_docked_ligand.pdbqt
 OpenBabel03072216143D

 15 15  0  0  0  0  0  0  0  0999 V2000
   90.4320   98.5030  -43.1500 C   0  0  0  0  0  0  0  0  0  0  0  0
   90.9940   99.4900  -42.3310 C   0  0  0  0  0  0  0  0  0  0  0  0
   90.2750  100.6390  -42.0110 C   0  0  0  0  0  0  0  0  0  0  0  0
   88.9790  100.8390  -42.5070 C   0  0  0  0  0  3  0  0  0  0  0  0
   89.1270   98.7080  -43.6460 C   0  0  0  0  0  3  0  0  0  0  0  0
   88.4050   99.8670  -43.3280 C   0  0  0  0  0  0  0  0  0  0  0  0
   91.2010  102.0890  -40.7950 I   0  0  0  0  0  0  0  0  0  0  0  0
   86.4760  100.1100  -44.0990 I   0  0  0  0  0  0  0  0  0  0  0  0
   91.2060   97.2510  -43.5360 C   0  0  0  0  0  2  0  0  0  0  0  0
   91.5420   97.1740  -44.9700 N   0  0  0  0  0  4  0  0  0  0  0  0
   90.7130   97.4930  -45.4510 H   0  0  0  0  0  0  0  0  0  0  0  0
   92.6200   98.0920  -45.3880 C   0  0  0  0  0  1  0  0  0  0  0  0
   91.8120   95.7920  -45.4000 C   0  0  0  0  0  1  0  0  0  0  0  0
   92.2470   99.2840  -41.8250 O   0  0  0  0  0  0  0  0  0  0  0  0
   92.4990   98.3620  -41.7290 H   0  0  0  0  0  0  0  0  0  0  0  0
  1  2  1  0  0  0  0
  2  3  2  0  0  0  0
  2 14  1  0  0  0  0
  3  7  1  0  0  0  0
  4  3  1  0  0  0  0
  5  6  1  0  0  0  0
  5  1  2  0  0  0  0
  6  4  2  0  0  0  0
  8  6  1  0  0  0  0
  9  1  1  0  0  0  0
 10  9  1  0  0  0  0
 11 10  1  0  0  0  0
 12 10  1  0  0  0  0
 13 10  1  0  0  0  0
 14 15  1  0  0  0  0
M  END
>  <Pose>
6

>  <Score>
-3.789

$$$$
out/docking_results/vina_output/4agl_docked_ligand.pdbqt
 OpenBabel03072216143D

 15 15  0  0  0  0  0  0  0  0999 V2000
   90.4560   89.7530  -49.7540 C   0  0  0  0  0  0  0  0  0  0  0  0
   90.4060   88.3940  -49.4200 C   0  0  0  0  0  0  0  0  0  0  0  0
   89.1920   87.7110  -49.4090 C   0  0  0  0  0  0  0  0  0  0  0  0
   87.9940   88.3680  -49.7220 C   0  0  0  0  0  3  0  0  0  0  0  0
   89.2480   90.4090  -50.0700 C   0  0  0  0  0  3  0  0  0  0  0  0
   88.0250   89.7240  -50.0540 C   0  0  0  0  0  0  0  0  0  0  0  0
   89.1990   85.6750  -48.8690 I   0  0  0  0  0  0  0  0  0  0  0  0
   86.2690   90.7570  -50.5300 I   0  0  0  0  0  0  0  0  0  0  0  0
   91.7650   90.5280  -49.7480 C   0  0  0  0  0  2  0  0  0  0  0  0
   92.2120   90.9370  -48.4020 N   0  0  0  0  0  4  0  0  0  0  0  0
   92.6290   91.8490  -48.5310 H   0  0  0  0  0  0  0  0  0  0  0  0
   91.1130   91.1380  -47.4360 C   0  0  0  0  0  1  0  0  0  0  0  0
   93.2450   90.0370  -47.8670 C   0  0  0  0  0  1  0  0  0  0  0  0
   91.5770   87.7460  -49.1410 O   0  0  0  0  0  0  0  0  0  0  0  0
   92.2040   87.7100  -49.8670 H   0  0  0  0  0  0  0  0  0  0  0  0
  1  9  1  0  0  0  0
  1  2  1  0  0  0  0
  2  3  2  0  0  0  0
  2 14  1  0  0  0  0
  3  7  1  0  0  0  0
  4  3  1  0  0  0  0
  5  6  1  0  0  0  0
  5  1  2  0  0  0  0
  6  4  2  0  0  0  0
  8  6  1  0  0  0  0
  9 10  1  0  0  0  0
 10 13  1  0  0  0  0
 10 12  1  0  0  0  0
 11 10  1  0  0  0  0
 15 14  1  0  0  0  0
M  END
>  <Pose>
7

>  <Score>
-3.728

$$$$
out/docking_results/vina_output/4agl_docked_ligand.pdbqt
 OpenBabel03072216143D

 15 15  0  0  0  0  0  0  0  0999 V2000
   90.9530   98.7780  -42.8820 C   0  0  0  0  0  0  0  0  0  0  0  0
   89.6480   99.1750  -43.1960 C   0  0  0  0  0  0  0  0  0  0  0  0
   89.1370  100.3780  -42.7160 C   0  0  0  0  0  0  0  0  0  0  0  0
   89.9130  101.2150  -41.9010 C   0  0  0  0  0  3  0  0  0  0  0  0
   91.7310   99.6250  -42.0640 C   0  0  0  0  0  3  0  0  0  0  0  0
   91.2160  100.8330  -41.5750 C   0  0  0  0  0  0  0  0  0  0  0  0
   87.1540  100.8890  -43.2120 I   0  0  0  0  0  0  0  0  0  0  0  0
   92.4200  102.0400  -40.3620 I   0  0  0  0  0  0  0  0  0  0  0  0
   91.5260   97.4570  -43.3730 C   0  0  0  0  0  2  0  0  0  0  0  0
   91.6170   97.3530  -44.8420 N   0  0  0  0  0  4  0  0  0  0  0  0
   90.7410   97.7210  -45.1850 H   0  0  0  0  0  0  0  0  0  0  0  0
   92.6650   98.2030  -45.4430 C   0  0  0  0  0  1  0  0  0  0  0  0
   91.7310   95.9560  -45.2900 C   0  0  0  0  0  1  0  0  0  0  0  0
   88.9000   98.3730  -44.0130 O   0  0  0  0  0  0  0  0  0  0  0  0
   89.3570   97.5980  -44.3500 H   0  0  0  0  0  0  0  0  0  0  0  0
  1  5  1  0  0  0  0
  2  1  2  0  0  0  0
  2  3  1  0  0  0  0
  3  4  2  0  0  0  0
  4  6  1  0  0  0  0
  5  6  2  0  0  0  0
  6  8  1  0  0  0  0
  7  3  1  0  0  0  0
  9  1  1  0  0  0  0
 10  9  1  0  0  0  0
 11 10  1  0  0  0  0
 12 10  1  0  0  0  0
 13 10  1  0  0  0  0
 14  2  1  0  0  0  0
 15 14  1  0  0  0  0
M  END
>  <Pose>
8

>  <Score>
-3.635

$$$$
out/docking_results/vina_output/4agl_docked_ligand.pdbqt
 OpenBabel03072216143D

 15 15  0  0  0  0  0  0  0  0999 V2000
   90.9250   97.7520  -44.7260 C   0  0  0  0  0  0  0  0  0  0  0  0
   89.9890   97.7520  -45.7660 C   0  0  0  0  0  0  0  0  0  0  0  0
   89.6160   96.5620  -46.3860 C   0  0  0  0  0  0  0  0  0  0  0  0
   90.1760   95.3390  -45.9900 C   0  0  0  0  0  3  0  0  0  0  0  0
   91.4840   96.5180  -44.3290 C   0  0  0  0  0  3  0  0  0  0  0  0
   91.1140   95.3200  -44.9560 C   0  0  0  0  0  0  0  0  0  0  0  0
   88.2210   96.6520  -47.9610 I   0  0  0  0  0  0  0  0  0  0  0  0
   91.9840   93.5260  -44.3230 I   0  0  0  0  0  0  0  0  0  0  0  0
   91.3680   99.0410  -44.0500 C   0  0  0  0  0  2  0  0  0  0  0  0
   90.9560   99.1480  -42.6370 N   0  0  0  0  0  4  0  0  0  0  0  0
   91.0130   98.2060  -42.2760 H   0  0  0  0  0  0  0  0  0  0  0  0
   91.8720   99.9480  -41.8000 C   0  0  0  0  0  1  0  0  0  0  0  0
   89.5630   99.6030  -42.5030 C   0  0  0  0  0  1  0  0  0  0  0  0
   89.4220   98.9410  -46.1340 O   0  0  0  0  0  0  0  0  0  0  0  0
   88.6000   99.1540  -45.6880 H   0  0  0  0  0  0  0  0  0  0  0  0
  1  5  1  0  0  0  0
  1  9  1  0  0  0  0
  2  1  2  0  0  0  0
  3  4  2  0  0  0  0
  3  2  1  0  0  0  0
  4  6  1  0  0  0  0
  6  5  2  0  0  0  0
  6  8  1  0  0  0  0
  7  3  1  0  0  0  0
  9 10  1  0  0  0  0
 10 13  1  0  0  0  0
 10 11  1  0  0  0  0
 10 12  1  0  0  0  0
 14  2  1  0  0  0  0
 14 15  1  0  0  0  0
M  END
>  <Pose>
9

>  <Score>
-3.628

$$$$
out/docking_results/vina_output/4agl_docked_ligand.pdbqt
 OpenBabel03072216143D

 15 15  0  0  0  0  0  0  0  0999 V2000
   88.8840   98.2880  -44.5150 C   0  0  0  0  0  0  0  0  0  0  0  0
   87.5690   98.4400  -44.0610 C   0  0  0  0  0  0  0  0  0  0  0  0
   86.5030   97.9070  -44.7810 C   0  0  0  0  0  0  0  0  0  0  0  0
   86.7200   97.2150  -45.9810 C   0  0  0  0  0  3  0  0  0  0  0  0
   89.0980   97.5880  -45.7210 C   0  0  0  0  0  3  0  0  0  0  0  0
   88.0260   97.0560  -46.4500 C   0  0  0  0  0  0  0  0  0  0  0  0
   84.5520   98.2050  -44.0450 I   0  0  0  0  0  0  0  0  0  0  0  0
   88.4120   96.0320  -48.2340 I   0  0  0  0  0  0  0  0  0  0  0  0
   90.0630   98.8830  -43.7600 C   0  0  0  0  0  2  0  0  0  0  0  0
   91.2970   98.0780  -43.8460 N   0  0  0  0  0  4  0  0  0  0  0  0
   91.1300   97.4230  -44.5970 H   0  0  0  0  0  0  0  0  0  0  0  0
   92.4920   98.8450  -44.2500 C   0  0  0  0  0  1  0  0  0  0  0  0
   91.5390   97.3070  -42.6160 C   0  0  0  0  0  1  0  0  0  0  0  0
   87.3580   99.0930  -42.8770 O   0  0  0  0  0  0  0  0  0  0  0  0
   86.8910   98.5840  -42.2110 H   0  0  0  0  0  0  0  0  0  0  0  0
  1  2  1  0  0  0  0
  1  9  1  0  0  0  0
  2 14  1  0  0  0  0
  3  2  2  0  0  0  0
  3  7  1  0  0  0  0
  4  3  1  0  0  0  0
  5  1  2  0  0  0  0
  6  4  2  0  0  0  0
  6  5  1  0  0  0  0
  8  6  1  0  0  0  0
 10  9  1  0  0  0  0
 10 13  1  0  0  0  0
 11 10  1  0  0  0  0
 12 10  1  0  0  0  0
 14 15  1  0  0  0  0
M  END
>  <Pose>
10

>  <Score>
-3.601

$$$$
