out/docking_results/vina_output/4x21_docked_ligand.pdbqt
 OpenBabel03112211143D

 31 34  0  0  0  0  0  0  0  0999 V2000
   18.8880   32.3810   70.7300 C   0  0  0  0  0  0  0  0  0  0  0  0
   17.7670   32.9970   70.4130 N   0  0  0  0  0  0  0  0  0  0  0  0
   16.6760   32.6170   71.0590 C   0  0  0  0  0  0  0  0  0  0  0  0
   16.7290   31.6280   72.0260 C   0  0  0  0  0  0  0  0  0  0  0  0
   17.9730   31.0470   72.2930 C   0  0  0  0  0  3  0  0  0  0  0  0
   19.0500   31.4230   71.6390 N   0  0  0  0  0  0  0  0  0  0  0  0
   15.0940   30.9700   73.1450 I   0  0  0  0  0  0  0  0  0  0  0  0
   19.9980   32.7180   70.0990 N   0  0  0  0  0  0  0  0  0  0  0  0
   20.5940   31.9530   69.8170 H   0  0  0  0  0  0  0  0  0  0  0  0
   20.4690   34.0460   69.7610 C   0  0  0  0  0  3  0  0  0  0  0  0
   21.4220   34.6560   70.7440 C   0  0  0  0  0  2  0  0  0  0  0  0
   21.8440   36.0390   70.3450 C   0  0  0  0  0  2  0  0  0  0  0  0
   22.3440   36.1250   68.9750 N   0  0  0  0  0  0  0  0  0  0  0  0
   23.4970   36.7150   68.5760 C   0  0  0  0  0  0  0  0  0  0  0  0
   21.4510   35.5210   68.0240 C   0  0  0  0  0  2  0  0  0  0  0  0
   23.7850   36.6770   67.1920 N   0  0  0  0  0  0  0  0  0  0  0  0
   24.2750   37.2530   69.3610 O   0  0  0  0  0  0  0  0  0  0  0  0
   23.1280   36.2350   66.5650 H   0  0  0  0  0  0  0  0  0  0  0  0
   20.9730   34.1440   68.3710 C   0  0  0  0  0  2  0  0  0  0  0  0
   25.0020   37.2580   66.6480 C   0  0  0  0  0  2  0  0  0  0  0  0
   24.7920   38.4430   65.6800 C   0  0  0  0  0  1  0  0  0  0  0  0
   15.4450   33.2860   70.7010 C   0  0  0  0  0  0  0  0  0  0  0  0
   14.2460   32.7550   70.4370 C   0  0  0  0  0  3  0  0  0  0  0  0
   13.3150   33.6650   70.1220 N   0  0  0  0  0  0  0  0  0  0  0  0
   12.3450   33.4740   69.9160 H   0  0  0  0  0  0  0  0  0  0  0  0
   13.8980   34.8740   70.1270 C   0  0  0  0  0  0  0  0  0  0  0  0
   15.2460   34.7000   70.4950 C   0  0  0  0  0  0  0  0  0  0  0  0
   13.3820   36.1150   69.8530 C   0  0  0  0  0  3  0  0  0  0  0  0
   16.0860   35.8010   70.5820 C   0  0  0  0  0  3  0  0  0  0  0  0
   15.5330   37.0380   70.3010 C   0  0  0  0  0  3  0  0  0  0  0  0
   14.2060   37.2110   69.9600 C   0  0  0  0  0  3  0  0  0  0  0  0
  1  6  1  0  0  0  0
  2  1  2  0  0  0  0
  2  3  1  0  0  0  0
  3  4  2  0  0  0  0
  4  5  1  0  0  0  0
  4  7  1  0  0  0  0
  6  5  2  0  0  0  0
  8  1  1  0  0  0  0
  9  8  1  0  0  0  0
 10  8  1  0  0  0  0
 10 11  1  0  0  0  0
 12 11  1  0  0  0  0
 13 12  1  0  0  0  0
 14 13  1  0  0  0  0
 14 17  2  0  0  0  0
 15 19  1  0  0  0  0
 15 13  1  0  0  0  0
 16 14  1  0  0  0  0
 18 16  1  0  0  0  0
 19 10  1  0  0  0  0
 20 16  1  0  0  0  0
 21 20  1  0  0  0  0
 22  3  1  0  0  0  0
 23 22  2  0  0  0  0
 24 26  1  0  0  0  0
 24 23  1  0  0  0  0
 25 24  1  0  0  0  0
 26 27  1  0  0  0  0
 27 29  2  0  0  0  0
 27 22  1  0  0  0  0
 28 31  1  0  0  0  0
 28 26  2  0  0  0  0
 30 29  1  0  0  0  0
 31 30  2  0  0  0  0
M  END
>  <Pose>
1

>  <Score>
-9.188

$$$$
out/docking_results/vina_output/4x21_docked_ligand.pdbqt
 OpenBabel03112211143D

 31 34  0  0  0  0  0  0  0  0999 V2000
   18.6680   31.9270   72.5190 C   0  0  0  0  0  0  0  0  0  0  0  0
   17.9070   32.9640   72.2350 N   0  0  0  0  0  0  0  0  0  0  0  0
   16.6570   32.7060   71.8820 C   0  0  0  0  0  0  0  0  0  0  0  0
   16.1870   31.4050   71.8280 C   0  0  0  0  0  0  0  0  0  0  0  0
   17.0760   30.3780   72.1590 C   0  0  0  0  0  3  0  0  0  0  0  0
   18.3190   30.6430   72.5000 N   0  0  0  0  0  0  0  0  0  0  0  0
   14.2330   30.8670   71.3300 I   0  0  0  0  0  0  0  0  0  0  0  0
   19.9260   32.1380   72.8610 N   0  0  0  0  0  0  0  0  0  0  0  0
   20.1660   31.9150   73.8160 H   0  0  0  0  0  0  0  0  0  0  0  0
   21.0040   32.6480   72.0390 C   0  0  0  0  0  3  0  0  0  0  0  0
   21.4170   31.7620   70.9020 C   0  0  0  0  0  2  0  0  0  0  0  0
   22.5550   32.3390   70.1130 C   0  0  0  0  0  2  0  0  0  0  0  0
   22.3250   33.7150   69.6770 N   0  0  0  0  0  0  0  0  0  0  0  0
   22.4950   34.1980   68.4230 C   0  0  0  0  0  0  0  0  0  0  0  0
   21.9050   34.5700   70.7530 C   0  0  0  0  0  2  0  0  0  0  0  0
   22.2100   35.5700   68.2260 N   0  0  0  0  0  0  0  0  0  0  0  0
   22.8680   33.4980   67.4840 O   0  0  0  0  0  0  0  0  0  0  0  0
   21.9120   36.1280   69.0130 H   0  0  0  0  0  0  0  0  0  0  0  0
   20.7830   34.0450   71.5960 C   0  0  0  0  0  2  0  0  0  0  0  0
   22.3350   36.1980   66.9200 C   0  0  0  0  0  2  0  0  0  0  0  0
   21.0000   36.5090   66.2090 C   0  0  0  0  0  1  0  0  0  0  0  0
   15.8270   33.8440   71.5590 C   0  0  0  0  0  0  0  0  0  0  0  0
   14.5020   33.9800   71.6820 C   0  0  0  0  0  3  0  0  0  0  0  0
   14.0440   35.1720   71.2740 N   0  0  0  0  0  0  0  0  0  0  0  0
   13.0850   35.4830   71.3090 H   0  0  0  0  0  0  0  0  0  0  0  0
   15.0880   35.8790   70.8110 C   0  0  0  0  0  0  0  0  0  0  0  0
   16.2460   35.0940   70.9730 C   0  0  0  0  0  0  0  0  0  0  0  0
   15.1420   37.1380   70.2690 C   0  0  0  0  0  3  0  0  0  0  0  0
   17.4780   35.5910   70.5740 C   0  0  0  0  0  3  0  0  0  0  0  0
   17.4980   36.8650   70.0330 C   0  0  0  0  0  3  0  0  0  0  0  0
   16.3650   37.6430   69.8930 C   0  0  0  0  0  3  0  0  0  0  0  0
  1  8  1  0  0  0  0
  2  1  2  0  0  0  0
  3  2  1  0  0  0  0
  4  3  2  0  0  0  0
  4  5  1  0  0  0  0
  5  6  2  0  0  0  0
  6  1  1  0  0  0  0
  7  4  1  0  0  0  0
  8  9  1  0  0  0  0
 10  8  1  0  0  0  0
 11 10  1  0  0  0  0
 12 11  1  0  0  0  0
 13 12  1  0  0  0  0
 13 15  1  0  0  0  0
 14 13  1  0  0  0  0
 15 19  1  0  0  0  0
 16 14  1  0  0  0  0
 16 18  1  0  0  0  0
 17 14  2  0  0  0  0
 19 10  1  0  0  0  0
 20 16  1  0  0  0  0
 21 20  1  0  0  0  0
 22 23  2  0  0  0  0
 22  3  1  0  0  0  0
 24 25  1  0  0  0  0
 24 23  1  0  0  0  0
 26 27  1  0  0  0  0
 26 24  1  0  0  0  0
 27 22  1  0  0  0  0
 28 26  2  0  0  0  0
 29 27  2  0  0  0  0
 30 29  1  0  0  0  0
 31 30  2  0  0  0  0
 31 28  1  0  0  0  0
M  END
>  <Pose>
2

>  <Score>
-9.155

$$$$
out/docking_results/vina_output/4x21_docked_ligand.pdbqt
 OpenBabel03112211143D

 31 34  0  0  0  0  0  0  0  0999 V2000
   22.3660   34.7480   69.5990 C   0  0  0  0  0  0  0  0  0  0  0  0
   21.2800   35.3660   69.1830 N   0  0  0  0  0  0  0  0  0  0  0  0
   21.4430   36.2930   68.2520 C   0  0  0  0  0  0  0  0  0  0  0  0
   22.6990   36.5780   67.7430 C   0  0  0  0  0  0  0  0  0  0  0  0
   23.7840   35.8550   68.2470 C   0  0  0  0  0  3  0  0  0  0  0  0
   23.6140   34.9430   69.1790 N   0  0  0  0  0  0  0  0  0  0  0  0
   23.0840   37.9810   66.2460 I   0  0  0  0  0  0  0  0  0  0  0  0
   22.2520   33.8270   70.5380 N   0  0  0  0  0  0  0  0  0  0  0  0
   23.1040   33.3460   70.7910 H   0  0  0  0  0  0  0  0  0  0  0  0
   21.0590   33.4190   71.2530 C   0  0  0  0  0  3  0  0  0  0  0  0
   20.4610   34.4630   72.1480 C   0  0  0  0  0  2  0  0  0  0  0  0
   19.2480   33.9620   72.8760 C   0  0  0  0  0  2  0  0  0  0  0  0
   18.2480   33.3580   71.9980 N   0  0  0  0  0  0  0  0  0  0  0  0
   16.9210   33.6330   71.9840 C   0  0  0  0  0  0  0  0  0  0  0  0
   18.8130   32.3730   71.1160 C   0  0  0  0  0  2  0  0  0  0  0  0
   16.1350   32.9260   71.0440 N   0  0  0  0  0  0  0  0  0  0  0  0
   16.4050   34.4580   72.7350 O   0  0  0  0  0  0  0  0  0  0  0  0
   16.5810   32.2480   70.4420 H   0  0  0  0  0  0  0  0  0  0  0  0
   20.0410   32.8000   70.3710 C   0  0  0  0  0  2  0  0  0  0  0  0
   14.7040   33.1510   70.9210 C   0  0  0  0  0  2  0  0  0  0  0  0
   14.2880   34.1800   69.8480 C   0  0  0  0  0  1  0  0  0  0  0  0
   20.2510   36.9790   67.8050 C   0  0  0  0  0  0  0  0  0  0  0  0
   20.0370   37.6320   66.6570 C   0  0  0  0  0  3  0  0  0  0  0  0
   18.8140   38.1720   66.5670 N   0  0  0  0  0  0  0  0  0  0  0  0
   18.4460   38.6800   65.7760 H   0  0  0  0  0  0  0  0  0  0  0  0
   18.1640   37.9180   67.7140 C   0  0  0  0  0  0  0  0  0  0  0  0
   19.0200   37.1580   68.5350 C   0  0  0  0  0  0  0  0  0  0  0  0
   16.9020   38.2690   68.1210 C   0  0  0  0  0  3  0  0  0  0  0  0
   18.5920   36.7520   69.7910 C   0  0  0  0  0  3  0  0  0  0  0  0
   17.3130   37.1220   70.1700 C   0  0  0  0  0  3  0  0  0  0  0  0
   16.4660   37.8500   69.3570 C   0  0  0  0  0  3  0  0  0  0  0  0
  1  8  1  0  0  0  0
  2  1  2  0  0  0  0
  3  2  1  0  0  0  0
  4  5  1  0  0  0  0
  4  3  2  0  0  0  0
  5  6  2  0  0  0  0
  6  1  1  0  0  0  0
  7  4  1  0  0  0  0
  8  9  1  0  0  0  0
  8 10  1  0  0  0  0
 10 11  1  0  0  0  0
 11 12  1  0  0  0  0
 13 12  1  0  0  0  0
 14 13  1  0  0  0  0
 14 17  2  0  0  0  0
 15 13  1  0  0  0  0
 16 14  1  0  0  0  0
 18 16  1  0  0  0  0
 19 15  1  0  0  0  0
 19 10  1  0  0  0  0
 20 16  1  0  0  0  0
 21 20  1  0  0  0  0
 22  3  1  0  0  0  0
 22 27  1  0  0  0  0
 23 22  2  0  0  0  0
 24 23  1  0  0  0  0
 24 26  1  0  0  0  0
 25 24  1  0  0  0  0
 26 28  2  0  0  0  0
 26 27  1  0  0  0  0
 27 29  2  0  0  0  0
 28 31  1  0  0  0  0
 29 30  1  0  0  0  0
 31 30  2  0  0  0  0
M  END
>  <Pose>
3

>  <Score>
-9.119

$$$$
out/docking_results/vina_output/4x21_docked_ligand.pdbqt
 OpenBabel03112211143D

 31 34  0  0  0  0  0  0  0  0999 V2000
   20.7220   34.6290   70.0460 C   0  0  0  0  0  0  0  0  0  0  0  0
   19.6090   35.3100   69.8670 N   0  0  0  0  0  0  0  0  0  0  0  0
   18.6430   35.1150   70.7510 C   0  0  0  0  0  0  0  0  0  0  0  0
   18.8150   34.2430   71.8130 C   0  0  0  0  0  0  0  0  0  0  0  0
   20.0410   33.5780   71.9150 C   0  0  0  0  0  3  0  0  0  0  0  0
   20.9910   33.7700   71.0260 N   0  0  0  0  0  0  0  0  0  0  0  0
   17.3930   33.8810   73.2970 I   0  0  0  0  0  0  0  0  0  0  0  0
   21.7050   34.7810   69.1780 N   0  0  0  0  0  0  0  0  0  0  0  0
   22.5160   34.1960   69.3230 H   0  0  0  0  0  0  0  0  0  0  0  0
   21.7680   35.6800   68.0430 C   0  0  0  0  0  3  0  0  0  0  0  0
   21.9200   37.1320   68.3850 C   0  0  0  0  0  2  0  0  0  0  0  0
   21.9480   38.0050   67.1650 C   0  0  0  0  0  2  0  0  0  0  0  0
   22.9210   37.5760   66.1630 N   0  0  0  0  0  0  0  0  0  0  0  0
   23.8390   38.3610   65.5480 C   0  0  0  0  0  0  0  0  0  0  0  0
   22.8030   36.1790   65.8440 C   0  0  0  0  0  2  0  0  0  0  0  0
   24.6860   37.7300   64.6070 N   0  0  0  0  0  0  0  0  0  0  0  0
   23.9550   39.5610   65.7860 O   0  0  0  0  0  0  0  0  0  0  0  0
   24.5670   36.7440   64.4220 H   0  0  0  0  0  0  0  0  0  0  0  0
   22.7480   35.2500   67.0190 C   0  0  0  0  0  2  0  0  0  0  0  0
   25.7230   38.4640   63.8980 C   0  0  0  0  0  2  0  0  0  0  0  0
   26.8840   37.6040   63.3560 C   0  0  0  0  0  1  0  0  0  0  0  0
   17.4180   35.8550   70.5470 C   0  0  0  0  0  0  0  0  0  0  0  0
   17.2120   37.1750   70.6080 C   0  0  0  0  0  3  0  0  0  0  0  0
   15.9410   37.5310   70.3780 N   0  0  0  0  0  0  0  0  0  0  0  0
   15.5840   38.4750   70.3530 H   0  0  0  0  0  0  0  0  0  0  0  0
   15.2250   36.4110   70.1890 C   0  0  0  0  0  0  0  0  0  0  0  0
   16.1070   35.3170   70.2750 C   0  0  0  0  0  0  0  0  0  0  0  0
   13.8870   36.2380   69.9400 C   0  0  0  0  0  3  0  0  0  0  0  0
   15.6240   34.0260   70.1120 C   0  0  0  0  0  3  0  0  0  0  0  0
   14.2700   33.8870   69.8610 C   0  0  0  0  0  3  0  0  0  0  0  0
   13.4090   34.9620   69.7560 C   0  0  0  0  0  3  0  0  0  0  0  0
  1  6  1  0  0  0  0
  2  1  2  0  0  0  0
  2  3  1  0  0  0  0
  3  4  2  0  0  0  0
  4  5  1  0  0  0  0
  4  7  1  0  0  0  0
  6  5  2  0  0  0  0
  8  9  1  0  0  0  0
  8  1  1  0  0  0  0
 10 11  1  0  0  0  0
 10  8  1  0  0  0  0
 12 11  1  0  0  0  0
 13 12  1  0  0  0  0
 14 17  2  0  0  0  0
 14 13  1  0  0  0  0
 15 13  1  0  0  0  0
 15 19  1  0  0  0  0
 16 14  1  0  0  0  0
 18 16  1  0  0  0  0
 19 10  1  0  0  0  0
 20 16  1  0  0  0  0
 21 20  1  0  0  0  0
 22 23  2  0  0  0  0
 22  3  1  0  0  0  0
 24 23  1  0  0  0  0
 25 24  1  0  0  0  0
 26 27  1  0  0  0  0
 26 24  1  0  0  0  0
 27 22  1  0  0  0  0
 28 26  2  0  0  0  0
 29 27  2  0  0  0  0
 30 29  1  0  0  0  0
 31 30  2  0  0  0  0
 31 28  1  0  0  0  0
M  END
>  <Pose>
4

>  <Score>
-9.016

$$$$
out/docking_results/vina_output/4x21_docked_ligand.pdbqt
 OpenBabel03112211143D

 31 34  0  0  0  0  0  0  0  0999 V2000
   18.6970   33.0080   71.9020 C   0  0  0  0  0  0  0  0  0  0  0  0
   17.6870   33.7880   71.5760 N   0  0  0  0  0  0  0  0  0  0  0  0
   17.9760   34.8780   70.8840 C   0  0  0  0  0  0  0  0  0  0  0  0
   19.2800   35.1660   70.5210 C   0  0  0  0  0  0  0  0  0  0  0  0
   20.2770   34.2650   70.9090 C   0  0  0  0  0  3  0  0  0  0  0  0
   19.9810   33.1890   71.6050 N   0  0  0  0  0  0  0  0  0  0  0  0
   19.8630   36.8250   69.3950 I   0  0  0  0  0  0  0  0  0  0  0  0
   18.4560   31.9170   72.6060 N   0  0  0  0  0  0  0  0  0  0  0  0
   19.1920   31.6250   73.2330 H   0  0  0  0  0  0  0  0  0  0  0  0
   17.2680   31.0870   72.5940 C   0  0  0  0  0  3  0  0  0  0  0  0
   17.4270   29.7330   73.2180 C   0  0  0  0  0  2  0  0  0  0  0  0
   16.1680   28.9200   73.1430 C   0  0  0  0  0  2  0  0  0  0  0  0
   14.9900   29.6200   73.6500 N   0  0  0  0  0  0  0  0  0  0  0  0
   14.0890   29.1350   74.5380 C   0  0  0  0  0  0  0  0  0  0  0  0
   14.8390   30.9300   73.0780 C   0  0  0  0  0  2  0  0  0  0  0  0
   13.0200   29.9920   74.8910 N   0  0  0  0  0  0  0  0  0  0  0  0
   14.1790   28.0140   75.0340 O   0  0  0  0  0  0  0  0  0  0  0  0
   12.9620   30.9060   74.4660 H   0  0  0  0  0  0  0  0  0  0  0  0
   16.0660   31.7900   73.1010 C   0  0  0  0  0  2  0  0  0  0  0  0
   12.0030   29.5910   75.8500 C   0  0  0  0  0  2  0  0  0  0  0  0
   10.7430   30.4830   75.8860 C   0  0  0  0  0  1  0  0  0  0  0  0
   16.8670   35.7380   70.5370 C   0  0  0  0  0  0  0  0  0  0  0  0
   16.8070   37.0750   70.5370 C   0  0  0  0  0  3  0  0  0  0  0  0
   15.6120   37.5580   70.1720 N   0  0  0  0  0  0  0  0  0  0  0  0
   15.3690   38.5340   70.0820 H   0  0  0  0  0  0  0  0  0  0  0  0
   14.7950   36.5170   69.9460 C   0  0  0  0  0  0  0  0  0  0  0  0
   15.5350   35.3370   70.1520 C   0  0  0  0  0  0  0  0  0  0  0  0
   13.4760   36.4820   69.5710 C   0  0  0  0  0  3  0  0  0  0  0  0
   14.9270   34.1010   69.9820 C   0  0  0  0  0  3  0  0  0  0  0  0
   13.5960   34.1020   69.6020 C   0  0  0  0  0  3  0  0  0  0  0  0
   12.8760   35.2590   69.3800 C   0  0  0  0  0  3  0  0  0  0  0  0
  1  8  1  0  0  0  0
  2  1  2  0  0  0  0
  3  2  1  0  0  0  0
  4  3  2  0  0  0  0
  4  5  1  0  0  0  0
  5  6  2  0  0  0  0
  6  1  1  0  0  0  0
  7  4  1  0  0  0  0
  8  9  1  0  0  0  0
 10  8  1  0  0  0  0
 10 19  1  0  0  0  0
 10 11  1  0  0  0  0
 12 11  1  0  0  0  0
 12 13  1  0  0  0  0
 13 14  1  0  0  0  0
 14 16  1  0  0  0  0
 14 17  2  0  0  0  0
 15 19  1  0  0  0  0
 15 13  1  0  0  0  0
 16 20  1  0  0  0  0
 18 16  1  0  0  0  0
 20 21  1  0  0  0  0
 22 23  2  0  0  0  0
 22  3  1  0  0  0  0
 24 23  1  0  0  0  0
 25 24  1  0  0  0  0
 26 27  1  0  0  0  0
 26 24  1  0  0  0  0
 27 22  1  0  0  0  0
 28 26  2  0  0  0  0
 29 27  2  0  0  0  0
 30 29  1  0  0  0  0
 31 28  1  0  0  0  0
 31 30  2  0  0  0  0
M  END
>  <Pose>
5

>  <Score>
-8.930

$$$$
out/docking_results/vina_output/4x21_docked_ligand.pdbqt
 OpenBabel03112211143D

 31 34  0  0  0  0  0  0  0  0999 V2000
   14.3580   30.5720   72.5650 C   0  0  0  0  0  0  0  0  0  0  0  0
   14.4040   31.8560   72.2750 N   0  0  0  0  0  0  0  0  0  0  0  0
   15.4890   32.2880   71.6530 C   0  0  0  0  0  0  0  0  0  0  0  0
   16.5130   31.4170   71.3200 C   0  0  0  0  0  0  0  0  0  0  0  0
   16.3580   30.0710   71.6640 C   0  0  0  0  0  3  0  0  0  0  0  0
   15.2800   29.6530   72.2910 N   0  0  0  0  0  0  0  0  0  0  0  0
   18.2520   31.9600   70.3020 I   0  0  0  0  0  0  0  0  0  0  0  0
   13.3000   30.1010   73.1990 N   0  0  0  0  0  0  0  0  0  0  0  0
   12.4120   30.2310   72.7350 H   0  0  0  0  0  0  0  0  0  0  0  0
   13.2520   29.4220   74.4780 C   0  0  0  0  0  3  0  0  0  0  0  0
   14.4950   29.5320   75.3090 C   0  0  0  0  0  2  0  0  0  0  0  0
   14.3840   28.7820   76.6030 C   0  0  0  0  0  2  0  0  0  0  0  0
   13.1860   29.1140   77.3700 N   0  0  0  0  0  0  0  0  0  0  0  0
   13.1380   29.4410   78.6840 C   0  0  0  0  0  0  0  0  0  0  0  0
   11.9870   29.0370   76.5790 C   0  0  0  0  0  2  0  0  0  0  0  0
   11.8620   29.7290   79.2220 N   0  0  0  0  0  0  0  0  0  0  0  0
   14.1410   29.5010   79.3920 O   0  0  0  0  0  0  0  0  0  0  0  0
   11.0510   29.6670   78.6230 H   0  0  0  0  0  0  0  0  0  0  0  0
   12.0370   29.7490   75.2610 C   0  0  0  0  0  2  0  0  0  0  0  0
   11.6870   30.1120   80.6140 C   0  0  0  0  0  2  0  0  0  0  0  0
   10.3930   30.8950   80.9240 C   0  0  0  0  0  1  0  0  0  0  0  0
   15.5420   33.7000   71.3470 C   0  0  0  0  0  0  0  0  0  0  0  0
   16.4130   34.6210   71.7750 C   0  0  0  0  0  3  0  0  0  0  0  0
   16.1660   35.8510   71.3070 N   0  0  0  0  0  0  0  0  0  0  0  0
   16.7170   36.6770   71.4880 H   0  0  0  0  0  0  0  0  0  0  0  0
   15.0560   35.7930   70.5540 C   0  0  0  0  0  0  0  0  0  0  0  0
   14.6190   34.4540   70.5340 C   0  0  0  0  0  0  0  0  0  0  0  0
   14.3850   36.7780   69.8740 C   0  0  0  0  0  3  0  0  0  0  0  0
   13.4820   34.1090   69.8190 C   0  0  0  0  0  3  0  0  0  0  0  0
   12.8300   35.1270   69.1440 C   0  0  0  0  0  3  0  0  0  0  0  0
   13.2690   36.4360   69.1470 C   0  0  0  0  0  3  0  0  0  0  0  0
  1  8  1  0  0  0  0
  2  1  2  0  0  0  0
  3  2  1  0  0  0  0
  4  3  2  0  0  0  0
  4  5  1  0  0  0  0
  5  6  2  0  0  0  0
  6  1  1  0  0  0  0
  7  4  1  0  0  0  0
  8 10  1  0  0  0  0
  9  8  1  0  0  0  0
 10 19  1  0  0  0  0
 10 11  1  0  0  0  0
 11 12  1  0  0  0  0
 12 13  1  0  0  0  0
 13 14  1  0  0  0  0
 14 16  1  0  0  0  0
 14 17  2  0  0  0  0
 15 13  1  0  0  0  0
 16 20  1  0  0  0  0
 18 16  1  0  0  0  0
 19 15  1  0  0  0  0
 20 21  1  0  0  0  0
 22  3  1  0  0  0  0
 22 23  2  0  0  0  0
 24 25  1  0  0  0  0
 24 23  1  0  0  0  0
 26 24  1  0  0  0  0
 27 26  1  0  0  0  0
 27 22  1  0  0  0  0
 28 26  2  0  0  0  0
 29 27  2  0  0  0  0
 30 31  2  0  0  0  0
 30 29  1  0  0  0  0
 31 28  1  0  0  0  0
M  END
>  <Pose>
6

>  <Score>
-8.858

$$$$
out/docking_results/vina_output/4x21_docked_ligand.pdbqt
 OpenBabel03112211143D

 31 34  0  0  0  0  0  0  0  0999 V2000
   20.3850   33.6850   70.3770 C   0  0  0  0  0  0  0  0  0  0  0  0
   19.1220   34.0550   70.3290 N   0  0  0  0  0  0  0  0  0  0  0  0
   18.2470   33.2650   70.9300 C   0  0  0  0  0  0  0  0  0  0  0  0
   18.6570   32.1140   71.5820 C   0  0  0  0  0  0  0  0  0  0  0  0
   20.0240   31.8200   71.5820 C   0  0  0  0  0  3  0  0  0  0  0  0
   20.8850   32.6060   70.9740 N   0  0  0  0  0  0  0  0  0  0  0  0
   17.3870   30.8100   72.6030 I   0  0  0  0  0  0  0  0  0  0  0  0
   21.2900   34.4370   69.7770 N   0  0  0  0  0  0  0  0  0  0  0  0
   22.2040   34.4560   70.2080 H   0  0  0  0  0  0  0  0  0  0  0  0
   21.1390   35.2370   68.5790 C   0  0  0  0  0  3  0  0  0  0  0  0
   20.5330   36.5920   68.7870 C   0  0  0  0  0  2  0  0  0  0  0  0
   20.3800   37.3510   67.5020 C   0  0  0  0  0  2  0  0  0  0  0  0
   21.6080   37.4180   66.7120 N   0  0  0  0  0  0  0  0  0  0  0  0
   22.1530   38.5320   66.1680 C   0  0  0  0  0  0  0  0  0  0  0  0
   22.2130   36.1270   66.5260 C   0  0  0  0  0  2  0  0  0  0  0  0
   23.3550   38.3620   65.4410 N   0  0  0  0  0  0  0  0  0  0  0  0
   21.6540   39.6480   66.2960 O   0  0  0  0  0  0  0  0  0  0  0  0
   23.7430   37.4350   65.3440 H   0  0  0  0  0  0  0  0  0  0  0  0
   22.3780   35.3050   67.7690 C   0  0  0  0  0  2  0  0  0  0  0  0
   24.0440   39.4870   64.8290 C   0  0  0  0  0  2  0  0  0  0  0  0
   25.1330   40.1460   65.7020 C   0  0  0  0  0  1  0  0  0  0  0  0
   16.8590   33.6660   70.8650 C   0  0  0  0  0  0  0  0  0  0  0  0
   15.7600   32.9060   70.9180 C   0  0  0  0  0  3  0  0  0  0  0  0
   14.6200   33.6020   70.8150 N   0  0  0  0  0  0  0  0  0  0  0  0
   13.6860   33.2210   70.8580 H   0  0  0  0  0  0  0  0  0  0  0  0
   14.9390   34.8950   70.6430 C   0  0  0  0  0  0  0  0  0  0  0  0
   16.3430   35.0000   70.6750 C   0  0  0  0  0  0  0  0  0  0  0  0
   14.1390   35.9960   70.4700 C   0  0  0  0  0  3  0  0  0  0  0  0
   16.9460   36.2400   70.5230 C   0  0  0  0  0  3  0  0  0  0  0  0
   16.1100   37.3300   70.3510 C   0  0  0  0  0  3  0  0  0  0  0  0
   14.7330   37.2300   70.3410 C   0  0  0  0  0  3  0  0  0  0  0  0
  1  6  1  0  0  0  0
  2  1  2  0  0  0  0
  2  3  1  0  0  0  0
  3  4  2  0  0  0  0
  4  7  1  0  0  0  0
  5  4  1  0  0  0  0
  6  5  2  0  0  0  0
  8  9  1  0  0  0  0
  8  1  1  0  0  0  0
 10 11  1  0  0  0  0
 10  8  1  0  0  0  0
 12 11  1  0  0  0  0
 13 12  1  0  0  0  0
 14 17  2  0  0  0  0
 14 13  1  0  0  0  0
 15 13  1  0  0  0  0
 15 19  1  0  0  0  0
 16 14  1  0  0  0  0
 18 16  1  0  0  0  0
 19 10  1  0  0  0  0
 20 16  1  0  0  0  0
 20 21  1  0  0  0  0
 22 23  2  0  0  0  0
 22  3  1  0  0  0  0
 24 25  1  0  0  0  0
 24 23  1  0  0  0  0
 26 27  1  0  0  0  0
 26 24  1  0  0  0  0
 27 22  1  0  0  0  0
 28 26  2  0  0  0  0
 29 27  2  0  0  0  0
 30 29  1  0  0  0  0
 31 30  2  0  0  0  0
 31 28  1  0  0  0  0
M  END
>  <Pose>
7

>  <Score>
-8.791

$$$$
out/docking_results/vina_output/4x21_docked_ligand.pdbqt
 OpenBabel03112211143D

 31 34  0  0  0  0  0  0  0  0999 V2000
   18.9010   33.4650   72.3160 C   0  0  0  0  0  0  0  0  0  0  0  0
   17.8310   34.1370   71.9460 N   0  0  0  0  0  0  0  0  0  0  0  0
   18.0110   35.0990   71.0550 C   0  0  0  0  0  0  0  0  0  0  0  0
   19.2680   35.3670   70.5410 C   0  0  0  0  0  0  0  0  0  0  0  0
   20.3350   34.5850   70.9940 C   0  0  0  0  0  3  0  0  0  0  0  0
   20.1480   33.6370   71.8860 N   0  0  0  0  0  0  0  0  0  0  0  0
   19.6790   36.8230   69.1030 I   0  0  0  0  0  0  0  0  0  0  0  0
   18.7690   32.5060   73.2150 N   0  0  0  0  0  0  0  0  0  0  0  0
   18.7850   32.8010   74.1800 H   0  0  0  0  0  0  0  0  0  0  0  0
   18.6040   31.0840   72.9890 C   0  0  0  0  0  3  0  0  0  0  0  0
   19.3520   30.1950   73.9370 C   0  0  0  0  0  2  0  0  0  0  0  0
   19.1580   28.7400   73.6270 C   0  0  0  0  0  2  0  0  0  0  0  0
   17.7550   28.3500   73.5060 N   0  0  0  0  0  0  0  0  0  0  0  0
   17.1600   27.2960   74.1140 C   0  0  0  0  0  0  0  0  0  0  0  0
   17.0190   29.2100   72.6190 C   0  0  0  0  0  2  0  0  0  0  0  0
   15.7820   27.1070   73.8550 N   0  0  0  0  0  0  0  0  0  0  0  0
   17.7630   26.5330   74.8650 O   0  0  0  0  0  0  0  0  0  0  0  0
   15.3080   27.7430   73.2280 H   0  0  0  0  0  0  0  0  0  0  0  0
   17.1840   30.6800   72.8600 C   0  0  0  0  0  2  0  0  0  0  0  0
   15.0300   26.0230   74.4650 C   0  0  0  0  0  2  0  0  0  0  0  0
   15.0890   24.6750   73.7140 C   0  0  0  0  0  1  0  0  0  0  0  0
   16.8370   35.8450   70.6590 C   0  0  0  0  0  0  0  0  0  0  0  0
   16.6490   37.1690   70.6350 C   0  0  0  0  0  3  0  0  0  0  0  0
   15.4270   37.5300   70.2250 N   0  0  0  0  0  0  0  0  0  0  0  0
   15.0940   38.4770   70.1110 H   0  0  0  0  0  0  0  0  0  0  0  0
   14.7210   36.4120   69.9910 C   0  0  0  0  0  0  0  0  0  0  0  0
   15.5630   35.3120   70.2400 C   0  0  0  0  0  0  0  0  0  0  0  0
   13.4240   36.2460   69.5750 C   0  0  0  0  0  3  0  0  0  0  0  0
   15.0820   34.0210   70.0710 C   0  0  0  0  0  3  0  0  0  0  0  0
   13.7700   33.8890   69.6500 C   0  0  0  0  0  3  0  0  0  0  0  0
   12.9500   34.9690   69.3860 C   0  0  0  0  0  3  0  0  0  0  0  0
  1  8  1  0  0  0  0
  2  1  2  0  0  0  0
  3  2  1  0  0  0  0
  4  5  1  0  0  0  0
  4  3  2  0  0  0  0
  5  6  2  0  0  0  0
  6  1  1  0  0  0  0
  7  4  1  0  0  0  0
  8  9  1  0  0  0  0
 10  8  1  0  0  0  0
 10 11  1  0  0  0  0
 12 11  1  0  0  0  0
 13 12  1  0  0  0  0
 13 14  1  0  0  0  0
 14 17  2  0  0  0  0
 15 19  1  0  0  0  0
 15 13  1  0  0  0  0
 16 14  1  0  0  0  0
 16 20  1  0  0  0  0
 18 16  1  0  0  0  0
 19 10  1  0  0  0  0
 21 20  1  0  0  0  0
 22  3  1  0  0  0  0
 23 22  2  0  0  0  0
 24 23  1  0  0  0  0
 25 24  1  0  0  0  0
 26 24  1  0  0  0  0
 26 27  1  0  0  0  0
 27 22  1  0  0  0  0
 28 26  2  0  0  0  0
 29 27  2  0  0  0  0
 30 29  1  0  0  0  0
 31 28  1  0  0  0  0
 31 30  2  0  0  0  0
M  END
>  <Pose>
8

>  <Score>
-8.589

$$$$
out/docking_results/vina_output/4x21_docked_ligand.pdbqt
 OpenBabel03112211143D

 31 34  0  0  0  0  0  0  0  0999 V2000
   16.7770   31.1060   71.8590 C   0  0  0  0  0  0  0  0  0  0  0  0
   16.2700   32.2830   71.5550 N   0  0  0  0  0  0  0  0  0  0  0  0
   17.1220   33.2110   71.1490 C   0  0  0  0  0  0  0  0  0  0  0  0
   18.4760   32.9380   71.0450 C   0  0  0  0  0  0  0  0  0  0  0  0
   18.9070   31.6510   71.3820 C   0  0  0  0  0  3  0  0  0  0  0  0
   18.0540   30.7390   71.7940 N   0  0  0  0  0  0  0  0  0  0  0  0
   19.9150   34.2950   70.3770 I   0  0  0  0  0  0  0  0  0  0  0  0
   15.9640   30.1560   72.2830 N   0  0  0  0  0  0  0  0  0  0  0  0
   15.9740   29.2970   71.7520 H   0  0  0  0  0  0  0  0  0  0  0  0
   15.0590   30.1900   73.4150 C   0  0  0  0  0  3  0  0  0  0  0  0
   13.7580   30.8960   73.1730 C   0  0  0  0  0  2  0  0  0  0  0  0
   12.8870   30.9170   74.3940 C   0  0  0  0  0  2  0  0  0  0  0  0
   12.6890   29.6000   74.9940 N   0  0  0  0  0  0  0  0  0  0  0  0
   11.5040   29.0510   75.3540 C   0  0  0  0  0  0  0  0  0  0  0  0
   13.9280   28.9010   75.2090 C   0  0  0  0  0  2  0  0  0  0  0  0
   11.5490   27.7540   75.9190 N   0  0  0  0  0  0  0  0  0  0  0  0
   10.4300   29.6270   75.1990 O   0  0  0  0  0  0  0  0  0  0  0  0
   12.4440   27.3030   76.0430 H   0  0  0  0  0  0  0  0  0  0  0  0
   14.8570   28.8590   74.0340 C   0  0  0  0  0  2  0  0  0  0  0  0
   10.3410   27.0550   76.3250 C   0  0  0  0  0  2  0  0  0  0  0  0
   10.2780   25.5640   75.9300 C   0  0  0  0  0  1  0  0  0  0  0  0
   16.5660   34.5060   70.8270 C   0  0  0  0  0  0  0  0  0  0  0  0
   17.0950   35.7200   71.0190 C   0  0  0  0  0  3  0  0  0  0  0  0
   16.3010   36.7210   70.6150 N   0  0  0  0  0  0  0  0  0  0  0  0
   16.5240   37.7050   70.6480 H   0  0  0  0  0  0  0  0  0  0  0  0
   15.1570   36.1840   70.1600 C   0  0  0  0  0  0  0  0  0  0  0  0
   15.2690   34.7840   70.2600 C   0  0  0  0  0  0  0  0  0  0  0  0
   14.0290   36.7820   69.6590 C   0  0  0  0  0  3  0  0  0  0  0  0
   14.2170   33.9770   69.8510 C   0  0  0  0  0  3  0  0  0  0  0  0
   13.0940   34.6120   69.3490 C   0  0  0  0  0  3  0  0  0  0  0  0
   12.9930   35.9840   69.2320 C   0  0  0  0  0  3  0  0  0  0  0  0
  1  8  1  0  0  0  0
  2  1  2  0  0  0  0
  3  2  1  0  0  0  0
  4  3  2  0  0  0  0
  4  5  1  0  0  0  0
  5  6  2  0  0  0  0
  6  1  1  0  0  0  0
  7  4  1  0  0  0  0
  8 10  1  0  0  0  0
  9  8  1  0  0  0  0
 10 19  1  0  0  0  0
 11 10  1  0  0  0  0
 11 12  1  0  0  0  0
 12 13  1  0  0  0  0
 13 15  1  0  0  0  0
 13 14  1  0  0  0  0
 14 16  1  0  0  0  0
 16 18  1  0  0  0  0
 16 20  1  0  0  0  0
 17 14  2  0  0  0  0
 19 15  1  0  0  0  0
 21 20  1  0  0  0  0
 22 23  2  0  0  0  0
 22  3  1  0  0  0  0
 24 25  1  0  0  0  0
 24 23  1  0  0  0  0
 26 27  1  0  0  0  0
 26 24  1  0  0  0  0
 27 22  1  0  0  0  0
 28 26  2  0  0  0  0
 29 27  2  0  0  0  0
 30 29  1  0  0  0  0
 31 30  2  0  0  0  0
 31 28  1  0  0  0  0
M  END
>  <Pose>
9

>  <Score>
-8.469

$$$$
out/docking_results/vina_output/4x21_docked_ligand.pdbqt
 OpenBabel03112211143D

 31 34  0  0  0  0  0  0  0  0999 V2000
   20.2420   35.1570   70.3030 C   0  0  0  0  0  0  0  0  0  0  0  0
   21.3010   34.6180   69.7350 N   0  0  0  0  0  0  0  0  0  0  0  0
   21.7870   35.2380   68.6730 C   0  0  0  0  0  0  0  0  0  0  0  0
   21.2050   36.4020   68.1990 C   0  0  0  0  0  0  0  0  0  0  0  0
   20.0900   36.8960   68.8830 C   0  0  0  0  0  3  0  0  0  0  0  0
   19.6080   36.2660   69.9330 N   0  0  0  0  0  0  0  0  0  0  0  0
   21.9000   37.4990   66.5650 I   0  0  0  0  0  0  0  0  0  0  0  0
   19.7140   34.5620   71.3570 N   0  0  0  0  0  0  0  0  0  0  0  0
   20.1800   34.7280   72.2370 H   0  0  0  0  0  0  0  0  0  0  0  0
   18.5500   33.7000   71.4100 C   0  0  0  0  0  3  0  0  0  0  0  0
   18.6300   32.4630   70.5660 C   0  0  0  0  0  2  0  0  0  0  0  0
   17.3820   31.6360   70.6470 C   0  0  0  0  0  2  0  0  0  0  0  0
   16.9680   31.3360   72.0160 N   0  0  0  0  0  0  0  0  0  0  0  0
   16.6380   30.1160   72.5060 C   0  0  0  0  0  0  0  0  0  0  0  0
   16.9110   32.5100   72.8440 C   0  0  0  0  0  2  0  0  0  0  0  0
   16.2670   30.0580   73.8700 N   0  0  0  0  0  0  0  0  0  0  0  0
   16.6610   29.0960   71.8220 O   0  0  0  0  0  0  0  0  0  0  0  0
   16.2480   30.9110   74.4110 H   0  0  0  0  0  0  0  0  0  0  0  0
   18.1190   33.3950   72.7950 C   0  0  0  0  0  2  0  0  0  0  0  0
   15.9120   28.8040   74.5140 C   0  0  0  0  0  2  0  0  0  0  0  0
   14.7650   28.8930   75.5440 C   0  0  0  0  0  1  0  0  0  0  0  0
   22.9430   34.6380   68.0440 C   0  0  0  0  0  0  0  0  0  0  0  0
   23.0260   33.4960   67.3530 C   0  0  0  0  0  3  0  0  0  0  0  0
   24.2620   33.2230   66.9150 N   0  0  0  0  0  0  0  0  0  0  0  0
   24.5310   32.4270   66.3550 H   0  0  0  0  0  0  0  0  0  0  0  0
   25.0800   34.1940   67.3510 C   0  0  0  0  0  0  0  0  0  0  0  0
   24.3010   35.1250   68.0650 C   0  0  0  0  0  0  0  0  0  0  0  0
   26.4320   34.3630   67.1880 C   0  0  0  0  0  3  0  0  0  0  0  0
   24.9020   36.2410   68.6280 C   0  0  0  0  0  3  0  0  0  0  0  0
   26.2670   36.3820   68.4440 C   0  0  0  0  0  3  0  0  0  0  0  0
   27.0280   35.4800   67.7260 C   0  0  0  0  0  3  0  0  0  0  0  0
  1  8  1  0  0  0  0
  2  1  2  0  0  0  0
  3  2  1  0  0  0  0
  4  3  2  0  0  0  0
  4  5  1  0  0  0  0
  5  6  2  0  0  0  0
  6  1  1  0  0  0  0
  7  4  1  0  0  0  0
  8 10  1  0  0  0  0
  8  9  1  0  0  0  0
 10 19  1  0  0  0  0
 11 12  1  0  0  0  0
 11 10  1  0  0  0  0
 12 13  1  0  0  0  0
 13 14  1  0  0  0  0
 13 15  1  0  0  0  0
 14 16  1  0  0  0  0
 16 18  1  0  0  0  0
 16 20  1  0  0  0  0
 17 14  2  0  0  0  0
 19 15  1  0  0  0  0
 20 21  1  0  0  0  0
 22 27  1  0  0  0  0
 22  3  1  0  0  0  0
 23 22  2  0  0  0  0
 24 26  1  0  0  0  0
 24 23  1  0  0  0  0
 25 24  1  0  0  0  0
 26 27  1  0  0  0  0
 27 29  2  0  0  0  0
 28 26  2  0  0  0  0
 28 31  1  0  0  0  0
 30 29  1  0  0  0  0
 31 30  2  0  0  0  0
M  END
>  <Pose>
10

>  <Score>
-8.341

$$$$
