out/docking_results/vina_output/6s1j_docked_ligand.pdbqt
 OpenBabel03072216083D

 21 24  0  0  1  0  0  0  0  0999 V2000
   15.3430  -56.0490   37.8730 N   0  0  0  0  0  0  0  0  0  0  0  0
   14.0600  -57.9800   38.0080 C   0  0  0  0  0  2  0  0  0  0  0  0
   14.3090  -56.6390   38.6980 C   0  0  0  0  0  2  0  0  0  0  0  0
   15.4080  -54.1520   39.1420 N   0  0  0  0  0  0  0  0  0  0  0  0
   15.8220  -56.9610   36.8410 C   0  0  0  0  0  2  0  0  0  0  0  0
   15.2890  -58.2570   37.2220 C   0  0  1  0  0  3  0  0  0  0  0  0
   15.9060  -54.8470   38.1130 C   0  0  0  0  0  0  0  0  0  0  0  0
   15.9910  -52.9600   39.3520 C   0  0  0  0  0  3  0  0  0  0  0  0
   16.9040  -54.4750   37.2940 N   0  0  0  0  0  0  0  0  0  0  0  0
   17.0230  -52.4700   38.5910 C   0  0  0  0  0  3  0  0  0  0  0  0
   17.4540  -53.2680   37.5470 C   0  0  0  0  0  0  0  0  0  0  0  0
   16.2660  -58.8050   38.0930 F   0  0  0  0  0  0  0  0  0  0  0  0
   18.4840  -52.8710   36.6350 C   0  0  0  0  0  0  0  0  0  0  0  0
   19.3690  -51.7970   36.7960 C   0  0  0  0  0  3  0  0  0  0  0  0
   20.2260  -51.6850   35.8070 N   0  0  0  0  0  0  0  0  0  0  0  0
   19.8920  -52.6890   35.0020 N   0  0  0  0  0  0  0  0  0  0  0  0
   20.6060  -52.8720   33.8750 N   0  0  0  0  0  0  0  0  0  0  0  0
   18.8710  -53.4570   35.4370 C   0  0  0  0  0  0  0  0  0  0  0  0
   20.2110  -53.9220   33.1570 C   0  0  0  0  0  3  0  0  0  0  0  0
   19.1470  -54.7860   33.4650 C   0  0  0  0  0  3  0  0  0  0  0  0
   18.4690  -54.5430   34.6180 C   0  0  0  0  0  3  0  0  0  0  0  0
  1  7  1  0  0  0  0
  1  3  1  0  0  0  0
  2  3  1  0  0  0  0
  4  8  1  0  0  0  0
  5  6  1  0  0  0  0
  5  1  1  0  0  0  0
  6  2  1  0  0  0  0
  6 12  1  1  0  0  0
  7  4  2  0  0  0  0
  9 11  2  0  0  0  0
  9  7  1  0  0  0  0
 10  8  2  0  0  0  0
 11 10  1  0  0  0  0
 13 14  1  0  0  0  0
 13 11  1  0  0  0  0
 15 14  2  0  0  0  0
 16 18  1  0  0  0  0
 16 15  1  0  0  0  0
 17 16  1  0  0  0  0
 18 13  2  0  0  0  0
 19 20  1  0  0  0  0
 19 17  2  0  0  0  0
 20 21  2  0  0  0  0
 21 18  1  0  0  0  0
M  END
>  <Pose>
1

>  <Score>
-9.783

$$$$
out/docking_results/vina_output/6s1j_docked_ligand.pdbqt
 OpenBabel03072216083D

 21 24  0  0  1  0  0  0  0  0999 V2000
   19.2050  -54.1840   34.0910 N   0  0  0  0  0  0  0  0  0  0  0  0
   19.9240  -54.9780   32.0300 C   0  0  0  0  0  2  0  0  0  0  0  0
   20.1800  -53.8820   33.0630 C   0  0  0  0  0  2  0  0  0  0  0  0
   19.8930  -52.4410   35.3940 N   0  0  0  0  0  0  0  0  0  0  0  0
   18.3110  -55.2710   33.7080 C   0  0  0  0  0  2  0  0  0  0  0  0
   18.5400  -55.4500   32.2860 C   0  0  1  0  0  3  0  0  0  0  0  0
   19.0410  -53.4560   35.2140 C   0  0  0  0  0  0  0  0  0  0  0  0
   19.7020  -51.7380   36.5230 C   0  0  0  0  0  3  0  0  0  0  0  0
   18.0420  -53.8280   36.0320 N   0  0  0  0  0  0  0  0  0  0  0  0
   18.7130  -52.0130   37.4350 C   0  0  0  0  0  3  0  0  0  0  0  0
   17.8940  -53.0900   37.1530 C   0  0  0  0  0  0  0  0  0  0  0  0
   17.6360  -54.5510   31.6610 F   0  0  0  0  0  0  0  0  0  0  0  0
   16.8540  -53.5310   38.0340 C   0  0  0  0  0  0  0  0  0  0  0  0
   16.2140  -52.7640   39.0160 C   0  0  0  0  0  3  0  0  0  0  0  0
   15.2800  -53.4270   39.6570 N   0  0  0  0  0  0  0  0  0  0  0  0
   15.3170  -54.6280   39.0890 N   0  0  0  0  0  0  0  0  0  0  0  0
   14.4480  -55.5650   39.5150 N   0  0  0  0  0  0  0  0  0  0  0  0
   16.2190  -54.7650   38.0950 C   0  0  0  0  0  0  0  0  0  0  0  0
   14.5460  -56.7210   38.8590 C   0  0  0  0  0  3  0  0  0  0  0  0
   15.4570  -57.0180   37.8320 C   0  0  0  0  0  3  0  0  0  0  0  0
   16.3050  -56.0260   37.4530 C   0  0  0  0  0  3  0  0  0  0  0  0
  1  7  1  0  0  0  0
  2  6  1  0  0  0  0
  2  3  1  0  0  0  0
  3  1  1  0  0  0  0
  4  8  1  0  0  0  0
  5  1  1  0  0  0  0
  6 12  1  6  0  0  0
  6  5  1  0  0  0  0
  7  4  2  0  0  0  0
  7  9  1  0  0  0  0
  8 10  2  0  0  0  0
  9 11  2  0  0  0  0
 11 10  1  0  0  0  0
 11 13  1  0  0  0  0
 13 18  2  0  0  0  0
 13 14  1  0  0  0  0
 14 15  2  0  0  0  0
 16 17  1  0  0  0  0
 16 15  1  0  0  0  0
 18 16  1  0  0  0  0
 19 17  2  0  0  0  0
 20 19  1  0  0  0  0
 21 20  2  0  0  0  0
 21 18  1  0  0  0  0
M  END
>  <Pose>
2

>  <Score>
-9.672

$$$$
out/docking_results/vina_output/6s1j_docked_ligand.pdbqt
 OpenBabel03072216083D

 21 24  0  0  1  0  0  0  0  0999 V2000
   16.0650  -56.7890   37.3080 N   0  0  0  0  0  0  0  0  0  0  0  0
   14.4890  -57.4100   38.8960 C   0  0  0  0  0  2  0  0  0  0  0  0
   15.1920  -57.8990   37.6310 C   0  0  0  0  0  2  0  0  0  0  0  0
   16.9170  -57.8630   35.4830 N   0  0  0  0  0  0  0  0  0  0  0  0
   15.8540  -55.6410   38.1820 C   0  0  0  0  0  2  0  0  0  0  0  0
   14.6090  -55.9300   38.8720 C   0  0  1  0  0  3  0  0  0  0  0  0
   16.8820  -56.7590   36.2360 C   0  0  0  0  0  0  0  0  0  0  0  0
   17.7420  -57.7990   34.4250 C   0  0  0  0  0  3  0  0  0  0  0  0
   17.5740  -55.6240   36.0390 N   0  0  0  0  0  0  0  0  0  0  0  0
   18.4960  -56.6950   34.1100 C   0  0  0  0  0  3  0  0  0  0  0  0
   18.3890  -55.6110   34.9620 C   0  0  0  0  0  0  0  0  0  0  0  0
   13.5980  -55.4110   38.0230 F   0  0  0  0  0  0  0  0  0  0  0  0
   19.1520  -54.4110   34.7960 C   0  0  0  0  0  0  0  0  0  0  0  0
   20.0720  -54.1440   33.7730 C   0  0  0  0  0  3  0  0  0  0  0  0
   20.6050  -52.9480   33.8620 N   0  0  0  0  0  0  0  0  0  0  0  0
   20.0310  -52.4400   34.9470 N   0  0  0  0  0  0  0  0  0  0  0  0
   20.3530  -51.1850   35.3160 N   0  0  0  0  0  0  0  0  0  0  0  0
   19.1330  -53.2460   35.5520 C   0  0  0  0  0  0  0  0  0  0  0  0
   19.6980  -50.7600   36.3950 C   0  0  0  0  0  3  0  0  0  0  0  0
   18.7670  -51.4980   37.1450 C   0  0  0  0  0  3  0  0  0  0  0  0
   18.4890  -52.7570   36.7170 C   0  0  0  0  0  3  0  0  0  0  0  0
  1  3  1  0  0  0  0
  1  5  1  0  0  0  0
  3  2  1  0  0  0  0
  4  7  2  0  0  0  0
  5  6  1  0  0  0  0
  6 12  1  6  0  0  0
  6  2  1  0  0  0  0
  7  1  1  0  0  0  0
  8  4  1  0  0  0  0
  9  7  1  0  0  0  0
 10  8  2  0  0  0  0
 10 11  1  0  0  0  0
 11  9  2  0  0  0  0
 13 11  1  0  0  0  0
 13 18  2  0  0  0  0
 14 15  2  0  0  0  0
 14 13  1  0  0  0  0
 15 16  1  0  0  0  0
 16 17  1  0  0  0  0
 16 18  1  0  0  0  0
 17 19  2  0  0  0  0
 18 21  1  0  0  0  0
 19 20  1  0  0  0  0
 21 20  2  0  0  0  0
M  END
>  <Pose>
3

>  <Score>
-9.411

$$$$
out/docking_results/vina_output/6s1j_docked_ligand.pdbqt
 OpenBabel03072216083D

 21 24  0  0  1  0  0  0  0  0999 V2000
   18.7260  -53.5580   35.2800 N   0  0  0  0  0  0  0  0  0  0  0  0
   19.8520  -51.7520   36.2070 C   0  0  0  0  0  2  0  0  0  0  0  0
   19.9300  -52.7780   35.0780 C   0  0  0  0  0  2  0  0  0  0  0  0
   19.1700  -54.8870   33.4770 N   0  0  0  0  0  0  0  0  0  0  0  0
   18.0120  -53.1780   36.4930 C   0  0  0  0  0  2  0  0  0  0  0  0
   18.9510  -52.3470   37.2260 C   0  0  1  0  0  3  0  0  0  0  0  0
   18.3750  -54.6130   34.5170 C   0  0  0  0  0  0  0  0  0  0  0  0
   18.7880  -55.9430   32.7390 C   0  0  0  0  0  3  0  0  0  0  0  0
   17.2630  -55.2750   34.8820 N   0  0  0  0  0  0  0  0  0  0  0  0
   17.6790  -56.7050   33.0110 C   0  0  0  0  0  3  0  0  0  0  0  0
   16.9240  -56.3280   34.1060 C   0  0  0  0  0  0  0  0  0  0  0  0
   19.7020  -53.2600   38.0110 F   0  0  0  0  0  0  0  0  0  0  0  0
   15.7120  -56.9910   34.4840 C   0  0  0  0  0  0  0  0  0  0  0  0
   14.6110  -57.2460   33.6580 C   0  0  0  0  0  3  0  0  0  0  0  0
   13.6480  -57.8940   34.2710 N   0  0  0  0  0  0  0  0  0  0  0  0
   14.1270  -58.0570   35.5000 N   0  0  0  0  0  0  0  0  0  0  0  0
   13.3740  -58.7190   36.3990 N   0  0  0  0  0  0  0  0  0  0  0  0
   15.3660  -57.5620   35.7020 C   0  0  0  0  0  0  0  0  0  0  0  0
   13.9600  -58.8550   37.5880 C   0  0  0  0  0  3  0  0  0  0  0  0
   15.2240  -58.3630   37.9530 C   0  0  0  0  0  3  0  0  0  0  0  0
   15.9290  -57.7040   36.9960 C   0  0  0  0  0  3  0  0  0  0  0  0
  1  5  1  0  0  0  0
  2  6  1  0  0  0  0
  3  1  1  0  0  0  0
  3  2  1  0  0  0  0
  4  7  2  0  0  0  0
  5  6  1  0  0  0  0
  6 12  1  1  0  0  0
  7  9  1  0  0  0  0
  7  1  1  0  0  0  0
  8 10  2  0  0  0  0
  8  4  1  0  0  0  0
 10 11  1  0  0  0  0
 11 13  1  0  0  0  0
 11  9  2  0  0  0  0
 13 18  2  0  0  0  0
 14 15  2  0  0  0  0
 14 13  1  0  0  0  0
 15 16  1  0  0  0  0
 16 18  1  0  0  0  0
 16 17  1  0  0  0  0
 17 19  2  0  0  0  0
 18 21  1  0  0  0  0
 19 20  1  0  0  0  0
 21 20  2  0  0  0  0
M  END
>  <Pose>
4

>  <Score>
-8.820

$$$$
out/docking_results/vina_output/6s1j_docked_ligand.pdbqt
 OpenBabel03072216083D

 21 24  0  0  1  0  0  0  0  0999 V2000
   15.4240  -58.2900   34.6840 N   0  0  0  0  0  0  0  0  0  0  0  0
   14.3990  -60.0490   33.5670 C   0  0  0  0  0  2  0  0  0  0  0  0
   14.4070  -59.2980   34.8980 C   0  0  0  0  0  2  0  0  0  0  0  0
   15.1270  -57.4080   36.7680 N   0  0  0  0  0  0  0  0  0  0  0  0
   16.1100  -58.4520   33.4070 C   0  0  0  0  0  2  0  0  0  0  0  0
   15.7190  -59.7720   32.9460 C   0  0  1  0  0  3  0  0  0  0  0  0
   15.8010  -57.3890   35.6140 C   0  0  0  0  0  0  0  0  0  0  0  0
   15.5270  -56.4960   37.6700 C   0  0  0  0  0  3  0  0  0  0  0  0
   16.8110  -56.5670   35.2810 N   0  0  0  0  0  0  0  0  0  0  0  0
   16.5510  -55.6070   37.4540 C   0  0  0  0  0  3  0  0  0  0  0  0
   17.1740  -55.6700   36.2220 C   0  0  0  0  0  0  0  0  0  0  0  0
   16.6770  -60.6500   33.5180 F   0  0  0  0  0  0  0  0  0  0  0  0
   18.2210  -54.7740   35.8310 C   0  0  0  0  0  0  0  0  0  0  0  0
   19.2110  -55.0200   34.8710 C   0  0  0  0  0  3  0  0  0  0  0  0
   20.0260  -54.0050   34.7020 N   0  0  0  0  0  0  0  0  0  0  0  0
   19.5630  -53.1000   35.5570 N   0  0  0  0  0  0  0  0  0  0  0  0
   20.1800  -51.9030   35.6210 N   0  0  0  0  0  0  0  0  0  0  0  0
   18.4720  -53.4760   36.2560 C   0  0  0  0  0  0  0  0  0  0  0  0
   19.6180  -51.0580   36.4840 C   0  0  0  0  0  3  0  0  0  0  0  0
   18.5070  -51.3230   37.3020 C   0  0  0  0  0  3  0  0  0  0  0  0
   17.9340  -52.5500   37.1860 C   0  0  0  0  0  3  0  0  0  0  0  0
  1  3  1  0  0  0  0
  1  7  1  0  0  0  0
  2  3  1  0  0  0  0
  4  8  1  0  0  0  0
  5  1  1  0  0  0  0
  6  5  1  0  0  0  0
  6 12  1  1  0  0  0
  6  2  1  0  0  0  0
  7  4  2  0  0  0  0
  9  7  1  0  0  0  0
  9 11  2  0  0  0  0
 10  8  2  0  0  0  0
 11 10  1  0  0  0  0
 13 11  1  0  0  0  0
 13 18  2  0  0  0  0
 14 13  1  0  0  0  0
 15 14  2  0  0  0  0
 15 16  1  0  0  0  0
 16 17  1  0  0  0  0
 16 18  1  0  0  0  0
 17 19  2  0  0  0  0
 18 21  1  0  0  0  0
 19 20  1  0  0  0  0
 21 20  2  0  0  0  0
M  END
>  <Pose>
5

>  <Score>
-8.493

$$$$
out/docking_results/vina_output/6s1j_docked_ligand.pdbqt
 OpenBabel03072216083D

 21 24  0  0  1  0  0  0  0  0999 V2000
   19.3020  -56.2020   31.8460 N   0  0  0  0  0  0  0  0  0  0  0  0
   19.6110  -57.3940   29.8770 C   0  0  0  0  0  2  0  0  0  0  0  0
   20.0560  -56.1300   30.6110 C   0  0  0  0  0  2  0  0  0  0  0  0
   20.2180  -54.2650   32.6320 N   0  0  0  0  0  0  0  0  0  0  0  0
   18.3590  -57.3150   31.8590 C   0  0  0  0  0  2  0  0  0  0  0  0
   18.3070  -57.7670   30.4800 C   0  0  1  0  0  3  0  0  0  0  0  0
   19.3550  -55.2700   32.8180 C   0  0  0  0  0  0  0  0  0  0  0  0
   20.2470  -53.3560   33.6210 C   0  0  0  0  0  3  0  0  0  0  0  0
   18.5380  -55.4490   33.8700 N   0  0  0  0  0  0  0  0  0  0  0  0
   19.4570  -53.4220   34.7420 C   0  0  0  0  0  3  0  0  0  0  0  0
   18.6060  -54.5080   34.8350 C   0  0  0  0  0  0  0  0  0  0  0  0
   17.2930  -56.9760   29.8810 F   0  0  0  0  0  0  0  0  0  0  0  0
   17.7610  -54.7420   35.9680 C   0  0  0  0  0  0  0  0  0  0  0  0
   17.1270  -55.9470   36.2970 C   0  0  0  0  0  3  0  0  0  0  0  0
   16.4320  -55.8740   37.4090 N   0  0  0  0  0  0  0  0  0  0  0  0
   16.6150  -54.6170   37.7980 N   0  0  0  0  0  0  0  0  0  0  0  0
   16.0370  -54.2100   38.9450 N   0  0  0  0  0  0  0  0  0  0  0  0
   17.4150  -53.8800   37.0000 C   0  0  0  0  0  0  0  0  0  0  0  0
   16.3100  -52.9450   39.2620 C   0  0  0  0  0  3  0  0  0  0  0  0
   17.0930  -52.0520   38.5110 C   0  0  0  0  0  3  0  0  0  0  0  0
   17.6450  -52.5290   37.3650 C   0  0  0  0  0  3  0  0  0  0  0  0
  1  5  1  0  0  0  0
  1  7  1  0  0  0  0
  2  6  1  0  0  0  0
  2  3  1  0  0  0  0
  3  1  1  0  0  0  0
  4  7  2  0  0  0  0
  4  8  1  0  0  0  0
  6 12  1  6  0  0  0
  6  5  1  0  0  0  0
  7  9  1  0  0  0  0
  8 10  2  0  0  0  0
  9 11  2  0  0  0  0
 10 11  1  0  0  0  0
 11 13  1  0  0  0  0
 13 14  1  0  0  0  0
 13 18  2  0  0  0  0
 14 15  2  0  0  0  0
 15 16  1  0  0  0  0
 16 17  1  0  0  0  0
 17 19  2  0  0  0  0
 18 21  1  0  0  0  0
 18 16  1  0  0  0  0
 20 19  1  0  0  0  0
 21 20  2  0  0  0  0
M  END
>  <Pose>
6

>  <Score>
-8.450

$$$$
out/docking_results/vina_output/6s1j_docked_ligand.pdbqt
 OpenBabel03072216083D

 21 24  0  0  1  0  0  0  0  0999 V2000
   17.6140  -53.3570   36.8610 N   0  0  0  0  0  0  0  0  0  0  0  0
   17.1200  -51.8260   38.5350 C   0  0  0  0  0  2  0  0  0  0  0  0
   18.0250  -52.0480   37.3240 C   0  0  0  0  0  2  0  0  0  0  0  0
   19.0920  -53.3130   35.1210 N   0  0  0  0  0  0  0  0  0  0  0  0
   16.6470  -53.9870   37.7530 C   0  0  0  0  0  2  0  0  0  0  0  0
   16.6840  -53.1800   38.9600 C   0  0  1  0  0  3  0  0  0  0  0  0
   18.1630  -53.9900   35.8040 C   0  0  0  0  0  0  0  0  0  0  0  0
   19.6160  -53.9720   34.0750 C   0  0  0  0  0  3  0  0  0  0  0  0
   17.7170  -55.2320   35.5490 N   0  0  0  0  0  0  0  0  0  0  0  0
   19.2510  -55.2460   33.7150 C   0  0  0  0  0  3  0  0  0  0  0  0
   18.2760  -55.8500   34.4860 C   0  0  0  0  0  0  0  0  0  0  0  0
   17.7150  -53.7580   39.7460 F   0  0  0  0  0  0  0  0  0  0  0  0
   17.7540  -57.1540   34.2030 C   0  0  0  0  0  0  0  0  0  0  0  0
   18.4960  -58.3330   34.0570 C   0  0  0  0  0  3  0  0  0  0  0  0
   17.7470  -59.3860   33.8240 N   0  0  0  0  0  0  0  0  0  0  0  0
   16.5160  -58.8860   33.8180 N   0  0  0  0  0  0  0  0  0  0  0  0
   15.4830  -59.7270   33.6210 N   0  0  0  0  0  0  0  0  0  0  0  0
   16.4340  -57.5600   34.0580 C   0  0  0  0  0  0  0  0  0  0  0  0
   14.2920  -59.1310   33.6660 C   0  0  0  0  0  3  0  0  0  0  0  0
   14.0560  -57.7610   33.8690 C   0  0  0  0  0  3  0  0  0  0  0  0
   15.1440  -56.9700   34.0620 C   0  0  0  0  0  3  0  0  0  0  0  0
  1  3  1  0  0  0  0
  1  5  1  0  0  0  0
  2  6  1  0  0  0  0
  3  2  1  0  0  0  0
  4  7  2  0  0  0  0
  5  6  1  0  0  0  0
  6 12  1  1  0  0  0
  7  1  1  0  0  0  0
  8  4  1  0  0  0  0
  9  7  1  0  0  0  0
 10  8  2  0  0  0  0
 10 11  1  0  0  0  0
 11  9  2  0  0  0  0
 13 11  1  0  0  0  0
 14 13  1  0  0  0  0
 15 14  2  0  0  0  0
 16 15  1  0  0  0  0
 16 18  1  0  0  0  0
 17 19  2  0  0  0  0
 17 16  1  0  0  0  0
 18 21  1  0  0  0  0
 18 13  2  0  0  0  0
 19 20  1  0  0  0  0
 20 21  2  0  0  0  0
M  END
>  <Pose>
7

>  <Score>
-8.449

$$$$
out/docking_results/vina_output/6s1j_docked_ligand.pdbqt
 OpenBabel03072216083D

 21 24  0  0  1  0  0  0  0  0999 V2000
   17.3490  -53.2560   37.0440 N   0  0  0  0  0  0  0  0  0  0  0  0
   16.6110  -52.4320   39.0860 C   0  0  0  0  0  2  0  0  0  0  0  0
   17.7830  -52.3740   38.1080 C   0  0  0  0  0  2  0  0  0  0  0  0
   19.2510  -52.8940   35.8350 N   0  0  0  0  0  0  0  0  0  0  0  0
   16.0940  -53.9300   37.3560 C   0  0  0  0  0  2  0  0  0  0  0  0
   15.8950  -53.6950   38.7760 C   0  0  1  0  0  3  0  0  0  0  0  0
   18.0840  -53.5370   35.9500 C   0  0  0  0  0  0  0  0  0  0  0  0
   19.9560  -53.1970   34.7330 C   0  0  0  0  0  3  0  0  0  0  0  0
   17.5660  -54.4320   35.0910 N   0  0  0  0  0  0  0  0  0  0  0  0
   19.5410  -54.0990   33.7850 C   0  0  0  0  0  3  0  0  0  0  0  0
   18.3150  -54.7000   33.9990 C   0  0  0  0  0  0  0  0  0  0  0  0
   16.5740  -54.7650   39.4150 F   0  0  0  0  0  0  0  0  0  0  0  0
   17.7240  -55.6210   33.0740 C   0  0  0  0  0  0  0  0  0  0  0  0
   16.4440  -56.1820   33.1610 C   0  0  0  0  0  3  0  0  0  0  0  0
   16.1620  -56.9760   32.1550 N   0  0  0  0  0  0  0  0  0  0  0  0
   17.2650  -56.9310   31.4150 N   0  0  0  0  0  0  0  0  0  0  0  0
   17.2980  -57.6400   30.2700 N   0  0  0  0  0  0  0  0  0  0  0  0
   18.2390  -56.1260   31.8870 C   0  0  0  0  0  0  0  0  0  0  0  0
   18.4350  -57.5000   29.5890 C   0  0  0  0  0  3  0  0  0  0  0  0
   19.5440  -56.7290   29.9730 C   0  0  0  0  0  3  0  0  0  0  0  0
   19.4410  -56.0400   31.1400 C   0  0  0  0  0  3  0  0  0  0  0  0
  1  5  1  0  0  0  0
  1  3  1  0  0  0  0
  3  2  1  0  0  0  0
  4  7  2  0  0  0  0
  5  6  1  0  0  0  0
  6  2  1  0  0  0  0
  6 12  1  1  0  0  0
  7  1  1  0  0  0  0
  8  4  1  0  0  0  0
  9  7  1  0  0  0  0
 10 11  1  0  0  0  0
 10  8  2  0  0  0  0
 11  9  2  0  0  0  0
 13 14  1  0  0  0  0
 13 11  1  0  0  0  0
 15 14  2  0  0  0  0
 16 18  1  0  0  0  0
 16 15  1  0  0  0  0
 17 16  1  0  0  0  0
 18 13  2  0  0  0  0
 19 20  1  0  0  0  0
 19 17  2  0  0  0  0
 20 21  2  0  0  0  0
 21 18  1  0  0  0  0
M  END
>  <Pose>
8

>  <Score>
-8.234

$$$$
out/docking_results/vina_output/6s1j_docked_ligand.pdbqt
 OpenBabel03072216083D

 21 24  0  0  1  0  0  0  0  0999 V2000
   15.4810  -57.9890   35.1340 N   0  0  0  0  0  0  0  0  0  0  0  0
   14.1300  -59.6550   36.0230 C   0  0  0  0  0  2  0  0  0  0  0  0
   14.5830  -59.0390   34.7000 C   0  0  0  0  0  2  0  0  0  0  0  0
   15.9450  -57.3640   32.9880 N   0  0  0  0  0  0  0  0  0  0  0  0
   15.5030  -57.8380   36.5850 C   0  0  0  0  0  2  0  0  0  0  0  0
   14.3640  -58.6090   37.0500 C   0  0  1  0  0  3  0  0  0  0  0  0
   16.1180  -57.1460   34.2960 C   0  0  0  0  0  0  0  0  0  0  0  0
   16.5950  -56.5080   32.1820 C   0  0  0  0  0  3  0  0  0  0  0  0
   16.8600  -56.1800   34.8630 N   0  0  0  0  0  0  0  0  0  0  0  0
   17.3770  -55.4750   32.6380 C   0  0  0  0  0  3  0  0  0  0  0  0
   17.4930  -55.3470   34.0090 C   0  0  0  0  0  0  0  0  0  0  0  0
   13.2770  -57.6980   37.0190 F   0  0  0  0  0  0  0  0  0  0  0  0
   18.3150  -54.3530   34.6330 C   0  0  0  0  0  0  0  0  0  0  0  0
   19.5920  -53.9500   34.2200 C   0  0  0  0  0  3  0  0  0  0  0  0
   20.0980  -53.0000   34.9710 N   0  0  0  0  0  0  0  0  0  0  0  0
   19.1470  -52.7890   35.8750 N   0  0  0  0  0  0  0  0  0  0  0  0
   19.3480  -51.8380   36.8070 N   0  0  0  0  0  0  0  0  0  0  0  0
   18.0390  -53.5460   35.7290 C   0  0  0  0  0  0  0  0  0  0  0  0
   18.3220  -51.6840   37.6430 C   0  0  0  0  0  3  0  0  0  0  0  0
   17.1260  -52.4210   37.6340 C   0  0  0  0  0  3  0  0  0  0  0  0
   16.9910  -53.3650   36.6660 C   0  0  0  0  0  3  0  0  0  0  0  0
  1  5  1  0  0  0  0
  2  6  1  0  0  0  0
  3  1  1  0  0  0  0
  3  2  1  0  0  0  0
  4  7  2  0  0  0  0
  5  6  1  0  0  0  0
  6 12  1  6  0  0  0
  7  9  1  0  0  0  0
  7  1  1  0  0  0  0
  8 10  2  0  0  0  0
  8  4  1  0  0  0  0
 10 11  1  0  0  0  0
 11 13  1  0  0  0  0
 11  9  2  0  0  0  0
 13 18  2  0  0  0  0
 14 13  1  0  0  0  0
 14 15  2  0  0  0  0
 15 16  1  0  0  0  0
 16 17  1  0  0  0  0
 17 19  2  0  0  0  0
 18 16  1  0  0  0  0
 18 21  1  0  0  0  0
 20 19  1  0  0  0  0
 21 20  2  0  0  0  0
M  END
>  <Pose>
9

>  <Score>
-8.227

$$$$
out/docking_results/vina_output/6s1j_docked_ligand.pdbqt
 OpenBabel03072216083D

 21 24  0  0  1  0  0  0  0  0999 V2000
   16.8350  -57.5600   33.7030 N   0  0  0  0  0  0  0  0  0  0  0  0
   17.3870  -58.1420   31.5240 C   0  0  0  0  0  2  0  0  0  0  0  0
   16.9140  -58.7300   32.8530 C   0  0  0  0  0  2  0  0  0  0  0  0
   16.1040  -58.7840   35.4860 N   0  0  0  0  0  0  0  0  0  0  0  0
   17.3390  -56.3590   33.0470 C   0  0  0  0  0  2  0  0  0  0  0  0
   18.0290  -56.8480   31.8670 C   0  0  1  0  0  3  0  0  0  0  0  0
   16.4740  -57.5940   35.0020 C   0  0  0  0  0  0  0  0  0  0  0  0
   15.7490  -58.7810   36.7810 C   0  0  0  0  0  3  0  0  0  0  0  0
   16.5220  -56.4290   35.6700 N   0  0  0  0  0  0  0  0  0  0  0  0
   15.7620  -57.6600   37.5740 C   0  0  0  0  0  3  0  0  0  0  0  0
   16.1540  -56.4800   36.9690 C   0  0  0  0  0  0  0  0  0  0  0  0
   19.3530  -57.1060   32.3070 F   0  0  0  0  0  0  0  0  0  0  0  0
   16.1680  -55.2210   37.6510 C   0  0  0  0  0  0  0  0  0  0  0  0
   15.3640  -54.8550   38.7390 C   0  0  0  0  0  3  0  0  0  0  0  0
   15.6130  -53.6410   39.1740 N   0  0  0  0  0  0  0  0  0  0  0  0
   16.5780  -53.2200   38.3650 N   0  0  0  0  0  0  0  0  0  0  0  0
   17.0860  -51.9880   38.5590 N   0  0  0  0  0  0  0  0  0  0  0  0
   16.9800  -54.1150   37.4380 C   0  0  0  0  0  0  0  0  0  0  0  0
   18.0700  -51.6760   37.7160 C   0  0  0  0  0  3  0  0  0  0  0  0
   18.5660  -52.4890   36.6830 C   0  0  0  0  0  3  0  0  0  0  0  0
   18.0070  -53.7190   36.5430 C   0  0  0  0  0  3  0  0  0  0  0  0
  1  7  1  0  0  0  0
  2  6  1  0  0  0  0
  2  3  1  0  0  0  0
  3  1  1  0  0  0  0
  4  8  1  0  0  0  0
  5  1  1  0  0  0  0
  6 12  1  1  0  0  0
  6  5  1  0  0  0  0
  7  4  2  0  0  0  0
  7  9  1  0  0  0  0
  8 10  2  0  0  0  0
  9 11  2  0  0  0  0
 11 10  1  0  0  0  0
 11 13  1  0  0  0  0
 13 14  1  0  0  0  0
 14 15  2  0  0  0  0
 16 17  1  0  0  0  0
 16 15  1  0  0  0  0
 18 13  2  0  0  0  0
 18 16  1  0  0  0  0
 19 17  2  0  0  0  0
 20 19  1  0  0  0  0
 21 20  2  0  0  0  0
 21 18  1  0  0  0  0
M  END
>  <Pose>
10

>  <Score>
-8.190

$$$$
