3


 38 41  0  0  0  0  0  0  0  0999 V2000
   21.8785   38.3732   66.5883 C   0  0  0  0  0  0  0  0  0  0  0  0
   21.8717   39.7362   66.4281 N   0  0  0  0  0  0  0  0  0  0  0  0
   22.9313   40.0991   65.7599 N   0  0  0  0  0  0  0  0  0  0  0  0
   23.6815   39.0582   65.4417 N   0  0  0  0  0  0  0  0  0  0  0  0
   23.0557   37.9798   65.9427 C   0  0  0  0  0  0  0  0  0  0  0  0
   24.8781   39.1440   64.6883 C   0  0  0  0  0  0  0  0  0  0  0  0
   25.2511   38.4533   63.5898 N   0  0  0  0  0  0  0  0  0  0  0  0
   26.4337   38.8485   63.1991 O   0  0  0  0  0  0  0  0  0  0  0  0
   26.8861   39.7866   63.9914 N   0  0  0  0  0  0  0  0  0  0  0  0
   25.9456   39.9960   64.9276 C   0  0  0  0  0  0  0  0  0  0  0  0
   26.0602   40.9395   65.9713 N   0  0  0  0  0  0  0  0  0  0  0  0
   26.0091   41.9485   65.7414 H   0  0  0  0  0  0  0  0  0  0  0  0
   26.1936   40.6642   66.9610 H   0  0  0  0  0  0  0  0  0  0  0  0
   20.8195   37.2209   68.6177 N   0  0  0  0  0  0  0  0  0  0  0  0
   20.8623   37.6075   67.2850 C   0  0  0  0  0  0  0  0  0  0  0  0
   19.8701   37.2440   66.5479 O   0  0  0  0  0  0  0  0  0  0  0  0
   21.5319   37.4190   69.3598 H   0  0  0  0  0  0  0  0  0  0  0  0
   18.7213   37.0561   69.6599 C   0  0  0  0  0  0  0  0  0  0  0  0
   19.6781   36.4595   69.0427 N   0  0  0  0  0  0  0  0  0  0  0  0
   16.6246   33.1984   72.6374 Br  0  0  0  0  0  0  0  0  0  0  0  0
   16.4511   34.6635   71.4491 C   0  0  0  0  0  0  0  0  0  0  0  0
   15.2137   35.0714   71.0445 C   0  0  0  0  0  0  0  0  0  0  0  0
   15.1185   36.1506   70.1696 C   0  0  0  0  0  0  0  0  0  0  0  0
   16.2768   36.7838   69.7302 C   0  0  0  0  0  0  0  0  0  0  0  0
   17.5222   36.3805   70.1313 C   0  0  0  0  0  0  0  0  0  0  0  0
   17.6012   35.3120   70.9964 C   0  0  0  0  0  0  0  0  0  0  0  0
   18.8671   34.9125   71.3961 O   0  0  0  0  0  0  0  0  0  0  0  0
   13.4141   36.7429   69.5889 Br  0  0  0  0  0  0  0  0  0  0  0  0
   14.0468   34.4542   71.4710 O   0  0  0  0  0  0  0  0  0  0  0  0
   18.9782   34.1320   72.0311 H   0  0  0  0  0  0  0  0  0  0  0  0
   13.1452   34.7741   71.1569 H   0  0  0  0  0  0  0  0  0  0  0  0
   23.4784   36.5813   65.8221 C   0  0  0  0  0  0  0  0  0  0  0  0
   24.3975   36.1358   66.8728 N   0  0  0  0  0  0  0  0  0  0  0  0
   25.6697   35.7334   66.2416 C   0  0  0  0  0  0  0  0  0  0  0  0
   25.3964   34.8591   65.0680 C   0  0  0  0  0  0  0  0  0  0  0  0
   24.6052   33.8044   65.4520 O   0  0  0  0  0  0  0  0  0  0  0  0
   24.4326   33.6898   66.8064 C   0  0  0  0  0  0  0  0  0  0  0  0
   23.8397   34.9021   67.4761 C   0  0  0  0  0  0  0  0  0  0  0  0
 20 21  1  0  0  0
 21 22  2  0  0  0
 21 26  1  0  0  0
 22 23  1  0  0  0
 22 29  1  0  0  0
 23 24  2  0  0  0
 23 28  1  0  0  0
 24 25  1  0  0  0
 25 26  2  0  0  0
 25 18  1  0  0  0
 26 27  1  0  0  0
 18 19  2  0  0  0
 19 14  1  0  0  0
 14 15  1  0  0  0
 15 16  2  0  0  0
 15  1  1  0  0  0
  1  2  1  0  0  0
  1  5  2  0  0  0
  2  3  2  0  0  0
  3  4  1  0  0  0
  4  5  1  0  0  0
  4  6  1  0  0  0
  5 32  1  0  0  0
 32 33  1  0  0  0
 33 34  1  0  0  0
 33 38  1  0  0  0
 34 35  1  0  0  0
 35 36  1  0  0  0
 36 37  1  0  0  0
 37 38  1  0  0  0
  6  7  2  0  0  0
  6 10  1  0  0  0
  7  8  1  0  0  0
  8  9  1  0  0  0
  9 10  2  0  0  0
 10 11  1  0  0  0
 27 30  1  0  0  0
 14 17  1  0  0  0
 11 12  1  0  0  0
 11 13  1  0  0  0
 29 31  1  0  0  0
M  END
> <minimizedAffinity>
-8.99415

$$$$
708


 31 34  0  0  0  0  0  0  0  0999 V2000
   16.8479   36.0769   70.0040 C   0  0  0  0  0  0  0  0  0  0  0  0
   15.7989   35.9645   71.0712 C   0  0  0  0  0  0  0  0  0  0  0  0
   13.0711   35.3872   69.3940 Br  0  0  0  0  0  0  0  0  0  0  0  0
   14.0657   34.2454   70.5483 C   0  0  0  0  0  0  0  0  0  0  0  0
   15.2116   34.6449   71.1799 N   0  0  0  0  0  0  0  0  0  0  0  0
   15.6032   33.5686   71.8905 C   0  0  0  0  0  0  0  0  0  0  0  0
   14.7256   32.5116   71.7111 C   0  0  0  0  0  0  0  0  0  0  0  0
   13.7791   32.9745   70.8664 N   0  0  0  0  0  0  0  0  0  0  0  0
   14.8581   31.3106   72.3000 N   0  0  0  0  0  0  0  0  0  0  0  0
   15.9189   31.1531   73.1119 C   0  0  0  0  0  0  0  0  0  0  0  0
   16.0898   30.0297   73.6943 O   0  0  0  0  0  0  0  0  0  0  0  0
   16.7955   32.1536   73.3155 N   0  0  0  0  0  0  0  0  0  0  0  0
   16.6640   33.3719   72.7203 C   0  0  0  0  0  0  0  0  0  0  0  0
   17.4851   34.2903   72.9214 O   0  0  0  0  0  0  0  0  0  0  0  0
   13.9370   30.2113   72.1056 C   0  0  0  0  0  0  0  0  0  0  0  0
   17.6224   32.0478   73.9411 H   0  0  0  0  0  0  0  0  0  0  0  0
   17.7558   37.2653   70.1409 C   0  0  0  0  0  0  0  0  0  0  0  0
   18.7465   37.2618   69.0735 N   0  0  0  0  0  0  0  0  0  0  0  0
   19.9862   36.7210   69.0799 C   0  0  0  0  0  0  0  0  0  0  0  0
   20.6057   36.9340   67.8703 C   0  0  0  0  0  0  0  0  0  0  0  0
   19.7174   37.6174   67.1246 N   0  0  0  0  0  0  0  0  0  0  0  0
   18.5997   37.8113   67.8573 C   0  0  0  0  0  0  0  0  0  0  0  0
   17.0136   38.7198   67.3040 Br  0  0  0  0  0  0  0  0  0  0  0  0
   21.8501   36.5083   67.5840 N   0  0  0  0  0  0  0  0  0  0  0  0
   22.4998   35.8357   68.5655 C   0  0  0  0  0  0  0  0  0  0  0  0
   23.6728   35.4316   68.2990 O   0  0  0  0  0  0  0  0  0  0  0  0
   21.9287   35.6051   69.7663 N   0  0  0  0  0  0  0  0  0  0  0  0
   20.6807   36.0362   70.0421 C   0  0  0  0  0  0  0  0  0  0  0  0
   20.1215   35.8382   71.1480 O   0  0  0  0  0  0  0  0  0  0  0  0
   22.4681   36.7584   66.2841 C   0  0  0  0  0  0  0  0  0  0  0  0
   22.4747   35.0829   70.4800 H   0  0  0  0  0  0  0  0  0  0  0  0
  3  4  1  0  0  0
  4  5  1  0  0  0
  4  8  2  0  0  0
  5  6  1  0  0  0
  5  2  1  0  0  0
  6  7  2  0  0  0
  6 13  1  0  0  0
  7  8  1  0  0  0
  7  9  1  0  0  0
  9 10  1  0  0  0
  9 15  1  0  0  0
 10 11  2  0  0  0
 10 12  1  0  0  0
 12 13  1  0  0  0
 13 14  2  0  0  0
  2  1  1  0  0  0
  1 17  1  0  0  0
 17 18  1  0  0  0
 18 19  1  0  0  0
 18 22  1  0  0  0
 19 20  2  0  0  0
 19 28  1  0  0  0
 20 21  1  0  0  0
 20 24  1  0  0  0
 21 22  2  0  0  0
 22 23  1  0  0  0
 24 25  1  0  0  0
 24 30  1  0  0  0
 25 26  2  0  0  0
 25 27  1  0  0  0
 27 28  1  0  0  0
 28 29  2  0  0  0
 12 16  1  0  0  0
 27 31  1  0  0  0
M  END
> <minimizedAffinity>
-8.69874

$$$$
1808


 24 28  0  0  0  0  0  0  0  0999 V2000
   19.7220   36.5318   70.0270 N   0  0  0  0  0  0  0  0  0  0  0  0
   20.0853   37.2161   68.8382 C   0  0  0  0  0  0  0  0  0  0  0  0
   19.2677   37.7820   68.0733 O   0  0  0  0  0  0  0  0  0  0  0  0
   21.5613   37.1451   68.6678 C   0  0  0  0  0  0  0  0  0  0  0  0
   21.9758   36.0025   67.7929 C   0  0  0  0  0  0  0  0  0  0  0  0
   23.2293   35.6866   68.3624 O   0  0  0  0  0  0  0  0  0  0  0  0
   22.7545   35.3895   69.6647 C   0  0  0  0  0  0  0  0  0  0  0  0
   22.0844   36.6707   70.0244 C   0  0  0  0  0  0  0  0  0  0  0  0
   20.8783   36.4077   70.8545 C   0  0  0  0  0  0  0  0  0  0  0  0
   20.8982   36.1305   72.0567 O   0  0  0  0  0  0  0  0  0  0  0  0
   21.7089   34.3916   69.3189 C   0  0  0  0  0  0  0  0  0  0  0  0
   21.1847   34.8224   68.1754 C   0  0  0  0  0  0  0  0  0  0  0  0
   14.0714   34.5364   71.1271 Br  0  0  0  0  0  0  0  0  0  0  0  0
   15.8268   35.1665   70.7814 C   0  0  0  0  0  0  0  0  0  0  0  0
   16.0168   36.4797   70.4254 C   0  0  0  0  0  0  0  0  0  0  0  0
   17.3022   36.9103   70.1814 C   0  0  0  0  0  0  0  0  0  0  0  0
   18.3892   36.0703   70.2814 C   0  0  0  0  0  0  0  0  0  0  0  0
   18.1988   34.7433   70.6418 C   0  0  0  0  0  0  0  0  0  0  0  0
   16.8944   34.3108   70.8893 C   0  0  0  0  0  0  0  0  0  0  0  0
   22.0575   36.2989   66.3573 C   0  0  0  0  0  0  0  0  0  0  0  0
   23.1313   35.7283   65.7306 O   0  0  0  0  0  0  0  0  0  0  0  0
   24.0126   36.7186   65.3751 C   0  0  0  0  0  0  0  0  0  0  0  0
   23.4043   38.0065   65.8238 C   0  0  0  0  0  0  0  0  0  0  0  0
   22.0893   37.6599   66.1127 O   0  0  0  0  0  0  0  0  0  0  0  0
 13 14  1  0  0  0
 14 15  2  0  0  0
 14 19  1  0  0  0
 15 16  1  0  0  0
 16 17  2  0  0  0
 17 18  1  0  0  0
 17  1  1  0  0  0
 18 19  2  0  0  0
  1  2  1  0  0  0
  1  9  1  0  0  0
  2  3  2  0  0  0
  2  4  1  0  0  0
  4  5  1  0  0  0
  4  8  1  0  0  0
  5  6  1  0  0  0
  5 12  1  0  0  0
  5 20  1  0  0  0
  6  7  1  0  0  0
  7  8  1  0  0  0
  7 11  1  0  0  0
  8  9  1  0  0  0
  9 10  2  0  0  0
 11 12  2  0  0  0
 20 21  1  0  0  0
 20 24  1  0  0  0
 21 22  1  0  0  0
 22 23  1  0  0  0
 23 24  1  0  0  0
M  END
> <minimizedAffinity>
-8.44416

$$$$
