3


 38 41  0  0  0  0  0  0  0  0999 V2000
    8.0009    6.8398   11.7742 C   0  0  0  0  0  0  0  0  0  0  0  0
    6.7323    6.4256   11.4536 N   0  0  0  0  0  0  0  0  0  0  0  0
    5.8661    7.2798   11.9236 N   0  0  0  0  0  0  0  0  0  0  0  0
    6.4634    8.2742   12.5573 N   0  0  0  0  0  0  0  0  0  0  0  0
    7.7820    8.0266   12.4820 C   0  0  0  0  0  0  0  0  0  0  0  0
    5.7776    9.3665   13.1434 C   0  0  0  0  0  0  0  0  0  0  0  0
    6.0776   10.6826   13.1142 N   0  0  0  0  0  0  0  0  0  0  0  0
    5.1747   11.3570   13.7754 O   0  0  0  0  0  0  0  0  0  0  0  0
    4.2649   10.5497   14.2580 N   0  0  0  0  0  0  0  0  0  0  0  0
    4.6073    9.3054   13.8845 C   0  0  0  0  0  0  0  0  0  0  0  0
    3.8703    8.1468   14.2120 N   0  0  0  0  0  0  0  0  0  0  0  0
    2.9508    7.9942   13.7594 H   0  0  0  0  0  0  0  0  0  0  0  0
    4.2118    7.4402   14.8881 H   0  0  0  0  0  0  0  0  0  0  0  0
    9.9777    5.2626   12.1889 N   0  0  0  0  0  0  0  0  0  0  0  0
    9.2229    6.1411   11.4236 C   0  0  0  0  0  0  0  0  0  0  0  0
    9.6523    6.3830   10.2332 O   0  0  0  0  0  0  0  0  0  0  0  0
    9.7889    4.9524   13.1716 H   0  0  0  0  0  0  0  0  0  0  0  0
   11.1450    3.4851   11.1921 C   0  0  0  0  0  0  0  0  0  0  0  0
   11.1561    4.7102   11.5810 N   0  0  0  0  0  0  0  0  0  0  0  0
   12.8810   -0.1447    7.7344 Br  0  0  0  0  0  0  0  0  0  0  0  0
   13.1926    1.2102    9.0214 C   0  0  0  0  0  0  0  0  0  0  0  0
   14.4700    1.5580    9.3507 C   0  0  0  0  0  0  0  0  0  0  0  0
   14.6670    2.5566   10.3010 C   0  0  0  0  0  0  0  0  0  0  0  0
   13.5670    3.1724   10.8896 C   0  0  0  0  0  0  0  0  0  0  0  0
   12.2819    2.8290   10.5647 C   0  0  0  0  0  0  0  0  0  0  0  0
   12.1022    1.8398    9.6236 C   0  0  0  0  0  0  0  0  0  0  0  0
   10.7970    1.5005    9.3023 O   0  0  0  0  0  0  0  0  0  0  0  0
   16.4293    3.0641   10.7805 Br  0  0  0  0  0  0  0  0  0  0  0  0
   15.5802    0.9570    8.7756 O   0  0  0  0  0  0  0  0  0  0  0  0
   10.6123    0.7793    8.6164 H   0  0  0  0  0  0  0  0  0  0  0  0
   16.5131    1.2313    9.0367 H   0  0  0  0  0  0  0  0  0  0  0  0
    8.8661    8.8618   13.0073 C   0  0  0  0  0  0  0  0  0  0  0  0
    8.8874    8.9747   14.4681 N   0  0  0  0  0  0  0  0  0  0  0  0
   10.2253    9.4416   14.8817 C   0  0  0  0  0  0  0  0  0  0  0  0
   11.2745    8.6540   14.1779 C   0  0  0  0  0  0  0  0  0  0  0  0
   11.0620    7.3131   14.3848 O   0  0  0  0  0  0  0  0  0  0  0  0
   10.1028    7.0296   15.3213 C   0  0  0  0  0  0  0  0  0  0  0  0
    8.7436    7.6127   15.0349 C   0  0  0  0  0  0  0  0  0  0  0  0
 20 21  1  0  0  0
 21 22  2  0  0  0
 21 26  1  0  0  0
 22 23  1  0  0  0
 22 29  1  0  0  0
 23 24  2  0  0  0
 23 28  1  0  0  0
 24 25  1  0  0  0
 25 26  2  0  0  0
 25 18  1  0  0  0
 26 27  1  0  0  0
 18 19  2  0  0  0
 19 14  1  0  0  0
 14 15  1  0  0  0
 15 16  2  0  0  0
 15  1  1  0  0  0
  1  2  1  0  0  0
  1  5  2  0  0  0
  2  3  2  0  0  0
  3  4  1  0  0  0
  4  5  1  0  0  0
  4  6  1  0  0  0
  5 32  1  0  0  0
 32 33  1  0  0  0
 33 34  1  0  0  0
 33 38  1  0  0  0
 34 35  1  0  0  0
 35 36  1  0  0  0
 36 37  1  0  0  0
 37 38  1  0  0  0
  6  7  2  0  0  0
  6 10  1  0  0  0
  7  8  1  0  0  0
  8  9  1  0  0  0
  9 10  2  0  0  0
 10 11  1  0  0  0
 27 30  1  0  0  0
 14 17  1  0  0  0
 11 12  1  0  0  0
 11 13  1  0  0  0
 29 31  1  0  0  0
M  END
> <minimizedAffinity>
-9.78459

$$$$
708


 31 34  0  0  0  0  0  0  0  0999 V2000
    9.6714    7.9145   13.0574 C   0  0  0  0  0  0  0  0  0  0  0  0
   10.3856    7.8029   11.7423 C   0  0  0  0  0  0  0  0  0  0  0  0
   13.1427    8.1837   13.4276 Br  0  0  0  0  0  0  0  0  0  0  0  0
   12.5642    6.7367   12.3335 C   0  0  0  0  0  0  0  0  0  0  0  0
   11.3563    6.7291   11.6911 N   0  0  0  0  0  0  0  0  0  0  0  0
   11.3264    5.5529   11.0336 C   0  0  0  0  0  0  0  0  0  0  0  0
   12.4885    4.8321   11.2563 C   0  0  0  0  0  0  0  0  0  0  0  0
   13.2359    5.6057   12.0729 N   0  0  0  0  0  0  0  0  0  0  0  0
   12.7425    3.6241   10.7245 N   0  0  0  0  0  0  0  0  0  0  0  0
   11.7909    3.1062    9.9274 C   0  0  0  0  0  0  0  0  0  0  0  0
   11.9842    1.9601    9.3987 O   0  0  0  0  0  0  0  0  0  0  0  0
   10.6476    3.7726    9.6830 N   0  0  0  0  0  0  0  0  0  0  0  0
   10.3871    4.9969   10.2204 C   0  0  0  0  0  0  0  0  0  0  0  0
    9.3221    5.6029    9.9821 O   0  0  0  0  0  0  0  0  0  0  0  0
   13.9591    2.8774   10.9639 C   0  0  0  0  0  0  0  0  0  0  0  0
    9.9004    3.3852    9.0682 H   0  0  0  0  0  0  0  0  0  0  0  0
    8.6594    6.8350   13.3141 C   0  0  0  0  0  0  0  0  0  0  0  0
    7.5320    7.3755   14.0608 N   0  0  0  0  0  0  0  0  0  0  0  0
    6.3495    7.8288   13.5856 C   0  0  0  0  0  0  0  0  0  0  0  0
    5.5514    8.2557   14.6214 C   0  0  0  0  0  0  0  0  0  0  0  0
    6.2723    8.0538   15.7402 N   0  0  0  0  0  0  0  0  0  0  0  0
    7.4649    7.5235   15.3936 C   0  0  0  0  0  0  0  0  0  0  0  0
    8.8842    7.0332   16.5736 Br  0  0  0  0  0  0  0  0  0  0  0  0
    4.3148    8.7594   14.4519 N   0  0  0  0  0  0  0  0  0  0  0  0
    3.8626    8.8357   13.1761 C   0  0  0  0  0  0  0  0  0  0  0  0
    2.6967    9.3089   13.0122 O   0  0  0  0  0  0  0  0  0  0  0  0
    4.6130    8.4278   12.1312 N   0  0  0  0  0  0  0  0  0  0  0  0
    5.8511    7.9243   12.3130 C   0  0  0  0  0  0  0  0  0  0  0  0
    6.5739    7.5364   11.3633 O   0  0  0  0  0  0  0  0  0  0  0  0
    3.5029    9.2011   15.5832 C   0  0  0  0  0  0  0  0  0  0  0  0
    4.2133    8.5095   11.1753 H   0  0  0  0  0  0  0  0  0  0  0  0
  3  4  1  0  0  0
  4  5  1  0  0  0
  4  8  2  0  0  0
  5  6  1  0  0  0
  5  2  1  0  0  0
  6  7  2  0  0  0
  6 13  1  0  0  0
  7  8  1  0  0  0
  7  9  1  0  0  0
  9 10  1  0  0  0
  9 15  1  0  0  0
 10 11  2  0  0  0
 10 12  1  0  0  0
 12 13  1  0  0  0
 13 14  2  0  0  0
  2  1  1  0  0  0
  1 17  1  0  0  0
 17 18  1  0  0  0
 18 19  1  0  0  0
 18 22  1  0  0  0
 19 20  2  0  0  0
 19 28  1  0  0  0
 20 21  1  0  0  0
 20 24  1  0  0  0
 21 22  2  0  0  0
 22 23  1  0  0  0
 24 25  1  0  0  0
 24 30  1  0  0  0
 25 26  2  0  0  0
 25 27  1  0  0  0
 27 28  1  0  0  0
 28 29  2  0  0  0
 12 16  1  0  0  0
 27 31  1  0  0  0
M  END
> <minimizedAffinity>
-8.35706

$$$$
1808


 24 28  0  0  0  0  0  0  0  0999 V2000
   10.7329    6.0490   11.2298 N   0  0  0  0  0  0  0  0  0  0  0  0
   10.9439    5.4422    9.9645 C   0  0  0  0  0  0  0  0  0  0  0  0
   10.2157    5.6339    8.9612 O   0  0  0  0  0  0  0  0  0  0  0  0
   12.1448    4.5675   10.0388 C   0  0  0  0  0  0  0  0  0  0  0  0
   11.7903    3.1439   10.3394 C   0  0  0  0  0  0  0  0  0  0  0  0
   12.9330    2.7445   11.0675 O   0  0  0  0  0  0  0  0  0  0  0  0
   12.8104    3.6956   12.1117 C   0  0  0  0  0  0  0  0  0  0  0  0
   12.8365    4.9709   11.3418 C   0  0  0  0  0  0  0  0  0  0  0  0
   11.9456    5.9776   11.9790 C   0  0  0  0  0  0  0  0  0  0  0  0
   12.2291    6.6303   12.9869 O   0  0  0  0  0  0  0  0  0  0  0  0
   11.4089    3.4226   12.5238 C   0  0  0  0  0  0  0  0  0  0  0  0
   10.7654    3.1402   11.3951 C   0  0  0  0  0  0  0  0  0  0  0  0
    5.4035    8.5048   12.8694 Br  0  0  0  0  0  0  0  0  0  0  0  0
    7.0589    7.7310   12.3609 C   0  0  0  0  0  0  0  0  0  0  0  0
    7.1642    6.3651   12.2568 C   0  0  0  0  0  0  0  0  0  0  0  0
    8.3779    5.8306   11.8845 C   0  0  0  0  0  0  0  0  0  0  0  0
    9.4763    6.6180   11.6187 C   0  0  0  0  0  0  0  0  0  0  0  0
    9.3712    7.9983   11.7227 C   0  0  0  0  0  0  0  0  0  0  0  0
    8.1389    8.5364   12.0993 C   0  0  0  0  0  0  0  0  0  0  0  0
   11.5300    2.2938    9.1710 C   0  0  0  0  0  0  0  0  0  0  0  0
   10.3001    1.6949    9.1803 O   0  0  0  0  0  0  0  0  0  0  0  0
   10.4669    0.3466    9.3746 C   0  0  0  0  0  0  0  0  0  0  0  0
   11.9380    0.1142    9.4832 C   0  0  0  0  0  0  0  0  0  0  0  0
   12.4884    1.3068    9.0276 O   0  0  0  0  0  0  0  0  0  0  0  0
 13 14  1  0  0  0
 14 15  2  0  0  0
 14 19  1  0  0  0
 15 16  1  0  0  0
 16 17  2  0  0  0
 17 18  1  0  0  0
 17  1  1  0  0  0
 18 19  2  0  0  0
  1  2  1  0  0  0
  1  9  1  0  0  0
  2  3  2  0  0  0
  2  4  1  0  0  0
  4  5  1  0  0  0
  4  8  1  0  0  0
  5  6  1  0  0  0
  5 12  1  0  0  0
  5 20  1  0  0  0
  6  7  1  0  0  0
  7  8  1  0  0  0
  7 11  1  0  0  0
  8  9  1  0  0  0
  9 10  2  0  0  0
 11 12  2  0  0  0
 20 21  1  0  0  0
 20 24  1  0  0  0
 21 22  1  0  0  0
 22 23  1  0  0  0
 23 24  1  0  0  0
M  END
> <minimizedAffinity>
-8.21118

$$$$
