
 OpenBabel03212208413D

 50 53  0  0  0  0  0  0  0  0999 V2000
   10.9360   34.6720   69.7260 B   0  0  0  0  0  0  0  0  0  0  0  0
   12.7470   34.7370   70.3610 C   0  0  0  0  0  0  0  0  0  0  0  0
   13.5070   35.8540   70.0690 C   0  0  0  0  0  0  0  0  0  0  0  0
   14.8040   35.8810   70.5350 C   0  0  0  0  0  0  0  0  0  0  0  0
   15.3120   34.8200   71.2650 C   0  0  0  0  0  0  0  0  0  0  0  0
   14.5570   33.7020   71.5580 C   0  0  0  0  0  0  0  0  0  0  0  0
   13.2610   33.6830   71.0890 C   0  0  0  0  0  0  0  0  0  0  0  0
   12.4940   32.5420   71.3890 O   0  0  0  0  0  0  0  0  0  0  0  0
   15.0890   32.5720   72.3310 C   0  0  0  0  0  0  0  0  0  0  0  0
   16.3060   32.5210   72.7250 N   0  0  0  0  0  0  0  0  0  0  0  0
   16.7800   31.3930   73.4800 N   0  0  0  0  0  0  0  0  0  0  0  0
   17.4740   30.4110   72.7640 C   0  0  0  0  0  0  0  0  0  0  0  0
   18.3010   30.8570   71.8580 O   0  0  0  0  0  0  0  0  0  0  0  0
   17.4270   28.9720   72.8640 C   0  0  0  0  0  0  0  0  0  0  0  0
   16.5030   28.2110   72.1800 N   0  0  0  0  0  0  0  0  0  0  0  0
   16.7130   26.9700   72.4820 N   0  0  0  0  0  0  0  0  0  0  0  0
   17.7570   26.8870   73.3530 N   0  0  0  0  0  0  0  0  0  0  0  0
   18.2190   28.1090   73.6090 C   0  0  0  0  0  0  0  0  0  0  0  0
   19.3200   28.5140   74.4840 C   0  0  0  0  0  0  0  0  0  0  0  0
   19.0400   29.0600   75.7580 N   0  0  0  0  0  4  0  0  0  0  0  0
   20.2120   29.6170   76.4180 C   0  0  0  0  0  0  0  0  0  0  0  0
   21.3240   28.6480   76.4450 C   0  0  0  0  0  0  0  0  0  0  0  0
   21.0840   27.3380   76.5410 O   0  0  0  0  0  0  0  0  0  0  0  0
   19.8040   26.8880   76.5560 C   0  0  0  0  0  0  0  0  0  0  0  0
   18.7340   27.8980   76.6550 C   0  0  0  0  0  0  0  0  0  0  0  0
   18.1800   25.6060   73.8250 C   0  0  0  0  0  0  0  0  0  0  0  0
   18.0260   24.9960   74.9930 N   0  0  0  0  0  0  0  0  0  0  0  0
   18.5690   23.8270   74.8980 O   0  0  0  0  0  0  0  0  0  0  0  0
   19.0790   23.6270   73.7230 N   0  0  0  0  0  0  0  0  0  0  0  0
   18.8690   24.7110   72.9900 C   0  0  0  0  0  0  0  0  0  0  0  0
   19.2370   24.9760   71.6460 N   0  0  0  0  0  0  0  0  0  0  0  0
   15.8520   37.4280   70.1290 B   0  0  0  0  0  0  0  0  0  0  0  0
   12.9610   36.9050   69.3310 O   0  0  0  0  0  0  0  0  0  0  0  0
   16.3410   34.8580   71.6250 H   0  0  0  0  0  0  0  0  0  0  0  0
   11.5790   32.6560   71.7970 H   0  0  0  0  0  0  0  0  0  0  0  0
   14.4430   31.7660   72.5760 H   0  0  0  0  0  0  0  0  0  0  0  0
   16.5940   31.3760   74.4690 H   0  0  0  0  0  0  0  0  0  0  0  0
   20.0450   29.2030   73.9310 H   0  0  0  0  0  0  0  0  0  0  0  0
   19.9390   27.5810   74.6810 H   0  0  0  0  0  0  0  0  0  0  0  0
   18.2450   29.6820   75.7630 H   0  0  0  0  0  0  0  0  0  0  0  0
   19.8850   29.7940   77.4850 H   0  0  0  0  0  0  0  0  0  0  0  0
   20.5470   30.5740   76.0290 H   0  0  0  0  0  0  0  0  0  0  0  0
   22.0010   28.9470   77.3010 H   0  0  0  0  0  0  0  0  0  0  0  0
   21.9730   28.8420   75.5410 H   0  0  0  0  0  0  0  0  0  0  0  0
   19.6360   26.2480   75.6660 H   0  0  0  0  0  0  0  0  0  0  0  0
   19.6990   26.1910   77.4360 H   0  0  0  0  0  0  0  0  0  0  0  0
   18.6030   28.3240   77.6580 H   0  0  0  0  0  0  0  0  0  0  0  0
   17.7700   27.5160   76.2940 H   0  0  0  0  0  0  0  0  0  0  0  0
   19.8070   24.2790   71.1240 H   0  0  0  0  0  0  0  0  0  0  0  0
   18.9550   25.8660   71.1420 H   0  0  0  0  0  0  0  0  0  0  0  0
  1  2  1  0  0  0  0
  2  7  1  0  0  0  0
  3  2  2  0  0  0  0
  3  4  1  0  0  0  0
  4  5  2  0  0  0  0
  5  6  1  0  0  0  0
  5 34  1  0  0  0  0
  6  9  1  0  0  0  0
  7  8  1  0  0  0  0
  7  6  2  0  0  0  0
  8 35  1  0  0  0  0
  9 36  1  0  0  0  0
  9 10  2  0  0  0  0
 10 11  1  0  0  0  0
 11 37  1  0  0  0  0
 12 14  1  0  0  0  0
 12 11  1  0  0  0  0
 13 12  2  0  0  0  0
 14 18  2  0  0  0  0
 15 16  2  0  0  0  0
 15 14  1  0  0  0  0
 16 17  1  0  0  0  0
 17 18  1  0  0  0  0
 17 26  1  0  0  0  0
 18 19  1  0  0  0  0
 19 39  1  0  0  0  0
 19 20  1  0  0  0  0
 20 40  1  0  0  0  0
 20 21  1  0  0  0  0
 20 25  1  0  0  0  0
 21 22  1  0  0  0  0
 21 41  1  0  0  0  0
 22 23  1  0  0  0  0
 22 43  1  0  0  0  0
 23 24  1  0  0  0  0
 24 25  1  0  0  0  0
 24 46  1  0  0  0  0
 25 47  1  0  0  0  0
 26 27  2  0  0  0  0
 28 27  1  0  0  0  0
 29 28  1  0  0  0  0
 30 29  2  0  0  0  0
 30 26  1  0  0  0  0
 31 30  1  0  0  0  0
 32  4  1  0  0  0  0
 33  3  1  0  0  0  0
 38 19  1  0  0  0  0
 42 21  1  0  0  0  0
 44 22  1  0  0  0  0
 45 24  1  0  0  0  0
 48 25  1  0  0  0  0
 49 31  1  0  0  0  0
 50 31  1  0  0  0  0
M  END
>  <Pose>
1

>  <Score>
-8.63

$$$$
