
 OpenBabel03212208413D

 52 55  0  0  0  0  0  0  0  0999 V2000
   13.1040   36.8700   69.4440 B   0  0  0  0  0  0  0  0  0  0  0  0
   13.9550   35.4060   70.3300 C   0  0  0  0  0  0  0  0  0  0  0  0
   15.3330   35.4260   70.4230 C   0  0  0  0  0  0  0  0  0  0  0  0
   15.9510   34.3730   71.0600 C   0  0  0  0  0  0  0  0  0  0  0  0
   15.2230   33.3250   71.5950 C   0  0  0  0  0  0  0  0  0  0  0  0
   13.8520   33.2970   71.5080 C   0  0  0  0  0  0  0  0  0  0  0  0
   13.2340   34.3520   70.8690 C   0  0  0  0  0  0  0  0  0  0  0  0
   11.8630   34.3450   70.7700 O   0  0  0  0  0  0  0  0  0  0  0  0
   13.1120   32.1830   72.0780 C   0  0  0  0  0  0  0  0  0  0  0  0
   13.6520   31.1900   72.6650 N   0  0  0  0  0  0  0  0  0  0  0  0
   12.9130   30.1220   73.2110 N   0  0  0  0  0  0  0  0  0  0  0  0
   13.5700   29.1870   74.0570 C   0  0  0  0  0  0  0  0  0  0  0  0
   13.2090   29.0460   75.3310 N   0  0  0  0  0  4  0  0  0  0  0  0
   13.8150   28.1610   76.1730 C   0  0  0  0  0  0  0  0  0  0  0  0
   14.8010   27.4350   75.6510 N   0  0  0  0  0  0  0  0  0  0  0  0
   15.2310   27.5150   74.3710 C   0  0  0  0  0  0  0  0  0  0  0  0
   14.5690   28.4260   73.5960 N   0  0  0  0  0  0  0  0  0  0  0  0
   16.2780   26.7260   73.8620 N   0  0  0  0  0  0  0  0  0  0  0  0
   16.4670   25.3820   74.3100 C   0  0  0  0  0  0  0  0  0  0  0  0
   17.9340   25.2460   74.7260 C   0  0  0  0  0  0  0  0  0  0  0  0
   18.6110   26.4420   74.6290 O   0  0  0  0  0  0  0  0  0  0  0  0
   18.5920   27.0070   73.3780 C   0  0  0  0  0  0  0  0  0  0  0  0
   17.1740   27.2630   72.8840 C   0  0  0  0  0  0  0  0  0  0  0  0
   13.4170   28.0270   77.5200 N   0  0  0  0  0  0  0  0  0  0  0  0
   12.0240   28.0380   77.8700 C   0  0  0  0  0  0  0  0  0  0  0  0
   11.8630   28.9810   79.0510 C   0  0  0  0  0  0  0  0  0  0  0  0
   12.8160   28.7500   80.0350 O   0  0  0  0  0  0  0  0  0  0  0  0
   14.1080   28.9470   79.6050 C   0  0  0  0  0  0  0  0  0  0  0  0
   14.4090   27.8780   78.5470 C   0  0  0  0  0  0  0  0  0  0  0  0
   17.8610   34.3880   71.1950 B   0  0  0  0  0  0  0  0  0  0  0  0
   16.0490   36.4900   69.8780 O   0  0  0  0  0  0  0  0  0  0  0  0
   15.7320   32.4960   72.0990 H   0  0  0  0  0  0  0  0  0  0  0  0
   11.3660   35.1180   70.3180 H   0  0  0  0  0  0  0  0  0  0  0  0
   12.0370   32.1930   72.0010 H   0  0  0  0  0  0  0  0  0  0  0  0
   11.9190   30.0770   72.9620 H   0  0  0  0  0  0  0  0  0  0  0  0
   16.3380   24.7080   73.4300 H   0  0  0  0  0  0  0  0  0  0  0  0
   15.7820   25.1240   75.1370 H   0  0  0  0  0  0  0  0  0  0  0  0
   18.4410   24.4330   74.1960 H   0  0  0  0  0  0  0  0  0  0  0  0
   17.9290   24.9640   75.8100 H   0  0  0  0  0  0  0  0  0  0  0  0
   19.1730   26.4210   72.6340 H   0  0  0  0  0  0  0  0  0  0  0  0
   19.0870   27.9990   73.4470 H   0  0  0  0  0  0  0  0  0  0  0  0
   16.9810   28.3430   72.7230 H   0  0  0  0  0  0  0  0  0  0  0  0
   17.0750   26.7840   71.8880 H   0  0  0  0  0  0  0  0  0  0  0  0
   11.3730   28.4540   77.0580 H   0  0  0  0  0  0  0  0  0  0  0  0
   11.6730   27.0400   78.2020 H   0  0  0  0  0  0  0  0  0  0  0  0
   11.8790   30.0250   78.6970 H   0  0  0  0  0  0  0  0  0  0  0  0
   10.8690   28.7890   79.5090 H   0  0  0  0  0  0  0  0  0  0  0  0
   14.1750   29.9190   79.0850 H   0  0  0  0  0  0  0  0  0  0  0  0
   14.7820   28.8620   80.4650 H   0  0  0  0  0  0  0  0  0  0  0  0
   14.2160   26.8990   79.0630 H   0  0  0  0  0  0  0  0  0  0  0  0
   15.4420   27.9620   78.1740 H   0  0  0  0  0  0  0  0  0  0  0  0
   16.3690   36.4360   68.9250 H   0  0  0  0  0  0  0  0  0  0  0  0
  1  2  1  0  0  0  0
  2  3  2  0  0  0  0
  2  7  1  0  0  0  0
  3  4  1  0  0  0  0
  4 30  1  0  0  0  0
  4  5  2  0  0  0  0
  5 32  1  0  0  0  0
  6  5  1  0  0  0  0
  6  9  1  0  0  0  0
  7  6  2  0  0  0  0
  8  7  1  0  0  0  0
  9 10  2  0  0  0  0
 10 11  1  0  0  0  0
 11 12  1  0  0  0  0
 12 13  2  0  0  0  0
 13 14  2  0  0  0  0
 14 24  1  0  0  0  0
 15 14  1  0  0  0  0
 16 15  2  0  0  0  0
 17 12  1  0  0  0  0
 17 16  1  0  0  0  0
 18 19  1  0  0  0  0
 18 16  1  0  0  0  0
 19 20  1  0  0  0  0
 19 37  1  0  0  0  0
 20 39  1  0  0  0  0
 21 20  1  0  0  0  0
 22 41  1  0  0  0  0
 22 21  1  0  0  0  0
 23 22  1  0  0  0  0
 23 18  1  0  0  0  0
 24 25  1  0  0  0  0
 24 29  1  0  0  0  0
 25 45  1  0  0  0  0
 25 26  1  0  0  0  0
 26 47  1  0  0  0  0
 26 27  1  0  0  0  0
 28 27  1  0  0  0  0
 28 49  1  0  0  0  0
 29 50  1  0  0  0  0
 29 28  1  0  0  0  0
 31  3  1  0  0  0  0
 33  8  1  0  0  0  0
 34  9  1  0  0  0  0
 35 11  1  0  0  0  0
 36 19  1  0  0  0  0
 38 20  1  0  0  0  0
 40 22  1  0  0  0  0
 42 23  1  0  0  0  0
 43 23  1  0  0  0  0
 44 25  1  0  0  0  0
 46 26  1  0  0  0  0
 48 28  1  0  0  0  0
 51 29  1  0  0  0  0
 52 31  1  0  0  0  0
M  END
>  <Pose>
1

>  <Score>
-7.44

$$$$
