
 OpenBabel03212208413D

 43 46  0  0  0  0  0  0  0  0999 V2000
   17.8500   39.2150   66.7910 B   0  0  0  0  0  0  0  0  0  0  0  0
   19.2570   38.0740   67.3560 C   0  0  0  0  0  0  0  0  0  0  0  0
   19.1030   37.3560   68.5240 C   0  0  0  0  0  0  0  0  0  0  0  0
   20.1030   36.5330   68.9420 C   0  0  0  0  0  0  0  0  0  0  0  0
   21.2900   36.3970   68.2130 C   0  0  0  0  0  0  0  0  0  0  0  0
   21.4160   37.1230   67.0540 C   0  0  0  0  0  0  0  0  0  0  0  0
   20.4200   37.9590   66.6140 C   0  0  0  0  0  0  0  0  0  0  0  0
   23.0180   36.9750   66.0180 B   0  0  0  0  0  0  0  0  0  0  0  0
   19.9530   35.7740   70.1680 C   0  0  0  0  0  0  0  0  0  0  0  0
   18.8280   35.2240   70.4260 N   0  0  0  0  0  0  0  0  0  0  0  0
   18.5770   34.4780   71.5650 N   0  0  0  0  0  0  0  0  0  0  0  0
   17.3260   33.8970   71.8870 C   0  0  0  0  0  0  0  0  0  0  0  0
   16.8680   34.1410   73.0280 O   0  0  0  0  0  0  0  0  0  0  0  0
   16.5810   33.0610   70.9770 C   0  0  0  0  0  0  0  0  0  0  0  0
   15.1670   33.2640   70.9430 N   0  0  0  0  0  0  0  0  0  0  0  0
   14.4970   34.3610   70.5010 C   0  0  0  0  0  0  0  0  0  0  0  0
   13.1490   34.1730   70.6330 C   0  0  0  0  0  0  0  0  0  0  0  0
   13.0130   32.9470   71.1610 N   0  0  0  0  0  0  0  0  0  0  0  0
   14.2480   32.3860   71.3520 C   0  0  0  0  0  0  0  0  0  0  0  0
   14.4580   31.0570   71.9130 C   0  0  0  0  0  0  0  0  0  0  0  0
   15.3950   30.1850   71.5200 N   0  0  0  0  0  0  0  0  0  0  0  0
   15.2890   29.0880   72.2490 O   0  0  0  0  0  0  0  0  0  0  0  0
   14.3200   29.2090   73.1010 N   0  0  0  0  0  0  0  0  0  0  0  0
   13.7690   30.4300   72.9270 C   0  0  0  0  0  0  0  0  0  0  0  0
   12.6810   30.9730   73.6520 N   0  0  0  0  0  4  0  0  0  0  0  0
   12.2970   35.1820   70.2360 C   0  0  0  0  0  0  0  0  0  0  0  0
   12.7660   36.3750   69.7090 C   0  0  0  0  0  0  0  0  0  0  0  0
   14.1350   36.5360   69.5880 C   0  0  0  0  0  0  0  0  0  0  0  0
   14.9900   35.5280   69.9850 C   0  0  0  0  0  0  0  0  0  0  0  0
   17.9360   37.4790   69.2570 O   0  0  0  0  0  0  0  0  0  0  0  0
   22.0910   35.7500   68.5300 H   0  0  0  0  0  0  0  0  0  0  0  0
   20.4860   38.5420   65.7110 H   0  0  0  0  0  0  0  0  0  0  0  0
   20.7530   35.6460   70.8870 H   0  0  0  0  0  0  0  0  0  0  0  0
   19.3600   34.3310   72.2370 H   0  0  0  0  0  0  0  0  0  0  0  0
   16.9250   33.1910   69.9030 H   0  0  0  0  0  0  0  0  0  0  0  0
   16.8100   31.9970   71.1850 H   0  0  0  0  0  0  0  0  0  0  0  0
   12.1340   30.2570   74.1480 H   0  0  0  0  0  0  0  0  0  0  0  0
   12.0340   31.3980   72.9320 H   0  0  0  0  0  0  0  0  0  0  0  0
   12.9710   31.7540   74.2970 H   0  0  0  0  0  0  0  0  0  0  0  0
   11.2250   35.0230   70.3440 H   0  0  0  0  0  0  0  0  0  0  0  0
   12.0610   37.1560   69.4030 H   0  0  0  0  0  0  0  0  0  0  0  0
   14.5050   37.4680   69.1760 H   0  0  0  0  0  0  0  0  0  0  0  0
   16.0690   35.6320   69.8990 H   0  0  0  0  0  0  0  0  0  0  0  0
  1  2  1  0  0  0  0
  2  3  1  0  0  0  0
  3  4  2  0  0  0  0
  3 30  1  0  0  0  0
  4  9  1  0  0  0  0
  5 31  1  0  0  0  0
  5  4  1  0  0  0  0
  6  5  2  0  0  0  0
  7  6  1  0  0  0  0
  7  2  2  0  0  0  0
  8  6  1  0  0  0  0
  9 10  2  0  0  0  0
  9 33  1  0  0  0  0
 10 11  1  0  0  0  0
 11 12  1  0  0  0  0
 11 34  1  0  0  0  0
 12 13  2  0  0  0  0
 14 36  1  0  0  0  0
 14 12  1  0  0  0  0
 15 14  1  0  0  0  0
 15 19  1  0  0  0  0
 16 17  1  0  0  0  0
 16 15  1  0  0  0  0
 17 18  1  0  0  0  0
 18 19  2  0  0  0  0
 19 20  1  0  0  0  0
 20 24  1  0  0  0  0
 21 20  2  0  0  0  0
 21 22  1  0  0  0  0
 22 23  1  0  0  0  0
 24 23  2  0  0  0  0
 24 25  1  0  0  0  0
 25 37  1  0  0  0  0
 25 39  1  0  0  0  0
 26 40  1  0  0  0  0
 26 17  2  0  0  0  0
 27 26  1  0  0  0  0
 28 27  2  0  0  0  0
 28 29  1  0  0  0  0
 29 16  2  0  0  0  0
 32  7  1  0  0  0  0
 35 14  1  0  0  0  0
 38 25  1  0  0  0  0
 41 27  1  0  0  0  0
 42 28  1  0  0  0  0
 43 29  1  0  0  0  0
M  END
>  <Pose>
1

>  <Score>
-8.28

$$$$
