
 OpenBabel03212208413D

 53 56  0  0  0  0  0  0  0  0999 V2000
   17.0370   28.9370   72.5790 B   0  0  0  0  0  0  0  0  0  0  0  0
   15.3000   29.7440   72.8130 C   0  0  0  0  0  0  0  0  0  0  0  0
   14.4490   29.2230   73.7650 C   0  0  0  0  0  0  0  0  0  0  0  0
   13.2200   29.7880   73.9670 C   0  0  0  0  0  0  0  0  0  0  0  0
   12.8750   30.8720   73.1930 C   0  0  0  0  0  0  0  0  0  0  0  0
   13.6890   31.4320   72.2240 C   0  0  0  0  0  0  0  0  0  0  0  0
   14.9730   30.7910   72.0640 C   0  0  0  0  0  0  0  0  0  0  0  0
   13.4460   32.4980   71.4060 C   0  0  0  0  0  0  0  0  0  0  0  0
   12.5320   33.3990   70.9980 N   0  0  0  0  0  0  0  0  0  0  0  0
   13.5060   34.1460   69.9790 N   0  0  0  0  0  0  0  0  0  0  0  0
   14.3770   34.8780   70.8720 C   0  0  0  0  0  0  0  0  0  0  0  0
   14.6750   34.4070   71.9680 O   0  0  0  0  0  0  0  0  0  0  0  0
   14.9780   36.1220   70.4470 C   0  0  0  0  0  0  0  0  0  0  0  0
   14.6260   37.1070   69.6980 N   0  0  0  0  0  0  0  0  0  0  0  0
   15.6970   37.7330   69.2410 N   0  0  0  0  0  0  0  0  0  0  0  0
   16.7770   37.1330   69.7200 N   0  0  0  0  0  0  0  0  0  0  0  0
   16.4670   36.1130   70.5080 C   0  0  0  0  0  0  0  0  0  0  0  0
   17.2030   35.0650   71.1540 C   0  0  0  0  0  0  0  0  0  0  0  0
   17.5530   33.8830   70.3630 N   0  0  0  0  0  0  0  0  0  0  0  0
   17.1220   32.6690   70.9780 C   0  0  0  0  0  0  0  0  0  0  0  0
   17.8420   32.3140   72.2470 C   0  0  0  0  0  0  0  0  0  0  0  0
   19.1190   31.8700   71.9470 O   0  0  0  0  0  0  0  0  0  0  0  0
   19.5430   32.3830   70.7160 C   0  0  0  0  0  0  0  0  0  0  0  0
   19.0630   33.7880   70.5660 C   0  0  0  0  0  0  0  0  0  0  0  0
   18.0600   37.3190   69.0740 C   0  0  0  0  0  0  0  0  0  0  0  0
   19.2610   37.1000   69.4130 N   0  0  0  0  0  0  0  0  0  0  0  0
   20.1330   37.4910   68.4830 O   0  0  0  0  0  0  0  0  0  0  0  0
   19.4380   37.9750   67.5180 N   0  0  0  0  0  0  0  0  0  0  0  0
   18.1320   37.9200   67.7790 C   0  0  0  0  0  0  0  0  0  0  0  0
   17.0650   38.3650   66.9820 N   0  0  0  0  0  0  0  0  0  0  0  0
   12.3360   29.2990   74.9350 O   0  0  0  0  0  0  0  0  0  0  0  0
   11.2200   30.1210   75.3320 C   0  0  0  0  0  0  0  0  0  0  0  0
   14.8520   28.1170   74.5190 O   0  0  0  0  0  0  0  0  0  0  0  0
   11.8850   31.3300   73.3700 H   0  0  0  0  0  0  0  0  0  0  0  0
   15.6630   31.2050   71.3230 H   0  0  0  0  0  0  0  0  0  0  0  0
   14.4020   32.7870   70.7510 H   0  0  0  0  0  0  0  0  0  0  0  0
   13.3100   33.9400   69.0920 H   0  0  0  0  0  0  0  0  0  0  0  0
   18.0090   35.3000   71.8560 H   0  0  0  0  0  0  0  0  0  0  0  0
   16.4510   34.5550   71.9200 H   0  0  0  0  0  0  0  0  0  0  0  0
   16.0440   32.7360   71.1720 H   0  0  0  0  0  0  0  0  0  0  0  0
   17.2860   31.7880   70.2700 H   0  0  0  0  0  0  0  0  0  0  0  0
   17.7950   33.0800   73.0210 H   0  0  0  0  0  0  0  0  0  0  0  0
   17.3190   31.4090   72.6740 H   0  0  0  0  0  0  0  0  0  0  0  0
   19.4440   31.7420   69.8610 H   0  0  0  0  0  0  0  0  0  0  0  0
   20.6820   32.4850   70.8610 H   0  0  0  0  0  0  0  0  0  0  0  0
   19.5960   34.2970   69.7750 H   0  0  0  0  0  0  0  0  0  0  0  0
   19.2300   34.2270   71.5970 H   0  0  0  0  0  0  0  0  0  0  0  0
   17.0500   38.2620   65.9520 H   0  0  0  0  0  0  0  0  0  0  0  0
   16.1910   38.8300   67.4050 H   0  0  0  0  0  0  0  0  0  0  0  0
   10.5820   29.6120   76.0650 H   0  0  0  0  0  0  0  0  0  0  0  0
   11.6670   31.0770   75.7850 H   0  0  0  0  0  0  0  0  0  0  0  0
   10.6690   30.3900   74.4350 H   0  0  0  0  0  0  0  0  0  0  0  0
   14.2410   27.2730   74.5120 H   0  0  0  0  0  0  0  0  0  0  0  0
  1  2  1  0  0  0  0
  2  3  1  0  0  0  0
  3  4  2  0  0  0  0
  3 33  1  0  0  0  0
  4 31  1  0  0  0  0
  5 34  1  0  0  0  0
  5  4  1  0  0  0  0
  6  5  2  0  0  0  0
  7  6  1  0  0  0  0
  7  2  2  0  0  0  0
  8  6  1  0  0  0  0
  9  8  1  0  0  0  0
 10 11  1  0  0  0  0
 10  9  1  0  0  0  0
 11 12  2  0  0  0  0
 13 17  2  0  0  0  0
 13 11  1  0  0  0  0
 14 13  1  0  0  0  0
 15 14  2  0  0  0  0
 15 16  1  0  0  0  0
 16 17  1  0  0  0  0
 17 18  1  0  0  0  0
 18 38  1  0  0  0  0
 18 39  1  0  0  0  0
 19 24  1  0  0  0  0
 19 20  1  0  0  0  0
 19 18  1  0  0  0  0
 20 40  1  0  0  0  0
 20 21  1  0  0  0  0
 21 43  1  0  0  0  0
 21 42  1  0  0  0  0
 22 21  1  0  0  0  0
 23 45  1  0  0  0  0
 23 22  1  0  0  0  0
 24 23  1  0  0  0  0
 24 47  1  0  0  0  0
 25 26  2  0  0  0  0
 25 16  1  0  0  0  0
 27 26  1  0  0  0  0
 28 29  2  0  0  0  0
 28 27  1  0  0  0  0
 29 25  1  0  0  0  0
 30 49  1  0  0  0  0
 30 29  1  0  0  0  0
 31 32  1  0  0  0  0
 32 51  1  0  0  0  0
 32 50  1  0  0  0  0
 35  7  1  0  0  0  0
 36  8  1  0  0  0  0
 37 10  1  0  0  0  0
 41 20  1  0  0  0  0
 44 23  1  0  0  0  0
 46 24  1  0  0  0  0
 48 30  1  0  0  0  0
 52 32  1  0  0  0  0
 53 33  1  0  0  0  0
M  END
>  <Pose>
1

>  <Score>
-8.47

$$$$
