
 OpenBabel03212208413D

 58 61  0  0  0  0  0  0  0  0999 V2000
   12.6670   34.6300   70.2400 B   0  0  0  0  0  0  0  0  0  0  0  0
   14.5440   34.9800   70.4290 C   0  0  0  0  0  0  0  0  0  0  0  0
   15.0520   36.1740   69.9960 C   0  0  0  0  0  0  0  0  0  0  0  0
   16.4180   36.4200   70.1200 C   0  0  0  0  0  0  0  0  0  0  0  0
   17.2520   35.4580   70.6730 C   0  0  0  0  0  0  0  0  0  0  0  0
   16.7580   34.2600   71.0990 C   0  0  0  0  0  0  0  0  0  0  0  0
   15.4030   34.0490   70.9680 C   0  0  0  0  0  0  0  0  0  0  0  0
   17.5810   33.0970   71.4890 C   0  0  0  0  0  0  0  0  0  0  0  0
   17.6450   32.5300   72.5000 N   0  0  0  0  0  0  0  0  0  0  0  0
   17.7330   31.8770   73.6310 N   0  0  0  0  0  0  0  0  0  0  0  0
   18.4290   30.5860   73.4170 C   0  0  0  0  0  0  0  0  0  0  0  0
   17.8340   29.4080   73.4360 N   0  0  0  0  0  4  0  0  0  0  0  0
   18.5610   28.2550   73.4340 C   0  0  0  0  0  0  0  0  0  0  0  0
   19.9070   28.4060   73.4140 N   0  0  0  0  0  0  0  0  0  0  0  0
   20.5680   29.5790   73.3930 C   0  0  0  0  0  0  0  0  0  0  0  0
   19.7860   30.6820   73.3920 N   0  0  0  0  0  0  0  0  0  0  0  0
   21.9430   29.6570   73.5250 N   0  0  0  0  0  0  0  0  0  0  0  0
   22.7440   29.6880   74.6880 C   0  0  0  0  0  0  0  0  0  0  0  0
   23.4830   31.0280   74.6740 C   0  0  0  0  0  0  0  0  0  0  0  0
   24.1630   31.1180   73.4800 O   0  0  0  0  0  0  0  0  0  0  0  0
   23.3830   31.1010   72.3470 C   0  0  0  0  0  0  0  0  0  0  0  0
   22.6950   29.7100   72.2360 C   0  0  0  0  0  0  0  0  0  0  0  0
   17.9660   26.9760   73.5410 N   0  0  0  0  0  0  0  0  0  0  0  0
   16.6900   26.7100   72.8570 C   0  0  0  0  0  0  0  0  0  0  0  0
   15.8110   25.9990   73.9180 C   0  0  0  0  0  0  0  0  0  0  0  0
   16.4170   24.7900   74.1070 O   0  0  0  0  0  0  0  0  0  0  0  0
   17.6190   24.8660   74.7520 C   0  0  0  0  0  0  0  0  0  0  0  0
   18.5480   25.9520   74.3210 C   0  0  0  0  0  0  0  0  0  0  0  0
   16.8360   37.6340   69.6720 O   0  0  0  0  0  0  0  0  0  0  0  0
   17.7280   37.9440   68.6610 C   0  0  0  0  0  0  0  0  0  0  0  0
   17.0930   38.7530   67.5400 C   0  0  0  0  0  0  0  0  0  0  0  0
   14.1850   37.0960   69.4490 O   0  0  0  0  0  0  0  0  0  0  0  0
   18.3000   35.6390   70.7980 H   0  0  0  0  0  0  0  0  0  0  0  0
   14.9540   33.1410   71.3150 H   0  0  0  0  0  0  0  0  0  0  0  0
   18.2510   32.6930   70.6920 H   0  0  0  0  0  0  0  0  0  0  0  0
   17.4520   32.0620   74.5730 H   0  0  0  0  0  0  0  0  0  0  0  0
   22.2630   29.5310   75.6520 H   0  0  0  0  0  0  0  0  0  0  0  0
   23.5550   28.8950   74.5240 H   0  0  0  0  0  0  0  0  0  0  0  0
   24.2690   30.9700   75.4690 H   0  0  0  0  0  0  0  0  0  0  0  0
   22.7570   31.8250   74.8520 H   0  0  0  0  0  0  0  0  0  0  0  0
   23.9980   31.1900   71.4660 H   0  0  0  0  0  0  0  0  0  0  0  0
   22.6100   31.9040   72.3050 H   0  0  0  0  0  0  0  0  0  0  0  0
   22.0220   29.7060   71.4100 H   0  0  0  0  0  0  0  0  0  0  0  0
   23.4410   28.9270   72.2770 H   0  0  0  0  0  0  0  0  0  0  0  0
   16.1680   27.6340   72.6040 H   0  0  0  0  0  0  0  0  0  0  0  0
   16.8230   26.1160   71.9730 H   0  0  0  0  0  0  0  0  0  0  0  0
   14.8110   25.9000   73.5200 H   0  0  0  0  0  0  0  0  0  0  0  0
   15.8490   26.6630   74.8200 H   0  0  0  0  0  0  0  0  0  0  0  0
   18.1550   23.8790   74.5980 H   0  0  0  0  0  0  0  0  0  0  0  0
   17.4510   24.9130   75.8460 H   0  0  0  0  0  0  0  0  0  0  0  0
   19.4390   25.5280   73.7910 H   0  0  0  0  0  0  0  0  0  0  0  0
   18.9340   26.4560   75.2640 H   0  0  0  0  0  0  0  0  0  0  0  0
   18.5210   38.6120   69.1380 H   0  0  0  0  0  0  0  0  0  0  0  0
   18.2090   37.0740   68.2300 H   0  0  0  0  0  0  0  0  0  0  0  0
   16.0030   38.8010   67.6140 H   0  0  0  0  0  0  0  0  0  0  0  0
   17.4020   38.3060   66.5600 H   0  0  0  0  0  0  0  0  0  0  0  0
   17.5010   39.7930   67.5550 H   0  0  0  0  0  0  0  0  0  0  0  0
   13.8830   37.9200   69.9110 H   0  0  0  0  0  0  0  0  0  0  0  0
  1  2  1  0  0  0  0
  2  7  1  0  0  0  0
  3  4  1  0  0  0  0
  3  2  2  0  0  0  0
  4  5  2  0  0  0  0
  5 33  1  0  0  0  0
  5  6  1  0  0  0  0
  6  8  1  0  0  0  0
  7  6  2  0  0  0  0
  7 34  1  0  0  0  0
  8  9  1  0  0  0  0
  9 10  1  0  0  0  0
 10 36  1  0  0  0  0
 11 12  2  0  0  0  0
 11 10  1  0  0  0  0
 13 12  2  0  0  0  0
 13 23  1  0  0  0  0
 14 13  1  0  0  0  0
 15 14  2  0  0  0  0
 15 17  1  0  0  0  0
 16 15  1  0  0  0  0
 16 11  1  0  0  0  0
 17 18  1  0  0  0  0
 18 37  1  0  0  0  0
 19 18  1  0  0  0  0
 19 40  1  0  0  0  0
 19 39  1  0  0  0  0
 20 19  1  0  0  0  0
 21 20  1  0  0  0  0
 22 44  1  0  0  0  0
 22 21  1  0  0  0  0
 22 17  1  0  0  0  0
 23 28  1  0  0  0  0
 24 23  1  0  0  0  0
 24 25  1  0  0  0  0
 25 26  1  0  0  0  0
 25 48  1  0  0  0  0
 26 27  1  0  0  0  0
 27 50  1  0  0  0  0
 28 27  1  0  0  0  0
 28 52  1  0  0  0  0
 29  4  1  0  0  0  0
 30 53  1  0  0  0  0
 30 29  1  0  0  0  0
 31 57  1  0  0  0  0
 31 55  1  0  0  0  0
 31 30  1  0  0  0  0
 32 58  1  0  0  0  0
 32  3  1  0  0  0  0
 35  8  1  0  0  0  0
 38 18  1  0  0  0  0
 41 21  1  0  0  0  0
 42 21  1  0  0  0  0
 43 22  1  0  0  0  0
 45 24  1  0  0  0  0
 46 24  1  0  0  0  0
 47 25  1  0  0  0  0
 49 27  1  0  0  0  0
 51 28  1  0  0  0  0
 54 30  1  0  0  0  0
 56 31  1  0  0  0  0
M  END
>  <Pose>
1

>  <Score>
-6.88

$$$$
