
 OpenBabel03212208413D

 47 50  0  0  1  0  0  0  0  0999 V2000
   12.9300   34.0910   70.9590 B   0  0  0  0  0  0  0  0  0  0  0  0
   14.3670   32.8890   71.3840 C   0  0  0  0  0  0  0  0  0  0  0  0
   15.6280   33.1290   70.9680 C   0  0  0  0  0  0  0  0  0  0  0  0
   16.6730   32.1970   71.2350 C   0  0  0  0  0  0  0  0  0  0  0  0
   16.3530   31.0700   71.9080 C   0  0  0  0  0  0  0  0  0  0  0  0
   15.0530   30.8370   72.3150 C   0  0  0  0  0  0  0  0  0  0  0  0
   14.0580   31.7310   72.0640 C   0  0  0  0  0  0  0  0  0  0  0  0
   17.8630   32.4020   70.3850 C   0  0  0  0  0  0  0  0  0  0  0  0
   19.1320   32.6410   70.9400 N   0  0  2  0  0  4  0  0  0  0  0  0
   20.1710   31.7510   70.8050 C   0  0  0  0  0  0  0  0  0  0  0  0
   21.4220   32.2780   71.3460 N   0  0  2  0  0  0  0  0  0  0  0  0
   21.1980   32.5820   72.7500 C   0  0  0  0  0  0  0  0  0  0  0  0
   20.0860   33.4900   72.9400 N   0  0  2  0  0  0  0  0  0  0  0  0
   18.8800   33.0380   72.3680 C   0  0  0  0  0  0  0  0  0  0  0  0
   20.4540   34.7730   72.3770 C   0  0  0  0  0  0  0  0  0  0  0  0
   20.7410   34.5280   70.9170 C   0  0  2  0  0  0  0  0  0  0  0  0
   19.5170   33.9510   70.3080 C   0  0  0  0  0  0  0  0  0  0  0  0
   21.8510   33.5000   70.7130 C   0  0  0  0  0  0  0  0  0  0  0  0
   15.9400   34.2530   70.2890 O   0  0  0  0  0  0  0  0  0  0  0  0
   15.9790   35.5650   70.8850 C   0  0  0  0  0  0  0  0  0  0  0  0
   15.9910   36.7110   69.9800 C   0  0  0  0  0  0  0  0  0  0  0  0
   16.9780   37.1470   69.4050 O   0  0  0  0  0  0  0  0  0  0  0  0
   14.7670   37.3390   69.7260 O   0  0  0  0  0  0  0  0  0  0  0  0
   13.6060   36.6380   69.3650 C   0  0  0  0  0  0  0  0  0  0  0  0
   17.1120   30.3120   72.0920 H   0  0  0  0  0  0  0  0  0  0  0  0
   14.8360   29.8860   72.8500 H   0  0  0  0  0  0  0  0  0  0  0  0
   13.0530   31.5700   72.4210 H   0  0  0  0  0  0  0  0  0  0  0  0
   17.6690   32.7860   69.3790 H   0  0  0  0  0  0  0  0  0  0  0  0
   18.0850   31.2190   70.0050 H   0  0  0  0  0  0  0  0  0  0  0  0
   20.2840   31.3900   69.7800 H   0  0  0  0  0  0  0  0  0  0  0  0
   19.9480   30.8510   71.4360 H   0  0  0  0  0  0  0  0  0  0  0  0
   22.0960   33.1300   73.1130 H   0  0  0  0  0  0  0  0  0  0  0  0
   21.1060   31.6680   73.3540 H   0  0  0  0  0  0  0  0  0  0  0  0
   18.4610   32.1990   72.9350 H   0  0  0  0  0  0  0  0  0  0  0  0
   18.1600   33.8970   72.2910 H   0  0  0  0  0  0  0  0  0  0  0  0
   19.5360   35.4210   72.4040 H   0  0  0  0  0  0  0  0  0  0  0  0
   21.3130   35.2280   72.8640 H   0  0  0  0  0  0  0  0  0  0  0  0
   20.9650   35.4660   70.3610 H   0  0  0  0  0  0  0  0  0  0  0  0
   18.6110   34.5930   70.3870 H   0  0  0  0  0  0  0  0  0  0  0  0
   19.6670   33.6680   69.2260 H   0  0  0  0  0  0  0  0  0  0  0  0
   22.7320   33.8810   71.2320 H   0  0  0  0  0  0  0  0  0  0  0  0
   21.9600   33.3830   69.6260 H   0  0  0  0  0  0  0  0  0  0  0  0
   16.8140   35.5700   71.6550 H   0  0  0  0  0  0  0  0  0  0  0  0
   15.0370   35.6720   71.5160 H   0  0  0  0  0  0  0  0  0  0  0  0
   12.7040   37.2670   69.5180 H   0  0  0  0  0  0  0  0  0  0  0  0
   13.5560   35.6960   69.9550 H   0  0  0  0  0  0  0  0  0  0  0  0
   13.7270   36.4010   68.2710 H   0  0  0  0  0  0  0  0  0  0  0  0
  1  2  1  0  0  0  0
  2  7  1  0  0  0  0
  3  4  1  0  0  0  0
  3  2  2  0  0  0  0
  4  5  2  0  0  0  0
  5 25  1  0  0  0  0
  5  6  1  0  0  0  0
  6 26  1  0  0  0  0
  7  6  2  0  0  0  0
  7 27  1  0  0  0  0
  8  4  1  0  0  0  0
  9  8  1  6  0  0  0
  9 14  1  0  0  0  0
 10  9  1  0  0  0  0
 10 11  1  0  0  0  0
 10 31  1  0  0  0  0
 11 18  1  6  0  0  0
 11 12  1  0  0  0  0
 12 13  1  0  0  0  0
 12 32  1  0  0  0  0
 12 33  1  0  0  0  0
 13 14  1  6  0  0  0
 14 34  1  0  0  0  0
 15 36  1  0  0  0  0
 15 37  1  0  0  0  0
 15 13  1  0  0  0  0
 16 38  1  6  0  0  0
 16 15  1  0  0  0  0
 17 39  1  0  0  0  0
 17 16  1  0  0  0  0
 17  9  1  0  0  0  0
 18 16  1  0  0  0  0
 18 41  1  0  0  0  0
 19 20  1  0  0  0  0
 19  3  1  0  0  0  0
 20 44  1  0  0  0  0
 20 43  1  0  0  0  0
 21 20  1  0  0  0  0
 22 21  2  0  0  0  0
 23 21  1  0  0  0  0
 24 45  1  0  0  0  0
 24 23  1  0  0  0  0
 24 46  1  0  0  0  0
 28  8  1  0  0  0  0
 29  8  1  0  0  0  0
 30 10  1  0  0  0  0
 35 14  1  0  0  0  0
 40 17  1  0  0  0  0
 42 18  1  0  0  0  0
 47 24  1  0  0  0  0
M  END
>  <Pose>
1

>  <Score>
-5.37

$$$$
