
 OpenBabel03212208413D

 52 55  0  0  0  0  0  0  0  0999 V2000
   26.1570   34.6910   69.0440 B   0  0  0  0  0  0  0  0  0  0  0  0
   24.3470   35.2390   68.8520 C   0  0  0  0  0  0  0  0  0  0  0  0
   24.0810   36.5950   68.7500 C   0  0  0  0  0  0  0  0  0  0  0  0
   22.7580   36.9690   68.6170 C   0  0  0  0  0  0  0  0  0  0  0  0
   21.7550   36.0350   68.5870 C   0  0  0  0  0  0  0  0  0  0  0  0
   21.9980   34.6650   68.6860 C   0  0  0  0  0  0  0  0  0  0  0  0
   23.3230   34.3110   68.8190 C   0  0  0  0  0  0  0  0  0  0  0  0
   20.8950   33.7290   68.6260 C   0  0  0  0  0  0  0  0  0  0  0  0
   20.5560   33.0030   69.6360 N   0  0  0  0  0  0  0  0  0  0  0  0
   19.5130   32.0930   69.6240 N   0  0  0  0  0  0  0  0  0  0  0  0
   18.3530   32.3140   70.4170 C   0  0  0  0  0  0  0  0  0  0  0  0
   17.6240   33.4050   70.2460 N   0  0  0  0  0  4  0  0  0  0  0  0
   16.4990   33.6800   70.9290 C   0  0  0  0  0  0  0  0  0  0  0  0
   16.1090   32.7670   71.8450 N   0  0  0  0  0  0  0  0  0  0  0  0
   16.8160   31.6280   72.0680 C   0  0  0  0  0  0  0  0  0  0  0  0
   17.9420   31.4190   71.3400 N   0  0  0  0  0  0  0  0  0  0  0  0
   16.3890   30.6760   73.0160 N   0  0  0  0  0  0  0  0  0  0  0  0
   15.1400   30.8260   73.7180 C   0  0  0  0  0  0  0  0  0  0  0  0
   14.3920   29.5030   73.4990 C   0  0  0  0  0  0  0  0  0  0  0  0
   15.2120   28.4570   73.8710 O   0  0  0  0  0  0  0  0  0  0  0  0
   16.2670   28.3190   72.9700 C   0  0  0  0  0  0  0  0  0  0  0  0
   17.1940   29.5120   73.2850 C   0  0  0  0  0  0  0  0  0  0  0  0
   15.7370   34.8780   70.7040 N   0  0  0  0  0  0  0  0  0  0  0  0
   16.3800   36.1350   70.4500 C   0  0  0  0  0  0  0  0  0  0  0  0
   15.5150   37.2420   69.9840 C   0  0  0  0  0  0  0  0  0  0  0  0
   14.1580   37.0420   70.1960 O   0  0  0  0  0  0  0  0  0  0  0  0
   13.7400   35.7910   69.7650 C   0  0  0  0  0  0  0  0  0  0  0  0
   14.3070   34.7850   70.7370 C   0  0  0  0  0  0  0  0  0  0  0  0
   20.4170   36.4210   68.4540 O   0  0  0  0  0  0  0  0  0  0  0  0
   25.0920   37.5540   68.7790 O   0  0  0  0  0  0  0  0  0  0  0  0
   22.5670   38.0450   68.5390 H   0  0  0  0  0  0  0  0  0  0  0  0
   23.5310   33.2330   68.9000 H   0  0  0  0  0  0  0  0  0  0  0  0
   20.3320   33.6280   67.7120 H   0  0  0  0  0  0  0  0  0  0  0  0
   19.5720   31.2500   69.0420 H   0  0  0  0  0  0  0  0  0  0  0  0
   15.3310   30.9600   74.8020 H   0  0  0  0  0  0  0  0  0  0  0  0
   14.5320   31.6670   73.3000 H   0  0  0  0  0  0  0  0  0  0  0  0
   13.4560   29.5450   74.0840 H   0  0  0  0  0  0  0  0  0  0  0  0
   14.1550   29.4650   72.4060 H   0  0  0  0  0  0  0  0  0  0  0  0
   15.8590   28.5300   71.9370 H   0  0  0  0  0  0  0  0  0  0  0  0
   16.7730   27.3600   73.0450 H   0  0  0  0  0  0  0  0  0  0  0  0
   17.3450   29.4680   74.4020 H   0  0  0  0  0  0  0  0  0  0  0  0
   18.1330   29.4650   72.7250 H   0  0  0  0  0  0  0  0  0  0  0  0
   16.9260   36.4130   71.3940 H   0  0  0  0  0  0  0  0  0  0  0  0
   17.1640   35.9410   69.6540 H   0  0  0  0  0  0  0  0  0  0  0  0
   15.7040   37.4670   68.9030 H   0  0  0  0  0  0  0  0  0  0  0  0
   15.7960   38.1710   70.5430 H   0  0  0  0  0  0  0  0  0  0  0  0
   12.6470   35.7950   69.7270 H   0  0  0  0  0  0  0  0  0  0  0  0
   14.1690   35.5150   68.7650 H   0  0  0  0  0  0  0  0  0  0  0  0
   13.9450   33.7890   70.3700 H   0  0  0  0  0  0  0  0  0  0  0  0
   13.9020   34.9170   71.7630 H   0  0  0  0  0  0  0  0  0  0  0  0
   19.9610   36.2710   67.5580 H   0  0  0  0  0  0  0  0  0  0  0  0
   24.9970   38.4800   68.3910 H   0  0  0  0  0  0  0  0  0  0  0  0
  2  1  1  0  0  0  0
  3 30  1  0  0  0  0
  3  2  2  0  0  0  0
  4  3  1  0  0  0  0
  5  4  2  0  0  0  0
  5  6  1  0  0  0  0
  6  7  2  0  0  0  0
  7  2  1  0  0  0  0
  7 32  1  0  0  0  0
  8  6  1  0  0  0  0
  8  9  2  0  0  0  0
 10  9  1  0  0  0  0
 10 11  1  0  0  0  0
 11 16  1  0  0  0  0
 12 11  2  0  0  0  0
 12 13  2  0  0  0  0
 13 14  1  0  0  0  0
 14 15  2  0  0  0  0
 15 17  1  0  0  0  0
 16 15  1  0  0  0  0
 17 22  1  0  0  0  0
 17 18  1  0  0  0  0
 18 35  1  0  0  0  0
 19 18  1  0  0  0  0
 19 20  1  0  0  0  0
 19 37  1  0  0  0  0
 21 40  1  0  0  0  0
 21 22  1  0  0  0  0
 21 20  1  0  0  0  0
 22 41  1  0  0  0  0
 23 28  1  0  0  0  0
 23 13  1  0  0  0  0
 24 23  1  0  0  0  0
 24 43  1  0  0  0  0
 25 26  1  0  0  0  0
 25 24  1  0  0  0  0
 25 46  1  0  0  0  0
 27 26  1  0  0  0  0
 27 28  1  0  0  0  0
 28 50  1  0  0  0  0
 29  5  1  0  0  0  0
 31  4  1  0  0  0  0
 33  8  1  0  0  0  0
 34 10  1  0  0  0  0
 36 18  1  0  0  0  0
 38 19  1  0  0  0  0
 39 21  1  0  0  0  0
 42 22  1  0  0  0  0
 44 24  1  0  0  0  0
 45 25  1  0  0  0  0
 47 27  1  0  0  0  0
 48 27  1  0  0  0  0
 49 28  1  0  0  0  0
 51 29  1  0  0  0  0
 52 30  1  0  0  0  0
M  END
>  <Pose>
1

>  <Score>
-6.96

$$$$
