
 OpenBabel03212208413D

 52 55  0  0  0  0  0  0  0  0999 V2000
   14.8090   28.1890   76.2140 B   0  0  0  0  0  0  0  0  0  0  0  0
   15.6910   27.3880   74.7260 C   0  0  0  0  0  0  0  0  0  0  0  0
   15.6350   26.0200   74.5300 C   0  0  0  0  0  0  0  0  0  0  0  0
   16.2850   25.4620   73.4400 C   0  0  0  0  0  0  0  0  0  0  0  0
   16.9770   26.2750   72.5710 C   0  0  0  0  0  0  0  0  0  0  0  0
   17.0100   27.6420   72.8010 C   0  0  0  0  0  0  0  0  0  0  0  0
   16.3750   28.2210   73.8730 C   0  0  0  0  0  0  0  0  0  0  0  0
   16.4420   29.6470   74.0770 C   0  0  0  0  0  0  0  0  0  0  0  0
   16.0010   30.5300   73.2430 N   0  0  0  0  0  0  0  0  0  0  0  0
   16.1120   31.9180   73.5330 N   0  0  0  0  0  0  0  0  0  0  0  0
   16.5450   32.8480   72.5650 C   0  0  0  0  0  0  0  0  0  0  0  0
   15.6380   33.4990   71.8300 N   0  0  0  0  0  4  0  0  0  0  0  0
   15.9910   34.4010   70.8760 C   0  0  0  0  0  0  0  0  0  0  0  0
   17.2950   34.6470   70.6690 N   0  0  0  0  0  0  0  0  0  0  0  0
   18.2290   34.0100   71.3910 C   0  0  0  0  0  0  0  0  0  0  0  0
   17.8360   33.1100   72.3410 N   0  0  0  0  0  0  0  0  0  0  0  0
   19.6170   34.2660   71.1790 N   0  0  0  0  0  0  0  0  0  0  0  0
   20.3730   35.2370   71.9330 C   0  0  0  0  0  0  0  0  0  0  0  0
   21.2320   36.0810   71.0160 C   0  0  0  0  0  0  0  0  0  0  0  0
   21.0760   35.7420   69.6810 O   0  0  0  0  0  0  0  0  0  0  0  0
   21.3890   34.3790   69.5160 C   0  0  0  0  0  0  0  0  0  0  0  0
   20.3120   33.5200   70.1500 C   0  0  0  0  0  0  0  0  0  0  0  0
   14.9550   35.0340   70.1600 N   0  0  0  0  0  0  0  0  0  0  0  0
   13.7900   34.2770   69.7890 C   0  0  0  0  0  0  0  0  0  0  0  0
   12.6020   35.0480   70.3850 C   0  0  0  0  0  0  0  0  0  0  0  0
   12.6140   36.2930   69.7550 O   0  0  0  0  0  0  0  0  0  0  0  0
   13.7020   37.0660   70.1460 C   0  0  0  0  0  0  0  0  0  0  0  0
   15.0240   36.4240   69.7780 C   0  0  0  0  0  0  0  0  0  0  0  0
   17.6130   25.6760   71.4950 O   0  0  0  0  0  0  0  0  0  0  0  0
   14.9380   25.2070   75.4060 O   0  0  0  0  0  0  0  0  0  0  0  0
   16.2290   24.3900   73.3020 H   0  0  0  0  0  0  0  0  0  0  0  0
   17.5710   28.2220   72.0800 H   0  0  0  0  0  0  0  0  0  0  0  0
   16.8890   30.0510   74.9850 H   0  0  0  0  0  0  0  0  0  0  0  0
   15.8700   32.2740   74.4800 H   0  0  0  0  0  0  0  0  0  0  0  0
   21.0800   34.6550   72.5940 H   0  0  0  0  0  0  0  0  0  0  0  0
   19.7380   35.8910   72.5630 H   0  0  0  0  0  0  0  0  0  0  0  0
   22.3230   35.9720   71.2490 H   0  0  0  0  0  0  0  0  0  0  0  0
   20.9500   37.1650   71.1040 H   0  0  0  0  0  0  0  0  0  0  0  0
   21.4370   34.1990   68.4190 H   0  0  0  0  0  0  0  0  0  0  0  0
   22.3930   34.1440   69.9730 H   0  0  0  0  0  0  0  0  0  0  0  0
   20.7690   32.6420   70.6330 H   0  0  0  0  0  0  0  0  0  0  0  0
   19.5900   33.1980   69.3440 H   0  0  0  0  0  0  0  0  0  0  0  0
   13.8370   33.2530   70.2160 H   0  0  0  0  0  0  0  0  0  0  0  0
   13.7150   34.2620   68.6770 H   0  0  0  0  0  0  0  0  0  0  0  0
   11.6470   34.5580   70.2150 H   0  0  0  0  0  0  0  0  0  0  0  0
   12.8520   35.1560   71.4770 H   0  0  0  0  0  0  0  0  0  0  0  0
   13.6700   37.3590   71.2080 H   0  0  0  0  0  0  0  0  0  0  0  0
   13.6470   38.0020   69.5370 H   0  0  0  0  0  0  0  0  0  0  0  0
   15.1220   36.4690   68.6620 H   0  0  0  0  0  0  0  0  0  0  0  0
   15.8390   36.9680   70.2830 H   0  0  0  0  0  0  0  0  0  0  0  0
   17.3680   25.8370   70.5280 H   0  0  0  0  0  0  0  0  0  0  0  0
   14.0000   25.4800   75.6690 H   0  0  0  0  0  0  0  0  0  0  0  0
  2  1  1  0  0  0  0
  3  2  1  0  0  0  0
  3 30  1  0  0  0  0
  4  3  2  0  0  0  0
  5  6  2  0  0  0  0
  5  4  1  0  0  0  0
  6  7  1  0  0  0  0
  7  8  1  0  0  0  0
  7  2  2  0  0  0  0
  8 33  1  0  0  0  0
  9 10  1  0  0  0  0
  9  8  2  0  0  0  0
 10 34  1  0  0  0  0
 11 10  1  0  0  0  0
 12 11  2  0  0  0  0
 13 12  2  0  0  0  0
 14 13  1  0  0  0  0
 14 15  2  0  0  0  0
 15 16  1  0  0  0  0
 16 11  1  0  0  0  0
 17 15  1  0  0  0  0
 17 18  1  0  0  0  0
 18 36  1  0  0  0  0
 18 35  1  0  0  0  0
 19 38  1  0  0  0  0
 19 37  1  0  0  0  0
 19 18  1  0  0  0  0
 20 19  1  0  0  0  0
 21 20  1  0  0  0  0
 21 40  1  0  0  0  0
 21 22  1  0  0  0  0
 22 41  1  0  0  0  0
 22 17  1  0  0  0  0
 23 13  1  0  0  0  0
 24 23  1  0  0  0  0
 24 43  1  0  0  0  0
 24 25  1  0  0  0  0
 25 46  1  0  0  0  0
 26 27  1  0  0  0  0
 26 25  1  0  0  0  0
 27 47  1  0  0  0  0
 28 27  1  0  0  0  0
 28 23  1  0  0  0  0
 28 50  1  0  0  0  0
 29  5  1  0  0  0  0
 30 52  1  0  0  0  0
 31  4  1  0  0  0  0
 32  6  1  0  0  0  0
 39 21  1  0  0  0  0
 42 22  1  0  0  0  0
 44 24  1  0  0  0  0
 45 25  1  0  0  0  0
 48 27  1  0  0  0  0
 49 28  1  0  0  0  0
 51 29  1  0  0  0  0
M  END
>  <Pose>
1

>  <Score>
-7.44

$$$$
