
 OpenBabel03212208413D

 46 49  0  0  1  0  0  0  0  0999 V2000
   20.8510   24.8540   72.5780 B   0  0  0  0  0  0  0  0  0  0  0  0
   19.3040   25.8310   73.1150 C   0  0  0  0  0  0  0  0  0  0  0  0
   19.4390   26.7950   74.1070 C   0  0  0  0  0  0  0  0  0  0  0  0
   18.3160   27.4840   74.4740 C   0  0  0  0  0  0  0  0  0  0  0  0
   17.0620   27.2930   73.9340 C   0  0  0  0  0  0  0  0  0  0  0  0
   16.9690   26.3150   72.9400 C   0  0  0  0  0  0  0  0  0  0  0  0
   18.0750   25.5930   72.5350 C   0  0  0  0  0  0  0  0  0  0  0  0
   15.9050   28.0170   74.3290 N   0  0  0  0  0  0  0  0  0  0  0  0
   15.4390   29.2150   73.6720 C   0  0  0  0  0  0  0  0  0  0  0  0
   13.9420   29.1120   73.8630 C   0  0  1  0  0  0  0  0  0  0  0  0
   13.8590   28.7180   75.3270 C   0  0  0  0  0  0  0  0  0  0  0  0
   14.9980   27.7630   75.3870 C   0  0  0  0  0  0  0  0  0  0  0  0
   15.1240   26.8700   76.2520 O   0  0  0  0  0  0  0  0  0  0  0  0
   13.2570   30.3950   73.5980 C   0  0  0  0  0  0  0  0  0  0  0  0
   12.8360   31.1140   74.5350 O   0  0  0  0  0  0  0  0  0  0  0  0
   13.0770   30.8100   72.2620 N   0  0  0  0  0  0  0  0  0  0  0  0
   14.1380   31.4750   71.5450 C   0  0  0  0  0  0  0  0  0  0  0  0
   13.7360   32.8530   71.1450 C   0  0  0  0  0  0  0  0  0  0  0  0
   14.5410   33.8750   70.7600 N   0  0  0  0  0  0  0  0  0  0  0  0
   13.7900   34.9530   70.4780 C   0  0  0  0  0  0  0  0  0  0  0  0
   12.5090   34.5640   70.7000 N   0  0  0  0  0  0  0  0  0  0  0  0
   12.4740   33.3090   71.0990 N   0  0  0  0  0  0  0  0  0  0  0  0
   14.6500   36.1040   70.0490 C   0  0  0  0  0  0  0  0  0  0  0  0
   16.0260   35.6550   70.4860 C   0  0  0  0  0  0  0  0  0  0  0  0
   15.9550   34.1450   70.5680 C   0  0  0  0  0  0  0  0  0  0  0  0
   20.7790   27.0270   74.7130 C   0  0  0  0  0  0  0  0  0  0  0  0
   18.4390   28.2410   75.2570 H   0  0  0  0  0  0  0  0  0  0  0  0
   16.0390   26.0820   72.4480 H   0  0  0  0  0  0  0  0  0  0  0  0
   18.0210   24.8350   71.7680 H   0  0  0  0  0  0  0  0  0  0  0  0
   15.8740   30.0820   74.2240 H   0  0  0  0  0  0  0  0  0  0  0  0
   15.7150   29.2480   72.5980 H   0  0  0  0  0  0  0  0  0  0  0  0
   13.5920   28.2790   73.2310 H   0  0  0  0  0  0  0  0  0  0  0  0
   12.8850   28.2030   75.4550 H   0  0  0  0  0  0  0  0  0  0  0  0
   13.9860   29.5760   75.9880 H   0  0  0  0  0  0  0  0  0  0  0  0
   12.1770   30.6410   71.7790 H   0  0  0  0  0  0  0  0  0  0  0  0
   15.0740   31.5310   72.1290 H   0  0  0  0  0  0  0  0  0  0  0  0
   14.3980   30.9010   70.6140 H   0  0  0  0  0  0  0  0  0  0  0  0
   14.5670   36.2330   68.9600 H   0  0  0  0  0  0  0  0  0  0  0  0
   14.4200   37.0220   70.6300 H   0  0  0  0  0  0  0  0  0  0  0  0
   16.3290   36.1110   71.4530 H   0  0  0  0  0  0  0  0  0  0  0  0
   16.7480   36.0090   69.7310 H   0  0  0  0  0  0  0  0  0  0  0  0
   16.5540   33.7350   71.3980 H   0  0  0  0  0  0  0  0  0  0  0  0
   16.3490   33.7330   69.6170 H   0  0  0  0  0  0  0  0  0  0  0  0
   20.6910   27.7470   75.5470 H   0  0  0  0  0  0  0  0  0  0  0  0
   21.2570   26.0750   75.0170 H   0  0  0  0  0  0  0  0  0  0  0  0
   21.3780   27.5530   73.9250 H   0  0  0  0  0  0  0  0  0  0  0  0
  1  2  1  0  0  0  0
  2  3  1  0  0  0  0
  3  4  2  0  0  0  0
  3 26  1  0  0  0  0
  4 27  1  0  0  0  0
  5  8  1  0  0  0  0
  5  4  1  0  0  0  0
  6  5  2  0  0  0  0
  7  6  1  0  0  0  0
  7  2  2  0  0  0  0
  8 12  1  0  0  0  0
  9 10  1  0  0  0  0
  9 30  1  0  0  0  0
  9  8  1  0  0  0  0
 10 32  1  6  0  0  0
 10 11  1  0  0  0  0
 11 12  1  0  0  0  0
 11 33  1  0  0  0  0
 11 34  1  0  0  0  0
 12 13  2  0  0  0  0
 14 10  1  0  0  0  0
 14 15  2  0  0  0  0
 16 14  1  0  0  0  0
 17 36  1  0  0  0  0
 17 16  1  0  0  0  0
 18 17  1  0  0  0  0
 19 18  1  0  0  0  0
 20 21  2  0  0  0  0
 20 19  1  0  0  0  0
 21 22  1  0  0  0  0
 22 18  2  0  0  0  0
 23 20  1  0  0  0  0
 23 24  1  0  0  0  0
 23 39  1  0  0  0  0
 24 25  1  0  0  0  0
 24 40  1  0  0  0  0
 25 19  1  0  0  0  0
 25 42  1  0  0  0  0
 26 45  1  0  0  0  0
 26 44  1  0  0  0  0
 28  6  1  0  0  0  0
 29  7  1  0  0  0  0
 31  9  1  0  0  0  0
 35 16  1  0  0  0  0
 37 17  1  0  0  0  0
 38 23  1  0  0  0  0
 41 24  1  0  0  0  0
 43 25  1  0  0  0  0
 46 26  1  0  0  0  0
M  END
>  <Pose>
1

>  <Score>
-6.32

$$$$
