
 OpenBabel03212208413D

 33 36  0  0  1  0  0  0  0  0999 V2000
   17.5740   32.4320   73.1620 B   0  0  0  0  0  0  0  0  0  0  0  0
   19.4300   32.0380   72.9480 C   0  0  0  0  0  0  0  0  0  0  0  0
   20.3210   32.9800   72.4970 C   0  0  0  0  0  0  0  0  0  0  0  0
   21.6490   32.6580   72.3490 C   0  0  0  0  0  0  0  0  0  0  0  0
   22.1260   31.3890   72.6470 C   0  0  0  0  0  0  0  0  0  0  0  0
   21.2510   30.4310   73.0990 C   0  0  0  0  0  0  0  0  0  0  0  0
   19.9010   30.7670   73.2470 C   0  0  0  0  0  0  0  0  0  0  0  0
   19.9030   34.3660   72.1600 C   0  0  1  0  0  0  0  0  0  0  0  0
   20.6940   35.0630   71.2450 C   0  0  1  0  0  0  0  0  0  0  0  0
   21.0010   35.0010   69.7900 C   0  0  0  0  0  0  0  0  0  0  0  0
   19.9860   36.0180   69.4170 N   0  0  0  0  0  0  0  0  0  0  0  0
   18.9310   35.8090   70.1400 C   0  0  2  0  0  0  0  0  0  0  0  0
   19.2060   34.6810   70.9740 C   0  0  2  0  0  0  0  0  0  0  0  0
   18.9510   33.4520   70.1640 C   0  0  0  0  0  0  0  0  0  0  0  0
   18.7400   32.4670   69.5440 N   0  0  0  0  0  0  0  0  0  0  0  0
   17.7110   36.5830   70.0960 N   0  0  0  0  0  0  0  0  0  0  0  0
   22.2780   35.5380   69.5920 O   0  0  0  0  0  0  0  0  0  0  0  0
   22.9850   34.6300   68.8280 C   0  0  0  0  0  0  0  0  0  0  0  0
   21.8770   33.8890   68.0990 C   0  0  0  0  0  0  0  0  0  0  0  0
   20.9180   33.8360   69.1410 O   0  0  0  0  0  0  0  0  0  0  0  0
   20.9130   36.4960   71.6540 C   0  0  0  0  0  0  0  0  0  0  0  0
   21.1010   37.6210   71.9600 N   0  0  0  0  0  0  0  0  0  0  0  0
   22.4070   33.3720   71.9920 H   0  0  0  0  0  0  0  0  0  0  0  0
   23.1610   31.1220   72.5380 H   0  0  0  0  0  0  0  0  0  0  0  0
   21.5990   29.4560   73.3350 H   0  0  0  0  0  0  0  0  0  0  0  0
   19.1730   30.0420   73.6040 H   0  0  0  0  0  0  0  0  0  0  0  0
   19.5210   34.8620   73.0970 H   0  0  0  0  0  0  0  0  0  0  0  0
   17.5190   37.3210   70.8000 H   0  0  0  0  0  0  0  0  0  0  0  0
   17.0030   36.4140   69.3580 H   0  0  0  0  0  0  0  0  0  0  0  0
   23.5110   33.9270   69.5080 H   0  0  0  0  0  0  0  0  0  0  0  0
   23.6900   35.1240   68.1260 H   0  0  0  0  0  0  0  0  0  0  0  0
   21.4940   34.5060   67.2570 H   0  0  0  0  0  0  0  0  0  0  0  0
   22.1730   32.8850   67.7680 H   0  0  0  0  0  0  0  0  0  0  0  0
  2  1  1  0  0  0  0
  2  7  1  0  0  0  0
  3  2  2  0  0  0  0
  4  3  1  0  0  0  0
  4  5  2  0  0  0  0
  5  6  1  0  0  0  0
  6  7  2  0  0  0  0
  6 25  1  0  0  0  0
  7 26  1  0  0  0  0
  8  3  1  0  0  0  0
  8 27  1  1  0  0  0
  9 21  1  1  0  0  0
  9  8  1  0  0  0  0
 10  9  1  0  0  0  0
 11 10  1  0  0  0  0
 11 12  1  0  0  0  0
 12 16  1  6  0  0  0
 12 13  1  0  0  0  0
 13 14  1  6  0  0  0
 13  9  1  0  0  0  0
 13  8  1  0  0  0  0
 15 14  3  0  0  0  0
 16 28  1  0  0  0  0
 17 10  1  0  0  0  0
 18 30  1  0  0  0  0
 18 17  1  0  0  0  0
 19 18  1  0  0  0  0
 19 20  1  0  0  0  0
 20 10  1  0  0  0  0
 21 22  3  0  0  0  0
 23  4  1  0  0  0  0
 24  5  1  0  0  0  0
 29 16  1  0  0  0  0
 31 18  1  0  0  0  0
 32 19  1  0  0  0  0
 33 19  1  0  0  0  0
M  END
>  <Pose>
1

>  <Score>
-4.46

$$$$
