
 OpenBabel03212208413D

 33 36  0  0  1  0  0  0  0  0999 V2000
   14.6470   34.0860   71.0690 B   0  0  0  0  0  0  0  0  0  0  0  0
   14.9070   32.2310   71.5210 C   0  0  0  0  0  0  0  0  0  0  0  0
   16.2070   31.7930   71.6370 C   0  0  0  0  0  0  0  0  0  0  0  0
   16.3660   30.4510   71.9670 C   0  0  0  0  0  0  0  0  0  0  0  0
   15.2910   29.6070   72.1660 C   0  0  0  0  0  0  0  0  0  0  0  0
   13.9910   30.0830   72.0400 C   0  0  0  0  0  0  0  0  0  0  0  0
   13.8240   31.4030   71.7150 C   0  0  0  0  0  0  0  0  0  0  0  0
   17.3410   32.6260   71.4430 N   0  0  0  0  0  0  0  0  0  0  0  0
   18.3230   32.5800   70.4210 C   0  0  0  0  0  0  0  0  0  0  0  0
   18.2710   31.8270   69.4320 O   0  0  0  0  0  0  0  0  0  0  0  0
   19.4150   33.5440   70.6860 C   0  0  2  0  0  0  0  0  0  0  0  0
   20.7310   32.8910   70.9330 C   0  0  1  0  0  0  0  0  0  0  0  0
   21.1930   33.4300   72.1630 O   0  0  0  0  0  0  0  0  0  0  0  0
   20.0170   33.1470   72.9070 C   0  0  1  0  0  0  0  0  0  0  0  0
   19.0690   34.0430   72.1010 C   0  0  2  0  0  0  0  0  0  0  0  0
   17.6600   33.6960   72.3390 C   0  0  0  0  0  0  0  0  0  0  0  0
   16.8630   34.2100   73.1530 O   0  0  0  0  0  0  0  0  0  0  0  0
   19.8300   31.7170   72.5850 C   0  0  0  0  0  0  0  0  0  0  0  0
   20.4440   31.5070   71.4210 C   0  0  0  0  0  0  0  0  0  0  0  0
   21.7370   32.9580   69.8630 C   0  0  0  0  0  0  0  0  0  0  0  0
   21.1180   33.4830   68.7130 O   0  0  0  0  0  0  0  0  0  0  0  0
   17.3820   30.0830   72.0640 H   0  0  0  0  0  0  0  0  0  0  0  0
   15.4360   28.5500   72.4250 H   0  0  0  0  0  0  0  0  0  0  0  0
   13.1690   29.3940   72.2040 H   0  0  0  0  0  0  0  0  0  0  0  0
   12.8290   31.7980   71.6130 H   0  0  0  0  0  0  0  0  0  0  0  0
   19.4460   34.3730   69.9700 H   0  0  0  0  0  0  0  0  0  0  0  0
   20.0870   33.3940   73.9460 H   0  0  0  0  0  0  0  0  0  0  0  0
   19.3370   35.0860   72.2540 H   0  0  0  0  0  0  0  0  0  0  0  0
   19.3130   30.9170   73.1270 H   0  0  0  0  0  0  0  0  0  0  0  0
   20.6840   30.5750   70.9300 H   0  0  0  0  0  0  0  0  0  0  0  0
   22.0870   31.9380   69.5510 H   0  0  0  0  0  0  0  0  0  0  0  0
   22.6260   33.5340   70.1410 H   0  0  0  0  0  0  0  0  0  0  0  0
   20.7580   32.7310   68.1590 H   0  0  0  0  0  0  0  0  0  0  0  0
  1  2  1  0  0  0  0
  2  3  2  0  0  0  0
  2  7  1  0  0  0  0
  3  4  1  0  0  0  0
  4 22  1  0  0  0  0
  4  5  2  0  0  0  0
  5 23  1  0  0  0  0
  6  5  1  0  0  0  0
  6 24  1  0  0  0  0
  7  6  2  0  0  0  0
  8  3  1  0  0  0  0
  8 16  1  0  0  0  0
  9 11  1  0  0  0  0
  9  8  1  0  0  0  0
 10  9  2  0  0  0  0
 11 26  1  6  0  0  0
 11 12  1  0  0  0  0
 11 15  1  0  0  0  0
 12 20  1  6  0  0  0
 12 19  1  0  0  0  0
 12 13  1  0  0  0  0
 13 14  1  0  0  0  0
 14 27  1  1  0  0  0
 15 28  1  1  0  0  0
 15 16  1  0  0  0  0
 15 14  1  0  0  0  0
 16 17  2  0  0  0  0
 18 14  1  0  0  0  0
 18 29  1  0  0  0  0
 19 18  2  0  0  0  0
 20 32  1  0  0  0  0
 21 20  1  0  0  0  0
 25  7  1  0  0  0  0
 30 19  1  0  0  0  0
 31 20  1  0  0  0  0
 33 21  1  0  0  0  0
M  END
>  <Pose>
1

>  <Score>
-4.79

$$$$
