
 OpenBabel03212208413D

 40 43  0  0  0  0  0  0  0  0999 V2000
   14.0980   37.2340   69.9900 B   0  0  0  0  0  0  0  0  0  0  0  0
   13.5780   35.4640   70.4810 C   0  0  0  0  0  0  0  0  0  0  0  0
   14.3370   34.4550   70.9780 C   0  0  0  0  0  0  0  0  0  0  0  0
   13.5280   33.3550   71.1610 N   0  0  0  0  0  0  0  0  0  0  0  0
   12.3260   33.7070   70.7850 N   0  0  0  0  0  0  0  0  0  0  0  0
   12.2660   34.9630   70.3590 C   0  0  0  0  0  0  0  0  0  0  0  0
   13.9310   32.0710   71.6720 C   0  0  0  0  0  0  0  0  0  0  0  0
   15.7750   34.4500   71.3180 C   0  0  0  0  0  0  0  0  0  0  0  0
   16.5680   34.9670   70.4450 O   0  0  0  0  0  0  0  0  0  0  0  0
   16.2910   33.9280   72.5000 N   0  0  0  0  0  0  0  0  0  0  0  0
   17.3380   32.9770   72.5910 C   0  0  0  0  0  0  0  0  0  0  0  0
   18.6490   33.4790   72.7230 C   0  0  0  0  0  0  0  0  0  0  0  0
   19.1060   34.7590   72.7800 N   0  0  0  0  0  0  0  0  0  0  0  0
   20.3970   34.6970   72.9040 O   0  0  0  0  0  0  0  0  0  0  0  0
   20.7950   33.4640   72.9300 N   0  0  0  0  0  0  0  0  0  0  0  0
   19.7360   32.6510   72.8190 C   0  0  0  0  0  0  0  0  0  0  0  0
   19.6230   31.2760   72.7940 C   0  0  0  0  0  0  0  0  0  0  0  0
   18.3370   30.7880   72.6650 C   0  0  0  0  0  0  0  0  0  0  0  0
   17.2230   31.6200   72.5660 C   0  0  0  0  0  0  0  0  0  0  0  0
   20.7300   30.4130   72.8900 N   0  0  0  0  0  0  0  0  0  0  0  0
   21.6630   30.3520   71.7680 C   0  0  0  0  0  0  0  0  0  0  0  0
   22.6840   29.2640   71.9540 C   0  0  0  0  0  0  0  0  0  0  0  0
   22.2310   28.1070   72.4960 O   0  0  0  0  0  0  0  0  0  0  0  0
   21.1890   28.1620   73.3750 C   0  0  0  0  0  0  0  0  0  0  0  0
   21.0940   29.5500   73.9730 C   0  0  0  0  0  0  0  0  0  0  0  0
   11.4480   35.5440   69.9900 H   0  0  0  0  0  0  0  0  0  0  0  0
   14.5010   32.1950   72.6210 H   0  0  0  0  0  0  0  0  0  0  0  0
   14.5940   31.5730   70.9430 H   0  0  0  0  0  0  0  0  0  0  0  0
   13.0400   31.4450   71.8160 H   0  0  0  0  0  0  0  0  0  0  0  0
   15.8320   34.2840   73.3920 H   0  0  0  0  0  0  0  0  0  0  0  0
   18.2240   29.7130   72.6430 H   0  0  0  0  0  0  0  0  0  0  0  0
   16.2560   31.1720   72.4690 H   0  0  0  0  0  0  0  0  0  0  0  0
   21.1320   30.1500   70.8130 H   0  0  0  0  0  0  0  0  0  0  0  0
   22.2120   31.3160   71.6550 H   0  0  0  0  0  0  0  0  0  0  0  0
   23.0870   29.0300   70.9290 H   0  0  0  0  0  0  0  0  0  0  0  0
   23.5570   29.7100   72.5010 H   0  0  0  0  0  0  0  0  0  0  0  0
   20.2420   27.9860   72.8000 H   0  0  0  0  0  0  0  0  0  0  0  0
   21.2510   27.4180   74.2030 H   0  0  0  0  0  0  0  0  0  0  0  0
   22.1510   29.8450   74.2540 H   0  0  0  0  0  0  0  0  0  0  0  0
   20.5250   29.6000   74.8820 H   0  0  0  0  0  0  0  0  0  0  0  0
  1  2  1  0  0  0  0
  2  3  2  0  0  0  0
  3  4  1  0  0  0  0
  3  8  1  0  0  0  0
  4  7  1  0  0  0  0
  5  4  1  0  0  0  0
  6  2  1  0  0  0  0
  6  5  2  0  0  0  0
  7 29  1  0  0  0  0
  7 27  1  0  0  0  0
  8 10  1  0  0  0  0
  9  8  2  0  0  0  0
 10 11  1  0  0  0  0
 10 30  1  0  0  0  0
 11 12  1  0  0  0  0
 12 13  2  0  0  0  0
 12 16  1  0  0  0  0
 13 14  1  0  0  0  0
 14 15  1  0  0  0  0
 16 15  2  0  0  0  0
 17 16  1  0  0  0  0
 17 20  1  0  0  0  0
 18 17  2  0  0  0  0
 19 11  2  0  0  0  0
 19 18  1  0  0  0  0
 20 25  1  0  0  0  0
 21 22  1  0  0  0  0
 21 20  1  0  0  0  0
 22 23  1  0  0  0  0
 22 36  1  0  0  0  0
 23 24  1  0  0  0  0
 24 25  1  0  0  0  0
 24 38  1  0  0  0  0
 25 39  1  0  0  0  0
 25 40  1  0  0  0  0
 26  6  1  0  0  0  0
 28  7  1  0  0  0  0
 31 18  1  0  0  0  0
 32 19  1  0  0  0  0
 33 21  1  0  0  0  0
 34 21  1  0  0  0  0
 35 22  1  0  0  0  0
 37 24  1  0  0  0  0
M  END
>  <Pose>
1

>  <Score>
-6.80

$$$$
