
 OpenBabel03212208413D

 54 57  0  0  0  0  0  0  0  0999 V2000
   12.9360   36.2220   69.5530 B   0  0  0  0  0  0  0  0  0  0  0  0
   13.7440   34.7990   70.5300 C   0  0  0  0  0  0  0  0  0  0  0  0
   15.0600   34.8710   70.9310 C   0  0  0  0  0  0  0  0  0  0  0  0
   15.6430   33.8450   71.6350 C   0  0  0  0  0  0  0  0  0  0  0  0
   14.8730   32.7410   71.9300 C   0  0  0  0  0  0  0  0  0  0  0  0
   13.5380   32.6550   71.5290 C   0  0  0  0  0  0  0  0  0  0  0  0
   12.9560   33.6930   70.8190 C   0  0  0  0  0  0  0  0  0  0  0  0
   15.4880   31.7180   72.6430 O   0  0  0  0  0  0  0  0  0  0  0  0
   15.6330   30.4030   72.1600 C   0  0  0  0  0  0  0  0  0  0  0  0
   17.0350   33.9100   72.0660 C   0  0  0  0  0  0  0  0  0  0  0  0
   17.3890   34.2630   73.2440 N   0  0  0  0  0  0  0  0  0  0  0  0
   18.7150   34.3300   73.6730 N   0  0  0  0  0  0  0  0  0  0  0  0
   19.7990   33.8270   72.9010 C   0  0  0  0  0  0  0  0  0  0  0  0
   20.4820   32.7080   73.2280 N   0  0  0  0  0  4  0  0  0  0  0  0
   21.4980   32.2620   72.4800 C   0  0  0  0  0  0  0  0  0  0  0  0
   21.8350   32.9540   71.3810 N   0  0  0  0  0  0  0  0  0  0  0  0
   21.1920   34.0880   70.9930 C   0  0  0  0  0  0  0  0  0  0  0  0
   20.1690   34.4820   71.8000 N   0  0  0  0  0  0  0  0  0  0  0  0
   21.5500   34.8090   69.8390 N   0  0  0  0  0  0  0  0  0  0  0  0
   22.4600   34.2680   68.8740 C   0  0  0  0  0  0  0  0  0  0  0  0
   23.5610   35.3060   68.6670 C   0  0  0  0  0  0  0  0  0  0  0  0
   22.9410   36.4860   68.2930 O   0  0  0  0  0  0  0  0  0  0  0  0
   22.1830   37.0380   69.3000 C   0  0  0  0  0  0  0  0  0  0  0  0
   21.0040   36.1150   69.6120 C   0  0  0  0  0  0  0  0  0  0  0  0
   22.2150   31.0850   72.8230 N   0  0  0  0  0  0  0  0  0  0  0  0
   22.5360   30.0620   71.8520 C   0  0  0  0  0  0  0  0  0  0  0  0
   22.3210   28.6700   72.4270 C   0  0  0  0  0  0  0  0  0  0  0  0
   22.8590   28.5830   73.7160 O   0  0  0  0  0  0  0  0  0  0  0  0
   22.2550   29.4640   74.5800 C   0  0  0  0  0  0  0  0  0  0  0  0
   22.6550   30.8690   74.1840 C   0  0  0  0  0  0  0  0  0  0  0  0
   15.6860   35.7420   70.7040 H   0  0  0  0  0  0  0  0  0  0  0  0
   12.9450   31.7710   71.7730 H   0  0  0  0  0  0  0  0  0  0  0  0
   11.9240   33.6060   70.5210 H   0  0  0  0  0  0  0  0  0  0  0  0
   14.7280   29.8340   72.4940 H   0  0  0  0  0  0  0  0  0  0  0  0
   15.8000   30.3500   71.0730 H   0  0  0  0  0  0  0  0  0  0  0  0
   16.5020   29.9320   72.6720 H   0  0  0  0  0  0  0  0  0  0  0  0
   17.8210   33.6490   71.3710 H   0  0  0  0  0  0  0  0  0  0  0  0
   18.8810   34.7790   74.6140 H   0  0  0  0  0  0  0  0  0  0  0  0
   22.8930   33.2920   69.2130 H   0  0  0  0  0  0  0  0  0  0  0  0
   21.9360   34.1530   67.8970 H   0  0  0  0  0  0  0  0  0  0  0  0
   24.1600   34.9410   67.8090 H   0  0  0  0  0  0  0  0  0  0  0  0
   24.1900   35.4000   69.5560 H   0  0  0  0  0  0  0  0  0  0  0  0
   22.7560   37.1350   70.2530 H   0  0  0  0  0  0  0  0  0  0  0  0
   21.7950   38.0060   68.9680 H   0  0  0  0  0  0  0  0  0  0  0  0
   20.4180   36.4970   70.4670 H   0  0  0  0  0  0  0  0  0  0  0  0
   20.3960   36.0920   68.6770 H   0  0  0  0  0  0  0  0  0  0  0  0
   23.6480   30.1400   71.6850 H   0  0  0  0  0  0  0  0  0  0  0  0
   21.9720   30.1590   70.9200 H   0  0  0  0  0  0  0  0  0  0  0  0
   21.2440   28.4600   72.4010 H   0  0  0  0  0  0  0  0  0  0  0  0
   22.9240   27.9600   71.8060 H   0  0  0  0  0  0  0  0  0  0  0  0
   21.1570   29.3150   74.5230 H   0  0  0  0  0  0  0  0  0  0  0  0
   22.5640   29.2190   75.6000 H   0  0  0  0  0  0  0  0  0  0  0  0
   23.7480   30.9170   74.2030 H   0  0  0  0  0  0  0  0  0  0  0  0
   22.2380   31.6280   74.8650 H   0  0  0  0  0  0  0  0  0  0  0  0
  1  2  1  0  0  0  0
  2  7  2  0  0  0  0
  2  3  1  0  0  0  0
  3  4  2  0  0  0  0
  4  5  1  0  0  0  0
  4 10  1  0  0  0  0
  5  8  1  0  0  0  0
  6 32  1  0  0  0  0
  6  5  2  0  0  0  0
  7  6  1  0  0  0  0
  9 34  1  0  0  0  0
  9  8  1  0  0  0  0
  9 36  1  0  0  0  0
 10 11  2  0  0  0  0
 11 12  1  0  0  0  0
 12 38  1  0  0  0  0
 13 14  2  0  0  0  0
 13 12  1  0  0  0  0
 15 25  1  0  0  0  0
 15 14  2  0  0  0  0
 16 15  1  0  0  0  0
 17 16  2  0  0  0  0
 17 18  1  0  0  0  0
 18 13  1  0  0  0  0
 19 17  1  0  0  0  0
 20 39  1  0  0  0  0
 20 19  1  0  0  0  0
 21 20  1  0  0  0  0
 21 42  1  0  0  0  0
 22 21  1  0  0  0  0
 22 23  1  0  0  0  0
 23 24  1  0  0  0  0
 23 43  1  0  0  0  0
 24 19  1  0  0  0  0
 24 45  1  0  0  0  0
 25 30  1  0  0  0  0
 26 27  1  0  0  0  0
 26 25  1  0  0  0  0
 27 28  1  0  0  0  0
 28 29  1  0  0  0  0
 29 52  1  0  0  0  0
 30 53  1  0  0  0  0
 30 29  1  0  0  0  0
 30 54  1  0  0  0  0
 31  3  1  0  0  0  0
 33  7  1  0  0  0  0
 35  9  1  0  0  0  0
 37 10  1  0  0  0  0
 40 20  1  0  0  0  0
 41 21  1  0  0  0  0
 44 23  1  0  0  0  0
 46 24  1  0  0  0  0
 47 26  1  0  0  0  0
 48 26  1  0  0  0  0
 49 27  1  0  0  0  0
 50 27  1  0  0  0  0
 51 29  1  0  0  0  0
M  END
>  <Pose>
1

>  <Score>
-6.93

$$$$
