
 OpenBabel03212208413D

 52 55  0  0  1  0  0  0  0  0999 V2000
   26.0480   35.9500   68.3960 B   0  0  0  0  0  0  0  0  0  0  0  0
   24.2270   35.3430   68.2250 C   0  0  0  0  0  0  0  0  0  0  0  0
   23.6590   34.6110   69.2400 C   0  0  0  0  0  0  0  0  0  0  0  0
   22.3590   34.1700   69.1090 C   0  0  0  0  0  0  0  0  0  0  0  0
   21.6400   34.4550   67.9930 C   0  0  0  0  0  0  0  0  0  0  0  0
   22.2230   35.1880   66.9950 C   0  0  0  0  0  0  0  0  0  0  0  0
   23.5360   35.6570   67.0730 C   0  0  0  0  0  0  0  0  0  0  0  0
   21.7690   33.4070   70.2720 C   0  0  0  0  0  0  0  0  0  0  0  0
   21.5330   32.2280   70.0730 O   0  0  0  0  0  0  0  0  0  0  0  0
   21.5970   34.1860   71.4120 N   0  0  0  0  0  0  0  0  0  0  0  0
   20.5290   35.0920   71.6280 C   0  0  1  0  0  0  0  0  0  0  0  0
   20.8960   36.5600   71.4820 C   0  0  0  0  0  0  0  0  0  0  0  0
   19.3320   34.8050   70.8510 C   0  0  0  0  0  0  0  0  0  0  0  0
   19.2870   35.2830   69.6750 O   0  0  0  0  0  0  0  0  0  0  0  0
   18.2430   34.0430   71.3650 N   0  0  0  0  0  0  0  0  0  0  0  0
   17.5500   33.0530   70.5800 C   0  0  0  0  0  0  0  0  0  0  0  0
   17.8960   31.7330   71.3090 C   0  0  0  0  0  0  0  0  0  0  0  0
   17.0720   31.7660   72.5680 C   0  0  2  0  0  0  0  0  0  0  0  0
   17.6300   30.7460   73.4540 N   0  0  0  0  0  0  0  0  0  0  0  0
   17.6510   29.4540   72.8770 C   0  0  0  0  0  0  0  0  0  0  0  0
   16.2650   28.9100   72.5800 C   0  0  0  0  0  0  0  0  0  0  0  0
   15.3290   29.9800   72.1890 C   0  0  0  0  0  0  0  0  0  0  0  0
   14.0480   29.8860   71.7920 N   0  0  0  0  0  0  0  0  0  0  0  0
   13.6090   31.1410   71.5510 C   0  0  0  0  0  0  0  0  0  0  0  0
   14.6290   32.0000   71.8020 N   0  0  0  0  0  0  0  0  0  0  0  0
   15.7140   31.3070   72.1970 C   0  0  0  0  0  0  0  0  0  0  0  0
   17.0730   33.0630   73.2980 C   0  0  0  0  0  0  0  0  0  0  0  0
   17.7980   34.2210   72.7010 C   0  0  0  0  0  0  0  0  0  0  0  0
   24.1960   34.3630   70.1680 H   0  0  0  0  0  0  0  0  0  0  0  0
   20.5900   34.1040   67.9080 H   0  0  0  0  0  0  0  0  0  0  0  0
   21.6770   35.4380   66.0810 H   0  0  0  0  0  0  0  0  0  0  0  0
   24.0020   36.2490   66.2960 H   0  0  0  0  0  0  0  0  0  0  0  0
   22.3350   34.1560   72.1780 H   0  0  0  0  0  0  0  0  0  0  0  0
   20.3190   35.0270   72.7390 H   0  0  0  0  0  0  0  0  0  0  0  0
   19.9770   37.1350   71.1460 H   0  0  0  0  0  0  0  0  0  0  0  0
   21.1200   37.0260   72.5100 H   0  0  0  0  0  0  0  0  0  0  0  0
   21.6870   36.7660   70.7940 H   0  0  0  0  0  0  0  0  0  0  0  0
   17.8930   32.9040   69.5450 H   0  0  0  0  0  0  0  0  0  0  0  0
   16.4670   33.1040   70.5930 H   0  0  0  0  0  0  0  0  0  0  0  0
   17.5080   30.9590   70.6190 H   0  0  0  0  0  0  0  0  0  0  0  0
   18.9590   31.5920   71.4310 H   0  0  0  0  0  0  0  0  0  0  0  0
   17.1820   30.7620   74.4060 H   0  0  0  0  0  0  0  0  0  0  0  0
   18.3090   29.4300   72.0030 H   0  0  0  0  0  0  0  0  0  0  0  0
   18.0920   28.7500   73.6140 H   0  0  0  0  0  0  0  0  0  0  0  0
   15.8360   28.4020   73.4870 H   0  0  0  0  0  0  0  0  0  0  0  0
   16.3790   28.1560   71.7690 H   0  0  0  0  0  0  0  0  0  0  0  0
   12.5980   31.4000   71.2140 H   0  0  0  0  0  0  0  0  0  0  0  0
   14.4720   33.0200   71.6720 H   0  0  0  0  0  0  0  0  0  0  0  0
   16.0190   33.3780   73.4430 H   0  0  0  0  0  0  0  0  0  0  0  0
   17.4730   32.9290   74.3480 H   0  0  0  0  0  0  0  0  0  0  0  0
   18.6720   34.5050   73.3050 H   0  0  0  0  0  0  0  0  0  0  0  0
   17.1360   35.1440   72.6900 H   0  0  0  0  0  0  0  0  0  0  0  0
  2  1  1  0  0  0  0
  2  3  1  0  0  0  0
  3 29  1  0  0  0  0
  4  3  2  0  0  0  0
  4  8  1  0  0  0  0
  5  4  1  0  0  0  0
  6  7  1  0  0  0  0
  6  5  2  0  0  0  0
  7  2  2  0  0  0  0
  8 10  1  0  0  0  0
  9  8  2  0  0  0  0
 10 11  1  0  0  0  0
 10 33  1  0  0  0  0
 11 34  1  1  0  0  0
 12 11  1  0  0  0  0
 12 36  1  0  0  0  0
 13 15  1  0  0  0  0
 13 11  1  0  0  0  0
 14 13  2  0  0  0  0
 15 28  1  0  0  0  0
 16 39  1  0  0  0  0
 16 17  1  0  0  0  0
 16 15  1  0  0  0  0
 17 41  1  0  0  0  0
 17 18  1  0  0  0  0
 18 26  1  6  0  0  0
 18 27  1  0  0  0  0
 18 19  1  0  0  0  0
 19 42  1  0  0  0  0
 20 19  1  0  0  0  0
 20 44  1  0  0  0  0
 21 20  1  0  0  0  0
 21 45  1  0  0  0  0
 22 26  2  0  0  0  0
 22 21  1  0  0  0  0
 23 22  1  0  0  0  0
 24 23  2  0  0  0  0
 24 25  1  0  0  0  0
 25 26  1  0  0  0  0
 27 49  1  0  0  0  0
 27 50  1  0  0  0  0
 28 27  1  0  0  0  0
 28 51  1  0  0  0  0
 30  5  1  0  0  0  0
 31  6  1  0  0  0  0
 32  7  1  0  0  0  0
 35 12  1  0  0  0  0
 37 12  1  0  0  0  0
 38 16  1  0  0  0  0
 40 17  1  0  0  0  0
 43 20  1  0  0  0  0
 46 21  1  0  0  0  0
 47 24  1  0  0  0  0
 48 25  1  0  0  0  0
 52 28  1  0  0  0  0
M  END
>  <Pose>
1

>  <Score>
-6.22

$$$$
