
 OpenBabel03212208413D

 49 52  0  0  0  0  0  0  0  0999 V2000
    7.6390   29.6110   75.3430 B   0  0  0  0  0  0  0  0  0  0  0  0
    9.4400   29.3370   75.8600 C   0  0  0  0  0  0  0  0  0  0  0  0
   10.4550   29.7980   75.0410 C   0  0  0  0  0  0  0  0  0  0  0  0
   11.7890   29.6290   75.3600 C   0  0  0  0  0  0  0  0  0  0  0  0
   12.0940   28.9740   76.5450 C   0  0  0  0  0  0  0  0  0  0  0  0
   11.0800   28.5180   77.3540 C   0  0  0  0  0  0  0  0  0  0  0  0
    9.7460   28.6770   77.0510 C   0  0  0  0  0  0  0  0  0  0  0  0
   12.8790   30.1030   74.5190 C   0  0  0  0  0  0  0  0  0  0  0  0
   14.0610   30.0450   74.9450 O   0  0  0  0  0  0  0  0  0  0  0  0
   12.6780   30.6350   73.2250 N   0  0  0  0  0  0  0  0  0  0  0  0
   13.6160   30.4030   72.1470 C   0  0  0  0  0  0  0  0  0  0  0  0
   14.2180   31.6730   71.6620 C   0  0  0  0  0  0  0  0  0  0  0  0
   13.4590   32.6700   71.5840 O   0  0  0  0  0  0  0  0  0  0  0  0
   15.5660   31.8060   71.2940 N   0  0  0  0  0  0  0  0  0  0  0  0
   16.4570   30.6760   71.1940 C   0  0  0  0  0  0  0  0  0  0  0  0
   17.5230   30.8630   72.2520 C   0  0  0  0  0  0  0  0  0  0  0  0
   18.1140   32.2480   72.1400 C   0  0  0  0  0  0  0  0  0  0  0  0
   17.8250   32.9580   73.3680 N   0  0  0  0  0  0  0  0  0  0  0  0
   18.4240   34.2420   73.4730 C   0  0  0  0  0  0  0  0  0  0  0  0
   19.8100   34.3870   72.9590 C   0  0  0  0  0  0  0  0  0  0  0  0
   20.4280   33.1290   72.4890 C   0  0  0  0  0  0  0  0  0  0  0  0
   21.7320   32.7370   72.3490 N   0  0  0  0  0  0  0  0  0  0  0  0
   21.7060   31.4860   71.8730 C   0  0  0  0  0  0  0  0  0  0  0  0
   20.4300   31.0990   71.7170 N   0  0  0  0  0  0  0  0  0  0  0  0
   19.6000   32.1040   72.0930 C   0  0  0  0  0  0  0  0  0  0  0  0
   17.6410   33.0270   70.9560 C   0  0  0  0  0  0  0  0  0  0  0  0
   16.1120   33.1050   70.9990 C   0  0  0  0  0  0  0  0  0  0  0  0
   10.1820   30.2940   74.1430 H   0  0  0  0  0  0  0  0  0  0  0  0
   13.1160   28.7990   76.8710 H   0  0  0  0  0  0  0  0  0  0  0  0
   11.2990   28.0020   78.2850 H   0  0  0  0  0  0  0  0  0  0  0  0
    8.9370   28.3370   77.6550 H   0  0  0  0  0  0  0  0  0  0  0  0
   11.8310   31.2090   73.0450 H   0  0  0  0  0  0  0  0  0  0  0  0
   13.1090   29.9440   71.2740 H   0  0  0  0  0  0  0  0  0  0  0  0
   14.3740   29.6930   72.5320 H   0  0  0  0  0  0  0  0  0  0  0  0
   16.9500   30.6510   70.1900 H   0  0  0  0  0  0  0  0  0  0  0  0
   15.9380   29.7060   71.2910 H   0  0  0  0  0  0  0  0  0  0  0  0
   18.3080   30.0790   72.1870 H   0  0  0  0  0  0  0  0  0  0  0  0
   16.9940   30.7300   73.2350 H   0  0  0  0  0  0  0  0  0  0  0  0
   16.7800   33.0780   73.4410 H   0  0  0  0  0  0  0  0  0  0  0  0
   18.4540   34.4950   74.5740 H   0  0  0  0  0  0  0  0  0  0  0  0
   17.7790   35.0560   73.0440 H   0  0  0  0  0  0  0  0  0  0  0  0
   20.5110   34.8300   73.7280 H   0  0  0  0  0  0  0  0  0  0  0  0
   19.8660   35.1330   72.1150 H   0  0  0  0  0  0  0  0  0  0  0  0
   22.5680   33.3460   72.5860 H   0  0  0  0  0  0  0  0  0  0  0  0
   22.5710   30.8830   71.6510 H   0  0  0  0  0  0  0  0  0  0  0  0
   18.0110   32.6490   70.0030 H   0  0  0  0  0  0  0  0  0  0  0  0
   17.9970   34.0670   71.0690 H   0  0  0  0  0  0  0  0  0  0  0  0
   15.7140   33.4430   70.0200 H   0  0  0  0  0  0  0  0  0  0  0  0
   15.8580   33.8660   71.7410 H   0  0  0  0  0  0  0  0  0  0  0  0
  1  2  1  0  0  0  0
  2  7  1  0  0  0  0
  3  4  1  0  0  0  0
  3  2  2  0  0  0  0
  4  5  2  0  0  0  0
  5 29  1  0  0  0  0
  5  6  1  0  0  0  0
  6 30  1  0  0  0  0
  7  6  2  0  0  0  0
  7 31  1  0  0  0  0
  8  9  2  0  0  0  0
  8  4  1  0  0  0  0
 10  8  1  0  0  0  0
 11 34  1  0  0  0  0
 11 10  1  0  0  0  0
 12 11  1  0  0  0  0
 13 12  2  0  0  0  0
 14 12  1  0  0  0  0
 15 36  1  0  0  0  0
 15 14  1  0  0  0  0
 15 16  1  0  0  0  0
 16 38  1  0  0  0  0
 17 16  1  0  0  0  0
 17 18  1  0  0  0  0
 18 39  1  0  0  0  0
 18 19  1  0  0  0  0
 19 40  1  0  0  0  0
 20 19  1  0  0  0  0
 20 42  1  0  0  0  0
 21 20  1  0  0  0  0
 22 21  1  0  0  0  0
 22 44  1  0  0  0  0
 23 22  1  0  0  0  0
 24 23  2  0  0  0  0
 24 25  1  0  0  0  0
 25 17  1  0  0  0  0
 25 21  2  0  0  0  0
 26 27  1  0  0  0  0
 26 47  1  0  0  0  0
 26 17  1  0  0  0  0
 27 14  1  0  0  0  0
 27 49  1  0  0  0  0
 28  3  1  0  0  0  0
 32 10  1  0  0  0  0
 33 11  1  0  0  0  0
 35 15  1  0  0  0  0
 37 16  1  0  0  0  0
 41 19  1  0  0  0  0
 43 20  1  0  0  0  0
 45 23  1  0  0  0  0
 46 26  1  0  0  0  0
 48 27  1  0  0  0  0
M  END
>  <Pose>
1

>  <Score>
-6.87

$$$$
