
 OpenBabel03212208413D

 48 51  0  0  1  0  0  0  0  0999 V2000
   22.2350   34.0550   68.1690 B   0  0  0  0  0  0  0  0  0  0  0  0
   21.1750   34.2600   69.7490 C   0  0  0  0  0  0  0  0  0  0  0  0
   20.9700   33.1960   70.5830 C   0  0  0  0  0  0  0  0  0  0  0  0
   20.2020   33.3360   71.7320 C   0  0  0  0  0  0  0  0  0  0  0  0
   19.6630   34.5560   71.9980 C   0  0  0  0  0  0  0  0  0  0  0  0
   19.8760   35.6280   71.1460 C   0  0  0  0  0  0  0  0  0  0  0  0
   20.6370   35.4880   70.0110 C   0  0  0  0  0  0  0  0  0  0  0  0
   19.9820   32.2010   72.6130 C   0  0  0  0  0  0  0  0  0  0  0  0
   20.7030   32.1030   73.6730 O   0  0  0  0  0  0  0  0  0  0  0  0
   19.0120   31.2150   72.3400 N   0  0  0  0  0  0  0  0  0  0  0  0
   17.6730   31.4330   72.8580 C   0  0  2  0  0  0  0  0  0  0  0  0
   17.2010   30.2550   73.6880 C   0  0  0  0  0  0  0  0  0  0  0  0
   15.7570   30.3570   73.6020 N   0  0  0  0  0  0  0  0  0  0  0  0
   15.3640   31.3610   72.6340 C   0  0  1  0  0  0  0  0  0  0  0  0
   16.6310   31.4800   71.7760 C   0  0  0  0  0  0  0  0  0  0  0  0
   14.2340   30.8470   71.8620 C   0  0  0  0  0  0  0  0  0  0  0  0
   14.2510   30.8250   70.6230 O   0  0  0  0  0  0  0  0  0  0  0  0
   13.1050   30.3700   72.5770 N   0  0  0  0  0  0  0  0  0  0  0  0
   13.2770   29.8570   73.9180 C   0  0  1  0  0  0  0  0  0  0  0  0
   14.6990   29.6660   74.2820 C   0  0  0  0  0  0  0  0  0  0  0  0
   15.0030   28.8760   75.2140 O   0  0  0  0  0  0  0  0  0  0  0  0
   12.5290   30.6730   74.9510 C   0  0  0  0  0  0  0  0  0  0  0  0
   11.3610   29.9730   75.5090 C   0  0  0  0  0  0  0  0  0  0  0  0
   11.5140   29.1430   76.6050 C   0  0  0  0  0  0  0  0  0  0  0  0
   10.4270   28.4850   77.1320 C   0  0  0  0  0  0  0  0  0  0  0  0
    9.1530   28.6130   76.6110 C   0  0  0  0  0  0  0  0  0  0  0  0
    8.9970   29.4390   75.5190 C   0  0  0  0  0  0  0  0  0  0  0  0
   10.0770   30.1080   74.9760 C   0  0  0  0  0  0  0  0  0  0  0  0
   21.3890   32.2040   70.3950 H   0  0  0  0  0  0  0  0  0  0  0  0
   19.0510   34.6970   72.8920 H   0  0  0  0  0  0  0  0  0  0  0  0
   19.4500   36.5960   71.3550 H   0  0  0  0  0  0  0  0  0  0  0  0
   20.8220   36.3120   69.3220 H   0  0  0  0  0  0  0  0  0  0  0  0
   19.2670   30.3840   71.7890 H   0  0  0  0  0  0  0  0  0  0  0  0
   17.5970   32.3220   73.4800 H   0  0  0  0  0  0  0  0  0  0  0  0
   17.5220   29.2800   73.2610 H   0  0  0  0  0  0  0  0  0  0  0  0
   17.5510   30.3270   74.7410 H   0  0  0  0  0  0  0  0  0  0  0  0
   15.1280   32.3410   73.0990 H   0  0  0  0  0  0  0  0  0  0  0  0
   16.5580   32.4550   71.2700 H   0  0  0  0  0  0  0  0  0  0  0  0
   16.6490   30.6150   71.1050 H   0  0  0  0  0  0  0  0  0  0  0  0
   12.1420   30.3700   72.1720 H   0  0  0  0  0  0  0  0  0  0  0  0
   12.7600   28.8500   73.9150 H   0  0  0  0  0  0  0  0  0  0  0  0
   13.2420   30.9590   75.7470 H   0  0  0  0  0  0  0  0  0  0  0  0
   12.1690   31.5830   74.4450 H   0  0  0  0  0  0  0  0  0  0  0  0
   12.4710   28.9760   77.0870 H   0  0  0  0  0  0  0  0  0  0  0  0
   10.5400   27.8350   77.9890 H   0  0  0  0  0  0  0  0  0  0  0  0
    8.3150   28.0740   77.0590 H   0  0  0  0  0  0  0  0  0  0  0  0
    7.9910   29.5400   75.1070 H   0  0  0  0  0  0  0  0  0  0  0  0
    9.9190   30.7490   74.1170 H   0  0  0  0  0  0  0  0  0  0  0  0
  1  2  1  0  0  0  0
  2  7  2  0  0  0  0
  2  3  1  0  0  0  0
  3  4  2  0  0  0  0
  4  5  1  0  0  0  0
  4  8  1  0  0  0  0
  5 30  1  0  0  0  0
  6 31  1  0  0  0  0
  6  5  2  0  0  0  0
  7  6  1  0  0  0  0
  8  9  2  0  0  0  0
 10  8  1  0  0  0  0
 10 11  1  0  0  0  0
 11 34  1  1  0  0  0
 11 12  1  0  0  0  0
 12 36  1  0  0  0  0
 13 12  1  0  0  0  0
 13 20  1  0  0  0  0
 14 37  1  1  0  0  0
 14 13  1  0  0  0  0
 15 14  1  0  0  0  0
 15 11  1  0  0  0  0
 16 18  1  0  0  0  0
 16 14  1  0  0  0  0
 17 16  2  0  0  0  0
 18 19  1  0  0  0  0
 19 41  1  1  0  0  0
 19 20  1  0  0  0  0
 19 22  1  0  0  0  0
 20 21  2  0  0  0  0
 22 23  1  0  0  0  0
 22 42  1  0  0  0  0
 23 24  1  0  0  0  0
 24 44  1  0  0  0  0
 24 25  2  0  0  0  0
 25 45  1  0  0  0  0
 26 46  1  0  0  0  0
 26 25  1  0  0  0  0
 27 26  2  0  0  0  0
 28 23  2  0  0  0  0
 28 27  1  0  0  0  0
 29  3  1  0  0  0  0
 32  7  1  0  0  0  0
 33 10  1  0  0  0  0
 35 12  1  0  0  0  0
 38 15  1  0  0  0  0
 39 15  1  0  0  0  0
 40 18  1  0  0  0  0
 43 22  1  0  0  0  0
 47 27  1  0  0  0  0
 48 28  1  0  0  0  0
M  END
>  <Pose>
1

>  <Score>
-6.41

$$$$
