
 OpenBabel03212208413D

 42 45  0  0  1  0  0  0  0  0999 V2000
   19.8550   25.0020   72.5520 B   0  0  0  0  0  0  0  0  0  0  0  0
   19.3610   26.7200   73.1960 C   0  0  0  0  0  0  0  0  0  0  0  0
   18.0520   27.1280   73.2830 C   0  0  0  0  0  0  0  0  0  0  0  0
   17.6960   28.3770   73.7280 C   0  0  0  0  0  0  0  0  0  0  0  0
   18.6800   29.2560   74.1040 C   0  0  0  0  0  0  0  0  0  0  0  0
   20.0170   28.8850   74.0320 C   0  0  0  0  0  0  0  0  0  0  0  0
   20.3360   27.6340   73.5840 C   0  0  0  0  0  0  0  0  0  0  0  0
   16.2440   28.7950   73.8080 C   0  0  0  0  0  0  0  0  0  0  0  0
   15.5110   27.8200   74.1610 O   0  0  0  0  0  0  0  0  0  0  0  0
   15.9040   30.0910   73.5090 N   0  0  0  0  0  0  0  0  0  0  0  0
   15.5800   31.3470   73.2240 C   0  0  2  0  0  0  0  0  0  0  0  0
   14.5040   31.4660   72.0830 C   0  0  0  0  0  0  0  0  0  0  0  0
   14.5620   32.8390   71.7120 N   0  0  0  0  0  0  0  0  0  0  0  0
   15.8390   33.3950   72.1360 C   0  0  1  0  0  0  0  0  0  0  0  0
   16.6520   32.2240   72.5080 C   0  0  0  0  0  0  0  0  0  0  0  0
   16.3740   34.2900   71.0970 C   0  0  0  0  0  0  0  0  0  0  0  0
   17.5920   34.2770   70.8470 O   0  0  0  0  0  0  0  0  0  0  0  0
   15.5120   35.1580   70.3900 N   0  0  0  0  0  0  0  0  0  0  0  0
   14.1470   34.7570   70.1320 C   0  0  2  0  0  0  0  0  0  0  0  0
   13.3360   36.0360   70.1520 C   0  0  0  0  0  0  0  0  0  0  0  0
   14.3380   37.1250   70.3120 C   0  0  0  0  0  0  0  0  0  0  0  0
   15.6350   36.4840   69.7940 C   0  0  0  0  0  0  0  0  0  0  0  0
   13.6690   33.7240   71.0450 C   0  0  0  0  0  0  0  0  0  0  0  0
   12.4140   33.5970   71.2650 O   0  0  0  0  0  0  0  0  0  0  0  0
   17.2540   26.4530   72.9970 H   0  0  0  0  0  0  0  0  0  0  0  0
   18.4740   30.2440   74.4520 H   0  0  0  0  0  0  0  0  0  0  0  0
   20.7800   29.6100   74.3400 H   0  0  0  0  0  0  0  0  0  0  0  0
   21.3810   27.3210   73.5210 H   0  0  0  0  0  0  0  0  0  0  0  0
   16.6770   30.5160   74.5670 H   0  0  0  0  0  0  0  0  0  0  0  0
   15.1510   32.0650   73.9780 H   0  0  0  0  0  0  0  0  0  0  0  0
   14.8200   30.7500   71.3270 H   0  0  0  0  0  0  0  0  0  0  0  0
   13.5480   31.1440   72.5220 H   0  0  0  0  0  0  0  0  0  0  0  0
   15.6970   34.0280   73.0480 H   0  0  0  0  0  0  0  0  0  0  0  0
   17.4760   32.4200   73.2200 H   0  0  0  0  0  0  0  0  0  0  0  0
   16.9920   31.6190   71.6530 H   0  0  0  0  0  0  0  0  0  0  0  0
   14.0380   34.3750   69.0700 H   0  0  0  0  0  0  0  0  0  0  0  0
   12.6110   36.0070   71.0230 H   0  0  0  0  0  0  0  0  0  0  0  0
   12.7730   36.2100   69.2170 H   0  0  0  0  0  0  0  0  0  0  0  0
   14.4320   37.3580   71.3990 H   0  0  0  0  0  0  0  0  0  0  0  0
   14.0990   38.0520   69.7510 H   0  0  0  0  0  0  0  0  0  0  0  0
   15.6200   36.4770   68.7080 H   0  0  0  0  0  0  0  0  0  0  0  0
   16.4620   37.0790   70.1690 H   0  0  0  0  0  0  0  0  0  0  0  0
  1  2  1  0  0  0  0
  2  3  2  0  0  0  0
  2  7  1  0  0  0  0
  3  4  1  0  0  0  0
  4  8  1  0  0  0  0
  4  5  2  0  0  0  0
  5 26  1  0  0  0  0
  6  5  1  0  0  0  0
  6 27  1  0  0  0  0
  7  6  2  0  0  0  0
  8  9  2  0  0  0  0
 10  8  1  0  0  0  0
 10 29  1  0  0  0  0
 11 10  1  0  0  0  0
 11 30  1  1  0  0  0
 12 32  1  0  0  0  0
 12 11  1  0  0  0  0
 13 12  1  0  0  0  0
 13 14  1  0  0  0  0
 14 15  1  0  0  0  0
 14 33  1  1  0  0  0
 15 34  1  0  0  0  0
 15 11  1  0  0  0  0
 16 14  1  0  0  0  0
 17 16  2  0  0  0  0
 18 16  1  0  0  0  0
 19 36  1  6  0  0  0
 19 20  1  0  0  0  0
 19 18  1  0  0  0  0
 19 23  1  0  0  0  0
 20 21  1  0  0  0  0
 20 37  1  0  0  0  0
 21 39  1  0  0  0  0
 22 42  1  0  0  0  0
 22 21  1  0  0  0  0
 22 18  1  0  0  0  0
 23 24  2  0  0  0  0
 23 13  1  0  0  0  0
 25  3  1  0  0  0  0
 28  7  1  0  0  0  0
 31 12  1  0  0  0  0
 35 15  1  0  0  0  0
 38 20  1  0  0  0  0
 40 21  1  0  0  0  0
 41 22  1  0  0  0  0
M  END
>  <Pose>
1

>  <Score>
-6.21

$$$$
