
 OpenBabel03212208413D

 42 45  0  0  1  0  0  0  0  0999 V2000
   18.3760   34.0730   72.4300 B   0  0  0  0  0  0  0  0  0  0  0  0
   16.7850   34.6060   71.5380 C   0  0  0  0  0  0  0  0  0  0  0  0
   15.6080   33.9130   71.6550 C   0  0  0  0  0  0  0  0  0  0  0  0
   14.4460   34.2760   71.0230 C   0  0  0  0  0  0  0  0  0  0  0  0
   14.4930   35.4000   70.2340 C   0  0  0  0  0  0  0  0  0  0  0  0
   15.6770   36.1390   70.0860 C   0  0  0  0  0  0  0  0  0  0  0  0
   16.8260   35.7330   70.7460 C   0  0  0  0  0  0  0  0  0  0  0  0
   13.2060   33.5320   71.1570 C   0  0  0  0  0  0  0  0  0  0  0  0
   12.1380   34.2390   71.1600 O   0  0  0  0  0  0  0  0  0  0  0  0
   13.1070   32.1290   71.2820 N   0  0  0  0  0  0  0  0  0  0  0  0
   13.8970   31.4380   72.2330 C   0  0  2  0  0  0  0  0  0  0  0  0
   14.5890   30.2180   71.7230 C   0  0  0  0  0  0  0  0  0  0  0  0
   14.8910   29.4730   72.9580 N   0  0  0  0  0  0  0  0  0  0  0  0
   14.1370   30.0510   74.0610 C   0  0  1  0  0  0  0  0  0  0  0  0
   13.0630   30.8390   73.3750 C   0  0  0  0  0  0  0  0  0  0  0  0
   13.6440   28.9550   74.8920 C   0  0  0  0  0  0  0  0  0  0  0  0
   12.5380   29.0180   75.4420 O   0  0  0  0  0  0  0  0  0  0  0  0
   14.4540   27.7860   75.0750 N   0  0  0  0  0  0  0  0  0  0  0  0
   15.8220   27.8840   74.6280 C   0  0  1  0  0  0  0  0  0  0  0  0
   16.5080   26.5900   74.7820 C   0  0  0  0  0  0  0  0  0  0  0  0
   15.5980   25.8520   75.7430 C   0  0  0  0  0  0  0  0  0  0  0  0
   14.2500   26.4760   75.6130 C   0  0  0  0  0  0  0  0  0  0  0  0
   15.7450   28.3600   73.2030 C   0  0  0  0  0  0  0  0  0  0  0  0
   16.3950   27.8070   72.2870 O   0  0  0  0  0  0  0  0  0  0  0  0
   15.5650   33.0200   72.2800 H   0  0  0  0  0  0  0  0  0  0  0  0
   13.6270   35.7580   69.7000 H   0  0  0  0  0  0  0  0  0  0  0  0
   15.7140   37.0230   69.4660 H   0  0  0  0  0  0  0  0  0  0  0  0
   17.7150   36.3320   70.6020 H   0  0  0  0  0  0  0  0  0  0  0  0
   12.4500   31.6130   70.6690 H   0  0  0  0  0  0  0  0  0  0  0  0
   14.6540   32.0760   72.7300 H   0  0  0  0  0  0  0  0  0  0  0  0
   13.8260   29.6340   71.1340 H   0  0  0  0  0  0  0  0  0  0  0  0
   15.4780   30.3980   71.1210 H   0  0  0  0  0  0  0  0  0  0  0  0
   14.8390   30.7280   74.6130 H   0  0  0  0  0  0  0  0  0  0  0  0
   12.2990   30.1570   72.9960 H   0  0  0  0  0  0  0  0  0  0  0  0
   12.6710   31.6610   74.0060 H   0  0  0  0  0  0  0  0  0  0  0  0
   16.3260   28.7320   75.1680 H   0  0  0  0  0  0  0  0  0  0  0  0
   17.4770   26.7600   75.3160 H   0  0  0  0  0  0  0  0  0  0  0  0
   16.7090   26.0310   73.8590 H   0  0  0  0  0  0  0  0  0  0  0  0
   15.9550   26.0090   76.8010 H   0  0  0  0  0  0  0  0  0  0  0  0
   15.6440   24.7820   75.5010 H   0  0  0  0  0  0  0  0  0  0  0  0
   13.6350   25.8230   74.9530 H   0  0  0  0  0  0  0  0  0  0  0  0
   13.7620   26.5050   76.6310 H   0  0  0  0  0  0  0  0  0  0  0  0
  2  3  1  0  0  0  0
  2  1  1  0  0  0  0
  3 25  1  0  0  0  0
  4  8  1  0  0  0  0
  4  3  2  0  0  0  0
  5  4  1  0  0  0  0
  6  5  2  0  0  0  0
  6  7  1  0  0  0  0
  7  2  2  0  0  0  0
  8  9  2  0  0  0  0
  8 10  1  0  0  0  0
 10 11  1  0  0  0  0
 11 30  1  1  0  0  0
 11 15  1  0  0  0  0
 12 11  1  0  0  0  0
 12 13  1  0  0  0  0
 13 23  1  0  0  0  0
 13 14  1  0  0  0  0
 14 33  1  1  0  0  0
 14 16  1  0  0  0  0
 15 35  1  0  0  0  0
 15 14  1  0  0  0  0
 16 18  1  0  0  0  0
 16 17  2  0  0  0  0
 18 22  1  0  0  0  0
 19 20  1  0  0  0  0
 19 18  1  0  0  0  0
 19 36  1  1  0  0  0
 20 37  1  0  0  0  0
 20 21  1  0  0  0  0
 21 39  1  0  0  0  0
 22 21  1  0  0  0  0
 22 42  1  0  0  0  0
 23 19  1  0  0  0  0
 24 23  2  0  0  0  0
 26  5  1  0  0  0  0
 27  6  1  0  0  0  0
 28  7  1  0  0  0  0
 29 10  1  0  0  0  0
 31 12  1  0  0  0  0
 32 12  1  0  0  0  0
 34 15  1  0  0  0  0
 38 20  1  0  0  0  0
 40 21  1  0  0  0  0
 41 22  1  0  0  0  0
M  END
>  <Pose>
1

>  <Score>
-6.22

$$$$
