
 OpenBabel03212208413D

 50 53  0  0  0  0  0  0  0  0999 V2000
   10.1700   30.0710   75.2210 B   0  0  0  0  0  0  0  0  0  0  0  0
   11.9730   29.4240   75.2010 C   0  0  0  0  0  0  0  0  0  0  0  0
   12.8980   29.9170   74.3130 C   0  0  0  0  0  0  0  0  0  0  0  0
   14.2110   29.4810   74.2590 C   0  0  0  0  0  0  0  0  0  0  0  0
   14.5690   28.5020   75.1610 C   0  0  0  0  0  0  0  0  0  0  0  0
   13.6610   27.9770   76.0760 C   0  0  0  0  0  0  0  0  0  0  0  0
   12.3630   28.4440   76.0890 C   0  0  0  0  0  0  0  0  0  0  0  0
   15.1690   30.0250   73.3060 C   0  0  0  0  0  0  0  0  0  0  0  0
   15.0980   29.8350   72.0470 N   0  0  0  0  0  0  0  0  0  0  0  0
   16.0020   30.3430   71.1110 N   0  0  0  0  0  0  0  0  0  0  0  0
   16.2940   31.7340   71.0390 C   0  0  0  0  0  0  0  0  0  0  0  0
   17.5620   32.1570   71.0770 N   0  0  0  0  0  4  0  0  0  0  0  0
   17.9080   33.4720   71.0130 C   0  0  0  0  0  0  0  0  0  0  0  0
   16.8800   34.3410   70.9070 N   0  0  0  0  0  0  0  0  0  0  0  0
   15.5870   33.9790   70.8630 C   0  0  0  0  0  0  0  0  0  0  0  0
   15.3320   32.6490   70.9330 N   0  0  0  0  0  0  0  0  0  0  0  0
   14.5350   34.9040   70.7520 N   0  0  0  0  0  0  0  0  0  0  0  0
   14.7680   36.2970   70.4820 C   0  0  0  0  0  0  0  0  0  0  0  0
   13.6340   36.7380   69.5470 C   0  0  0  0  0  0  0  0  0  0  0  0
   13.1620   35.6510   68.8150 O   0  0  0  0  0  0  0  0  0  0  0  0
   12.4850   34.7210   69.5630 C   0  0  0  0  0  0  0  0  0  0  0  0
   13.1760   34.4690   70.9100 C   0  0  0  0  0  0  0  0  0  0  0  0
   19.2550   33.8950   71.0550 N   0  0  0  0  0  0  0  0  0  0  0  0
   20.1590   33.5750   69.9860 C   0  0  0  0  0  0  0  0  0  0  0  0
   20.7730   34.8890   69.5180 C   0  0  0  0  0  0  0  0  0  0  0  0
   21.4340   35.4250   70.6200 O   0  0  0  0  0  0  0  0  0  0  0  0
   20.5590   35.8290   71.6120 C   0  0  0  0  0  0  0  0  0  0  0  0
   19.7590   34.6540   72.1660 C   0  0  0  0  0  0  0  0  0  0  0  0
   12.6190   30.6920   73.5980 H   0  0  0  0  0  0  0  0  0  0  0  0
   15.5860   28.1090   75.1790 H   0  0  0  0  0  0  0  0  0  0  0  0
   13.9370   27.2070   76.7850 H   0  0  0  0  0  0  0  0  0  0  0  0
   11.6780   28.0250   76.8050 H   0  0  0  0  0  0  0  0  0  0  0  0
   15.9830   30.6200   73.6920 H   0  0  0  0  0  0  0  0  0  0  0  0
   16.4620   29.6740   70.4590 H   0  0  0  0  0  0  0  0  0  0  0  0
   15.7550   36.4890   70.0170 H   0  0  0  0  0  0  0  0  0  0  0  0
   14.6220   36.8520   71.4240 H   0  0  0  0  0  0  0  0  0  0  0  0
   14.0850   37.4370   68.8270 H   0  0  0  0  0  0  0  0  0  0  0  0
   12.8210   37.2230   70.0990 H   0  0  0  0  0  0  0  0  0  0  0  0
   11.4190   34.9150   69.6910 H   0  0  0  0  0  0  0  0  0  0  0  0
   12.5650   33.7350   69.0170 H   0  0  0  0  0  0  0  0  0  0  0  0
   13.1620   33.4070   71.1670 H   0  0  0  0  0  0  0  0  0  0  0  0
   12.6390   35.0900   71.6890 H   0  0  0  0  0  0  0  0  0  0  0  0
   19.6850   33.0260   69.1570 H   0  0  0  0  0  0  0  0  0  0  0  0
   21.0090   32.9950   70.4390 H   0  0  0  0  0  0  0  0  0  0  0  0
   19.9330   35.5620   69.2800 H   0  0  0  0  0  0  0  0  0  0  0  0
   21.4830   34.7510   68.7000 H   0  0  0  0  0  0  0  0  0  0  0  0
   19.8830   36.5920   71.1530 H   0  0  0  0  0  0  0  0  0  0  0  0
   21.1620   36.2860   72.4210 H   0  0  0  0  0  0  0  0  0  0  0  0
   20.4810   34.0290   72.7320 H   0  0  0  0  0  0  0  0  0  0  0  0
   18.9720   35.0480   72.8280 H   0  0  0  0  0  0  0  0  0  0  0  0
  2  1  1  0  0  0  0
  2  7  1  0  0  0  0
  3  2  2  0  0  0  0
  4  3  1  0  0  0  0
  4  5  2  0  0  0  0
  5 30  1  0  0  0  0
  5  6  1  0  0  0  0
  6  7  2  0  0  0  0
  6 31  1  0  0  0  0
  7 32  1  0  0  0  0
  8 33  1  0  0  0  0
  8  4  1  0  0  0  0
  9  8  2  0  0  0  0
 10  9  1  0  0  0  0
 11 12  2  0  0  0  0
 11 10  1  0  0  0  0
 13 23  1  0  0  0  0
 13 12  2  0  0  0  0
 14 13  1  0  0  0  0
 15 14  2  0  0  0  0
 15 16  1  0  0  0  0
 16 11  1  0  0  0  0
 17 15  1  0  0  0  0
 17 22  1  0  0  0  0
 18 17  1  0  0  0  0
 18 36  1  0  0  0  0
 19 38  1  0  0  0  0
 19 18  1  0  0  0  0
 20 19  1  0  0  0  0
 20 21  1  0  0  0  0
 21 39  1  0  0  0  0
 21 22  1  0  0  0  0
 22 41  1  0  0  0  0
 22 42  1  0  0  0  0
 23 28  1  0  0  0  0
 24 44  1  0  0  0  0
 24 23  1  0  0  0  0
 25 24  1  0  0  0  0
 25 26  1  0  0  0  0
 26 27  1  0  0  0  0
 27 28  1  0  0  0  0
 27 48  1  0  0  0  0
 28 49  1  0  0  0  0
 28 50  1  0  0  0  0
 29  3  1  0  0  0  0
 34 10  1  0  0  0  0
 35 18  1  0  0  0  0
 37 19  1  0  0  0  0
 40 21  1  0  0  0  0
 43 24  1  0  0  0  0
 45 25  1  0  0  0  0
 46 25  1  0  0  0  0
 47 27  1  0  0  0  0
M  END
>  <Pose>
1

>  <Score>
-6.60

$$$$
