
 OpenBabel03212208413D

 61 64  0  0  1  0  0  0  0  0999 V2000
   15.0380   36.7040   70.0350 B   0  0  0  0  0  0  0  0  0  0  0  0
   14.4060   34.9940   70.6020 C   0  0  0  0  0  0  0  0  0  0  0  0
   15.1000   34.1650   71.4300 C   0  0  0  0  0  0  0  0  0  0  0  0
   14.6770   32.9190   71.8630 C   0  0  0  0  0  0  0  0  0  0  0  0
   13.4360   32.4770   71.4130 C   0  0  0  0  0  0  0  0  0  0  0  0
   12.7040   33.2940   70.5730 C   0  0  0  0  0  0  0  0  0  0  0  0
   13.1560   34.5340   70.1570 C   0  0  0  0  0  0  0  0  0  0  0  0
   15.5650   32.1480   72.7390 C   0  0  1  0  0  0  0  0  0  0  0  0
   15.3700   30.7580   72.5620 N   0  0  0  0  0  0  0  0  0  0  0  0
   16.5380   30.1780   72.0040 C   0  0  0  0  0  0  0  0  0  0  0  0
   16.6460   28.9660   71.6400 O   0  0  0  0  0  0  0  0  0  0  0  0
   17.5660   31.1940   71.9320 C   0  0  0  0  0  0  0  0  0  0  0  0
   18.7120   30.9440   71.4680 O   0  0  0  0  0  0  0  0  0  0  0  0
   17.0000   32.4200   72.4600 C   0  0  0  0  0  0  0  0  0  0  0  0
   17.6580   33.5490   72.5940 C   0  0  0  0  0  0  0  0  0  0  0  0
   16.9910   34.6640   73.0450 O   0  0  0  0  0  0  0  0  0  0  0  0
   19.0640   33.6360   72.2850 C   0  0  0  0  0  0  0  0  0  0  0  0
   19.5890   34.3970   71.2260 C   0  0  0  0  0  0  0  0  0  0  0  0
   20.9240   34.2950   71.2340 N   0  0  0  0  0  0  0  0  0  0  0  0
   21.2460   33.5100   72.2440 N   0  0  0  0  0  0  0  0  0  0  0  0
   20.1550   33.0930   72.9040 C   0  0  0  0  0  0  0  0  0  0  0  0
   21.8390   34.9180   70.3430 C   0  0  0  0  0  0  0  0  0  0  0  0
   21.7460   36.2880   70.1390 C   0  0  0  0  0  0  0  0  0  0  0  0
   22.6090   36.9600   69.2960 C   0  0  0  0  0  0  0  0  0  0  0  0
   23.6180   36.2810   68.6120 C   0  0  0  0  0  0  0  0  0  0  0  0
   23.7110   34.9160   68.8150 C   0  0  0  0  0  0  0  0  0  0  0  0
   22.8410   34.2720   69.6570 C   0  0  0  0  0  0  0  0  0  0  0  0
   18.7520   35.1800   70.2710 C   0  0  0  0  0  0  0  0  0  0  0  0
   14.1540   29.9740   72.9170 C   0  0  0  0  0  0  0  0  0  0  0  0
   13.7640   30.2630   74.3430 C   0  0  0  0  0  0  0  0  0  0  0  0
   12.4490   30.9650   74.4720 C   0  0  0  0  0  0  0  0  0  0  0  0
   11.3100   30.1360   74.6900 N   0  0  0  0  0  4  0  0  0  0  0  0
   11.5400   28.9060   75.3740 C   0  0  0  0  0  0  0  0  0  0  0  0
   10.2810   30.8760   75.4390 C   0  0  0  0  0  0  0  0  0  0  0  0
   16.0840   34.5470   71.7650 H   0  0  0  0  0  0  0  0  0  0  0  0
   13.0760   31.5140   71.7260 H   0  0  0  0  0  0  0  0  0  0  0  0
   11.7300   32.9420   70.2230 H   0  0  0  0  0  0  0  0  0  0  0  0
   12.5840   35.1760   69.4960 H   0  0  0  0  0  0  0  0  0  0  0  0
   15.3250   32.4040   73.8030 H   0  0  0  0  0  0  0  0  0  0  0  0
   20.1360   32.4500   73.7860 H   0  0  0  0  0  0  0  0  0  0  0  0
   20.9420   36.8030   70.6920 H   0  0  0  0  0  0  0  0  0  0  0  0
   22.5120   38.0300   69.1620 H   0  0  0  0  0  0  0  0  0  0  0  0
   24.2850   36.8370   67.9490 H   0  0  0  0  0  0  0  0  0  0  0  0
   24.5040   34.3990   68.2720 H   0  0  0  0  0  0  0  0  0  0  0  0
   22.9530   33.2050   69.7890 H   0  0  0  0  0  0  0  0  0  0  0  0
   17.8920   35.6540   70.8020 H   0  0  0  0  0  0  0  0  0  0  0  0
   18.4330   34.5710   69.4060 H   0  0  0  0  0  0  0  0  0  0  0  0
   19.3480   36.0310   69.8600 H   0  0  0  0  0  0  0  0  0  0  0  0
   13.3510   30.1690   72.1820 H   0  0  0  0  0  0  0  0  0  0  0  0
   14.4520   28.8860   72.8930 H   0  0  0  0  0  0  0  0  0  0  0  0
   13.5870   29.2370   74.7910 H   0  0  0  0  0  0  0  0  0  0  0  0
   14.5800   30.6770   74.9380 H   0  0  0  0  0  0  0  0  0  0  0  0
   12.2330   31.5860   73.5470 H   0  0  0  0  0  0  0  0  0  0  0  0
   12.5110   31.7280   75.3030 H   0  0  0  0  0  0  0  0  0  0  0  0
   10.8450   29.9190   73.7570 H   0  0  0  0  0  0  0  0  0  0  0  0
   10.8860   28.7960   76.2810 H   0  0  0  0  0  0  0  0  0  0  0  0
   12.5950   28.6610   75.6040 H   0  0  0  0  0  0  0  0  0  0  0  0
   11.2000   28.0650   74.7010 H   0  0  0  0  0  0  0  0  0  0  0  0
    9.3380   30.9440   74.8730 H   0  0  0  0  0  0  0  0  0  0  0  0
   10.6790   31.9020   75.6070 H   0  0  0  0  0  0  0  0  0  0  0  0
   10.1450   30.4240   76.4480 H   0  0  0  0  0  0  0  0  0  0  0  0
  1  2  1  0  0  0  0
  2  3  1  0  0  0  0
  3 35  1  0  0  0  0
  3  4  2  0  0  0  0
  4  8  1  0  0  0  0
  5 36  1  0  0  0  0
  5  4  1  0  0  0  0
  6  5  2  0  0  0  0
  7  6  1  0  0  0  0
  7  2  2  0  0  0  0
  8 39  1  1  0  0  0
  9  8  1  0  0  0  0
  9 29  1  0  0  0  0
 10  9  1  0  0  0  0
 11 10  2  0  0  0  0
 12 10  1  0  0  0  0
 12 14  1  0  0  0  0
 13 12  2  0  0  0  0
 14 15  2  0  0  0  0
 14  8  1  0  0  0  0
 15 16  1  0  0  0  0
 17 15  1  0  0  0  0
 17 21  1  0  0  0  0
 18 19  1  0  0  0  0
 18 17  2  0  0  0  0
 19 20  1  0  0  0  0
 20 21  2  0  0  0  0
 21 40  1  0  0  0  0
 22 19  1  0  0  0  0
 23 22  1  0  0  0  0
 23 41  1  0  0  0  0
 24 23  2  0  0  0  0
 25 26  2  0  0  0  0
 25 24  1  0  0  0  0
 26 27  1  0  0  0  0
 27 45  1  0  0  0  0
 27 22  2  0  0  0  0
 28 46  1  0  0  0  0
 28 18  1  0  0  0  0
 29 30  1  0  0  0  0
 30 31  1  0  0  0  0
 30 51  1  0  0  0  0
 30 52  1  0  0  0  0
 31 32  1  0  0  0  0
 31 54  1  0  0  0  0
 32 33  1  0  0  0  0
 32 34  1  0  0  0  0
 33 57  1  0  0  0  0
 33 56  1  0  0  0  0
 34 60  1  0  0  0  0
 34 61  1  0  0  0  0
 37  6  1  0  0  0  0
 38  7  1  0  0  0  0
 42 24  1  0  0  0  0
 43 25  1  0  0  0  0
 44 26  1  0  0  0  0
 47 28  1  0  0  0  0
 48 28  1  0  0  0  0
 49 29  1  0  0  0  0
 50 29  1  0  0  0  0
 53 31  1  0  0  0  0
 55 32  1  0  0  0  0
 58 33  1  0  0  0  0
 59 34  1  0  0  0  0
M  END
>  <Pose>
1

>  <Score>
-7.15

$$$$
