
 OpenBabel03212208413D

 63 66  0  0  1  0  0  0  0  0999 V2000
   14.6770   36.3470   70.2670 B   0  0  0  0  0  0  0  0  0  0  0  0
   14.2580   34.5850   70.8670 C   0  0  0  0  0  0  0  0  0  0  0  0
   15.2660   33.7520   71.3010 C   0  0  0  0  0  0  0  0  0  0  0  0
   15.0130   32.4610   71.7470 C   0  0  0  0  0  0  0  0  0  0  0  0
   13.6820   32.0700   71.7280 C   0  0  0  0  0  0  0  0  0  0  0  0
   12.6670   32.8970   71.2970 C   0  0  0  0  0  0  0  0  0  0  0  0
   12.9430   34.1730   70.8580 C   0  0  0  0  0  0  0  0  0  0  0  0
   16.1020   31.5730   72.2210 C   0  0  2  0  0  0  0  0  0  0  0  0
   15.8850   31.2950   73.6270 N   0  0  0  0  0  0  0  0  0  0  0  0
   16.2970   32.4580   74.3300 C   0  0  0  0  0  0  0  0  0  0  0  0
   15.9080   32.8450   75.4550 O   0  0  0  0  0  0  0  0  0  0  0  0
   17.2870   33.1480   73.4730 C   0  0  0  0  0  0  0  0  0  0  0  0
   17.8990   34.2090   73.7240 O   0  0  0  0  0  0  0  0  0  0  0  0
   17.4030   32.3270   72.2760 C   0  0  0  0  0  0  0  0  0  0  0  0
   18.4380   32.2620   71.4950 C   0  0  0  0  0  0  0  0  0  0  0  0
   18.3970   31.3600   70.4120 O   0  0  0  0  0  0  0  0  0  0  0  0
   19.6560   33.0490   71.6320 C   0  0  0  0  0  0  0  0  0  0  0  0
   20.9000   32.7710   72.0900 C   0  0  0  0  0  0  0  0  0  0  0  0
   21.6620   33.8740   71.9350 N   0  0  0  0  0  0  0  0  0  0  0  0
   20.9600   34.8760   71.3910 C   0  0  0  0  0  0  0  0  0  0  0  0
   19.6980   34.3860   71.1900 C   0  0  0  0  0  0  0  0  0  0  0  0
   18.5580   35.1510   70.5990 C   0  0  0  0  0  0  0  0  0  0  0  0
   21.4480   36.2330   71.0720 C   0  0  0  0  0  0  0  0  0  0  0  0
   21.6240   37.0450   71.9920 O   0  0  0  0  0  0  0  0  0  0  0  0
   21.7060   36.6010   69.7650 O   0  0  0  0  0  0  0  0  0  0  0  0
   20.7060   36.9670   68.8420 C   0  0  0  0  0  0  0  0  0  0  0  0
   21.3890   31.4980   72.7180 C   0  0  0  0  0  0  0  0  0  0  0  0
   15.3530   30.0650   74.2190 C   0  0  0  0  0  0  0  0  0  0  0  0
   13.8480   30.0010   74.0840 C   0  0  0  0  0  0  0  0  0  0  0  0
   13.2650   28.8210   74.6350 N   0  0  0  0  0  4  0  0  0  0  0  0
   12.2950   29.0810   75.6920 C   0  0  0  0  0  0  0  0  0  0  0  0
   11.4540   27.8430   75.8480 C   0  0  0  0  0  0  0  0  0  0  0  0
   12.1510   26.7570   75.3810 O   0  0  0  0  0  0  0  0  0  0  0  0
   13.4830   26.7280   75.7550 C   0  0  0  0  0  0  0  0  0  0  0  0
   14.2580   27.9370   75.2320 C   0  0  0  0  0  0  0  0  0  0  0  0
   16.3010   34.0780   71.3000 H   0  0  0  0  0  0  0  0  0  0  0  0
   13.4600   31.0620   72.0730 H   0  0  0  0  0  0  0  0  0  0  0  0
   11.6280   32.5750   71.2870 H   0  0  0  0  0  0  0  0  0  0  0  0
   12.1400   34.8400   70.5120 H   0  0  0  0  0  0  0  0  0  0  0  0
   16.1980   30.6590   71.6090 H   0  0  0  0  0  0  0  0  0  0  0  0
   22.6840   33.9310   72.2150 H   0  0  0  0  0  0  0  0  0  0  0  0
   18.4410   36.1320   71.1030 H   0  0  0  0  0  0  0  0  0  0  0  0
   17.6230   34.5940   70.7750 H   0  0  0  0  0  0  0  0  0  0  0  0
   18.6980   35.3490   69.5260 H   0  0  0  0  0  0  0  0  0  0  0  0
   19.9180   37.6100   69.2950 H   0  0  0  0  0  0  0  0  0  0  0  0
   20.2560   36.0670   68.3440 H   0  0  0  0  0  0  0  0  0  0  0  0
   21.2230   37.5460   68.0330 H   0  0  0  0  0  0  0  0  0  0  0  0
   22.0460   30.9360   72.0320 H   0  0  0  0  0  0  0  0  0  0  0  0
   20.5370   30.8840   73.0430 H   0  0  0  0  0  0  0  0  0  0  0  0
   21.9800   31.8420   73.6250 H   0  0  0  0  0  0  0  0  0  0  0  0
   15.7900   29.1700   73.7300 H   0  0  0  0  0  0  0  0  0  0  0  0
   15.5660   30.0420   75.3100 H   0  0  0  0  0  0  0  0  0  0  0  0
   13.5940   30.1110   72.9870 H   0  0  0  0  0  0  0  0  0  0  0  0
   13.3700   30.8720   74.5670 H   0  0  0  0  0  0  0  0  0  0  0  0
   12.8240   28.2700   73.8770 H   0  0  0  0  0  0  0  0  0  0  0  0
   12.8940   29.1850   76.6430 H   0  0  0  0  0  0  0  0  0  0  0  0
   11.7360   30.0050   75.5650 H   0  0  0  0  0  0  0  0  0  0  0  0
   11.1260   27.6590   76.8870 H   0  0  0  0  0  0  0  0  0  0  0  0
   10.5200   27.9300   75.2330 H   0  0  0  0  0  0  0  0  0  0  0  0
   13.9260   25.8280   75.2390 H   0  0  0  0  0  0  0  0  0  0  0  0
   13.6350   26.5810   76.8430 H   0  0  0  0  0  0  0  0  0  0  0  0
   15.0490   27.6530   74.5380 H   0  0  0  0  0  0  0  0  0  0  0  0
   14.6850   28.4490   76.1340 H   0  0  0  0  0  0  0  0  0  0  0  0
  1  2  1  0  0  0  0
  2  3  1  0  0  0  0
  3  4  2  0  0  0  0
  4  8  1  0  0  0  0
  5  4  1  0  0  0  0
  5 37  1  0  0  0  0
  6  5  2  0  0  0  0
  7  2  2  0  0  0  0
  7  6  1  0  0  0  0
  8 40  1  6  0  0  0
  8 14  1  0  0  0  0
  8  9  1  0  0  0  0
  9 28  1  0  0  0  0
  9 10  1  0  0  0  0
 10 11  2  0  0  0  0
 12 13  2  0  0  0  0
 12 10  1  0  0  0  0
 14 12  1  0  0  0  0
 15 17  1  0  0  0  0
 15 14  2  0  0  0  0
 16 15  1  0  0  0  0
 17 18  2  0  0  0  0
 18 27  1  0  0  0  0
 19 18  1  0  0  0  0
 19 41  1  0  0  0  0
 20 19  1  0  0  0  0
 21 20  2  0  0  0  0
 21 17  1  0  0  0  0
 22 43  1  0  0  0  0
 22 42  1  0  0  0  0
 22 21  1  0  0  0  0
 23 20  1  0  0  0  0
 23 24  2  0  0  0  0
 25 23  1  0  0  0  0
 26 45  1  0  0  0  0
 26 25  1  0  0  0  0
 27 49  1  0  0  0  0
 27 50  1  0  0  0  0
 28 52  1  0  0  0  0
 29 28  1  0  0  0  0
 29 54  1  0  0  0  0
 29 30  1  0  0  0  0
 30 35  1  0  0  0  0
 30 31  1  0  0  0  0
 31 32  1  0  0  0  0
 31 56  1  0  0  0  0
 32 58  1  0  0  0  0
 33 34  1  0  0  0  0
 33 32  1  0  0  0  0
 34 61  1  0  0  0  0
 35 34  1  0  0  0  0
 35 63  1  0  0  0  0
 36  3  1  0  0  0  0
 38  6  1  0  0  0  0
 39  7  1  0  0  0  0
 44 22  1  0  0  0  0
 46 26  1  0  0  0  0
 47 26  1  0  0  0  0
 48 27  1  0  0  0  0
 51 28  1  0  0  0  0
 53 29  1  0  0  0  0
 55 30  1  0  0  0  0
 57 31  1  0  0  0  0
 59 32  1  0  0  0  0
 60 34  1  0  0  0  0
 62 35  1  0  0  0  0
M  END
>  <Pose>
1

>  <Score>
-6.99

$$$$
