
 OpenBabel03212208413D

 56 59  0  0  1  0  0  0  0  0999 V2000
   20.0230   32.8590   70.3590 B   0  0  0  0  0  0  0  0  0  0  0  0
   18.6450   32.5000   71.6310 C   0  0  0  0  0  0  0  0  0  0  0  0
   17.6560   31.5560   71.3740 C   0  0  0  0  0  0  0  0  0  0  0  0
   16.6480   31.2740   72.2720 C   0  0  0  0  0  0  0  0  0  0  0  0
   16.6640   31.9880   73.4620 C   0  0  0  0  0  0  0  0  0  0  0  0
   17.6340   32.9290   73.7370 C   0  0  0  0  0  0  0  0  0  0  0  0
   18.6170   33.1740   72.8120 C   0  0  0  0  0  0  0  0  0  0  0  0
   15.5910   30.2610   71.9940 C   0  0  2  0  0  0  0  0  0  0  0  0
   14.2670   30.8020   72.0750 N   0  0  0  0  0  0  0  0  0  0  0  0
   13.8500   30.6350   73.4210 C   0  0  0  0  0  0  0  0  0  0  0  0
   12.9140   31.2570   73.9830 O   0  0  0  0  0  0  0  0  0  0  0  0
   14.6930   29.6030   74.0680 C   0  0  0  0  0  0  0  0  0  0  0  0
   14.6240   29.1860   75.2370 O   0  0  0  0  0  0  0  0  0  0  0  0
   15.6240   29.1770   73.0400 C   0  0  0  0  0  0  0  0  0  0  0  0
   16.3170   28.0620   72.9870 C   0  0  0  0  0  0  0  0  0  0  0  0
   17.1070   27.7960   71.8880 O   0  0  0  0  0  0  0  0  0  0  0  0
   16.2840   27.0980   74.0570 C   0  0  0  0  0  0  0  0  0  0  0  0
   17.0870   27.0780   75.1600 C   0  0  0  0  0  0  0  0  0  0  0  0
   16.9170   26.1120   76.1330 C   0  0  0  0  0  0  0  0  0  0  0  0
   15.9570   25.1280   76.0670 C   0  0  0  0  0  0  0  0  0  0  0  0
   15.1460   25.1480   74.9520 C   0  0  0  0  0  0  0  0  0  0  0  0
   15.3000   26.0990   73.9730 C   0  0  0  0  0  0  0  0  0  0  0  0
   15.7940   24.0970   77.1300 C   0  0  0  0  0  0  0  0  0  0  0  0
   13.4660   31.4210   71.0000 C   0  0  0  0  0  0  0  0  0  0  0  0
   13.5040   32.9080   71.2150 C   0  0  0  0  0  0  0  0  0  0  0  0
   13.8070   33.6790   70.0640 N   0  0  0  0  0  4  0  0  0  0  0  0
   12.8480   34.6830   69.7070 C   0  0  0  0  0  0  0  0  0  0  0  0
   13.1130   36.0350   70.3110 C   0  0  0  0  0  0  0  0  0  0  0  0
   14.4420   36.3980   70.3010 O   0  0  0  0  0  0  0  0  0  0  0  0
   15.2410   35.4740   70.9340 C   0  0  0  0  0  0  0  0  0  0  0  0
   15.1530   34.1840   70.1630 C   0  0  0  0  0  0  0  0  0  0  0  0
   17.7000   31.0440   70.4460 H   0  0  0  0  0  0  0  0  0  0  0  0
   15.9010   31.8070   74.1960 H   0  0  0  0  0  0  0  0  0  0  0  0
   17.6170   33.4670   74.6740 H   0  0  0  0  0  0  0  0  0  0  0  0
   19.3870   33.9190   73.0280 H   0  0  0  0  0  0  0  0  0  0  0  0
   15.7490   29.8650   70.9910 H   0  0  0  0  0  0  0  0  0  0  0  0
   17.8740   27.8240   75.2260 H   0  0  0  0  0  0  0  0  0  0  0  0
   17.5680   26.1200   76.9990 H   0  0  0  0  0  0  0  0  0  0  0  0
   14.3800   24.3670   74.8890 H   0  0  0  0  0  0  0  0  0  0  0  0
   14.6270   26.0570   73.1210 H   0  0  0  0  0  0  0  0  0  0  0  0
   16.0760   24.4990   78.1410 H   0  0  0  0  0  0  0  0  0  0  0  0
   14.6960   23.8530   77.2340 H   0  0  0  0  0  0  0  0  0  0  0  0
   16.3050   23.1600   76.9080 H   0  0  0  0  0  0  0  0  0  0  0  0
   13.9610   31.2150   70.0240 H   0  0  0  0  0  0  0  0  0  0  0  0
   12.4740   30.9760   71.0950 H   0  0  0  0  0  0  0  0  0  0  0  0
   14.2280   33.0790   72.0650 H   0  0  0  0  0  0  0  0  0  0  0  0
   12.5120   33.1950   71.6440 H   0  0  0  0  0  0  0  0  0  0  0  0
   13.8420   32.9980   69.2470 H   0  0  0  0  0  0  0  0  0  0  0  0
   11.8140   34.4010   69.9930 H   0  0  0  0  0  0  0  0  0  0  0  0
   12.8210   34.8300   68.6050 H   0  0  0  0  0  0  0  0  0  0  0  0
   12.5630   36.8030   69.7070 H   0  0  0  0  0  0  0  0  0  0  0  0
   12.7270   36.1440   71.3380 H   0  0  0  0  0  0  0  0  0  0  0  0
   15.0120   35.3500   72.0090 H   0  0  0  0  0  0  0  0  0  0  0  0
   16.2920   35.8230   70.8700 H   0  0  0  0  0  0  0  0  0  0  0  0
   15.7630   33.3720   70.6280 H   0  0  0  0  0  0  0  0  0  0  0  0
   15.5890   34.3580   69.1570 H   0  0  0  0  0  0  0  0  0  0  0  0
  1  2  1  0  0  0  0
  2  7  1  0  0  0  0
  3  2  2  0  0  0  0
  3  4  1  0  0  0  0
  4  5  2  0  0  0  0
  5  6  1  0  0  0  0
  5 33  1  0  0  0  0
  6 34  1  0  0  0  0
  7 35  1  0  0  0  0
  7  6  2  0  0  0  0
  8 36  1  6  0  0  0
  8  9  1  0  0  0  0
  8  4  1  0  0  0  0
  8 14  1  0  0  0  0
  9 10  1  0  0  0  0
 10 11  2  0  0  0  0
 10 12  1  0  0  0  0
 12 13  2  0  0  0  0
 14 12  1  0  0  0  0
 15 14  2  0  0  0  0
 15 17  1  0  0  0  0
 16 15  1  0  0  0  0
 17 18  1  0  0  0  0
 18 37  1  0  0  0  0
 18 19  2  0  0  0  0
 19 38  1  0  0  0  0
 20 19  1  0  0  0  0
 20 23  1  0  0  0  0
 21 20  2  0  0  0  0
 22 17  2  0  0  0  0
 22 21  1  0  0  0  0
 23 42  1  0  0  0  0
 23 41  1  0  0  0  0
 24 45  1  0  0  0  0
 24 25  1  0  0  0  0
 24  9  1  0  0  0  0
 25 47  1  0  0  0  0
 25 46  1  0  0  0  0
 26 31  1  0  0  0  0
 26 25  1  0  0  0  0
 27 49  1  0  0  0  0
 27 26  1  0  0  0  0
 27 28  1  0  0  0  0
 28 52  1  0  0  0  0
 29 28  1  0  0  0  0
 29 30  1  0  0  0  0
 30 53  1  0  0  0  0
 31 55  1  0  0  0  0
 31 30  1  0  0  0  0
 32  3  1  0  0  0  0
 39 21  1  0  0  0  0
 40 22  1  0  0  0  0
 43 23  1  0  0  0  0
 44 24  1  0  0  0  0
 48 26  1  0  0  0  0
 50 27  1  0  0  0  0
 51 28  1  0  0  0  0
 54 30  1  0  0  0  0
 56 31  1  0  0  0  0
M  END
>  <Pose>
1

>  <Score>
-6.26

$$$$
