
 OpenBabel03212208413D

 56 59  0  0  1  0  0  0  0  0999 V2000
   13.4060   35.2320   70.0170 B   0  0  0  0  0  0  0  0  0  0  0  0
   15.2510   35.6840   70.0020 C   0  0  0  0  0  0  0  0  0  0  0  0
   16.2430   34.7960   70.3970 C   0  0  0  0  0  0  0  0  0  0  0  0
   17.5780   35.1330   70.3860 C   0  0  0  0  0  0  0  0  0  0  0  0
   17.9180   36.3860   69.9730 C   0  0  0  0  0  0  0  0  0  0  0  0
   16.9260   37.2910   69.5710 C   0  0  0  0  0  0  0  0  0  0  0  0
   15.5920   36.9520   69.5820 C   0  0  0  0  0  0  0  0  0  0  0  0
   18.6000   34.1460   70.8160 C   0  0  1  0  0  0  0  0  0  0  0  0
   19.4990   34.7310   71.7970 N   0  0  0  0  0  0  0  0  0  0  0  0
   18.9550   34.4270   73.0980 C   0  0  0  0  0  0  0  0  0  0  0  0
   19.2580   35.0270   74.1580 O   0  0  0  0  0  0  0  0  0  0  0  0
   18.0270   33.3300   72.9230 C   0  0  0  0  0  0  0  0  0  0  0  0
   17.3220   32.7480   73.8060 O   0  0  0  0  0  0  0  0  0  0  0  0
   18.0230   32.9790   71.5090 C   0  0  0  0  0  0  0  0  0  0  0  0
   17.5500   31.8510   71.0000 C   0  0  0  0  0  0  0  0  0  0  0  0
   17.6150   31.7830   69.5920 O   0  0  0  0  0  0  0  0  0  0  0  0
   17.0070   30.7510   71.7790 C   0  0  0  0  0  0  0  0  0  0  0  0
   17.7370   29.9130   72.5890 C   0  0  0  0  0  0  0  0  0  0  0  0
   17.1610   28.9040   73.3340 C   0  0  0  0  0  0  0  0  0  0  0  0
   15.8010   28.6910   73.2910 C   0  0  0  0  0  0  0  0  0  0  0  0
   15.0520   29.5230   72.4830 C   0  0  0  0  0  0  0  0  0  0  0  0
   15.6380   30.5300   71.7420 C   0  0  0  0  0  0  0  0  0  0  0  0
   15.0400   27.4070   74.2360 Cl  0  0  0  0  0  0  0  0  0  0  0  0
   20.6380   35.5410   71.5050 C   0  0  0  0  0  0  0  0  0  0  0  0
   21.3710   35.3290   70.2450 C   0  0  0  0  0  0  0  0  0  0  0  0
   22.2730   34.1610   70.0940 C   0  0  0  0  0  0  0  0  0  0  0  0
   22.6770   33.4640   71.2670 N   0  0  0  0  0  4  0  0  0  0  0  0
   21.6210   32.6090   71.7470 C   0  0  0  0  0  0  0  0  0  0  0  0
   21.7070   31.1940   71.2140 C   0  0  0  0  0  0  0  0  0  0  0  0
   22.8560   30.5680   71.7020 O   0  0  0  0  0  0  0  0  0  0  0  0
   23.8360   31.5080   72.0250 C   0  0  0  0  0  0  0  0  0  0  0  0
   23.8190   32.5530   70.9440 C   0  0  0  0  0  0  0  0  0  0  0  0
   15.9500   33.8120   70.7200 H   0  0  0  0  0  0  0  0  0  0  0  0
   18.9410   36.6910   69.9470 H   0  0  0  0  0  0  0  0  0  0  0  0
   17.1870   38.2770   69.2420 H   0  0  0  0  0  0  0  0  0  0  0  0
   14.8150   37.6540   69.2690 H   0  0  0  0  0  0  0  0  0  0  0  0
   19.2150   33.8680   69.9350 H   0  0  0  0  0  0  0  0  0  0  0  0
   18.8070   30.0270   72.6380 H   0  0  0  0  0  0  0  0  0  0  0  0
   17.7390   28.2470   73.9710 H   0  0  0  0  0  0  0  0  0  0  0  0
   13.9850   29.3390   72.4620 H   0  0  0  0  0  0  0  0  0  0  0  0
   15.0370   31.1780   71.1070 H   0  0  0  0  0  0  0  0  0  0  0  0
   21.3640   35.3710   72.3690 H   0  0  0  0  0  0  0  0  0  0  0  0
   20.3060   36.6370   71.5780 H   0  0  0  0  0  0  0  0  0  0  0  0
   21.9470   36.2850   69.9470 H   0  0  0  0  0  0  0  0  0  0  0  0
   20.6150   35.2430   69.3780 H   0  0  0  0  0  0  0  0  0  0  0  0
   23.2190   34.4460   69.5510 H   0  0  0  0  0  0  0  0  0  0  0  0
   21.7990   33.3890   69.3980 H   0  0  0  0  0  0  0  0  0  0  0  0
   23.0640   34.0750   71.9820 H   0  0  0  0  0  0  0  0  0  0  0  0
   20.6340   33.0290   71.4610 H   0  0  0  0  0  0  0  0  0  0  0  0
   21.6520   32.5570   72.8490 H   0  0  0  0  0  0  0  0  0  0  0  0
   21.6740   31.2190   70.1070 H   0  0  0  0  0  0  0  0  0  0  0  0
   20.8320   30.6440   71.5660 H   0  0  0  0  0  0  0  0  0  0  0  0
   23.5810   31.9370   73.0080 H   0  0  0  0  0  0  0  0  0  0  0  0
   24.8120   30.9800   72.0880 H   0  0  0  0  0  0  0  0  0  0  0  0
   23.6070   32.1030   69.9520 H   0  0  0  0  0  0  0  0  0  0  0  0
   24.7500   33.1500   70.9650 H   0  0  0  0  0  0  0  0  0  0  0  0
  2  1  1  0  0  0  0
  2  3  1  0  0  0  0
  3 33  1  0  0  0  0
  4  3  2  0  0  0  0
  4  8  1  0  0  0  0
  5  4  1  0  0  0  0
  6  7  1  0  0  0  0
  6  5  2  0  0  0  0
  7  2  2  0  0  0  0
  8 37  1  6  0  0  0
  8 14  1  0  0  0  0
  8  9  1  0  0  0  0
  9 10  1  0  0  0  0
 10 11  2  0  0  0  0
 12 10  1  0  0  0  0
 12 13  2  0  0  0  0
 14 12  1  0  0  0  0
 15 14  2  0  0  0  0
 15 17  1  0  0  0  0
 16 15  1  0  0  0  0
 17 18  1  0  0  0  0
 18 38  1  0  0  0  0
 18 19  2  0  0  0  0
 19 39  1  0  0  0  0
 20 19  1  0  0  0  0
 20 23  1  0  0  0  0
 21 20  2  0  0  0  0
 22 17  2  0  0  0  0
 22 21  1  0  0  0  0
 24 43  1  0  0  0  0
 24  9  1  0  0  0  0
 24 42  1  0  0  0  0
 25 24  1  0  0  0  0
 26 25  1  0  0  0  0
 26 27  1  0  0  0  0
 27 28  1  0  0  0  0
 27 48  1  0  0  0  0
 28 50  1  0  0  0  0
 29 52  1  0  0  0  0
 29 30  1  0  0  0  0
 29 28  1  0  0  0  0
 30 31  1  0  0  0  0
 31 54  1  0  0  0  0
 31 53  1  0  0  0  0
 32 56  1  0  0  0  0
 32 27  1  0  0  0  0
 32 31  1  0  0  0  0
 34  5  1  0  0  0  0
 35  6  1  0  0  0  0
 36  7  1  0  0  0  0
 40 21  1  0  0  0  0
 41 22  1  0  0  0  0
 44 25  1  0  0  0  0
 45 25  1  0  0  0  0
 46 26  1  0  0  0  0
 47 26  1  0  0  0  0
 49 28  1  0  0  0  0
 51 29  1  0  0  0  0
 55 32  1  0  0  0  0
M  END
>  <Pose>
1

>  <Score>
-6.57

$$$$
