
 OpenBabel03212208413D

 57 60  0  0  1  0  0  0  0  0999 V2000
   21.7870   36.8550   66.7620 B   0  0  0  0  0  0  0  0  0  0  0  0
   22.2510   35.3340   67.8010 C   0  0  0  0  0  0  0  0  0  0  0  0
   21.7610   35.2190   69.1020 C   0  0  0  0  0  0  0  0  0  0  0  0
   22.0750   34.1460   69.8660 C   0  0  0  0  0  0  0  0  0  0  0  0
   22.9020   33.1630   69.3120 C   0  0  0  0  0  0  0  0  0  0  0  0
   23.3790   33.2780   68.0400 C   0  0  0  0  0  0  0  0  0  0  0  0
   23.0710   34.3620   67.2460 C   0  0  0  0  0  0  0  0  0  0  0  0
   21.5990   33.9400   71.2390 C   0  0  2  0  0  0  0  0  0  0  0  0
   21.9640   32.6650   71.8250 N   0  0  0  0  0  0  0  0  0  0  0  0
   21.0380   32.4700   72.9030 C   0  0  0  0  0  0  0  0  0  0  0  0
   21.1990   31.7820   73.9260 O   0  0  0  0  0  0  0  0  0  0  0  0
   19.8430   33.2400   72.5800 C   0  0  0  0  0  0  0  0  0  0  0  0
   18.7600   33.3860   73.2200 O   0  0  0  0  0  0  0  0  0  0  0  0
   20.1050   33.8760   71.2970 C   0  0  0  0  0  0  0  0  0  0  0  0
   19.1950   34.3150   70.4510 C   0  0  0  0  0  0  0  0  0  0  0  0
   19.6810   34.9540   69.3020 O   0  0  0  0  0  0  0  0  0  0  0  0
   17.7560   34.1770   70.6190 C   0  0  0  0  0  0  0  0  0  0  0  0
   17.0660   33.0580   70.8870 N   0  0  0  0  0  0  0  0  0  0  0  0
   15.7420   33.3260   71.0180 C   0  0  0  0  0  0  0  0  0  0  0  0
   15.6330   34.6690   70.8180 N   0  0  0  0  0  0  0  0  0  0  0  0
   16.8120   35.2150   70.5770 C   0  0  0  0  0  0  0  0  0  0  0  0
   17.2030   36.6160   70.3020 C   0  0  0  0  0  0  0  0  0  0  0  0
   14.7980   32.3460   71.2830 C   0  0  0  0  0  0  0  0  0  0  0  0
   15.1950   31.0330   71.4240 C   0  0  0  0  0  0  0  0  0  0  0  0
   16.5530   30.7670   71.2870 C   0  0  0  0  0  0  0  0  0  0  0  0
   17.4510   31.7550   71.0260 C   0  0  0  0  0  0  0  0  0  0  0  0
   23.0470   31.7600   71.4340 C   0  0  0  0  0  0  0  0  0  0  0  0
   24.3800   32.1730   71.9420 C   0  0  0  0  0  0  0  0  0  0  0  0
   24.9690   31.4250   73.0650 C   0  0  0  0  0  0  0  0  0  0  0  0
   25.4920   32.1930   74.1400 N   0  0  0  0  0  4  0  0  0  0  0  0
   26.9270   32.2910   74.0280 C   0  0  0  0  0  0  0  0  0  0  0  0
   25.2370   31.4880   75.4110 C   0  0  0  0  0  0  0  0  0  0  0  0
   21.1420   36.0050   69.4660 H   0  0  0  0  0  0  0  0  0  0  0  0
   23.1600   32.3020   69.9120 H   0  0  0  0  0  0  0  0  0  0  0  0
   24.0270   32.5110   67.6000 H   0  0  0  0  0  0  0  0  0  0  0  0
   23.4530   34.4600   66.2200 H   0  0  0  0  0  0  0  0  0  0  0  0
   21.9350   34.7210   71.9200 H   0  0  0  0  0  0  0  0  0  0  0  0
   16.2720   37.1560   70.0150 H   0  0  0  0  0  0  0  0  0  0  0  0
   17.8630   36.6720   69.4030 H   0  0  0  0  0  0  0  0  0  0  0  0
   17.6540   37.1270   71.1670 H   0  0  0  0  0  0  0  0  0  0  0  0
   13.7550   32.6140   71.3780 H   0  0  0  0  0  0  0  0  0  0  0  0
   14.5100   30.2210   71.6320 H   0  0  0  0  0  0  0  0  0  0  0  0
   16.8940   29.7310   71.3940 H   0  0  0  0  0  0  0  0  0  0  0  0
   18.5270   31.5650   70.9050 H   0  0  0  0  0  0  0  0  0  0  0  0
   22.7730   30.7110   71.6810 H   0  0  0  0  0  0  0  0  0  0  0  0
   23.1040   31.7870   70.3280 H   0  0  0  0  0  0  0  0  0  0  0  0
   25.1330   32.2710   71.1190 H   0  0  0  0  0  0  0  0  0  0  0  0
   24.2590   33.2430   72.2940 H   0  0  0  0  0  0  0  0  0  0  0  0
   24.1560   30.7700   73.4860 H   0  0  0  0  0  0  0  0  0  0  0  0
   25.7290   30.6830   72.6810 H   0  0  0  0  0  0  0  0  0  0  0  0
   25.0310   33.1200   74.2740 H   0  0  0  0  0  0  0  0  0  0  0  0
   27.4690   31.8450   74.8890 H   0  0  0  0  0  0  0  0  0  0  0  0
   27.2370   31.7290   73.1260 H   0  0  0  0  0  0  0  0  0  0  0  0
   27.2790   33.3280   73.8780 H   0  0  0  0  0  0  0  0  0  0  0  0
   24.1420   31.4120   75.5970 H   0  0  0  0  0  0  0  0  0  0  0  0
   25.7300   30.4850   75.3820 H   0  0  0  0  0  0  0  0  0  0  0  0
   25.6570   32.0450   76.2680 H   0  0  0  0  0  0  0  0  0  0  0  0
  1  2  1  0  0  0  0
  2  3  1  0  0  0  0
  3 33  1  0  0  0  0
  3  4  2  0  0  0  0
  4  8  1  0  0  0  0
  5  4  1  0  0  0  0
  5 34  1  0  0  0  0
  6  5  2  0  0  0  0
  7  2  2  0  0  0  0
  7  6  1  0  0  0  0
  8 14  1  0  0  0  0
  8  9  1  0  0  0  0
  8 37  1  1  0  0  0
  9 10  1  0  0  0  0
 10 11  2  0  0  0  0
 12 10  1  0  0  0  0
 12 13  2  0  0  0  0
 14 12  1  0  0  0  0
 15 17  1  0  0  0  0
 15 14  2  0  0  0  0
 16 15  1  0  0  0  0
 17 18  1  0  0  0  0
 18 19  1  0  0  0  0
 18 26  1  0  0  0  0
 19 23  1  0  0  0  0
 20 19  2  0  0  0  0
 21 17  2  0  0  0  0
 21 20  1  0  0  0  0
 22 21  1  0  0  0  0
 22 40  1  0  0  0  0
 23 41  1  0  0  0  0
 23 24  2  0  0  0  0
 24 42  1  0  0  0  0
 25 43  1  0  0  0  0
 25 24  1  0  0  0  0
 26 25  2  0  0  0  0
 27 45  1  0  0  0  0
 27  9  1  0  0  0  0
 27 28  1  0  0  0  0
 28 48  1  0  0  0  0
 28 29  1  0  0  0  0
 29 49  1  0  0  0  0
 29 30  1  0  0  0  0
 30 51  1  0  0  0  0
 30 32  1  0  0  0  0
 31 30  1  0  0  0  0
 31 52  1  0  0  0  0
 32 55  1  0  0  0  0
 32 57  1  0  0  0  0
 35  6  1  0  0  0  0
 36  7  1  0  0  0  0
 38 22  1  0  0  0  0
 39 22  1  0  0  0  0
 44 26  1  0  0  0  0
 46 27  1  0  0  0  0
 47 28  1  0  0  0  0
 50 29  1  0  0  0  0
 53 31  1  0  0  0  0
 54 31  1  0  0  0  0
 56 32  1  0  0  0  0
M  END
>  <Pose>
1

>  <Score>
-5.89

$$$$
