
 OpenBabel03212208413D

 58 61  0  0  1  0  0  0  0  0999 V2000
   15.6090   37.2320   69.9640 B   0  0  0  0  0  0  0  0  0  0  0  0
   14.9540   35.5110   70.5240 C   0  0  0  0  0  0  0  0  0  0  0  0
   15.8260   34.5030   70.8200 C   0  0  0  0  0  0  0  0  0  0  0  0
   15.4190   33.2320   71.2310 C   0  0  0  0  0  0  0  0  0  0  0  0
   14.0560   33.0540   71.3190 C   0  0  0  0  0  0  0  0  0  0  0  0
   13.1570   34.0740   71.0190 C   0  0  0  0  0  0  0  0  0  0  0  0
   13.6110   35.2990   70.6220 C   0  0  0  0  0  0  0  0  0  0  0  0
   16.4060   32.1680   71.5470 C   0  0  2  0  0  0  0  0  0  0  0  0
   16.5060   31.8780   72.9630 N   0  0  0  0  0  0  0  0  0  0  0  0
   17.4290   32.8510   73.4970 C   0  0  0  0  0  0  0  0  0  0  0  0
   17.4950   33.2100   74.6970 O   0  0  0  0  0  0  0  0  0  0  0  0
   18.2480   33.3130   72.3720 C   0  0  0  0  0  0  0  0  0  0  0  0
   19.1790   34.1600   72.3780 O   0  0  0  0  0  0  0  0  0  0  0  0
   17.8020   32.6090   71.1760 C   0  0  0  0  0  0  0  0  0  0  0  0
   18.4680   32.4270   70.0480 C   0  0  0  0  0  0  0  0  0  0  0  0
   17.8690   31.7480   69.0170 O   0  0  0  0  0  0  0  0  0  0  0  0
   19.8420   32.9340   69.8770 C   0  0  0  0  0  0  0  0  0  0  0  0
   20.1810   33.9840   69.1780 O   0  0  0  0  0  0  0  0  0  0  0  0
   21.4500   34.2220   69.1840 C   0  0  0  0  0  0  0  0  0  0  0  0
   22.0330   33.2460   69.9560 C   0  0  0  0  0  0  0  0  0  0  0  0
   21.0110   32.4300   70.3940 C   0  0  0  0  0  0  0  0  0  0  0  0
   23.4000   33.2760   70.1200 C   0  0  0  0  0  0  0  0  0  0  0  0
   24.1820   34.2510   69.5330 C   0  0  0  0  0  0  0  0  0  0  0  0
   23.5460   35.2250   68.7570 C   0  0  0  0  0  0  0  0  0  0  0  0
   22.1870   35.2270   68.5710 C   0  0  0  0  0  0  0  0  0  0  0  0
   21.6020   36.2020   67.8030 O   0  0  0  0  0  0  0  0  0  0  0  0
   21.1980   36.0890   66.4760 C   0  0  0  0  0  0  0  0  0  0  0  0
   15.8250   30.8570   73.7220 C   0  0  0  0  0  0  0  0  0  0  0  0
   16.1460   29.4750   73.2060 C   0  0  0  0  0  0  0  0  0  0  0  0
   16.5570   28.4930   74.2430 C   0  0  0  0  0  0  0  0  0  0  0  0
   17.6920   28.8750   75.0220 N   0  0  0  0  0  4  0  0  0  0  0  0
   18.9160   28.8150   74.2180 C   0  0  0  0  0  0  0  0  0  0  0  0
   17.8550   28.0750   76.1980 C   0  0  0  0  0  0  0  0  0  0  0  0
   16.8960   34.6470   70.7510 H   0  0  0  0  0  0  0  0  0  0  0  0
   13.6300   32.1340   71.6200 H   0  0  0  0  0  0  0  0  0  0  0  0
   12.0860   33.9340   71.0870 H   0  0  0  0  0  0  0  0  0  0  0  0
   12.9540   36.1320   70.3740 H   0  0  0  0  0  0  0  0  0  0  0  0
   16.0870   31.2770   70.9700 H   0  0  0  0  0  0  0  0  0  0  0  0
   21.1080   31.5630   71.0220 H   0  0  0  0  0  0  0  0  0  0  0  0
   23.8490   32.5050   70.7270 H   0  0  0  0  0  0  0  0  0  0  0  0
   25.2530   34.2560   69.6740 H   0  0  0  0  0  0  0  0  0  0  0  0
   24.2170   35.9740   68.3150 H   0  0  0  0  0  0  0  0  0  0  0  0
   21.8410   35.4430   65.8480 H   0  0  0  0  0  0  0  0  0  0  0  0
   21.0750   37.0790   65.9730 H   0  0  0  0  0  0  0  0  0  0  0  0
   20.1940   35.6080   66.4640 H   0  0  0  0  0  0  0  0  0  0  0  0
   16.1290   30.9230   74.7860 H   0  0  0  0  0  0  0  0  0  0  0  0
   14.7340   31.0160   73.5880 H   0  0  0  0  0  0  0  0  0  0  0  0
   15.2430   29.0650   72.6570 H   0  0  0  0  0  0  0  0  0  0  0  0
   16.9130   29.5610   72.3820 H   0  0  0  0  0  0  0  0  0  0  0  0
   16.7420   27.5250   73.7140 H   0  0  0  0  0  0  0  0  0  0  0  0
   15.6910   28.3220   74.9320 H   0  0  0  0  0  0  0  0  0  0  0  0
   17.6440   29.8860   75.3380 H   0  0  0  0  0  0  0  0  0  0  0  0
   19.6870   29.4270   74.7210 H   0  0  0  0  0  0  0  0  0  0  0  0
   19.2370   27.7790   74.0250 H   0  0  0  0  0  0  0  0  0  0  0  0
   18.7120   29.2560   73.2030 H   0  0  0  0  0  0  0  0  0  0  0  0
   16.9650   28.1960   76.8470 H   0  0  0  0  0  0  0  0  0  0  0  0
   17.9680   27.0020   75.9470 H   0  0  0  0  0  0  0  0  0  0  0  0
   18.7880   28.4060   76.7250 H   0  0  0  0  0  0  0  0  0  0  0  0
  1  2  1  0  0  0  0
  2  7  2  0  0  0  0
  2  3  1  0  0  0  0
  3  4  2  0  0  0  0
  4  5  1  0  0  0  0
  4  8  1  0  0  0  0
  5 35  1  0  0  0  0
  6 36  1  0  0  0  0
  6  5  2  0  0  0  0
  7  6  1  0  0  0  0
  8 38  1  6  0  0  0
  8  9  1  0  0  0  0
  9 10  1  0  0  0  0
  9 28  1  0  0  0  0
 10 11  2  0  0  0  0
 12 13  2  0  0  0  0
 12 10  1  0  0  0  0
 14  8  1  0  0  0  0
 14 12  1  0  0  0  0
 15 14  2  0  0  0  0
 16 15  1  0  0  0  0
 17 15  1  0  0  0  0
 17 21  2  0  0  0  0
 18 19  1  0  0  0  0
 18 17  1  0  0  0  0
 19 20  1  0  0  0  0
 20 22  2  0  0  0  0
 20 21  1  0  0  0  0
 21 39  1  0  0  0  0
 22 40  1  0  0  0  0
 23 41  1  0  0  0  0
 23 22  1  0  0  0  0
 24 23  2  0  0  0  0
 25 24  1  0  0  0  0
 25 19  2  0  0  0  0
 26 25  1  0  0  0  0
 27 26  1  0  0  0  0
 28 46  1  0  0  0  0
 29 28  1  0  0  0  0
 29 30  1  0  0  0  0
 30 51  1  0  0  0  0
 30 31  1  0  0  0  0
 31 52  1  0  0  0  0
 31 33  1  0  0  0  0
 32 53  1  0  0  0  0
 32 31  1  0  0  0  0
 33 58  1  0  0  0  0
 33 56  1  0  0  0  0
 34  3  1  0  0  0  0
 37  7  1  0  0  0  0
 42 24  1  0  0  0  0
 43 27  1  0  0  0  0
 44 27  1  0  0  0  0
 45 27  1  0  0  0  0
 47 28  1  0  0  0  0
 48 29  1  0  0  0  0
 49 29  1  0  0  0  0
 50 30  1  0  0  0  0
 54 32  1  0  0  0  0
 55 32  1  0  0  0  0
 57 33  1  0  0  0  0
M  END
>  <Pose>
1

>  <Score>
-6.46

$$$$
