
 OpenBabel03212208413D

 38 41  0  0  1  0  0  0  0  0999 V2000
   18.8950   25.4730   72.4310 B   0  0  0  0  0  0  0  0  0  0  0  0
   17.8150   26.5110   73.6090 C   0  0  0  0  0  0  0  0  0  0  0  0
   17.4880   27.8160   73.3240 C   0  0  0  0  0  0  0  0  0  0  0  0
   16.6960   28.6060   74.1700 C   0  0  0  0  0  0  0  0  0  0  0  0
   16.2550   28.0060   75.3160 C   0  0  0  0  0  0  0  0  0  0  0  0
   16.5910   26.6800   75.5970 C   0  0  0  0  0  0  0  0  0  0  0  0
   17.3610   25.9370   74.7600 C   0  0  0  0  0  0  0  0  0  0  0  0
   16.4100   29.9340   73.7980 N   0  0  0  0  0  0  0  0  0  0  0  0
   16.0020   30.3500   72.5210 C   0  0  0  0  0  0  0  0  0  0  0  0
   16.7410   30.8080   71.6370 O   0  0  0  0  0  0  0  0  0  0  0  0
   14.5480   30.2510   72.1490 C   0  0  2  0  0  0  0  0  0  0  0  0
   14.2220   30.8380   70.8010 C   0  0  0  0  0  0  0  0  0  0  0  0
   13.8130   32.1080   71.4200 N   0  0  1  0  0  0  0  0  0  0  0  0
   13.6950   31.3720   72.6660 C   0  0  0  0  0  0  0  0  0  0  0  0
   13.6390   33.4310   70.9290 C   0  0  2  0  0  0  0  0  0  0  0  0
   12.4170   33.9230   70.5970 N   0  0  0  0  0  0  0  0  0  0  0  0
   12.2760   35.1970   70.1280 C   0  0  0  0  0  0  0  0  0  0  0  0
   13.3340   36.0010   69.9790 N   0  0  0  0  0  0  0  0  0  0  0  0
   14.5630   35.5830   70.2850 C   0  0  0  0  0  0  0  0  0  0  0  0
   15.7660   36.1870   70.2260 N   0  0  0  0  0  0  0  0  0  0  0  0
   16.6450   35.3050   70.6510 N   0  0  0  0  0  0  0  0  0  0  0  0
   16.0380   34.1590   70.9790 N   0  0  0  0  0  0  0  0  0  0  0  0
   14.7030   34.2940   70.7590 C   0  0  0  0  0  0  0  0  0  0  0  0
   16.0720   37.5450   69.7840 C   0  0  0  0  0  0  0  0  0  0  0  0
   17.8610   28.2490   72.4030 H   0  0  0  0  0  0  0  0  0  0  0  0
   15.6320   28.5490   76.0310 H   0  0  0  0  0  0  0  0  0  0  0  0
   16.2090   26.2500   76.5320 H   0  0  0  0  0  0  0  0  0  0  0  0
   17.6100   24.9050   75.0020 H   0  0  0  0  0  0  0  0  0  0  0  0
   16.5210   30.6820   74.5770 H   0  0  0  0  0  0  0  0  0  0  0  0
   14.1400   29.2300   72.2450 H   0  0  0  0  0  0  0  0  0  0  0  0
   15.0910   31.0510   70.1430 H   0  0  0  0  0  0  0  0  0  0  0  0
   13.3650   30.4000   70.2800 H   0  0  0  0  0  0  0  0  0  0  0  0
   14.1470   31.8770   73.5450 H   0  0  0  0  0  0  0  0  0  0  0  0
   12.6420   31.1120   72.8460 H   0  0  0  0  0  0  0  0  0  0  0  0
   11.2750   35.5190   69.8850 H   0  0  0  0  0  0  0  0  0  0  0  0
   16.9660   37.9440   70.2910 H   0  0  0  0  0  0  0  0  0  0  0  0
   15.2320   38.2480   70.0640 H   0  0  0  0  0  0  0  0  0  0  0  0
   16.1790   37.6190   68.7010 H   0  0  0  0  0  0  0  0  0  0  0  0
  1  2  1  0  0  0  0
  2  7  1  0  0  0  0
  3  2  2  0  0  0  0
  3  4  1  0  0  0  0
  4  5  2  0  0  0  0
  5  6  1  0  0  0  0
  5 26  1  0  0  0  0
  6 27  1  0  0  0  0
  7 28  1  0  0  0  0
  7  6  2  0  0  0  0
  8  4  1  0  0  0  0
  8 29  1  0  0  0  0
  9  8  1  0  0  0  0
 10  9  2  0  0  0  0
 11 30  1  1  0  0  0
 11  9  1  0  0  0  0
 11 14  1  0  0  0  0
 12 11  1  0  0  0  0
 13 12  1  1  0  0  0
 13 14  1  0  0  0  0
 14 34  1  0  0  0  0
 14 33  1  0  0  0  0
 15 16  1  6  0  0  0
 15 13  1  0  0  0  0
 17 16  2  0  0  0  0
 18 17  1  0  0  0  0
 18 19  1  0  0  0  0
 19 23  2  0  0  0  0
 20 19  1  0  0  0  0
 20 21  1  0  0  0  0
 21 22  2  0  0  0  0
 23 15  1  0  0  0  0
 23 22  1  0  0  0  0
 24 37  1  0  0  0  0
 24 20  1  0  0  0  0
 24 36  1  0  0  0  0
 25  3  1  0  0  0  0
 31 12  1  0  0  0  0
 32 12  1  0  0  0  0
 35 17  1  0  0  0  0
 38 24  1  0  0  0  0
M  END
>  <Pose>
1

>  <Score>
-6.97

$$$$
