
 OpenBabel03212208413D

 25 28  0  0  1  0  0  0  0  0999 V2000
   16.5880   28.2310   73.1040 B   0  0  0  0  0  0  0  0  0  0  0  0
   15.0030   29.2300   73.4580 C   0  0  0  0  0  0  0  0  0  0  0  0
   14.6140   30.2870   72.6520 C   0  0  0  0  0  0  0  0  0  0  0  0
   13.4920   31.0470   72.8430 C   0  0  0  0  0  0  0  0  0  0  0  0
   12.7210   30.6690   73.9630 C   0  0  0  0  0  0  0  0  0  0  0  0
   13.0770   29.6270   74.7830 C   0  0  0  0  0  0  0  0  0  0  0  0
   14.2200   28.9010   74.5340 C   0  0  0  0  0  0  0  0  0  0  0  0
   13.0590   32.1300   72.0480 N   0  0  0  0  0  0  0  0  0  0  0  0
   13.9030   33.1490   71.5480 C   0  0  1  0  0  0  0  0  0  0  0  0
   15.2020   33.3040   71.7830 N   0  0  0  0  0  0  0  0  0  0  0  0
   15.9680   34.2890   71.2860 C   0  0  0  0  0  0  0  0  0  0  0  0
   17.2580   34.6560   71.3700 N   0  0  0  0  0  0  0  0  0  0  0  0
   17.4920   35.7220   70.6720 O   0  0  0  0  0  0  0  0  0  0  0  0
   16.3830   36.0770   70.1250 N   0  0  0  0  0  0  0  0  0  0  0  0
   15.3880   35.2390   70.4560 C   0  0  0  0  0  0  0  0  0  0  0  0
   14.0780   35.1240   70.1890 N   0  0  0  0  0  0  0  0  0  0  0  0
   13.3060   35.8980   69.4310 N   0  0  0  0  0  0  0  0  0  0  0  0
   12.0690   35.3810   69.4690 N   0  0  0  0  0  0  0  0  0  0  0  0
   12.0990   34.2980   70.2480 N   0  0  0  0  0  0  0  0  0  0  0  0
   13.3430   34.1260   70.7030 C   0  0  0  0  0  0  0  0  0  0  0  0
   15.2620   30.4930   71.8300 H   0  0  0  0  0  0  0  0  0  0  0  0
   11.8240   31.2150   74.1850 H   0  0  0  0  0  0  0  0  0  0  0  0
   12.4720   29.3490   75.6430 H   0  0  0  0  0  0  0  0  0  0  0  0
   14.5040   28.0830   75.1740 H   0  0  0  0  0  0  0  0  0  0  0  0
   12.0230   32.1530   71.8270 H   0  0  0  0  0  0  0  0  0  0  0  0
  1  2  1  0  0  0  0
  2  7  1  0  0  0  0
  3  4  1  0  0  0  0
  3  2  2  0  0  0  0
  4  5  2  0  0  0  0
  5 22  1  0  0  0  0
  5  6  1  0  0  0  0
  6 23  1  0  0  0  0
  7  6  2  0  0  0  0
  7 24  1  0  0  0  0
  8  4  1  0  0  0  0
  9 10  1  0  0  0  0
  9  8  1  6  0  0  0
 11 12  1  0  0  0  0
 11 10  2  0  0  0  0
 13 12  1  0  0  0  0
 14 15  2  0  0  0  0
 14 13  1  0  0  0  0
 15 11  1  0  0  0  0
 16 15  1  0  0  0  0
 16 20  1  0  0  0  0
 17 18  2  0  0  0  0
 17 16  1  0  0  0  0
 18 19  1  0  0  0  0
 19 20  2  0  0  0  0
 20  9  1  0  0  0  0
 21  3  1  0  0  0  0
 25  8  1  0  0  0  0
M  END
>  <Pose>
1

>  <Score>
-6.52

$$$$
