
 OpenBabel03212208413D

 38 41  0  0  0  0  0  0  0  0999 V2000
   12.6660   35.6600   69.4470 B   0  0  0  0  0  0  0  0  0  0  0  0
   13.7290   34.3930   70.3940 C   0  0  0  0  0  0  0  0  0  0  0  0
   15.1200   34.5270   70.4590 C   0  0  0  0  0  0  0  0  0  0  0  0
   15.8840   33.6130   71.1430 C   0  0  0  0  0  0  0  0  0  0  0  0
   15.2380   32.5640   71.7590 C   0  0  0  0  0  0  0  0  0  0  0  0
   13.8470   32.4180   71.7030 C   0  0  0  0  0  0  0  0  0  0  0  0
   13.0920   33.3400   71.0150 C   0  0  0  0  0  0  0  0  0  0  0  0
   17.3120   33.7060   71.2380 N   0  0  0  0  0  0  0  0  0  0  0  0
   18.0520   34.6940   71.6650 N   0  0  0  0  0  0  0  0  0  0  0  0
   19.3350   34.3830   71.5920 N   0  0  0  0  0  0  0  0  0  0  0  0
   19.4390   33.1270   71.0920 C   0  0  0  0  0  0  0  0  0  0  0  0
   18.1440   32.7160   70.8750 C   0  0  0  0  0  0  0  0  0  0  0  0
   20.6540   32.3630   70.8350 C   0  0  0  0  0  0  0  0  0  0  0  0
   21.0370   31.5460   71.7090 O   0  0  0  0  0  0  0  0  0  0  0  0
   21.4100   32.5030   69.6540 N   0  0  0  0  0  0  0  0  0  0  0  0
   22.6440   33.2490   69.5560 C   0  0  0  0  0  0  0  0  0  0  0  0
   22.6510   34.1260   68.3340 C   0  0  0  0  0  0  0  0  0  0  0  0
   21.9390   35.2570   68.1100 N   0  0  0  0  0  0  0  0  0  0  0  0
   22.2350   35.7380   66.8980 C   0  0  0  0  0  0  0  0  0  0  0  0
   23.1450   34.8840   66.3710 N   0  0  0  0  0  0  0  0  0  0  0  0
   23.3940   33.9180   67.2330 N   0  0  0  0  0  0  0  0  0  0  0  0
   21.4590   36.9990   66.6110 C   0  0  0  0  0  0  0  0  0  0  0  0
   20.3610   36.9010   67.6480 C   0  0  0  0  0  0  0  0  0  0  0  0
   20.9580   36.0910   68.7830 C   0  0  0  0  0  0  0  0  0  0  0  0
   15.6230   35.3490   69.9750 H   0  0  0  0  0  0  0  0  0  0  0  0
   15.8310   31.8420   72.2980 H   0  0  0  0  0  0  0  0  0  0  0  0
   13.3450   31.5820   72.1950 H   0  0  0  0  0  0  0  0  0  0  0  0
   12.0160   33.2330   70.9670 H   0  0  0  0  0  0  0  0  0  0  0  0
   17.8580   31.7490   70.4750 H   0  0  0  0  0  0  0  0  0  0  0  0
   21.0550   32.0350   68.7900 H   0  0  0  0  0  0  0  0  0  0  0  0
   22.8170   33.8480   70.4690 H   0  0  0  0  0  0  0  0  0  0  0  0
   23.4960   32.5230   69.4010 H   0  0  0  0  0  0  0  0  0  0  0  0
   21.0910   36.9970   65.5830 H   0  0  0  0  0  0  0  0  0  0  0  0
   22.0890   37.8910   66.8600 H   0  0  0  0  0  0  0  0  0  0  0  0
   20.0920   37.8860   68.0760 H   0  0  0  0  0  0  0  0  0  0  0  0
   19.5060   36.3850   67.1640 H   0  0  0  0  0  0  0  0  0  0  0  0
   21.3820   36.7320   69.5710 H   0  0  0  0  0  0  0  0  0  0  0  0
   20.1340   35.5030   69.2350 H   0  0  0  0  0  0  0  0  0  0  0  0
  1  2  1  0  0  0  0
  2  3  2  0  0  0  0
  2  7  1  0  0  0  0
  3  4  1  0  0  0  0
  4  8  1  0  0  0  0
  4  5  2  0  0  0  0
  5 26  1  0  0  0  0
  6  5  1  0  0  0  0
  6 27  1  0  0  0  0
  7  6  2  0  0  0  0
  8  9  1  0  0  0  0
 10  9  2  0  0  0  0
 11 10  1  0  0  0  0
 12 11  2  0  0  0  0
 12  8  1  0  0  0  0
 13 11  1  0  0  0  0
 13 14  2  0  0  0  0
 15 13  1  0  0  0  0
 16 15  1  0  0  0  0
 16 31  1  0  0  0  0
 17 16  1  0  0  0  0
 18 17  1  0  0  0  0
 18 24  1  0  0  0  0
 19 18  1  0  0  0  0
 20 19  2  0  0  0  0
 20 21  1  0  0  0  0
 21 17  2  0  0  0  0
 22 34  1  0  0  0  0
 22 19  1  0  0  0  0
 22 23  1  0  0  0  0
 23 35  1  0  0  0  0
 23 24  1  0  0  0  0
 24 38  1  0  0  0  0
 24 37  1  0  0  0  0
 25  3  1  0  0  0  0
 28  7  1  0  0  0  0
 29 12  1  0  0  0  0
 30 15  1  0  0  0  0
 32 16  1  0  0  0  0
 33 22  1  0  0  0  0
 36 23  1  0  0  0  0
M  END
>  <Pose>
1

>  <Score>
-6.22

$$$$
