
 OpenBabel03212208413D

 33 36  0  0  1  0  0  0  0  0999 V2000
   12.8300   35.0990   69.7430 B   0  0  0  0  0  0  0  0  0  0  0  0
   14.1460   34.0310   70.6210 C   0  0  0  0  0  0  0  0  0  0  0  0
   15.3970   34.5240   70.8160 C   0  0  0  0  0  0  0  0  0  0  0  0
   16.4260   33.8360   71.4410 C   0  0  0  0  0  0  0  0  0  0  0  0
   16.1280   32.5670   71.8830 C   0  0  0  0  0  0  0  0  0  0  0  0
   14.8510   32.0310   71.6980 C   0  0  0  0  0  0  0  0  0  0  0  0
   13.8610   32.7570   71.0700 C   0  0  0  0  0  0  0  0  0  0  0  0
   17.7390   34.4160   71.6180 N   0  0  0  0  0  0  0  0  0  0  0  0
   18.6000   34.2410   72.7340 C   0  0  0  0  0  0  0  0  0  0  0  0
   18.2060   33.9580   73.9250 O   0  0  0  0  0  0  0  0  0  0  0  0
   19.9910   34.4360   72.3010 C   0  0  1  0  0  0  0  0  0  0  0  0
   20.5630   33.1000   71.9390 C   0  0  1  0  0  0  0  0  0  0  0  0
   19.8380   32.8450   70.7480 O   0  0  0  0  0  0  0  0  0  0  0  0
   20.3170   33.9730   70.0300 C   0  0  1  0  0  0  0  0  0  0  0  0
   19.8640   35.0890   70.9530 C   0  0  1  0  0  0  0  0  0  0  0  0
   18.4180   35.2710   70.7140 C   0  0  0  0  0  0  0  0  0  0  0  0
   17.9040   36.0430   69.8630 O   0  0  0  0  0  0  0  0  0  0  0  0
   21.7750   33.7500   70.1520 C   0  0  0  0  0  0  0  0  0  0  0  0
   21.9320   33.1750   71.3590 C   0  0  0  0  0  0  0  0  0  0  0  0
   20.4020   32.0410   72.9620 C   0  0  0  0  0  0  0  0  0  0  0  0
   21.5420   32.0180   73.7670 O   0  0  0  0  0  0  0  0  0  0  0  0
   15.6220   35.5350   70.4600 H   0  0  0  0  0  0  0  0  0  0  0  0
   16.8700   31.9690   72.3770 H   0  0  0  0  0  0  0  0  0  0  0  0
   14.5860   31.0390   72.0340 H   0  0  0  0  0  0  0  0  0  0  0  0
   12.8650   32.3940   70.9020 H   0  0  0  0  0  0  0  0  0  0  0  0
   20.6130   35.0080   73.0130 H   0  0  0  0  0  0  0  0  0  0  0  0
   19.9340   34.0320   69.0270 H   0  0  0  0  0  0  0  0  0  0  0  0
   20.4510   36.0110   70.8430 H   0  0  0  0  0  0  0  0  0  0  0  0
   22.5680   33.9820   69.4520 H   0  0  0  0  0  0  0  0  0  0  0  0
   22.8770   32.8480   71.7850 H   0  0  0  0  0  0  0  0  0  0  0  0
   19.5490   32.2250   73.6470 H   0  0  0  0  0  0  0  0  0  0  0  0
   20.2700   31.0500   72.5200 H   0  0  0  0  0  0  0  0  0  0  0  0
   22.0940   32.8230   73.6020 H   0  0  0  0  0  0  0  0  0  0  0  0
  1  2  1  0  0  0  0
  2  3  2  0  0  0  0
  2  7  1  0  0  0  0
  3  4  1  0  0  0  0
  4  8  1  0  0  0  0
  4  5  2  0  0  0  0
  5 23  1  0  0  0  0
  6  5  1  0  0  0  0
  6 24  1  0  0  0  0
  7  6  2  0  0  0  0
  8  9  1  0  0  0  0
  9 10  2  0  0  0  0
 11  9  1  0  0  0  0
 11 26  1  1  0  0  0
 12 11  1  0  0  0  0
 12 20  1  1  0  0  0
 13 12  1  0  0  0  0
 14 27  1  6  0  0  0
 14 18  1  0  0  0  0
 14 13  1  0  0  0  0
 14 15  1  0  0  0  0
 15 28  1  6  0  0  0
 15 11  1  0  0  0  0
 16 15  1  0  0  0  0
 16  8  1  0  0  0  0
 17 16  2  0  0  0  0
 18 19  2  0  0  0  0
 19 30  1  0  0  0  0
 19 12  1  0  0  0  0
 20 31  1  0  0  0  0
 20 21  1  0  0  0  0
 22  3  1  0  0  0  0
 25  7  1  0  0  0  0
 29 18  1  0  0  0  0
 32 20  1  0  0  0  0
 33 21  1  0  0  0  0
M  END
>  <Pose>
1

>  <Score>
-5.32

$$$$
