
 OpenBabel03212208413D

 37 40  0  0  1  0  0  0  0  0999 V2000
   23.2200   36.6040   67.1500 B   0  0  0  0  0  0  0  0  0  0  0  0
   22.2030   35.7860   68.5350 C   0  0  0  0  0  0  0  0  0  0  0  0
   20.8680   36.1470   68.7410 C   0  0  0  0  0  0  0  0  0  0  0  0
   20.1150   35.5670   69.7360 C   0  0  0  0  0  0  0  0  0  0  0  0
   20.7230   34.6200   70.5220 C   0  0  0  0  0  0  0  0  0  0  0  0
   22.0620   34.2550   70.3190 C   0  0  0  0  0  0  0  0  0  0  0  0
   22.8140   34.8380   69.3210 C   0  0  0  0  0  0  0  0  0  0  0  0
   18.7650   35.9450   69.9190 N   0  0  0  0  0  0  0  0  0  0  0  0
   18.1630   37.1810   69.4780 C   0  0  0  0  0  0  0  0  0  0  0  0
   18.5290   37.9230   68.5600 O   0  0  0  0  0  0  0  0  0  0  0  0
   16.9740   37.4340   70.3430 C   0  0  1  0  0  0  0  0  0  0  0  0
   15.9070   38.0210   69.6880 O   0  0  0  0  0  0  0  0  0  0  0  0
   14.8390   37.5070   70.3840 N   0  0  0  0  0  0  0  0  0  0  0  0
   15.1500   36.1100   70.5340 C   0  0  0  0  0  0  0  0  0  0  0  0
   16.4580   36.0190   70.5140 C   0  0  0  0  0  0  0  0  0  0  0  0
   17.6920   35.2260   70.5660 C   0  0  0  0  0  0  0  0  0  0  0  0
   17.7450   34.1120   71.0980 O   0  0  0  0  0  0  0  0  0  0  0  0
   14.2470   34.9990   70.6710 C   0  0  0  0  0  0  0  0  0  0  0  0
   14.5260   33.9050   71.4870 C   0  0  0  0  0  0  0  0  0  0  0  0
   13.5040   33.0320   71.4320 N   0  0  0  0  0  0  0  0  0  0  0  0
   12.6190   33.5660   70.6080 N   0  0  0  0  0  0  0  0  0  0  0  0
   13.0110   34.7430   70.1240 C   0  0  0  0  0  0  0  0  0  0  0  0
   12.2780   35.6480   69.1760 C   0  0  0  0  0  0  0  0  0  0  0  0
   13.4060   31.7480   72.1460 C   0  0  0  0  0  0  0  0  0  0  0  0
   20.4420   36.8880   68.1070 H   0  0  0  0  0  0  0  0  0  0  0  0
   20.1630   34.1530   71.3030 H   0  0  0  0  0  0  0  0  0  0  0  0
   22.5160   33.5000   70.9600 H   0  0  0  0  0  0  0  0  0  0  0  0
   23.8530   34.5410   69.1770 H   0  0  0  0  0  0  0  0  0  0  0  0
   17.2440   37.8920   71.3020 H   0  0  0  0  0  0  0  0  0  0  0  0
   13.9990   37.9830   70.7290 H   0  0  0  0  0  0  0  0  0  0  0  0
   15.4250   33.7610   72.0820 H   0  0  0  0  0  0  0  0  0  0  0  0
   12.3090   35.2740   68.1510 H   0  0  0  0  0  0  0  0  0  0  0  0
   12.6140   36.6740   69.3100 H   0  0  0  0  0  0  0  0  0  0  0  0
   11.2070   35.5980   69.5030 H   0  0  0  0  0  0  0  0  0  0  0  0
   12.9100   32.0180   73.1220 H   0  0  0  0  0  0  0  0  0  0  0  0
   14.4000   31.3230   72.3150 H   0  0  0  0  0  0  0  0  0  0  0  0
   12.7040   31.1190   71.6050 H   0  0  0  0  0  0  0  0  0  0  0  0
  1  2  1  0  0  0  0
  2  3  2  0  0  0  0
  2  7  1  0  0  0  0
  3  4  1  0  0  0  0
  4  8  1  0  0  0  0
  4  5  2  0  0  0  0
  5 26  1  0  0  0  0
  6  5  1  0  0  0  0
  6 27  1  0  0  0  0
  7  6  2  0  0  0  0
  8 16  1  0  0  0  0
  9  8  1  0  0  0  0
  9 11  1  0  0  0  0
 10  9  2  0  0  0  0
 11 15  1  0  0  0  0
 11 29  1  1  0  0  0
 12 11  1  0  0  0  0
 12 13  1  0  0  0  0
 13 14  1  0  0  0  0
 13 30  1  0  0  0  0
 14 18  1  0  0  0  0
 15 14  2  0  0  0  0
 15 16  1  0  0  0  0
 16 17  2  0  0  0  0
 18 19  2  0  0  0  0
 19 31  1  0  0  0  0
 20 19  1  0  0  0  0
 20 24  1  0  0  0  0
 21 20  1  0  0  0  0
 22 21  2  0  0  0  0
 22 18  1  0  0  0  0
 23 33  1  0  0  0  0
 23 34  1  0  0  0  0
 23 22  1  0  0  0  0
 24 36  1  0  0  0  0
 24 35  1  0  0  0  0
 25  3  1  0  0  0  0
 28  7  1  0  0  0  0
 32 23  1  0  0  0  0
 37 24  1  0  0  0  0
M  END
>  <Pose>
1

>  <Score>
-6.33

$$$$
