
 OpenBabel03212208413D

 45 48  0  0  1  0  0  0  0  0999 V2000
   20.3490   26.8100   73.1800 B   0  0  0  0  0  0  0  0  0  0  0  0
   18.4600   26.5770   73.3400 C   0  0  0  0  0  0  0  0  0  0  0  0
   17.6010   27.6400   73.3970 C   0  0  0  0  0  0  0  0  0  0  0  0
   16.2060   27.4970   73.5140 C   0  0  0  0  0  0  0  0  0  0  0  0
   15.7530   26.1630   73.5690 C   0  0  0  0  0  0  0  0  0  0  0  0
   16.6130   25.0950   73.5120 C   0  0  0  0  0  0  0  0  0  0  0  0
   17.9740   25.2990   73.3970 C   0  0  0  0  0  0  0  0  0  0  0  0
   15.4550   28.5340   73.5620 O   0  0  0  0  0  0  0  0  0  0  0  0
   14.6510   29.5400   73.6840 C   0  0  0  0  0  0  0  0  0  0  0  0
   15.2230   30.8140   73.0430 C   0  0  0  0  0  0  0  0  0  0  0  0
   16.5540   31.0560   73.5130 N   0  0  0  0  0  0  0  0  0  0  0  0
   17.7060   30.8300   72.7110 C   0  0  0  0  0  0  0  0  0  0  0  0
   17.4650   30.4280   71.5190 O   0  0  0  0  0  0  0  0  0  0  0  0
   19.1010   31.0230   73.1570 C   0  0  0  0  0  0  0  0  0  0  0  0
   19.8070   32.0790   72.4830 N   0  0  0  0  0  0  0  0  0  0  0  0
   19.7130   33.4490   72.9060 C   0  0  0  0  0  0  0  0  0  0  0  0
   18.8460   33.9670   73.6550 O   0  0  0  0  0  0  0  0  0  0  0  0
   20.8300   34.1760   72.3030 C   0  0  1  0  0  0  0  0  0  0  0  0
   21.6350   33.1550   71.4750 C   0  0  2  0  0  0  0  0  0  0  0  0
   21.8220   33.7660   70.1310 C   0  0  2  0  0  0  0  0  0  0  0  0
   21.7950   35.2660   70.4900 C   0  0  0  0  0  0  0  0  0  0  0  0
   20.4440   35.1520   71.2250 C   0  0  1  0  0  0  0  0  0  0  0  0
   19.6790   34.4050   70.1700 C   0  0  0  0  0  0  0  0  0  0  0  0
   20.5190   33.6950   69.4250 C   0  0  0  0  0  0  0  0  0  0  0  0
   20.6930   32.0110   71.3580 C   0  0  0  0  0  0  0  0  0  0  0  0
   20.6520   31.1440   70.4670 O   0  0  0  0  0  0  0  0  0  0  0  0
   17.9870   28.6610   73.3510 H   0  0  0  0  0  0  0  0  0  0  0  0
   14.6920   26.0430   73.6580 H   0  0  0  0  0  0  0  0  0  0  0  0
   16.2580   24.0780   73.5550 H   0  0  0  0  0  0  0  0  0  0  0  0
   18.6350   24.4500   73.3540 H   0  0  0  0  0  0  0  0  0  0  0  0
   13.6800   29.3570   73.1010 H   0  0  0  0  0  0  0  0  0  0  0  0
   14.2950   29.8130   74.7310 H   0  0  0  0  0  0  0  0  0  0  0  0
   15.1470   30.7630   71.9420 H   0  0  0  0  0  0  0  0  0  0  0  0
   14.5020   31.6230   73.3610 H   0  0  0  0  0  0  0  0  0  0  0  0
   16.6890   31.4120   74.4820 H   0  0  0  0  0  0  0  0  0  0  0  0
   19.6370   30.0540   72.9200 H   0  0  0  0  0  0  0  0  0  0  0  0
   19.1490   31.1470   74.2810 H   0  0  0  0  0  0  0  0  0  0  0  0
   21.4940   34.6810   73.0450 H   0  0  0  0  0  0  0  0  0  0  0  0
   22.5680   32.8780   71.9930 H   0  0  0  0  0  0  0  0  0  0  0  0
   22.6790   33.4760   69.5680 H   0  0  0  0  0  0  0  0  0  0  0  0
   22.6060   35.5430   71.1600 H   0  0  0  0  0  0  0  0  0  0  0  0
   21.6890   35.8890   69.5930 H   0  0  0  0  0  0  0  0  0  0  0  0
   20.0330   36.0830   71.5310 H   0  0  0  0  0  0  0  0  0  0  0  0
   18.6090   34.4090   69.9970 H   0  0  0  0  0  0  0  0  0  0  0  0
   20.3850   33.1540   68.5000 H   0  0  0  0  0  0  0  0  0  0  0  0
  1  2  1  0  0  0  0
  2  7  2  0  0  0  0
  2  3  1  0  0  0  0
  3  4  2  0  0  0  0
  4  8  1  0  0  0  0
  4  5  1  0  0  0  0
  5 28  1  0  0  0  0
  6 29  1  0  0  0  0
  6  5  2  0  0  0  0
  7  6  1  0  0  0  0
  8  9  1  0  0  0  0
  9 32  1  0  0  0  0
 10 34  1  0  0  0  0
 10 11  1  0  0  0  0
 10  9  1  0  0  0  0
 11 35  1  0  0  0  0
 12 14  1  0  0  0  0
 12 11  1  0  0  0  0
 13 12  2  0  0  0  0
 14 37  1  0  0  0  0
 15 16  1  0  0  0  0
 15 14  1  0  0  0  0
 16 17  2  0  0  0  0
 18 16  1  0  0  0  0
 18 38  1  1  0  0  0
 19 39  1  1  0  0  0
 19 18  1  0  0  0  0
 20 40  1  6  0  0  0
 20 21  1  0  0  0  0
 20 19  1  0  0  0  0
 21 41  1  0  0  0  0
 21 22  1  0  0  0  0
 22 43  1  1  0  0  0
 22 18  1  0  0  0  0
 23 22  1  0  0  0  0
 24 20  1  0  0  0  0
 24 23  2  0  0  0  0
 25 19  1  0  0  0  0
 25 15  1  0  0  0  0
 26 25  2  0  0  0  0
 27  3  1  0  0  0  0
 30  7  1  0  0  0  0
 31  9  1  0  0  0  0
 33 10  1  0  0  0  0
 36 14  1  0  0  0  0
 42 21  1  0  0  0  0
 44 23  1  0  0  0  0
 45 24  1  0  0  0  0
M  END
>  <Pose>
1

>  <Score>
-5.41

$$$$
