
 OpenBabel03212208413D

 50 53  0  0  0  0  0  0  0  0999 V2000
   14.8100   24.3150   74.3550 B   0  0  0  0  0  0  0  0  0  0  0  0
   15.2650   26.1210   73.9680 C   0  0  0  0  0  0  0  0  0  0  0  0
   14.4620   27.1570   74.4230 C   0  0  0  0  0  0  0  0  0  0  0  0
   14.7670   28.4810   74.1570 C   0  0  0  0  0  0  0  0  0  0  0  0
   15.8780   28.8300   73.4280 C   0  0  0  0  0  0  0  0  0  0  0  0
   16.6700   27.7880   72.9800 C   0  0  0  0  0  0  0  0  0  0  0  0
   16.3800   26.4670   73.2370 C   0  0  0  0  0  0  0  0  0  0  0  0
   16.2040   30.2260   73.1480 C   0  0  0  0  0  0  0  0  0  0  0  0
   16.1390   31.0480   74.0760 O   0  0  0  0  0  0  0  0  0  0  0  0
   16.6080   30.6560   71.7730 C   0  0  0  0  0  0  0  0  0  0  0  0
   16.2620   32.0200   71.4850 N   0  0  0  0  0  0  0  0  0  0  0  0
   15.0330   32.5250   71.2910 C   0  0  0  0  0  0  0  0  0  0  0  0
   15.1210   33.8790   71.0300 C   0  0  0  0  0  0  0  0  0  0  0  0
   16.4300   34.1560   71.0730 N   0  0  0  0  0  0  0  0  0  0  0  0
   17.1450   33.0500   71.3460 C   0  0  0  0  0  0  0  0  0  0  0  0
   18.5470   32.9070   71.4730 N   0  0  0  0  0  0  0  0  0  0  0  0
   19.2570   32.1440   70.4980 C   0  0  0  0  0  0  0  0  0  0  0  0
   20.7310   32.3040   70.4540 C   0  0  0  0  0  0  0  0  0  0  0  0
   21.3490   32.7350   71.6740 N   0  0  0  0  0  0  0  0  0  0  0  0
   20.6500   33.9180   72.1370 C   0  0  0  0  0  0  0  0  0  0  0  0
   19.2350   33.5270   72.5640 C   0  0  0  0  0  0  0  0  0  0  0  0
   21.4300   31.7080   72.6730 C   0  0  0  0  0  0  0  0  0  0  0  0
   14.0060   34.5970   70.8010 N   0  0  0  0  0  0  0  0  0  0  0  0
   12.7960   34.0110   70.8240 C   0  0  0  0  0  0  0  0  0  0  0  0
   11.7310   34.6440   70.6160 O   0  0  0  0  0  0  0  0  0  0  0  0
   12.6950   32.6780   71.0800 N   0  0  0  0  0  0  0  0  0  0  0  0
   13.7790   31.9180   71.3150 C   0  0  0  0  0  0  0  0  0  0  0  0
   13.6430   30.6740   71.5520 O   0  0  0  0  0  0  0  0  0  0  0  0
   14.0650   36.0180   70.5260 C   0  0  0  0  0  0  0  0  0  0  0  0
   13.5820   26.8840   75.0020 H   0  0  0  0  0  0  0  0  0  0  0  0
   14.1120   29.2790   74.5320 H   0  0  0  0  0  0  0  0  0  0  0  0
   17.5560   28.0440   72.4010 H   0  0  0  0  0  0  0  0  0  0  0  0
   17.0130   25.6760   72.8750 H   0  0  0  0  0  0  0  0  0  0  0  0
   17.6860   30.4410   71.6150 H   0  0  0  0  0  0  0  0  0  0  0  0
   16.0730   29.9920   71.0680 H   0  0  0  0  0  0  0  0  0  0  0  0
   19.0110   31.0700   70.7160 H   0  0  0  0  0  0  0  0  0  0  0  0
   18.8550   32.3560   69.4780 H   0  0  0  0  0  0  0  0  0  0  0  0
   21.0540   32.9870   69.6300 H   0  0  0  0  0  0  0  0  0  0  0  0
   21.1780   31.2840   70.2450 H   0  0  0  0  0  0  0  0  0  0  0  0
   20.5200   34.5750   71.2430 H   0  0  0  0  0  0  0  0  0  0  0  0
   21.1400   34.4690   72.9310 H   0  0  0  0  0  0  0  0  0  0  0  0
   19.2740   32.8770   73.4750 H   0  0  0  0  0  0  0  0  0  0  0  0
   18.7690   34.4760   72.9020 H   0  0  0  0  0  0  0  0  0  0  0  0
   20.5690   30.9920   72.5310 H   0  0  0  0  0  0  0  0  0  0  0  0
   21.4100   32.1040   73.7060 H   0  0  0  0  0  0  0  0  0  0  0  0
   22.3380   31.0820   72.5690 H   0  0  0  0  0  0  0  0  0  0  0  0
   11.7350   32.2610   71.0870 H   0  0  0  0  0  0  0  0  0  0  0  0
   14.2220   36.5190   71.5040 H   0  0  0  0  0  0  0  0  0  0  0  0
   14.9560   36.2280   69.9020 H   0  0  0  0  0  0  0  0  0  0  0  0
   13.1290   36.3720   70.0500 H   0  0  0  0  0  0  0  0  0  0  0  0
  2  1  1  0  0  0  0
  2  3  1  0  0  0  0
  3 30  1  0  0  0  0
  4  3  2  0  0  0  0
  4 31  1  0  0  0  0
  5  4  1  0  0  0  0
  6  7  1  0  0  0  0
  6  5  2  0  0  0  0
  7  2  2  0  0  0  0
  8  5  1  0  0  0  0
  8  9  2  0  0  0  0
 10  8  1  0  0  0  0
 11 10  1  0  0  0  0
 12 27  1  0  0  0  0
 12 11  1  0  0  0  0
 13 14  1  0  0  0  0
 13 12  2  0  0  0  0
 14 15  2  0  0  0  0
 15 16  1  0  0  0  0
 15 11  1  0  0  0  0
 16 21  1  0  0  0  0
 17 36  1  0  0  0  0
 17 16  1  0  0  0  0
 18 17  1  0  0  0  0
 18 19  1  0  0  0  0
 19 20  1  0  0  0  0
 19 22  1  0  0  0  0
 20 21  1  0  0  0  0
 20 41  1  0  0  0  0
 21 43  1  0  0  0  0
 21 42  1  0  0  0  0
 22 45  1  0  0  0  0
 23 24  1  0  0  0  0
 23 13  1  0  0  0  0
 24 26  1  0  0  0  0
 25 24  2  0  0  0  0
 26 47  1  0  0  0  0
 26 27  1  0  0  0  0
 27 28  2  0  0  0  0
 29 23  1  0  0  0  0
 29 48  1  0  0  0  0
 32  6  1  0  0  0  0
 33  7  1  0  0  0  0
 34 10  1  0  0  0  0
 35 10  1  0  0  0  0
 37 17  1  0  0  0  0
 38 18  1  0  0  0  0
 39 18  1  0  0  0  0
 40 20  1  0  0  0  0
 44 22  1  0  0  0  0
 46 22  1  0  0  0  0
 49 29  1  0  0  0  0
 50 29  1  0  0  0  0
M  END
>  <Pose>
1

>  <Score>
-7.17

$$$$
