
 OpenBabel03212208413D

 48 51  0  0  1  0  0  0  0  0999 V2000
   11.3400   30.1410   75.0260 B   0  0  0  0  0  0  0  0  0  0  0  0
   13.0520   29.9740   74.2180 C   0  0  0  0  0  0  0  0  0  0  0  0
   13.3710   30.5350   72.9980 C   0  0  0  0  0  0  0  0  0  0  0  0
   14.6250   30.3950   72.4390 C   0  0  0  0  0  0  0  0  0  0  0  0
   15.6260   29.6850   73.0680 C   0  0  0  0  0  0  0  0  0  0  0  0
   15.3070   29.1250   74.2840 C   0  0  0  0  0  0  0  0  0  0  0  0
   14.0620   29.2590   74.8500 C   0  0  0  0  0  0  0  0  0  0  0  0
   16.9610   29.5350   72.4710 C   0  0  0  0  0  0  0  0  0  0  0  0
   17.1930   28.4140   71.9050 O   0  0  0  0  0  0  0  0  0  0  0  0
   17.9360   30.5350   72.5040 N   0  0  0  0  0  0  0  0  0  0  0  0
   17.6120   31.8980   72.1690 C   0  0  2  0  0  0  0  0  0  0  0  0
   18.0100   32.2540   70.7570 C   0  0  0  0  0  0  0  0  0  0  0  0
   19.3340   32.8220   70.8930 N   0  0  0  0  0  0  0  0  0  0  0  0
   19.5630   33.2260   72.2700 C   0  0  1  0  0  0  0  0  0  0  0  0
   18.3910   32.8000   73.0840 C   0  0  0  0  0  0  0  0  0  0  0  0
   20.8320   32.5830   72.6790 C   0  0  0  0  0  0  0  0  0  0  0  0
   20.8840   31.9610   73.7630 O   0  0  0  0  0  0  0  0  0  0  0  0
   21.9480   32.7010   71.8150 N   0  0  0  0  0  0  0  0  0  0  0  0
   21.8480   33.0600   70.4200 C   0  0  1  0  0  0  0  0  0  0  0  0
   20.4170   33.0610   70.0030 C   0  0  0  0  0  0  0  0  0  0  0  0
   20.1130   33.2860   68.7770 O   0  0  0  0  0  0  0  0  0  0  0  0
   22.5300   34.3780   70.1420 C   0  0  0  0  0  0  0  0  0  0  0  0
   23.5540   34.2460   69.0680 C   0  0  0  0  0  0  0  0  0  0  0  0
   24.9110   34.3900   69.3610 C   0  0  0  0  0  0  0  0  0  0  0  0
   25.8130   34.2580   68.3290 C   0  0  0  0  0  0  0  0  0  0  0  0
   25.4340   33.9890   67.0260 C   0  0  0  0  0  0  0  0  0  0  0  0
   24.0870   33.8560   66.7860 C   0  0  0  0  0  0  0  0  0  0  0  0
   23.1380   33.9780   67.7770 C   0  0  0  0  0  0  0  0  0  0  0  0
   12.5720   31.0970   72.5050 H   0  0  0  0  0  0  0  0  0  0  0  0
   14.7930   30.8570   71.4970 H   0  0  0  0  0  0  0  0  0  0  0  0
   16.0560   28.5620   74.8130 H   0  0  0  0  0  0  0  0  0  0  0  0
   13.8150   28.8090   75.8200 H   0  0  0  0  0  0  0  0  0  0  0  0
   18.9100   30.3120   72.7700 H   0  0  0  0  0  0  0  0  0  0  0  0
   16.5250   32.0350   72.2410 H   0  0  0  0  0  0  0  0  0  0  0  0
   17.9840   31.3360   70.1640 H   0  0  0  0  0  0  0  0  0  0  0  0
   17.3540   32.9950   70.2840 H   0  0  0  0  0  0  0  0  0  0  0  0
   19.6450   34.3320   72.3070 H   0  0  0  0  0  0  0  0  0  0  0  0
   18.6830   32.3230   74.0280 H   0  0  0  0  0  0  0  0  0  0  0  0
   17.7540   33.6730   73.3260 H   0  0  0  0  0  0  0  0  0  0  0  0
   22.8900   32.5090   72.2470 H   0  0  0  0  0  0  0  0  0  0  0  0
   22.3310   32.2500   69.8350 H   0  0  0  0  0  0  0  0  0  0  0  0
   22.9990   34.7890   71.0540 H   0  0  0  0  0  0  0  0  0  0  0  0
   21.7480   35.0640   69.7590 H   0  0  0  0  0  0  0  0  0  0  0  0
   25.1910   34.6000   70.3820 H   0  0  0  0  0  0  0  0  0  0  0  0
   26.8860   34.3670   68.5410 H   0  0  0  0  0  0  0  0  0  0  0  0
   26.1880   33.8950   66.2540 H   0  0  0  0  0  0  0  0  0  0  0  0
   23.7730   33.6420   65.7580 H   0  0  0  0  0  0  0  0  0  0  0  0
   22.0840   33.8720   67.5800 H   0  0  0  0  0  0  0  0  0  0  0  0
  2  7  1  0  0  0  0
  2  1  1  0  0  0  0
  3  2  2  0  0  0  0
  4  3  1  0  0  0  0
  4  5  2  0  0  0  0
  5  6  1  0  0  0  0
  6 31  1  0  0  0  0
  6  7  2  0  0  0  0
  7 32  1  0  0  0  0
  8 10  1  0  0  0  0
  8  5  1  0  0  0  0
  9  8  2  0  0  0  0
 10 33  1  0  0  0  0
 11 34  1  1  0  0  0
 11 10  1  0  0  0  0
 11 15  1  0  0  0  0
 12 13  1  0  0  0  0
 12 11  1  0  0  0  0
 13 14  1  0  0  0  0
 14 37  1  1  0  0  0
 14 16  1  0  0  0  0
 14 15  1  0  0  0  0
 15 39  1  0  0  0  0
 15 38  1  0  0  0  0
 16 17  2  0  0  0  0
 18 40  1  0  0  0  0
 18 16  1  0  0  0  0
 19 41  1  6  0  0  0
 19 18  1  0  0  0  0
 20 19  1  0  0  0  0
 20 13  1  0  0  0  0
 21 20  2  0  0  0  0
 22 19  1  0  0  0  0
 22 42  1  0  0  0  0
 23 24  1  0  0  0  0
 23 22  1  0  0  0  0
 24 44  1  0  0  0  0
 25 45  1  0  0  0  0
 25 24  2  0  0  0  0
 26 25  1  0  0  0  0
 27 26  2  0  0  0  0
 27 28  1  0  0  0  0
 28 23  2  0  0  0  0
 29  3  1  0  0  0  0
 30  4  1  0  0  0  0
 35 12  1  0  0  0  0
 36 12  1  0  0  0  0
 43 22  1  0  0  0  0
 46 26  1  0  0  0  0
 47 27  1  0  0  0  0
 48 28  1  0  0  0  0
M  END
>  <Pose>
1

>  <Score>
-6.35

$$$$
