
 OpenBabel03212208413D

 42 45  0  0  1  0  0  0  0  0999 V2000
   12.4860   35.0250   69.9380 B   0  0  0  0  0  0  0  0  0  0  0  0
   13.5910   33.7210   70.7630 C   0  0  0  0  0  0  0  0  0  0  0  0
   14.9650   33.8900   70.7690 C   0  0  0  0  0  0  0  0  0  0  0  0
   15.8130   32.9740   71.3540 C   0  0  0  0  0  0  0  0  0  0  0  0
   15.3110   31.8450   71.9620 C   0  0  0  0  0  0  0  0  0  0  0  0
   13.9600   31.6720   71.9590 C   0  0  0  0  0  0  0  0  0  0  0  0
   13.0880   32.5870   71.3730 C   0  0  0  0  0  0  0  0  0  0  0  0
   16.2480   30.8850   72.5780 C   0  0  0  0  0  0  0  0  0  0  0  0
   17.1480   30.3800   71.8750 O   0  0  0  0  0  0  0  0  0  0  0  0
   16.1420   30.5290   73.9470 N   0  0  0  0  0  0  0  0  0  0  0  0
   15.0100   29.7900   74.3990 C   0  0  2  0  0  0  0  0  0  0  0  0
   15.2570   29.0440   75.6900 C   0  0  0  0  0  0  0  0  0  0  0  0
   15.8860   27.8150   75.2410 N   0  0  0  0  0  0  0  0  0  0  0  0
   15.4660   27.5380   73.8810 C   0  0  1  0  0  0  0  0  0  0  0  0
   14.7070   28.7200   73.3790 C   0  0  0  0  0  0  0  0  0  0  0  0
   16.7010   27.2640   73.1030 C   0  0  0  0  0  0  0  0  0  0  0  0
   16.9340   27.7580   71.9760 O   0  0  0  0  0  0  0  0  0  0  0  0
   17.6870   26.4020   73.6390 N   0  0  0  0  0  0  0  0  0  0  0  0
   17.8610   26.2110   75.0640 C   0  0  2  0  0  0  0  0  0  0  0  0
   17.8580   24.7180   75.1510 C   0  0  0  0  0  0  0  0  0  0  0  0
   18.6970   24.3390   73.9250 C   0  0  0  0  0  0  0  0  0  0  0  0
   18.6740   25.5680   73.0110 C   0  0  0  0  0  0  0  0  0  0  0  0
   16.7780   26.8780   75.8300 C   0  0  0  0  0  0  0  0  0  0  0  0
   16.6240   26.6140   77.0720 O   0  0  0  0  0  0  0  0  0  0  0  0
   15.4100   34.7550   70.3080 H   0  0  0  0  0  0  0  0  0  0  0  0
   16.9010   33.1170   71.3530 H   0  0  0  0  0  0  0  0  0  0  0  0
   13.5170   30.8230   72.4110 H   0  0  0  0  0  0  0  0  0  0  0  0
   12.0170   32.4370   71.3790 H   0  0  0  0  0  0  0  0  0  0  0  0
   16.8770   30.7900   74.6520 H   0  0  0  0  0  0  0  0  0  0  0  0
   14.1410   30.4710   74.4850 H   0  0  0  0  0  0  0  0  0  0  0  0
   14.2860   28.8410   76.1630 H   0  0  0  0  0  0  0  0  0  0  0  0
   15.8680   29.6330   76.3670 H   0  0  0  0  0  0  0  0  0  0  0  0
   14.8380   26.6110   73.8210 H   0  0  0  0  0  0  0  0  0  0  0  0
   14.9290   29.0230   72.3550 H   0  0  0  0  0  0  0  0  0  0  0  0
   13.6020   28.5200   73.4500 H   0  0  0  0  0  0  0  0  0  0  0  0
   18.8430   26.5890   75.4190 H   0  0  0  0  0  0  0  0  0  0  0  0
   18.3390   24.3900   76.0800 H   0  0  0  0  0  0  0  0  0  0  0  0
   16.8160   24.3090   75.0520 H   0  0  0  0  0  0  0  0  0  0  0  0
   18.2720   23.4490   73.4180 H   0  0  0  0  0  0  0  0  0  0  0  0
   19.7450   24.1580   74.1970 H   0  0  0  0  0  0  0  0  0  0  0  0
   19.6680   26.0510   72.9760 H   0  0  0  0  0  0  0  0  0  0  0  0
   18.4050   25.2710   71.9790 H   0  0  0  0  0  0  0  0  0  0  0  0
  1  2  1  0  0  0  0
  2  3  2  0  0  0  0
  2  7  1  0  0  0  0
  3  4  1  0  0  0  0
  4  5  2  0  0  0  0
  5  8  1  0  0  0  0
  6  5  1  0  0  0  0
  6 27  1  0  0  0  0
  7 28  1  0  0  0  0
  7  6  2  0  0  0  0
  8 10  1  0  0  0  0
  9  8  2  0  0  0  0
 10 11  1  0  0  0  0
 10 29  1  0  0  0  0
 11 30  1  1  0  0  0
 11 12  1  0  0  0  0
 12 31  1  0  0  0  0
 12 32  1  0  0  0  0
 13 12  1  0  0  0  0
 13 23  1  0  0  0  0
 14 33  1  6  0  0  0
 14 13  1  0  0  0  0
 15 35  1  0  0  0  0
 15 14  1  0  0  0  0
 15 11  1  0  0  0  0
 16 18  1  0  0  0  0
 16 14  1  0  0  0  0
 17 16  2  0  0  0  0
 18 19  1  0  0  0  0
 19 20  1  0  0  0  0
 19 36  1  1  0  0  0
 19 23  1  0  0  0  0
 20 37  1  0  0  0  0
 21 40  1  0  0  0  0
 21 20  1  0  0  0  0
 22 18  1  0  0  0  0
 22 21  1  0  0  0  0
 23 24  2  0  0  0  0
 25  3  1  0  0  0  0
 26  4  1  0  0  0  0
 34 15  1  0  0  0  0
 38 20  1  0  0  0  0
 39 21  1  0  0  0  0
 41 22  1  0  0  0  0
 42 22  1  0  0  0  0
M  END
>  <Pose>
1

>  <Score>
-5.27

$$$$
