
 OpenBabel03212208413D

 35 38  0  0  1  0  0  0  0  0999 V2000
   12.6630   35.2520   69.7590 B   0  0  0  0  0  0  0  0  0  0  0  0
   13.7770   33.9320   70.5790 C   0  0  0  0  0  0  0  0  0  0  0  0
   15.1310   34.0980   70.5850 C   0  0  0  0  0  0  0  0  0  0  0  0
   15.9500   33.1570   71.1750 C   0  0  0  0  0  0  0  0  0  0  0  0
   15.4180   32.0200   71.7760 C   0  0  0  0  0  0  0  0  0  0  0  0
   14.0510   31.8690   71.7610 C   0  0  0  0  0  0  0  0  0  0  0  0
   13.2280   32.7980   71.1770 C   0  0  0  0  0  0  0  0  0  0  0  0
   16.3140   31.0700   72.3910 C   0  0  0  0  0  0  0  0  0  0  0  0
   16.2920   29.8720   71.9600 O   0  0  0  0  0  0  0  0  0  0  0  0
   17.1790   31.4680   73.4330 N   0  0  0  0  0  0  0  0  0  0  0  0
   18.4650   32.0030   73.1630 N   0  0  0  0  0  0  0  0  0  0  0  0
   19.6480   31.3280   72.7500 C   0  0  0  0  0  0  0  0  0  0  0  0
   19.7140   30.0520   72.7240 O   0  0  0  0  0  0  0  0  0  0  0  0
   20.7060   32.3040   72.3840 C   0  0  2  0  0  0  0  0  0  0  0  0
   19.9610   33.6220   72.4700 C   0  0  1  0  0  0  0  0  0  0  0  0
   19.6370   33.8570   71.0100 C   0  0  1  0  0  0  0  0  0  0  0  0
   21.0590   33.6330   70.4560 C   0  0  0  0  0  0  0  0  0  0  0  0
   21.0960   32.1710   70.9390 C   0  0  2  0  0  0  0  0  0  0  0  0
   19.8610   31.6930   70.2210 C   0  0  0  0  0  0  0  0  0  0  0  0
   18.9780   32.6660   70.4060 C   0  0  0  0  0  0  0  0  0  0  0  0
   18.7540   33.3810   73.2810 C   0  0  0  0  0  0  0  0  0  0  0  0
   18.1300   34.2450   73.9340 O   0  0  0  0  0  0  0  0  0  0  0  0
   15.5720   34.9570   70.1340 H   0  0  0  0  0  0  0  0  0  0  0  0
   17.0200   33.3270   71.1510 H   0  0  0  0  0  0  0  0  0  0  0  0
   13.6130   30.9790   72.2290 H   0  0  0  0  0  0  0  0  0  0  0  0
   12.1500   32.6980   71.1520 H   0  0  0  0  0  0  0  0  0  0  0  0
   16.8820   31.3670   74.4200 H   0  0  0  0  0  0  0  0  0  0  0  0
   21.5700   32.2520   73.0740 H   0  0  0  0  0  0  0  0  0  0  0  0
   20.6160   34.4030   72.8430 H   0  0  0  0  0  0  0  0  0  0  0  0
   19.2300   34.8100   70.7660 H   0  0  0  0  0  0  0  0  0  0  0  0
   21.0640   33.7080   69.3630 H   0  0  0  0  0  0  0  0  0  0  0  0
   21.7780   34.2620   70.9750 H   0  0  0  0  0  0  0  0  0  0  0  0
   21.9940   31.6580   70.7070 H   0  0  0  0  0  0  0  0  0  0  0  0
   19.8130   30.7550   69.7050 H   0  0  0  0  0  0  0  0  0  0  0  0
   17.9330   32.5870   70.1500 H   0  0  0  0  0  0  0  0  0  0  0  0
  1  2  1  0  0  0  0
  2  3  2  0  0  0  0
  2  7  1  0  0  0  0
  3  4  1  0  0  0  0
  4  5  2  0  0  0  0
  5  8  1  0  0  0  0
  6  5  1  0  0  0  0
  6 25  1  0  0  0  0
  7  6  2  0  0  0  0
  8 10  1  0  0  0  0
  9  8  2  0  0  0  0
 10 27  1  0  0  0  0
 11 21  1  0  0  0  0
 11 10  1  0  0  0  0
 12 11  1  0  0  0  0
 13 12  2  0  0  0  0
 14 15  1  0  0  0  0
 14 12  1  0  0  0  0
 14 28  1  1  0  0  0
 15 29  1  1  0  0  0
 15 21  1  0  0  0  0
 16 30  1  6  0  0  0
 16 15  1  0  0  0  0
 17 18  1  0  0  0  0
 17 32  1  0  0  0  0
 17 16  1  0  0  0  0
 18 33  1  6  0  0  0
 18 14  1  0  0  0  0
 19 20  2  0  0  0  0
 19 18  1  0  0  0  0
 20 16  1  0  0  0  0
 21 22  2  0  0  0  0
 23  3  1  0  0  0  0
 24  4  1  0  0  0  0
 26  7  1  0  0  0  0
 31 17  1  0  0  0  0
 34 19  1  0  0  0  0
 35 20  1  0  0  0  0
M  END
>  <Pose>
1

>  <Score>
-6.08

$$$$
