
 OpenBabel03212208413D

 59 62  0  0  1  0  0  0  0  0999 V2000
   19.4340   23.4550   74.2130 B   0  0  0  0  0  0  0  0  0  0  0  0
   19.0190   25.3180   74.0760 C   0  0  0  0  0  0  0  0  0  0  0  0
   20.0040   26.2120   73.7120 C   0  0  0  0  0  0  0  0  0  0  0  0
   19.7230   27.5570   73.6060 C   0  0  0  0  0  0  0  0  0  0  0  0
   18.4520   28.0910   73.8540 C   0  0  0  0  0  0  0  0  0  0  0  0
   17.4840   27.1850   74.2170 C   0  0  0  0  0  0  0  0  0  0  0  0
   17.7630   25.8160   74.3260 C   0  0  0  0  0  0  0  0  0  0  0  0
   18.2290   29.5260   73.7610 C   0  0  0  0  0  0  0  0  0  0  0  0
   17.2650   30.0720   73.0530 C   0  0  0  0  0  0  0  0  0  0  0  0
   16.9880   31.5490   72.9280 C   0  0  2  0  0  0  0  0  0  0  0  0
   15.8120   31.6630   72.1370 N   0  0  0  0  0  0  0  0  0  0  0  0
   15.3960   30.3770   71.6330 C   0  0  0  0  0  0  0  0  0  0  0  0
   14.4610   30.1110   70.8650 O   0  0  0  0  0  0  0  0  0  0  0  0
   16.3190   29.3750   72.2130 C   0  0  0  0  0  0  0  0  0  0  0  0
   16.2650   28.1220   71.9910 O   0  0  0  0  0  0  0  0  0  0  0  0
   15.0720   32.8550   71.8180 C   0  0  0  0  0  0  0  0  0  0  0  0
   15.7120   33.7530   70.8160 C   0  0  0  0  0  0  0  0  0  0  0  0
   14.8250   34.6580   70.1480 N   0  0  0  0  0  4  0  0  0  0  0  0
   14.9960   36.0440   70.5340 C   0  0  0  0  0  0  0  0  0  0  0  0
   14.1350   36.8750   69.6060 C   0  0  0  0  0  0  0  0  0  0  0  0
   12.7960   36.5540   69.9350 O   0  0  0  0  0  0  0  0  0  0  0  0
   12.6100   35.2350   69.5100 C   0  0  0  0  0  0  0  0  0  0  0  0
   13.4140   34.3360   70.4350 C   0  0  0  0  0  0  0  0  0  0  0  0
   18.1850   32.0940   72.2160 C   0  0  0  0  0  0  0  0  0  0  0  0
   18.4130   31.6880   70.9390 C   0  0  0  0  0  0  0  0  0  0  0  0
   19.5050   32.1550   70.2370 C   0  0  0  0  0  0  0  0  0  0  0  0
   20.3700   33.0370   70.8270 C   0  0  0  0  0  0  0  0  0  0  0  0
   20.1370   33.4450   72.1140 C   0  0  0  0  0  0  0  0  0  0  0  0
   19.0420   32.9800   72.8240 C   0  0  0  0  0  0  0  0  0  0  0  0
   21.5350   33.5370   70.0930 C   0  0  0  0  0  0  0  0  0  0  0  0
   22.1500   32.7680   69.3110 O   0  0  0  0  0  0  0  0  0  0  0  0
   22.0000   34.8180   70.2130 O   0  0  0  0  0  0  0  0  0  0  0  0
   21.1510   35.9330   70.3650 C   0  0  0  0  0  0  0  0  0  0  0  0
   19.0680   30.4310   74.4520 O   0  0  0  0  0  0  0  0  0  0  0  0
   21.0060   25.8170   73.5130 H   0  0  0  0  0  0  0  0  0  0  0  0
   20.5040   28.2370   73.3230 H   0  0  0  0  0  0  0  0  0  0  0  0
   16.4750   27.5450   74.4480 H   0  0  0  0  0  0  0  0  0  0  0  0
   16.9820   25.1280   74.6120 H   0  0  0  0  0  0  0  0  0  0  0  0
   16.9220   31.9200   73.9600 H   0  0  0  0  0  0  0  0  0  0  0  0
   14.0260   32.6060   71.4700 H   0  0  0  0  0  0  0  0  0  0  0  0
   14.9030   33.4790   72.7420 H   0  0  0  0  0  0  0  0  0  0  0  0
   16.1390   33.0880   70.0100 H   0  0  0  0  0  0  0  0  0  0  0  0
   16.5930   34.2950   71.2130 H   0  0  0  0  0  0  0  0  0  0  0  0
   14.8770   34.5600   69.0990 H   0  0  0  0  0  0  0  0  0  0  0  0
   16.0530   36.3770   70.5300 H   0  0  0  0  0  0  0  0  0  0  0  0
   14.5690   36.1730   71.5600 H   0  0  0  0  0  0  0  0  0  0  0  0
   14.3000   37.9570   69.8020 H   0  0  0  0  0  0  0  0  0  0  0  0
   14.3340   36.6080   68.5310 H   0  0  0  0  0  0  0  0  0  0  0  0
   13.0990   35.1480   68.5010 H   0  0  0  0  0  0  0  0  0  0  0  0
   11.5400   34.9560   69.4940 H   0  0  0  0  0  0  0  0  0  0  0  0
   13.2490   34.6000   71.5110 H   0  0  0  0  0  0  0  0  0  0  0  0
   13.2030   33.2630   70.2520 H   0  0  0  0  0  0  0  0  0  0  0  0
   17.7640   31.0020   70.4410 H   0  0  0  0  0  0  0  0  0  0  0  0
   19.6730   31.8280   69.2360 H   0  0  0  0  0  0  0  0  0  0  0  0
   20.8460   34.1530   72.5630 H   0  0  0  0  0  0  0  0  0  0  0  0
   18.8640   33.2980   73.8230 H   0  0  0  0  0  0  0  0  0  0  0  0
   21.0070   36.4960   69.4400 H   0  0  0  0  0  0  0  0  0  0  0  0
   20.1510   35.6200   70.7570 H   0  0  0  0  0  0  0  0  0  0  0  0
   21.5810   36.6460   71.1220 H   0  0  0  0  0  0  0  0  0  0  0  0
  2  1  1  0  0  0  0
  2  7  1  0  0  0  0
  3  2  2  0  0  0  0
  4  3  1  0  0  0  0
  4  5  2  0  0  0  0
  5  6  1  0  0  0  0
  6  7  2  0  0  0  0
  6 37  1  0  0  0  0
  7 38  1  0  0  0  0
  8  5  1  0  0  0  0
  8 34  1  0  0  0  0
  9  8  2  0  0  0  0
 10  9  1  0  0  0  0
 10 39  1  1  0  0  0
 11 10  1  0  0  0  0
 12 11  1  0  0  0  0
 12 14  1  0  0  0  0
 13 12  2  0  0  0  0
 14  9  1  0  0  0  0
 15 14  2  0  0  0  0
 16 11  1  0  0  0  0
 16 41  1  0  0  0  0
 17 43  1  0  0  0  0
 17 16  1  0  0  0  0
 18 23  1  0  0  0  0
 18 19  1  0  0  0  0
 18 17  1  0  0  0  0
 19 46  1  0  0  0  0
 20 47  1  0  0  0  0
 20 21  1  0  0  0  0
 20 19  1  0  0  0  0
 22 21  1  0  0  0  0
 22 23  1  0  0  0  0
 23 51  1  0  0  0  0
 24 29  1  0  0  0  0
 24 10  1  0  0  0  0
 25 24  2  0  0  0  0
 26 27  2  0  0  0  0
 26 25  1  0  0  0  0
 27 28  1  0  0  0  0
 28 55  1  0  0  0  0
 28 29  2  0  0  0  0
 29 56  1  0  0  0  0
 30 32  1  0  0  0  0
 30 27  1  0  0  0  0
 31 30  2  0  0  0  0
 32 33  1  0  0  0  0
 33 58  1  0  0  0  0
 33 59  1  0  0  0  0
 35  3  1  0  0  0  0
 36  4  1  0  0  0  0
 40 16  1  0  0  0  0
 42 17  1  0  0  0  0
 44 18  1  0  0  0  0
 45 19  1  0  0  0  0
 48 20  1  0  0  0  0
 49 22  1  0  0  0  0
 50 22  1  0  0  0  0
 52 23  1  0  0  0  0
 53 25  1  0  0  0  0
 54 26  1  0  0  0  0
 57 33  1  0  0  0  0
M  END
>  <Pose>
1

>  <Score>
-6.55

$$$$
