
 OpenBabel03212208413D

 53 56  0  0  1  0  0  0  0  0999 V2000
   12.6620   33.8890   71.3150 B   0  0  0  0  0  0  0  0  0  0  0  0
   14.5040   33.4440   71.0190 C   0  0  0  0  0  0  0  0  0  0  0  0
   14.9630   32.1580   71.1900 C   0  0  0  0  0  0  0  0  0  0  0  0
   16.2960   31.8430   70.9750 C   0  0  0  0  0  0  0  0  0  0  0  0
   17.2110   32.7950   70.5830 C   0  0  0  0  0  0  0  0  0  0  0  0
   16.7490   34.0800   70.4120 C   0  0  0  0  0  0  0  0  0  0  0  0
   15.4060   34.4040   70.6270 C   0  0  0  0  0  0  0  0  0  0  0  0
   18.6000   32.4550   70.3300 C   0  0  0  0  0  0  0  0  0  0  0  0
   19.6370   33.1510   70.7530 C   0  0  0  0  0  0  0  0  0  0  0  0
   21.0960   32.9120   70.5570 C   0  0  1  0  0  0  0  0  0  0  0  0
   21.6440   34.2770   70.4770 N   0  0  0  0  0  0  0  0  0  0  0  0
   20.8590   35.0350   71.3760 C   0  0  0  0  0  0  0  0  0  0  0  0
   21.2130   36.1000   71.8980 O   0  0  0  0  0  0  0  0  0  0  0  0
   19.5840   34.3560   71.5770 C   0  0  0  0  0  0  0  0  0  0  0  0
   18.5970   34.6660   72.2900 O   0  0  0  0  0  0  0  0  0  0  0  0
   22.7340   34.6150   69.6370 C   0  0  0  0  0  0  0  0  0  0  0  0
   22.7750   35.9570   69.0310 C   0  0  0  0  0  0  0  0  0  0  0  0
   22.7640   36.0120   67.6020 N   0  0  0  0  0  4  0  0  0  0  0  0
   23.3890   37.1460   67.0180 C   0  0  0  0  0  0  0  0  0  0  0  0
   22.3200   38.0750   66.4850 C   0  0  0  0  0  0  0  0  0  0  0  0
   21.2230   38.1620   67.3380 O   0  0  0  0  0  0  0  0  0  0  0  0
   20.5140   36.9780   67.4130 C   0  0  0  0  0  0  0  0  0  0  0  0
   21.4430   35.8450   67.0360 C   0  0  0  0  0  0  0  0  0  0  0  0
   21.7190   32.1070   71.6090 C   0  0  0  0  0  0  0  0  0  0  0  0
   21.0290   31.8090   72.7900 C   0  0  0  0  0  0  0  0  0  0  0  0
   21.5510   31.0660   73.8040 C   0  0  0  0  0  0  0  0  0  0  0  0
   22.8330   30.5610   73.6960 C   0  0  0  0  0  0  0  0  0  0  0  0
   23.5320   30.8350   72.5550 C   0  0  0  0  0  0  0  0  0  0  0  0
   22.9950   31.5980   71.5150 C   0  0  0  0  0  0  0  0  0  0  0  0
   18.8640   31.2940   69.5760 O   0  0  0  0  0  0  0  0  0  0  0  0
   14.2600   31.4010   71.4960 H   0  0  0  0  0  0  0  0  0  0  0  0
   16.6760   30.8360   71.1050 H   0  0  0  0  0  0  0  0  0  0  0  0
   17.3630   34.9090   70.0900 H   0  0  0  0  0  0  0  0  0  0  0  0
   15.0500   35.4200   70.4900 H   0  0  0  0  0  0  0  0  0  0  0  0
   21.2400   32.3820   69.5920 H   0  0  0  0  0  0  0  0  0  0  0  0
   23.6770   34.4240   70.2200 H   0  0  0  0  0  0  0  0  0  0  0  0
   22.7850   33.8180   68.8340 H   0  0  0  0  0  0  0  0  0  0  0  0
   23.7640   36.4170   69.3420 H   0  0  0  0  0  0  0  0  0  0  0  0
   22.0180   36.6650   69.4040 H   0  0  0  0  0  0  0  0  0  0  0  0
   23.3160   35.1540   67.2910 H   0  0  0  0  0  0  0  0  0  0  0  0
   24.0960   37.6720   67.6930 H   0  0  0  0  0  0  0  0  0  0  0  0
   23.9990   36.8260   66.1230 H   0  0  0  0  0  0  0  0  0  0  0  0
   22.0450   37.7030   65.4740 H   0  0  0  0  0  0  0  0  0  0  0  0
   22.7950   39.0700   66.3430 H   0  0  0  0  0  0  0  0  0  0  0  0
   19.6640   36.9860   66.7030 H   0  0  0  0  0  0  0  0  0  0  0  0
   20.0770   36.8410   68.4230 H   0  0  0  0  0  0  0  0  0  0  0  0
   21.0010   34.8470   67.3270 H   0  0  0  0  0  0  0  0  0  0  0  0
   21.4780   35.8150   65.9310 H   0  0  0  0  0  0  0  0  0  0  0  0
   20.0200   32.1950   72.8980 H   0  0  0  0  0  0  0  0  0  0  0  0
   20.9810   30.8610   74.6970 H   0  0  0  0  0  0  0  0  0  0  0  0
   23.2420   29.9690   74.5090 H   0  0  0  0  0  0  0  0  0  0  0  0
   24.5310   30.4660   72.4200 H   0  0  0  0  0  0  0  0  0  0  0  0
   23.5890   31.7760   70.6530 H   0  0  0  0  0  0  0  0  0  0  0  0
  2  3  1  0  0  0  0
  2  1  1  0  0  0  0
  3 31  1  0  0  0  0
  4 32  1  0  0  0  0
  4  3  2  0  0  0  0
  5  4  1  0  0  0  0
  6  5  2  0  0  0  0
  6  7  1  0  0  0  0
  7  2  2  0  0  0  0
  8  5  1  0  0  0  0
  8  9  2  0  0  0  0
  9 14  1  0  0  0  0
 10 35  1  6  0  0  0
 10  9  1  0  0  0  0
 10 24  1  0  0  0  0
 11 10  1  0  0  0  0
 11 12  1  0  0  0  0
 12 14  1  0  0  0  0
 12 13  2  0  0  0  0
 14 15  2  0  0  0  0
 16 36  1  0  0  0  0
 16 11  1  0  0  0  0
 17 38  1  0  0  0  0
 17 39  1  0  0  0  0
 17 16  1  0  0  0  0
 18 17  1  0  0  0  0
 19 18  1  0  0  0  0
 19 41  1  0  0  0  0
 20 19  1  0  0  0  0
 20 21  1  0  0  0  0
 21 22  1  0  0  0  0
 22 46  1  0  0  0  0
 23 47  1  0  0  0  0
 23 22  1  0  0  0  0
 23 18  1  0  0  0  0
 24 25  1  0  0  0  0
 25 49  1  0  0  0  0
 25 26  2  0  0  0  0
 26 50  1  0  0  0  0
 27 26  1  0  0  0  0
 27 51  1  0  0  0  0
 28 27  2  0  0  0  0
 29 24  2  0  0  0  0
 29 28  1  0  0  0  0
 30  8  1  0  0  0  0
 33  6  1  0  0  0  0
 34  7  1  0  0  0  0
 37 16  1  0  0  0  0
 40 18  1  0  0  0  0
 42 19  1  0  0  0  0
 43 20  1  0  0  0  0
 44 20  1  0  0  0  0
 45 22  1  0  0  0  0
 48 23  1  0  0  0  0
 52 28  1  0  0  0  0
 53 29  1  0  0  0  0
M  END
>  <Pose>
1

>  <Score>
-5.68

$$$$
