
 OpenBabel03212208413D

 48 51  0  0  1  0  0  0  0  0999 V2000
   24.8230   33.1620   70.3440 B   0  0  0  0  0  0  0  0  0  0  0  0
   22.9270   32.9060   70.2620 C   0  0  0  0  0  0  0  0  0  0  0  0
   22.1740   33.7110   69.4380 C   0  0  0  0  0  0  0  0  0  0  0  0
   20.8190   33.5240   69.3840 C   0  0  0  0  0  0  0  0  0  0  0  0
   20.2250   32.5460   70.1430 C   0  0  0  0  0  0  0  0  0  0  0  0
   21.0090   31.7620   70.9550 C   0  0  0  0  0  0  0  0  0  0  0  0
   22.3830   31.9140   71.0440 C   0  0  0  0  0  0  0  0  0  0  0  0
   18.7290   32.3440   70.0850 C   0  0  1  0  0  0  0  0  0  0  0  0
   18.4570   31.6720   68.9100 O   0  0  0  0  0  0  0  0  0  0  0  0
   18.2410   31.6470   71.3200 C   0  0  0  0  0  0  0  0  0  0  0  0
   16.8120   31.6350   71.4410 N   0  0  0  0  0  0  0  0  0  0  0  0
   16.0700   32.7590   71.2970 C   0  0  0  0  0  0  0  0  0  0  0  0
   14.7510   32.3760   71.4810 C   0  0  0  0  0  0  0  0  0  0  0  0
   13.7610   33.3360   71.3800 C   0  0  0  0  0  0  0  0  0  0  0  0
   14.0560   34.6760   71.1010 C   0  0  0  0  0  0  0  0  0  0  0  0
   15.3920   35.0100   70.9250 C   0  0  0  0  0  0  0  0  0  0  0  0
   16.3950   34.0770   71.0190 C   0  0  0  0  0  0  0  0  0  0  0  0
   14.6860   31.0350   71.7360 N   0  0  0  0  0  0  0  0  0  0  0  0
   15.9780   30.6110   71.7020 C   0  0  1  0  0  0  0  0  0  0  0  0
   16.3240   29.3830   71.8980 N   0  0  0  0  0  0  0  0  0  0  0  0
   13.4690   30.3240   71.9880 C   0  0  0  0  0  0  0  0  0  0  0  0
   13.3060   29.8970   73.4210 C   0  0  0  0  0  0  0  0  0  0  0  0
   12.2740   30.4380   74.1680 C   0  0  0  0  0  0  0  0  0  0  0  0
   12.0580   30.0960   75.4890 C   0  0  0  0  0  0  0  0  0  0  0  0
   12.9130   29.1830   76.0540 C   0  0  0  0  0  0  0  0  0  0  0  0
   13.9430   28.6320   75.3370 C   0  0  0  0  0  0  0  0  0  0  0  0
   14.1300   28.9930   74.0300 C   0  0  0  0  0  0  0  0  0  0  0  0
   22.6650   34.4980   68.8280 H   0  0  0  0  0  0  0  0  0  0  0  0
   20.2130   34.1490   68.7390 H   0  0  0  0  0  0  0  0  0  0  0  0
   20.5470   30.9740   71.5750 H   0  0  0  0  0  0  0  0  0  0  0  0
   22.9960   31.2820   71.6950 H   0  0  0  0  0  0  0  0  0  0  0  0
   18.2780   33.3650   69.9720 H   0  0  0  0  0  0  0  0  0  0  0  0
   19.1540   31.7680   68.2320 H   0  0  0  0  0  0  0  0  0  0  0  0
   18.5530   30.5670   71.2070 H   0  0  0  0  0  0  0  0  0  0  0  0
   18.7290   31.9920   72.2390 H   0  0  0  0  0  0  0  0  0  0  0  0
   12.7350   33.0270   71.5140 H   0  0  0  0  0  0  0  0  0  0  0  0
   13.2580   35.3810   71.0340 H   0  0  0  0  0  0  0  0  0  0  0  0
   15.6380   36.0440   70.7080 H   0  0  0  0  0  0  0  0  0  0  0  0
   17.4210   34.3750   70.8770 H   0  0  0  0  0  0  0  0  0  0  0  0
   17.3560   29.1290   71.8570 H   0  0  0  0  0  0  0  0  0  0  0  0
   15.7000   28.5960   72.0910 H   0  0  0  0  0  0  0  0  0  0  0  0
   13.4050   29.3950   71.3740 H   0  0  0  0  0  0  0  0  0  0  0  0
   12.6100   30.9830   71.7460 H   0  0  0  0  0  0  0  0  0  0  0  0
   11.5720   31.1780   73.7480 H   0  0  0  0  0  0  0  0  0  0  0  0
   11.2330   30.5340   76.0670 H   0  0  0  0  0  0  0  0  0  0  0  0
   12.7850   28.8790   77.0920 H   0  0  0  0  0  0  0  0  0  0  0  0
   14.6050   27.9010   75.8360 H   0  0  0  0  0  0  0  0  0  0  0  0
   14.9370   28.5560   73.4920 H   0  0  0  0  0  0  0  0  0  0  0  0
  2  1  1  0  0  0  0
  2  7  1  0  0  0  0
  3  2  2  0  0  0  0
  4  3  1  0  0  0  0
  4  5  2  0  0  0  0
  5  6  1  0  0  0  0
  6  7  2  0  0  0  0
  6 30  1  0  0  0  0
  7 31  1  0  0  0  0
  8 32  1  6  0  0  0
  8  5  1  0  0  0  0
  8 10  1  0  0  0  0
  9  8  1  0  0  0  0
 10 11  1  0  0  0  0
 10 35  1  0  0  0  0
 11 19  1  0  0  0  0
 12 11  1  0  0  0  0
 12 13  1  0  0  0  0
 13 18  1  0  0  0  0
 14 13  2  0  0  0  0
 14 36  1  0  0  0  0
 15 14  1  0  0  0  0
 16 17  1  0  0  0  0
 16 15  2  0  0  0  0
 17 12  2  0  0  0  0
 18 21  1  0  0  0  0
 19 18  1  0  0  0  0
 19 20  1  6  0  0  0
 20 41  1  0  0  0  0
 21 22  1  0  0  0  0
 22 27  2  0  0  0  0
 22 23  1  0  0  0  0
 23 24  2  0  0  0  0
 24 25  1  0  0  0  0
 24 45  1  0  0  0  0
 25 46  1  0  0  0  0
 26 47  1  0  0  0  0
 26 25  2  0  0  0  0
 27 26  1  0  0  0  0
 28  3  1  0  0  0  0
 29  4  1  0  0  0  0
 33  9  1  0  0  0  0
 34 10  1  0  0  0  0
 37 15  1  0  0  0  0
 38 16  1  0  0  0  0
 39 17  1  0  0  0  0
 40 20  1  0  0  0  0
 42 21  1  0  0  0  0
 43 21  1  0  0  0  0
 44 23  1  0  0  0  0
 48 27  1  0  0  0  0
M  END
>  <Pose>
1

>  <Score>
-5.60

$$$$
