
 OpenBabel03212208413D

 55 58  0  0  0  0  0  0  0  0999 V2000
    9.4660   27.1310   76.8110 B   0  0  0  0  0  0  0  0  0  0  0  0
   10.7500   28.2790   75.9580 C   0  0  0  0  0  0  0  0  0  0  0  0
   10.3650   29.4920   75.4250 C   0  0  0  0  0  0  0  0  0  0  0  0
   11.2880   30.3210   74.8070 C   0  0  0  0  0  0  0  0  0  0  0  0
   12.6040   29.9420   74.7160 C   0  0  0  0  0  0  0  0  0  0  0  0
   13.0060   28.7330   75.2450 C   0  0  0  0  0  0  0  0  0  0  0  0
   12.0750   27.9180   75.8570 C   0  0  0  0  0  0  0  0  0  0  0  0
   13.5460   30.8510   74.0370 C   0  0  0  0  0  0  0  0  0  0  0  0
   13.3450   30.9710   72.6310 N   0  0  0  0  0  0  0  0  0  0  0  0
   13.0870   32.2620   72.1500 C   0  0  0  0  0  0  0  0  0  0  0  0
   14.2090   32.7930   71.2630 C   0  0  0  0  0  0  0  0  0  0  0  0
   15.2580   31.8340   71.2980 N   0  0  0  0  0  0  0  0  0  0  0  0
   14.9380   30.5140   70.8120 C   0  0  0  0  0  0  0  0  0  0  0  0
   13.8950   29.9800   71.8010 C   0  0  0  0  0  0  0  0  0  0  0  0
   16.5470   32.1070   71.7880 C   0  0  0  0  0  0  0  0  0  0  0  0
   17.1560   33.2990   71.9050 N   0  0  0  0  0  0  0  0  0  0  0  0
   18.4120   33.1130   72.3780 C   0  0  0  0  0  0  0  0  0  0  0  0
   18.6130   31.7640   72.5710 C   0  0  0  0  0  0  0  0  0  0  0  0
   17.4710   31.1790   72.2080 N   0  0  0  0  0  0  0  0  0  0  0  0
   19.7990   31.3310   73.0380 N   0  0  0  0  0  0  0  0  0  0  0  0
   20.7980   32.1760   73.3240 C   0  0  0  0  0  0  0  0  0  0  0  0
   21.9060   31.7280   73.7620 O   0  0  0  0  0  0  0  0  0  0  0  0
   20.6220   33.4960   73.1420 N   0  0  0  0  0  0  0  0  0  0  0  0
   19.4530   33.9610   72.6790 C   0  0  0  0  0  0  0  0  0  0  0  0
   19.2920   35.1950   72.5090 O   0  0  0  0  0  0  0  0  0  0  0  0
   19.9790   29.8870   73.2260 C   0  0  0  0  0  0  0  0  0  0  0  0
   16.6210   34.6080   71.6430 C   0  0  0  0  0  0  0  0  0  0  0  0
   16.7670   35.0020   70.1900 C   0  0  0  0  0  0  0  0  0  0  0  0
   17.2540   36.2800   70.0030 O   0  0  0  0  0  0  0  0  0  0  0  0
   16.1190   37.1230   69.9670 C   0  0  0  0  0  0  0  0  0  0  0  0
    9.3330   29.7740   75.5020 H   0  0  0  0  0  0  0  0  0  0  0  0
   10.9050   31.2570   74.4170 H   0  0  0  0  0  0  0  0  0  0  0  0
   14.0550   28.4010   75.1900 H   0  0  0  0  0  0  0  0  0  0  0  0
   12.4160   26.9650   76.2650 H   0  0  0  0  0  0  0  0  0  0  0  0
   14.5930   30.6110   74.2930 H   0  0  0  0  0  0  0  0  0  0  0  0
   13.3470   31.8770   74.4700 H   0  0  0  0  0  0  0  0  0  0  0  0
   13.0900   32.9700   73.0400 H   0  0  0  0  0  0  0  0  0  0  0  0
   12.0860   32.4220   71.6770 H   0  0  0  0  0  0  0  0  0  0  0  0
   13.7450   32.8650   70.2270 H   0  0  0  0  0  0  0  0  0  0  0  0
   14.4730   33.8310   71.5080 H   0  0  0  0  0  0  0  0  0  0  0  0
   15.8300   29.8840   70.7830 H   0  0  0  0  0  0  0  0  0  0  0  0
   14.4570   30.5460   69.7920 H   0  0  0  0  0  0  0  0  0  0  0  0
   14.4410   29.2500   72.4390 H   0  0  0  0  0  0  0  0  0  0  0  0
   13.1420   29.3770   71.2540 H   0  0  0  0  0  0  0  0  0  0  0  0
   21.4090   34.1710   73.3670 H   0  0  0  0  0  0  0  0  0  0  0  0
   20.2120   29.4600   72.2230 H   0  0  0  0  0  0  0  0  0  0  0  0
   20.7350   29.6460   73.9680 H   0  0  0  0  0  0  0  0  0  0  0  0
   18.9780   29.4790   73.5100 H   0  0  0  0  0  0  0  0  0  0  0  0
   15.5510   34.7190   71.9090 H   0  0  0  0  0  0  0  0  0  0  0  0
   17.1550   35.3860   72.2670 H   0  0  0  0  0  0  0  0  0  0  0  0
   15.7930   34.8400   69.6630 H   0  0  0  0  0  0  0  0  0  0  0  0
   17.4720   34.3140   69.6940 H   0  0  0  0  0  0  0  0  0  0  0  0
   15.5900   37.0180   70.9540 H   0  0  0  0  0  0  0  0  0  0  0  0
   15.3870   36.8070   69.2130 H   0  0  0  0  0  0  0  0  0  0  0  0
   16.4610   38.1650   69.8190 H   0  0  0  0  0  0  0  0  0  0  0  0
  2  1  1  0  0  0  0
  3 31  1  0  0  0  0
  3  2  2  0  0  0  0
  4  3  1  0  0  0  0
  5  4  2  0  0  0  0
  5  6  1  0  0  0  0
  6  7  2  0  0  0  0
  7  2  1  0  0  0  0
  7 34  1  0  0  0  0
  8 35  1  0  0  0  0
  8 36  1  0  0  0  0
  8  5  1  0  0  0  0
  9  8  1  0  0  0  0
 10  9  1  0  0  0  0
 10 37  1  0  0  0  0
 11 12  1  0  0  0  0
 11 40  1  0  0  0  0
 11 10  1  0  0  0  0
 12 15  1  0  0  0  0
 13 12  1  0  0  0  0
 13 14  1  0  0  0  0
 14 43  1  0  0  0  0
 14  9  1  0  0  0  0
 15 16  1  0  0  0  0
 15 19  2  0  0  0  0
 16 17  1  0  0  0  0
 17 18  2  0  0  0  0
 17 24  1  0  0  0  0
 18 20  1  0  0  0  0
 19 18  1  0  0  0  0
 20 26  1  0  0  0  0
 20 21  1  0  0  0  0
 21 22  2  0  0  0  0
 23 21  1  0  0  0  0
 23 45  1  0  0  0  0
 24 23  1  0  0  0  0
 25 24  2  0  0  0  0
 26 48  1  0  0  0  0
 26 47  1  0  0  0  0
 27 16  1  0  0  0  0
 27 49  1  0  0  0  0
 27 50  1  0  0  0  0
 28 27  1  0  0  0  0
 29 28  1  0  0  0  0
 30 29  1  0  0  0  0
 30 53  1  0  0  0  0
 32  4  1  0  0  0  0
 33  6  1  0  0  0  0
 38 10  1  0  0  0  0
 39 11  1  0  0  0  0
 41 13  1  0  0  0  0
 42 13  1  0  0  0  0
 44 14  1  0  0  0  0
 46 26  1  0  0  0  0
 51 28  1  0  0  0  0
 52 28  1  0  0  0  0
 54 30  1  0  0  0  0
 55 30  1  0  0  0  0
M  END
>  <Pose>
1

>  <Score>
-5.78

$$$$
