
 OpenBabel03212208413D

 42 45  0  0  0  0  0  0  0  0999 V2000
   13.2640   30.1150   73.4650 B   0  0  0  0  0  0  0  0  0  0  0  0
   14.8220   31.0470   72.8770 C   0  0  0  0  0  0  0  0  0  0  0  0
   14.7320   32.0730   71.9470 C   0  0  0  0  0  0  0  0  0  0  0  0
   15.8480   32.7610   71.5070 C   0  0  0  0  0  0  0  0  0  0  0  0
   17.1020   32.4450   71.9870 C   0  0  0  0  0  0  0  0  0  0  0  0
   17.1810   31.4250   72.9110 C   0  0  0  0  0  0  0  0  0  0  0  0
   16.0750   30.7310   73.3580 C   0  0  0  0  0  0  0  0  0  0  0  0
   18.2930   33.1570   71.5380 C   0  0  0  0  0  0  0  0  0  0  0  0
   18.3180   33.8980   70.5000 N   0  0  0  0  0  0  0  0  0  0  0  0
   19.4130   34.5920   70.0330 N   0  0  0  0  0  0  0  0  0  0  0  0
   19.9830   35.6130   70.8300 C   0  0  0  0  0  0  0  0  0  0  0  0
   20.2760   35.3670   72.0220 O   0  0  0  0  0  0  0  0  0  0  0  0
   20.2380   36.9670   70.2710 C   0  0  0  0  0  0  0  0  0  0  0  0
   20.6090   36.8980   68.8720 N   0  0  0  0  0  0  0  0  0  0  0  0
   21.7790   36.2890   68.5120 N   0  0  0  0  0  0  0  0  0  0  0  0
   21.9150   36.3660   67.1810 C   0  0  0  0  0  0  0  0  0  0  0  0
   20.8360   37.0160   66.7470 N   0  0  0  0  0  0  0  0  0  0  0  0
   20.0080   37.3550   67.8050 C   0  0  0  0  0  0  0  0  0  0  0  0
   18.7620   38.0690   67.6150 C   0  0  0  0  0  0  0  0  0  0  0  0
   17.6840   37.9100   68.4830 N   0  0  0  0  0  0  0  0  0  0  0  0
   16.7190   38.6550   68.1090 O   0  0  0  0  0  0  0  0  0  0  0  0
   17.0480   39.3060   67.0640 N   0  0  0  0  0  0  0  0  0  0  0  0
   18.3270   38.9620   66.7240 C   0  0  0  0  0  0  0  0  0  0  0  0
   18.9480   39.5440   65.6120 N   0  0  0  0  0  0  0  0  0  0  0  0
   23.0100   35.8500   66.3680 C   0  0  0  0  0  0  0  0  0  0  0  0
   23.5240   34.6170   66.3950 N   0  0  0  0  0  0  0  0  0  0  0  0
   24.5040   34.5360   65.5110 O   0  0  0  0  0  0  0  0  0  0  0  0
   24.6570   35.6760   64.8980 N   0  0  0  0  0  0  0  0  0  0  0  0
   23.7250   36.5330   65.4170 C   0  0  0  0  0  0  0  0  0  0  0  0
   23.5770   37.8810   65.0000 N   0  0  0  0  0  0  0  0  0  0  0  0
   13.7680   32.3300   71.5650 H   0  0  0  0  0  0  0  0  0  0  0  0
   15.7660   33.5700   70.7710 H   0  0  0  0  0  0  0  0  0  0  0  0
   18.1870   31.1890   73.2800 H   0  0  0  0  0  0  0  0  0  0  0  0
   16.1860   29.9220   74.0960 H   0  0  0  0  0  0  0  0  0  0  0  0
   19.1990   33.0510   72.1150 H   0  0  0  0  0  0  0  0  0  0  0  0
   19.8190   34.3500   69.0780 H   0  0  0  0  0  0  0  0  0  0  0  0
   19.5720   37.7580   70.5620 H   0  0  0  0  0  0  0  0  0  0  0  0
   21.2220   37.3000   70.8050 H   0  0  0  0  0  0  0  0  0  0  0  0
   18.9860   39.0120   64.7110 H   0  0  0  0  0  0  0  0  0  0  0  0
   19.3780   40.4920   65.6070 H   0  0  0  0  0  0  0  0  0  0  0  0
   23.0070   38.1030   64.1370 H   0  0  0  0  0  0  0  0  0  0  0  0
   23.9990   38.6890   65.4950 H   0  0  0  0  0  0  0  0  0  0  0  0
  2  7  1  0  0  0  0
  2  1  1  0  0  0  0
  3  2  2  0  0  0  0
  4  3  1  0  0  0  0
  4  5  2  0  0  0  0
  5  6  1  0  0  0  0
  6 33  1  0  0  0  0
  6  7  2  0  0  0  0
  7 34  1  0  0  0  0
  8  5  1  0  0  0  0
  8 35  1  0  0  0  0
  9  8  2  0  0  0  0
 10  9  1  0  0  0  0
 10 11  1  0  0  0  0
 11 12  2  0  0  0  0
 13 37  1  0  0  0  0
 13 38  1  0  0  0  0
 13 11  1  0  0  0  0
 14 13  1  0  0  0  0
 15 14  1  0  0  0  0
 16 15  2  0  0  0  0
 17 16  1  0  0  0  0
 17 18  2  0  0  0  0
 18 14  1  0  0  0  0
 19 18  1  0  0  0  0
 19 20  2  0  0  0  0
 21 20  1  0  0  0  0
 22 21  1  0  0  0  0
 23 22  2  0  0  0  0
 23 19  1  0  0  0  0
 24 23  1  0  0  0  0
 25 26  2  0  0  0  0
 25 16  1  0  0  0  0
 27 26  1  0  0  0  0
 28 29  2  0  0  0  0
 28 27  1  0  0  0  0
 29 25  1  0  0  0  0
 30 29  1  0  0  0  0
 30 42  1  0  0  0  0
 31  3  1  0  0  0  0
 32  4  1  0  0  0  0
 36 10  1  0  0  0  0
 39 24  1  0  0  0  0
 40 24  1  0  0  0  0
 41 30  1  0  0  0  0
M  END
>  <Pose>
1

>  <Score>
-8.37

$$$$
