
 OpenBabel03212208413D

 57 60  0  0  0  0  0  0  0  0999 V2000
   15.6930   26.3750   74.4550 B   0  0  0  0  0  0  0  0  0  0  0  0
   15.5570   28.1050   73.6510 C   0  0  0  0  0  0  0  0  0  0  0  0
   14.6150   28.9720   74.1230 C   0  0  0  0  0  0  0  0  0  0  0  0
   14.5040   30.2210   73.5510 C   0  0  0  0  0  0  0  0  0  0  0  0
   15.3100   30.6550   72.5020 C   0  0  0  0  0  0  0  0  0  0  0  0
   16.2480   29.7660   72.0470 C   0  0  0  0  0  0  0  0  0  0  0  0
   16.3810   28.4880   72.6140 C   0  0  0  0  0  0  0  0  0  0  0  0
   15.1830   31.9540   71.8970 C   0  0  0  0  0  0  0  0  0  0  0  0
   16.1970   32.8770   71.9950 C   0  0  0  0  0  0  0  0  0  0  0  0
   16.1150   34.0880   71.4790 O   0  0  0  0  0  0  0  0  0  0  0  0
   15.0480   34.4890   70.8370 C   0  0  0  0  0  0  0  0  0  0  0  0
   14.0170   33.6280   70.7060 C   0  0  0  0  0  0  0  0  0  0  0  0
   12.8790   34.0220   70.0370 C   0  0  0  0  0  0  0  0  0  0  0  0
   12.8310   35.2920   69.5210 C   0  0  0  0  0  0  0  0  0  0  0  0
   13.9120   36.1830   69.6640 C   0  0  0  0  0  0  0  0  0  0  0  0
   15.0480   35.8150   70.3200 C   0  0  0  0  0  0  0  0  0  0  0  0
   16.2390   36.6020   70.5280 C   0  0  0  0  0  0  0  0  0  0  0  0
   17.4320   36.4070   69.8100 N   0  0  0  0  0  4  0  0  0  0  0  0
   18.2730   35.4310   70.4080 C   0  0  0  0  0  0  0  0  0  0  0  0
   19.7340   35.5160   70.2030 C   0  0  0  0  0  0  0  0  0  0  0  0
   20.1740   36.7780   69.7900 N   0  0  0  0  0  0  0  0  0  0  0  0
   19.4570   37.4470   68.7950 C   0  0  0  0  0  0  0  0  0  0  0  0
   18.0010   37.5150   69.1320 C   0  0  0  0  0  0  0  0  0  0  0  0
   21.3090   37.3630   70.3720 C   0  0  0  0  0  0  0  0  0  0  0  0
   13.6830   37.4170   69.0810 O   0  0  0  0  0  0  0  0  0  0  0  0
   14.0290   32.3450   71.2160 C   0  0  0  0  0  0  0  0  0  0  0  0
   13.0840   31.5580   71.0950 O   0  0  0  0  0  0  0  0  0  0  0  0
   17.4240   32.4850   72.7060 C   0  0  0  0  0  0  0  0  0  0  0  0
   17.3620   32.3490   73.9540 O   0  0  0  0  0  0  0  0  0  0  0  0
   18.6160   32.2640   72.0900 O   0  0  0  0  0  0  0  0  0  0  0  0
   19.8270   32.5300   72.7550 C   0  0  0  0  0  0  0  0  0  0  0  0
   20.7790   33.1920   71.7960 C   0  0  0  0  0  0  0  0  0  0  0  0
   13.9680   28.6480   74.9480 H   0  0  0  0  0  0  0  0  0  0  0  0
   13.7710   30.8920   73.9210 H   0  0  0  0  0  0  0  0  0  0  0  0
   16.9260   29.9960   71.2400 H   0  0  0  0  0  0  0  0  0  0  0  0
   17.1170   27.7930   72.2520 H   0  0  0  0  0  0  0  0  0  0  0  0
   12.0570   33.3160   69.9380 H   0  0  0  0  0  0  0  0  0  0  0  0
   11.9490   35.6110   68.9940 H   0  0  0  0  0  0  0  0  0  0  0  0
   16.5270   36.5830   71.6520 H   0  0  0  0  0  0  0  0  0  0  0  0
   15.9740   37.7090   70.4250 H   0  0  0  0  0  0  0  0  0  0  0  0
   17.0400   35.8140   68.9220 H   0  0  0  0  0  0  0  0  0  0  0  0
   18.0660   35.4030   71.5160 H   0  0  0  0  0  0  0  0  0  0  0  0
   17.9500   34.3670   70.1110 H   0  0  0  0  0  0  0  0  0  0  0  0
   20.1110   34.7170   69.4830 H   0  0  0  0  0  0  0  0  0  0  0  0
   20.3080   35.2510   71.1490 H   0  0  0  0  0  0  0  0  0  0  0  0
   19.5700   37.0040   67.7660 H   0  0  0  0  0  0  0  0  0  0  0  0
   19.8630   38.4860   68.6860 H   0  0  0  0  0  0  0  0  0  0  0  0
   17.7720   38.4600   69.6630 H   0  0  0  0  0  0  0  0  0  0  0  0
   17.4860   37.6910   68.1220 H   0  0  0  0  0  0  0  0  0  0  0  0
   21.1170   38.4420   70.5560 H   0  0  0  0  0  0  0  0  0  0  0  0
   21.4560   36.9310   71.4050 H   0  0  0  0  0  0  0  0  0  0  0  0
   22.2750   37.1910   69.8590 H   0  0  0  0  0  0  0  0  0  0  0  0
   19.6680   33.1510   73.6740 H   0  0  0  0  0  0  0  0  0  0  0  0
   20.2730   31.5730   73.1580 H   0  0  0  0  0  0  0  0  0  0  0  0
   21.8110   32.7550   71.8750 H   0  0  0  0  0  0  0  0  0  0  0  0
   20.3580   33.1360   70.7770 H   0  0  0  0  0  0  0  0  0  0  0  0
   20.8050   34.2750   72.0860 H   0  0  0  0  0  0  0  0  0  0  0  0
  2  3  1  0  0  0  0
  2  1  1  0  0  0  0
  3 33  1  0  0  0  0
  4 34  1  0  0  0  0
  4  3  2  0  0  0  0
  5  4  1  0  0  0  0
  6  5  2  0  0  0  0
  6  7  1  0  0  0  0
  7  2  2  0  0  0  0
  8  9  2  0  0  0  0
  8  5  1  0  0  0  0
  9 28  1  0  0  0  0
 10  9  1  0  0  0  0
 11 10  1  0  0  0  0
 12 11  1  0  0  0  0
 12 26  1  0  0  0  0
 13 12  2  0  0  0  0
 14 15  2  0  0  0  0
 14 13  1  0  0  0  0
 15 16  1  0  0  0  0
 16 17  1  0  0  0  0
 16 11  2  0  0  0  0
 17 39  1  0  0  0  0
 18 19  1  0  0  0  0
 18 17  1  0  0  0  0
 19 42  1  0  0  0  0
 20 19  1  0  0  0  0
 20 45  1  0  0  0  0
 21 20  1  0  0  0  0
 21 24  1  0  0  0  0
 22 23  1  0  0  0  0
 22 21  1  0  0  0  0
 23 48  1  0  0  0  0
 23 18  1  0  0  0  0
 24 50  1  0  0  0  0
 24 51  1  0  0  0  0
 25 15  1  0  0  0  0
 26  8  1  0  0  0  0
 27 26  2  0  0  0  0
 28 29  2  0  0  0  0
 30 28  1  0  0  0  0
 30 31  1  0  0  0  0
 31 54  1  0  0  0  0
 31 53  1  0  0  0  0
 32 55  1  0  0  0  0
 32 57  1  0  0  0  0
 32 31  1  0  0  0  0
 35  6  1  0  0  0  0
 36  7  1  0  0  0  0
 37 13  1  0  0  0  0
 38 14  1  0  0  0  0
 40 17  1  0  0  0  0
 41 18  1  0  0  0  0
 43 19  1  0  0  0  0
 44 20  1  0  0  0  0
 46 22  1  0  0  0  0
 47 22  1  0  0  0  0
 49 23  1  0  0  0  0
 52 24  1  0  0  0  0
 56 32  1  0  0  0  0
M  END
>  <Pose>
1

>  <Score>
-6.52

$$$$
