
 OpenBabel03212208413D

 58 62  0  0  1  0  0  0  0  0999 V2000
   21.6480   32.6850   70.1830 B   0  0  0  0  0  0  0  0  0  0  0  0
   19.9400   32.2330   70.9510 C   0  0  0  0  0  0  0  0  0  0  0  0
   18.8390   32.0370   70.1770 C   0  0  0  0  0  0  0  0  0  0  0  0
   17.6310   31.7160   70.7260 C   0  0  0  0  0  0  0  0  0  0  0  0
   17.4590   31.5760   72.0890 C   0  0  0  0  0  0  0  0  0  0  0  0
   18.5540   31.7720   72.8610 C   0  0  0  0  0  0  0  0  0  0  0  0
   19.8140   32.1040   72.3060 C   0  0  0  0  0  0  0  0  0  0  0  0
   16.1430   31.2470   72.5910 C   0  0  0  0  0  0  0  0  0  0  0  0
   15.9400   30.4020   73.6950 C   0  0  0  0  0  0  0  0  0  0  0  0
   14.6290   30.3330   73.8870 N   0  0  0  0  0  0  0  0  0  0  0  0
   13.7360   29.7380   74.7350 C   0  0  0  0  0  0  0  0  0  0  0  0
   12.5000   30.1530   74.3080 C   0  0  0  0  0  0  0  0  0  0  0  0
   12.6880   30.9470   73.2650 N   0  0  0  0  0  0  0  0  0  0  0  0
   14.0180   31.0690   72.9890 C   0  0  1  0  0  0  0  0  0  0  0  0
   14.9410   31.6500   72.1660 N   0  0  0  0  0  0  0  0  0  0  0  0
   14.5460   32.5200   71.1020 C   0  0  0  0  0  0  0  0  0  0  0  0
   13.1230   32.9030   71.0300 C   0  0  0  0  0  0  0  0  0  0  0  0
   12.7610   34.2090   70.4190 C   0  0  0  0  0  0  0  0  0  0  0  0
   13.3480   35.3220   71.1320 N   0  0  0  0  0  4  0  0  0  0  0  0
   14.5930   35.7590   70.5740 C   0  0  0  0  0  0  0  0  0  0  0  0
   14.7570   37.2490   70.4720 C   0  0  0  0  0  0  0  0  0  0  0  0
   15.8720   37.4860   69.4430 C   0  0  0  0  0  0  0  0  0  0  0  0
   17.1310   36.8810   69.9600 C   0  0  0  0  0  0  0  0  0  0  0  0
   16.9890   35.4310   70.3630 C   0  0  0  0  0  0  0  0  0  0  0  0
   15.8140   35.2540   71.3310 C   0  0  0  0  0  0  0  0  0  0  0  0
   11.3300   29.7370   74.9510 C   0  0  0  0  0  0  0  0  0  0  0  0
   11.4120   28.8920   76.0360 C   0  0  0  0  0  0  0  0  0  0  0  0
   12.6630   28.4900   76.4440 C   0  0  0  0  0  0  0  0  0  0  0  0
   13.8310   28.9000   75.8120 C   0  0  0  0  0  0  0  0  0  0  0  0
   18.9260   32.1370   69.0830 H   0  0  0  0  0  0  0  0  0  0  0  0
   16.7740   31.5670   70.0380 H   0  0  0  0  0  0  0  0  0  0  0  0
   18.5820   31.7060   73.9120 H   0  0  0  0  0  0  0  0  0  0  0  0
   20.6780   32.2580   72.9270 H   0  0  0  0  0  0  0  0  0  0  0  0
   16.7050   29.8980   74.2810 H   0  0  0  0  0  0  0  0  0  0  0  0
   11.9070   31.4060   72.7590 H   0  0  0  0  0  0  0  0  0  0  0  0
   14.9440   32.2120   70.1400 H   0  0  0  0  0  0  0  0  0  0  0  0
   15.0890   33.5320   71.3080 H   0  0  0  0  0  0  0  0  0  0  0  0
   12.6420   32.1220   70.3490 H   0  0  0  0  0  0  0  0  0  0  0  0
   12.5450   32.7280   71.9890 H   0  0  0  0  0  0  0  0  0  0  0  0
   11.6680   34.3930   70.3720 H   0  0  0  0  0  0  0  0  0  0  0  0
   13.2280   34.2210   69.3940 H   0  0  0  0  0  0  0  0  0  0  0  0
   12.7280   36.0980   71.3500 H   0  0  0  0  0  0  0  0  0  0  0  0
   13.6080   34.9250   72.1070 H   0  0  0  0  0  0  0  0  0  0  0  0
   14.7350   35.3530   69.5270 H   0  0  0  0  0  0  0  0  0  0  0  0
   13.8500   37.7890   70.2020 H   0  0  0  0  0  0  0  0  0  0  0  0
   15.1850   37.6290   71.4440 H   0  0  0  0  0  0  0  0  0  0  0  0
   15.5630   37.0250   68.4700 H   0  0  0  0  0  0  0  0  0  0  0  0
   16.0330   38.5730   69.3310 H   0  0  0  0  0  0  0  0  0  0  0  0
   17.8890   36.9170   69.1520 H   0  0  0  0  0  0  0  0  0  0  0  0
   17.4980   37.4790   70.8140 H   0  0  0  0  0  0  0  0  0  0  0  0
   17.9170   35.1450   70.8840 H   0  0  0  0  0  0  0  0  0  0  0  0
   16.8030   34.8380   69.4660 H   0  0  0  0  0  0  0  0  0  0  0  0
   16.0010   35.8920   72.2310 H   0  0  0  0  0  0  0  0  0  0  0  0
   15.6880   34.1930   71.5390 H   0  0  0  0  0  0  0  0  0  0  0  0
   10.3560   30.0560   74.6230 H   0  0  0  0  0  0  0  0  0  0  0  0
   10.5150   28.5430   76.5670 H   0  0  0  0  0  0  0  0  0  0  0  0
   12.7270   27.8310   77.2900 H   0  0  0  0  0  0  0  0  0  0  0  0
   14.8040   28.5860   76.1310 H   0  0  0  0  0  0  0  0  0  0  0  0
  1  2  1  0  0  0  0
  2  7  1  0  0  0  0
  3  4  1  0  0  0  0
  3  2  2  0  0  0  0
  4  5  2  0  0  0  0
  5  8  1  0  0  0  0
  5  6  1  0  0  0  0
  6 32  1  0  0  0  0
  7  6  2  0  0  0  0
  7 33  1  0  0  0  0
  8  9  2  0  0  0  0
  9 10  1  0  0  0  0
  9 34  1  0  0  0  0
 10 11  1  0  0  0  0
 11 29  1  0  0  0  0
 12 11  2  0  0  0  0
 12 26  1  0  0  0  0
 13 12  1  0  0  0  0
 14 15  1  1  0  0  0
 14 13  1  0  0  0  0
 14 10  1  0  0  0  0
 15  8  1  0  0  0  0
 16 37  1  0  0  0  0
 16 15  1  0  0  0  0
 17 16  1  0  0  0  0
 17 39  1  0  0  0  0
 18 17  1  0  0  0  0
 18 19  1  0  0  0  0
 19 42  1  0  0  0  0
 19 43  1  0  0  0  0
 20 19  1  0  0  0  0
 20 25  1  0  0  0  0
 21 20  1  0  0  0  0
 21 46  1  0  0  0  0
 22 23  1  0  0  0  0
 22 21  1  0  0  0  0
 23 24  1  0  0  0  0
 23 50  1  0  0  0  0
 24 51  1  0  0  0  0
 24 25  1  0  0  0  0
 25 54  1  0  0  0  0
 25 53  1  0  0  0  0
 26 27  2  0  0  0  0
 27 28  1  0  0  0  0
 27 56  1  0  0  0  0
 28 57  1  0  0  0  0
 29 58  1  0  0  0  0
 29 28  2  0  0  0  0
 30  3  1  0  0  0  0
 31  4  1  0  0  0  0
 35 13  1  0  0  0  0
 36 16  1  0  0  0  0
 38 17  1  0  0  0  0
 40 18  1  0  0  0  0
 41 18  1  0  0  0  0
 44 20  1  0  0  0  0
 45 21  1  0  0  0  0
 47 22  1  0  0  0  0
 48 22  1  0  0  0  0
 49 23  1  0  0  0  0
 52 24  1  0  0  0  0
 55 26  1  0  0  0  0
M  END
>  <Pose>
1

>  <Score>
-6.81

$$$$
