
 OpenBabel03212208413D

 61 65  0  0  1  0  0  0  0  0999 V2000
   12.8640   35.8720   69.5140 B   0  0  0  0  0  0  0  0  0  0  0  0
   14.4270   35.0570   70.2700 C   0  0  0  0  0  0  0  0  0  0  0  0
   14.3740   33.7970   70.8090 C   0  0  0  0  0  0  0  0  0  0  0  0
   15.5190   33.2020   71.3630 C   0  0  0  0  0  0  0  0  0  0  0  0
   16.7280   33.8200   71.4000 C   0  0  0  0  0  0  0  0  0  0  0  0
   16.7600   35.1000   70.8440 C   0  0  0  0  0  0  0  0  0  0  0  0
   15.6350   35.6960   70.2960 C   0  0  0  0  0  0  0  0  0  0  0  0
   17.9520   33.2870   71.9970 C   0  0  0  0  0  0  0  0  0  0  0  0
   18.0390   32.0090   72.5810 C   0  0  0  0  0  0  0  0  0  0  0  0
   19.2810   31.7690   73.0150 N   0  0  0  0  0  0  0  0  0  0  0  0
   20.0730   30.8520   73.6240 C   0  0  0  0  0  0  0  0  0  0  0  0
   21.3210   31.4180   73.7050 C   0  0  0  0  0  0  0  0  0  0  0  0
   21.2570   32.6590   73.1460 N   0  0  0  0  0  0  0  0  0  0  0  0
   19.9930   32.8550   72.7280 C   0  0  1  0  0  0  0  0  0  0  0  0
   19.1850   33.7860   72.1050 N   0  0  0  0  0  0  0  0  0  0  0  0
   19.6780   35.0680   71.6500 C   0  0  0  0  0  0  0  0  0  0  0  0
   19.7660   35.1940   70.1470 C   0  0  0  0  0  0  0  0  0  0  0  0
   20.8900   34.3560   69.5930 C   0  0  0  0  0  0  0  0  0  0  0  0
   22.1150   35.0690   69.3550 N   0  0  0  0  0  0  0  0  0  0  0  0
   21.8610   36.4420   69.7590 C   0  0  0  0  0  0  0  0  0  0  0  0
   22.3420   37.4700   68.8040 C   0  0  0  0  0  0  0  0  0  0  0  0
   22.0570   37.2260   67.4170 N   0  0  0  0  0  4  0  0  0  0  0  0
   21.8010   35.8330   67.1150 C   0  0  0  0  0  0  0  0  0  0  0  0
   22.6500   34.9820   68.0370 C   0  0  0  0  0  0  0  0  0  0  0  0
   21.0920   38.1400   66.8970 C   0  0  0  0  0  0  0  0  0  0  0  0
   19.6660   37.7210   67.0070 C   0  0  0  0  0  0  0  0  0  0  0  0
   18.7740   38.5920   66.3840 O   0  0  0  0  0  0  0  0  0  0  0  0
   22.3300   30.6830   74.2910 C   0  0  0  0  0  0  0  0  0  0  0  0
   22.1090   29.4060   74.7900 C   0  0  0  0  0  0  0  0  0  0  0  0
   20.8610   28.8410   74.7080 C   0  0  0  0  0  0  0  0  0  0  0  0
   19.8380   29.5890   74.1120 C   0  0  0  0  0  0  0  0  0  0  0  0
   13.4370   33.2590   70.8080 H   0  0  0  0  0  0  0  0  0  0  0  0
   15.3750   32.2180   71.7380 H   0  0  0  0  0  0  0  0  0  0  0  0
   17.7000   35.6240   70.8580 H   0  0  0  0  0  0  0  0  0  0  0  0
   15.7080   36.6840   69.8810 H   0  0  0  0  0  0  0  0  0  0  0  0
   17.1940   31.3170   72.6650 H   0  0  0  0  0  0  0  0  0  0  0  0
   22.0640   33.3160   73.0710 H   0  0  0  0  0  0  0  0  0  0  0  0
   18.8950   35.8670   71.9420 H   0  0  0  0  0  0  0  0  0  0  0  0
   20.5730   35.4170   72.1270 H   0  0  0  0  0  0  0  0  0  0  0  0
   18.8210   34.7060   69.7630 H   0  0  0  0  0  0  0  0  0  0  0  0
   19.7520   36.2080   69.7610 H   0  0  0  0  0  0  0  0  0  0  0  0
   20.5950   33.8950   68.6270 H   0  0  0  0  0  0  0  0  0  0  0  0
   21.0510   33.4770   70.2840 H   0  0  0  0  0  0  0  0  0  0  0  0
   20.8150   36.6320   70.0530 H   0  0  0  0  0  0  0  0  0  0  0  0
   22.4550   36.5740   70.7110 H   0  0  0  0  0  0  0  0  0  0  0  0
   23.4380   37.6660   68.9960 H   0  0  0  0  0  0  0  0  0  0  0  0
   21.8510   38.4420   69.1050 H   0  0  0  0  0  0  0  0  0  0  0  0
   22.9640   37.4450   66.8950 H   0  0  0  0  0  0  0  0  0  0  0  0
   22.1350   35.6160   66.0720 H   0  0  0  0  0  0  0  0  0  0  0  0
   20.7670   35.5210   67.2190 H   0  0  0  0  0  0  0  0  0  0  0  0
   23.7110   35.3460   68.0510 H   0  0  0  0  0  0  0  0  0  0  0  0
   22.6800   33.9710   67.6410 H   0  0  0  0  0  0  0  0  0  0  0  0
   21.2630   38.4030   65.8130 H   0  0  0  0  0  0  0  0  0  0  0  0
   21.1930   39.1260   67.4300 H   0  0  0  0  0  0  0  0  0  0  0  0
   19.5800   36.7540   66.4270 H   0  0  0  0  0  0  0  0  0  0  0  0
   19.3510   37.4620   68.0350 H   0  0  0  0  0  0  0  0  0  0  0  0
   18.2240   38.1030   65.7490 H   0  0  0  0  0  0  0  0  0  0  0  0
   23.3250   31.0920   74.3750 H   0  0  0  0  0  0  0  0  0  0  0  0
   22.8890   28.8280   75.2480 H   0  0  0  0  0  0  0  0  0  0  0  0
   20.6840   27.8470   75.0950 H   0  0  0  0  0  0  0  0  0  0  0  0
   18.8510   29.1630   74.0390 H   0  0  0  0  0  0  0  0  0  0  0  0
  1  2  1  0  0  0  0
  2  7  2  0  0  0  0
  2  3  1  0  0  0  0
  3  4  2  0  0  0  0
  4  5  1  0  0  0  0
  4 33  1  0  0  0  0
  5  8  1  0  0  0  0
  6 34  1  0  0  0  0
  6  5  2  0  0  0  0
  7  6  1  0  0  0  0
  8 15  1  0  0  0  0
  8  9  2  0  0  0  0
  9 36  1  0  0  0  0
  9 10  1  0  0  0  0
 10 11  1  0  0  0  0
 11 12  2  0  0  0  0
 11 31  1  0  0  0  0
 12 28  1  0  0  0  0
 13 12  1  0  0  0  0
 14 15  1  6  0  0  0
 14 10  1  0  0  0  0
 14 13  1  0  0  0  0
 16 38  1  0  0  0  0
 16 15  1  0  0  0  0
 16 39  1  0  0  0  0
 17 16  1  0  0  0  0
 18 17  1  0  0  0  0
 18 43  1  0  0  0  0
 19 18  1  0  0  0  0
 19 20  1  0  0  0  0
 20 44  1  0  0  0  0
 20 45  1  0  0  0  0
 21 46  1  0  0  0  0
 21 47  1  0  0  0  0
 21 20  1  0  0  0  0
 22 21  1  0  0  0  0
 23 50  1  0  0  0  0
 23 22  1  0  0  0  0
 23 24  1  0  0  0  0
 24 51  1  0  0  0  0
 24 19  1  0  0  0  0
 25 26  1  0  0  0  0
 25 22  1  0  0  0  0
 25 54  1  0  0  0  0
 26 56  1  0  0  0  0
 27 26  1  0  0  0  0
 28 58  1  0  0  0  0
 28 29  2  0  0  0  0
 29 59  1  0  0  0  0
 30 29  1  0  0  0  0
 30 60  1  0  0  0  0
 31 30  2  0  0  0  0
 32  3  1  0  0  0  0
 35  7  1  0  0  0  0
 37 13  1  0  0  0  0
 40 17  1  0  0  0  0
 41 17  1  0  0  0  0
 42 18  1  0  0  0  0
 48 22  1  0  0  0  0
 49 23  1  0  0  0  0
 52 24  1  0  0  0  0
 53 25  1  0  0  0  0
 55 26  1  0  0  0  0
 57 27  1  0  0  0  0
 61 31  1  0  0  0  0
M  END
>  <Pose>
1

>  <Score>
-7.19

$$$$
