
 OpenBabel03212208413D

 60 63  0  0  1  0  0  0  0  0999 V2000
   18.7260   25.7790   73.0100 B   0  0  0  0  0  0  0  0  0  0  0  0
   17.8570   27.4760   73.1010 C   0  0  0  0  0  0  0  0  0  0  0  0
   16.5040   27.5690   72.8780 C   0  0  0  0  0  0  0  0  0  0  0  0
   15.8640   28.8100   72.9450 C   0  0  0  0  0  0  0  0  0  0  0  0
   16.5630   29.9570   73.2310 C   0  0  0  0  0  0  0  0  0  0  0  0
   17.9160   29.8320   73.4490 C   0  0  0  0  0  0  0  0  0  0  0  0
   18.5650   28.6120   73.3880 C   0  0  0  0  0  0  0  0  0  0  0  0
   15.8800   31.2410   73.3100 C   0  0  2  0  0  0  0  0  0  0  0  0
   14.5730   31.1830   72.6880 N   0  0  0  0  0  0  0  0  0  0  0  0
   14.7950   31.2750   71.2790 C   0  0  0  0  0  0  0  0  0  0  0  0
   14.0480   30.8390   70.3690 O   0  0  0  0  0  0  0  0  0  0  0  0
   16.0630   31.9800   71.1210 C   0  0  0  0  0  0  0  0  0  0  0  0
   16.6740   32.2960   70.0700 O   0  0  0  0  0  0  0  0  0  0  0  0
   16.5590   32.2860   72.4590 C   0  0  0  0  0  0  0  0  0  0  0  0
   17.4150   33.2210   72.7900 C   0  0  0  0  0  0  0  0  0  0  0  0
   17.7760   33.2760   74.1480 O   0  0  0  0  0  0  0  0  0  0  0  0
   17.9770   34.1720   71.8370 C   0  0  0  0  0  0  0  0  0  0  0  0
   17.2270   35.0480   71.0850 C   0  0  0  0  0  0  0  0  0  0  0  0
   17.7500   35.9370   70.1640 C   0  0  0  0  0  0  0  0  0  0  0  0
   19.1030   35.9590   69.9780 C   0  0  0  0  0  0  0  0  0  0  0  0
   19.9020   35.0910   70.7180 C   0  0  0  0  0  0  0  0  0  0  0  0
   19.3440   34.2180   71.6270 C   0  0  0  0  0  0  0  0  0  0  0  0
   16.8510   36.7400   69.5000 O   0  0  0  0  0  0  0  0  0  0  0  0
   15.9510   37.6420   70.0470 C   0  0  0  0  0  0  0  0  0  0  0  0
   13.2650   31.0550   73.3520 C   0  0  0  0  0  0  0  0  0  0  0  0
   13.1640   29.7010   74.0720 C   0  0  0  0  0  0  0  0  0  0  0  0
   11.8910   29.6610   74.8690 C   0  0  0  0  0  0  0  0  0  0  0  0
   11.5970   28.2920   75.2170 N   0  0  0  0  0  4  0  0  0  0  0  0
   10.2060   27.9670   75.1880 C   0  0  0  0  0  0  0  0  0  0  0  0
    9.4390   28.5620   76.3190 C   0  0  0  0  0  0  0  0  0  0  0  0
    9.9870   28.1930   77.5360 O   0  0  0  0  0  0  0  0  0  0  0  0
   11.2920   28.6860   77.5800 C   0  0  0  0  0  0  0  0  0  0  0  0
   12.1000   27.9430   76.5330 C   0  0  0  0  0  0  0  0  0  0  0  0
   15.9750   26.6580   72.6530 H   0  0  0  0  0  0  0  0  0  0  0  0
   14.8160   28.8240   72.7630 H   0  0  0  0  0  0  0  0  0  0  0  0
   18.4420   30.7510   73.6730 H   0  0  0  0  0  0  0  0  0  0  0  0
   19.6260   28.5550   73.5700 H   0  0  0  0  0  0  0  0  0  0  0  0
   15.8270   31.5770   74.3620 H   0  0  0  0  0  0  0  0  0  0  0  0
   16.1600   35.0510   71.2340 H   0  0  0  0  0  0  0  0  0  0  0  0
   19.5370   36.6470   69.2610 H   0  0  0  0  0  0  0  0  0  0  0  0
   20.9730   35.1570   70.5230 H   0  0  0  0  0  0  0  0  0  0  0  0
   20.0240   33.5530   72.1840 H   0  0  0  0  0  0  0  0  0  0  0  0
   14.9430   37.6130   69.5450 H   0  0  0  0  0  0  0  0  0  0  0  0
   15.8620   37.4910   71.1260 H   0  0  0  0  0  0  0  0  0  0  0  0
   16.3210   38.6710   69.8550 H   0  0  0  0  0  0  0  0  0  0  0  0
   12.4940   31.0360   72.5830 H   0  0  0  0  0  0  0  0  0  0  0  0
   13.2190   31.8820   74.0650 H   0  0  0  0  0  0  0  0  0  0  0  0
   13.1480   28.8740   73.3660 H   0  0  0  0  0  0  0  0  0  0  0  0
   14.0290   29.5690   74.7540 H   0  0  0  0  0  0  0  0  0  0  0  0
   12.0710   30.2910   75.7710 H   0  0  0  0  0  0  0  0  0  0  0  0
   11.0760   30.0820   74.2840 H   0  0  0  0  0  0  0  0  0  0  0  0
   12.0980   27.6690   74.5410 H   0  0  0  0  0  0  0  0  0  0  0  0
    9.7760   28.2950   74.2140 H   0  0  0  0  0  0  0  0  0  0  0  0
   10.1080   26.8530   75.2130 H   0  0  0  0  0  0  0  0  0  0  0  0
    9.4890   29.6790   76.2690 H   0  0  0  0  0  0  0  0  0  0  0  0
    8.3730   28.2540   76.2260 H   0  0  0  0  0  0  0  0  0  0  0  0
   11.7680   28.5510   78.5700 H   0  0  0  0  0  0  0  0  0  0  0  0
   11.3380   29.7720   77.3440 H   0  0  0  0  0  0  0  0  0  0  0  0
   11.9010   26.8650   76.6930 H   0  0  0  0  0  0  0  0  0  0  0  0
   13.1740   28.1520   76.6410 H   0  0  0  0  0  0  0  0  0  0  0  0
  1  2  1  0  0  0  0
  2  7  1  0  0  0  0
  3  4  1  0  0  0  0
  3  2  2  0  0  0  0
  4  5  2  0  0  0  0
  5  8  1  0  0  0  0
  5  6  1  0  0  0  0
  6 36  1  0  0  0  0
  7  6  2  0  0  0  0
  7 37  1  0  0  0  0
  8 38  1  1  0  0  0
  9  8  1  0  0  0  0
  9 25  1  0  0  0  0
 10  9  1  0  0  0  0
 11 10  2  0  0  0  0
 12 10  1  0  0  0  0
 12 14  1  0  0  0  0
 13 12  2  0  0  0  0
 14 15  2  0  0  0  0
 14  8  1  0  0  0  0
 15 16  1  0  0  0  0
 17 15  1  0  0  0  0
 18 39  1  0  0  0  0
 18 17  2  0  0  0  0
 19 18  1  0  0  0  0
 20 19  2  0  0  0  0
 20 21  1  0  0  0  0
 21 22  2  0  0  0  0
 22 17  1  0  0  0  0
 22 42  1  0  0  0  0
 23 24  1  0  0  0  0
 23 19  1  0  0  0  0
 24 44  1  0  0  0  0
 25 47  1  0  0  0  0
 25 26  1  0  0  0  0
 26 49  1  0  0  0  0
 26 27  1  0  0  0  0
 27 28  1  0  0  0  0
 27 50  1  0  0  0  0
 28 33  1  0  0  0  0
 29 54  1  0  0  0  0
 29 28  1  0  0  0  0
 29 30  1  0  0  0  0
 30 31  1  0  0  0  0
 31 32  1  0  0  0  0
 32 57  1  0  0  0  0
 33 60  1  0  0  0  0
 33 59  1  0  0  0  0
 33 32  1  0  0  0  0
 34  3  1  0  0  0  0
 35  4  1  0  0  0  0
 40 20  1  0  0  0  0
 41 21  1  0  0  0  0
 43 24  1  0  0  0  0
 45 24  1  0  0  0  0
 46 25  1  0  0  0  0
 48 26  1  0  0  0  0
 51 27  1  0  0  0  0
 52 28  1  0  0  0  0
 53 29  1  0  0  0  0
 55 30  1  0  0  0  0
 56 30  1  0  0  0  0
 58 32  1  0  0  0  0
M  END
>  <Pose>
1

>  <Score>
-6.38

$$$$
