
 OpenBabel03212208413D

 56 59  0  0  1  0  0  0  0  0999 V2000
   13.7450   36.8510   69.7840 B   0  0  0  0  0  0  0  0  0  0  0  0
   15.4350   36.0850   70.2580 C   0  0  0  0  0  0  0  0  0  0  0  0
   15.5260   34.8580   70.8790 C   0  0  0  0  0  0  0  0  0  0  0  0
   16.7420   34.3320   71.2090 C   0  0  0  0  0  0  0  0  0  0  0  0
   17.9470   34.9990   70.9390 C   0  0  0  0  0  0  0  0  0  0  0  0
   17.8520   36.2000   70.3300 C   0  0  0  0  0  0  0  0  0  0  0  0
   16.6110   36.7430   69.9910 C   0  0  0  0  0  0  0  0  0  0  0  0
   19.1440   34.3520   71.3150 C   0  0  1  0  0  0  0  0  0  0  0  0
   19.3090   33.0620   71.8310 N   0  0  0  0  0  0  0  0  0  0  0  0
   20.7240   33.0400   72.2560 C   0  0  0  0  0  0  0  0  0  0  0  0
   21.2240   32.3740   73.2040 O   0  0  0  0  0  0  0  0  0  0  0  0
   21.3960   33.9570   71.3310 C   0  0  0  0  0  0  0  0  0  0  0  0
   22.6270   34.2650   71.2840 O   0  0  0  0  0  0  0  0  0  0  0  0
   20.3400   34.4640   70.4330 C   0  0  0  0  0  0  0  0  0  0  0  0
   20.4630   34.8460   69.1830 C   0  0  0  0  0  0  0  0  0  0  0  0
   19.3450   35.2330   68.4520 O   0  0  0  0  0  0  0  0  0  0  0  0
   21.7410   34.9030   68.4920 C   0  0  0  0  0  0  0  0  0  0  0  0
   22.3520   36.0250   68.0250 C   0  0  0  0  0  0  0  0  0  0  0  0
   23.5980   35.9460   67.4210 C   0  0  0  0  0  0  0  0  0  0  0  0
   24.2330   34.7330   67.2860 C   0  0  0  0  0  0  0  0  0  0  0  0
   23.6500   33.5750   67.7440 C   0  0  0  0  0  0  0  0  0  0  0  0
   22.4030   33.6780   68.3450 C   0  0  0  0  0  0  0  0  0  0  0  0
   25.5750   34.6090   66.6410 C   0  0  0  0  0  0  0  0  0  0  0  0
   18.5070   31.8710   72.0660 C   0  0  0  0  0  0  0  0  0  0  0  0
   17.6890   31.9220   73.3300 C   0  0  0  0  0  0  0  0  0  0  0  0
   17.0060   30.7050   73.6260 N   0  0  0  0  0  4  0  0  0  0  0  0
   17.6610   29.5900   72.9680 C   0  0  0  0  0  0  0  0  0  0  0  0
   16.9390   28.3210   73.3380 C   0  0  0  0  0  0  0  0  0  0  0  0
   15.6870   28.3810   72.7050 O   0  0  0  0  0  0  0  0  0  0  0  0
   14.9900   29.4340   73.2510 C   0  0  0  0  0  0  0  0  0  0  0  0
   15.6600   30.7640   73.0210 C   0  0  0  0  0  0  0  0  0  0  0  0
   14.5840   34.3460   71.0860 H   0  0  0  0  0  0  0  0  0  0  0  0
   16.7630   33.3470   71.7040 H   0  0  0  0  0  0  0  0  0  0  0  0
   18.6800   36.8360   70.0460 H   0  0  0  0  0  0  0  0  0  0  0  0
   16.5200   37.7100   69.5010 H   0  0  0  0  0  0  0  0  0  0  0  0
   19.5140   35.0210   72.2380 H   0  0  0  0  0  0  0  0  0  0  0  0
   21.8370   36.9840   68.1020 H   0  0  0  0  0  0  0  0  0  0  0  0
   24.0730   36.8470   67.0550 H   0  0  0  0  0  0  0  0  0  0  0  0
   24.1370   32.5970   67.6460 H   0  0  0  0  0  0  0  0  0  0  0  0
   21.9000   32.7900   68.7230 H   0  0  0  0  0  0  0  0  0  0  0  0
   25.5260   34.0550   65.6840 H   0  0  0  0  0  0  0  0  0  0  0  0
   25.9820   35.6360   66.4280 H   0  0  0  0  0  0  0  0  0  0  0  0
   26.3050   34.1200   67.3190 H   0  0  0  0  0  0  0  0  0  0  0  0
   17.7470   31.7990   71.2330 H   0  0  0  0  0  0  0  0  0  0  0  0
   19.1070   30.9680   72.0970 H   0  0  0  0  0  0  0  0  0  0  0  0
   18.3800   32.1290   74.2130 H   0  0  0  0  0  0  0  0  0  0  0  0
   16.9680   32.7870   73.2870 H   0  0  0  0  0  0  0  0  0  0  0  0
   16.9010   30.5310   74.6360 H   0  0  0  0  0  0  0  0  0  0  0  0
   18.7180   29.4700   73.2020 H   0  0  0  0  0  0  0  0  0  0  0  0
   17.6000   29.7440   71.8670 H   0  0  0  0  0  0  0  0  0  0  0  0
   16.8110   28.2260   74.4230 H   0  0  0  0  0  0  0  0  0  0  0  0
   17.4810   27.4340   72.9610 H   0  0  0  0  0  0  0  0  0  0  0  0
   13.9900   29.4620   72.7420 H   0  0  0  0  0  0  0  0  0  0  0  0
   14.8330   29.2720   74.3230 H   0  0  0  0  0  0  0  0  0  0  0  0
   15.8190   30.9450   71.9440 H   0  0  0  0  0  0  0  0  0  0  0  0
   15.0410   31.5500   73.4610 H   0  0  0  0  0  0  0  0  0  0  0  0
  1  2  1  0  0  0  0
  2  3  1  0  0  0  0
  3 32  1  0  0  0  0
  3  4  2  0  0  0  0
  4 33  1  0  0  0  0
  5  4  1  0  0  0  0
  5  8  1  0  0  0  0
  6  5  2  0  0  0  0
  7  2  2  0  0  0  0
  7  6  1  0  0  0  0
  8  9  1  0  0  0  0
  8 36  1  1  0  0  0
  9 24  1  0  0  0  0
  9 10  1  0  0  0  0
 10 11  2  0  0  0  0
 12 10  1  0  0  0  0
 13 12  2  0  0  0  0
 14  8  1  0  0  0  0
 14 12  1  0  0  0  0
 15 14  2  0  0  0  0
 16 15  1  0  0  0  0
 17 15  1  0  0  0  0
 18 37  1  0  0  0  0
 18 17  2  0  0  0  0
 19 18  1  0  0  0  0
 20 19  2  0  0  0  0
 20 21  1  0  0  0  0
 21 22  2  0  0  0  0
 22 17  1  0  0  0  0
 22 40  1  0  0  0  0
 23 20  1  0  0  0  0
 23 43  1  0  0  0  0
 24 45  1  0  0  0  0
 24 25  1  0  0  0  0
 25 26  1  0  0  0  0
 25 46  1  0  0  0  0
 26 48  1  0  0  0  0
 27 49  1  0  0  0  0
 27 28  1  0  0  0  0
 27 26  1  0  0  0  0
 28 51  1  0  0  0  0
 29 30  1  0  0  0  0
 29 28  1  0  0  0  0
 30 54  1  0  0  0  0
 31 30  1  0  0  0  0
 31 56  1  0  0  0  0
 31 26  1  0  0  0  0
 34  6  1  0  0  0  0
 35  7  1  0  0  0  0
 38 19  1  0  0  0  0
 39 21  1  0  0  0  0
 41 23  1  0  0  0  0
 42 23  1  0  0  0  0
 44 24  1  0  0  0  0
 47 25  1  0  0  0  0
 50 27  1  0  0  0  0
 52 28  1  0  0  0  0
 53 30  1  0  0  0  0
 55 31  1  0  0  0  0
M  END
>  <Pose>
1

>  <Score>
-5.71

$$$$
