
 OpenBabel03212208413D

 53 56  0  0  1  0  0  0  0  0999 V2000
   20.0940   35.3770   71.1230 B   0  0  0  0  0  0  0  0  0  0  0  0
   18.7550   34.1470   71.6810 C   0  0  0  0  0  0  0  0  0  0  0  0
   18.0340   33.3690   70.8040 C   0  0  0  0  0  0  0  0  0  0  0  0
   17.0540   32.4720   71.2530 C   0  0  0  0  0  0  0  0  0  0  0  0
   16.7810   32.3420   72.5850 C   0  0  0  0  0  0  0  0  0  0  0  0
   17.5180   33.1340   73.4410 C   0  0  0  0  0  0  0  0  0  0  0  0
   18.4840   34.0180   73.0170 C   0  0  0  0  0  0  0  0  0  0  0  0
   15.7940   31.4660   73.0910 C   0  0  1  0  0  0  0  0  0  0  0  0
   14.5550   31.2390   72.4410 N   0  0  0  0  0  0  0  0  0  0  0  0
   13.9060   30.2460   73.2910 C   0  0  0  0  0  0  0  0  0  0  0  0
   12.6620   30.0940   73.4390 O   0  0  0  0  0  0  0  0  0  0  0  0
   14.9880   29.4880   73.9150 C   0  0  0  0  0  0  0  0  0  0  0  0
   14.9030   28.5250   74.7220 O   0  0  0  0  0  0  0  0  0  0  0  0
   16.2310   30.0730   73.4070 C   0  0  0  0  0  0  0  0  0  0  0  0
   17.3970   29.4760   73.2420 C   0  0  0  0  0  0  0  0  0  0  0  0
   18.4630   30.1640   72.6850 O   0  0  0  0  0  0  0  0  0  0  0  0
   17.6570   28.0960   73.6260 C   0  0  0  0  0  0  0  0  0  0  0  0
   17.1060   27.1370   72.7650 C   0  0  0  0  0  0  0  0  0  0  0  0
   17.2920   25.7890   72.9610 C   0  0  0  0  0  0  0  0  0  0  0  0
   18.0530   25.3810   74.0510 C   0  0  0  0  0  0  0  0  0  0  0  0
   18.5920   26.3290   74.8930 C   0  0  0  0  0  0  0  0  0  0  0  0
   18.4000   27.6790   74.6870 C   0  0  0  0  0  0  0  0  0  0  0  0
   18.2820   23.6640   74.2910 Cl  0  0  0  0  0  0  0  0  0  0  0  0
   13.9110   31.8100   71.2550 C   0  0  0  0  0  0  0  0  0  0  0  0
   13.2620   33.1400   71.4830 C   0  0  0  0  0  0  0  0  0  0  0  0
   13.1450   33.9210   70.2720 N   0  0  0  0  0  4  0  0  0  0  0  0
   14.4060   34.4270   69.8090 C   0  0  0  0  0  0  0  0  0  0  0  0
   14.9860   35.5060   70.6770 C   0  0  0  0  0  0  0  0  0  0  0  0
   14.0750   36.5360   70.9140 O   0  0  0  0  0  0  0  0  0  0  0  0
   12.9820   35.9480   71.5690 C   0  0  0  0  0  0  0  0  0  0  0  0
   12.2910   35.0600   70.5580 C   0  0  0  0  0  0  0  0  0  0  0  0
   18.2520   33.4770   69.7620 H   0  0  0  0  0  0  0  0  0  0  0  0
   16.5780   31.9190   70.4640 H   0  0  0  0  0  0  0  0  0  0  0  0
   17.3700   33.0980   74.5320 H   0  0  0  0  0  0  0  0  0  0  0  0
   19.0440   34.6240   73.7210 H   0  0  0  0  0  0  0  0  0  0  0  0
   15.4940   31.8650   74.1310 H   0  0  0  0  0  0  0  0  0  0  0  0
   16.5110   27.4280   71.9100 H   0  0  0  0  0  0  0  0  0  0  0  0
   16.8490   25.0780   72.2730 H   0  0  0  0  0  0  0  0  0  0  0  0
   19.1760   25.9800   75.7280 H   0  0  0  0  0  0  0  0  0  0  0  0
   18.8590   28.4090   75.3450 H   0  0  0  0  0  0  0  0  0  0  0  0
   13.0750   31.1040   70.9690 H   0  0  0  0  0  0  0  0  0  0  0  0
   14.6300   31.9280   70.4270 H   0  0  0  0  0  0  0  0  0  0  0  0
   13.9700   33.7170   72.1350 H   0  0  0  0  0  0  0  0  0  0  0  0
   12.3160   33.1360   72.0310 H   0  0  0  0  0  0  0  0  0  0  0  0
   12.7000   33.3930   69.4970 H   0  0  0  0  0  0  0  0  0  0  0  0
   15.1670   33.6600   69.6390 H   0  0  0  0  0  0  0  0  0  0  0  0
   14.2070   34.9000   68.8060 H   0  0  0  0  0  0  0  0  0  0  0  0
   15.4050   35.1080   71.6260 H   0  0  0  0  0  0  0  0  0  0  0  0
   15.8270   35.9690   70.1060 H   0  0  0  0  0  0  0  0  0  0  0  0
   12.2760   36.7140   71.9490 H   0  0  0  0  0  0  0  0  0  0  0  0
   13.3790   35.4080   72.4300 H   0  0  0  0  0  0  0  0  0  0  0  0
   11.2870   34.7310   70.9270 H   0  0  0  0  0  0  0  0  0  0  0  0
   12.1690   35.6780   69.6300 H   0  0  0  0  0  0  0  0  0  0  0  0
  1  2  1  0  0  0  0
  2  7  1  0  0  0  0
  3  4  1  0  0  0  0
  3  2  2  0  0  0  0
  4  5  2  0  0  0  0
  5  8  1  0  0  0  0
  5  6  1  0  0  0  0
  6 34  1  0  0  0  0
  7  6  2  0  0  0  0
  7 35  1  0  0  0  0
  8 14  1  0  0  0  0
  8 36  1  1  0  0  0
  9  8  1  0  0  0  0
  9 10  1  0  0  0  0
 10 11  2  0  0  0  0
 10 12  1  0  0  0  0
 12 13  2  0  0  0  0
 14 12  1  0  0  0  0
 15 14  2  0  0  0  0
 15 17  1  0  0  0  0
 16 15  1  0  0  0  0
 17 22  1  0  0  0  0
 18 19  1  0  0  0  0
 18 17  2  0  0  0  0
 19 20  2  0  0  0  0
 20 23  1  0  0  0  0
 20 21  1  0  0  0  0
 21 39  1  0  0  0  0
 22 21  2  0  0  0  0
 22 40  1  0  0  0  0
 24 25  1  0  0  0  0
 24  9  1  0  0  0  0
 25 44  1  0  0  0  0
 25 43  1  0  0  0  0
 26 31  1  0  0  0  0
 26 25  1  0  0  0  0
 27 26  1  0  0  0  0
 27 28  1  0  0  0  0
 28 29  1  0  0  0  0
 28 48  1  0  0  0  0
 29 30  1  0  0  0  0
 30 50  1  0  0  0  0
 30 51  1  0  0  0  0
 31 52  1  0  0  0  0
 31 30  1  0  0  0  0
 32  3  1  0  0  0  0
 33  4  1  0  0  0  0
 37 18  1  0  0  0  0
 38 19  1  0  0  0  0
 41 24  1  0  0  0  0
 42 24  1  0  0  0  0
 45 26  1  0  0  0  0
 46 27  1  0  0  0  0
 47 27  1  0  0  0  0
 49 28  1  0  0  0  0
 53 31  1  0  0  0  0
M  END
>  <Pose>
1

>  <Score>
-5.94

$$$$
