
 OpenBabel03212208413D

 55 58  0  0  1  0  0  0  0  0999 V2000
   21.9640   37.3490   69.9000 B   0  0  0  0  0  0  0  0  0  0  0  0
   20.9430   35.7990   70.3450 C   0  0  0  0  0  0  0  0  0  0  0  0
   20.2970   35.6660   71.5550 C   0  0  0  0  0  0  0  0  0  0  0  0
   19.5620   34.5370   71.8620 C   0  0  0  0  0  0  0  0  0  0  0  0
   19.4330   33.5000   71.0020 C   0  0  0  0  0  0  0  0  0  0  0  0
   20.0950   33.6470   69.7710 C   0  0  0  0  0  0  0  0  0  0  0  0
   20.8310   34.7620   69.4440 C   0  0  0  0  0  0  0  0  0  0  0  0
   18.7110   32.2620   71.2200 C   0  0  1  0  0  0  0  0  0  0  0  0
   19.0530   31.4660   72.3560 N   0  0  0  0  0  0  0  0  0  0  0  0
   17.9010   30.6170   72.5960 C   0  0  0  0  0  0  0  0  0  0  0  0
   17.9300   29.5450   73.2550 O   0  0  0  0  0  0  0  0  0  0  0  0
   16.7550   31.2280   71.9510 C   0  0  0  0  0  0  0  0  0  0  0  0
   15.5590   30.8030   71.9270 O   0  0  0  0  0  0  0  0  0  0  0  0
   17.2390   32.4410   71.3250 C   0  0  0  0  0  0  0  0  0  0  0  0
   16.5010   33.4780   70.9680 C   0  0  0  0  0  0  0  0  0  0  0  0
   17.2000   34.5780   70.4150 O   0  0  0  0  0  0  0  0  0  0  0  0
   15.0600   33.5440   71.1010 C   0  0  0  0  0  0  0  0  0  0  0  0
   14.4390   34.6600   70.5270 C   0  0  0  0  0  0  0  0  0  0  0  0
   13.0710   34.8310   70.5410 C   0  0  0  0  0  0  0  0  0  0  0  0
   12.2930   33.9010   71.1250 N   0  0  0  0  0  0  0  0  0  0  0  0
   12.8640   32.8150   71.6860 C   0  0  0  0  0  0  0  0  0  0  0  0
   14.2450   32.6310   71.6770 C   0  0  0  0  0  0  0  0  0  0  0  0
   20.2800   31.3600   73.1470 C   0  0  0  0  0  0  0  0  0  0  0  0
   21.5070   31.8900   72.4860 C   0  0  0  0  0  0  0  0  0  0  0  0
   22.3850   30.7760   71.9370 C   0  0  0  0  0  0  0  0  0  0  0  0
   23.2540   31.2600   70.8900 N   0  0  0  0  0  4  0  0  0  0  0  0
   23.5220   32.6760   71.0020 C   0  0  0  0  0  0  0  0  0  0  0  0
   24.7510   32.9580   70.1340 C   0  0  0  0  0  0  0  0  0  0  0  0
   25.8820   32.4990   70.8090 O   0  0  0  0  0  0  0  0  0  0  0  0
   25.6410   31.2800   71.4430 C   0  0  0  0  0  0  0  0  0  0  0  0
   24.4860   30.5390   70.8010 C   0  0  0  0  0  0  0  0  0  0  0  0
   20.3900   36.4850   72.2540 H   0  0  0  0  0  0  0  0  0  0  0  0
   19.0500   34.4800   72.8320 H   0  0  0  0  0  0  0  0  0  0  0  0
   20.0440   32.8660   69.0240 H   0  0  0  0  0  0  0  0  0  0  0  0
   21.3330   34.8350   68.4700 H   0  0  0  0  0  0  0  0  0  0  0  0
   18.8380   31.5820   70.3320 H   0  0  0  0  0  0  0  0  0  0  0  0
   15.0220   35.4340   70.0470 H   0  0  0  0  0  0  0  0  0  0  0  0
   12.5840   35.6890   70.1010 H   0  0  0  0  0  0  0  0  0  0  0  0
   12.2380   32.0600   72.1590 H   0  0  0  0  0  0  0  0  0  0  0  0
   14.6420   31.7310   72.1120 H   0  0  0  0  0  0  0  0  0  0  0  0
   20.4320   30.2890   73.3620 H   0  0  0  0  0  0  0  0  0  0  0  0
   20.1760   31.8670   74.1280 H   0  0  0  0  0  0  0  0  0  0  0  0
   21.2350   32.5880   71.6290 H   0  0  0  0  0  0  0  0  0  0  0  0
   22.1150   32.4780   73.1780 H   0  0  0  0  0  0  0  0  0  0  0  0
   23.0140   30.4070   72.7480 H   0  0  0  0  0  0  0  0  0  0  0  0
   21.7130   30.0220   71.4970 H   0  0  0  0  0  0  0  0  0  0  0  0
   22.7380   31.1200   69.9890 H   0  0  0  0  0  0  0  0  0  0  0  0
   22.7160   33.3120   70.6100 H   0  0  0  0  0  0  0  0  0  0  0  0
   23.7470   32.9660   72.0370 H   0  0  0  0  0  0  0  0  0  0  0  0
   24.8130   34.0100   69.8610 H   0  0  0  0  0  0  0  0  0  0  0  0
   24.6300   32.3420   69.2230 H   0  0  0  0  0  0  0  0  0  0  0  0
   26.5260   30.6190   71.3590 H   0  0  0  0  0  0  0  0  0  0  0  0
   25.4020   31.4580   72.5160 H   0  0  0  0  0  0  0  0  0  0  0  0
   24.3850   29.5740   71.2940 H   0  0  0  0  0  0  0  0  0  0  0  0
   24.7940   30.3440   69.7420 H   0  0  0  0  0  0  0  0  0  0  0  0
  1  2  1  0  0  0  0
  2  3  1  0  0  0  0
  3  4  2  0  0  0  0
  3 32  1  0  0  0  0
  4 33  1  0  0  0  0
  5  8  1  0  0  0  0
  5  4  1  0  0  0  0
  6  5  2  0  0  0  0
  7  6  1  0  0  0  0
  7  2  2  0  0  0  0
  8 36  1  6  0  0  0
  8 14  1  0  0  0  0
  8  9  1  0  0  0  0
  9 10  1  0  0  0  0
  9 23  1  0  0  0  0
 10 11  2  0  0  0  0
 12 10  1  0  0  0  0
 13 12  2  0  0  0  0
 14 12  1  0  0  0  0
 15 17  1  0  0  0  0
 15 14  2  0  0  0  0
 16 15  1  0  0  0  0
 17 22  1  0  0  0  0
 18 19  1  0  0  0  0
 18 17  2  0  0  0  0
 19 20  2  0  0  0  0
 20 21  1  0  0  0  0
 21 39  1  0  0  0  0
 22 21  2  0  0  0  0
 22 40  1  0  0  0  0
 23 41  1  0  0  0  0
 23 42  1  0  0  0  0
 24 23  1  0  0  0  0
 24 44  1  0  0  0  0
 25 24  1  0  0  0  0
 25 45  1  0  0  0  0
 26 27  1  0  0  0  0
 26 25  1  0  0  0  0
 27 49  1  0  0  0  0
 28 29  1  0  0  0  0
 28 27  1  0  0  0  0
 29 30  1  0  0  0  0
 30 53  1  0  0  0  0
 31 26  1  0  0  0  0
 31 54  1  0  0  0  0
 31 30  1  0  0  0  0
 34  6  1  0  0  0  0
 35  7  1  0  0  0  0
 37 18  1  0  0  0  0
 38 19  1  0  0  0  0
 43 24  1  0  0  0  0
 46 25  1  0  0  0  0
 47 26  1  0  0  0  0
 48 27  1  0  0  0  0
 50 28  1  0  0  0  0
 51 28  1  0  0  0  0
 52 30  1  0  0  0  0
 55 31  1  0  0  0  0
M  END
>  <Pose>
1

>  <Score>
-6.08

$$$$
