
 OpenBabel03212208413D

 54 57  0  0  1  0  0  0  0  0999 V2000
   12.8760   36.6220   69.1960 B   0  0  0  0  0  0  0  0  0  0  0  0
   13.9300   35.4520   70.2800 C   0  0  0  0  0  0  0  0  0  0  0  0
   13.3080   34.4400   70.9530 C   0  0  0  0  0  0  0  0  0  0  0  0
   14.0540   33.5910   71.7360 C   0  0  0  0  0  0  0  0  0  0  0  0
   15.4180   33.6850   71.8980 C   0  0  0  0  0  0  0  0  0  0  0  0
   16.0220   34.7300   71.1970 C   0  0  0  0  0  0  0  0  0  0  0  0
   15.2920   35.5880   70.4090 C   0  0  0  0  0  0  0  0  0  0  0  0
   16.1920   32.7480   72.7550 C   0  0  1  0  0  0  0  0  0  0  0  0
   15.6340   31.4240   72.7520 N   0  0  0  0  0  0  0  0  0  0  0  0
   16.4780   30.6090   71.9560 C   0  0  0  0  0  0  0  0  0  0  0  0
   16.2080   29.4400   71.5570 O   0  0  0  0  0  0  0  0  0  0  0  0
   17.7160   31.3370   71.6670 C   0  0  0  0  0  0  0  0  0  0  0  0
   18.7000   30.9390   70.9970 O   0  0  0  0  0  0  0  0  0  0  0  0
   17.5990   32.6310   72.3140 C   0  0  0  0  0  0  0  0  0  0  0  0
   18.5870   33.4900   72.5070 C   0  0  0  0  0  0  0  0  0  0  0  0
   18.2870   34.6640   73.2260 O   0  0  0  0  0  0  0  0  0  0  0  0
   19.9450   33.3480   72.0450 C   0  0  0  0  0  0  0  0  0  0  0  0
   20.9090   32.4530   72.2970 N   0  0  0  0  0  0  0  0  0  0  0  0
   22.0420   32.7730   71.6490 C   0  0  0  0  0  0  0  0  0  0  0  0
   21.7960   33.9020   70.9630 N   0  0  0  0  0  0  0  0  0  0  0  0
   20.5350   34.2790   71.1800 C   0  0  0  0  0  0  0  0  0  0  0  0
   19.8860   35.4840   70.5910 C   0  0  0  0  0  0  0  0  0  0  0  0
   23.2050   32.0120   71.7110 C   0  0  0  0  0  0  0  0  0  0  0  0
   23.1940   30.8760   72.4730 C   0  0  0  0  0  0  0  0  0  0  0  0
   22.0290   30.5440   73.1400 C   0  0  0  0  0  0  0  0  0  0  0  0
   20.9050   31.3300   73.0470 C   0  0  0  0  0  0  0  0  0  0  0  0
   14.4070   30.9800   73.4480 C   0  0  0  0  0  0  0  0  0  0  0  0
   14.6580   29.6620   74.1480 C   0  0  0  0  0  0  0  0  0  0  0  0
   13.4750   28.9140   74.3890 N   0  0  0  0  0  4  0  0  0  0  0  0
   13.8750   27.5820   74.8420 C   0  0  0  0  0  0  0  0  0  0  0  0
   12.5830   29.4770   75.3550 C   0  0  0  0  0  0  0  0  0  0  0  0
   12.2210   34.2840   70.8850 H   0  0  0  0  0  0  0  0  0  0  0  0
   13.5260   32.8040   72.2520 H   0  0  0  0  0  0  0  0  0  0  0  0
   17.0910   34.8740   71.2710 H   0  0  0  0  0  0  0  0  0  0  0  0
   15.7730   36.3930   69.8720 H   0  0  0  0  0  0  0  0  0  0  0  0
   16.1080   33.1480   73.7910 H   0  0  0  0  0  0  0  0  0  0  0  0
   19.1300   35.2010   69.8250 H   0  0  0  0  0  0  0  0  0  0  0  0
   19.3730   36.0000   71.4460 H   0  0  0  0  0  0  0  0  0  0  0  0
   20.6470   36.1650   70.2110 H   0  0  0  0  0  0  0  0  0  0  0  0
   24.0740   32.3550   71.1500 H   0  0  0  0  0  0  0  0  0  0  0  0
   24.0970   30.2800   72.5250 H   0  0  0  0  0  0  0  0  0  0  0  0
   21.9920   29.6420   73.7550 H   0  0  0  0  0  0  0  0  0  0  0  0
   19.9790   31.0940   73.5590 H   0  0  0  0  0  0  0  0  0  0  0  0
   13.5720   30.8900   72.7270 H   0  0  0  0  0  0  0  0  0  0  0  0
   14.1810   31.7660   74.1800 H   0  0  0  0  0  0  0  0  0  0  0  0
   15.1800   29.9140   75.1080 H   0  0  0  0  0  0  0  0  0  0  0  0
   15.4240   29.1010   73.5470 H   0  0  0  0  0  0  0  0  0  0  0  0
   12.9160   28.7600   73.5030 H   0  0  0  0  0  0  0  0  0  0  0  0
   14.3650   27.6280   75.8240 H   0  0  0  0  0  0  0  0  0  0  0  0
   12.9840   26.8920   74.8530 H   0  0  0  0  0  0  0  0  0  0  0  0
   14.5970   27.1090   74.1420 H   0  0  0  0  0  0  0  0  0  0  0  0
   12.0820   28.6320   75.8910 H   0  0  0  0  0  0  0  0  0  0  0  0
   13.0960   30.0720   76.1380 H   0  0  0  0  0  0  0  0  0  0  0  0
   11.7490   30.0410   74.8670 H   0  0  0  0  0  0  0  0  0  0  0  0
  1  2  1  0  0  0  0
  2  7  2  0  0  0  0
  2  3  1  0  0  0  0
  3  4  2  0  0  0  0
  4  5  1  0  0  0  0
  4 33  1  0  0  0  0
  5  8  1  0  0  0  0
  6 34  1  0  0  0  0
  6  5  2  0  0  0  0
  7  6  1  0  0  0  0
  8 36  1  1  0  0  0
  9  8  1  0  0  0  0
  9 27  1  0  0  0  0
 10  9  1  0  0  0  0
 11 10  2  0  0  0  0
 12 10  1  0  0  0  0
 12 14  1  0  0  0  0
 13 12  2  0  0  0  0
 14 15  2  0  0  0  0
 14  8  1  0  0  0  0
 15 16  1  0  0  0  0
 17 18  1  0  0  0  0
 17 15  1  0  0  0  0
 18 26  1  0  0  0  0
 19 23  1  0  0  0  0
 19 18  1  0  0  0  0
 20 21  1  0  0  0  0
 20 19  2  0  0  0  0
 21 17  2  0  0  0  0
 22 21  1  0  0  0  0
 22 38  1  0  0  0  0
 23 24  2  0  0  0  0
 24 41  1  0  0  0  0
 24 25  1  0  0  0  0
 25 42  1  0  0  0  0
 26 25  2  0  0  0  0
 26 43  1  0  0  0  0
 27 28  1  0  0  0  0
 27 45  1  0  0  0  0
 28 29  1  0  0  0  0
 28 46  1  0  0  0  0
 29 30  1  0  0  0  0
 29 31  1  0  0  0  0
 30 50  1  0  0  0  0
 30 49  1  0  0  0  0
 31 52  1  0  0  0  0
 31 53  1  0  0  0  0
 32  3  1  0  0  0  0
 35  7  1  0  0  0  0
 37 22  1  0  0  0  0
 39 22  1  0  0  0  0
 40 23  1  0  0  0  0
 44 27  1  0  0  0  0
 47 28  1  0  0  0  0
 48 29  1  0  0  0  0
 51 30  1  0  0  0  0
 54 31  1  0  0  0  0
M  END
>  <Pose>
1

>  <Score>
-6.90

$$$$
