
 OpenBabel03212208413D

 44 47  0  0  0  0  0  0  0  0999 V2000
    7.6020   30.1050   78.5960 B   0  0  0  0  0  0  0  0  0  0  0  0
    8.9620   30.1140   77.2680 C   0  0  0  0  0  0  0  0  0  0  0  0
   10.2740   30.3960   77.5550 C   0  0  0  0  0  0  0  0  0  0  0  0
   11.2290   30.3910   76.5470 C   0  0  0  0  0  0  0  0  0  0  0  0
   10.9360   30.1120   75.2300 C   0  0  0  0  0  0  0  0  0  0  0  0
    9.5810   29.8270   74.9740 C   0  0  0  0  0  0  0  0  0  0  0  0
    8.6450   29.8320   75.9580 C   0  0  0  0  0  0  0  0  0  0  0  0
   11.8640   30.1180   74.1640 N   0  0  0  0  0  0  0  0  0  0  0  0
   13.2220   29.7820   74.2510 C   0  0  0  0  0  0  0  0  0  0  0  0
   13.7990   29.7110   75.3560 O   0  0  0  0  0  0  0  0  0  0  0  0
   14.0160   29.5010   72.9860 C   0  0  0  0  0  0  0  0  0  0  0  0
   14.1120   30.7270   72.2200 N   0  0  0  0  0  0  0  0  0  0  0  0
   13.0670   31.3890   71.7220 N   0  0  0  0  0  0  0  0  0  0  0  0
   13.4900   32.4560   71.0840 N   0  0  0  0  0  0  0  0  0  0  0  0
   14.8410   32.4960   71.1640 C   0  0  0  0  0  0  0  0  0  0  0  0
   15.2090   31.4190   71.8690 C   0  0  0  0  0  0  0  0  0  0  0  0
   16.5850   31.4960   71.9280 C   0  0  0  0  0  0  0  0  0  0  0  0
   17.2910   30.6310   72.5260 O   0  0  0  0  0  0  0  0  0  0  0  0
   17.0580   32.5750   71.2850 N   0  0  0  0  0  0  0  0  0  0  0  0
   15.9550   33.2140   70.7990 C   0  0  0  0  0  0  0  0  0  0  0  0
   16.0240   34.2830   70.1320 O   0  0  0  0  0  0  0  0  0  0  0  0
   18.4180   33.0020   71.1190 C   0  0  0  0  0  0  0  0  0  0  0  0
   19.2650   32.3490   70.2500 C   0  0  0  0  0  0  0  0  0  0  0  0
   20.5720   32.7600   70.0770 C   0  0  0  0  0  0  0  0  0  0  0  0
   21.0970   33.8390   70.7630 C   0  0  0  0  0  0  0  0  0  0  0  0
   20.2520   34.4950   71.6330 C   0  0  0  0  0  0  0  0  0  0  0  0
   18.9410   34.0790   71.8020 C   0  0  0  0  0  0  0  0  0  0  0  0
   22.5090   34.2590   70.5500 C   0  0  0  0  0  0  0  0  0  0  0  0
   10.5460   30.6180   78.5690 H   0  0  0  0  0  0  0  0  0  0  0  0
   12.2780   30.6110   76.8050 H   0  0  0  0  0  0  0  0  0  0  0  0
    9.3360   29.6010   73.9220 H   0  0  0  0  0  0  0  0  0  0  0  0
    7.6040   29.6060   75.7140 H   0  0  0  0  0  0  0  0  0  0  0  0
   11.4720   30.4080   73.2130 H   0  0  0  0  0  0  0  0  0  0  0  0
   13.4990   28.7460   72.3860 H   0  0  0  0  0  0  0  0  0  0  0  0
   15.0420   29.1910   73.3070 H   0  0  0  0  0  0  0  0  0  0  0  0
   12.0830   31.0720   71.8440 H   0  0  0  0  0  0  0  0  0  0  0  0
   12.9250   33.1860   70.5820 H   0  0  0  0  0  0  0  0  0  0  0  0
   18.8670   31.4990   69.7050 H   0  0  0  0  0  0  0  0  0  0  0  0
   21.2530   32.2480   69.3880 H   0  0  0  0  0  0  0  0  0  0  0  0
   20.6450   35.3540   72.1880 H   0  0  0  0  0  0  0  0  0  0  0  0
   18.2740   34.5930   72.4880 H   0  0  0  0  0  0  0  0  0  0  0  0
   23.2310   33.4420   70.7760 H   0  0  0  0  0  0  0  0  0  0  0  0
   22.7250   35.0610   71.2960 H   0  0  0  0  0  0  0  0  0  0  0  0
   22.6770   34.6840   69.5480 H   0  0  0  0  0  0  0  0  0  0  0  0
  2  3  1  0  0  0  0
  2  1  1  0  0  0  0
  3 29  1  0  0  0  0
  4 30  1  0  0  0  0
  4  3  2  0  0  0  0
  5  4  1  0  0  0  0
  6  5  2  0  0  0  0
  6  7  1  0  0  0  0
  7  2  2  0  0  0  0
  8  9  1  0  0  0  0
  8  5  1  0  0  0  0
  9 10  2  0  0  0  0
 11 35  1  0  0  0  0
 11  9  1  0  0  0  0
 12 11  1  0  0  0  0
 13 36  1  0  0  0  0
 13 12  1  0  0  0  0
 14 15  1  0  0  0  0
 14 13  1  0  0  0  0
 15 16  2  0  0  0  0
 16 17  1  0  0  0  0
 16 12  1  0  0  0  0
 17 18  2  0  0  0  0
 19 17  1  0  0  0  0
 20 15  1  0  0  0  0
 20 19  1  0  0  0  0
 21 20  2  0  0  0  0
 22 19  1  0  0  0  0
 22 27  1  0  0  0  0
 23 22  2  0  0  0  0
 24 23  1  0  0  0  0
 24 25  2  0  0  0  0
 25 26  1  0  0  0  0
 26 27  2  0  0  0  0
 26 40  1  0  0  0  0
 27 41  1  0  0  0  0
 28 25  1  0  0  0  0
 28 42  1  0  0  0  0
 28 43  1  0  0  0  0
 31  6  1  0  0  0  0
 32  7  1  0  0  0  0
 33  8  1  0  0  0  0
 34 11  1  0  0  0  0
 37 14  1  0  0  0  0
 38 23  1  0  0  0  0
 39 24  1  0  0  0  0
 44 28  1  0  0  0  0
M  END
>  <Pose>
1

>  <Score>
-6.97

$$$$
