
 OpenBabel03212208413D

 47 50  0  0  1  0  0  0  0  0999 V2000
    6.0810   29.7700   77.9810 B   0  0  0  0  0  0  0  0  0  0  0  0
    7.6590   29.9200   76.8980 C   0  0  0  0  0  0  0  0  0  0  0  0
    8.8780   30.2080   77.4590 C   0  0  0  0  0  0  0  0  0  0  0  0
    9.9910   30.3210   76.7090 C   0  0  0  0  0  0  0  0  0  0  0  0
    9.9600   30.1470   75.2890 C   0  0  0  0  0  0  0  0  0  0  0  0
    8.7190   29.8580   74.7670 C   0  0  0  0  0  0  0  0  0  0  0  0
    7.5850   29.7430   75.5330 C   0  0  0  0  0  0  0  0  0  0  0  0
   11.1410   30.3610   74.6230 N   0  0  0  0  0  0  0  0  0  0  0  0
   12.2770   30.5670   73.9790 C   0  0  0  0  0  0  0  0  0  0  0  0
   12.7570   31.6380   73.4330 O   0  0  0  0  0  0  0  0  0  0  0  0
   13.2720   29.4020   73.7880 C   0  0  2  0  0  0  0  0  0  0  0  0
   13.3550   28.7330   75.1280 C   0  0  0  0  0  0  0  0  0  0  0  0
   14.4570   29.2030   75.9780 C   0  0  0  0  0  0  0  0  0  0  0  0
   14.2900   29.1780   77.2280 O   0  0  0  0  0  0  0  0  0  0  0  0
   15.6600   29.6680   75.3940 N   0  0  0  0  0  0  0  0  0  0  0  0
   15.6990   29.9960   74.0210 C   0  0  0  0  0  0  0  0  0  0  0  0
   16.8770   30.4310   73.4750 N   0  0  0  0  0  0  0  0  0  0  0  0
   16.9880   30.7440   72.1820 C   0  0  0  0  0  0  0  0  0  0  0  0
   15.8960   30.6220   71.4170 N   0  0  0  0  0  0  0  0  0  0  0  0
   14.6970   30.1940   71.9110 C   0  0  0  0  0  0  0  0  0  0  0  0
   14.5560   29.8630   73.2440 C   0  0  0  0  0  0  0  0  0  0  0  0
   13.5620   30.0920   71.0580 N   0  0  0  0  0  0  0  0  0  0  0  0
   18.2420   31.2050   71.6290 N   0  0  0  0  0  0  0  0  0  0  0  0
   18.2110   31.7400   70.3130 C   0  0  0  0  0  0  0  0  0  0  0  0
   19.3980   32.5910   69.9640 C   0  0  0  0  0  0  0  0  0  0  0  0
   20.2620   32.7670   71.0390 O   0  0  0  0  0  0  0  0  0  0  0  0
   20.6070   31.5580   71.6280 C   0  0  0  0  0  0  0  0  0  0  0  0
   19.4310   31.0940   72.4480 C   0  0  0  0  0  0  0  0  0  0  0  0
    8.9280   30.3520   78.5470 H   0  0  0  0  0  0  0  0  0  0  0  0
   10.9630   30.5560   77.1510 H   0  0  0  0  0  0  0  0  0  0  0  0
    8.6160   29.7210   73.6740 H   0  0  0  0  0  0  0  0  0  0  0  0
    6.6130   29.5090   75.0840 H   0  0  0  0  0  0  0  0  0  0  0  0
   10.5620   29.9260   73.4690 H   0  0  0  0  0  0  0  0  0  0  0  0
   12.7570   28.6720   73.0850 H   0  0  0  0  0  0  0  0  0  0  0  0
   13.4570   27.6260   74.9500 H   0  0  0  0  0  0  0  0  0  0  0  0
   12.3850   28.9040   75.6630 H   0  0  0  0  0  0  0  0  0  0  0  0
   16.5490   29.7810   75.9620 H   0  0  0  0  0  0  0  0  0  0  0  0
   12.6520   30.5060   71.2820 H   0  0  0  0  0  0  0  0  0  0  0  0
   13.6600   29.5610   70.1560 H   0  0  0  0  0  0  0  0  0  0  0  0
   18.1970   30.8540   69.6140 H   0  0  0  0  0  0  0  0  0  0  0  0
   17.2280   32.2560   70.1590 H   0  0  0  0  0  0  0  0  0  0  0  0
   19.9740   32.1690   69.1030 H   0  0  0  0  0  0  0  0  0  0  0  0
   19.0430   33.5890   69.6550 H   0  0  0  0  0  0  0  0  0  0  0  0
   21.4920   31.7890   72.2900 H   0  0  0  0  0  0  0  0  0  0  0  0
   20.9100   30.8160   70.8650 H   0  0  0  0  0  0  0  0  0  0  0  0
   19.5660   30.0560   72.8260 H   0  0  0  0  0  0  0  0  0  0  0  0
   19.3700   31.7480   73.3590 H   0  0  0  0  0  0  0  0  0  0  0  0
  2  3  1  0  0  0  0
  2  1  1  0  0  0  0
  3 29  1  0  0  0  0
  4 30  1  0  0  0  0
  4  3  2  0  0  0  0
  5  4  1  0  0  0  0
  6  5  2  0  0  0  0
  6  7  1  0  0  0  0
  7  2  2  0  0  0  0
  8  5  1  0  0  0  0
  9  8  1  0  0  0  0
 10  9  2  0  0  0  0
 11 34  1  6  0  0  0
 11  9  1  0  0  0  0
 11 12  1  0  0  0  0
 12 36  1  0  0  0  0
 12 13  1  0  0  0  0
 13 14  2  0  0  0  0
 15 37  1  0  0  0  0
 15 13  1  0  0  0  0
 16 15  1  0  0  0  0
 17 16  1  0  0  0  0
 18 17  2  0  0  0  0
 19 20  2  0  0  0  0
 19 18  1  0  0  0  0
 20 21  1  0  0  0  0
 21 11  1  0  0  0  0
 21 16  2  0  0  0  0
 22 38  1  0  0  0  0
 22 20  1  0  0  0  0
 23 18  1  0  0  0  0
 23 28  1  0  0  0  0
 24 23  1  0  0  0  0
 25 24  1  0  0  0  0
 25 26  1  0  0  0  0
 26 27  1  0  0  0  0
 27 44  1  0  0  0  0
 27 28  1  0  0  0  0
 28 46  1  0  0  0  0
 28 47  1  0  0  0  0
 31  6  1  0  0  0  0
 32  7  1  0  0  0  0
 33  8  1  0  0  0  0
 35 12  1  0  0  0  0
 39 22  1  0  0  0  0
 40 24  1  0  0  0  0
 41 24  1  0  0  0  0
 42 25  1  0  0  0  0
 43 25  1  0  0  0  0
 45 27  1  0  0  0  0
M  END
>  <Pose>
1

>  <Score>
-6.78

$$$$
