
 OpenBabel03212208413D

 52 55  0  0  1  0  0  0  0  0999 V2000
   23.2190   33.6480   68.6900 B   0  0  0  0  0  0  0  0  0  0  0  0
   21.5400   33.7940   69.5530 C   0  0  0  0  0  0  0  0  0  0  0  0
   20.9840   35.0430   69.7680 C   0  0  0  0  0  0  0  0  0  0  0  0
   19.7890   35.2310   70.3780 C   0  0  0  0  0  0  0  0  0  0  0  0
   19.0770   34.0680   70.8160 C   0  0  0  0  0  0  0  0  0  0  0  0
   19.6570   32.8430   70.5870 C   0  0  0  0  0  0  0  0  0  0  0  0
   20.8740   32.6760   69.9640 C   0  0  0  0  0  0  0  0  0  0  0  0
   17.8450   34.3360   71.3590 N   0  0  0  0  0  0  0  0  0  0  0  0
   16.6360   34.5970   71.8930 C   0  0  0  0  0  0  0  0  0  0  0  0
   16.2710   35.6410   72.5860 O   0  0  0  0  0  0  0  0  0  0  0  0
   15.4820   33.6690   71.7440 C   0  0  2  0  0  0  0  0  0  0  0  0
   14.1310   34.3600   71.7150 C   0  0  0  0  0  0  0  0  0  0  0  0
   13.1280   33.3800   71.2000 C   0  0  0  0  0  0  0  0  0  0  0  0
   12.3550   33.6880   70.3100 O   0  0  0  0  0  0  0  0  0  0  0  0
   13.1310   32.1100   71.7960 N   0  0  0  0  0  0  0  0  0  0  0  0
   14.2760   31.6310   72.4730 C   0  0  0  0  0  0  0  0  0  0  0  0
   14.2600   30.4560   73.1330 N   0  0  0  0  0  0  0  0  0  0  0  0
   15.2600   29.9710   73.8710 C   0  0  0  0  0  0  0  0  0  0  0  0
   16.3620   30.7620   73.9340 N   0  0  0  0  0  0  0  0  0  0  0  0
   16.4500   31.9560   73.2940 C   0  0  0  0  0  0  0  0  0  0  0  0
   15.4310   32.4470   72.5370 C   0  0  0  0  0  0  0  0  0  0  0  0
   17.6170   32.7050   73.4150 O   0  0  0  0  0  0  0  0  0  0  0  0
   15.2370   28.7110   74.5130 N   0  0  0  0  0  0  0  0  0  0  0  0
   14.3830   27.5980   74.1880 C   0  0  0  0  0  0  0  0  0  0  0  0
   15.1950   26.3140   74.3340 C   0  0  0  0  0  0  0  0  0  0  0  0
   16.6550   26.5320   74.0610 C   0  0  2  0  0  0  0  0  0  0  0  0
   17.2430   27.5300   74.9950 C   0  0  0  0  0  0  0  0  0  0  0  0
   16.1740   28.4600   75.6140 C   0  0  0  0  0  0  0  0  0  0  0  0
   16.9120   26.8500   72.6370 C   0  0  0  0  0  0  0  0  0  0  0  0
   16.9870   28.0530   72.3150 O   0  0  0  0  0  0  0  0  0  0  0  0
   17.0710   25.8730   71.6290 N   0  0  0  0  0  0  0  0  0  0  0  0
   21.5390   35.9390   69.4290 H   0  0  0  0  0  0  0  0  0  0  0  0
   19.3600   36.2200   70.5470 H   0  0  0  0  0  0  0  0  0  0  0  0
   19.1320   31.9370   70.8940 H   0  0  0  0  0  0  0  0  0  0  0  0
   21.3100   31.6980   69.7940 H   0  0  0  0  0  0  0  0  0  0  0  0
   18.1870   33.6320   72.4560 H   0  0  0  0  0  0  0  0  0  0  0  0
   15.5890   33.3680   70.6160 H   0  0  0  0  0  0  0  0  0  0  0  0
   14.1180   35.2260   71.0260 H   0  0  0  0  0  0  0  0  0  0  0  0
   13.8220   34.6980   72.7080 H   0  0  0  0  0  0  0  0  0  0  0  0
   12.2960   31.4650   71.7730 H   0  0  0  0  0  0  0  0  0  0  0  0
   18.2010   32.6730   74.2490 H   0  0  0  0  0  0  0  0  0  0  0  0
   14.0190   27.6510   73.1480 H   0  0  0  0  0  0  0  0  0  0  0  0
   13.4920   27.4830   74.8270 H   0  0  0  0  0  0  0  0  0  0  0  0
   14.9870   25.8400   75.3060 H   0  0  0  0  0  0  0  0  0  0  0  0
   14.8080   25.5920   73.5760 H   0  0  0  0  0  0  0  0  0  0  0  0
   17.1790   25.5570   74.2570 H   0  0  0  0  0  0  0  0  0  0  0  0
   17.9670   28.1960   74.4460 H   0  0  0  0  0  0  0  0  0  0  0  0
   17.8230   27.0870   75.8240 H   0  0  0  0  0  0  0  0  0  0  0  0
   15.6960   27.9400   76.4430 H   0  0  0  0  0  0  0  0  0  0  0  0
   16.7120   29.3840   75.8950 H   0  0  0  0  0  0  0  0  0  0  0  0
   16.5410   24.9820   71.6240 H   0  0  0  0  0  0  0  0  0  0  0  0
   17.7470   26.0550   70.8590 H   0  0  0  0  0  0  0  0  0  0  0  0
  1  2  1  0  0  0  0
  2  3  2  0  0  0  0
  2  7  1  0  0  0  0
  3  4  1  0  0  0  0
  4 33  1  0  0  0  0
  4  5  2  0  0  0  0
  5  8  1  0  0  0  0
  6  5  1  0  0  0  0
  6 34  1  0  0  0  0
  7  6  2  0  0  0  0
  8  9  1  0  0  0  0
  8 36  1  0  0  0  0
  9 10  2  0  0  0  0
 11 37  1  6  0  0  0
 11  9  1  0  0  0  0
 11 21  1  0  0  0  0
 12 11  1  0  0  0  0
 12 39  1  0  0  0  0
 13 12  1  0  0  0  0
 13 15  1  0  0  0  0
 14 13  2  0  0  0  0
 15 16  1  0  0  0  0
 16 21  2  0  0  0  0
 16 17  1  0  0  0  0
 17 18  2  0  0  0  0
 18 19  1  0  0  0  0
 18 23  1  0  0  0  0
 20 22  1  0  0  0  0
 20 19  2  0  0  0  0
 21 20  1  0  0  0  0
 22 41  1  0  0  0  0
 23 28  1  0  0  0  0
 24 25  1  0  0  0  0
 24 23  1  0  0  0  0
 24 43  1  0  0  0  0
 25 44  1  0  0  0  0
 26 46  1  1  0  0  0
 26 25  1  0  0  0  0
 26 27  1  0  0  0  0
 27 28  1  0  0  0  0
 27 48  1  0  0  0  0
 28 50  1  0  0  0  0
 28 49  1  0  0  0  0
 29 26  1  0  0  0  0
 30 29  2  0  0  0  0
 31 29  1  0  0  0  0
 32  3  1  0  0  0  0
 35  7  1  0  0  0  0
 38 12  1  0  0  0  0
 40 15  1  0  0  0  0
 42 24  1  0  0  0  0
 45 25  1  0  0  0  0
 47 27  1  0  0  0  0
 51 31  1  0  0  0  0
 52 31  1  0  0  0  0
M  END
>  <Pose>
1

>  <Score>
-7.12

$$$$
