
 OpenBabel03212208413D

 47 50  0  0  1  0  0  0  0  0999 V2000
   11.0870   28.6890   77.7300 B   0  0  0  0  0  0  0  0  0  0  0  0
   12.1510   29.1760   76.2140 C   0  0  0  0  0  0  0  0  0  0  0  0
   11.7420   30.1630   75.3420 C   0  0  0  0  0  0  0  0  0  0  0  0
   12.4990   30.5290   74.2390 C   0  0  0  0  0  0  0  0  0  0  0  0
   13.7020   29.9090   73.9780 C   0  0  0  0  0  0  0  0  0  0  0  0
   14.1050   28.9220   74.8560 C   0  0  0  0  0  0  0  0  0  0  0  0
   13.3540   28.5560   75.9530 C   0  0  0  0  0  0  0  0  0  0  0  0
   14.4770   30.2910   72.8390 N   0  0  0  0  0  0  0  0  0  0  0  0
   14.0560   30.5440   71.6110 N   0  0  0  0  0  0  0  0  0  0  0  0
   15.0590   30.8710   70.8140 N   0  0  0  0  0  0  0  0  0  0  0  0
   16.2130   30.8410   71.5330 C   0  0  0  0  0  0  0  0  0  0  0  0
   15.8090   30.4720   72.8040 C   0  0  0  0  0  0  0  0  0  0  0  0
   16.7630   30.3630   73.7360 N   0  0  0  0  0  0  0  0  0  0  0  0
   18.0510   30.6030   73.4370 C   0  0  0  0  0  0  0  0  0  0  0  0
   18.4540   30.9640   72.1970 N   0  0  0  0  0  0  0  0  0  0  0  0
   17.5320   31.0860   71.2340 C   0  0  0  0  0  0  0  0  0  0  0  0
   17.9010   31.4190   70.0860 O   0  0  0  0  0  0  0  0  0  0  0  0
   19.8670   31.2040   71.9710 C   0  0  0  0  0  0  0  0  0  0  0  0
   20.2930   32.4780   72.6540 C   0  0  0  0  0  0  0  0  0  0  0  0
   21.0310   32.4430   73.6740 O   0  0  0  0  0  0  0  0  0  0  0  0
   19.8740   33.7380   72.1650 N   0  0  0  0  0  0  0  0  0  0  0  0
   18.4810   34.1180   72.1670 C   0  0  0  0  0  0  0  0  0  0  0  0
   18.1930   34.7430   70.8130 C   0  0  2  0  0  0  0  0  0  0  0  0
   19.0260   35.7870   70.5010 O   0  0  0  0  0  0  0  0  0  0  0  0
   20.0860   35.9570   71.3570 C   0  0  1  0  0  0  0  0  0  0  0  0
   20.8420   34.6760   71.6470 C   0  0  0  0  0  0  0  0  0  0  0  0
   21.0470   37.0210   70.9160 C   0  0  0  0  0  0  0  0  0  0  0  0
   16.7730   35.3120   70.9010 C   0  0  0  0  0  0  0  0  0  0  0  0
   10.8050   30.6520   75.5400 H   0  0  0  0  0  0  0  0  0  0  0  0
   12.1710   31.3020   73.5620 H   0  0  0  0  0  0  0  0  0  0  0  0
   15.0400   28.4190   74.6760 H   0  0  0  0  0  0  0  0  0  0  0  0
   13.6740   27.7760   76.6450 H   0  0  0  0  0  0  0  0  0  0  0  0
   18.8090   30.5060   74.2240 H   0  0  0  0  0  0  0  0  0  0  0  0
   20.4890   30.3870   72.3840 H   0  0  0  0  0  0  0  0  0  0  0  0
   20.0680   31.3670   70.8920 H   0  0  0  0  0  0  0  0  0  0  0  0
   18.2410   34.8230   72.9900 H   0  0  0  0  0  0  0  0  0  0  0  0
   17.8880   33.1990   72.2940 H   0  0  0  0  0  0  0  0  0  0  0  0
   18.1930   33.9220   70.0590 H   0  0  0  0  0  0  0  0  0  0  0  0
   19.6660   36.2870   72.3510 H   0  0  0  0  0  0  0  0  0  0  0  0
   21.6300   34.9200   72.3840 H   0  0  0  0  0  0  0  0  0  0  0  0
   21.2910   34.2340   70.7430 H   0  0  0  0  0  0  0  0  0  0  0  0
   21.4720   37.5340   71.8050 H   0  0  0  0  0  0  0  0  0  0  0  0
   21.9140   36.6040   70.3470 H   0  0  0  0  0  0  0  0  0  0  0  0
   20.5260   37.8120   70.3210 H   0  0  0  0  0  0  0  0  0  0  0  0
   16.1990   34.6130   71.5360 H   0  0  0  0  0  0  0  0  0  0  0  0
   16.7590   36.3000   71.3710 H   0  0  0  0  0  0  0  0  0  0  0  0
   16.2960   35.3090   69.8860 H   0  0  0  0  0  0  0  0  0  0  0  0
  2  1  1  0  0  0  0
  3 29  1  0  0  0  0
  3  2  2  0  0  0  0
  4  3  1  0  0  0  0
  5  4  2  0  0  0  0
  5  6  1  0  0  0  0
  6  7  2  0  0  0  0
  7  2  1  0  0  0  0
  7 32  1  0  0  0  0
  8  5  1  0  0  0  0
  9  8  1  0  0  0  0
 10 11  1  0  0  0  0
 10  9  2  0  0  0  0
 11 12  2  0  0  0  0
 12  8  1  0  0  0  0
 12 13  1  0  0  0  0
 14 13  2  0  0  0  0
 14 33  1  0  0  0  0
 15 14  1  0  0  0  0
 16 11  1  0  0  0  0
 16 15  1  0  0  0  0
 17 16  2  0  0  0  0
 18 15  1  0  0  0  0
 18 34  1  0  0  0  0
 18 19  1  0  0  0  0
 19 20  2  0  0  0  0
 21 22  1  0  0  0  0
 21 19  1  0  0  0  0
 22 37  1  0  0  0  0
 22 36  1  0  0  0  0
 23 38  1  6  0  0  0
 23 28  1  0  0  0  0
 23 22  1  0  0  0  0
 24 23  1  0  0  0  0
 24 25  1  0  0  0  0
 25 26  1  0  0  0  0
 25 39  1  1  0  0  0
 26 21  1  0  0  0  0
 26 40  1  0  0  0  0
 27 25  1  0  0  0  0
 27 42  1  0  0  0  0
 28 46  1  0  0  0  0
 28 45  1  0  0  0  0
 30  4  1  0  0  0  0
 31  6  1  0  0  0  0
 35 18  1  0  0  0  0
 41 26  1  0  0  0  0
 43 27  1  0  0  0  0
 44 27  1  0  0  0  0
 47 28  1  0  0  0  0
M  END
>  <Pose>
1

>  <Score>
-6.01

$$$$
