
 OpenBabel03212208413D

 47 50  0  0  1  0  0  0  0  0999 V2000
   12.8670   36.6740   69.5540 B   0  0  0  0  0  0  0  0  0  0  0  0
   13.7530   35.1480   70.2990 C   0  0  0  0  0  0  0  0  0  0  0  0
   15.1170   35.0760   70.3760 C   0  0  0  0  0  0  0  0  0  0  0  0
   15.7580   33.9580   70.9200 C   0  0  0  0  0  0  0  0  0  0  0  0
   15.0490   32.8940   71.3980 C   0  0  0  0  0  0  0  0  0  0  0  0
   13.6880   32.9610   71.3230 C   0  0  0  0  0  0  0  0  0  0  0  0
   13.0340   34.0770   70.7780 C   0  0  0  0  0  0  0  0  0  0  0  0
   15.6990   31.7500   71.9570 N   0  0  0  0  0  0  0  0  0  0  0  0
   16.9160   31.1270   71.5600 C   0  0  0  0  0  0  0  0  0  0  0  0
   17.5810   31.4340   70.5470 O   0  0  0  0  0  0  0  0  0  0  0  0
   17.3010   30.0620   72.4980 C   0  0  2  0  0  0  0  0  0  0  0  0
   15.9620   29.6930   73.1270 C   0  0  0  0  0  0  0  0  0  0  0  0
   15.2170   30.9910   73.0820 C   0  0  0  0  0  0  0  0  0  0  0  0
   14.3450   31.2610   73.9290 O   0  0  0  0  0  0  0  0  0  0  0  0
   18.2450   30.4540   73.5200 N   0  0  0  0  0  4  0  0  0  0  0  0
   19.2060   29.4160   73.8090 C   0  0  0  0  0  0  0  0  0  0  0  0
   20.5330   29.5820   73.1020 C   0  0  0  0  0  0  0  0  0  0  0  0
   20.9570   30.9590   73.0960 N   0  0  0  0  0  0  0  0  0  0  0  0
   20.1800   31.8270   73.9500 C   0  0  0  0  0  0  0  0  0  0  0  0
   18.7620   31.7640   73.3530 C   0  0  0  0  0  0  0  0  0  0  0  0
   22.0160   31.4470   72.3230 C   0  0  0  0  0  0  0  0  0  0  0  0
   23.3040   30.9500   72.3260 C   0  0  0  0  0  0  0  0  0  0  0  0
   24.3240   31.4880   71.5570 C   0  0  0  0  0  0  0  0  0  0  0  0
   24.0780   32.5630   70.7460 C   0  0  0  0  0  0  0  0  0  0  0  0
   22.8070   33.1000   70.7050 C   0  0  0  0  0  0  0  0  0  0  0  0
   21.8050   32.5450   71.4820 C   0  0  0  0  0  0  0  0  0  0  0  0
   25.0580   33.1510   69.9460 O   0  0  0  0  0  0  0  0  0  0  0  0
   15.6920   35.8970   70.0080 H   0  0  0  0  0  0  0  0  0  0  0  0
   16.8180   33.9940   70.9380 H   0  0  0  0  0  0  0  0  0  0  0  0
   13.0350   32.1950   71.6610 H   0  0  0  0  0  0  0  0  0  0  0  0
   11.9590   34.1240   70.7230 H   0  0  0  0  0  0  0  0  0  0  0  0
   17.6360   29.1330   71.9790 H   0  0  0  0  0  0  0  0  0  0  0  0
   15.4510   28.9050   72.5510 H   0  0  0  0  0  0  0  0  0  0  0  0
   16.1430   29.3740   74.1690 H   0  0  0  0  0  0  0  0  0  0  0  0
   17.6440   30.4910   74.4120 H   0  0  0  0  0  0  0  0  0  0  0  0
   18.7730   28.4460   73.4830 H   0  0  0  0  0  0  0  0  0  0  0  0
   19.4060   29.3220   74.9000 H   0  0  0  0  0  0  0  0  0  0  0  0
   21.2880   29.0120   73.7210 H   0  0  0  0  0  0  0  0  0  0  0  0
   20.4610   29.0880   72.1440 H   0  0  0  0  0  0  0  0  0  0  0  0
   20.1300   31.3730   74.9610 H   0  0  0  0  0  0  0  0  0  0  0  0
   20.5100   32.8480   74.0310 H   0  0  0  0  0  0  0  0  0  0  0  0
   18.8140   31.9930   72.2600 H   0  0  0  0  0  0  0  0  0  0  0  0
   18.1070   32.5000   73.8370 H   0  0  0  0  0  0  0  0  0  0  0  0
   23.5150   30.0800   72.9710 H   0  0  0  0  0  0  0  0  0  0  0  0
   25.2900   31.0530   71.6100 H   0  0  0  0  0  0  0  0  0  0  0  0
   22.5790   33.9530   70.0740 H   0  0  0  0  0  0  0  0  0  0  0  0
   20.7950   32.9500   71.4690 H   0  0  0  0  0  0  0  0  0  0  0  0
  1  2  1  0  0  0  0
  2  3  2  0  0  0  0
  2  7  1  0  0  0  0
  3  4  1  0  0  0  0
  4 29  1  0  0  0  0
  4  5  2  0  0  0  0
  5  8  1  0  0  0  0
  6  5  1  0  0  0  0
  6 30  1  0  0  0  0
  7  6  2  0  0  0  0
  8 13  1  0  0  0  0
  9  8  1  0  0  0  0
  9 11  1  0  0  0  0
 10  9  2  0  0  0  0
 11 32  1  6  0  0  0
 11 12  1  0  0  0  0
 11 15  1  0  0  0  0
 12 34  1  0  0  0  0
 13 12  1  0  0  0  0
 13 14  2  0  0  0  0
 15 16  1  0  0  0  0
 15 35  1  0  0  0  0
 16 37  1  0  0  0  0
 17 38  1  0  0  0  0
 17 16  1  0  0  0  0
 18 17  1  0  0  0  0
 18 19  1  0  0  0  0
 19 41  1  0  0  0  0
 19 40  1  0  0  0  0
 20 15  1  0  0  0  0
 20 43  1  0  0  0  0
 20 19  1  0  0  0  0
 21 22  1  0  0  0  0
 21 18  1  0  0  0  0
 22 44  1  0  0  0  0
 23 45  1  0  0  0  0
 23 22  2  0  0  0  0
 24 23  1  0  0  0  0
 25 24  2  0  0  0  0
 25 26  1  0  0  0  0
 26 21  2  0  0  0  0
 27 24  1  0  0  0  0
 28  3  1  0  0  0  0
 31  7  1  0  0  0  0
 33 12  1  0  0  0  0
 36 16  1  0  0  0  0
 39 17  1  0  0  0  0
 42 20  1  0  0  0  0
 46 25  1  0  0  0  0
 47 26  1  0  0  0  0
M  END
>  <Pose>
1

>  <Score>
-5.30

$$$$
