
 OpenBabel03212208413D

 56 59  0  0  1  0  0  0  0  0999 V2000
   22.0560   37.8120   66.6520 B   0  0  0  0  0  0  0  0  0  0  0  0
   21.6430   36.5830   68.0580 C   0  0  0  0  0  0  0  0  0  0  0  0
   21.5160   36.9850   69.3670 C   0  0  0  0  0  0  0  0  0  0  0  0
   21.2140   36.0790   70.3910 C   0  0  0  0  0  0  0  0  0  0  0  0
   21.0330   34.7490   70.1190 C   0  0  0  0  0  0  0  0  0  0  0  0
   21.1630   34.3570   68.8050 C   0  0  0  0  0  0  0  0  0  0  0  0
   21.4610   35.2450   67.7840 C   0  0  0  0  0  0  0  0  0  0  0  0
   20.7260   33.8390   71.1780 N   0  0  0  0  0  0  0  0  0  0  0  0
   19.8630   34.0820   72.2940 C   0  0  0  0  0  0  0  0  0  0  0  0
   19.5760   35.1870   72.8150 O   0  0  0  0  0  0  0  0  0  0  0  0
   19.3400   32.7690   72.7540 C   0  0  2  0  0  0  0  0  0  0  0  0
   20.1750   31.7080   72.0720 C   0  0  0  0  0  0  0  0  0  0  0  0
   21.2030   32.5120   71.3590 C   0  0  0  0  0  0  0  0  0  0  0  0
   22.3470   32.0940   70.9610 O   0  0  0  0  0  0  0  0  0  0  0  0
   17.9630   32.6850   72.4790 N   0  0  2  0  0  0  0  0  0  0  0  0
   17.0690   32.3700   73.5190 C   0  0  0  0  0  0  0  0  0  0  0  0
   15.6640   32.2060   72.9240 C   0  0  0  0  0  0  0  0  0  0  0  0
   15.5890   30.9870   72.0310 C   0  0  1  0  0  0  0  0  0  0  0  0
   16.8180   30.8900   71.2210 C   0  0  0  0  0  0  0  0  0  0  0  0
   17.5940   32.1830   71.2100 C   0  0  0  0  0  0  0  0  0  0  0  0
   15.2610   29.8750   72.8230 N   0  0  0  0  0  0  0  0  0  0  0  0
   13.9500   29.7510   73.3070 C   0  0  0  0  0  0  0  0  0  0  0  0
   14.0520   29.6060   74.8350 C   0  0  0  0  0  0  0  0  0  0  0  0
   14.7590   28.2880   75.0750 C   0  0  0  0  0  0  0  0  0  0  0  0
   15.4660   27.7640   73.8700 C   0  0  0  0  0  0  0  0  0  0  0  0
   16.1720   28.8660   73.0660 C   0  0  0  0  0  0  0  0  0  0  0  0
   14.4310   31.2450   71.1030 C   0  0  0  0  0  0  0  0  0  0  0  0
   14.3910   32.3170   70.4270 O   0  0  0  0  0  0  0  0  0  0  0  0
   13.3590   30.3350   70.9400 N   0  0  0  0  0  0  0  0  0  0  0  0
   21.6600   38.0270   69.5710 H   0  0  0  0  0  0  0  0  0  0  0  0
   21.1320   36.4720   71.3990 H   0  0  0  0  0  0  0  0  0  0  0  0
   21.0280   33.3190   68.5600 H   0  0  0  0  0  0  0  0  0  0  0  0
   21.5590   34.9110   66.7490 H   0  0  0  0  0  0  0  0  0  0  0  0
   19.5860   32.7110   73.8490 H   0  0  0  0  0  0  0  0  0  0  0  0
   19.6180   31.1500   71.2910 H   0  0  0  0  0  0  0  0  0  0  0  0
   20.6980   31.0640   72.7900 H   0  0  0  0  0  0  0  0  0  0  0  0
   17.3560   31.3950   73.9860 H   0  0  0  0  0  0  0  0  0  0  0  0
   16.9450   33.1640   74.3000 H   0  0  0  0  0  0  0  0  0  0  0  0
   15.5520   33.0910   72.2420 H   0  0  0  0  0  0  0  0  0  0  0  0
   14.9050   32.2360   73.7020 H   0  0  0  0  0  0  0  0  0  0  0  0
   16.5190   30.7290   70.1400 H   0  0  0  0  0  0  0  0  0  0  0  0
   17.4540   30.0110   71.4350 H   0  0  0  0  0  0  0  0  0  0  0  0
   18.4630   32.1130   70.4920 H   0  0  0  0  0  0  0  0  0  0  0  0
   16.9530   32.9850   70.7270 H   0  0  0  0  0  0  0  0  0  0  0  0
   13.3540   30.6360   73.0800 H   0  0  0  0  0  0  0  0  0  0  0  0
   13.5040   28.8100   72.9240 H   0  0  0  0  0  0  0  0  0  0  0  0
   14.6970   30.4220   75.2540 H   0  0  0  0  0  0  0  0  0  0  0  0
   13.0430   29.6410   75.2720 H   0  0  0  0  0  0  0  0  0  0  0  0
   15.4010   28.3220   75.9810 H   0  0  0  0  0  0  0  0  0  0  0  0
   13.9420   27.5580   75.3370 H   0  0  0  0  0  0  0  0  0  0  0  0
   16.2820   27.0750   74.2240 H   0  0  0  0  0  0  0  0  0  0  0  0
   14.8090   27.1690   73.1880 H   0  0  0  0  0  0  0  0  0  0  0  0
   16.6380   28.3620   72.2110 H   0  0  0  0  0  0  0  0  0  0  0  0
   17.0080   29.2260   73.7090 H   0  0  0  0  0  0  0  0  0  0  0  0
   13.4750   29.5160   70.3310 H   0  0  0  0  0  0  0  0  0  0  0  0
   12.4550   30.4820   71.4290 H   0  0  0  0  0  0  0  0  0  0  0  0
  1  2  1  0  0  0  0
  2  3  1  0  0  0  0
  3 30  1  0  0  0  0
  3  4  2  0  0  0  0
  4 31  1  0  0  0  0
  5  4  1  0  0  0  0
  5  8  1  0  0  0  0
  6  5  2  0  0  0  0
  7  2  2  0  0  0  0
  7  6  1  0  0  0  0
  8 13  1  0  0  0  0
  8  9  1  0  0  0  0
  9 11  1  0  0  0  0
  9 10  2  0  0  0  0
 11 34  1  1  0  0  0
 12 11  1  0  0  0  0
 12 36  1  0  0  0  0
 13 12  1  0  0  0  0
 14 13  2  0  0  0  0
 15 20  1  6  0  0  0
 15 11  1  0  0  0  0
 15 16  1  0  0  0  0
 16 37  1  0  0  0  0
 16 38  1  0  0  0  0
 17 16  1  0  0  0  0
 17 40  1  0  0  0  0
 18 27  1  6  0  0  0
 18 21  1  0  0  0  0
 18 17  1  0  0  0  0
 19 42  1  0  0  0  0
 19 18  1  0  0  0  0
 20 19  1  0  0  0  0
 21 26  1  0  0  0  0
 21 22  1  0  0  0  0
 22 23  1  0  0  0  0
 23 24  1  0  0  0  0
 23 47  1  0  0  0  0
 23 48  1  0  0  0  0
 24 50  1  0  0  0  0
 24 49  1  0  0  0  0
 25 51  1  0  0  0  0
 25 24  1  0  0  0  0
 26 54  1  0  0  0  0
 26 25  1  0  0  0  0
 28 27  2  0  0  0  0
 29 27  1  0  0  0  0
 29 56  1  0  0  0  0
 32  6  1  0  0  0  0
 33  7  1  0  0  0  0
 35 12  1  0  0  0  0
 39 17  1  0  0  0  0
 41 19  1  0  0  0  0
 43 20  1  0  0  0  0
 44 20  1  0  0  0  0
 45 22  1  0  0  0  0
 46 22  1  0  0  0  0
 52 25  1  0  0  0  0
 53 26  1  0  0  0  0
 55 29  1  0  0  0  0
M  END
>  <Pose>
1

>  <Score>
-6.06

$$$$
