
 OpenBabel03212208413D

 49 52  0  0  0  0  0  0  0  0999 V2000
   25.6600   36.0790   63.4400 B   0  0  0  0  0  0  0  0  0  0  0  0
   24.7400   35.5760   65.0430 C   0  0  0  0  0  0  0  0  0  0  0  0
   23.8510   36.4340   65.6590 C   0  0  0  0  0  0  0  0  0  0  0  0
   23.1850   36.0630   66.8230 C   0  0  0  0  0  0  0  0  0  0  0  0
   23.3870   34.8290   67.4050 C   0  0  0  0  0  0  0  0  0  0  0  0
   24.2750   33.9770   66.7860 C   0  0  0  0  0  0  0  0  0  0  0  0
   24.9360   34.3420   65.6320 C   0  0  0  0  0  0  0  0  0  0  0  0
   22.7230   34.4160   68.5940 N   0  0  0  0  0  0  0  0  0  0  0  0
   21.4110   34.3320   68.8670 C   0  0  0  0  0  0  0  0  0  0  0  0
   20.5260   34.6350   68.0270 O   0  0  0  0  0  0  0  0  0  0  0  0
   21.1970   33.8780   70.1580 C   0  0  0  0  0  0  0  0  0  0  0  0
   22.4020   33.6840   70.6780 C   0  0  0  0  0  0  0  0  0  0  0  0
   22.1930   33.2450   71.9290 N   0  0  0  0  0  0  0  0  0  0  0  0
   20.8950   33.1740   72.1660 N   0  0  0  0  0  0  0  0  0  0  0  0
   20.2650   33.5590   71.0890 N   0  0  0  0  0  0  0  0  0  0  0  0
   18.8390   33.6440   70.8850 C   0  0  0  0  0  0  0  0  0  0  0  0
   18.2870   32.2560   70.6590 C   0  0  0  0  0  0  0  0  0  0  0  0
   19.0680   31.2790   70.6770 O   0  0  0  0  0  0  0  0  0  0  0  0
   16.9150   32.0720   70.4320 N   0  0  0  0  0  0  0  0  0  0  0  0
   16.0240   31.3810   71.2770 C   0  0  0  0  0  0  0  0  0  0  0  0
   16.3120   30.2520   72.0010 C   0  0  0  0  0  0  0  0  0  0  0  0
   15.3870   29.6110   72.7980 C   0  0  0  0  0  0  0  0  0  0  0  0
   14.1140   30.1360   72.8650 C   0  0  0  0  0  0  0  0  0  0  0  0
   13.7820   31.2750   72.1490 C   0  0  0  0  0  0  0  0  0  0  0  0
   14.7150   31.8940   71.3640 C   0  0  0  0  0  0  0  0  0  0  0  0
   13.1650   29.5050   73.6640 O   0  0  0  0  0  0  0  0  0  0  0  0
   12.4030   30.2770   74.5720 C   0  0  0  0  0  0  0  0  0  0  0  0
   15.7090   28.4660   73.5230 O   0  0  0  0  0  0  0  0  0  0  0  0
   16.6870   27.5800   72.9630 C   0  0  0  0  0  0  0  0  0  0  0  0
   23.3430   34.0120   69.7260 C   0  0  0  0  0  0  0  0  0  0  0  0
   24.6070   33.9450   69.8840 O   0  0  0  0  0  0  0  0  0  0  0  0
   23.6970   37.4060   65.1930 H   0  0  0  0  0  0  0  0  0  0  0  0
   22.4940   36.7390   67.2960 H   0  0  0  0  0  0  0  0  0  0  0  0
   24.4290   33.0060   67.2510 H   0  0  0  0  0  0  0  0  0  0  0  0
   25.6350   33.6450   65.1630 H   0  0  0  0  0  0  0  0  0  0  0  0
   22.9150   32.9920   72.6330 H   0  0  0  0  0  0  0  0  0  0  0  0
   20.4210   32.8620   73.0650 H   0  0  0  0  0  0  0  0  0  0  0  0
   18.5660   34.2540   69.9920 H   0  0  0  0  0  0  0  0  0  0  0  0
   18.3270   34.0360   71.7770 H   0  0  0  0  0  0  0  0  0  0  0  0
   16.5140   32.5040   69.5370 H   0  0  0  0  0  0  0  0  0  0  0  0
   17.3050   29.8250   71.9740 H   0  0  0  0  0  0  0  0  0  0  0  0
   12.7640   31.6630   72.2240 H   0  0  0  0  0  0  0  0  0  0  0  0
   14.4370   32.8010   70.7980 H   0  0  0  0  0  0  0  0  0  0  0  0
   11.9390   31.0950   73.9720 H   0  0  0  0  0  0  0  0  0  0  0  0
   13.0680   30.7190   75.3250 H   0  0  0  0  0  0  0  0  0  0  0  0
   11.6070   29.6330   75.0140 H   0  0  0  0  0  0  0  0  0  0  0  0
   17.6850   28.0960   72.9140 H   0  0  0  0  0  0  0  0  0  0  0  0
   16.7760   26.6600   73.5740 H   0  0  0  0  0  0  0  0  0  0  0  0
   16.3990   27.2910   71.9300 H   0  0  0  0  0  0  0  0  0  0  0  0
  1  2  1  0  0  0  0
  2  7  2  0  0  0  0
  2  3  1  0  0  0  0
  3  4  2  0  0  0  0
  4 33  1  0  0  0  0
  4  5  1  0  0  0  0
  5  8  1  0  0  0  0
  6 34  1  0  0  0  0
  6  5  2  0  0  0  0
  7  6  1  0  0  0  0
  8  9  1  0  0  0  0
  8 30  1  0  0  0  0
  9 11  1  0  0  0  0
 10  9  2  0  0  0  0
 11 12  2  0  0  0  0
 11 15  1  0  0  0  0
 12 13  1  0  0  0  0
 13 14  1  0  0  0  0
 13 36  1  0  0  0  0
 14 37  1  0  0  0  0
 15 14  1  0  0  0  0
 16 15  1  0  0  0  0
 16 39  1  0  0  0  0
 17 18  2  0  0  0  0
 17 16  1  0  0  0  0
 19 17  1  0  0  0  0
 19 20  1  0  0  0  0
 20 25  2  0  0  0  0
 20 21  1  0  0  0  0
 21 22  2  0  0  0  0
 22 23  1  0  0  0  0
 22 28  1  0  0  0  0
 23 26  1  0  0  0  0
 24 42  1  0  0  0  0
 24 23  2  0  0  0  0
 25 24  1  0  0  0  0
 26 27  1  0  0  0  0
 27 46  1  0  0  0  0
 27 45  1  0  0  0  0
 29 28  1  0  0  0  0
 29 48  1  0  0  0  0
 30 31  2  0  0  0  0
 30 12  1  0  0  0  0
 32  3  1  0  0  0  0
 35  7  1  0  0  0  0
 38 16  1  0  0  0  0
 40 19  1  0  0  0  0
 41 21  1  0  0  0  0
 43 25  1  0  0  0  0
 44 27  1  0  0  0  0
 47 29  1  0  0  0  0
 49 29  1  0  0  0  0
M  END
>  <Pose>
1

>  <Score>
-6.87

$$$$
