
 OpenBabel03212208413D

 49 52  0  0  0  0  0  0  0  0999 V2000
   23.2960   36.0960   65.8550 B   0  0  0  0  0  0  0  0  0  0  0  0
   22.2250   35.4960   67.3420 C   0  0  0  0  0  0  0  0  0  0  0  0
   21.2870   36.3170   67.9190 C   0  0  0  0  0  0  0  0  0  0  0  0
   20.5100   35.8790   69.0030 C   0  0  0  0  0  0  0  0  0  0  0  0
   20.6720   34.6140   69.5120 C   0  0  0  0  0  0  0  0  0  0  0  0
   21.6190   33.8080   68.9150 C   0  0  0  0  0  0  0  0  0  0  0  0
   22.3860   34.2290   67.8540 C   0  0  0  0  0  0  0  0  0  0  0  0
   19.8860   34.1610   70.6170 N   0  0  0  0  0  0  0  0  0  0  0  0
   19.0170   33.1510   70.6950 C   0  0  0  0  0  0  0  0  0  0  0  0
   18.7280   32.3800   69.7200 O   0  0  0  0  0  0  0  0  0  0  0  0
   18.4460   33.0130   71.9390 C   0  0  0  0  0  0  0  0  0  0  0  0
   19.0050   34.0000   72.6660 C   0  0  0  0  0  0  0  0  0  0  0  0
   18.4590   33.8870   73.9010 N   0  0  0  0  0  0  0  0  0  0  0  0
   17.6090   32.8760   73.9300 N   0  0  0  0  0  0  0  0  0  0  0  0
   17.5970   32.3360   72.7290 N   0  0  0  0  0  0  0  0  0  0  0  0
   16.8010   31.2060   72.3490 C   0  0  0  0  0  0  0  0  0  0  0  0
   15.8210   30.8090   73.3570 C   0  0  0  0  0  0  0  0  0  0  0  0
   14.6470   31.2800   73.3890 O   0  0  0  0  0  0  0  0  0  0  0  0
   16.2140   29.8660   74.3330 N   0  0  0  0  0  0  0  0  0  0  0  0
   16.0410   28.4850   74.0620 C   0  0  0  0  0  0  0  0  0  0  0  0
   16.9620   27.9030   73.2270 C   0  0  0  0  0  0  0  0  0  0  0  0
   16.8430   26.5510   72.8850 C   0  0  0  0  0  0  0  0  0  0  0  0
   15.8060   25.8100   73.3850 C   0  0  0  0  0  0  0  0  0  0  0  0
   14.8620   26.3860   74.2330 C   0  0  0  0  0  0  0  0  0  0  0  0
   15.0090   27.7270   74.5530 C   0  0  0  0  0  0  0  0  0  0  0  0
   13.8430   25.5800   74.6940 O   0  0  0  0  0  0  0  0  0  0  0  0
   13.9680   24.3530   75.3440 C   0  0  0  0  0  0  0  0  0  0  0  0
   17.8220   26.0730   72.0460 O   0  0  0  0  0  0  0  0  0  0  0  0
   18.9890   25.4670   72.4680 C   0  0  0  0  0  0  0  0  0  0  0  0
   19.8810   34.7050   71.8740 C   0  0  0  0  0  0  0  0  0  0  0  0
   20.5910   35.6930   72.1820 O   0  0  0  0  0  0  0  0  0  0  0  0
   21.1540   37.3100   67.5230 H   0  0  0  0  0  0  0  0  0  0  0  0
   19.7810   36.5460   69.4410 H   0  0  0  0  0  0  0  0  0  0  0  0
   21.7300   32.8090   69.3390 H   0  0  0  0  0  0  0  0  0  0  0  0
   23.1280   33.5830   67.3920 H   0  0  0  0  0  0  0  0  0  0  0  0
   18.6940   34.5230   74.6980 H   0  0  0  0  0  0  0  0  0  0  0  0
   17.0660   32.6060   74.7940 H   0  0  0  0  0  0  0  0  0  0  0  0
   16.2600   31.3810   71.3820 H   0  0  0  0  0  0  0  0  0  0  0  0
   17.4380   30.3000   72.1320 H   0  0  0  0  0  0  0  0  0  0  0  0
   16.6330   30.1870   75.2600 H   0  0  0  0  0  0  0  0  0  0  0  0
   17.7920   28.5030   72.8300 H   0  0  0  0  0  0  0  0  0  0  0  0
   15.7360   24.7670   73.1080 H   0  0  0  0  0  0  0  0  0  0  0  0
   14.2800   28.1780   75.2160 H   0  0  0  0  0  0  0  0  0  0  0  0
   13.1010   23.6990   75.0910 H   0  0  0  0  0  0  0  0  0  0  0  0
   13.9070   24.4720   76.4660 H   0  0  0  0  0  0  0  0  0  0  0  0
   14.8940   23.8000   75.1020 H   0  0  0  0  0  0  0  0  0  0  0  0
   19.2460   24.6210   71.7860 H   0  0  0  0  0  0  0  0  0  0  0  0
   18.9490   25.0830   73.4840 H   0  0  0  0  0  0  0  0  0  0  0  0
   19.8260   26.2180   72.3420 H   0  0  0  0  0  0  0  0  0  0  0  0
  1  2  1  0  0  0  0
  2  7  2  0  0  0  0
  2  3  1  0  0  0  0
  3  4  2  0  0  0  0
  4 33  1  0  0  0  0
  4  5  1  0  0  0  0
  5  8  1  0  0  0  0
  6 34  1  0  0  0  0
  6  5  2  0  0  0  0
  7  6  1  0  0  0  0
  8  9  1  0  0  0  0
  8 30  1  0  0  0  0
  9 11  1  0  0  0  0
 10  9  2  0  0  0  0
 11 12  2  0  0  0  0
 11 15  1  0  0  0  0
 12 13  1  0  0  0  0
 13 14  1  0  0  0  0
 13 36  1  0  0  0  0
 14 37  1  0  0  0  0
 15 14  1  0  0  0  0
 16 15  1  0  0  0  0
 16 17  1  0  0  0  0
 17 18  2  0  0  0  0
 17 19  1  0  0  0  0
 19 40  1  0  0  0  0
 20 19  1  0  0  0  0
 20 25  1  0  0  0  0
 21 20  2  0  0  0  0
 22 21  1  0  0  0  0
 22 23  2  0  0  0  0
 23 24  1  0  0  0  0
 24 25  2  0  0  0  0
 24 26  1  0  0  0  0
 25 43  1  0  0  0  0
 26 27  1  0  0  0  0
 27 45  1  0  0  0  0
 28 29  1  0  0  0  0
 28 22  1  0  0  0  0
 29 48  1  0  0  0  0
 30 31  2  0  0  0  0
 30 12  1  0  0  0  0
 32  3  1  0  0  0  0
 35  7  1  0  0  0  0
 38 16  1  0  0  0  0
 39 16  1  0  0  0  0
 41 21  1  0  0  0  0
 42 23  1  0  0  0  0
 44 27  1  0  0  0  0
 46 27  1  0  0  0  0
 47 29  1  0  0  0  0
 49 29  1  0  0  0  0
M  END
>  <Pose>
1

>  <Score>
-7.28

$$$$
