
 OpenBabel03212208413D

 50 53  0  0  0  0  0  0  0  0999 V2000
   17.0370   28.1710   73.0420 B   0  0  0  0  0  0  0  0  0  0  0  0
   16.3410   29.8480   72.4790 C   0  0  0  0  0  0  0  0  0  0  0  0
   15.1420   30.3580   72.9320 C   0  0  0  0  0  0  0  0  0  0  0  0
   14.6710   31.5610   72.5100 C   0  0  0  0  0  0  0  0  0  0  0  0
   15.3810   32.3310   71.6010 C   0  0  0  0  0  0  0  0  0  0  0  0
   16.5750   31.8370   71.1430 C   0  0  0  0  0  0  0  0  0  0  0  0
   17.0360   30.6230   71.5770 C   0  0  0  0  0  0  0  0  0  0  0  0
   14.8550   33.5880   71.1820 N   0  0  0  0  0  0  0  0  0  0  0  0
   15.6020   34.7160   71.0710 C   0  0  0  0  0  0  0  0  0  0  0  0
   16.8440   34.8200   71.3150 O   0  0  0  0  0  0  0  0  0  0  0  0
   14.8010   35.7620   70.6440 C   0  0  0  0  0  0  0  0  0  0  0  0
   13.5830   35.2450   70.5040 C   0  0  0  0  0  0  0  0  0  0  0  0
   12.7770   36.2510   70.0860 N   0  0  0  0  0  0  0  0  0  0  0  0
   13.5270   37.3440   69.9830 N   0  0  0  0  0  0  0  0  0  0  0  0
   14.7750   37.0820   70.3190 N   0  0  0  0  0  0  0  0  0  0  0  0
   15.9290   37.9730   70.3520 C   0  0  0  0  0  0  0  0  0  0  0  0
   17.0030   37.4230   69.4450 C   0  0  0  0  0  0  0  0  0  0  0  0
   16.5880   37.2170   68.2780 O   0  0  0  0  0  0  0  0  0  0  0  0
   18.2860   37.2000   69.9410 N   0  0  0  0  0  0  0  0  0  0  0  0
   19.4520   36.8910   69.1980 C   0  0  0  0  0  0  0  0  0  0  0  0
   19.7030   37.3040   67.9110 C   0  0  0  0  0  0  0  0  0  0  0  0
   20.8840   36.9550   67.2410 C   0  0  0  0  0  0  0  0  0  0  0  0
   21.8460   36.1810   67.8450 C   0  0  0  0  0  0  0  0  0  0  0  0
   21.6060   35.7630   69.1310 C   0  0  0  0  0  0  0  0  0  0  0  0
   20.4410   36.1090   69.7890 C   0  0  0  0  0  0  0  0  0  0  0  0
   23.0600   35.8420   67.1090 C   0  0  0  0  0  0  0  0  0  0  0  0
   24.0920   35.5600   67.7680 O   0  0  0  0  0  0  0  0  0  0  0  0
   23.1540   35.8110   65.7460 O   0  0  0  0  0  0  0  0  0  0  0  0
   24.2260   36.2750   64.9780 C   0  0  0  0  0  0  0  0  0  0  0  0
   25.1600   35.0760   64.7630 C   0  0  0  0  0  0  0  0  0  0  0  0
   13.6020   33.9100   70.8320 C   0  0  0  0  0  0  0  0  0  0  0  0
   12.6370   33.1140   70.8160 O   0  0  0  0  0  0  0  0  0  0  0  0
   14.5870   29.7560   73.6420 H   0  0  0  0  0  0  0  0  0  0  0  0
   13.7080   31.9330   72.8950 H   0  0  0  0  0  0  0  0  0  0  0  0
   17.1550   32.4120   70.4340 H   0  0  0  0  0  0  0  0  0  0  0  0
   17.9900   30.2160   71.2190 H   0  0  0  0  0  0  0  0  0  0  0  0
   11.7600   36.1670   69.8850 H   0  0  0  0  0  0  0  0  0  0  0  0
   13.1720   38.2690   69.6820 H   0  0  0  0  0  0  0  0  0  0  0  0
   15.6570   39.0070   70.0710 H   0  0  0  0  0  0  0  0  0  0  0  0
   16.2740   38.0000   71.4070 H   0  0  0  0  0  0  0  0  0  0  0  0
   18.3890   37.2740   71.0030 H   0  0  0  0  0  0  0  0  0  0  0  0
   18.9720   37.9070   67.4160 H   0  0  0  0  0  0  0  0  0  0  0  0
   21.0480   37.3020   66.2190 H   0  0  0  0  0  0  0  0  0  0  0  0
   22.3760   35.1500   69.6000 H   0  0  0  0  0  0  0  0  0  0  0  0
   20.2830   35.7560   70.8180 H   0  0  0  0  0  0  0  0  0  0  0  0
   23.9380   36.6300   63.9700 H   0  0  0  0  0  0  0  0  0  0  0  0
   24.8130   37.0820   65.4570 H   0  0  0  0  0  0  0  0  0  0  0  0
   24.6530   34.3660   64.0480 H   0  0  0  0  0  0  0  0  0  0  0  0
   25.3110   34.5150   65.7010 H   0  0  0  0  0  0  0  0  0  0  0  0
   26.1360   35.3750   64.3770 H   0  0  0  0  0  0  0  0  0  0  0  0
  2  3  1  0  0  0  0
  2  1  1  0  0  0  0
  3 33  1  0  0  0  0
  4 34  1  0  0  0  0
  4  3  2  0  0  0  0
  5  4  1  0  0  0  0
  6  7  1  0  0  0  0
  6  5  2  0  0  0  0
  7  2  2  0  0  0  0
  8  5  1  0  0  0  0
  9  8  1  0  0  0  0
  9 10  2  0  0  0  0
 11  9  1  0  0  0  0
 12 11  2  0  0  0  0
 12 31  1  0  0  0  0
 13 12  1  0  0  0  0
 14 13  1  0  0  0  0
 14 15  1  0  0  0  0
 15 16  1  0  0  0  0
 15 11  1  0  0  0  0
 16 40  1  0  0  0  0
 17 19  1  0  0  0  0
 17 16  1  0  0  0  0
 18 17  2  0  0  0  0
 19 41  1  0  0  0  0
 20 25  1  0  0  0  0
 20 19  1  0  0  0  0
 21 20  2  0  0  0  0
 22 23  2  0  0  0  0
 22 21  1  0  0  0  0
 23 24  1  0  0  0  0
 24 44  1  0  0  0  0
 24 25  2  0  0  0  0
 25 45  1  0  0  0  0
 26 27  2  0  0  0  0
 26 23  1  0  0  0  0
 28 26  1  0  0  0  0
 29 47  1  0  0  0  0
 29 28  1  0  0  0  0
 30 29  1  0  0  0  0
 30 49  1  0  0  0  0
 31  8  1  0  0  0  0
 32 31  2  0  0  0  0
 35  6  1  0  0  0  0
 36  7  1  0  0  0  0
 37 13  1  0  0  0  0
 38 14  1  0  0  0  0
 39 16  1  0  0  0  0
 42 21  1  0  0  0  0
 43 22  1  0  0  0  0
 46 29  1  0  0  0  0
 48 30  1  0  0  0  0
 50 30  1  0  0  0  0
M  END
>  <Pose>
1

>  <Score>
-7.63

$$$$
