
 OpenBabel03212208413D

 48 51  0  0  0  0  0  0  0  0999 V2000
   18.8410   20.5050   74.5260 B   0  0  0  0  0  0  0  0  0  0  0  0
   18.1890   22.2970   74.4470 C   0  0  0  0  0  0  0  0  0  0  0  0
   16.9110   22.6320   74.8420 C   0  0  0  0  0  0  0  0  0  0  0  0
   16.4550   23.9400   74.7810 C   0  0  0  0  0  0  0  0  0  0  0  0
   17.2510   24.9710   74.3250 C   0  0  0  0  0  0  0  0  0  0  0  0
   18.5330   24.6380   73.9270 C   0  0  0  0  0  0  0  0  0  0  0  0
   18.9880   23.3370   73.9870 C   0  0  0  0  0  0  0  0  0  0  0  0
   16.8220   26.3270   74.2520 N   0  0  0  0  0  0  0  0  0  0  0  0
   16.5540   27.0590   73.1340 C   0  0  0  0  0  0  0  0  0  0  0  0
   16.6500   26.6090   71.9670 O   0  0  0  0  0  0  0  0  0  0  0  0
   16.1690   28.3400   73.4650 C   0  0  0  0  0  0  0  0  0  0  0  0
   16.2000   28.3970   74.7890 C   0  0  0  0  0  0  0  0  0  0  0  0
   15.8290   29.6410   75.1430 N   0  0  0  0  0  0  0  0  0  0  0  0
   15.5770   30.3240   74.0360 N   0  0  0  0  0  0  0  0  0  0  0  0
   15.7770   29.5530   72.9830 N   0  0  0  0  0  0  0  0  0  0  0  0
   15.6340   29.8910   71.5970 C   0  0  0  0  0  0  0  0  0  0  0  0
   14.4000   30.7100   71.3030 C   0  0  0  0  0  0  0  0  0  0  0  0
   13.5750   30.1850   70.5240 O   0  0  0  0  0  0  0  0  0  0  0  0
   14.1970   31.9660   71.8700 N   0  0  0  0  0  0  0  0  0  0  0  0
   14.4570   33.2470   71.3520 C   0  0  0  0  0  0  0  0  0  0  0  0
   13.4990   33.8920   70.5700 C   0  0  0  0  0  0  0  0  0  0  0  0
   13.7170   35.1310   70.0310 C   0  0  0  0  0  0  0  0  0  0  0  0
   14.9260   35.7920   70.2520 C   0  0  0  0  0  0  0  0  0  0  0  0
   15.8480   35.1320   71.0270 C   0  0  0  0  0  0  0  0  0  0  0  0
   15.6340   33.8880   71.5730 C   0  0  0  0  0  0  0  0  0  0  0  0
   15.1050   37.0340   69.6880 O   0  0  0  0  0  0  0  0  0  0  0  0
   16.2200   37.8550   69.8140 C   0  0  0  0  0  0  0  0  0  0  0  0
   17.0690   37.9350   68.5910 C   0  0  0  0  0  0  0  0  0  0  0  0
   16.5980   27.1700   75.2700 C   0  0  0  0  0  0  0  0  0  0  0  0
   16.7430   26.8430   76.4900 O   0  0  0  0  0  0  0  0  0  0  0  0
   16.2820   21.8210   75.2010 H   0  0  0  0  0  0  0  0  0  0  0  0
   15.4550   24.1990   75.0900 H   0  0  0  0  0  0  0  0  0  0  0  0
   19.1560   25.4510   73.5680 H   0  0  0  0  0  0  0  0  0  0  0  0
   19.9920   23.1040   73.6720 H   0  0  0  0  0  0  0  0  0  0  0  0
   15.7410   30.0300   76.0970 H   0  0  0  0  0  0  0  0  0  0  0  0
   15.2620   31.3380   74.0110 H   0  0  0  0  0  0  0  0  0  0  0  0
   16.5170   30.4940   71.2550 H   0  0  0  0  0  0  0  0  0  0  0  0
   15.5460   28.9850   70.9380 H   0  0  0  0  0  0  0  0  0  0  0  0
   13.7760   31.9590   72.8650 H   0  0  0  0  0  0  0  0  0  0  0  0
   12.5600   33.4020   70.3850 H   0  0  0  0  0  0  0  0  0  0  0  0
   12.9420   35.6110   69.4190 H   0  0  0  0  0  0  0  0  0  0  0  0
   16.7960   35.6030   71.2240 H   0  0  0  0  0  0  0  0  0  0  0  0
   16.4130   33.4180   72.1880 H   0  0  0  0  0  0  0  0  0  0  0  0
   15.8530   38.9040   70.0280 H   0  0  0  0  0  0  0  0  0  0  0  0
   16.8580   37.5610   70.6750 H   0  0  0  0  0  0  0  0  0  0  0  0
   17.0920   38.9280   68.0990 H   0  0  0  0  0  0  0  0  0  0  0  0
   18.1320   37.7080   68.8390 H   0  0  0  0  0  0  0  0  0  0  0  0
   16.7950   37.1890   67.7990 H   0  0  0  0  0  0  0  0  0  0  0  0
  2  1  1  0  0  0  0
  2  3  1  0  0  0  0
  3 31  1  0  0  0  0
  4  3  2  0  0  0  0
  4 32  1  0  0  0  0
  5  4  1  0  0  0  0
  6  7  1  0  0  0  0
  6  5  2  0  0  0  0
  7  2  2  0  0  0  0
  8  5  1  0  0  0  0
  8 29  1  0  0  0  0
  9 11  1  0  0  0  0
  9  8  1  0  0  0  0
 10  9  2  0  0  0  0
 11 12  2  0  0  0  0
 12 13  1  0  0  0  0
 12 29  1  0  0  0  0
 13 35  1  0  0  0  0
 14 13  1  0  0  0  0
 15 11  1  0  0  0  0
 15 14  1  0  0  0  0
 16 15  1  0  0  0  0
 17 16  1  0  0  0  0
 17 19  1  0  0  0  0
 18 17  2  0  0  0  0
 19 39  1  0  0  0  0
 20 25  1  0  0  0  0
 20 19  1  0  0  0  0
 21 20  2  0  0  0  0
 22 23  2  0  0  0  0
 22 21  1  0  0  0  0
 23 24  1  0  0  0  0
 24 42  1  0  0  0  0
 24 25  2  0  0  0  0
 25 43  1  0  0  0  0
 26 27  1  0  0  0  0
 26 23  1  0  0  0  0
 27 44  1  0  0  0  0
 27 45  1  0  0  0  0
 28 47  1  0  0  0  0
 28 27  1  0  0  0  0
 29 30  2  0  0  0  0
 33  6  1  0  0  0  0
 34  7  1  0  0  0  0
 36 14  1  0  0  0  0
 37 16  1  0  0  0  0
 38 16  1  0  0  0  0
 40 21  1  0  0  0  0
 41 22  1  0  0  0  0
 46 28  1  0  0  0  0
 48 28  1  0  0  0  0
M  END
>  <Pose>
1

>  <Score>
-6.64

$$$$
