
 OpenBabel03212208413D

 38 42  0  0  1  0  0  0  0  0999 V2000
   12.6010   35.2740   69.6010 B   0  0  0  0  0  0  0  0  0  0  0  0
   14.4380   35.2790   70.0720 C   0  0  0  0  0  0  0  0  0  0  0  0
   15.1000   36.4760   70.2030 C   0  0  0  0  0  0  0  0  0  0  0  0
   16.4340   36.4500   70.5460 C   0  0  0  0  0  0  0  0  0  0  0  0
   17.1150   35.2710   70.7570 C   0  0  0  0  0  0  0  0  0  0  0  0
   16.4470   34.0610   70.6260 C   0  0  0  0  0  0  0  0  0  0  0  0
   15.0950   34.0920   70.2790 C   0  0  0  0  0  0  0  0  0  0  0  0
   18.5020   35.2580   71.1170 N   0  0  0  0  0  0  0  0  0  0  0  0
   19.4950   35.9510   70.3760 C   0  0  0  0  0  0  0  0  0  0  0  0
   19.2530   36.8890   69.5790 O   0  0  0  0  0  0  0  0  0  0  0  0
   20.8300   35.3830   70.7040 C   0  0  2  0  0  0  0  0  0  0  0  0
   21.2510   34.3270   69.7290 C   0  0  1  0  0  0  0  0  0  0  0  0
   22.0200   33.4940   70.5720 O   0  0  0  0  0  0  0  0  0  0  0  0
   20.9860   33.1790   71.4890 C   0  0  1  0  0  0  0  0  0  0  0  0
   20.5940   34.5380   71.9560 C   0  0  2  0  0  0  0  0  0  0  0  0
   19.1300   34.5940   72.2130 C   0  0  0  0  0  0  0  0  0  0  0  0
   18.5730   34.1360   73.2140 O   0  0  0  0  0  0  0  0  0  0  0  0
   19.9550   32.6940   70.5340 C   0  0  0  0  0  0  0  0  0  0  0  0
   20.0900   33.4640   69.4590 C   0  0  0  0  0  0  0  0  0  0  0  0
   21.9990   34.8040   68.5590 C   0  0  0  0  0  0  0  0  0  0  0  0
   22.1740   33.8590   67.5860 O   0  0  0  0  0  0  0  0  0  0  0  0
   23.5010   33.5100   67.5430 C   0  0  0  0  0  0  0  0  0  0  0  0
   24.1880   34.3320   68.5840 C   0  0  0  0  0  0  0  0  0  0  0  0
   23.2430   35.2980   68.9080 O   0  0  0  0  0  0  0  0  0  0  0  0
   14.6070   37.4390   70.0450 H   0  0  0  0  0  0  0  0  0  0  0  0
   16.9940   37.3910   70.6590 H   0  0  0  0  0  0  0  0  0  0  0  0
   16.9910   33.1480   70.7950 H   0  0  0  0  0  0  0  0  0  0  0  0
   14.5750   33.1500   70.1760 H   0  0  0  0  0  0  0  0  0  0  0  0
   21.5620   36.1760   70.8520 H   0  0  0  0  0  0  0  0  0  0  0  0
   21.2840   32.4720   72.2440 H   0  0  0  0  0  0  0  0  0  0  0  0
   21.1660   34.9170   72.8030 H   0  0  0  0  0  0  0  0  0  0  0  0
   19.2770   31.8780   70.7470 H   0  0  0  0  0  0  0  0  0  0  0  0
   19.4180   33.3860   68.6100 H   0  0  0  0  0  0  0  0  0  0  0  0
   21.4280   35.6640   68.1170 H   0  0  0  0  0  0  0  0  0  0  0  0
   23.9710   33.6820   66.5550 H   0  0  0  0  0  0  0  0  0  0  0  0
   23.5790   32.4330   67.8420 H   0  0  0  0  0  0  0  0  0  0  0  0
   25.1210   34.8100   68.1640 H   0  0  0  0  0  0  0  0  0  0  0  0
   24.4450   33.7520   69.5070 H   0  0  0  0  0  0  0  0  0  0  0  0
  1  2  1  0  0  0  0
  2  3  2  0  0  0  0
  2  7  1  0  0  0  0
  3  4  1  0  0  0  0
  4 26  1  0  0  0  0
  4  5  2  0  0  0  0
  5  8  1  0  0  0  0
  6  5  1  0  0  0  0
  6 27  1  0  0  0  0
  7  6  2  0  0  0  0
  8 16  1  0  0  0  0
  9 11  1  0  0  0  0
  9  8  1  0  0  0  0
 10  9  2  0  0  0  0
 11 29  1  1  0  0  0
 11 15  1  0  0  0  0
 12 20  1  6  0  0  0
 12 13  1  0  0  0  0
 12 11  1  0  0  0  0
 13 14  1  0  0  0  0
 14 15  1  0  0  0  0
 14 30  1  1  0  0  0
 15 16  1  0  0  0  0
 15 31  1  1  0  0  0
 16 17  2  0  0  0  0
 18 32  1  0  0  0  0
 18 14  1  0  0  0  0
 19 12  1  0  0  0  0
 19 18  2  0  0  0  0
 20 24  1  0  0  0  0
 21 20  1  0  0  0  0
 22 21  1  0  0  0  0
 22 36  1  0  0  0  0
 22 23  1  0  0  0  0
 23 24  1  0  0  0  0
 23 38  1  0  0  0  0
 25  3  1  0  0  0  0
 28  7  1  0  0  0  0
 33 19  1  0  0  0  0
 34 20  1  0  0  0  0
 35 22  1  0  0  0  0
 37 23  1  0  0  0  0
M  END
>  <Pose>
1

>  <Score>
-5.12

$$$$
