
 OpenBabel03212208413D

 50 53  0  0  0  0  0  0  0  0999 V2000
   13.2540   39.2750   69.1940 B   0  0  0  0  0  0  0  0  0  0  0  0
   13.6710   37.4690   69.6740 C   0  0  0  0  0  0  0  0  0  0  0  0
   12.8960   36.4170   69.2150 C   0  0  0  0  0  0  0  0  0  0  0  0
   13.2040   35.1170   69.5660 C   0  0  0  0  0  0  0  0  0  0  0  0
   14.2800   34.8150   70.3780 C   0  0  0  0  0  0  0  0  0  0  0  0
   15.0610   35.8510   70.8430 C   0  0  0  0  0  0  0  0  0  0  0  0
   14.7380   37.1440   70.4820 C   0  0  0  0  0  0  0  0  0  0  0  0
   14.5520   33.4830   70.7090 N   0  0  0  0  0  0  0  0  0  0  0  0
   13.4830   32.6150   71.0910 C   0  0  0  0  0  0  0  0  0  0  0  0
   12.3090   33.1060   71.1120 O   0  0  0  0  0  0  0  0  0  0  0  0
   13.7570   31.2670   71.4280 N   0  0  0  0  0  0  0  0  0  0  0  0
   15.0620   30.6970   71.4120 C   0  0  0  0  0  0  0  0  0  0  0  0
   15.2760   29.4910   71.7170 O   0  0  0  0  0  0  0  0  0  0  0  0
   16.1890   31.5630   71.0210 C   0  0  0  0  0  0  0  0  0  0  0  0
   17.4260   31.0920   70.9890 C   0  0  0  0  0  0  0  0  0  0  0  0
   18.4920   31.9510   70.6090 N   0  0  0  0  0  0  0  0  0  0  0  0
   19.7800   31.5440   70.3060 N   0  0  0  0  0  0  0  0  0  0  0  0
   20.8510   31.4860   71.2410 C   0  0  0  0  0  0  0  0  0  0  0  0
   20.7170   31.2580   72.5520 N   0  0  0  0  0  0  0  0  0  0  0  0
   21.9270   31.2680   73.1350 C   0  0  0  0  0  0  0  0  0  0  0  0
   22.8610   31.5150   72.1380 C   0  0  0  0  0  0  0  0  0  0  0  0
   22.1560   31.6390   71.0150 N   0  0  0  0  0  0  0  0  0  0  0  0
   24.1770   31.5870   72.4070 N   0  0  0  0  0  0  0  0  0  0  0  0
   24.5890   31.4170   73.6640 C   0  0  0  0  0  0  0  0  0  0  0  0
   25.8220   31.4770   73.9590 O   0  0  0  0  0  0  0  0  0  0  0  0
   23.7280   31.1710   74.6870 N   0  0  0  0  0  0  0  0  0  0  0  0
   22.4050   31.1010   74.4070 C   0  0  0  0  0  0  0  0  0  0  0  0
   21.6120   30.8770   75.3440 O   0  0  0  0  0  0  0  0  0  0  0  0
   24.2220   30.9920   76.0290 C   0  0  0  0  0  0  0  0  0  0  0  0
   25.0820   31.8470   71.3260 C   0  0  0  0  0  0  0  0  0  0  0  0
   19.4960   31.0200   73.3310 C   0  0  0  0  0  0  0  0  0  0  0  0
   15.8730   32.9450   70.6800 C   0  0  0  0  0  0  0  0  0  0  0  0
   16.8030   33.7220   70.3410 O   0  0  0  0  0  0  0  0  0  0  0  0
   12.0600   36.6790   68.5800 H   0  0  0  0  0  0  0  0  0  0  0  0
   12.5380   34.3500   69.1590 H   0  0  0  0  0  0  0  0  0  0  0  0
   15.9320   35.6750   71.4930 H   0  0  0  0  0  0  0  0  0  0  0  0
   15.3740   37.9280   70.8670 H   0  0  0  0  0  0  0  0  0  0  0  0
   12.9460   30.6660   71.7010 H   0  0  0  0  0  0  0  0  0  0  0  0
   17.6560   30.0800   71.2400 H   0  0  0  0  0  0  0  0  0  0  0  0
   18.2490   32.9780   70.5610 H   0  0  0  0  0  0  0  0  0  0  0  0
   19.9330   31.2620   69.2940 H   0  0  0  0  0  0  0  0  0  0  0  0
   25.3280   30.9030   75.9940 H   0  0  0  0  0  0  0  0  0  0  0  0
   23.8570   30.0400   76.4750 H   0  0  0  0  0  0  0  0  0  0  0  0
   23.9120   31.8430   76.6600 H   0  0  0  0  0  0  0  0  0  0  0  0
   25.3710   32.9140   71.2520 H   0  0  0  0  0  0  0  0  0  0  0  0
   25.9730   31.1990   71.4570 H   0  0  0  0  0  0  0  0  0  0  0  0
   24.6200   31.5610   70.3590 H   0  0  0  0  0  0  0  0  0  0  0  0
   19.3740   29.9040   73.4330 H   0  0  0  0  0  0  0  0  0  0  0  0
   19.5720   31.4250   74.3400 H   0  0  0  0  0  0  0  0  0  0  0  0
   18.6200   31.3830   72.7600 H   0  0  0  0  0  0  0  0  0  0  0  0
  1  2  1  0  0  0  0
  2  7  1  0  0  0  0
  3  4  1  0  0  0  0
  3  2  2  0  0  0  0
  4  5  2  0  0  0  0
  5  8  1  0  0  0  0
  5  6  1  0  0  0  0
  6 36  1  0  0  0  0
  7  6  2  0  0  0  0
  7 37  1  0  0  0  0
  8  9  1  0  0  0  0
  9 10  2  0  0  0  0
  9 11  1  0  0  0  0
 11 38  1  0  0  0  0
 12 11  1  0  0  0  0
 12 13  2  0  0  0  0
 14 12  1  0  0  0  0
 15 14  2  0  0  0  0
 15 39  1  0  0  0  0
 16 15  1  0  0  0  0
 17 16  1  0  0  0  0
 17 18  1  0  0  0  0
 18 19  1  0  0  0  0
 19 20  1  0  0  0  0
 19 31  1  0  0  0  0
 20 27  1  0  0  0  0
 21 23  1  0  0  0  0
 21 20  2  0  0  0  0
 22 18  2  0  0  0  0
 22 21  1  0  0  0  0
 23 24  1  0  0  0  0
 24 25  2  0  0  0  0
 24 26  1  0  0  0  0
 26 29  1  0  0  0  0
 27 26  1  0  0  0  0
 27 28  2  0  0  0  0
 29 43  1  0  0  0  0
 29 44  1  0  0  0  0
 30 46  1  0  0  0  0
 30 23  1  0  0  0  0
 31 48  1  0  0  0  0
 31 49  1  0  0  0  0
 32  8  1  0  0  0  0
 32 14  1  0  0  0  0
 33 32  2  0  0  0  0
 34  3  1  0  0  0  0
 35  4  1  0  0  0  0
 40 16  1  0  0  0  0
 41 17  1  0  0  0  0
 42 29  1  0  0  0  0
 45 30  1  0  0  0  0
 47 30  1  0  0  0  0
 50 31  1  0  0  0  0
M  END
>  <Pose>
1

>  <Score>
-7.16

$$$$
