
 OpenBabel03212208413D

 44 47  0  0  0  0  0  0  0  0999 V2000
   24.3420   35.2890   65.7420 B   0  0  0  0  0  0  0  0  0  0  0  0
   23.1470   35.0160   67.1750 C   0  0  0  0  0  0  0  0  0  0  0  0
   22.2570   35.9860   67.5870 C   0  0  0  0  0  0  0  0  0  0  0  0
   21.3820   35.7600   68.6510 C   0  0  0  0  0  0  0  0  0  0  0  0
   21.3990   34.5510   69.3060 C   0  0  0  0  0  0  0  0  0  0  0  0
   22.2990   33.6070   68.8680 C   0  0  0  0  0  0  0  0  0  0  0  0
   23.1680   33.8000   67.8290 C   0  0  0  0  0  0  0  0  0  0  0  0
   20.5550   34.2280   70.3930 N   0  0  0  0  0  0  0  0  0  0  0  0
   21.0760   33.4190   71.4770 C   0  0  0  0  0  0  0  0  0  0  0  0
   20.0380   33.1030   72.5290 C   0  0  0  0  0  0  0  0  0  0  0  0
   18.7580   32.6980   71.7830 C   0  0  0  0  0  0  0  0  0  0  0  0
   18.2770   33.9140   71.1810 N   0  0  0  0  0  0  0  0  0  0  0  0
   19.2010   34.6530   70.4950 C   0  0  0  0  0  0  0  0  0  0  0  0
   18.5930   35.7450   70.0050 N   0  0  0  0  0  0  0  0  0  0  0  0
   17.2940   35.6700   70.3920 C   0  0  0  0  0  0  0  0  0  0  0  0
   17.0860   34.5180   71.1340 C   0  0  0  0  0  0  0  0  0  0  0  0
   15.8360   34.2220   71.6410 C   0  0  0  0  0  0  0  0  0  0  0  0
   15.6860   33.1510   72.3190 O   0  0  0  0  0  0  0  0  0  0  0  0
   14.8140   35.0650   71.4080 N   0  0  0  0  0  0  0  0  0  0  0  0
   15.0430   36.1750   70.6850 C   0  0  0  0  0  0  0  0  0  0  0  0
   14.0580   36.9360   70.4900 O   0  0  0  0  0  0  0  0  0  0  0  0
   16.2410   36.4800   70.1860 N   0  0  0  0  0  0  0  0  0  0  0  0
   16.4530   37.6920   69.4080 C   0  0  0  0  0  0  0  0  0  0  0  0
   13.4950   34.7620   71.9360 C   0  0  0  0  0  0  0  0  0  0  0  0
   12.8670   33.7070   71.0740 C   0  0  0  0  0  0  0  0  0  0  0  0
   12.3190   34.0130   69.9890 O   0  0  0  0  0  0  0  0  0  0  0  0
   12.8730   32.3460   71.4550 N   0  0  0  0  0  0  0  0  0  0  0  0
   22.2260   36.9480   67.0850 H   0  0  0  0  0  0  0  0  0  0  0  0
   20.7010   36.5470   68.9380 H   0  0  0  0  0  0  0  0  0  0  0  0
   22.3510   32.6230   69.3590 H   0  0  0  0  0  0  0  0  0  0  0  0
   23.8520   33.0200   67.5300 H   0  0  0  0  0  0  0  0  0  0  0  0
   21.4040   32.4230   71.0600 H   0  0  0  0  0  0  0  0  0  0  0  0
   21.9850   33.8750   71.9320 H   0  0  0  0  0  0  0  0  0  0  0  0
   19.8280   34.0210   73.1440 H   0  0  0  0  0  0  0  0  0  0  0  0
   20.3680   32.2680   73.1410 H   0  0  0  0  0  0  0  0  0  0  0  0
   18.0340   32.2160   72.4410 H   0  0  0  0  0  0  0  0  0  0  0  0
   19.1150   32.0290   70.9500 H   0  0  0  0  0  0  0  0  0  0  0  0
   17.5110   37.9340   69.3320 H   0  0  0  0  0  0  0  0  0  0  0  0
   15.9160   37.6260   68.4470 H   0  0  0  0  0  0  0  0  0  0  0  0
   15.9440   38.5100   69.9920 H   0  0  0  0  0  0  0  0  0  0  0  0
   12.8690   35.6670   71.9530 H   0  0  0  0  0  0  0  0  0  0  0  0
   13.6090   34.3530   72.9500 H   0  0  0  0  0  0  0  0  0  0  0  0
   13.7550   31.8010   71.5890 H   0  0  0  0  0  0  0  0  0  0  0  0
   11.9790   31.8210   71.6210 H   0  0  0  0  0  0  0  0  0  0  0  0
  1  2  1  0  0  0  0
  2  3  2  0  0  0  0
  2  7  1  0  0  0  0
  3  4  1  0  0  0  0
  4 29  1  0  0  0  0
  4  5  2  0  0  0  0
  5  8  1  0  0  0  0
  6  5  1  0  0  0  0
  6 30  1  0  0  0  0
  7  6  2  0  0  0  0
  8 13  1  0  0  0  0
  8  9  1  0  0  0  0
  9 33  1  0  0  0  0
  9 10  1  0  0  0  0
 10 35  1  0  0  0  0
 10 34  1  0  0  0  0
 11 36  1  0  0  0  0
 11 10  1  0  0  0  0
 12 11  1  0  0  0  0
 13 12  1  0  0  0  0
 14 15  1  0  0  0  0
 14 13  2  0  0  0  0
 15 16  2  0  0  0  0
 16 12  1  0  0  0  0
 16 17  1  0  0  0  0
 17 18  2  0  0  0  0
 19 17  1  0  0  0  0
 19 24  1  0  0  0  0
 20 19  1  0  0  0  0
 21 20  2  0  0  0  0
 22 15  1  0  0  0  0
 22 20  1  0  0  0  0
 23 40  1  0  0  0  0
 23 22  1  0  0  0  0
 24 41  1  0  0  0  0
 24 42  1  0  0  0  0
 25 27  1  0  0  0  0
 25 24  1  0  0  0  0
 26 25  2  0  0  0  0
 27 43  1  0  0  0  0
 27 44  1  0  0  0  0
 28  3  1  0  0  0  0
 31  7  1  0  0  0  0
 32  9  1  0  0  0  0
 37 11  1  0  0  0  0
 38 23  1  0  0  0  0
 39 23  1  0  0  0  0
M  END
>  <Pose>
1

>  <Score>
-6.75

$$$$
