
 OpenBabel03212208413D

 47 51  0  0  1  0  0  0  0  0999 V2000
   12.4470   26.6160   76.7590 B   0  0  0  0  0  0  0  0  0  0  0  0
   12.9450   28.0370   75.5620 C   0  0  0  0  0  0  0  0  0  0  0  0
   14.1360   28.0340   74.9000 C   0  0  0  0  0  0  0  0  0  0  0  0
   14.4610   29.0820   74.0410 C   0  0  0  0  0  0  0  0  0  0  0  0
   13.6020   30.1410   73.8360 C   0  0  0  0  0  0  0  0  0  0  0  0
   12.4070   30.1110   74.5230 C   0  0  0  0  0  0  0  0  0  0  0  0
   12.0620   29.0880   75.3760 C   0  0  0  0  0  0  0  0  0  0  0  0
   13.9660   31.1950   72.9510 N   0  0  0  0  0  0  0  0  0  0  0  0
   13.2250   31.7510   71.9980 N   0  0  0  0  0  0  0  0  0  0  0  0
   13.9160   32.7210   71.3710 C   0  0  0  0  0  0  0  0  0  0  0  0
   13.4790   33.4760   70.3720 C   0  0  0  0  0  0  0  0  0  0  0  0
   15.1700   32.8040   71.9400 C   0  0  1  0  0  0  0  0  0  0  0  0
   16.1750   33.6270   71.6270 C   0  0  0  0  0  0  0  0  0  0  0  0
   17.3830   33.5150   72.3710 N   0  0  0  0  0  4  0  0  0  0  0  0
   18.6610   33.8430   71.8080 C   0  0  2  0  0  0  0  0  0  0  0  0
   19.3630   32.6120   71.3300 C   0  0  0  0  0  0  0  0  0  0  0  0
   20.6070   32.9960   70.6790 N   0  0  1  0  0  0  0  0  0  0  0  0
   20.2710   33.8590   69.5530 C   0  0  0  0  0  0  0  0  0  0  0  0
   19.6530   35.0880   69.9880 N   0  0  2  0  0  0  0  0  0  0  0  0
   20.5130   35.7460   70.9670 C   0  0  0  0  0  0  0  0  0  0  0  0
   20.7910   34.8890   72.0970 N   0  0  2  0  0  0  0  0  0  0  0  0
   21.4420   33.6880   71.6280 C   0  0  0  0  0  0  0  0  0  0  0  0
   19.5680   34.5520   72.7850 C   0  0  0  0  0  0  0  0  0  0  0  0
   18.4010   34.7930   70.6340 C   0  0  0  0  0  0  0  0  0  0  0  0
   15.1570   31.8290   72.9270 C   0  0  0  0  0  0  0  0  0  0  0  0
   16.1260   31.5870   73.6810 O   0  0  0  0  0  0  0  0  0  0  0  0
   14.8200   27.2170   75.0460 H   0  0  0  0  0  0  0  0  0  0  0  0
   15.4060   29.0740   73.5190 H   0  0  0  0  0  0  0  0  0  0  0  0
   11.7240   30.9320   74.3730 H   0  0  0  0  0  0  0  0  0  0  0  0
   11.1220   29.0580   75.9210 H   0  0  0  0  0  0  0  0  0  0  0  0
   12.2500   31.4750   71.7700 H   0  0  0  0  0  0  0  0  0  0  0  0
   12.4770   33.3380   69.9900 H   0  0  0  0  0  0  0  0  0  0  0  0
   14.0730   34.2370   69.9070 H   0  0  0  0  0  0  0  0  0  0  0  0
   16.0340   34.3350   70.8310 H   0  0  0  0  0  0  0  0  0  0  0  0
   17.3200   33.1870   73.3460 H   0  0  0  0  0  0  0  0  0  0  0  0
   18.7080   32.0410   70.6630 H   0  0  0  0  0  0  0  0  0  0  0  0
   19.5930   31.9880   72.2230 H   0  0  0  0  0  0  0  0  0  0  0  0
   19.5730   33.3140   68.9040 H   0  0  0  0  0  0  0  0  0  0  0  0
   21.2120   34.1300   69.0210 H   0  0  0  0  0  0  0  0  0  0  0  0
   20.0680   36.7060   71.2500 H   0  0  0  0  0  0  0  0  0  0  0  0
   21.4670   35.9560   70.4400 H   0  0  0  0  0  0  0  0  0  0  0  0
   21.6120   32.9810   72.4790 H   0  0  0  0  0  0  0  0  0  0  0  0
   22.3970   33.9270   71.1310 H   0  0  0  0  0  0  0  0  0  0  0  0
   19.8040   33.8700   73.6270 H   0  0  0  0  0  0  0  0  0  0  0  0
   19.1020   35.4750   73.1950 H   0  0  0  0  0  0  0  0  0  0  0  0
   17.7470   34.2300   69.9370 H   0  0  0  0  0  0  0  0  0  0  0  0
   17.9230   35.7040   71.0440 H   0  0  0  0  0  0  0  0  0  0  0  0
  2  1  1  0  0  0  0
  3 27  1  0  0  0  0
  3  2  2  0  0  0  0
  4  3  1  0  0  0  0
  5  4  2  0  0  0  0
  5  6  1  0  0  0  0
  6  7  2  0  0  0  0
  7  2  1  0  0  0  0
  7 30  1  0  0  0  0
  8  5  1  0  0  0  0
  9  8  1  0  0  0  0
 10 12  1  0  0  0  0
 10  9  1  0  0  0  0
 11 10  2  0  0  0  0
 12 13  1  1  0  0  0
 12 25  1  0  0  0  0
 13 14  2  0  0  0  0
 14 35  1  0  0  0  0
 15 14  1  1  0  0  0
 15 23  1  0  0  0  0
 16 15  1  0  0  0  0
 16 37  1  0  0  0  0
 17 18  1  6  0  0  0
 17 16  1  0  0  0  0
 17 22  1  0  0  0  0
 19 18  1  1  0  0  0
 19 24  1  0  0  0  0
 19 20  1  0  0  0  0
 20 40  1  0  0  0  0
 21 20  1  6  0  0  0
 21 23  1  0  0  0  0
 22 21  1  0  0  0  0
 22 42  1  0  0  0  0
 23 45  1  0  0  0  0
 23 44  1  0  0  0  0
 24 47  1  0  0  0  0
 24 15  1  0  0  0  0
 25  8  1  0  0  0  0
 25 26  2  0  0  0  0
 28  4  1  0  0  0  0
 29  6  1  0  0  0  0
 31  9  1  0  0  0  0
 32 11  1  0  0  0  0
 33 11  1  0  0  0  0
 34 13  1  0  0  0  0
 36 16  1  0  0  0  0
 38 18  1  0  0  0  0
 39 18  1  0  0  0  0
 41 20  1  0  0  0  0
 43 22  1  0  0  0  0
 46 24  1  0  0  0  0
M  END
>  <Pose>
1

>  <Score>
-5.77

$$$$
