
 OpenBabel03212208413D

 56 59  0  0  1  0  0  0  0  0999 V2000
   20.0330   24.7020   73.6640 B   0  0  0  0  0  0  0  0  0  0  0  0
   18.7270   26.0470   73.3590 C   0  0  0  0  0  0  0  0  0  0  0  0
   17.5040   25.6820   72.8640 C   0  0  0  0  0  0  0  0  0  0  0  0
   16.5530   26.6540   72.6410 C   0  0  0  0  0  0  0  0  0  0  0  0
   16.7870   27.9890   72.9000 C   0  0  0  0  0  0  0  0  0  0  0  0
   18.0600   28.3340   73.4090 C   0  0  0  0  0  0  0  0  0  0  0  0
   18.9920   27.3750   73.6270 C   0  0  0  0  0  0  0  0  0  0  0  0
   15.9210   28.9540   72.7100 O   0  0  0  0  0  0  0  0  0  0  0  0
   14.7680   29.4880   72.3670 C   0  0  0  0  0  0  0  0  0  0  0  0
   14.8490   30.8050   71.6610 C   0  0  1  0  0  0  0  0  0  0  0  0
   13.9500   30.7610   70.5860 O   0  0  0  0  0  0  0  0  0  0  0  0
   14.6680   32.0360   72.5010 C   0  0  0  0  0  0  0  0  0  0  0  0
   15.0240   33.2840   71.8620 N   0  0  0  0  0  0  0  0  0  0  0  0
   14.1680   34.1420   71.2600 C   0  0  0  0  0  0  0  0  0  0  0  0
   14.8990   35.1750   70.7190 C   0  0  0  0  0  0  0  0  0  0  0  0
   16.1540   34.9070   71.0150 N   0  0  0  0  0  0  0  0  0  0  0  0
   16.2790   33.7430   71.7260 C   0  0  0  0  0  0  0  0  0  0  0  0
   17.5320   33.2510   72.2380 N   0  0  0  0  0  0  0  0  0  0  0  0
   18.5820   34.2910   72.3210 C   0  0  0  0  0  0  0  0  0  0  0  0
   19.7670   33.9070   73.1120 C   0  0  0  0  0  0  0  0  0  0  0  0
   20.1040   32.5100   73.0020 N   0  0  0  0  0  0  0  0  0  0  0  0
   19.0000   31.7910   73.5560 C   0  0  0  0  0  0  0  0  0  0  0  0
   17.7510   31.9210   72.6840 C   0  0  0  0  0  0  0  0  0  0  0  0
   20.4780   32.1350   71.6780 C   0  0  0  0  0  0  0  0  0  0  0  0
   14.3490   36.2230   70.0380 N   0  0  0  0  0  0  0  0  0  0  0  0
   13.0230   36.2330   69.8940 C   0  0  0  0  0  0  0  0  0  0  0  0
   12.4990   37.1920   69.2660 O   0  0  0  0  0  0  0  0  0  0  0  0
   12.2860   35.2410   70.4110 N   0  0  0  0  0  0  0  0  0  0  0  0
   12.8020   34.1900   71.0910 C   0  0  0  0  0  0  0  0  0  0  0  0
   12.0940   33.2870   71.5600 O   0  0  0  0  0  0  0  0  0  0  0  0
   15.2120   37.2710   69.4910 C   0  0  0  0  0  0  0  0  0  0  0  0
   17.2850   24.6350   72.6540 H   0  0  0  0  0  0  0  0  0  0  0  0
   15.6160   26.3120   72.2420 H   0  0  0  0  0  0  0  0  0  0  0  0
   18.2540   29.3740   73.6130 H   0  0  0  0  0  0  0  0  0  0  0  0
   19.9700   27.6680   74.0290 H   0  0  0  0  0  0  0  0  0  0  0  0
   14.1020   28.7820   71.7290 H   0  0  0  0  0  0  0  0  0  0  0  0
   14.0770   29.7010   73.2780 H   0  0  0  0  0  0  0  0  0  0  0  0
   15.9070   30.8970   71.2520 H   0  0  0  0  0  0  0  0  0  0  0  0
   14.0170   29.8550   70.1440 H   0  0  0  0  0  0  0  0  0  0  0  0
   15.0680   31.9130   73.5220 H   0  0  0  0  0  0  0  0  0  0  0  0
   13.5440   32.0680   72.6930 H   0  0  0  0  0  0  0  0  0  0  0  0
   18.8130   34.6400   71.2880 H   0  0  0  0  0  0  0  0  0  0  0  0
   18.1070   35.1850   72.8210 H   0  0  0  0  0  0  0  0  0  0  0  0
   20.5980   34.5720   72.8470 H   0  0  0  0  0  0  0  0  0  0  0  0
   19.5380   34.0700   74.2060 H   0  0  0  0  0  0  0  0  0  0  0  0
   19.2580   30.7040   73.6290 H   0  0  0  0  0  0  0  0  0  0  0  0
   18.8050   32.1430   74.5680 H   0  0  0  0  0  0  0  0  0  0  0  0
   16.9200   31.6970   73.4250 H   0  0  0  0  0  0  0  0  0  0  0  0
   17.8780   31.1420   71.9260 H   0  0  0  0  0  0  0  0  0  0  0  0
   21.5970   32.0020   71.6480 H   0  0  0  0  0  0  0  0  0  0  0  0
   20.0090   31.2110   71.2980 H   0  0  0  0  0  0  0  0  0  0  0  0
   20.2790   32.9230   70.9060 H   0  0  0  0  0  0  0  0  0  0  0  0
   11.2540   35.2840   70.2790 H   0  0  0  0  0  0  0  0  0  0  0  0
   14.7130   37.8410   68.7040 H   0  0  0  0  0  0  0  0  0  0  0  0
   16.0690   36.7530   69.0070 H   0  0  0  0  0  0  0  0  0  0  0  0
   15.5510   37.9540   70.2870 H   0  0  0  0  0  0  0  0  0  0  0  0
  2  7  1  0  0  0  0
  2  1  1  0  0  0  0
  3  2  2  0  0  0  0
  4  3  1  0  0  0  0
  4  5  2  0  0  0  0
  5  6  1  0  0  0  0
  6 34  1  0  0  0  0
  6  7  2  0  0  0  0
  7 35  1  0  0  0  0
  8  5  1  0  0  0  0
  9  8  1  0  0  0  0
  9 37  1  0  0  0  0
 10 38  1  6  0  0  0
 10  9  1  0  0  0  0
 10 12  1  0  0  0  0
 11 10  1  0  0  0  0
 12 41  1  0  0  0  0
 12 40  1  0  0  0  0
 13 12  1  0  0  0  0
 14 13  1  0  0  0  0
 15 16  1  0  0  0  0
 15 14  2  0  0  0  0
 16 17  2  0  0  0  0
 17 13  1  0  0  0  0
 17 18  1  0  0  0  0
 18 19  1  0  0  0  0
 18 23  1  0  0  0  0
 19 43  1  0  0  0  0
 19 20  1  0  0  0  0
 20 45  1  0  0  0  0
 21 20  1  0  0  0  0
 21 22  1  0  0  0  0
 22 46  1  0  0  0  0
 22 47  1  0  0  0  0
 23 48  1  0  0  0  0
 23 22  1  0  0  0  0
 24 21  1  0  0  0  0
 25 15  1  0  0  0  0
 26 25  1  0  0  0  0
 26 28  1  0  0  0  0
 27 26  2  0  0  0  0
 28 29  1  0  0  0  0
 29 14  1  0  0  0  0
 29 30  2  0  0  0  0
 31 25  1  0  0  0  0
 31 56  1  0  0  0  0
 32  3  1  0  0  0  0
 33  4  1  0  0  0  0
 36  9  1  0  0  0  0
 39 11  1  0  0  0  0
 42 19  1  0  0  0  0
 44 20  1  0  0  0  0
 49 23  1  0  0  0  0
 50 24  1  0  0  0  0
 51 24  1  0  0  0  0
 52 24  1  0  0  0  0
 53 28  1  0  0  0  0
 54 31  1  0  0  0  0
 55 31  1  0  0  0  0
M  END
>  <Pose>
1

>  <Score>
-7.67

$$$$
