
 OpenBabel03212208413D

 49 52  0  0  0  0  0  0  0  0999 V2000
   19.9130   31.1640   73.1420 B   0  0  0  0  0  0  0  0  0  0  0  0
   19.3780   32.7260   72.1820 C   0  0  0  0  0  0  0  0  0  0  0  0
   20.3040   33.6840   71.8370 C   0  0  0  0  0  0  0  0  0  0  0  0
   19.9360   34.8120   71.1470 C   0  0  0  0  0  0  0  0  0  0  0  0
   18.6190   34.9550   70.8110 C   0  0  0  0  0  0  0  0  0  0  0  0
   17.6840   33.9840   71.1630 C   0  0  0  0  0  0  0  0  0  0  0  0
   18.0280   32.8420   71.8560 C   0  0  0  0  0  0  0  0  0  0  0  0
   17.0570   31.7800   72.2210 C   0  0  0  0  0  0  0  0  0  0  0  0
   15.7000   32.2810   72.1230 N   0  0  0  0  0  0  0  0  0  0  0  0
   14.7970   31.1760   71.7070 C   0  0  0  0  0  0  0  0  0  0  0  0
   13.4790   31.8910   71.4280 C   0  0  0  0  0  0  0  0  0  0  0  0
   13.4450   33.2320   71.8850 N   0  0  0  0  0  0  0  0  0  0  0  0
   13.8990   33.3770   73.2430 C   0  0  0  0  0  0  0  0  0  0  0  0
   15.1790   32.6220   73.4480 C   0  0  0  0  0  0  0  0  0  0  0  0
   13.8400   34.2510   70.9880 C   0  0  0  0  0  0  0  0  0  0  0  0
   12.8400   34.6960   70.0350 C   0  0  0  0  0  0  0  0  0  0  0  0
   12.1760   33.8770   69.3660 O   0  0  0  0  0  0  0  0  0  0  0  0
   12.5860   36.0730   69.8380 N   0  0  0  0  0  0  0  0  0  0  0  0
   13.6310   37.0160   69.4580 C   0  0  0  0  0  0  0  0  0  0  0  0
   15.0420   36.7350   69.7700 C   0  0  0  0  0  0  0  0  0  0  0  0
   14.3100   37.7220   70.6290 C   0  0  0  0  0  0  0  0  0  0  0  0
   18.2260   36.0870   70.1140 O   0  0  0  0  0  0  0  0  0  0  0  0
   19.0370   37.2220   69.9550 C   0  0  0  0  0  0  0  0  0  0  0  0
   20.4870   36.8590   69.9270 C   0  0  0  0  0  0  0  0  0  0  0  0
   20.8400   35.8000   70.7800 O   0  0  0  0  0  0  0  0  0  0  0  0
   21.3610   33.5890   72.0950 H   0  0  0  0  0  0  0  0  0  0  0  0
   16.6870   34.1720   70.8510 H   0  0  0  0  0  0  0  0  0  0  0  0
   17.2490   31.3460   73.2090 H   0  0  0  0  0  0  0  0  0  0  0  0
   17.1590   30.9670   71.4600 H   0  0  0  0  0  0  0  0  0  0  0  0
   15.1850   30.6300   70.8500 H   0  0  0  0  0  0  0  0  0  0  0  0
   14.7200   30.5030   72.5850 H   0  0  0  0  0  0  0  0  0  0  0  0
   12.6980   31.3150   72.0090 H   0  0  0  0  0  0  0  0  0  0  0  0
   13.1740   31.7710   70.3700 H   0  0  0  0  0  0  0  0  0  0  0  0
   13.0950   33.0450   73.9450 H   0  0  0  0  0  0  0  0  0  0  0  0
   14.0280   34.4720   73.4890 H   0  0  0  0  0  0  0  0  0  0  0  0
   15.9010   33.0640   74.1240 H   0  0  0  0  0  0  0  0  0  0  0  0
   14.8760   31.6510   73.9570 H   0  0  0  0  0  0  0  0  0  0  0  0
   14.2370   35.1320   71.5450 H   0  0  0  0  0  0  0  0  0  0  0  0
   14.7290   33.8830   70.4010 H   0  0  0  0  0  0  0  0  0  0  0  0
   11.6200   36.4960   69.9540 H   0  0  0  0  0  0  0  0  0  0  0  0
   13.3790   37.6050   68.5720 H   0  0  0  0  0  0  0  0  0  0  0  0
   15.3700   35.8040   70.2900 H   0  0  0  0  0  0  0  0  0  0  0  0
   15.8220   37.1590   69.1070 H   0  0  0  0  0  0  0  0  0  0  0  0
   14.0270   37.3910   71.6470 H   0  0  0  0  0  0  0  0  0  0  0  0
   14.4570   38.8050   70.4500 H   0  0  0  0  0  0  0  0  0  0  0  0
   18.7780   37.9510   70.7390 H   0  0  0  0  0  0  0  0  0  0  0  0
   18.7870   37.6480   68.9420 H   0  0  0  0  0  0  0  0  0  0  0  0
   20.7750   36.5840   68.8730 H   0  0  0  0  0  0  0  0  0  0  0  0
   21.0660   37.7490   70.2680 H   0  0  0  0  0  0  0  0  0  0  0  0
  2  1  1  0  0  0  0
  3 26  1  0  0  0  0
  3  2  2  0  0  0  0
  4  3  1  0  0  0  0
  5  4  2  0  0  0  0
  5  6  1  0  0  0  0
  6  7  2  0  0  0  0
  7  2  1  0  0  0  0
  7  8  1  0  0  0  0
  8 28  1  0  0  0  0
  9  8  1  0  0  0  0
  9 14  1  0  0  0  0
 10  9  1  0  0  0  0
 10 31  1  0  0  0  0
 11 10  1  0  0  0  0
 11 12  1  0  0  0  0
 11 32  1  0  0  0  0
 12 13  1  0  0  0  0
 13 14  1  0  0  0  0
 13 35  1  0  0  0  0
 13 34  1  0  0  0  0
 14 37  1  0  0  0  0
 14 36  1  0  0  0  0
 15 38  1  0  0  0  0
 15 12  1  0  0  0  0
 16 15  1  0  0  0  0
 17 16  2  0  0  0  0
 18 40  1  0  0  0  0
 18 16  1  0  0  0  0
 19 20  1  0  0  0  0
 19 18  1  0  0  0  0
 19 21  1  0  0  0  0
 20 42  1  0  0  0  0
 20 21  1  0  0  0  0
 21 44  1  0  0  0  0
 22  5  1  0  0  0  0
 23 22  1  0  0  0  0
 23 46  1  0  0  0  0
 24 23  1  0  0  0  0
 24 49  1  0  0  0  0
 24 25  1  0  0  0  0
 25  4  1  0  0  0  0
 27  6  1  0  0  0  0
 29  8  1  0  0  0  0
 30 10  1  0  0  0  0
 33 11  1  0  0  0  0
 39 15  1  0  0  0  0
 41 19  1  0  0  0  0
 43 20  1  0  0  0  0
 45 21  1  0  0  0  0
 47 23  1  0  0  0  0
 48 24  1  0  0  0  0
M  END
>  <Pose>
1

>  <Score>
-5.50

$$$$
