
 OpenBabel03212208413D

 44 47  0  0  1  0  0  0  0  0999 V2000
   15.9270   29.9380   71.9730 B   0  0  0  0  0  0  0  0  0  0  0  0
   15.2960   29.1210   73.5610 C   0  0  0  0  0  0  0  0  0  0  0  0
   16.1410   28.3340   74.3210 C   0  0  0  0  0  0  0  0  0  0  0  0
   15.7200   27.7110   75.4970 C   0  0  0  0  0  0  0  0  0  0  0  0
   14.4000   27.9070   75.8960 C   0  0  0  0  0  0  0  0  0  0  0  0
   13.5750   28.6970   75.1220 C   0  0  0  0  0  0  0  0  0  0  0  0
   13.9890   29.3210   73.9470 C   0  0  0  0  0  0  0  0  0  0  0  0
   13.0760   30.1360   73.1720 C   0  0  0  0  0  0  0  0  0  0  0  0
   13.2430   31.3830   73.0400 N   0  0  0  0  0  0  0  0  0  0  0  0
   12.4640   32.2830   72.3410 N   0  0  0  0  0  0  0  0  0  0  0  0
   13.0130   33.2820   71.5080 C   0  0  1  0  0  0  0  0  0  0  0  0
   14.3530   33.3140   71.4150 N   0  0  0  0  0  0  0  0  0  0  0  0
   15.0150   34.2020   70.6260 C   0  0  0  0  0  0  0  0  0  0  0  0
   14.2510   35.0520   69.9410 N   0  0  0  0  0  0  0  0  0  0  0  0
   12.9210   35.0730   69.9890 C   0  0  0  0  0  0  0  0  0  0  0  0
   12.3060   34.1600   70.7970 N   0  0  0  0  0  0  0  0  0  0  0  0
   12.1560   35.9700   69.2640 O   0  0  0  0  0  0  0  0  0  0  0  0
   10.7750   35.7740   69.1110 C   0  0  0  0  0  0  0  0  0  0  0  0
   16.4110   34.1740   70.5950 N   0  0  0  0  0  0  0  0  0  0  0  0
   17.1870   35.3910   70.5630 C   0  0  0  0  0  0  0  0  0  0  0  0
   18.6300   35.1280   70.9380 C   0  0  0  0  0  0  0  0  0  0  0  0
   18.8330   34.1510   71.8560 O   0  0  0  0  0  0  0  0  0  0  0  0
   18.0580   33.0330   71.8220 C   0  0  0  0  0  0  0  0  0  0  0  0
   17.1340   32.9280   70.6120 C   0  0  0  0  0  0  0  0  0  0  0  0
   14.2360   27.1990   77.0650 O   0  0  0  0  0  0  0  0  0  0  0  0
   15.3700   26.3990   77.3370 C   0  0  0  0  0  0  0  0  0  0  0  0
   16.3250   26.8890   76.4330 O   0  0  0  0  0  0  0  0  0  0  0  0
   17.1810   28.1830   74.0000 H   0  0  0  0  0  0  0  0  0  0  0  0
   12.5410   28.8190   75.4840 H   0  0  0  0  0  0  0  0  0  0  0  0
   12.2320   29.6760   72.6970 H   0  0  0  0  0  0  0  0  0  0  0  0
   11.4270   32.2220   72.4320 H   0  0  0  0  0  0  0  0  0  0  0  0
   10.6060   35.4230   68.0570 H   0  0  0  0  0  0  0  0  0  0  0  0
   10.2010   36.7310   69.1960 H   0  0  0  0  0  0  0  0  0  0  0  0
   10.3710   35.0740   69.8710 H   0  0  0  0  0  0  0  0  0  0  0  0
   16.7690   36.2270   71.1370 H   0  0  0  0  0  0  0  0  0  0  0  0
   17.2090   35.7310   69.4810 H   0  0  0  0  0  0  0  0  0  0  0  0
   19.2790   34.9430   70.0340 H   0  0  0  0  0  0  0  0  0  0  0  0
   19.0190   36.0990   71.3660 H   0  0  0  0  0  0  0  0  0  0  0  0
   18.6330   32.0910   71.9840 H   0  0  0  0  0  0  0  0  0  0  0  0
   17.3490   33.1010   72.7010 H   0  0  0  0  0  0  0  0  0  0  0  0
   17.7700   32.9340   69.6900 H   0  0  0  0  0  0  0  0  0  0  0  0
   16.5300   32.0310   70.7100 H   0  0  0  0  0  0  0  0  0  0  0  0
   15.1790   25.3110   77.2340 H   0  0  0  0  0  0  0  0  0  0  0  0
   15.6890   26.6560   78.3760 H   0  0  0  0  0  0  0  0  0  0  0  0
  1  2  1  0  0  0  0
  2  7  2  0  0  0  0
  2  3  1  0  0  0  0
  3  4  2  0  0  0  0
  4  5  1  0  0  0  0
  4 27  1  0  0  0  0
  5 25  1  0  0  0  0
  6 29  1  0  0  0  0
  6  5  2  0  0  0  0
  7  6  1  0  0  0  0
  8  7  1  0  0  0  0
  9  8  2  0  0  0  0
 10 31  1  0  0  0  0
 10  9  1  0  0  0  0
 11 10  1  6  0  0  0
 12 11  1  0  0  0  0
 13 12  2  0  0  0  0
 14 15  2  0  0  0  0
 14 13  1  0  0  0  0
 15 16  2  0  0  0  0
 16 11  1  0  0  0  0
 17 15  1  0  0  0  0
 18 33  1  0  0  0  0
 18 17  1  0  0  0  0
 18 34  1  0  0  0  0
 19 24  1  0  0  0  0
 19 13  1  0  0  0  0
 20 19  1  0  0  0  0
 20 21  1  0  0  0  0
 20 35  1  0  0  0  0
 21 38  1  0  0  0  0
 21 22  1  0  0  0  0
 23 22  1  0  0  0  0
 23 39  1  0  0  0  0
 23 40  1  0  0  0  0
 24 42  1  0  0  0  0
 24 23  1  0  0  0  0
 25 26  1  0  0  0  0
 26 44  1  0  0  0  0
 27 26  1  0  0  0  0
 28  3  1  0  0  0  0
 30  8  1  0  0  0  0
 32 18  1  0  0  0  0
 36 20  1  0  0  0  0
 37 21  1  0  0  0  0
 41 24  1  0  0  0  0
 43 26  1  0  0  0  0
M  END
>  <Pose>
1

>  <Score>
-6.31

$$$$
