
 OpenBabel03212208413D

 53 57  0  0  1  0  0  0  0  0999 V2000
   15.0570   29.9860   72.7040 B   0  0  0  0  0  0  0  0  0  0  0  0
   14.8610   31.7940   72.1610 C   0  0  0  0  0  0  0  0  0  0  0  0
   13.7470   32.2280   71.4810 C   0  0  0  0  0  0  0  0  0  0  0  0
   13.5960   33.5200   71.0870 C   0  0  0  0  0  0  0  0  0  0  0  0
   14.5860   34.4350   71.3740 C   0  0  0  0  0  0  0  0  0  0  0  0
   15.7280   34.0160   72.0650 C   0  0  0  0  0  0  0  0  0  0  0  0
   15.8850   32.7010   72.4660 C   0  0  0  0  0  0  0  0  0  0  0  0
   17.0150   32.2130   73.1660 N   0  0  0  0  0  0  0  0  0  0  0  0
   18.3260   32.1390   72.6500 C   0  0  0  0  0  0  0  0  0  0  0  0
   18.8010   31.1870   72.0100 O   0  0  0  0  0  0  0  0  0  0  0  0
   19.2390   33.3190   72.8950 C   0  0  0  0  0  0  0  0  0  0  0  0
   20.4310   33.2440   72.0830 N   0  0  0  0  0  0  0  0  0  0  0  0
   20.2860   33.5970   70.7510 C   0  0  0  0  0  0  0  0  0  0  0  0
   21.1400   32.9830   69.7100 C   0  0  0  0  0  0  0  0  0  0  0  0
   22.2980   32.4100   70.3350 N   0  0  0  0  0  0  0  0  0  0  0  0
   21.9950   31.4720   71.3860 C   0  0  0  0  0  0  0  0  0  0  0  0
   21.3580   32.2650   72.4980 C   0  0  0  0  0  0  0  0  0  0  0  0
   23.6400   32.6810   70.0200 C   0  0  1  0  0  0  0  0  0  0  0  0
   24.6500   32.6490   70.9250 N   0  0  0  0  0  0  0  0  0  0  0  0
   25.9270   32.9110   70.5920 C   0  0  0  0  0  0  0  0  0  0  0  0
   26.2650   33.2210   69.3280 N   0  0  0  0  0  0  0  0  0  0  0  0
   25.3260   33.2760   68.3610 C   0  0  0  0  0  0  0  0  0  0  0  0
   25.3750   33.5550   67.0330 N   0  0  0  0  0  0  0  0  0  0  0  0
   24.1350   33.4570   66.5900 N   0  0  0  0  0  0  0  0  0  0  0  0
   23.2840   33.1290   67.5640 C   0  0  0  0  0  0  0  0  0  0  0  0
   24.0290   33.0060   68.7160 C   0  0  0  0  0  0  0  0  0  0  0  0
   26.5800   33.8940   66.2740 C   0  0  0  0  0  0  0  0  0  0  0  0
   14.4110   35.7340   70.9670 O   0  0  0  0  0  0  0  0  0  0  0  0
   13.5840   36.1240   69.8980 C   0  0  0  0  0  0  0  0  0  0  0  0
   12.6800   35.0330   69.4210 C   0  0  0  0  0  0  0  0  0  0  0  0
   12.4910   34.0020   70.3990 O   0  0  0  0  0  0  0  0  0  0  0  0
   12.9640   31.5160   71.2520 H   0  0  0  0  0  0  0  0  0  0  0  0
   16.4740   34.7520   72.2700 H   0  0  0  0  0  0  0  0  0  0  0  0
   16.8640   31.8730   74.1670 H   0  0  0  0  0  0  0  0  0  0  0  0
   18.6510   34.2080   72.5990 H   0  0  0  0  0  0  0  0  0  0  0  0
   19.4540   33.3870   73.9780 H   0  0  0  0  0  0  0  0  0  0  0  0
   19.2100   33.4240   70.4410 H   0  0  0  0  0  0  0  0  0  0  0  0
   20.3780   34.7220   70.6580 H   0  0  0  0  0  0  0  0  0  0  0  0
   20.6090   32.1780   69.1440 H   0  0  0  0  0  0  0  0  0  0  0  0
   21.3910   33.7410   68.9400 H   0  0  0  0  0  0  0  0  0  0  0  0
   22.8720   30.9280   71.7390 H   0  0  0  0  0  0  0  0  0  0  0  0
   21.2220   30.7330   71.0470 H   0  0  0  0  0  0  0  0  0  0  0  0
   22.1400   32.7370   73.1290 H   0  0  0  0  0  0  0  0  0  0  0  0
   20.8340   31.5340   73.1520 H   0  0  0  0  0  0  0  0  0  0  0  0
   26.6510   32.8560   71.4000 H   0  0  0  0  0  0  0  0  0  0  0  0
   22.2140   32.9700   67.5430 H   0  0  0  0  0  0  0  0  0  0  0  0
   26.6370   33.3480   65.3140 H   0  0  0  0  0  0  0  0  0  0  0  0
   26.6150   34.9790   66.0270 H   0  0  0  0  0  0  0  0  0  0  0  0
   27.4600   33.6910   66.9230 H   0  0  0  0  0  0  0  0  0  0  0  0
   13.0110   37.0410   70.2040 H   0  0  0  0  0  0  0  0  0  0  0  0
   14.2550   36.4320   69.0450 H   0  0  0  0  0  0  0  0  0  0  0  0
   13.1660   34.5230   68.5420 H   0  0  0  0  0  0  0  0  0  0  0  0
   11.7150   35.4070   69.0590 H   0  0  0  0  0  0  0  0  0  0  0  0
  2  7  1  0  0  0  0
  2  1  1  0  0  0  0
  3  2  2  0  0  0  0
  4  5  2  0  0  0  0
  4  3  1  0  0  0  0
  5  6  1  0  0  0  0
  6 33  1  0  0  0  0
  6  7  2  0  0  0  0
  7  8  1  0  0  0  0
  8 34  1  0  0  0  0
  9 11  1  0  0  0  0
  9  8  1  0  0  0  0
 10  9  2  0  0  0  0
 11 36  1  0  0  0  0
 12 17  1  0  0  0  0
 12 11  1  0  0  0  0
 13 12  1  0  0  0  0
 14 15  1  0  0  0  0
 14 13  1  0  0  0  0
 15 16  1  0  0  0  0
 16 41  1  0  0  0  0
 16 17  1  0  0  0  0
 17 43  1  0  0  0  0
 17 44  1  0  0  0  0
 18 15  1  6  0  0  0
 18 19  1  0  0  0  0
 20 19  2  0  0  0  0
 20 45  1  0  0  0  0
 21 20  1  0  0  0  0
 22 26  2  0  0  0  0
 22 21  1  0  0  0  0
 23 22  1  0  0  0  0
 24 23  1  0  0  0  0
 24 25  2  0  0  0  0
 25 26  1  0  0  0  0
 26 18  1  0  0  0  0
 27 49  1  0  0  0  0
 27 23  1  0  0  0  0
 28  5  1  0  0  0  0
 29 50  1  0  0  0  0
 29 28  1  0  0  0  0
 30 29  1  0  0  0  0
 30 31  1  0  0  0  0
 31  4  1  0  0  0  0
 32  3  1  0  0  0  0
 35 11  1  0  0  0  0
 37 13  1  0  0  0  0
 38 13  1  0  0  0  0
 39 14  1  0  0  0  0
 40 14  1  0  0  0  0
 42 16  1  0  0  0  0
 46 25  1  0  0  0  0
 47 27  1  0  0  0  0
 48 27  1  0  0  0  0
 51 29  1  0  0  0  0
 52 30  1  0  0  0  0
 53 30  1  0  0  0  0
M  END
>  <Pose>
1

>  <Score>
-7.07

$$$$
