
 OpenBabel03212208413D

 44 47  0  0  0  0  0  0  0  0999 V2000
   13.5550   30.6400   73.3260 B   0  0  0  0  0  0  0  0  0  0  0  0
   15.4530   30.7110   73.1460 C   0  0  0  0  0  0  0  0  0  0  0  0
   16.0790   31.8970   72.8020 C   0  0  0  0  0  0  0  0  0  0  0  0
   17.4570   31.9790   72.6640 C   0  0  0  0  0  0  0  0  0  0  0  0
   18.1620   30.8120   72.8890 C   0  0  0  0  0  0  0  0  0  0  0  0
   17.5670   29.6220   73.2300 C   0  0  0  0  0  0  0  0  0  0  0  0
   16.2000   29.5690   73.3610 C   0  0  0  0  0  0  0  0  0  0  0  0
   19.5360   30.8880   72.7520 C   0  0  0  0  0  0  0  0  0  0  0  0
   20.2470   29.8470   72.9460 O   0  0  0  0  0  0  0  0  0  0  0  0
   20.1070   32.0950   72.4080 C   0  0  0  0  0  0  0  0  0  0  0  0
   19.3500   33.2240   72.1980 C   0  0  0  0  0  0  0  0  0  0  0  0
   18.0540   33.1000   72.3390 O   0  0  0  0  0  0  0  0  0  0  0  0
   20.0040   34.4880   71.8330 C   0  0  0  0  0  0  0  0  0  0  0  0
   20.3490   35.2660   72.7690 O   0  0  0  0  0  0  0  0  0  0  0  0
   20.2560   34.8580   70.4970 N   0  0  0  0  0  0  0  0  0  0  0  0
   20.1690   36.2490   70.1320 C   0  0  0  0  0  0  0  0  0  0  0  0
   21.4290   36.7620   69.4680 C   0  0  0  0  0  0  0  0  0  0  0  0
   22.0320   35.6940   68.7630 N   0  0  0  0  0  0  0  0  0  0  0  0
   21.0950   34.7760   68.2460 C   0  0  0  0  0  0  0  0  0  0  0  0
   20.6020   33.9390   69.4400 C   0  0  0  0  0  0  0  0  0  0  0  0
   23.2380   35.1810   69.2780 C   0  0  0  0  0  0  0  0  0  0  0  0
   24.4440   35.9280   68.9310 C   0  0  0  0  0  0  0  0  0  0  0  0
   24.6660   37.2230   69.2100 N   0  0  0  0  0  0  0  0  0  0  0  0
   25.8280   37.5190   68.7490 O   0  0  0  0  0  0  0  0  0  0  0  0
   26.3930   36.4840   68.1770 N   0  0  0  0  0  0  0  0  0  0  0  0
   25.5380   35.4420   68.2710 C   0  0  0  0  0  0  0  0  0  0  0  0
   25.7540   34.0560   67.7580 C   0  0  0  0  0  0  0  0  0  0  0  0
   15.4810   32.7730   72.6400 H   0  0  0  0  0  0  0  0  0  0  0  0
   18.1830   28.7490   73.3910 H   0  0  0  0  0  0  0  0  0  0  0  0
   15.7140   28.6300   73.6320 H   0  0  0  0  0  0  0  0  0  0  0  0
   21.1880   32.1390   72.3060 H   0  0  0  0  0  0  0  0  0  0  0  0
   19.8970   36.8850   71.0180 H   0  0  0  0  0  0  0  0  0  0  0  0
   19.3230   36.3750   69.3910 H   0  0  0  0  0  0  0  0  0  0  0  0
   22.1070   37.2060   70.2420 H   0  0  0  0  0  0  0  0  0  0  0  0
   21.1590   37.6080   68.7690 H   0  0  0  0  0  0  0  0  0  0  0  0
   20.2110   35.3330   67.8750 H   0  0  0  0  0  0  0  0  0  0  0  0
   21.4580   34.0850   67.4840 H   0  0  0  0  0  0  0  0  0  0  0  0
   19.7130   33.3420   69.1500 H   0  0  0  0  0  0  0  0  0  0  0  0
   21.3790   33.2100   69.7410 H   0  0  0  0  0  0  0  0  0  0  0  0
   23.3540   34.1230   68.9660 H   0  0  0  0  0  0  0  0  0  0  0  0
   23.1570   35.1440   70.4020 H   0  0  0  0  0  0  0  0  0  0  0  0
   25.1790   33.3150   68.3760 H   0  0  0  0  0  0  0  0  0  0  0  0
   25.3880   34.0100   66.7300 H   0  0  0  0  0  0  0  0  0  0  0  0
   26.8210   33.7670   67.8710 H   0  0  0  0  0  0  0  0  0  0  0  0
  2  1  1  0  0  0  0
  2  7  1  0  0  0  0
  3  2  2  0  0  0  0
  4  3  1  0  0  0  0
  4  5  2  0  0  0  0
  5  6  1  0  0  0  0
  6  7  2  0  0  0  0
  6 29  1  0  0  0  0
  7 30  1  0  0  0  0
  8  5  1  0  0  0  0
  8  9  2  0  0  0  0
 10  8  1  0  0  0  0
 11 12  1  0  0  0  0
 11 10  2  0  0  0  0
 12  4  1  0  0  0  0
 13 11  1  0  0  0  0
 13 14  2  0  0  0  0
 15 13  1  0  0  0  0
 16 15  1  0  0  0  0
 16 32  1  0  0  0  0
 17 16  1  0  0  0  0
 17 34  1  0  0  0  0
 18 21  1  0  0  0  0
 18 17  1  0  0  0  0
 19 18  1  0  0  0  0
 19 20  1  0  0  0  0
 20 39  1  0  0  0  0
 20 15  1  0  0  0  0
 21 41  1  0  0  0  0
 22 23  2  0  0  0  0
 22 21  1  0  0  0  0
 24 23  1  0  0  0  0
 25 26  2  0  0  0  0
 25 24  1  0  0  0  0
 26 22  1  0  0  0  0
 27 44  1  0  0  0  0
 27 26  1  0  0  0  0
 27 42  1  0  0  0  0
 28  3  1  0  0  0  0
 31 10  1  0  0  0  0
 33 16  1  0  0  0  0
 35 17  1  0  0  0  0
 36 19  1  0  0  0  0
 37 19  1  0  0  0  0
 38 20  1  0  0  0  0
 40 21  1  0  0  0  0
 43 27  1  0  0  0  0
M  END
>  <Pose>
1

>  <Score>
-6.24

$$$$
