
 OpenBabel03212208413D

 44 47  0  0  0  0  0  0  0  0999 V2000
   17.8200   32.5750   73.1570 B   0  0  0  0  0  0  0  0  0  0  0  0
   18.6160   33.9190   72.0740 C   0  0  0  0  0  0  0  0  0  0  0  0
   17.8480   34.7640   71.2640 C   0  0  0  0  0  0  0  0  0  0  0  0
   18.4200   35.7400   70.4770 C   0  0  0  0  0  0  0  0  0  0  0  0
   19.8120   35.8930   70.4850 C   0  0  0  0  0  0  0  0  0  0  0  0
   20.5630   35.0500   71.2910 C   0  0  0  0  0  0  0  0  0  0  0  0
   19.9730   34.0820   72.0690 C   0  0  0  0  0  0  0  0  0  0  0  0
   20.2020   36.9470   69.6120 N   0  0  0  0  0  0  0  0  0  0  0  0
   19.0130   37.4700   69.0400 C   0  0  0  0  0  0  0  0  0  0  0  0
   18.8590   38.4090   68.2120 O   0  0  0  0  0  0  0  0  0  0  0  0
   17.8500   36.7240   69.5680 C   0  0  0  0  0  0  0  0  0  0  0  0
   16.6090   36.9150   69.2780 N   0  0  0  0  0  0  0  0  0  0  0  0
   15.5860   36.1470   69.8400 N   0  0  0  0  0  0  0  0  0  0  0  0
   14.2240   36.5340   69.7840 C   0  0  0  0  0  0  0  0  0  0  0  0
   13.9150   37.7170   70.0520 O   0  0  0  0  0  0  0  0  0  0  0  0
   13.2000   35.5650   69.4210 C   0  0  0  0  0  0  0  0  0  0  0  0
   13.1460   34.4290   70.3210 N   0  0  0  0  0  0  0  0  0  0  0  0
   12.1700   34.1160   71.1550 N   0  0  0  0  0  0  0  0  0  0  0  0
   12.4680   33.0100   71.8180 N   0  0  0  0  0  0  0  0  0  0  0  0
   13.6750   32.5900   71.4020 C   0  0  0  0  0  0  0  0  0  0  0  0
   14.0620   33.4840   70.4830 N   0  0  0  0  0  0  0  0  0  0  0  0
   14.3720   31.4020   71.8850 C   0  0  0  0  0  0  0  0  0  0  0  0
   13.8080   30.6240   72.8730 C   0  0  0  0  0  0  0  0  0  0  0  0
   14.4710   29.4860   73.3380 C   0  0  0  0  0  0  0  0  0  0  0  0
   15.6940   29.1070   72.8320 C   0  0  0  0  0  0  0  0  0  0  0  0
   16.2620   29.8860   71.8390 C   0  0  0  0  0  0  0  0  0  0  0  0
   15.5960   31.0150   71.3840 C   0  0  0  0  0  0  0  0  0  0  0  0
   21.5250   37.4540   69.3070 C   0  0  0  0  0  0  0  0  0  0  0  0
   21.7920   37.3520   67.8820 C   0  0  0  0  0  0  0  0  0  0  0  0
   22.0280   37.2600   66.7050 C   0  0  0  0  0  0  0  0  0  0  0  0
   16.7740   34.6170   71.2840 H   0  0  0  0  0  0  0  0  0  0  0  0
   21.6390   35.1310   71.3290 H   0  0  0  0  0  0  0  0  0  0  0  0
   20.5650   33.4150   72.7070 H   0  0  0  0  0  0  0  0  0  0  0  0
   15.8430   35.2630   70.3230 H   0  0  0  0  0  0  0  0  0  0  0  0
   13.3480   35.2080   68.3840 H   0  0  0  0  0  0  0  0  0  0  0  0
   12.2120   36.0880   69.4230 H   0  0  0  0  0  0  0  0  0  0  0  0
   12.8410   30.9040   73.2900 H   0  0  0  0  0  0  0  0  0  0  0  0
   14.0270   28.8700   74.1190 H   0  0  0  0  0  0  0  0  0  0  0  0
   16.1950   28.2090   73.2120 H   0  0  0  0  0  0  0  0  0  0  0  0
   17.2260   29.5920   71.4360 H   0  0  0  0  0  0  0  0  0  0  0  0
   16.0290   31.6370   70.6040 H   0  0  0  0  0  0  0  0  0  0  0  0
   21.6390   38.5250   69.6060 H   0  0  0  0  0  0  0  0  0  0  0  0
   22.2620   36.8880   69.9270 H   0  0  0  0  0  0  0  0  0  0  0  0
   22.2510   37.1860   65.6540 H   0  0  0  0  0  0  0  0  0  0  0  0
  2  1  1  0  0  0  0
  3 31  1  0  0  0  0
  3  2  2  0  0  0  0
  4  5  2  0  0  0  0
  4  3  1  0  0  0  0
  5  6  1  0  0  0  0
  6 32  1  0  0  0  0
  6  7  2  0  0  0  0
  7  2  1  0  0  0  0
  7 33  1  0  0  0  0
  8  5  1  0  0  0  0
  9 11  1  0  0  0  0
  9  8  1  0  0  0  0
 10  9  2  0  0  0  0
 11  4  1  0  0  0  0
 12 11  2  0  0  0  0
 12 13  1  0  0  0  0
 13 34  1  0  0  0  0
 14 13  1  0  0  0  0
 14 15  2  0  0  0  0
 16 36  1  0  0  0  0
 16 14  1  0  0  0  0
 16 17  1  0  0  0  0
 17 21  1  0  0  0  0
 17 18  1  0  0  0  0
 18 19  1  0  0  0  0
 20 19  2  0  0  0  0
 20 22  1  0  0  0  0
 21 20  1  0  0  0  0
 22 23  1  0  0  0  0
 23 37  1  0  0  0  0
 23 24  2  0  0  0  0
 24 38  1  0  0  0  0
 25 39  1  0  0  0  0
 25 24  1  0  0  0  0
 26 25  2  0  0  0  0
 27 26  1  0  0  0  0
 27 22  2  0  0  0  0
 28 42  1  0  0  0  0
 28  8  1  0  0  0  0
 28 43  1  0  0  0  0
 29 28  1  0  0  0  0
 30 29  3  0  0  0  0
 35 16  1  0  0  0  0
 40 26  1  0  0  0  0
 41 27  1  0  0  0  0
 44 30  1  0  0  0  0
M  END
>  <Pose>
1

>  <Score>
-8.06

$$$$
