
 OpenBabel03212208413D

 58 61  0  0  0  0  0  0  0  0999 V2000
   18.1750   31.9120   73.3570 B   0  0  0  0  0  0  0  0  0  0  0  0
   18.3700   33.4020   72.1780 C   0  0  0  0  0  0  0  0  0  0  0  0
   17.2570   34.1070   71.6950 C   0  0  0  0  0  0  0  0  0  0  0  0
   17.5170   35.1600   70.8660 C   0  0  0  0  0  0  0  0  0  0  0  0
   18.7830   35.5530   70.4850 C   0  0  0  0  0  0  0  0  0  0  0  0
   19.8720   34.8550   70.9560 C   0  0  0  0  0  0  0  0  0  0  0  0
   19.6470   33.7700   71.8160 C   0  0  0  0  0  0  0  0  0  0  0  0
   18.7520   36.6780   69.6170 N   0  0  0  0  0  0  0  0  0  0  0  0
   17.3490   37.0060   69.4360 C   0  0  0  0  0  0  0  0  0  0  0  0
   16.9160   37.9530   68.7470 O   0  0  0  0  0  0  0  0  0  0  0  0
   16.6010   36.0410   70.2100 C   0  0  0  0  0  0  0  0  0  0  0  0
   15.3400   35.8400   70.2260 N   0  0  0  0  0  0  0  0  0  0  0  0
   14.4570   35.1660   70.5820 N   0  0  0  0  0  0  0  0  0  0  0  0
   13.3750   34.3660   71.0140 C   0  0  0  0  0  0  0  0  0  0  0  0
   12.1740   34.5000   70.9340 O   0  0  0  0  0  0  0  0  0  0  0  0
   13.9250   33.1100   71.7270 C   0  0  0  0  0  0  0  0  0  0  0  0
   12.9010   32.1150   71.5140 O   0  0  0  0  0  0  0  0  0  0  0  0
   13.1480   30.8690   72.1600 N   0  0  0  0  0  0  0  0  0  0  0  0
   13.7470   30.8100   73.2840 C   0  0  0  0  0  0  0  0  0  0  0  0
   14.0000   29.5330   73.9120 C   0  0  0  0  0  0  0  0  0  0  0  0
   13.2010   28.9340   74.8270 C   0  0  0  0  0  0  0  0  0  0  0  0
   13.6720   27.7140   75.3760 C   0  0  0  0  0  0  0  0  0  0  0  0
   14.8100   27.0890   75.0790 C   0  0  0  0  0  0  0  0  0  0  0  0
   15.5710   27.7240   74.1580 C   0  0  0  0  0  0  0  0  0  0  0  0
   15.3020   28.8850   73.5370 C   0  0  0  0  0  0  0  0  0  0  0  0
   15.1480   25.8790   75.6960 O   0  0  0  0  0  0  0  0  0  0  0  0
   15.4160   24.7180   74.9190 C   0  0  0  0  0  0  0  0  0  0  0  0
   19.8080   37.4740   69.0130 C   0  0  0  0  0  0  0  0  0  0  0  0
   20.7930   36.6890   68.4520 N   0  0  0  0  0  0  0  0  0  0  0  0
   20.4920   36.2990   67.1350 C   0  0  0  0  0  0  0  0  0  0  0  0
   21.7310   36.4700   66.2530 C   0  0  0  0  0  0  0  0  0  0  0  0
   22.1260   37.8110   66.5080 O   0  0  0  0  0  0  0  0  0  0  0  0
   22.7580   37.8720   67.7570 C   0  0  0  0  0  0  0  0  0  0  0  0
   22.1260   36.9900   68.7890 C   0  0  0  0  0  0  0  0  0  0  0  0
   16.3440   33.7810   72.0380 H   0  0  0  0  0  0  0  0  0  0  0  0
   20.8990   35.1100   70.7090 H   0  0  0  0  0  0  0  0  0  0  0  0
   20.4910   33.2150   72.1600 H   0  0  0  0  0  0  0  0  0  0  0  0
   13.6040   36.2510   70.7400 H   0  0  0  0  0  0  0  0  0  0  0  0
   14.6690   32.8000   70.8670 H   0  0  0  0  0  0  0  0  0  0  0  0
   14.4070   33.2180   72.5990 H   0  0  0  0  0  0  0  0  0  0  0  0
   14.0650   31.7120   73.8030 H   0  0  0  0  0  0  0  0  0  0  0  0
   12.2680   29.3470   75.1250 H   0  0  0  0  0  0  0  0  0  0  0  0
   12.9850   27.2560   76.1130 H   0  0  0  0  0  0  0  0  0  0  0  0
   16.5320   27.1950   73.9160 H   0  0  0  0  0  0  0  0  0  0  0  0
   15.8480   29.4100   72.8110 H   0  0  0  0  0  0  0  0  0  0  0  0
   16.4470   24.7730   74.4800 H   0  0  0  0  0  0  0  0  0  0  0  0
   15.4550   23.8470   75.6490 H   0  0  0  0  0  0  0  0  0  0  0  0
   14.6430   24.4920   74.1650 H   0  0  0  0  0  0  0  0  0  0  0  0
   20.1360   38.1590   69.8230 H   0  0  0  0  0  0  0  0  0  0  0  0
   19.2880   38.1660   68.2860 H   0  0  0  0  0  0  0  0  0  0  0  0
   20.1030   35.2550   67.0660 H   0  0  0  0  0  0  0  0  0  0  0  0
   19.6890   36.9360   66.7350 H   0  0  0  0  0  0  0  0  0  0  0  0
   21.4010   36.4010   65.2230 H   0  0  0  0  0  0  0  0  0  0  0  0
   22.5260   35.7740   66.5020 H   0  0  0  0  0  0  0  0  0  0  0  0
   22.7920   38.9080   68.1160 H   0  0  0  0  0  0  0  0  0  0  0  0
   23.8060   37.5220   67.5920 H   0  0  0  0  0  0  0  0  0  0  0  0
   22.7450   36.0100   68.8810 H   0  0  0  0  0  0  0  0  0  0  0  0
   22.2040   37.4420   69.7830 H   0  0  0  0  0  0  0  0  0  0  0  0
  2  1  1  0  0  0  0
  3 35  1  0  0  0  0
  3  2  2  0  0  0  0
  4  3  1  0  0  0  0
  5  4  2  0  0  0  0
  5  6  1  0  0  0  0
  6  7  2  0  0  0  0
  7 37  1  0  0  0  0
  7  2  1  0  0  0  0
  8  5  1  0  0  0  0
  9  8  1  0  0  0  0
  9 11  1  0  0  0  0
 10  9  2  0  0  0  0
 11 12  2  0  0  0  0
 11  4  1  0  0  0  0
 12 13  1  0  0  0  0
 13 38  1  0  0  0  0
 13 14  1  0  0  0  0
 14 16  1  0  0  0  0
 15 14  2  0  0  0  0
 16 40  1  0  0  0  0
 17 16  1  0  0  0  0
 17 18  1  0  0  0  0
 18 19  2  0  0  0  0
 19 41  1  0  0  0  0
 19 20  1  0  0  0  0
 20 21  1  0  0  0  0
 21 42  1  0  0  0  0
 21 22  2  0  0  0  0
 22 43  1  0  0  0  0
 23 22  1  0  0  0  0
 23 26  1  0  0  0  0
 24 23  2  0  0  0  0
 25 20  2  0  0  0  0
 25 24  1  0  0  0  0
 27 47  1  0  0  0  0
 27 26  1  0  0  0  0
 28  8  1  0  0  0  0
 28 49  1  0  0  0  0
 29 34  1  0  0  0  0
 29 28  1  0  0  0  0
 30 29  1  0  0  0  0
 31 54  1  0  0  0  0
 31 32  1  0  0  0  0
 31 30  1  0  0  0  0
 32 33  1  0  0  0  0
 33 55  1  0  0  0  0
 33 34  1  0  0  0  0
 34 57  1  0  0  0  0
 34 58  1  0  0  0  0
 36  6  1  0  0  0  0
 39 16  1  0  0  0  0
 44 24  1  0  0  0  0
 45 25  1  0  0  0  0
 46 27  1  0  0  0  0
 48 27  1  0  0  0  0
 50 28  1  0  0  0  0
 51 30  1  0  0  0  0
 52 30  1  0  0  0  0
 53 31  1  0  0  0  0
 56 33  1  0  0  0  0
M  END
>  <Pose>
1

>  <Score>
-6.76

$$$$
