
 OpenBabel03212208413D

 59 62  0  0  0  0  0  0  0  0999 V2000
   13.3110   36.6390   69.6690 B   0  0  0  0  0  0  0  0  0  0  0  0
   14.9130   35.7010   70.1690 C   0  0  0  0  0  0  0  0  0  0  0  0
   14.9050   34.3490   70.4200 C   0  0  0  0  0  0  0  0  0  0  0  0
   16.0370   33.6280   70.7850 C   0  0  0  0  0  0  0  0  0  0  0  0
   17.2480   34.3170   70.9030 C   0  0  0  0  0  0  0  0  0  0  0  0
   17.2560   35.6740   70.6510 C   0  0  0  0  0  0  0  0  0  0  0  0
   16.1100   36.3750   70.2870 C   0  0  0  0  0  0  0  0  0  0  0  0
   18.2930   33.4100   71.2830 N   0  0  0  0  0  0  0  0  0  0  0  0
   17.6950   32.1260   71.4010 C   0  0  0  0  0  0  0  0  0  0  0  0
   18.2940   31.0750   71.7170 O   0  0  0  0  0  0  0  0  0  0  0  0
   16.2810   32.2310   71.0940 C   0  0  0  0  0  0  0  0  0  0  0  0
   15.4110   31.2850   71.0930 N   0  0  0  0  0  0  0  0  0  0  0  0
   15.7220   29.9660   71.4020 N   0  0  0  0  0  0  0  0  0  0  0  0
   15.2680   29.4030   72.6130 C   0  0  0  0  0  0  0  0  0  0  0  0
   15.9850   28.5790   73.2780 O   0  0  0  0  0  0  0  0  0  0  0  0
   13.9450   29.7130   73.2120 C   0  0  0  0  0  0  0  0  0  0  0  0
   13.9090   29.2800   74.5710 O   0  0  0  0  0  0  0  0  0  0  0  0
   12.8040   29.5630   75.3560 C   0  0  0  0  0  0  0  0  0  0  0  0
   12.7210   29.0680   76.6400 C   0  0  0  0  0  0  0  0  0  0  0  0
   11.6080   29.3570   77.4230 C   0  0  0  0  0  0  0  0  0  0  0  0
   10.5820   30.1360   76.9230 C   0  0  0  0  0  0  0  0  0  0  0  0
   10.6780   30.6180   75.6520 C   0  0  0  0  0  0  0  0  0  0  0  0
   11.7870   30.3300   74.8730 C   0  0  0  0  0  0  0  0  0  0  0  0
   13.7230   28.2910   77.1660 O   0  0  0  0  0  0  0  0  0  0  0  0
   15.0180   28.8100   77.3310 C   0  0  0  0  0  0  0  0  0  0  0  0
   19.6810   33.7840   71.4920 C   0  0  0  0  0  0  0  0  0  0  0  0
   20.2130   34.6760   70.5260 N   0  0  0  0  0  0  0  0  0  0  0  0
   20.7310   35.9020   71.0290 C   0  0  0  0  0  0  0  0  0  0  0  0
   21.2080   36.8270   69.9050 C   0  0  0  0  0  0  0  0  0  0  0  0
   20.6930   36.2890   68.6780 N   0  0  0  0  0  0  0  0  0  0  0  0
   21.2630   35.0230   68.3380 C   0  0  0  0  0  0  0  0  0  0  0  0
   21.0010   34.0710   69.4910 C   0  0  0  0  0  0  0  0  0  0  0  0
   20.6540   37.2340   67.6000 C   0  0  0  0  0  0  0  0  0  0  0  0
   13.9600   33.8160   70.3270 H   0  0  0  0  0  0  0  0  0  0  0  0
   18.1800   36.2570   70.7300 H   0  0  0  0  0  0  0  0  0  0  0  0
   16.1100   37.4340   70.0880 H   0  0  0  0  0  0  0  0  0  0  0  0
   16.2820   29.4080   70.7420 H   0  0  0  0  0  0  0  0  0  0  0  0
   13.7070   30.7890   73.2010 H   0  0  0  0  0  0  0  0  0  0  0  0
   13.1370   29.2010   72.6610 H   0  0  0  0  0  0  0  0  0  0  0  0
   11.5550   28.9590   78.4370 H   0  0  0  0  0  0  0  0  0  0  0  0
    9.6980   30.3770   77.5150 H   0  0  0  0  0  0  0  0  0  0  0  0
    9.8970   31.2200   75.2510 H   0  0  0  0  0  0  0  0  0  0  0  0
   11.8090   30.7380   73.8770 H   0  0  0  0  0  0  0  0  0  0  0  0
   15.4350   29.2230   76.3860 H   0  0  0  0  0  0  0  0  0  0  0  0
   14.9480   29.6860   78.0270 H   0  0  0  0  0  0  0  0  0  0  0  0
   15.6480   28.0050   77.7670 H   0  0  0  0  0  0  0  0  0  0  0  0
   19.8450   34.1580   72.5310 H   0  0  0  0  0  0  0  0  0  0  0  0
   20.2720   32.8320   71.4360 H   0  0  0  0  0  0  0  0  0  0  0  0
   19.9100   36.4540   71.5300 H   0  0  0  0  0  0  0  0  0  0  0  0
   21.5370   35.7720   71.7810 H   0  0  0  0  0  0  0  0  0  0  0  0
   20.8420   37.8550   70.0320 H   0  0  0  0  0  0  0  0  0  0  0  0
   22.3140   36.8510   69.9520 H   0  0  0  0  0  0  0  0  0  0  0  0
   22.3480   35.0490   68.1270 H   0  0  0  0  0  0  0  0  0  0  0  0
   20.7590   34.6800   67.3990 H   0  0  0  0  0  0  0  0  0  0  0  0
   21.9770   33.7430   69.9380 H   0  0  0  0  0  0  0  0  0  0  0  0
   20.4390   33.2110   69.0770 H   0  0  0  0  0  0  0  0  0  0  0  0
   19.7140   37.1130   66.9950 H   0  0  0  0  0  0  0  0  0  0  0  0
   21.5270   37.1770   66.9240 H   0  0  0  0  0  0  0  0  0  0  0  0
   20.5750   38.2540   68.0570 H   0  0  0  0  0  0  0  0  0  0  0  0
  1  2  1  0  0  0  0
  2  7  2  0  0  0  0
  2  3  1  0  0  0  0
  3  4  2  0  0  0  0
  4  5  1  0  0  0  0
  4 11  1  0  0  0  0
  5  8  1  0  0  0  0
  6 35  1  0  0  0  0
  6  5  2  0  0  0  0
  7  6  1  0  0  0  0
  8  9  1  0  0  0  0
  8 26  1  0  0  0  0
  9 10  2  0  0  0  0
 11  9  1  0  0  0  0
 12 11  2  0  0  0  0
 12 13  1  0  0  0  0
 13 14  1  0  0  0  0
 14 16  1  0  0  0  0
 14 15  2  0  0  0  0
 16 17  1  0  0  0  0
 17 18  1  0  0  0  0
 18 19  1  0  0  0  0
 19 24  1  0  0  0  0
 19 20  2  0  0  0  0
 20 40  1  0  0  0  0
 21 20  1  0  0  0  0
 21 41  1  0  0  0  0
 22 21  2  0  0  0  0
 23 18  2  0  0  0  0
 23 22  1  0  0  0  0
 24 25  1  0  0  0  0
 25 46  1  0  0  0  0
 25 45  1  0  0  0  0
 26 47  1  0  0  0  0
 27 28  1  0  0  0  0
 27 26  1  0  0  0  0
 28 49  1  0  0  0  0
 28 50  1  0  0  0  0
 29 52  1  0  0  0  0
 29 51  1  0  0  0  0
 29 28  1  0  0  0  0
 30 29  1  0  0  0  0
 31 30  1  0  0  0  0
 31 32  1  0  0  0  0
 32 55  1  0  0  0  0
 32 27  1  0  0  0  0
 33 59  1  0  0  0  0
 33 30  1  0  0  0  0
 34  3  1  0  0  0  0
 36  7  1  0  0  0  0
 37 13  1  0  0  0  0
 38 16  1  0  0  0  0
 39 16  1  0  0  0  0
 42 22  1  0  0  0  0
 43 23  1  0  0  0  0
 44 25  1  0  0  0  0
 48 26  1  0  0  0  0
 53 31  1  0  0  0  0
 54 31  1  0  0  0  0
 56 32  1  0  0  0  0
 57 33  1  0  0  0  0
 58 33  1  0  0  0  0
M  END
>  <Pose>
1

>  <Score>
-6.89

$$$$
