
 OpenBabel03212208413D

 45 48  0  0  1  0  0  0  0  0999 V2000
   18.2330   30.9860   67.3010 B   0  0  0  0  0  0  0  0  0  0  0  0
   17.9850   31.8480   69.0050 C   0  0  0  0  0  0  0  0  0  0  0  0
   16.8490   32.5200   69.3510 C   0  0  0  0  0  0  0  0  0  0  0  0
   16.7240   33.1470   70.5640 C   0  0  0  0  0  0  0  0  0  0  0  0
   17.7860   33.0720   71.4200 C   0  0  0  0  0  0  0  0  0  0  0  0
   18.9620   32.3860   71.0910 C   0  0  0  0  0  0  0  0  0  0  0  0
   19.0770   31.7600   69.8670 C   0  0  0  0  0  0  0  0  0  0  0  0
   17.5380   33.7930   72.6110 N   0  0  0  0  0  0  0  0  0  0  0  0
   16.2660   34.3500   72.5030 C   0  0  0  0  0  0  0  0  0  0  0  0
   15.7430   35.0740   73.3900 O   0  0  0  0  0  0  0  0  0  0  0  0
   15.6520   33.9450   71.1850 C   0  0  2  0  0  0  0  0  0  0  0  0
   14.4320   33.2390   71.5440 C   0  0  0  0  0  0  0  0  0  0  0  0
   13.2170   33.7650   71.2230 C   0  0  0  0  0  0  0  0  0  0  0  0
   12.2810   32.8930   71.6920 N   0  0  0  0  0  0  0  0  0  0  0  0
   12.8790   31.8840   72.2710 N   0  0  0  0  0  0  0  0  0  0  0  0
   14.2240   32.0270   72.2210 C   0  0  0  0  0  0  0  0  0  0  0  0
   15.2050   31.0540   72.7650 C   0  0  0  0  0  0  0  0  0  0  0  0
   15.7640   30.1950   71.6980 C   0  0  0  0  0  0  0  0  0  0  0  0
   15.2890   30.0680   70.5410 O   0  0  0  0  0  0  0  0  0  0  0  0
   16.9000   29.4750   71.9970 O   0  0  0  0  0  0  0  0  0  0  0  0
   17.1230   28.7190   73.1580 C   0  0  0  0  0  0  0  0  0  0  0  0
   16.9080   27.2540   72.8600 C   0  0  0  0  0  0  0  0  0  0  0  0
   13.0700   34.9880   70.5390 O   0  0  0  0  0  0  0  0  0  0  0  0
   14.2330   35.6530   70.2000 C   0  0  0  0  0  0  0  0  0  0  0  0
   15.4210   35.1990   70.4840 C   0  0  0  0  0  0  0  0  0  0  0  0
   16.5940   35.9840   70.0860 C   0  0  0  0  0  0  0  0  0  0  0  0
   17.4990   36.6120   69.7700 N   0  0  0  0  0  0  0  0  0  0  0  0
   14.0850   36.9110   69.4980 N   0  0  0  0  0  0  0  0  0  0  0  0
   18.4580   33.9260   73.7590 C   0  0  0  0  0  0  0  0  0  0  0  0
   16.0420   32.5590   68.6600 H   0  0  0  0  0  0  0  0  0  0  0  0
   19.8070   32.3160   71.7600 H   0  0  0  0  0  0  0  0  0  0  0  0
   19.9780   31.2280   69.5980 H   0  0  0  0  0  0  0  0  0  0  0  0
   12.4190   31.0460   72.7310 H   0  0  0  0  0  0  0  0  0  0  0  0
   16.0600   31.5490   73.2560 H   0  0  0  0  0  0  0  0  0  0  0  0
   14.7360   30.4230   73.5610 H   0  0  0  0  0  0  0  0  0  0  0  0
   16.3380   28.9800   73.9400 H   0  0  0  0  0  0  0  0  0  0  0  0
   18.1100   28.9350   73.5850 H   0  0  0  0  0  0  0  0  0  0  0  0
   16.4830   27.1680   71.8170 H   0  0  0  0  0  0  0  0  0  0  0  0
   16.1790   26.7940   73.5250 H   0  0  0  0  0  0  0  0  0  0  0  0
   17.8750   26.6980   72.8120 H   0  0  0  0  0  0  0  0  0  0  0  0
   13.7420   37.7780   69.9460 H   0  0  0  0  0  0  0  0  0  0  0  0
   14.3380   36.9330   68.4980 H   0  0  0  0  0  0  0  0  0  0  0  0
   18.4260   32.9730   74.3490 H   0  0  0  0  0  0  0  0  0  0  0  0
   19.4830   34.1560   73.4060 H   0  0  0  0  0  0  0  0  0  0  0  0
   18.0770   34.7200   74.4160 H   0  0  0  0  0  0  0  0  0  0  0  0
  1  2  1  0  0  0  0
  2  3  2  0  0  0  0
  2  7  1  0  0  0  0
  3  4  1  0  0  0  0
  4 11  1  0  0  0  0
  4  5  2  0  0  0  0
  5  8  1  0  0  0  0
  6  5  1  0  0  0  0
  6 31  1  0  0  0  0
  7  6  2  0  0  0  0
  8 29  1  0  0  0  0
  9  8  1  0  0  0  0
  9 10  2  0  0  0  0
 11 25  1  6  0  0  0
 11 12  1  0  0  0  0
 11  9  1  0  0  0  0
 12 16  2  0  0  0  0
 13 12  1  0  0  0  0
 13 14  2  0  0  0  0
 14 15  1  0  0  0  0
 15 33  1  0  0  0  0
 16 15  1  0  0  0  0
 16 17  1  0  0  0  0
 17 34  1  0  0  0  0
 17 35  1  0  0  0  0
 18 20  1  0  0  0  0
 18 17  1  0  0  0  0
 19 18  2  0  0  0  0
 20 21  1  0  0  0  0
 21 37  1  0  0  0  0
 21 36  1  0  0  0  0
 22 21  1  0  0  0  0
 22 39  1  0  0  0  0
 23 13  1  0  0  0  0
 24 25  2  0  0  0  0
 24 23  1  0  0  0  0
 26 25  1  0  0  0  0
 27 26  3  0  0  0  0
 28 41  1  0  0  0  0
 28 24  1  0  0  0  0
 29 43  1  0  0  0  0
 29 45  1  0  0  0  0
 30  3  1  0  0  0  0
 32  7  1  0  0  0  0
 38 22  1  0  0  0  0
 40 22  1  0  0  0  0
 42 28  1  0  0  0  0
 44 29  1  0  0  0  0
M  END
>  <Pose>
1

>  <Score>
-4.88

$$$$
