
 OpenBabel03212208413D

 36 39  0  0  1  0  0  0  0  0999 V2000
   14.4340   35.9100   69.9360 B   0  0  0  0  0  0  0  0  0  0  0  0
   15.7670   35.0540   71.0340 C   0  0  0  0  0  0  0  0  0  0  0  0
   17.0980   35.1300   70.7180 C   0  0  0  0  0  0  0  0  0  0  0  0
   18.0330   34.5100   71.5200 C   0  0  0  0  0  0  0  0  0  0  0  0
   17.5790   33.8320   72.6190 C   0  0  0  0  0  0  0  0  0  0  0  0
   16.2100   33.7560   72.9430 C   0  0  0  0  0  0  0  0  0  0  0  0
   15.2940   34.3770   72.1360 C   0  0  0  0  0  0  0  0  0  0  0  0
   18.6580   33.2490   73.3430 N   0  0  0  0  0  0  0  0  0  0  0  0
   19.8470   33.5690   72.6760 C   0  0  0  0  0  0  0  0  0  0  0  0
   21.0090   33.2120   73.0410 O   0  0  0  0  0  0  0  0  0  0  0  0
   19.5110   34.3980   71.4650 C   0  0  2  0  0  0  0  0  0  0  0  0
   20.1890   35.6750   71.6560 C   0  0  0  0  0  0  0  0  0  0  0  0
   21.1680   36.0880   70.8060 C   0  0  0  0  0  0  0  0  0  0  0  0
   21.5890   37.3060   71.2580 N   0  0  0  0  0  0  0  0  0  0  0  0
   20.9150   37.6490   72.3360 N   0  0  0  0  0  0  0  0  0  0  0  0
   20.0470   36.6790   72.6170 C   0  0  0  0  0  0  0  0  0  0  0  0
   19.0570   36.5910   73.7360 C   0  0  0  0  0  0  0  0  0  0  0  0
   21.5870   35.3310   69.7070 O   0  0  0  0  0  0  0  0  0  0  0  0
   20.9380   34.1130   69.5290 C   0  0  0  0  0  0  0  0  0  0  0  0
   19.9920   33.6620   70.3110 C   0  0  0  0  0  0  0  0  0  0  0  0
   19.4160   32.3500   69.9690 C   0  0  0  0  0  0  0  0  0  0  0  0
   18.9630   31.3140   69.6770 N   0  0  0  0  0  0  0  0  0  0  0  0
   21.3310   33.2800   68.4010 N   0  0  0  0  0  0  0  0  0  0  0  0
   18.5570   32.4490   74.5730 C   0  0  0  0  0  0  0  0  0  0  0  0
   17.4380   35.6680   69.8490 H   0  0  0  0  0  0  0  0  0  0  0  0
   15.8550   33.2190   73.8120 H   0  0  0  0  0  0  0  0  0  0  0  0
   14.2190   34.3340   72.3640 H   0  0  0  0  0  0  0  0  0  0  0  0
   21.0050   38.5230   72.9150 H   0  0  0  0  0  0  0  0  0  0  0  0
   19.1780   37.5330   74.3310 H   0  0  0  0  0  0  0  0  0  0  0  0
   18.0060   36.6270   73.3560 H   0  0  0  0  0  0  0  0  0  0  0  0
   19.2560   35.7650   74.4170 H   0  0  0  0  0  0  0  0  0  0  0  0
   21.0400   33.6440   67.4720 H   0  0  0  0  0  0  0  0  0  0  0  0
   21.8480   32.4090   68.4990 H   0  0  0  0  0  0  0  0  0  0  0  0
   18.9790   31.4490   74.3520 H   0  0  0  0  0  0  0  0  0  0  0  0
   19.2550   32.9400   75.2910 H   0  0  0  0  0  0  0  0  0  0  0  0
   17.5370   32.4300   74.9570 H   0  0  0  0  0  0  0  0  0  0  0  0
  1  2  1  0  0  0  0
  2  7  1  0  0  0  0
  3  2  2  0  0  0  0
  3  4  1  0  0  0  0
  4  5  2  0  0  0  0
  5  6  1  0  0  0  0
  5  8  1  0  0  0  0
  6 26  1  0  0  0  0
  7 27  1  0  0  0  0
  7  6  2  0  0  0  0
  8 24  1  0  0  0  0
  9 10  2  0  0  0  0
  9  8  1  0  0  0  0
 11 20  1  6  0  0  0
 11  4  1  0  0  0  0
 11 12  1  0  0  0  0
 11  9  1  0  0  0  0
 12 16  2  0  0  0  0
 13 14  2  0  0  0  0
 13 12  1  0  0  0  0
 14 15  1  0  0  0  0
 15 16  1  0  0  0  0
 15 28  1  0  0  0  0
 16 17  1  0  0  0  0
 17 29  1  0  0  0  0
 17 31  1  0  0  0  0
 18 13  1  0  0  0  0
 19 18  1  0  0  0  0
 19 20  2  0  0  0  0
 21 20  1  0  0  0  0
 22 21  3  0  0  0  0
 23 33  1  0  0  0  0
 23 19  1  0  0  0  0
 24 36  1  0  0  0  0
 24 35  1  0  0  0  0
 25  3  1  0  0  0  0
 30 17  1  0  0  0  0
 32 23  1  0  0  0  0
 34 24  1  0  0  0  0
M  END
>  <Pose>
1

>  <Score>
-4.95

$$$$
