
 OpenBabel03212208413D

 39 42  0  0  1  0  0  0  0  0999 V2000
   19.0880   31.2520   68.3010 B   0  0  0  0  0  0  0  0  0  0  0  0
   18.6910   32.0310   69.9910 C   0  0  0  0  0  0  0  0  0  0  0  0
   17.3790   32.1940   70.3800 C   0  0  0  0  0  0  0  0  0  0  0  0
   17.0610   32.7630   71.6170 C   0  0  0  0  0  0  0  0  0  0  0  0
   18.0880   33.1470   72.4170 C   0  0  0  0  0  0  0  0  0  0  0  0
   19.4310   32.9800   72.0180 C   0  0  0  0  0  0  0  0  0  0  0  0
   19.7350   32.4190   70.8000 C   0  0  0  0  0  0  0  0  0  0  0  0
   17.5570   33.6970   73.6160 N   0  0  0  0  0  0  0  0  0  0  0  0
   16.1520   33.6590   73.5740 C   0  0  0  0  0  0  0  0  0  0  0  0
   15.3470   34.0560   74.4540 O   0  0  0  0  0  0  0  0  0  0  0  0
   15.7500   33.0500   72.2720 C   0  0  1  0  0  0  0  0  0  0  0  0
   14.9550   33.9910   71.4750 C   0  0  0  0  0  0  0  0  0  0  0  0
   13.7250   33.6640   71.0030 C   0  0  0  0  0  0  0  0  0  0  0  0
   13.1810   32.4040   71.2710 O   0  0  0  0  0  0  0  0  0  0  0  0
   13.8890   31.4820   72.0170 C   0  0  0  0  0  0  0  0  0  0  0  0
   15.0670   31.7700   72.4800 C   0  0  0  0  0  0  0  0  0  0  0  0
   15.7480   30.7290   73.2630 C   0  0  0  0  0  0  0  0  0  0  0  0
   16.2790   29.9280   73.8750 N   0  0  0  0  0  0  0  0  0  0  0  0
   13.2660   30.2080   72.2510 N   0  0  0  0  0  0  0  0  0  0  0  0
   13.0040   34.5920   70.2480 C   0  0  0  0  0  0  0  0  0  0  0  0
   11.8740   34.2790   69.8210 O   0  0  0  0  0  0  0  0  0  0  0  0
   13.5520   35.8280   69.9940 C   0  0  0  0  0  0  0  0  0  0  0  0
   14.8050   36.1050   70.4980 C   0  0  0  0  0  0  0  0  0  0  0  0
   15.4240   35.2080   71.1890 O   0  0  0  0  0  0  0  0  0  0  0  0
   15.4300   37.4580   70.2320 C   0  0  0  0  0  0  0  0  0  0  0  0
   15.0250   38.3500   71.2250 O   0  0  0  0  0  0  0  0  0  0  0  0
   18.4040   34.2140   74.7080 C   0  0  0  0  0  0  0  0  0  0  0  0
   16.5340   31.8980   69.7670 H   0  0  0  0  0  0  0  0  0  0  0  0
   20.2480   33.2920   72.6670 H   0  0  0  0  0  0  0  0  0  0  0  0
   20.7760   32.2900   70.4920 H   0  0  0  0  0  0  0  0  0  0  0  0
   13.8540   29.3790   72.3040 H   0  0  0  0  0  0  0  0  0  0  0  0
   12.2520   30.1770   72.3550 H   0  0  0  0  0  0  0  0  0  0  0  0
   13.0500   36.5900   69.4190 H   0  0  0  0  0  0  0  0  0  0  0  0
   16.5180   37.3970   70.2090 H   0  0  0  0  0  0  0  0  0  0  0  0
   15.0200   37.8760   69.2700 H   0  0  0  0  0  0  0  0  0  0  0  0
   14.1650   38.7850   70.9430 H   0  0  0  0  0  0  0  0  0  0  0  0
   19.4370   33.8320   74.6020 H   0  0  0  0  0  0  0  0  0  0  0  0
   18.4080   35.3140   74.6400 H   0  0  0  0  0  0  0  0  0  0  0  0
   18.0070   33.8400   75.6870 H   0  0  0  0  0  0  0  0  0  0  0  0
  1  2  1  0  0  0  0
  2  3  2  0  0  0  0
  2  7  1  0  0  0  0
  3  4  1  0  0  0  0
  4 11  1  0  0  0  0
  4  5  2  0  0  0  0
  5  8  1  0  0  0  0
  6  5  1  0  0  0  0
  6 29  1  0  0  0  0
  7  6  2  0  0  0  0
  8 27  1  0  0  0  0
  9  8  1  0  0  0  0
  9 10  2  0  0  0  0
 11 12  1  6  0  0  0
 11 16  1  0  0  0  0
 11  9  1  0  0  0  0
 13 14  1  0  0  0  0
 13 12  2  0  0  0  0
 14 15  1  0  0  0  0
 15 19  1  0  0  0  0
 15 16  2  0  0  0  0
 16 17  1  0  0  0  0
 17 18  3  0  0  0  0
 19 31  1  0  0  0  0
 19 32  1  0  0  0  0
 20 13  1  0  0  0  0
 21 20  2  0  0  0  0
 22 20  1  0  0  0  0
 22 23  2  0  0  0  0
 23 24  1  0  0  0  0
 24 12  1  0  0  0  0
 25 23  1  0  0  0  0
 25 26  1  0  0  0  0
 27 39  1  0  0  0  0
 28  3  1  0  0  0  0
 30  7  1  0  0  0  0
 33 22  1  0  0  0  0
 34 25  1  0  0  0  0
 35 25  1  0  0  0  0
 36 26  1  0  0  0  0
 37 27  1  0  0  0  0
 38 27  1  0  0  0  0
M  END
>  <Pose>
1

>  <Score>
-5.23

$$$$
