
 OpenBabel03212208413D

 41 44  0  0  0  0  0  0  0  0999 V2000
   19.2690   36.0090   70.4770 B   0  0  0  0  0  0  0  0  0  0  0  0
   17.3910   36.2170   70.2990 C   0  0  0  0  0  0  0  0  0  0  0  0
   16.5230   35.1910   70.5430 C   0  0  0  0  0  0  0  0  0  0  0  0
   15.1620   35.3530   70.4060 C   0  0  0  0  0  0  0  0  0  0  0  0
   14.6040   36.5330   70.0260 C   0  0  0  0  0  0  0  0  0  0  0  0
   15.4860   37.5890   69.7740 C   0  0  0  0  0  0  0  0  0  0  0  0
   16.8430   37.4330   69.9090 C   0  0  0  0  0  0  0  0  0  0  0  0
   13.1970   36.4510   69.9560 N   0  0  0  0  0  0  0  0  0  0  0  0
   12.7890   35.1270   70.3100 C   0  0  0  0  0  0  0  0  0  0  0  0
   11.6680   34.6190   70.3810 O   0  0  0  0  0  0  0  0  0  0  0  0
   14.0610   34.4020   70.6050 C   0  0  0  0  0  0  0  0  0  0  0  0
   14.0450   33.2610   70.9470 N   0  0  0  0  0  0  0  0  0  0  0  0
   13.2060   32.2320   71.1890 N   0  0  0  0  0  0  0  0  0  0  0  0
   13.6100   31.1600   72.0060 C   0  0  0  0  0  0  0  0  0  0  0  0
   13.4530   31.2740   73.2740 O   0  0  0  0  0  0  0  0  0  0  0  0
   14.1960   29.8860   71.5810 C   0  0  0  0  0  0  0  0  0  0  0  0
   14.9620   29.1770   72.5660 N   0  0  0  0  0  0  0  0  0  0  0  0
   16.3640   28.9760   72.4210 C   0  0  0  0  0  0  0  0  0  0  0  0
   16.7460   27.7450   72.3320 O   0  0  0  0  0  0  0  0  0  0  0  0
   17.3680   29.9940   72.3680 C   0  0  0  0  0  0  0  0  0  0  0  0
   18.5010   30.0480   73.1650 C   0  0  0  0  0  0  0  0  0  0  0  0
   19.4190   31.0370   73.0580 C   0  0  0  0  0  0  0  0  0  0  0  0
   19.2670   32.0540   72.1370 C   0  0  0  0  0  0  0  0  0  0  0  0
   18.1680   32.0440   71.3370 C   0  0  0  0  0  0  0  0  0  0  0  0
   17.2080   31.0260   71.4310 C   0  0  0  0  0  0  0  0  0  0  0  0
   20.3650   32.9220   72.2470 O   0  0  0  0  0  0  0  0  0  0  0  0
   21.4220   32.0210   72.6570 C   0  0  0  0  0  0  0  0  0  0  0  0
   20.6640   31.3440   73.7220 O   0  0  0  0  0  0  0  0  0  0  0  0
   16.9000   34.2420   70.8460 H   0  0  0  0  0  0  0  0  0  0  0  0
   15.0770   38.5160   69.4750 H   0  0  0  0  0  0  0  0  0  0  0  0
   17.5590   38.2190   69.7310 H   0  0  0  0  0  0  0  0  0  0  0  0
   12.5250   37.2090   69.6880 H   0  0  0  0  0  0  0  0  0  0  0  0
   12.2380   32.2190   70.7670 H   0  0  0  0  0  0  0  0  0  0  0  0
   13.3420   29.2110   71.3000 H   0  0  0  0  0  0  0  0  0  0  0  0
   14.8090   30.0390   70.6650 H   0  0  0  0  0  0  0  0  0  0  0  0
   14.5300   28.7700   73.4090 H   0  0  0  0  0  0  0  0  0  0  0  0
   18.6550   29.2560   73.9200 H   0  0  0  0  0  0  0  0  0  0  0  0
   18.0350   32.8570   70.5990 H   0  0  0  0  0  0  0  0  0  0  0  0
   16.3610   31.0070   70.8230 H   0  0  0  0  0  0  0  0  0  0  0  0
   22.3110   32.4800   73.0100 H   0  0  0  0  0  0  0  0  0  0  0  0
   21.6030   31.3010   71.8560 H   0  0  0  0  0  0  0  0  0  0  0  0
  2  1  1  0  0  0  0
  2  3  1  0  0  0  0
  3 29  1  0  0  0  0
  4  3  2  0  0  0  0
  4 11  1  0  0  0  0
  5  4  1  0  0  0  0
  6  7  1  0  0  0  0
  6  5  2  0  0  0  0
  7  2  2  0  0  0  0
  8  5  1  0  0  0  0
  8  9  1  0  0  0  0
  9 10  2  0  0  0  0
  9 11  1  0  0  0  0
 11 12  2  0  0  0  0
 12 13  1  0  0  0  0
 13 14  1  0  0  0  0
 14 15  2  0  0  0  0
 16 14  1  0  0  0  0
 16 17  1  0  0  0  0
 17 36  1  0  0  0  0
 18 17  1  0  0  0  0
 19 18  2  0  0  0  0
 20 18  1  0  0  0  0
 20 21  1  0  0  0  0
 21 37  1  0  0  0  0
 22 21  2  0  0  0  0
 22 28  1  0  0  0  0
 23 26  1  0  0  0  0
 23 22  1  0  0  0  0
 24 25  1  0  0  0  0
 24 23  2  0  0  0  0
 25 20  2  0  0  0  0
 26 27  1  0  0  0  0
 27 40  1  0  0  0  0
 27 28  1  0  0  0  0
 30  6  1  0  0  0  0
 31  7  1  0  0  0  0
 32  8  1  0  0  0  0
 33 13  1  0  0  0  0
 34 16  1  0  0  0  0
 35 16  1  0  0  0  0
 38 24  1  0  0  0  0
 39 25  1  0  0  0  0
 41 27  1  0  0  0  0
M  END
>  <Pose>
1

>  <Score>
-7.71

$$$$
