
 OpenBabel03212208413D

 41 44  0  0  1  0  0  0  0  0999 V2000
   21.3280   38.4080   72.2750 B   0  0  0  0  0  0  0  0  0  0  0  0
   20.9760   36.9190   71.1360 C   0  0  0  0  0  0  0  0  0  0  0  0
   20.7780   35.7020   71.7400 C   0  0  0  0  0  0  0  0  0  0  0  0
   20.5150   34.5790   70.9480 C   0  0  0  0  0  0  0  0  0  0  0  0
   20.4640   34.7180   69.5990 C   0  0  0  0  0  0  0  0  0  0  0  0
   20.6640   35.9560   68.9600 C   0  0  0  0  0  0  0  0  0  0  0  0
   20.9200   37.0420   69.7640 C   0  0  0  0  0  0  0  0  0  0  0  0
   20.1940   33.4750   68.9770 N   0  0  0  0  0  0  0  0  0  0  0  0
   20.0740   32.5170   69.9860 C   0  0  0  0  0  0  0  0  0  0  0  0
   19.8370   31.2560   69.8390 O   0  0  0  0  0  0  0  0  0  0  0  0
   20.2640   33.1920   71.3040 C   0  0  2  0  0  0  0  0  0  0  0  0
   19.0750   32.9180   72.0680 C   0  0  0  0  0  0  0  0  0  0  0  0
   19.1090   32.1350   73.1610 C   0  0  0  0  0  0  0  0  0  0  0  0
   17.8260   32.0770   73.6500 N   0  0  0  0  0  0  0  0  0  0  0  0
   17.0500   32.8020   72.8730 N   0  0  0  0  0  0  0  0  0  0  0  0
   17.7470   33.3510   71.8770 C   0  0  0  0  0  0  0  0  0  0  0  0
   17.2620   34.2370   70.7800 C   0  0  0  0  0  0  0  0  0  0  0  0
   20.2840   31.5300   73.6430 O   0  0  0  0  0  0  0  0  0  0  0  0
   21.4430   31.7830   72.9200 C   0  0  0  0  0  0  0  0  0  0  0  0
   21.4700   32.5290   71.8570 C   0  0  0  0  0  0  0  0  0  0  0  0
   22.7690   32.7370   71.1540 C   0  0  0  0  0  0  0  0  0  0  0  0
   23.5700   31.7860   71.1210 O   0  0  0  0  0  0  0  0  0  0  0  0
   23.1140   33.9140   70.5480 O   0  0  0  0  0  0  0  0  0  0  0  0
   23.3910   34.0600   69.1760 C   0  0  0  0  0  0  0  0  0  0  0  0
   24.5600   33.1250   68.8480 C   0  0  0  0  0  0  0  0  0  0  0  0
   22.6910   31.1960   73.3530 N   0  0  0  0  0  0  0  0  0  0  0  0
   20.8190   35.5880   72.8300 H   0  0  0  0  0  0  0  0  0  0  0  0
   20.6210   36.0590   67.8930 H   0  0  0  0  0  0  0  0  0  0  0  0
   21.0810   38.0180   69.3240 H   0  0  0  0  0  0  0  0  0  0  0  0
   20.0960   33.2690   67.9420 H   0  0  0  0  0  0  0  0  0  0  0  0
   17.5220   31.5440   74.4960 H   0  0  0  0  0  0  0  0  0  0  0  0
   16.2040   34.5140   70.9540 H   0  0  0  0  0  0  0  0  0  0  0  0
   17.2860   33.6330   69.8500 H   0  0  0  0  0  0  0  0  0  0  0  0
   17.8280   35.1800   70.7120 H   0  0  0  0  0  0  0  0  0  0  0  0
   23.6130   35.0930   68.8900 H   0  0  0  0  0  0  0  0  0  0  0  0
   22.5230   33.6840   68.5930 H   0  0  0  0  0  0  0  0  0  0  0  0
   24.5210   32.2150   69.4790 H   0  0  0  0  0  0  0  0  0  0  0  0
   24.5400   32.8080   67.7890 H   0  0  0  0  0  0  0  0  0  0  0  0
   25.5140   33.6860   68.9970 H   0  0  0  0  0  0  0  0  0  0  0  0
   23.4700   31.8240   73.5660 H   0  0  0  0  0  0  0  0  0  0  0  0
   22.7630   30.1810   73.4350 H   0  0  0  0  0  0  0  0  0  0  0  0
  2  3  1  0  0  0  0
  2  1  1  0  0  0  0
  3 27  1  0  0  0  0
  4 11  1  0  0  0  0
  4  3  2  0  0  0  0
  5  4  1  0  0  0  0
  6  5  2  0  0  0  0
  6  7  1  0  0  0  0
  7  2  2  0  0  0  0
  8  5  1  0  0  0  0
  8  9  1  0  0  0  0
 10  9  2  0  0  0  0
 11  9  1  6  0  0  0
 11 20  1  0  0  0  0
 11 12  1  0  0  0  0
 12 13  2  0  0  0  0
 13 18  1  0  0  0  0
 13 14  1  0  0  0  0
 14 31  1  0  0  0  0
 15 14  1  0  0  0  0
 16 12  1  0  0  0  0
 16 15  2  0  0  0  0
 17 32  1  0  0  0  0
 17 16  1  0  0  0  0
 19 26  1  0  0  0  0
 19 18  1  0  0  0  0
 20 19  2  0  0  0  0
 21 20  1  0  0  0  0
 22 21  2  0  0  0  0
 23 21  1  0  0  0  0
 24 23  1  0  0  0  0
 25 39  1  0  0  0  0
 25 24  1  0  0  0  0
 25 37  1  0  0  0  0
 26 41  1  0  0  0  0
 26 40  1  0  0  0  0
 28  6  1  0  0  0  0
 29  7  1  0  0  0  0
 30  8  1  0  0  0  0
 33 17  1  0  0  0  0
 34 17  1  0  0  0  0
 35 24  1  0  0  0  0
 36 24  1  0  0  0  0
 38 25  1  0  0  0  0
M  END
>  <Pose>
1

>  <Score>
-5.44

$$$$
