
 OpenBabel03212208413D

 49 52  0  0  1  0  0  0  0  0999 V2000
   24.0830   33.7870   67.3240 B   0  0  0  0  0  0  0  0  0  0  0  0
   22.9160   34.5800   68.6090 C   0  0  0  0  0  0  0  0  0  0  0  0
   22.2660   33.8060   69.5380 C   0  0  0  0  0  0  0  0  0  0  0  0
   21.4030   34.3800   70.4890 C   0  0  0  0  0  0  0  0  0  0  0  0
   21.1820   35.7280   70.5220 C   0  0  0  0  0  0  0  0  0  0  0  0
   21.8470   36.5180   69.5730 C   0  0  0  0  0  0  0  0  0  0  0  0
   22.6860   35.9370   68.6510 C   0  0  0  0  0  0  0  0  0  0  0  0
   20.2790   36.0690   71.5640 N   0  0  0  0  0  0  0  0  0  0  0  0
   19.9160   34.8690   72.2170 C   0  0  0  0  0  0  0  0  0  0  0  0
   19.1100   34.8520   73.2050 O   0  0  0  0  0  0  0  0  0  0  0  0
   20.6040   33.7640   71.5710 C   0  0  2  0  0  0  0  0  0  0  0  0
   21.4240   32.9830   72.4760 N   0  0  0  0  0  0  0  0  0  0  0  0
   20.5540   31.9460   73.0000 C   0  0  1  0  0  0  0  0  0  0  0  0
   19.7850   31.5370   71.7770 C   0  0  2  0  0  0  0  0  0  0  0  0
   19.5830   32.7980   71.0080 C   0  0  1  0  0  0  0  0  0  0  0  0
   18.1950   33.2090   71.2720 C   0  0  0  0  0  0  0  0  0  0  0  0
   17.6480   34.3430   71.0730 O   0  0  0  0  0  0  0  0  0  0  0  0
   17.4710   32.1150   71.8190 N   0  0  0  0  0  0  0  0  0  0  0  0
   18.4100   31.0930   72.0910 C   0  0  0  0  0  0  0  0  0  0  0  0
   18.1510   29.9370   72.5440 O   0  0  0  0  0  0  0  0  0  0  0  0
   16.0430   32.0490   72.0560 C   0  0  0  0  0  0  0  0  0  0  0  0
   15.4140   30.8460   71.4300 C   0  0  0  0  0  0  0  0  0  0  0  0
   13.9030   30.9630   71.6660 C   0  0  0  0  0  0  0  0  0  0  0  0
   13.5680   30.6420   73.0960 C   0  0  0  0  0  0  0  0  0  0  0  0
   21.3890   30.8440   73.5730 C   0  0  2  0  0  0  0  0  0  0  0  0
   22.3210   31.4230   74.4440 O   0  0  0  0  0  0  0  0  0  0  0  0
   22.1700   30.1600   72.4780 C   0  0  0  0  0  0  0  0  0  0  0  0
   22.4010   32.7180   69.5640 H   0  0  0  0  0  0  0  0  0  0  0  0
   21.6730   37.5960   69.5960 H   0  0  0  0  0  0  0  0  0  0  0  0
   23.2060   36.5400   67.9120 H   0  0  0  0  0  0  0  0  0  0  0  0
   19.9710   37.0550   71.7670 H   0  0  0  0  0  0  0  0  0  0  0  0
   21.8630   33.5570   73.2190 H   0  0  0  0  0  0  0  0  0  0  0  0
   19.8330   32.3330   73.7370 H   0  0  0  0  0  0  0  0  0  0  0  0
   20.3240   30.7860   71.1630 H   0  0  0  0  0  0  0  0  0  0  0  0
   19.7530   32.6120   69.9180 H   0  0  0  0  0  0  0  0  0  0  0  0
   15.7940   32.0440   73.1330 H   0  0  0  0  0  0  0  0  0  0  0  0
   15.5750   32.9640   71.6240 H   0  0  0  0  0  0  0  0  0  0  0  0
   15.7190   29.9210   71.9830 H   0  0  0  0  0  0  0  0  0  0  0  0
   15.6470   30.6860   70.3800 H   0  0  0  0  0  0  0  0  0  0  0  0
   13.6650   32.0430   71.4790 H   0  0  0  0  0  0  0  0  0  0  0  0
   13.3390   30.3630   70.9370 H   0  0  0  0  0  0  0  0  0  0  0  0
   14.2300   29.8860   73.5430 H   0  0  0  0  0  0  0  0  0  0  0  0
   13.6540   31.5600   73.7380 H   0  0  0  0  0  0  0  0  0  0  0  0
   12.5030   30.3440   73.1500 H   0  0  0  0  0  0  0  0  0  0  0  0
   20.7490   30.1040   74.0960 H   0  0  0  0  0  0  0  0  0  0  0  0
   22.6640   32.2780   74.0780 H   0  0  0  0  0  0  0  0  0  0  0  0
   21.5300   29.3980   71.9900 H   0  0  0  0  0  0  0  0  0  0  0  0
   22.5190   30.9310   71.7790 H   0  0  0  0  0  0  0  0  0  0  0  0
   23.0080   29.6050   72.9740 H   0  0  0  0  0  0  0  0  0  0  0  0
  1  2  1  0  0  0  0
  2  7  2  0  0  0  0
  2  3  1  0  0  0  0
  3 28  1  0  0  0  0
  3  4  2  0  0  0  0
  4  5  1  0  0  0  0
  5  8  1  0  0  0  0
  6 29  1  0  0  0  0
  6  5  2  0  0  0  0
  7  6  1  0  0  0  0
  8 31  1  0  0  0  0
  8  9  1  0  0  0  0
  9 10  2  0  0  0  0
 11  4  1  6  0  0  0
 11  9  1  0  0  0  0
 11 12  1  0  0  0  0
 12 13  1  0  0  0  0
 12 32  1  0  0  0  0
 13 25  1  0  0  0  0
 13 33  1  1  0  0  0
 14 34  1  6  0  0  0
 14 19  1  0  0  0  0
 14 13  1  0  0  0  0
 15 35  1  6  0  0  0
 15 16  1  0  0  0  0
 15 11  1  0  0  0  0
 15 14  1  0  0  0  0
 16 18  1  0  0  0  0
 17 16  2  0  0  0  0
 18 21  1  0  0  0  0
 18 19  1  0  0  0  0
 19 20  2  0  0  0  0
 21 36  1  0  0  0  0
 22 23  1  0  0  0  0
 22 38  1  0  0  0  0
 22 21  1  0  0  0  0
 23 24  1  0  0  0  0
 24 44  1  0  0  0  0
 24 42  1  0  0  0  0
 24 43  1  0  0  0  0
 25 45  1  1  0  0  0
 25 26  1  0  0  0  0
 27 49  1  0  0  0  0
 27 25  1  0  0  0  0
 30  7  1  0  0  0  0
 37 21  1  0  0  0  0
 39 22  1  0  0  0  0
 40 23  1  0  0  0  0
 41 23  1  0  0  0  0
 46 26  1  0  0  0  0
 47 27  1  0  0  0  0
 48 27  1  0  0  0  0
M  END
>  <Pose>
1

>  <Score>
-6.71

$$$$
