
 OpenBabel03212208413D

 45 48  0  0  1  0  0  0  0  0999 V2000
   11.9830   30.0770   74.9320 B   0  0  0  0  0  0  0  0  0  0  0  0
   13.8140   29.6620   74.5780 C   0  0  0  0  0  0  0  0  0  0  0  0
   14.6440   30.5270   73.9110 C   0  0  0  0  0  0  0  0  0  0  0  0
   15.9960   30.2560   73.6330 C   0  0  0  0  0  0  0  0  0  0  0  0
   16.4810   29.0580   74.0640 C   0  0  0  0  0  0  0  0  0  0  0  0
   15.6440   28.1580   74.7500 C   0  0  0  0  0  0  0  0  0  0  0  0
   14.3250   28.4530   75.0060 C   0  0  0  0  0  0  0  0  0  0  0  0
   17.8550   28.9200   73.7280 N   0  0  0  0  0  0  0  0  0  0  0  0
   18.2400   30.0950   73.0520 C   0  0  0  0  0  0  0  0  0  0  0  0
   19.4170   30.3470   72.6020 O   0  0  0  0  0  0  0  0  0  0  0  0
   17.0590   30.9720   72.9600 C   0  0  2  0  0  0  0  0  0  0  0  0
   17.4490   32.1590   73.7420 N   0  0  0  0  0  0  0  0  0  0  0  0
   17.8360   33.1940   72.8340 C   0  0  2  0  0  0  0  0  0  0  0  0
   17.0550   32.9180   71.6030 C   0  0  1  0  0  0  0  0  0  0  0  0
   16.7830   31.4380   71.5780 C   0  0  2  0  0  0  0  0  0  0  0  0
   15.4300   31.3470   71.0780 C   0  0  0  0  0  0  0  0  0  0  0  0
   14.8840   30.2890   70.6470 O   0  0  0  0  0  0  0  0  0  0  0  0
   14.8200   32.6280   71.1500 N   0  0  0  0  0  0  0  0  0  0  0  0
   15.7090   33.5550   71.7570 C   0  0  0  0  0  0  0  0  0  0  0  0
   15.3720   34.6360   72.2780 O   0  0  0  0  0  0  0  0  0  0  0  0
   13.4740   32.8900   70.6580 C   0  0  0  0  0  0  0  0  0  0  0  0
   13.4580   33.9640   69.6120 C   0  0  0  0  0  0  0  0  0  0  0  0
   12.4810   35.0680   69.9120 C   0  0  0  0  0  0  0  0  0  0  0  0
   13.1330   36.3680   69.4270 C   0  0  0  0  0  0  0  0  0  0  0  0
   19.3230   33.2940   72.5860 C   0  0  0  0  0  0  0  0  0  0  0  0
   14.2220   31.4590   73.5920 H   0  0  0  0  0  0  0  0  0  0  0  0
   16.0770   27.2070   75.0790 H   0  0  0  0  0  0  0  0  0  0  0  0
   13.6640   27.7720   75.5350 H   0  0  0  0  0  0  0  0  0  0  0  0
   18.4900   28.0950   73.9360 H   0  0  0  0  0  0  0  0  0  0  0  0
   16.6740   32.4600   74.3720 H   0  0  0  0  0  0  0  0  0  0  0  0
   17.4660   34.1790   73.2690 H   0  0  0  0  0  0  0  0  0  0  0  0
   17.5520   33.2680   70.6710 H   0  0  0  0  0  0  0  0  0  0  0  0
   17.5340   30.9160   70.9100 H   0  0  0  0  0  0  0  0  0  0  0  0
   13.0490   31.9760   70.2090 H   0  0  0  0  0  0  0  0  0  0  0  0
   12.8300   33.1850   71.5220 H   0  0  0  0  0  0  0  0  0  0  0  0
   13.1570   33.5030   68.6590 H   0  0  0  0  0  0  0  0  0  0  0  0
   14.4740   34.4100   69.5630 H   0  0  0  0  0  0  0  0  0  0  0  0
   12.2620   35.1380   71.0030 H   0  0  0  0  0  0  0  0  0  0  0  0
   11.5400   34.9130   69.3810 H   0  0  0  0  0  0  0  0  0  0  0  0
   12.7070   37.2420   69.9560 H   0  0  0  0  0  0  0  0  0  0  0  0
   14.2290   36.2880   69.5210 H   0  0  0  0  0  0  0  0  0  0  0  0
   12.9230   36.4070   68.3190 H   0  0  0  0  0  0  0  0  0  0  0  0
   19.6120   34.3880   72.5220 H   0  0  0  0  0  0  0  0  0  0  0  0
   19.8520   32.9090   73.4540 H   0  0  0  0  0  0  0  0  0  0  0  0
   19.6190   32.8860   71.6060 H   0  0  0  0  0  0  0  0  0  0  0  0
  2  1  1  0  0  0  0
  2  7  1  0  0  0  0
  3  2  2  0  0  0  0
  4  3  1  0  0  0  0
  4  5  2  0  0  0  0
  5  6  1  0  0  0  0
  6  7  2  0  0  0  0
  6 27  1  0  0  0  0
  7 28  1  0  0  0  0
  8 29  1  0  0  0  0
  8  5  1  0  0  0  0
  9  8  1  0  0  0  0
 10  9  2  0  0  0  0
 11  9  1  6  0  0  0
 11  4  1  0  0  0  0
 11 12  1  0  0  0  0
 12 30  1  0  0  0  0
 13 31  1  1  0  0  0
 13 12  1  0  0  0  0
 14 32  1  6  0  0  0
 14 19  1  0  0  0  0
 14 13  1  0  0  0  0
 15 33  1  6  0  0  0
 15 14  1  0  0  0  0
 15 11  1  0  0  0  0
 16 18  1  0  0  0  0
 16 15  1  0  0  0  0
 17 16  2  0  0  0  0
 18 19  1  0  0  0  0
 19 20  2  0  0  0  0
 21 18  1  0  0  0  0
 21 35  1  0  0  0  0
 22 23  1  0  0  0  0
 22 21  1  0  0  0  0
 23 38  1  0  0  0  0
 24 41  1  0  0  0  0
 24 23  1  0  0  0  0
 24 40  1  0  0  0  0
 25 13  1  0  0  0  0
 25 44  1  0  0  0  0
 26  3  1  0  0  0  0
 34 21  1  0  0  0  0
 36 22  1  0  0  0  0
 37 22  1  0  0  0  0
 39 23  1  0  0  0  0
 42 24  1  0  0  0  0
 43 25  1  0  0  0  0
 45 25  1  0  0  0  0
M  END
>  <Pose>
1

>  <Score>
-6.08

$$$$
