
 OpenBabel03212208413D

 47 50  0  0  1  0  0  0  0  0999 V2000
   21.2450   37.4680   71.1720 B   0  0  0  0  0  0  0  0  0  0  0  0
   20.6090   35.7070   70.8060 C   0  0  0  0  0  0  0  0  0  0  0  0
   19.3180   35.3090   71.0700 C   0  0  0  0  0  0  0  0  0  0  0  0
   18.8590   34.0200   70.8000 C   0  0  0  0  0  0  0  0  0  0  0  0
   19.7200   33.1040   70.2510 C   0  0  0  0  0  0  0  0  0  0  0  0
   21.0260   33.4750   69.9740 C   0  0  0  0  0  0  0  0  0  0  0  0
   21.4610   34.7760   70.2550 C   0  0  0  0  0  0  0  0  0  0  0  0
   19.0500   31.8560   70.0510 N   0  0  0  0  0  0  0  0  0  0  0  0
   17.7110   31.9970   70.4950 C   0  0  0  0  0  0  0  0  0  0  0  0
   16.8710   31.0780   70.4380 O   0  0  0  0  0  0  0  0  0  0  0  0
   17.5390   33.3520   70.9940 C   0  0  2  0  0  0  0  0  0  0  0  0
   16.5140   33.9910   70.1700 N   0  0  0  0  0  0  0  0  0  0  0  0
   15.7440   34.8000   71.0670 C   0  0  2  0  0  0  0  0  0  0  0  0
   15.6910   33.9970   72.3150 C   0  0  2  0  0  0  0  0  0  0  0  0
   17.1000   33.4620   72.4230 C   0  0  1  0  0  0  0  0  0  0  0  0
   16.9630   32.2050   73.1460 C   0  0  0  0  0  0  0  0  0  0  0  0
   17.8840   31.5850   73.7200 O   0  0  0  0  0  0  0  0  0  0  0  0
   15.5980   31.8110   73.0780 N   0  0  0  0  0  0  0  0  0  0  0  0
   14.8940   32.7480   72.2290 C   0  0  0  0  0  0  0  0  0  0  0  0
   13.8560   32.4480   71.6160 O   0  0  0  0  0  0  0  0  0  0  0  0
   15.0500   30.6720   73.7560 C   0  0  0  0  0  0  0  0  0  0  0  0
   14.2790   29.7260   72.8970 C   0  0  0  0  0  0  0  0  0  0  0  0
   12.9250   29.6980   73.1890 O   0  0  0  0  0  0  0  0  0  0  0  0
   12.6400   30.3750   74.3730 C   0  0  0  0  0  0  0  0  0  0  0  0
   14.4240   35.2190   70.5180 C   0  0  0  0  0  0  0  0  0  0  0  0
   14.5580   36.5060   69.8270 C   0  0  0  0  0  0  0  0  0  0  0  0
   15.6170   37.1820   69.9630 O   0  0  0  0  0  0  0  0  0  0  0  0
   13.5080   37.0070   69.0010 N   0  0  0  0  0  0  0  0  0  0  0  0
   18.6640   36.0570   71.5050 H   0  0  0  0  0  0  0  0  0  0  0  0
   21.6940   32.7440   69.5410 H   0  0  0  0  0  0  0  0  0  0  0  0
   22.4850   35.0460   70.0320 H   0  0  0  0  0  0  0  0  0  0  0  0
   19.5040   30.9930   69.6400 H   0  0  0  0  0  0  0  0  0  0  0  0
   15.8750   33.2680   69.7600 H   0  0  0  0  0  0  0  0  0  0  0  0
   16.2930   35.7470   71.3240 H   0  0  0  0  0  0  0  0  0  0  0  0
   15.4090   34.5970   73.2100 H   0  0  0  0  0  0  0  0  0  0  0  0
   17.6780   34.2350   72.9810 H   0  0  0  0  0  0  0  0  0  0  0  0
   14.3460   31.0300   74.5410 H   0  0  0  0  0  0  0  0  0  0  0  0
   15.8700   30.0690   74.2290 H   0  0  0  0  0  0  0  0  0  0  0  0
   14.6940   28.6920   72.9070 H   0  0  0  0  0  0  0  0  0  0  0  0
   14.3750   30.0760   71.8490 H   0  0  0  0  0  0  0  0  0  0  0  0
   11.5260   30.2910   74.5140 H   0  0  0  0  0  0  0  0  0  0  0  0
   13.0900   29.9150   75.2580 H   0  0  0  0  0  0  0  0  0  0  0  0
   12.8340   31.4670   74.2850 H   0  0  0  0  0  0  0  0  0  0  0  0
   13.9190   34.4750   69.8860 H   0  0  0  0  0  0  0  0  0  0  0  0
   13.7410   35.3880   71.3910 H   0  0  0  0  0  0  0  0  0  0  0  0
   13.0600   36.3920   68.2910 H   0  0  0  0  0  0  0  0  0  0  0  0
   13.1930   37.9920   69.1140 H   0  0  0  0  0  0  0  0  0  0  0  0
  2  3  1  0  0  0  0
  2  1  1  0  0  0  0
  3 29  1  0  0  0  0
  4 11  1  0  0  0  0
  4  3  2  0  0  0  0
  5  4  1  0  0  0  0
  6  5  2  0  0  0  0
  6  7  1  0  0  0  0
  7  2  2  0  0  0  0
  8  5  1  0  0  0  0
  8  9  1  0  0  0  0
 10  9  2  0  0  0  0
 11  9  1  6  0  0  0
 11 15  1  0  0  0  0
 12 11  1  0  0  0  0
 12 13  1  0  0  0  0
 13 34  1  1  0  0  0
 13 14  1  0  0  0  0
 14 15  1  0  0  0  0
 14 35  1  1  0  0  0
 15 36  1  1  0  0  0
 15 16  1  0  0  0  0
 16 17  2  0  0  0  0
 18 16  1  0  0  0  0
 18 21  1  0  0  0  0
 19 14  1  0  0  0  0
 19 18  1  0  0  0  0
 20 19  2  0  0  0  0
 21 38  1  0  0  0  0
 21 37  1  0  0  0  0
 22 39  1  0  0  0  0
 22 23  1  0  0  0  0
 22 21  1  0  0  0  0
 23 24  1  0  0  0  0
 24 41  1  0  0  0  0
 24 42  1  0  0  0  0
 25 13  1  0  0  0  0
 25 45  1  0  0  0  0
 26 27  2  0  0  0  0
 26 25  1  0  0  0  0
 28 47  1  0  0  0  0
 28 26  1  0  0  0  0
 30  6  1  0  0  0  0
 31  7  1  0  0  0  0
 32  8  1  0  0  0  0
 33 12  1  0  0  0  0
 40 22  1  0  0  0  0
 43 24  1  0  0  0  0
 44 25  1  0  0  0  0
 46 28  1  0  0  0  0
M  END
>  <Pose>
1

>  <Score>
-6.24

$$$$
