
 OpenBabel03212208413D

 39 42  0  0  1  0  0  0  0  0999 V2000
   19.4980   36.7360   70.0990 B   0  0  0  0  0  0  0  0  0  0  0  0
   17.9840   35.6720   70.5560 C   0  0  0  0  0  0  0  0  0  0  0  0
   18.0910   34.8120   71.6100 C   0  0  0  0  0  0  0  0  0  0  0  0
   17.0070   34.0270   71.9640 C   0  0  0  0  0  0  0  0  0  0  0  0
   15.8170   34.1130   71.2520 C   0  0  0  0  0  0  0  0  0  0  0  0
   15.6930   34.9790   70.1850 C   0  0  0  0  0  0  0  0  0  0  0  0
   16.7970   35.7390   69.8690 C   0  0  0  0  0  0  0  0  0  0  0  0
   14.6480   33.3650   71.5210 N   0  0  0  0  0  0  0  0  0  0  0  0
   13.4460   33.7940   71.1190 N   0  0  0  0  0  0  0  0  0  0  0  0
   12.5910   32.8920   71.5170 N   0  0  0  0  0  0  0  0  0  0  0  0
   13.2150   31.9130   72.1540 N   0  0  0  0  0  0  0  0  0  0  0  0
   14.5460   32.2120   72.1600 C   0  0  0  0  0  0  0  0  0  0  0  0
   15.5560   31.3050   72.8060 C   0  0  2  0  0  0  0  0  0  0  0  0
   16.5420   32.0800   73.5560 N   0  0  0  0  0  0  0  0  0  0  0  0
   17.3320   33.1780   73.1160 C   0  0  0  0  0  0  0  0  0  0  0  0
   18.3870   33.4450   73.7570 O   0  0  0  0  0  0  0  0  0  0  0  0
   16.3080   30.6500   71.6800 C   0  0  0  0  0  0  0  0  0  0  0  0
   16.9640   29.4010   72.1700 C   0  0  0  0  0  0  0  0  0  0  0  0
   15.9690   28.5450   72.5610 O   0  0  0  0  0  0  0  0  0  0  0  0
   15.2390   28.9450   73.6480 C   0  0  0  0  0  0  0  0  0  0  0  0
   14.8600   30.3610   73.7160 C   0  0  0  0  0  0  0  0  0  0  0  0
   17.6980   28.7240   71.0050 C   0  0  0  0  0  0  0  0  0  0  0  0
   18.0000   29.6450   73.2340 C   0  0  0  0  0  0  0  0  0  0  0  0
   18.9910   34.6990   72.2030 H   0  0  0  0  0  0  0  0  0  0  0  0
   14.7510   35.0180   69.6550 H   0  0  0  0  0  0  0  0  0  0  0  0
   16.7140   36.4180   69.0380 H   0  0  0  0  0  0  0  0  0  0  0  0
   16.7050   31.8010   74.5710 H   0  0  0  0  0  0  0  0  0  0  0  0
   17.0940   31.3590   71.3330 H   0  0  0  0  0  0  0  0  0  0  0  0
   15.6300   30.3690   70.8470 H   0  0  0  0  0  0  0  0  0  0  0  0
   15.8260   28.6270   74.5620 H   0  0  0  0  0  0  0  0  0  0  0  0
   14.3280   28.2730   73.6840 H   0  0  0  0  0  0  0  0  0  0  0  0
   13.7400   30.4450   73.5800 H   0  0  0  0  0  0  0  0  0  0  0  0
   15.0080   30.7160   74.7790 H   0  0  0  0  0  0  0  0  0  0  0  0
   17.1610   28.8610   70.0530 H   0  0  0  0  0  0  0  0  0  0  0  0
   17.9700   27.6950   71.2420 H   0  0  0  0  0  0  0  0  0  0  0  0
   18.6640   29.2980   70.9040 H   0  0  0  0  0  0  0  0  0  0  0  0
   18.7520   28.8030   73.1810 H   0  0  0  0  0  0  0  0  0  0  0  0
   17.5950   29.5950   74.2640 H   0  0  0  0  0  0  0  0  0  0  0  0
   18.5770   30.5600   73.0440 H   0  0  0  0  0  0  0  0  0  0  0  0
  1  2  1  0  0  0  0
  2  3  1  0  0  0  0
  3  4  2  0  0  0  0
  3 24  1  0  0  0  0
  4 15  1  0  0  0  0
  5  8  1  0  0  0  0
  5  4  1  0  0  0  0
  6  5  2  0  0  0  0
  7  6  1  0  0  0  0
  7  2  2  0  0  0  0
  8 12  1  0  0  0  0
  9 10  2  0  0  0  0
  9  8  1  0  0  0  0
 10 11  1  0  0  0  0
 11 12  2  0  0  0  0
 13 12  1  6  0  0  0
 13 14  1  0  0  0  0
 13 21  1  0  0  0  0
 14 27  1  0  0  0  0
 15 14  1  0  0  0  0
 15 16  2  0  0  0  0
 17 18  1  0  0  0  0
 17 13  1  0  0  0  0
 18 19  1  0  0  0  0
 18 23  1  0  0  0  0
 19 20  1  0  0  0  0
 20 31  1  0  0  0  0
 20 21  1  0  0  0  0
 20 30  1  0  0  0  0
 21 33  1  0  0  0  0
 22 35  1  0  0  0  0
 22 18  1  0  0  0  0
 23 38  1  0  0  0  0
 25  6  1  0  0  0  0
 26  7  1  0  0  0  0
 28 17  1  0  0  0  0
 29 17  1  0  0  0  0
 32 21  1  0  0  0  0
 34 22  1  0  0  0  0
 36 22  1  0  0  0  0
 37 23  1  0  0  0  0
 39 23  1  0  0  0  0
M  END
>  <Pose>
1

>  <Score>
-5.53

$$$$
