
 OpenBabel03212208413D

 51 54  0  0  0  0  0  0  0  0999 V2000
   15.8900   37.5650   70.0080 B   0  0  0  0  0  0  0  0  0  0  0  0
   15.0100   35.9300   70.4460 C   0  0  0  0  0  0  0  0  0  0  0  0
   15.7390   34.8220   70.8690 C   0  0  0  0  0  0  0  0  0  0  0  0
   15.0990   33.6320   71.1890 C   0  0  0  0  0  0  0  0  0  0  0  0
   13.7280   33.5390   71.0880 C   0  0  0  0  0  0  0  0  0  0  0  0
   13.1010   32.3770   71.4040 N   0  0  0  0  0  0  0  0  0  0  0  0
   13.7820   31.2950   71.8200 C   0  0  0  0  0  0  0  0  0  0  0  0
   15.1130   31.4040   71.9110 N   0  0  0  0  0  0  0  0  0  0  0  0
   15.8000   32.5220   71.6140 C   0  0  0  0  0  0  0  0  0  0  0  0
   17.2470   32.5370   71.7490 C   0  0  0  0  0  0  0  0  0  0  0  0
   18.0510   32.0020   70.7520 C   0  0  0  0  0  0  0  0  0  0  0  0
   19.4270   32.0100   70.8380 C   0  0  0  0  0  0  0  0  0  0  0  0
   20.0670   32.5580   71.9300 C   0  0  0  0  0  0  0  0  0  0  0  0
   19.2620   33.0930   72.9270 C   0  0  0  0  0  0  0  0  0  0  0  0
   17.8880   33.0800   72.8330 C   0  0  0  0  0  0  0  0  0  0  0  0
   17.2590   31.2940   69.3420 Cl  0  0  0  0  0  0  0  0  0  0  0  0
   13.0850   30.0860   72.1470 N   0  0  0  0  0  4  0  0  0  0  0  0
   12.9610   29.9600   73.5740 C   0  0  0  0  0  0  0  0  0  0  0  0
   14.2180   29.5580   74.2680 C   0  0  0  0  0  0  0  0  0  0  0  0
   15.2270   29.0730   73.3530 N   0  0  0  0  0  0  0  0  0  0  0  0
   14.7640   28.2810   72.2350 C   0  0  0  0  0  0  0  0  0  0  0  0
   13.6280   28.9280   71.5060 C   0  0  0  0  0  0  0  0  0  0  0  0
   16.5820   29.3970   73.6010 C   0  0  0  0  0  0  0  0  0  0  0  0
   16.8950   30.4740   74.1550 O   0  0  0  0  0  0  0  0  0  0  0  0
   17.5970   28.3920   73.1700 C   0  0  0  0  0  0  0  0  0  0  0  0
   17.3020   27.0350   73.7330 C   0  0  0  0  0  0  0  0  0  0  0  0
   17.4550   25.9520   72.7500 C   0  0  0  0  0  0  0  0  0  0  0  0
   16.8190   25.9500   71.6750 O   0  0  0  0  0  0  0  0  0  0  0  0
   18.3210   24.9120   73.0180 O   0  0  0  0  0  0  0  0  0  0  0  0
   13.0230   34.6570   70.6620 C   0  0  0  0  0  0  0  0  0  0  0  0
   13.6380   35.8480   70.3410 C   0  0  0  0  0  0  0  0  0  0  0  0
   16.7980   34.8920   70.9540 H   0  0  0  0  0  0  0  0  0  0  0  0
   20.0520   31.5920   70.0610 H   0  0  0  0  0  0  0  0  0  0  0  0
   21.1500   32.5690   72.0050 H   0  0  0  0  0  0  0  0  0  0  0  0
   19.7420   33.5260   73.7910 H   0  0  0  0  0  0  0  0  0  0  0  0
   17.3270   33.5170   73.6400 H   0  0  0  0  0  0  0  0  0  0  0  0
   12.0960   30.2480   71.7880 H   0  0  0  0  0  0  0  0  0  0  0  0
   12.5820   30.9190   73.9720 H   0  0  0  0  0  0  0  0  0  0  0  0
   12.1650   29.1930   73.7570 H   0  0  0  0  0  0  0  0  0  0  0  0
   13.9990   28.7010   74.9650 H   0  0  0  0  0  0  0  0  0  0  0  0
   14.5780   30.4070   74.8820 H   0  0  0  0  0  0  0  0  0  0  0  0
   15.5880   28.0190   71.5390 H   0  0  0  0  0  0  0  0  0  0  0  0
   14.3610   27.3340   72.7000 H   0  0  0  0  0  0  0  0  0  0  0  0
   12.7810   28.2010   71.3740 H   0  0  0  0  0  0  0  0  0  0  0  0
   13.9520   29.2280   70.4820 H   0  0  0  0  0  0  0  0  0  0  0  0
   17.5560   28.3180   72.0640 H   0  0  0  0  0  0  0  0  0  0  0  0
   18.6270   28.7140   73.4280 H   0  0  0  0  0  0  0  0  0  0  0  0
   16.2320   27.0350   74.0610 H   0  0  0  0  0  0  0  0  0  0  0  0
   17.9140   26.8520   74.6380 H   0  0  0  0  0  0  0  0  0  0  0  0
   11.9620   34.5880   70.5810 H   0  0  0  0  0  0  0  0  0  0  0  0
   13.1060   36.7300   70.0070 H   0  0  0  0  0  0  0  0  0  0  0  0
  1  2  1  0  0  0  0
  2  3  1  0  0  0  0
  3 32  1  0  0  0  0
  3  4  2  0  0  0  0
  4  9  1  0  0  0  0
  5  4  1  0  0  0  0
  5  6  1  0  0  0  0
  6  7  2  0  0  0  0
  7  8  1  0  0  0  0
  7 17  1  0  0  0  0
  9 10  1  0  0  0  0
  9  8  2  0  0  0  0
 10 15  1  0  0  0  0
 11 12  1  0  0  0  0
 11 10  2  0  0  0  0
 12 13  2  0  0  0  0
 13 34  1  0  0  0  0
 13 14  1  0  0  0  0
 14 35  1  0  0  0  0
 15 14  2  0  0  0  0
 15 36  1  0  0  0  0
 16 11  1  0  0  0  0
 17 18  1  0  0  0  0
 18 39  1  0  0  0  0
 18 38  1  0  0  0  0
 18 19  1  0  0  0  0
 19 41  1  0  0  0  0
 19 40  1  0  0  0  0
 20 23  1  0  0  0  0
 20 19  1  0  0  0  0
 21 43  1  0  0  0  0
 21 20  1  0  0  0  0
 22 17  1  0  0  0  0
 22 21  1  0  0  0  0
 23 24  2  0  0  0  0
 25 47  1  0  0  0  0
 25 23  1  0  0  0  0
 25 26  1  0  0  0  0
 26 48  1  0  0  0  0
 26 49  1  0  0  0  0
 27 29  1  0  0  0  0
 27 26  1  0  0  0  0
 28 27  2  0  0  0  0
 30  5  2  0  0  0  0
 31  2  2  0  0  0  0
 31 30  1  0  0  0  0
 33 12  1  0  0  0  0
 37 17  1  0  0  0  0
 42 21  1  0  0  0  0
 44 22  1  0  0  0  0
 45 22  1  0  0  0  0
 46 25  1  0  0  0  0
 50 30  1  0  0  0  0
 51 31  1  0  0  0  0
M  END
>  <Pose>
1

>  <Score>
-5.48

$$$$
