
 OpenBabel03212208413D

 50 53  0  0  0  0  0  0  0  0999 V2000
   12.1050   27.3620   77.9880 B   0  0  0  0  0  0  0  0  0  0  0  0
   12.2810   28.5140   76.4630 C   0  0  0  0  0  0  0  0  0  0  0  0
   13.5050   28.8350   75.9350 C   0  0  0  0  0  0  0  0  0  0  0  0
   13.6240   29.6750   74.8250 C   0  0  0  0  0  0  0  0  0  0  0  0
   12.5010   30.1950   74.2430 C   0  0  0  0  0  0  0  0  0  0  0  0
   12.8850   30.9770   73.1870 N   0  0  0  0  0  0  0  0  0  0  0  0
   14.2140   30.9900   73.0550 C   0  0  0  0  0  0  0  0  0  0  0  0
   14.6790   30.1570   74.1030 C   0  0  0  0  0  0  0  0  0  0  0  0
   15.0910   31.6620   72.1160 C   0  0  0  0  0  0  0  0  0  0  0  0
   14.9330   31.4320   70.8570 O   0  0  0  0  0  0  0  0  0  0  0  0
   16.1130   32.5540   72.4440 N   0  0  0  0  0  0  0  0  0  0  0  0
   17.2110   32.3030   73.3380 C   0  0  0  0  0  0  0  0  0  0  0  0
   18.1780   33.4920   73.4150 C   0  0  0  0  0  0  0  0  0  0  0  0
   18.4890   33.9230   72.0600 N   0  0  0  0  0  0  0  0  0  0  0  0
   17.4190   34.0270   71.0670 C   0  0  0  0  0  0  0  0  0  0  0  0
   16.1070   33.9160   71.8470 C   0  0  0  0  0  0  0  0  0  0  0  0
   19.8100   34.2420   71.6790 C   0  0  0  0  0  0  0  0  0  0  0  0
   20.7070   33.4160   71.9760 O   0  0  0  0  0  0  0  0  0  0  0  0
   20.0700   35.4860   70.9720 C   0  0  0  0  0  0  0  0  0  0  0  0
   21.4500   35.6990   70.5960 N   0  0  0  0  0  0  0  0  0  0  0  0
   21.6250   37.1010   70.2090 C   0  0  0  0  0  0  0  0  0  0  0  0
   21.5450   37.2630   68.7300 C   0  0  0  0  0  0  0  0  0  0  0  0
   20.6160   36.3800   68.1870 O   0  0  0  0  0  0  0  0  0  0  0  0
   21.0680   35.0600   68.2610 C   0  0  0  0  0  0  0  0  0  0  0  0
   21.8820   34.8320   69.5140 C   0  0  0  0  0  0  0  0  0  0  0  0
   11.2630   29.8760   74.7690 C   0  0  0  0  0  0  0  0  0  0  0  0
   11.1540   29.0420   75.8720 C   0  0  0  0  0  0  0  0  0  0  0  0
   14.4090   28.4370   76.3740 H   0  0  0  0  0  0  0  0  0  0  0  0
   12.1860   31.4620   72.6060 H   0  0  0  0  0  0  0  0  0  0  0  0
   15.7090   29.9400   74.2950 H   0  0  0  0  0  0  0  0  0  0  0  0
   17.7690   31.4210   72.9230 H   0  0  0  0  0  0  0  0  0  0  0  0
   16.8510   32.1600   74.3690 H   0  0  0  0  0  0  0  0  0  0  0  0
   17.7230   34.3360   73.9630 H   0  0  0  0  0  0  0  0  0  0  0  0
   19.0750   33.1560   73.9300 H   0  0  0  0  0  0  0  0  0  0  0  0
   17.4390   35.0170   70.5590 H   0  0  0  0  0  0  0  0  0  0  0  0
   17.4350   33.2180   70.3280 H   0  0  0  0  0  0  0  0  0  0  0  0
   16.0440   34.6730   72.6400 H   0  0  0  0  0  0  0  0  0  0  0  0
   15.2570   34.0230   71.1740 H   0  0  0  0  0  0  0  0  0  0  0  0
   19.8120   36.3290   71.6710 H   0  0  0  0  0  0  0  0  0  0  0  0
   19.4320   35.6350   70.0760 H   0  0  0  0  0  0  0  0  0  0  0  0
   20.8100   37.7050   70.6750 H   0  0  0  0  0  0  0  0  0  0  0  0
   22.5920   37.4490   70.6220 H   0  0  0  0  0  0  0  0  0  0  0  0
   21.1720   38.2920   68.5220 H   0  0  0  0  0  0  0  0  0  0  0  0
   22.5260   37.1130   68.2170 H   0  0  0  0  0  0  0  0  0  0  0  0
   20.2140   34.3910   68.1450 H   0  0  0  0  0  0  0  0  0  0  0  0
   21.7400   34.9000   67.3950 H   0  0  0  0  0  0  0  0  0  0  0  0
   21.8550   33.7880   69.7890 H   0  0  0  0  0  0  0  0  0  0  0  0
   22.9290   35.1220   69.2870 H   0  0  0  0  0  0  0  0  0  0  0  0
   10.3670   30.2940   74.3030 H   0  0  0  0  0  0  0  0  0  0  0  0
   10.1740   28.7860   76.2920 H   0  0  0  0  0  0  0  0  0  0  0  0
  2  1  1  0  0  0  0
  3 28  1  0  0  0  0
  3  2  1  0  0  0  0
  4  3  2  0  0  0  0
  5 26  2  0  0  0  0
  5  4  1  0  0  0  0
  6  5  1  0  0  0  0
  7  6  1  0  0  0  0
  7  8  2  0  0  0  0
  8 30  1  0  0  0  0
  8  4  1  0  0  0  0
  9 11  1  0  0  0  0
  9  7  1  0  0  0  0
 10  9  2  0  0  0  0
 11 12  1  0  0  0  0
 12 13  1  0  0  0  0
 12 32  1  0  0  0  0
 13 34  1  0  0  0  0
 13 33  1  0  0  0  0
 14 13  1  0  0  0  0
 15 16  1  0  0  0  0
 15 14  1  0  0  0  0
 16 11  1  0  0  0  0
 16 37  1  0  0  0  0
 17 18  2  0  0  0  0
 17 14  1  0  0  0  0
 19 39  1  0  0  0  0
 19 17  1  0  0  0  0
 20 19  1  0  0  0  0
 21 20  1  0  0  0  0
 21 42  1  0  0  0  0
 21 41  1  0  0  0  0
 22 21  1  0  0  0  0
 23 24  1  0  0  0  0
 23 22  1  0  0  0  0
 24 25  1  0  0  0  0
 25 47  1  0  0  0  0
 25 20  1  0  0  0  0
 26 27  1  0  0  0  0
 27 50  1  0  0  0  0
 27  2  2  0  0  0  0
 29  6  1  0  0  0  0
 31 12  1  0  0  0  0
 35 15  1  0  0  0  0
 36 15  1  0  0  0  0
 38 16  1  0  0  0  0
 40 19  1  0  0  0  0
 43 22  1  0  0  0  0
 44 22  1  0  0  0  0
 45 24  1  0  0  0  0
 46 24  1  0  0  0  0
 48 25  1  0  0  0  0
 49 26  1  0  0  0  0
M  END
>  <Pose>
1

>  <Score>
-5.81

$$$$
