
 OpenBabel03212208413D

 41 44  0  0  0  0  0  0  0  0999 V2000
   15.6830   37.3460   69.8120 B   0  0  0  0  0  0  0  0  0  0  0  0
   14.7170   35.7690   70.2600 C   0  0  0  0  0  0  0  0  0  0  0  0
   15.2830   34.7740   71.0290 C   0  0  0  0  0  0  0  0  0  0  0  0
   14.5960   33.6240   71.3620 C   0  0  0  0  0  0  0  0  0  0  0  0
   13.3010   33.4840   70.9010 C   0  0  0  0  0  0  0  0  0  0  0  0
   12.8800   32.2940   71.3660 N   0  0  0  0  0  0  0  0  0  0  0  0
   13.8490   31.6850   72.0950 C   0  0  0  0  0  0  0  0  0  0  0  0
   14.9490   32.5170   72.1040 C   0  0  0  0  0  0  0  0  0  0  0  0
   16.0490   32.1190   72.7730 N   0  0  0  0  0  0  0  0  0  0  0  0
   16.1010   30.9430   73.4260 C   0  0  0  0  0  0  0  0  0  0  0  0
   15.0480   30.1150   73.4350 N   0  0  0  0  0  0  0  0  0  0  0  0
   13.9430   30.4920   72.7750 C   0  0  0  0  0  0  0  0  0  0  0  0
   12.9450   29.7280   72.7720 O   0  0  0  0  0  0  0  0  0  0  0  0
   15.0990   28.8260   74.1470 C   0  0  0  0  0  0  0  0  0  0  0  0
   15.9220   27.8530   73.3950 C   0  0  0  0  0  0  0  0  0  0  0  0
   17.2130   27.5740   73.9090 N   0  0  0  0  0  0  0  0  0  0  0  0
   17.2470   26.7350   75.0560 C   0  0  0  0  0  0  0  0  0  0  0  0
   17.3330   27.4920   76.3510 C   0  0  0  0  0  0  0  0  0  0  0  0
   18.1650   28.6720   76.2510 N   0  0  0  0  0  0  0  0  0  0  0  0
   19.0190   28.6160   75.0760 C   0  0  0  0  0  0  0  0  0  0  0  0
   18.1030   28.6800   73.8790 C   0  0  0  0  0  0  0  0  0  0  0  0
   12.7460   34.4890   70.1310 C   0  0  0  0  0  0  0  0  0  0  0  0
   13.4250   35.6410   69.7920 C   0  0  0  0  0  0  0  0  0  0  0  0
   16.2980   34.8730   71.3950 H   0  0  0  0  0  0  0  0  0  0  0  0
   11.9460   31.8740   71.2040 H   0  0  0  0  0  0  0  0  0  0  0  0
   16.9980   30.6380   73.9630 H   0  0  0  0  0  0  0  0  0  0  0  0
   14.0360   28.4990   74.2090 H   0  0  0  0  0  0  0  0  0  0  0  0
   15.4260   29.0550   75.1560 H   0  0  0  0  0  0  0  0  0  0  0  0
   15.3660   26.9010   73.2760 H   0  0  0  0  0  0  0  0  0  0  0  0
   16.0580   28.2510   72.3480 H   0  0  0  0  0  0  0  0  0  0  0  0
   16.3790   26.0480   75.0810 H   0  0  0  0  0  0  0  0  0  0  0  0
   18.1590   26.1030   74.9960 H   0  0  0  0  0  0  0  0  0  0  0  0
   17.7200   26.8710   77.1830 H   0  0  0  0  0  0  0  0  0  0  0  0
   16.3200   27.8310   76.6430 H   0  0  0  0  0  0  0  0  0  0  0  0
   17.6050   29.5550   76.2630 H   0  0  0  0  0  0  0  0  0  0  0  0
   19.5410   27.6490   75.0830 H   0  0  0  0  0  0  0  0  0  0  0  0
   19.6930   29.4930   75.1460 H   0  0  0  0  0  0  0  0  0  0  0  0
   18.7280   28.5690   72.9490 H   0  0  0  0  0  0  0  0  0  0  0  0
   17.6000   29.6680   73.8460 H   0  0  0  0  0  0  0  0  0  0  0  0
   11.7250   34.3770   69.7680 H   0  0  0  0  0  0  0  0  0  0  0  0
   12.9830   36.4350   69.1840 H   0  0  0  0  0  0  0  0  0  0  0  0
  1  2  1  0  0  0  0
  2  3  1  0  0  0  0
  3  4  2  0  0  0  0
  3 24  1  0  0  0  0
  4  8  1  0  0  0  0
  5  4  1  0  0  0  0
  5  6  1  0  0  0  0
  6  7  1  0  0  0  0
  7  8  2  0  0  0  0
  7 12  1  0  0  0  0
  8  9  1  0  0  0  0
  9 10  2  0  0  0  0
 10 11  1  0  0  0  0
 10 26  1  0  0  0  0
 11 14  1  0  0  0  0
 12 11  1  0  0  0  0
 13 12  2  0  0  0  0
 14 27  1  0  0  0  0
 14 28  1  0  0  0  0
 15 16  1  0  0  0  0
 15 14  1  0  0  0  0
 16 17  1  0  0  0  0
 17 31  1  0  0  0  0
 17 18  1  0  0  0  0
 18 34  1  0  0  0  0
 18 33  1  0  0  0  0
 19 35  1  0  0  0  0
 19 18  1  0  0  0  0
 20 36  1  0  0  0  0
 20 37  1  0  0  0  0
 20 19  1  0  0  0  0
 21 16  1  0  0  0  0
 21 20  1  0  0  0  0
 22  5  2  0  0  0  0
 23 22  1  0  0  0  0
 23  2  2  0  0  0  0
 25  6  1  0  0  0  0
 29 15  1  0  0  0  0
 30 15  1  0  0  0  0
 32 17  1  0  0  0  0
 38 21  1  0  0  0  0
 39 21  1  0  0  0  0
 40 22  1  0  0  0  0
 41 23  1  0  0  0  0
M  END
>  <Pose>
1

>  <Score>
-6.67

$$$$
