
 OpenBabel03212208413D

 37 40  0  0  0  0  0  0  0  0999 V2000
   12.4630   35.2690   69.5770 B   0  0  0  0  0  0  0  0  0  0  0  0
   13.7160   34.2240   70.5600 C   0  0  0  0  0  0  0  0  0  0  0  0
   13.2760   33.0830   71.1980 C   0  0  0  0  0  0  0  0  0  0  0  0
   14.1730   32.2930   71.9300 C   0  0  0  0  0  0  0  0  0  0  0  0
   15.4720   32.6840   71.9870 C   0  0  0  0  0  0  0  0  0  0  0  0
   15.9570   33.8140   71.3670 C   0  0  0  0  0  0  0  0  0  0  0  0
   15.0610   34.5710   70.6570 C   0  0  0  0  0  0  0  0  0  0  0  0
   17.2910   34.0900   71.5080 C   0  0  0  0  0  0  0  0  0  0  0  0
   17.7410   35.1050   70.9530 O   0  0  0  0  0  0  0  0  0  0  0  0
   18.1490   33.2840   72.2400 C   0  0  0  0  0  0  0  0  0  0  0  0
   17.6000   32.1680   72.8360 C   0  0  0  0  0  0  0  0  0  0  0  0
   16.2650   31.8840   72.7010 N   0  0  0  0  0  0  0  0  0  0  0  0
   15.4460   30.8050   73.2070 C   0  0  0  0  0  0  0  0  0  0  0  0
   14.0470   31.0510   72.7110 C   0  0  0  0  0  0  0  0  0  0  0  0
   19.5680   33.5910   72.3800 C   0  0  0  0  0  0  0  0  0  0  0  0
   19.9480   34.3020   73.3390 O   0  0  0  0  0  0  0  0  0  0  0  0
   20.5240   33.0910   71.4350 N   0  0  0  0  0  0  0  0  0  0  0  0
   21.7630   32.4710   71.8550 C   0  0  0  0  0  0  0  0  0  0  0  0
   22.8830   33.2270   71.1290 C   0  0  0  0  0  0  0  0  0  0  0  0
   22.6220   33.2390   69.7800 O   0  0  0  0  0  0  0  0  0  0  0  0
   21.4880   33.9410   69.4300 C   0  0  0  0  0  0  0  0  0  0  0  0
   20.2870   33.1890   70.0090 C   0  0  0  0  0  0  0  0  0  0  0  0
   12.2470   32.7560   71.1650 H   0  0  0  0  0  0  0  0  0  0  0  0
   15.4160   35.4530   70.1660 H   0  0  0  0  0  0  0  0  0  0  0  0
   18.1860   31.4830   73.4250 H   0  0  0  0  0  0  0  0  0  0  0  0
   15.4490   30.8300   74.3350 H   0  0  0  0  0  0  0  0  0  0  0  0
   15.8280   29.8110   72.8920 H   0  0  0  0  0  0  0  0  0  0  0  0
   13.6890   30.1940   72.0940 H   0  0  0  0  0  0  0  0  0  0  0  0
   13.3330   31.2320   73.5650 H   0  0  0  0  0  0  0  0  0  0  0  0
   21.8000   31.4320   71.4170 H   0  0  0  0  0  0  0  0  0  0  0  0
   21.9130   32.4790   72.9400 H   0  0  0  0  0  0  0  0  0  0  0  0
   23.8560   32.7580   71.3070 H   0  0  0  0  0  0  0  0  0  0  0  0
   22.9320   34.2580   71.4980 H   0  0  0  0  0  0  0  0  0  0  0  0
   21.3860   33.8870   68.3270 H   0  0  0  0  0  0  0  0  0  0  0  0
   21.4850   34.9940   69.8070 H   0  0  0  0  0  0  0  0  0  0  0  0
   20.3960   32.1380   69.6090 H   0  0  0  0  0  0  0  0  0  0  0  0
   19.3380   33.6520   69.7460 H   0  0  0  0  0  0  0  0  0  0  0  0
  1  2  1  0  0  0  0
  2  7  2  0  0  0  0
  2  3  1  0  0  0  0
  3  4  2  0  0  0  0
  4  5  1  0  0  0  0
  4 14  1  0  0  0  0
  5 12  1  0  0  0  0
  6  8  1  0  0  0  0
  6  5  2  0  0  0  0
  7  6  1  0  0  0  0
  8 10  1  0  0  0  0
  9  8  2  0  0  0  0
 10 15  1  0  0  0  0
 10 11  2  0  0  0  0
 11 25  1  0  0  0  0
 12 11  1  0  0  0  0
 12 13  1  0  0  0  0
 13 26  1  0  0  0  0
 14 13  1  0  0  0  0
 14 29  1  0  0  0  0
 15 16  2  0  0  0  0
 17 18  1  0  0  0  0
 17 15  1  0  0  0  0
 18 31  1  0  0  0  0
 19 32  1  0  0  0  0
 19 33  1  0  0  0  0
 19 18  1  0  0  0  0
 20 19  1  0  0  0  0
 21 20  1  0  0  0  0
 21 35  1  0  0  0  0
 21 22  1  0  0  0  0
 22 17  1  0  0  0  0
 23  3  1  0  0  0  0
 24  7  1  0  0  0  0
 27 13  1  0  0  0  0
 28 14  1  0  0  0  0
 30 18  1  0  0  0  0
 34 21  1  0  0  0  0
 36 22  1  0  0  0  0
 37 22  1  0  0  0  0
M  END
>  <Pose>
1

>  <Score>
-5.25

$$$$
