
 OpenBabel03212208413D

 51 54  0  0  0  0  0  0  0  0999 V2000
   10.6420   34.1220   70.3290 B   0  0  0  0  0  0  0  0  0  0  0  0
   12.5210   34.4800   70.4680 C   0  0  0  0  0  0  0  0  0  0  0  0
   13.0150   35.6520   69.9430 C   0  0  0  0  0  0  0  0  0  0  0  0
   14.3560   35.9390   70.0150 C   0  0  0  0  0  0  0  0  0  0  0  0
   15.1510   36.9520   69.6240 N   0  0  0  0  0  0  0  0  0  0  0  0
   16.4300   36.7040   69.9630 C   0  0  0  0  0  0  0  0  0  0  0  0
   16.4060   35.5080   70.5770 N   0  0  0  0  0  0  0  0  0  0  0  0
   15.1520   35.0120   70.6250 C   0  0  0  0  0  0  0  0  0  0  0  0
   14.6540   33.8160   71.1620 C   0  0  0  0  0  0  0  0  0  0  0  0
   13.3110   33.5260   71.0910 C   0  0  0  0  0  0  0  0  0  0  0  0
   12.7000   32.3620   71.6070 N   0  0  0  0  0  0  0  0  0  0  0  0
   13.2720   31.0920   71.7540 C   0  0  0  0  0  0  0  0  0  0  0  0
   13.6190   30.4320   70.7410 O   0  0  0  0  0  0  0  0  0  0  0  0
   13.5090   30.4460   73.0500 C   0  0  0  0  0  0  0  0  0  0  0  0
   14.7610   29.8410   73.2730 N   0  0  0  0  0  0  0  0  0  0  0  0
   15.9000   30.6770   73.3980 C   0  0  0  0  0  0  0  0  0  0  0  0
   17.2050   29.9150   73.1680 C   0  0  0  0  0  0  0  0  0  0  0  0
   17.2210   28.8140   74.0340 N   0  0  0  0  0  0  0  0  0  0  0  0
   16.0670   28.5290   74.7930 C   0  0  0  0  0  0  0  0  0  0  0  0
   14.7500   28.6780   74.0940 C   0  0  0  0  0  0  0  0  0  0  0  0
   18.1490   27.8130   73.7580 C   0  0  0  0  0  0  0  0  0  0  0  0
   17.8210   26.8090   72.7460 C   0  0  0  0  0  0  0  0  0  0  0  0
   16.5950   26.8220   72.3380 O   0  0  0  0  0  0  0  0  0  0  0  0
   18.6590   25.8570   72.1760 N   0  0  0  0  0  0  0  0  0  0  0  0
   19.5330   24.9880   72.9580 C   0  0  0  0  0  0  0  0  0  0  0  0
   20.0650   23.7400   72.3880 C   0  0  0  0  0  0  0  0  0  0  0  0
   20.9940   24.9270   72.5660 C   0  0  0  0  0  0  0  0  0  0  0  0
   17.5430   37.5330   69.7200 O   0  0  0  0  0  0  0  0  0  0  0  0
   12.3730   36.3770   69.4630 H   0  0  0  0  0  0  0  0  0  0  0  0
   17.2510   35.0110   70.9730 H   0  0  0  0  0  0  0  0  0  0  0  0
   15.3350   33.1390   71.6220 H   0  0  0  0  0  0  0  0  0  0  0  0
   11.6920   32.4380   71.9430 H   0  0  0  0  0  0  0  0  0  0  0  0
   13.3860   31.2680   73.8210 H   0  0  0  0  0  0  0  0  0  0  0  0
   12.7160   29.7000   73.3070 H   0  0  0  0  0  0  0  0  0  0  0  0
   15.9570   30.9580   74.5010 H   0  0  0  0  0  0  0  0  0  0  0  0
   15.8290   31.6130   72.8620 H   0  0  0  0  0  0  0  0  0  0  0  0
   18.0150   30.6280   73.4790 H   0  0  0  0  0  0  0  0  0  0  0  0
   17.2720   29.6370   72.1260 H   0  0  0  0  0  0  0  0  0  0  0  0
   16.1530   27.5510   75.3230 H   0  0  0  0  0  0  0  0  0  0  0  0
   16.0420   29.2830   75.6410 H   0  0  0  0  0  0  0  0  0  0  0  0
   14.4480   27.7540   73.5510 H   0  0  0  0  0  0  0  0  0  0  0  0
   13.9720   28.8280   74.8860 H   0  0  0  0  0  0  0  0  0  0  0  0
   19.1280   28.3370   73.4660 H   0  0  0  0  0  0  0  0  0  0  0  0
   18.4900   27.3020   74.7310 H   0  0  0  0  0  0  0  0  0  0  0  0
   18.6820   25.7260   71.1440 H   0  0  0  0  0  0  0  0  0  0  0  0
   19.3800   25.0100   74.0550 H   0  0  0  0  0  0  0  0  0  0  0  0
   20.2950   22.8750   73.0590 H   0  0  0  0  0  0  0  0  0  0  0  0
   19.9070   23.4300   71.3560 H   0  0  0  0  0  0  0  0  0  0  0  0
   21.3450   25.4520   71.6530 H   0  0  0  0  0  0  0  0  0  0  0  0
   21.7690   24.8860   73.3700 H   0  0  0  0  0  0  0  0  0  0  0  0
   17.3980   38.2600   69.0070 H   0  0  0  0  0  0  0  0  0  0  0  0
  1  2  1  0  0  0  0
  2 10  1  0  0  0  0
  3  4  1  0  0  0  0
  3  2  2  0  0  0  0
  4  8  2  0  0  0  0
  5  6  2  0  0  0  0
  5  4  1  0  0  0  0
  6  7  1  0  0  0  0
  7  8  1  0  0  0  0
  7 30  1  0  0  0  0
  8  9  1  0  0  0  0
  9 31  1  0  0  0  0
 10  9  2  0  0  0  0
 10 11  1  0  0  0  0
 11 12  1  0  0  0  0
 11 32  1  0  0  0  0
 12 14  1  0  0  0  0
 13 12  2  0  0  0  0
 14 15  1  0  0  0  0
 14 34  1  0  0  0  0
 14 33  1  0  0  0  0
 15 16  1  0  0  0  0
 15 20  1  0  0  0  0
 16 35  1  0  0  0  0
 17 16  1  0  0  0  0
 17 37  1  0  0  0  0
 17 18  1  0  0  0  0
 18 19  1  0  0  0  0
 19 39  1  0  0  0  0
 19 40  1  0  0  0  0
 20 19  1  0  0  0  0
 20 42  1  0  0  0  0
 21 18  1  0  0  0  0
 21 44  1  0  0  0  0
 22 21  1  0  0  0  0
 23 22  2  0  0  0  0
 24 22  1  0  0  0  0
 24 25  1  0  0  0  0
 25 46  1  0  0  0  0
 26 27  1  0  0  0  0
 26 25  1  0  0  0  0
 26 47  1  0  0  0  0
 27 25  1  0  0  0  0
 27 50  1  0  0  0  0
 28  6  1  0  0  0  0
 29  3  1  0  0  0  0
 36 16  1  0  0  0  0
 38 17  1  0  0  0  0
 41 20  1  0  0  0  0
 43 21  1  0  0  0  0
 45 24  1  0  0  0  0
 48 26  1  0  0  0  0
 49 27  1  0  0  0  0
 51 28  1  0  0  0  0
M  END
>  <Pose>
1

>  <Score>
-7.36

$$$$
