
 OpenBabel03212208413D

 43 46  0  0  1  0  0  0  0  0999 V2000
   16.1450   37.5890   69.5760 B   0  0  0  0  0  0  0  0  0  0  0  0
   15.4240   35.9770   70.3160 C   0  0  0  0  0  0  0  0  0  0  0  0
   14.0520   35.7330   70.3010 C   0  0  0  0  0  0  0  0  0  0  0  0
   13.6110   34.5530   70.8530 C   0  0  0  0  0  0  0  0  0  0  0  0
   12.3870   34.0160   71.0020 N   0  0  0  0  0  0  0  0  0  0  0  0
   12.4880   32.8360   71.6080 N   0  0  0  0  0  0  0  0  0  0  0  0
   13.7670   32.5430   71.8830 C   0  0  0  0  0  0  0  0  0  0  0  0
   14.4860   33.6510   71.3940 C   0  0  0  0  0  0  0  0  0  0  0  0
   15.8330   33.8800   71.4140 C   0  0  0  0  0  0  0  0  0  0  0  0
   16.2970   35.0510   70.8700 C   0  0  0  0  0  0  0  0  0  0  0  0
   14.3310   31.4180   72.5130 N   0  0  0  0  0  0  0  0  0  0  0  0
   15.7960   31.2240   72.5850 C   0  0  0  0  0  0  0  0  0  0  0  0
   15.9520   29.7270   72.3700 C   0  0  2  0  0  0  0  0  0  0  0  0
   14.7010   29.1650   73.0120 C   0  0  0  0  0  0  0  0  0  0  0  0
   13.7380   30.2880   73.1480 C   0  0  0  0  0  0  0  0  0  0  0  0
   12.6320   30.2670   73.7040 O   0  0  0  0  0  0  0  0  0  0  0  0
   17.2050   29.3610   73.0500 C   0  0  0  0  0  0  0  0  0  0  0  0
   17.6190   28.1780   73.0560 O   0  0  0  0  0  0  0  0  0  0  0  0
   17.9380   30.3890   73.7010 N   0  0  0  0  0  0  0  0  0  0  0  0
   19.2030   30.8650   73.1840 C   0  0  0  0  0  0  0  0  0  0  0  0
   19.1760   32.3400   72.8450 C   0  0  0  0  0  0  0  0  0  0  0  0
   19.9680   32.6140   71.6300 C   0  0  0  0  0  0  0  0  0  0  0  0
   21.1310   33.2840   71.6300 N   0  0  0  0  0  0  0  0  0  0  0  0
   21.6120   33.3690   70.3890 C   0  0  0  0  0  0  0  0  0  0  0  0
   20.7340   32.7370   69.5640 N   0  0  0  0  0  0  0  0  0  0  0  0
   19.7380   32.2810   70.3300 C   0  0  0  0  0  0  0  0  0  0  0  0
   13.4260   36.4880   69.8590 H   0  0  0  0  0  0  0  0  0  0  0  0
   11.6610   32.2470   71.8250 H   0  0  0  0  0  0  0  0  0  0  0  0
   16.4920   33.1320   71.8530 H   0  0  0  0  0  0  0  0  0  0  0  0
   17.3550   35.2620   70.8680 H   0  0  0  0  0  0  0  0  0  0  0  0
   16.2770   31.7970   71.8000 H   0  0  0  0  0  0  0  0  0  0  0  0
   16.1230   31.5640   73.5740 H   0  0  0  0  0  0  0  0  0  0  0  0
   16.0280   29.4720   71.3080 H   0  0  0  0  0  0  0  0  0  0  0  0
   14.2350   28.4870   72.2340 H   0  0  0  0  0  0  0  0  0  0  0  0
   14.8590   28.5770   73.9090 H   0  0  0  0  0  0  0  0  0  0  0  0
   17.5430   30.7970   74.5710 H   0  0  0  0  0  0  0  0  0  0  0  0
   19.9810   30.7110   73.9440 H   0  0  0  0  0  0  0  0  0  0  0  0
   19.5010   30.2940   72.2780 H   0  0  0  0  0  0  0  0  0  0  0  0
   18.1210   32.6000   72.6310 H   0  0  0  0  0  0  0  0  0  0  0  0
   19.4590   32.9820   73.7120 H   0  0  0  0  0  0  0  0  0  0  0  0
   22.5290   33.8500   70.0970 H   0  0  0  0  0  0  0  0  0  0  0  0
   20.8860   32.6680   68.5320 H   0  0  0  0  0  0  0  0  0  0  0  0
   18.8960   31.7340   69.9460 H   0  0  0  0  0  0  0  0  0  0  0  0
  1  2  1  0  0  0  0
  2 10  1  0  0  0  0
  3  2  2  0  0  0  0
  3  4  1  0  0  0  0
  4  5  2  0  0  0  0
  4  8  1  0  0  0  0
  5  6  1  0  0  0  0
  6 28  1  0  0  0  0
  6  7  1  0  0  0  0
  7 11  1  0  0  0  0
  8  9  1  0  0  0  0
  8  7  2  0  0  0  0
  9 29  1  0  0  0  0
 10  9  2  0  0  0  0
 11 12  1  0  0  0  0
 11 15  1  0  0  0  0
 12 32  1  0  0  0  0
 13 33  1  6  0  0  0
 13 12  1  0  0  0  0
 13 14  1  0  0  0  0
 13 17  1  0  0  0  0
 14 15  1  0  0  0  0
 14 35  1  0  0  0  0
 15 16  2  0  0  0  0
 17 18  2  0  0  0  0
 17 19  1  0  0  0  0
 19 36  1  0  0  0  0
 20 19  1  0  0  0  0
 20 37  1  0  0  0  0
 21 20  1  0  0  0  0
 21 40  1  0  0  0  0
 22 23  1  0  0  0  0
 22 21  1  0  0  0  0
 24 23  2  0  0  0  0
 25 26  1  0  0  0  0
 25 24  1  0  0  0  0
 26 22  2  0  0  0  0
 27  3  1  0  0  0  0
 30 10  1  0  0  0  0
 31 12  1  0  0  0  0
 34 14  1  0  0  0  0
 38 20  1  0  0  0  0
 39 21  1  0  0  0  0
 41 24  1  0  0  0  0
 42 25  1  0  0  0  0
 43 26  1  0  0  0  0
M  END
>  <Pose>
1

>  <Score>
-8.36

$$$$
