
 OpenBabel03212208413D

 58 61  0  0  0  0  0  0  0  0999 V2000
   24.8120   33.4710   68.8720 B   0  0  0  0  0  0  0  0  0  0  0  0
   24.8120   34.6480   67.3510 C   0  0  0  0  0  0  0  0  0  0  0  0
   25.2430   34.3610   66.0840 C   0  0  0  0  0  0  0  0  0  0  0  0
   25.0620   35.4610   65.3470 N   0  0  0  0  0  0  0  0  0  0  0  0
   24.5450   36.3970   66.0980 N   0  0  0  0  0  0  0  0  0  0  0  0
   24.3530   35.9690   67.3800 C   0  0  0  0  0  0  0  0  0  0  0  0
   23.8120   36.6880   68.5060 C   0  0  0  0  0  0  0  0  0  0  0  0
   24.6760   37.1940   69.3080 O   0  0  0  0  0  0  0  0  0  0  0  0
   22.4870   36.8780   68.7980 N   0  0  0  0  0  0  0  0  0  0  0  0
   21.3820   36.3610   68.0520 C   0  0  0  0  0  0  0  0  0  0  0  0
   20.7370   35.2710   68.8430 C   0  0  0  0  0  0  0  0  0  0  0  0
   20.9390   35.4560   70.2730 N   0  0  0  0  0  0  0  0  0  0  0  0
   21.2480   36.7150   70.8650 C   0  0  0  0  0  0  0  0  0  0  0  0
   22.0580   37.6560   69.9780 C   0  0  0  0  0  0  0  0  0  0  0  0
   20.8600   34.2360   71.0260 C   0  0  0  0  0  0  0  0  0  0  0  0
   21.9870   33.6510   71.3110 O   0  0  0  0  0  0  0  0  0  0  0  0
   19.6540   33.6340   71.4780 C   0  0  0  0  0  0  0  0  0  0  0  0
   19.5510   32.2860   71.7950 N   0  0  0  0  0  0  0  0  0  0  0  0
   18.3310   32.0030   72.1150 N   0  0  0  0  0  0  0  0  0  0  0  0
   17.5500   33.0760   72.0440 C   0  0  0  0  0  0  0  0  0  0  0  0
   18.4030   34.1210   71.6340 C   0  0  0  0  0  0  0  0  0  0  0  0
   16.1350   33.2130   72.3360 C   0  0  0  0  0  0  0  0  0  0  0  0
   15.7080   34.4060   72.5370 O   0  0  0  0  0  0  0  0  0  0  0  0
   15.2240   32.1710   72.4150 N   0  0  0  0  0  0  0  0  0  0  0  0
   15.5090   31.0750   73.3460 C   0  0  0  0  0  0  0  0  0  0  0  0
   15.4200   29.8050   72.5260 C   0  0  0  0  0  0  0  0  0  0  0  0
   14.0670   29.6960   72.1550 O   0  0  0  0  0  0  0  0  0  0  0  0
   13.7660   30.6340   71.2080 C   0  0  0  0  0  0  0  0  0  0  0  0
   14.0280   32.0720   71.6380 C   0  0  0  0  0  0  0  0  0  0  0  0
   20.6380   31.3350   71.7770 C   0  0  0  0  0  0  0  0  0  0  0  0
   25.4250   35.5090   63.9360 C   0  0  0  0  0  0  0  0  0  0  0  0
   26.1260   36.7850   63.5540 C   0  0  0  0  0  0  0  0  0  0  0  0
   25.6570   33.4050   65.7620 H   0  0  0  0  0  0  0  0  0  0  0  0
   20.6030   37.1810   67.9680 H   0  0  0  0  0  0  0  0  0  0  0  0
   21.6180   35.9610   67.0530 H   0  0  0  0  0  0  0  0  0  0  0  0
   21.1760   34.2630   68.5930 H   0  0  0  0  0  0  0  0  0  0  0  0
   19.6480   35.2820   68.5950 H   0  0  0  0  0  0  0  0  0  0  0  0
   22.0060   36.4700   71.6830 H   0  0  0  0  0  0  0  0  0  0  0  0
   20.4310   37.2610   71.3270 H   0  0  0  0  0  0  0  0  0  0  0  0
   22.9110   38.1140   70.4630 H   0  0  0  0  0  0  0  0  0  0  0  0
   21.3670   38.4230   69.6030 H   0  0  0  0  0  0  0  0  0  0  0  0
   18.0380   35.1110   71.4620 H   0  0  0  0  0  0  0  0  0  0  0  0
   14.7040   31.1170   74.1110 H   0  0  0  0  0  0  0  0  0  0  0  0
   16.4940   31.1590   73.8090 H   0  0  0  0  0  0  0  0  0  0  0  0
   16.0250   29.9220   71.6160 H   0  0  0  0  0  0  0  0  0  0  0  0
   15.7090   28.9250   73.1440 H   0  0  0  0  0  0  0  0  0  0  0  0
   14.3760   30.4430   70.2980 H   0  0  0  0  0  0  0  0  0  0  0  0
   12.7130   30.5200   70.8980 H   0  0  0  0  0  0  0  0  0  0  0  0
   14.1470   32.6490   70.7020 H   0  0  0  0  0  0  0  0  0  0  0  0
   13.1660   32.4270   72.2170 H   0  0  0  0  0  0  0  0  0  0  0  0
   20.9080   31.0270   70.7660 H   0  0  0  0  0  0  0  0  0  0  0  0
   21.5180   31.7390   72.3310 H   0  0  0  0  0  0  0  0  0  0  0  0
   20.3330   30.4280   72.3330 H   0  0  0  0  0  0  0  0  0  0  0  0
   26.0690   34.6440   63.6590 H   0  0  0  0  0  0  0  0  0  0  0  0
   24.5100   35.4210   63.3030 H   0  0  0  0  0  0  0  0  0  0  0  0
   26.8120   37.1110   64.3670 H   0  0  0  0  0  0  0  0  0  0  0  0
   26.7610   36.5700   62.6680 H   0  0  0  0  0  0  0  0  0  0  0  0
   25.3840   37.5510   63.2670 H   0  0  0  0  0  0  0  0  0  0  0  0
  2  6  1  0  0  0  0
  2  1  1  0  0  0  0
  3  2  2  0  0  0  0
  4  3  1  0  0  0  0
  4  5  1  0  0  0  0
  5  6  2  0  0  0  0
  6  7  1  0  0  0  0
  7  9  1  0  0  0  0
  7  8  2  0  0  0  0
  9 14  1  0  0  0  0
 10  9  1  0  0  0  0
 10 11  1  0  0  0  0
 11 12  1  0  0  0  0
 12 13  1  0  0  0  0
 12 15  1  0  0  0  0
 13 39  1  0  0  0  0
 13 38  1  0  0  0  0
 14 40  1  0  0  0  0
 14 13  1  0  0  0  0
 15 16  2  0  0  0  0
 15 17  1  0  0  0  0
 17 21  2  0  0  0  0
 17 18  1  0  0  0  0
 18 19  1  0  0  0  0
 20 19  2  0  0  0  0
 20 22  1  0  0  0  0
 21 20  1  0  0  0  0
 22 24  1  0  0  0  0
 22 23  2  0  0  0  0
 24 25  1  0  0  0  0
 25 44  1  0  0  0  0
 25 43  1  0  0  0  0
 26 46  1  0  0  0  0
 26 25  1  0  0  0  0
 27 26  1  0  0  0  0
 28 29  1  0  0  0  0
 28 27  1  0  0  0  0
 29 50  1  0  0  0  0
 29 24  1  0  0  0  0
 30 18  1  0  0  0  0
 30 52  1  0  0  0  0
 30 53  1  0  0  0  0
 31  4  1  0  0  0  0
 32 31  1  0  0  0  0
 32 56  1  0  0  0  0
 33  3  1  0  0  0  0
 34 10  1  0  0  0  0
 35 10  1  0  0  0  0
 36 11  1  0  0  0  0
 37 11  1  0  0  0  0
 41 14  1  0  0  0  0
 42 21  1  0  0  0  0
 45 26  1  0  0  0  0
 47 28  1  0  0  0  0
 48 28  1  0  0  0  0
 49 29  1  0  0  0  0
 51 30  1  0  0  0  0
 54 31  1  0  0  0  0
 55 31  1  0  0  0  0
 57 32  1  0  0  0  0
 58 32  1  0  0  0  0
M  END
>  <Pose>
1

>  <Score>
-6.94

$$$$
