
 OpenBabel03212208413D

 42 45  0  0  0  0  0  0  0  0999 V2000
   22.0680   41.0120   65.0630 B   0  0  0  0  0  0  0  0  0  0  0  0
   21.1500   39.6270   66.0350 C   0  0  0  0  0  0  0  0  0  0  0  0
   21.7140   38.6000   66.7600 C   0  0  0  0  0  0  0  0  0  0  0  0
   20.7390   37.8400   67.2910 N   0  0  0  0  0  0  0  0  0  0  0  0
   19.5980   38.3750   66.9090 N   0  0  0  0  0  0  0  0  0  0  0  0
   19.7890   39.4520   66.1510 C   0  0  0  0  0  0  0  0  0  0  0  0
   20.8610   36.6840   68.1060 C   0  0  0  0  0  0  0  0  0  0  0  0
   20.8860   36.7910   69.4750 C   0  0  0  0  0  0  0  0  0  0  0  0
   21.0030   35.6930   70.2850 C   0  0  0  0  0  0  0  0  0  0  0  0
   21.1040   34.3800   69.7800 C   0  0  0  0  0  0  0  0  0  0  0  0
   21.0790   34.2870   68.4090 C   0  0  0  0  0  0  0  0  0  0  0  0
   20.9580   35.4210   67.5890 C   0  0  0  0  0  0  0  0  0  0  0  0
   21.2670   33.2790   70.7020 C   0  0  0  0  0  0  0  0  0  0  0  0
   22.0010   32.3120   70.2530 O   0  0  0  0  0  0  0  0  0  0  0  0
   20.7610   33.1040   71.9790 N   0  0  0  0  0  0  0  0  0  0  0  0
   20.0200   33.9880   72.8390 C   0  0  0  0  0  0  0  0  0  0  0  0
   18.5610   33.5870   72.7400 C   0  0  0  0  0  0  0  0  0  0  0  0
   18.4330   32.0800   72.6400 C   0  0  0  0  0  0  0  0  0  0  0  0
   17.2790   31.6970   73.4230 N   0  0  0  0  0  0  0  0  0  0  0  0
   16.1300   31.8310   72.6000 C   0  0  0  0  0  0  0  0  0  0  0  0
   14.9130   31.9400   72.9620 O   0  0  0  0  0  0  0  0  0  0  0  0
   16.5950   31.8220   71.2410 N   0  0  0  0  0  0  0  0  0  0  0  0
   18.0310   31.6810   71.2790 C   0  0  0  0  0  0  0  0  0  0  0  0
   18.7250   31.2920   70.3150 O   0  0  0  0  0  0  0  0  0  0  0  0
   19.6250   31.3450   73.1620 C   0  0  0  0  0  0  0  0  0  0  0  0
   20.9460   31.7580   72.6060 C   0  0  0  0  0  0  0  0  0  0  0  0
   22.7770   38.4340   66.8810 H   0  0  0  0  0  0  0  0  0  0  0  0
   19.0510   40.1160   65.6800 H   0  0  0  0  0  0  0  0  0  0  0  0
   20.8080   37.8070   69.8750 H   0  0  0  0  0  0  0  0  0  0  0  0
   21.0180   35.8190   71.3520 H   0  0  0  0  0  0  0  0  0  0  0  0
   21.1780   33.3230   67.9420 H   0  0  0  0  0  0  0  0  0  0  0  0
   20.9410   35.3030   66.5120 H   0  0  0  0  0  0  0  0  0  0  0  0
   20.2800   33.6710   73.9280 H   0  0  0  0  0  0  0  0  0  0  0  0
   20.2400   35.0340   72.8100 H   0  0  0  0  0  0  0  0  0  0  0  0
   17.9960   33.9700   73.5890 H   0  0  0  0  0  0  0  0  0  0  0  0
   18.1550   34.0220   71.8130 H   0  0  0  0  0  0  0  0  0  0  0  0
   17.2480   31.3750   74.4100 H   0  0  0  0  0  0  0  0  0  0  0  0
   16.0450   31.8990   70.3570 H   0  0  0  0  0  0  0  0  0  0  0  0
   19.4750   30.2640   72.8660 H   0  0  0  0  0  0  0  0  0  0  0  0
   19.6340   31.3210   74.2770 H   0  0  0  0  0  0  0  0  0  0  0  0
   21.6550   31.9460   73.4390 H   0  0  0  0  0  0  0  0  0  0  0  0
   21.4070   31.0620   71.9040 H   0  0  0  0  0  0  0  0  0  0  0  0
  1  2  1  0  0  0  0
  2  6  1  0  0  0  0
  2  3  2  0  0  0  0
  3 27  1  0  0  0  0
  3  4  1  0  0  0  0
  4  7  1  0  0  0  0
  5  4  1  0  0  0  0
  6  5  2  0  0  0  0
  7  8  1  0  0  0  0
  8 29  1  0  0  0  0
  8  9  2  0  0  0  0
  9 30  1  0  0  0  0
 10  9  1  0  0  0  0
 10 13  1  0  0  0  0
 11 10  2  0  0  0  0
 12  7  2  0  0  0  0
 12 11  1  0  0  0  0
 13 15  1  0  0  0  0
 14 13  2  0  0  0  0
 15 26  1  0  0  0  0
 15 16  1  0  0  0  0
 16 33  1  0  0  0  0
 17 16  1  0  0  0  0
 17 35  1  0  0  0  0
 18 17  1  0  0  0  0
 18 25  1  0  0  0  0
 18 19  1  0  0  0  0
 19 37  1  0  0  0  0
 20 21  2  0  0  0  0
 20 19  1  0  0  0  0
 22 23  1  0  0  0  0
 22 20  1  0  0  0  0
 23 18  1  0  0  0  0
 24 23  2  0  0  0  0
 25 40  1  0  0  0  0
 26 25  1  0  0  0  0
 26 41  1  0  0  0  0
 28  6  1  0  0  0  0
 31 11  1  0  0  0  0
 32 12  1  0  0  0  0
 34 16  1  0  0  0  0
 36 17  1  0  0  0  0
 38 22  1  0  0  0  0
 39 25  1  0  0  0  0
 42 26  1  0  0  0  0
M  END
>  <Pose>
1

>  <Score>
-5.93

$$$$
