
 OpenBabel03212208413D

 41 44  0  0  0  0  0  0  0  0999 V2000
   23.4620   32.2930   71.0900 B   0  0  0  0  0  0  0  0  0  0  0  0
   21.7350   32.2470   71.9080 C   0  0  0  0  0  0  0  0  0  0  0  0
   21.2280   31.1060   72.4710 C   0  0  0  0  0  0  0  0  0  0  0  0
   20.0190   31.1000   73.0450 N   0  0  0  0  0  0  0  0  0  0  0  0
   19.2130   32.1920   73.1180 C   0  0  0  0  0  0  0  0  0  0  0  0
   19.7390   33.3530   72.5380 C   0  0  0  0  0  0  0  0  0  0  0  0
   20.9720   33.3910   71.9450 C   0  0  0  0  0  0  0  0  0  0  0  0
   17.9500   32.1350   73.7520 N   0  0  0  0  0  0  0  0  0  0  0  0
   16.7930   32.2360   72.9430 C   0  0  0  0  0  0  0  0  0  0  0  0
   15.9510   31.3070   72.6000 C   0  0  0  0  0  0  0  0  0  0  0  0
   14.9400   31.9480   71.7580 C   0  0  0  0  0  0  0  0  0  0  0  0
   13.9540   31.3340   71.2430 O   0  0  0  0  0  0  0  0  0  0  0  0
   15.2130   33.3480   71.6010 N   0  0  0  0  0  0  0  0  0  0  0  0
   16.4060   33.5440   72.3590 C   0  0  0  0  0  0  0  0  0  0  0  0
   17.0190   34.6340   72.5060 O   0  0  0  0  0  0  0  0  0  0  0  0
   14.4590   34.3010   70.8680 C   0  0  0  0  0  0  0  0  0  0  0  0
   15.0210   35.3610   70.2040 C   0  0  0  0  0  0  0  0  0  0  0  0
   14.2410   36.2790   69.4720 C   0  0  0  0  0  0  0  0  0  0  0  0
   12.8740   36.1340   69.4030 C   0  0  0  0  0  0  0  0  0  0  0  0
   12.3070   35.0750   70.0650 C   0  0  0  0  0  0  0  0  0  0  0  0
   13.0940   34.1760   70.7850 C   0  0  0  0  0  0  0  0  0  0  0  0
   15.9680   29.9180   72.9380 N   0  0  0  0  0  0  0  0  0  0  0  0
   16.9740   29.1350   72.5090 C   0  0  0  0  0  0  0  0  0  0  0  0
   17.0170   27.7640   72.8170 C   0  0  0  0  0  0  0  0  0  0  0  0
   16.0100   27.1980   73.5750 C   0  0  0  0  0  0  0  0  0  0  0  0
   14.9910   28.0210   74.0040 C   0  0  0  0  0  0  0  0  0  0  0  0
   14.9870   29.3520   73.6820 C   0  0  0  0  0  0  0  0  0  0  0  0
   21.8210   30.2080   72.4400 H   0  0  0  0  0  0  0  0  0  0  0  0
   19.1090   34.2380   72.5820 H   0  0  0  0  0  0  0  0  0  0  0  0
   21.3850   34.2950   71.4920 H   0  0  0  0  0  0  0  0  0  0  0  0
   17.8730   32.0270   74.7620 H   0  0  0  0  0  0  0  0  0  0  0  0
   16.0910   35.4980   70.2450 H   0  0  0  0  0  0  0  0  0  0  0  0
   14.7340   37.1050   68.9630 H   0  0  0  0  0  0  0  0  0  0  0  0
   12.2820   36.8500   68.8330 H   0  0  0  0  0  0  0  0  0  0  0  0
   11.2310   34.9550   70.0180 H   0  0  0  0  0  0  0  0  0  0  0  0
   12.5790   33.3660   71.2760 H   0  0  0  0  0  0  0  0  0  0  0  0
   17.7540   29.6010   71.9160 H   0  0  0  0  0  0  0  0  0  0  0  0
   17.8560   27.1700   72.4480 H   0  0  0  0  0  0  0  0  0  0  0  0
   16.0290   26.1310   73.8220 H   0  0  0  0  0  0  0  0  0  0  0  0
   14.2000   27.5890   74.5920 H   0  0  0  0  0  0  0  0  0  0  0  0
   14.1770   30.0180   74.0210 H   0  0  0  0  0  0  0  0  0  0  0  0
  1  2  1  0  0  0  0
  2  7  2  0  0  0  0
  2  3  1  0  0  0  0
  3  4  2  0  0  0  0
  4  5  1  0  0  0  0
  5  8  1  0  0  0  0
  6 29  1  0  0  0  0
  6  5  2  0  0  0  0
  7  6  1  0  0  0  0
  8 31  1  0  0  0  0
  9  8  1  0  0  0  0
 10 22  1  0  0  0  0
 10  9  2  0  0  0  0
 11 10  1  0  0  0  0
 12 11  2  0  0  0  0
 13 11  1  0  0  0  0
 13 14  1  0  0  0  0
 14 15  2  0  0  0  0
 14  9  1  0  0  0  0
 16 13  1  0  0  0  0
 17 32  1  0  0  0  0
 17 16  2  0  0  0  0
 18 17  1  0  0  0  0
 19 18  2  0  0  0  0
 19 20  1  0  0  0  0
 20 21  2  0  0  0  0
 21 16  1  0  0  0  0
 21 36  1  0  0  0  0
 22 27  1  0  0  0  0
 23 24  1  0  0  0  0
 23 22  1  0  0  0  0
 24 25  2  0  0  0  0
 25 39  1  0  0  0  0
 25 26  1  0  0  0  0
 26 40  1  0  0  0  0
 27 26  2  0  0  0  0
 27 41  1  0  0  0  0
 28  3  1  0  0  0  0
 30  7  1  0  0  0  0
 33 18  1  0  0  0  0
 34 19  1  0  0  0  0
 35 20  1  0  0  0  0
 37 23  1  0  0  0  0
 38 24  1  0  0  0  0
M  END
>  <Pose>
1

>  <Score>
-6.66

$$$$
