
 OpenBabel03212208413D

 43 46  0  0  0  0  0  0  0  0999 V2000
   21.2600   35.9690   67.3540 B   0  0  0  0  0  0  0  0  0  0  0  0
   21.0790   36.0770   69.2520 C   0  0  0  0  0  0  0  0  0  0  0  0
   21.3060   37.2480   69.9030 C   0  0  0  0  0  0  0  0  0  0  0  0
   21.1840   37.3390   71.2260 N   0  0  0  0  0  0  0  0  0  0  0  0
   20.8290   36.2580   71.9360 C   0  0  0  0  0  0  0  0  0  0  0  0
   20.5840   35.0340   71.3230 C   0  0  0  0  0  0  0  0  0  0  0  0
   20.7080   34.9320   69.9570 C   0  0  0  0  0  0  0  0  0  0  0  0
   20.2010   33.9240   72.1640 C   0  0  0  0  0  0  0  0  0  0  0  0
   21.0530   33.1280   72.5940 O   0  0  0  0  0  0  0  0  0  0  0  0
   18.7870   33.7080   72.5310 N   0  0  0  0  0  0  0  0  0  0  0  0
   17.9770   33.1750   71.5250 C   0  0  0  0  0  0  0  0  0  0  0  0
   16.5310   33.1220   71.5440 C   0  0  0  0  0  0  0  0  0  0  0  0
   16.0580   31.8700   72.0760 C   0  0  0  0  0  0  0  0  0  0  0  0
   14.7360   31.6330   72.1610 C   0  0  0  0  0  0  0  0  0  0  0  0
   13.7970   32.5910   71.7360 C   0  0  0  0  0  0  0  0  0  0  0  0
   14.2300   33.7910   71.2270 C   0  0  0  0  0  0  0  0  0  0  0  0
   15.6070   34.0510   71.1370 C   0  0  0  0  0  0  0  0  0  0  0  0
   16.0910   35.3780   70.6780 C   0  0  0  0  0  0  0  0  0  0  0  0
   15.0290   36.4710   70.7410 C   0  0  0  0  0  0  0  0  0  0  0  0
   13.7710   36.0270   70.1890 N   0  0  0  0  0  0  0  0  0  0  0  0
   13.2880   34.7960   70.7440 C   0  0  0  0  0  0  0  0  0  0  0  0
   12.0480   34.6520   70.7830 O   0  0  0  0  0  0  0  0  0  0  0  0
   13.0630   36.7610   69.1620 C   0  0  0  0  0  0  0  0  0  0  0  0
   12.4940   32.2780   71.8520 O   0  0  0  0  0  0  0  0  0  0  0  0
   14.5800   30.3520   72.7110 O   0  0  0  0  0  0  0  0  0  0  0  0
   15.8240   29.6850   72.7360 C   0  0  0  0  0  0  0  0  0  0  0  0
   16.7380   30.7510   72.5660 O   0  0  0  0  0  0  0  0  0  0  0  0
   21.6010   38.1730   69.3790 H   0  0  0  0  0  0  0  0  0  0  0  0
   20.7190   36.2930   73.0170 H   0  0  0  0  0  0  0  0  0  0  0  0
   20.5210   34.0000   69.4520 H   0  0  0  0  0  0  0  0  0  0  0  0
   18.5980   34.0270   73.4930 H   0  0  0  0  0  0  0  0  0  0  0  0
   18.3050   33.7060   70.5340 H   0  0  0  0  0  0  0  0  0  0  0  0
   18.3970   32.1160   71.2540 H   0  0  0  0  0  0  0  0  0  0  0  0
   16.4660   35.3830   69.6500 H   0  0  0  0  0  0  0  0  0  0  0  0
   16.8770   35.7700   71.3690 H   0  0  0  0  0  0  0  0  0  0  0  0
   15.4550   37.3260   70.1600 H   0  0  0  0  0  0  0  0  0  0  0  0
   14.9170   36.7370   71.8160 H   0  0  0  0  0  0  0  0  0  0  0  0
   13.6000   36.5590   68.2030 H   0  0  0  0  0  0  0  0  0  0  0  0
   13.1240   37.8460   69.3590 H   0  0  0  0  0  0  0  0  0  0  0  0
   12.0420   36.3710   69.0650 H   0  0  0  0  0  0  0  0  0  0  0  0
   11.9960   31.5000   71.5820 H   0  0  0  0  0  0  0  0  0  0  0  0
   15.9880   29.1450   73.6920 H   0  0  0  0  0  0  0  0  0  0  0  0
   15.8330   28.9750   71.8940 H   0  0  0  0  0  0  0  0  0  0  0  0
  1  2  1  0  0  0  0
  2  3  2  0  0  0  0
  2  7  1  0  0  0  0
  3  4  1  0  0  0  0
  4  5  2  0  0  0  0
  5 29  1  0  0  0  0
  6  5  1  0  0  0  0
  6  8  1  0  0  0  0
  7  6  2  0  0  0  0
  8 10  1  0  0  0  0
  8  9  2  0  0  0  0
 10 31  1  0  0  0  0
 11 12  1  0  0  0  0
 11 10  1  0  0  0  0
 12 13  1  0  0  0  0
 13 14  2  0  0  0  0
 13 27  1  0  0  0  0
 14 25  1  0  0  0  0
 15 24  1  0  0  0  0
 15 14  1  0  0  0  0
 16 15  2  0  0  0  0
 17 16  1  0  0  0  0
 17 12  2  0  0  0  0
 18 19  1  0  0  0  0
 18 17  1  0  0  0  0
 18 35  1  0  0  0  0
 19 37  1  0  0  0  0
 20 19  1  0  0  0  0
 20 21  1  0  0  0  0
 21 22  2  0  0  0  0
 21 16  1  0  0  0  0
 23 39  1  0  0  0  0
 23 20  1  0  0  0  0
 25 26  1  0  0  0  0
 26 42  1  0  0  0  0
 27 26  1  0  0  0  0
 28  3  1  0  0  0  0
 30  7  1  0  0  0  0
 32 11  1  0  0  0  0
 33 11  1  0  0  0  0
 34 18  1  0  0  0  0
 36 19  1  0  0  0  0
 38 23  1  0  0  0  0
 40 23  1  0  0  0  0
 41 24  1  0  0  0  0
 43 26  1  0  0  0  0
M  END
>  <Pose>
1

>  <Score>
-7.59

$$$$
