
 OpenBabel03212208413D

 37 40  0  0  1  0  0  0  0  0999 V2000
   22.8170   35.0740   68.2100 B   0  0  0  0  0  0  0  0  0  0  0  0
   22.9790   33.6750   69.5180 C   0  0  0  0  0  0  0  0  0  0  0  0
   23.9880   32.7510   69.3690 C   0  0  0  0  0  0  0  0  0  0  0  0
   24.0800   31.7870   70.2930 N   0  0  0  0  0  0  0  0  0  0  0  0
   23.2200   31.7030   71.3490 C   0  0  0  0  0  0  0  0  0  0  0  0
   22.1960   32.5940   71.5510 C   0  0  0  0  0  0  0  0  0  0  0  0
   22.1080   33.6030   70.5750 C   0  0  0  0  0  0  0  0  0  0  0  0
   21.2400   32.5730   72.6300 C   0  0  0  0  0  0  0  0  0  0  0  0
   21.6540   32.2530   73.7880 O   0  0  0  0  0  0  0  0  0  0  0  0
   19.8850   32.8860   72.4660 N   0  0  0  0  0  0  0  0  0  0  0  0
   19.0240   34.0080   72.2020 C   0  0  0  0  0  0  0  0  0  0  0  0
   17.7690   33.1910   72.4730 C   0  0  0  0  0  0  0  0  0  0  0  0
   18.6950   32.0130   72.4950 C   0  0  0  0  0  0  0  0  0  0  0  0
   16.7920   33.1880   71.4800 O   0  0  0  0  0  0  0  0  0  0  0  0
   15.4540   32.9010   71.6570 C   0  0  2  0  0  0  0  0  0  0  0  0
   15.0960   31.8170   72.3390 C   0  0  0  0  0  0  0  0  0  0  0  0
   13.7000   31.4600   72.5600 C   0  0  0  0  0  0  0  0  0  0  0  0
   13.3800   30.3760   73.2440 C   0  0  0  0  0  0  0  0  0  0  0  0
   12.7080   32.3180   72.0130 N   0  0  0  0  0  0  0  0  0  0  0  0
   13.1250   33.4810   71.2810 C   0  0  0  0  0  0  0  0  0  0  0  0
   14.4260   33.7540   71.1120 N   0  0  0  0  0  0  0  0  0  0  0  0
   14.5410   34.8780   70.3970 N   0  0  0  0  0  0  0  0  0  0  0  0
   13.3010   35.2980   70.1240 C   0  0  0  0  0  0  0  0  0  0  0  0
   12.4290   34.4410   70.6650 N   0  0  0  0  0  0  0  0  0  0  0  0
   24.6920   32.7990   68.5250 H   0  0  0  0  0  0  0  0  0  0  0  0
   23.3410   30.9050   72.0780 H   0  0  0  0  0  0  0  0  0  0  0  0
   21.3210   34.3370   70.6780 H   0  0  0  0  0  0  0  0  0  0  0  0
   19.0910   34.8310   72.9620 H   0  0  0  0  0  0  0  0  0  0  0  0
   19.1340   34.3470   71.1650 H   0  0  0  0  0  0  0  0  0  0  0  0
   17.3140   33.4380   73.4670 H   0  0  0  0  0  0  0  0  0  0  0  0
   18.7030   31.4060   71.5920 H   0  0  0  0  0  0  0  0  0  0  0  0
   18.6220   31.4100   73.4090 H   0  0  0  0  0  0  0  0  0  0  0  0
   15.8990   31.1770   72.7370 H   0  0  0  0  0  0  0  0  0  0  0  0
   12.3450   30.1440   73.3870 H   0  0  0  0  0  0  0  0  0  0  0  0
   14.1250   29.7370   73.6500 H   0  0  0  0  0  0  0  0  0  0  0  0
   11.7150   32.0750   72.1640 H   0  0  0  0  0  0  0  0  0  0  0  0
   13.0060   36.1880   69.5550 H   0  0  0  0  0  0  0  0  0  0  0  0
  1  2  1  0  0  0  0
  2  7  1  0  0  0  0
  3  2  2  0  0  0  0
  3  4  1  0  0  0  0
  4  5  2  0  0  0  0
  5  6  1  0  0  0  0
  5 26  1  0  0  0  0
  6  8  1  0  0  0  0
  7 27  1  0  0  0  0
  7  6  2  0  0  0  0
  8  9  2  0  0  0  0
 10 13  1  0  0  0  0
 10  8  1  0  0  0  0
 11 10  1  0  0  0  0
 11 12  1  0  0  0  0
 11 28  1  0  0  0  0
 12 13  1  0  0  0  0
 12 30  1  0  0  0  0
 13 32  1  0  0  0  0
 14 12  1  0  0  0  0
 15 14  1  6  0  0  0
 15 16  1  0  0  0  0
 16 17  2  0  0  0  0
 16 33  1  0  0  0  0
 17 18  1  0  0  0  0
 18 34  1  0  0  0  0
 18 35  1  0  0  0  0
 19 36  1  0  0  0  0
 19 17  1  0  0  0  0
 20 19  1  0  0  0  0
 21 20  1  0  0  0  0
 21 15  1  0  0  0  0
 22 21  1  0  0  0  0
 23 22  2  0  0  0  0
 23 24  1  0  0  0  0
 24 20  2  0  0  0  0
 25  3  1  0  0  0  0
 29 11  1  0  0  0  0
 31 13  1  0  0  0  0
 37 23  1  0  0  0  0
M  END
>  <Pose>
1

>  <Score>
-6.82

$$$$
