
 OpenBabel03212208413D

 48 43  0  0  1  0  0  0  0  0999 V2000
   17.5030   33.2790   71.2390 B   0  0  0  0  0  0  0  0  0  0  0  0
   17.0450   31.7630   72.2680 C   0  0  0  0  0  0  0  0  0  0  0  0
   18.0450   30.9690   72.8060 C   0  0  0  0  0  0  0  0  0  0  0  0
   17.6690   29.9040   73.5290 N   0  0  0  0  0  0  0  0  0  0  0  0
   16.3910   29.5670   73.7600 C   0  0  0  0  0  0  0  0  0  0  0  0
   15.4070   30.3580   73.2220 C   0  0  0  0  0  0  0  0  0  0  0  0
   15.7100   31.4760   72.4630 C   0  0  1  0  0  0  0  0  0  0  0  0
   14.0090   30.0250   73.4490 C   0  0  0  0  0  0  0  0  0  0  0  0
   13.6940   29.0330   74.1640 O   0  0  0  0  0  0  0  0  0  0  0  0
   12.9900   30.7770   72.8930 O   0  0  0  0  0  0  0  0  0  0  0  0
   17.5840   32.0910   73.5480 N   0  0  0  0  0  0  0  0  0  0  0  0
   17.9630   30.7110   73.2940 C   0  0  0  0  0  0  0  0  0  0  0  0
   17.0450   30.0430   72.2950 C   0  0  0  0  0  0  0  0  0  0  0  0
   15.8760   29.3950   73.0160 C   0  0  0  0  0  0  0  0  0  0  0  0
   14.8840   30.4380   73.4770 C   0  0  0  0  0  0  0  0  0  0  0  0
   15.1770   31.7190   72.8160 C   0  0  0  0  0  0  0  0  0  0  0  0
   16.3580   32.4210   72.8600 C   0  0  1  0  0  0  0  0  0  0  0  0
   16.4590   33.5770   72.1990 N   0  0  0  0  0  0  0  0  0  0  0  0
   15.4470   34.0830   71.4890 C   0  0  0  0  0  0  0  0  0  0  0  0
   14.2590   33.4000   71.4320 C   0  0  0  0  0  0  0  0  0  0  0  0
   14.1250   32.2030   72.1060 C   0  0  0  0  0  0  0  0  0  0  0  0
   12.8720   31.5040   72.0320 N   0  0  0  0  0  4  0  0  0  0  0  0
   13.1710   33.8810   70.7080 C   0  0  0  0  0  0  0  0  0  0  0  0
   13.3190   35.0730   70.0440 C   0  0  0  0  0  0  0  0  0  0  0  0
   14.5090   35.7560   70.1020 C   0  0  0  0  0  0  0  0  0  0  0  0
   15.5920   35.2650   70.8290 C   0  0  0  0  0  0  0  0  0  0  0  0
   18.6330   32.9460   73.0020 C   0  0  0  0  0  0  0  0  0  0  0  0
   19.0740   31.2320   72.6290 H   0  0  0  0  0  0  0  0  0  0  0  0
   16.1680   28.6980   74.3490 H   0  0  0  0  0  0  0  0  0  0  0  0
   14.9680   32.1090   72.0330 H   0  0  0  0  0  0  0  0  0  0  0  0
   17.4820   32.2580   74.5750 H   0  0  0  0  0  0  0  0  0  0  0  0
   17.9860   30.0980   74.2070 H   0  0  0  0  0  0  0  0  0  0  0  0
   18.9950   30.6500   72.8590 H   0  0  0  0  0  0  0  0  0  0  0  0
   17.6040   29.2170   71.8050 H   0  0  0  0  0  0  0  0  0  0  0  0
   16.7090   30.8180   71.5860 H   0  0  0  0  0  0  0  0  0  0  0  0
   15.4130   28.6700   72.3440 H   0  0  0  0  0  0  0  0  0  0  0  0
   16.2760   28.8800   73.9030 H   0  0  0  0  0  0  0  0  0  0  0  0
   13.8570   30.0820   73.2560 H   0  0  0  0  0  0  0  0  0  0  0  0
   14.9140   30.5500   74.6000 H   0  0  0  0  0  0  0  0  0  0  0  0
   11.9910   32.0140   72.2030 H   0  0  0  0  0  0  0  0  0  0  0  0
   12.8360   30.4830   71.8080 H   0  0  0  0  0  0  0  0  0  0  0  0
   12.2510   33.3210   70.6820 H   0  0  0  0  0  0  0  0  0  0  0  0
   12.4980   35.4870   69.4660 H   0  0  0  0  0  0  0  0  0  0  0  0
   14.6300   36.6890   69.5840 H   0  0  0  0  0  0  0  0  0  0  0  0
   16.5370   35.7850   70.8900 H   0  0  0  0  0  0  0  0  0  0  0  0
   19.6000   32.4840   73.2610 H   0  0  0  0  0  0  0  0  0  0  0  0
   18.5180   33.9830   73.3500 H   0  0  0  0  0  0  0  0  0  0  0  0
   18.5440   32.9140   71.8870 H   0  0  0  0  0  0  0  0  0  0  0  0
  1 18  1  0  0  0  0
  2  7  1  0  0  0  0
  2 17  1  0  0  0  0
  3 33  1  0  0  0  0
  3 12  1  0  0  0  0
  4 32  1  0  0  0  0
  5 37  1  0  0  0  0
  6 15  1  0  0  0  0
  7 16  1  1  0  0  0
  7 17  1  0  0  0  0
  8 15  1  0  0  0  0
  8  9  2  0  0  0  0
 11 31  1  0  0  0  0
 12  4  1  0  0  0  0
 13  4  1  0  0  0  0
 14  6  1  0  0  0  0
 14  5  1  0  0  0  0
 17 18  1  6  0  0  0
 17 11  1  0  0  0  0
 19 18  1  0  0  0  0
 20 19  1  0  0  0  0
 20 21  1  0  0  0  0
 22 21  1  0  0  0  0
 22 40  1  0  0  0  0
 22 10  1  0  0  0  0
 23 20  2  0  0  0  0
 24 25  2  0  0  0  0
 24 23  1  0  0  0  0
 25 26  1  0  0  0  0
 26 45  1  0  0  0  0
 26 19  2  0  0  0  0
 27 46  1  0  0  0  0
 27 47  1  0  0  0  0
 27 11  1  0  0  0  0
 30 21  1  0  0  0  0
 34 13  1  0  0  0  0
 35 13  1  0  0  0  0
 36 14  1  0  0  0  0
 41 22  1  0  0  0  0
 42 23  1  0  0  0  0
 43 24  1  0  0  0  0
 44 25  1  0  0  0  0
 48 27  1  0  0  0  0
M  END
>  <Pose>
1

>  <Score>
-6.78

$$$$
