
 OpenBabel03212208413D

 45 41  0  0  1  0  0  0  0  0999 V2000
   12.4690   34.6830   70.1550 B   0  0  0  0  0  0  0  0  0  0  0  0
   13.9840   33.7700   70.8630 C   0  0  0  0  0  0  0  0  0  0  0  0
   13.8700   32.5720   71.5340 C   0  0  0  0  0  0  0  0  0  0  0  0
   14.9340   31.9220   72.0370 N   0  0  0  0  0  0  0  0  0  0  0  0
   16.1520   32.4610   71.8770 C   0  0  0  0  0  0  0  0  0  0  0  0
   16.3510   33.6540   71.2180 C   0  0  0  0  0  0  0  0  0  0  0  0
   15.2490   34.2950   70.7170 C   0  0  0  0  0  0  0  0  0  0  0  0
   17.6820   34.2260   71.0520 C   0  0  0  0  0  0  0  0  0  0  0  0
   17.8250   35.2760   70.3800 O   0  0  0  0  0  0  0  0  0  0  0  0
   18.7540   33.5820   71.6520 O   0  0  0  0  0  0  0  0  0  0  0  0
   17.0960   32.1060   73.3640 N   0  0  0  0  0  0  0  0  0  0  0  0
   17.0950   30.6980   72.9270 C   0  0  0  0  0  0  0  0  0  0  0  0
   15.8790   30.0290   73.4780 C   0  0  0  0  0  0  0  0  0  0  0  0
   14.6490   30.7100   72.9390 C   0  0  0  0  0  0  0  0  0  0  0  0
   14.8960   32.0290   72.3350 C   0  0  0  0  0  0  0  0  0  0  0  0
   16.0770   32.7070   72.5400 C   0  0  2  0  0  0  0  0  0  0  0  0
   16.2350   33.8980   71.9650 N   0  0  0  0  0  0  0  0  0  0  0  0
   15.3000   34.4830   71.1880 C   0  0  0  0  0  0  0  0  0  0  0  0
   14.1050   33.8330   70.9600 C   0  0  0  0  0  0  0  0  0  0  0  0
   13.8970   32.5980   71.5340 C   0  0  0  0  0  0  0  0  0  0  0  0
   12.6630   31.9310   71.2970 N   0  0  0  0  0  0  0  0  0  0  0  0
   13.1350   34.4350   70.1570 C   0  0  2  0  0  0  0  0  0  0  0  0
   13.3230   35.6680   69.5730 C   0  0  0  0  0  0  0  0  0  0  0  0
   14.5200   36.3140   69.8050 C   0  0  0  0  0  0  0  0  0  0  0  0
   15.4850   35.7170   70.6020 C   0  0  0  0  0  0  0  0  0  0  0  0
   18.4110   32.6220   73.0390 C   0  0  0  0  0  0  0  0  0  0  0  0
   12.8570   32.1650   71.6440 H   0  0  0  0  0  0  0  0  0  0  0  0
   17.0020   31.9320   72.2830 H   0  0  0  0  0  0  0  0  0  0  0  0
   15.3180   35.2380   70.1850 H   0  0  0  0  0  0  0  0  0  0  0  0
   16.8750   32.1750   74.3710 H   0  0  0  0  0  0  0  0  0  0  0  0
   17.9920   30.1680   73.2910 H   0  0  0  0  0  0  0  0  0  0  0  0
   17.0470   30.7330   71.8150 H   0  0  0  0  0  0  0  0  0  0  0  0
   15.9030   28.9460   73.2280 H   0  0  0  0  0  0  0  0  0  0  0  0
   15.9360   30.1210   74.6030 H   0  0  0  0  0  0  0  0  0  0  0  0
   14.1830   29.9960   72.2160 H   0  0  0  0  0  0  0  0  0  0  0  0
   13.9220   30.7680   73.7880 H   0  0  0  0  0  0  0  0  0  0  0  0
   11.8310   32.2750   71.8250 H   0  0  0  0  0  0  0  0  0  0  0  0
   12.5340   31.1400   70.6490 H   0  0  0  0  0  0  0  0  0  0  0  0
   12.2040   33.9320   69.9780 H   0  0  0  0  0  0  0  0  0  0  0  0
   12.5410   36.1020   68.9540 H   0  0  0  0  0  0  0  0  0  0  0  0
   14.6530   37.2820   69.3400 H   0  0  0  0  0  0  0  0  0  0  0  0
   16.4140   36.2520   70.7640 H   0  0  0  0  0  0  0  0  0  0  0  0
   18.4900   32.6840   71.9350 H   0  0  0  0  0  0  0  0  0  0  0  0
   18.5460   33.6240   73.5230 H   0  0  0  0  0  0  0  0  0  0  0  0
   19.1440   31.8850   73.4230 H   0  0  0  0  0  0  0  0  0  0  0  0
  1 22  1  0  0  0  0
  2 20  2  0  0  0  0
  5  4  1  0  0  0  0
  5 28  1  0  0  0  0
  5 16  1  0  0  0  0
  6 17  1  0  0  0  0
  7 19  1  0  0  0  0
  7 18  1  0  0  0  0
  8 10  1  0  0  0  0
  8 17  1  0  0  0  0
  9  8  2  0  0  0  0
 10 43  1  0  0  0  0
 11 30  1  0  0  0  0
 12 31  1  0  0  0  0
 12 13  1  0  0  0  0
 13 34  1  0  0  0  0
 14 13  1  0  0  0  0
 14 36  1  0  0  0  0
 15 14  1  0  0  0  0
 16 15  1  6  0  0  0
 17 16  1  0  0  0  0
 18  6  1  0  0  0  0
 20  4  1  0  0  0  0
 21 27  1  0  0  0  0
 21 37  1  0  0  0  0
 22  2  1  1  0  0  0
 23 24  2  0  0  0  0
 23 22  1  0  0  0  0
 24 25  1  0  0  0  0
 25 42  1  0  0  0  0
 26 11  1  0  0  0  0
 26 45  1  0  0  0  0
 26 44  1  0  0  0  0
 29 25  1  0  0  0  0
 32 12  1  0  0  0  0
 33 13  1  0  0  0  0
 35 14  1  0  0  0  0
 38 21  1  0  0  0  0
 39  1  1  0  0  0  0
 40 23  1  0  0  0  0
 41 24  1  0  0  0  0
M  END
>  <Pose>
1

>  <Score>
-7.73

$$$$
