
 OpenBabel03212208413D

 57 60  0  0  0  0  0  0  0  0999 V2000
   13.4410   28.8850   75.6160 B   0  0  0  0  0  0  0  0  0  0  0  0
   14.8270   28.7760   74.3220 C   0  0  0  0  0  0  0  0  0  0  0  0
   15.1850   29.9070   73.6120 C   0  0  0  0  0  0  0  0  0  0  0  0
   16.1980   29.8940   72.6420 C   0  0  0  0  0  0  0  0  0  0  0  0
   16.8620   28.7210   72.3850 C   0  0  0  0  0  0  0  0  0  0  0  0
   16.5090   27.5870   73.0910 C   0  0  0  0  0  0  0  0  0  0  0  0
   15.5140   27.5980   74.0440 C   0  0  0  0  0  0  0  0  0  0  0  0
   17.4090   25.9430   72.7610 B   0  0  0  0  0  0  0  0  0  0  0  0
   16.5300   31.1100   71.9090 C   0  0  0  0  0  0  0  0  0  0  0  0
   17.0960   30.9430   70.7940 O   0  0  0  0  0  0  0  0  0  0  0  0
   16.2310   32.4420   72.4240 C   0  0  0  0  0  0  0  0  0  0  0  0
   15.3900   32.2940   73.7190 C   0  0  0  0  0  0  0  0  0  0  0  0
   14.6090   31.1560   73.7620 O   0  0  0  0  0  0  0  0  0  0  0  0
   17.3520   33.2850   72.8250 C   0  0  0  0  0  0  0  0  0  0  0  0
   18.5960   33.3640   72.2140 N   0  0  0  0  0  4  0  0  0  0  0  0
   19.7740   32.9130   72.8870 C   0  0  0  0  0  0  0  0  0  0  0  0
   20.7950   32.5610   71.7750 C   0  0  0  0  0  0  0  0  0  0  0  0
   21.2590   33.8950   71.2290 C   0  0  0  0  0  0  0  0  0  0  0  0
   20.3130   35.0140   71.6010 C   0  0  0  0  0  0  0  0  0  0  0  0
   18.8650   34.5920   71.4800 C   0  0  0  0  0  0  0  0  0  0  0  0
   15.3890   33.1640   71.3830 C   0  0  0  0  0  0  0  0  0  0  0  0
   14.2370   32.4030   70.9650 N   0  0  0  0  0  4  0  0  0  0  0  0
   13.9670   32.7350   69.5730 C   0  0  0  0  0  0  0  0  0  0  0  0
   13.8410   34.2160   69.4390 C   0  0  0  0  0  0  0  0  0  0  0  0
   12.8610   34.8530   70.3560 C   0  0  0  0  0  0  0  0  0  0  0  0
   12.7530   34.2360   71.7080 C   0  0  0  0  0  0  0  0  0  0  0  0
   13.0110   32.7470   71.6600 C   0  0  0  0  0  0  0  0  0  0  0  0
   17.6590   28.6880   71.6290 H   0  0  0  0  0  0  0  0  0  0  0  0
   15.2340   26.7130   74.6000 H   0  0  0  0  0  0  0  0  0  0  0  0
   14.8280   33.2400   73.8950 H   0  0  0  0  0  0  0  0  0  0  0  0
   16.1290   32.2650   74.5460 H   0  0  0  0  0  0  0  0  0  0  0  0
   17.5700   33.1040   73.9310 H   0  0  0  0  0  0  0  0  0  0  0  0
   16.9270   34.3470   72.8830 H   0  0  0  0  0  0  0  0  0  0  0  0
   18.5220   32.6420   71.4050 H   0  0  0  0  0  0  0  0  0  0  0  0
   19.6060   31.9940   73.4590 H   0  0  0  0  0  0  0  0  0  0  0  0
   20.3380   33.7030   73.4320 H   0  0  0  0  0  0  0  0  0  0  0  0
   20.3050   31.9500   70.9940 H   0  0  0  0  0  0  0  0  0  0  0  0
   21.6220   32.0020   72.2550 H   0  0  0  0  0  0  0  0  0  0  0  0
   22.2270   34.1240   71.7570 H   0  0  0  0  0  0  0  0  0  0  0  0
   21.4950   33.8630   70.1560 H   0  0  0  0  0  0  0  0  0  0  0  0
   20.4600   35.8010   70.8030 H   0  0  0  0  0  0  0  0  0  0  0  0
   20.5540   35.5160   72.5410 H   0  0  0  0  0  0  0  0  0  0  0  0
   18.6930   34.4760   70.3660 H   0  0  0  0  0  0  0  0  0  0  0  0
   18.2280   35.4320   71.7540 H   0  0  0  0  0  0  0  0  0  0  0  0
   15.1460   34.1800   71.7040 H   0  0  0  0  0  0  0  0  0  0  0  0
   16.0470   33.2340   70.4960 H   0  0  0  0  0  0  0  0  0  0  0  0
   14.3790   31.3870   71.1030 H   0  0  0  0  0  0  0  0  0  0  0  0
   14.7390   32.3640   68.8930 H   0  0  0  0  0  0  0  0  0  0  0  0
   12.9620   32.2990   69.3300 H   0  0  0  0  0  0  0  0  0  0  0  0
   13.5030   34.4120   68.3790 H   0  0  0  0  0  0  0  0  0  0  0  0
   14.8010   34.7620   69.5230 H   0  0  0  0  0  0  0  0  0  0  0  0
   13.1470   35.9350   70.5100 H   0  0  0  0  0  0  0  0  0  0  0  0
   11.8630   34.9150   69.8370 H   0  0  0  0  0  0  0  0  0  0  0  0
   11.6680   34.3350   72.0170 H   0  0  0  0  0  0  0  0  0  0  0  0
   13.3130   34.7550   72.5040 H   0  0  0  0  0  0  0  0  0  0  0  0
   12.8720   32.2720   72.6250 H   0  0  0  0  0  0  0  0  0  0  0  0
   12.1830   32.3320   71.0070 H   0  0  0  0  0  0  0  0  0  0  0  0
  2  1  1  0  0  0  0
  3 13  1  0  0  0  0
  3  2  2  0  0  0  0
  4  3  1  0  0  0  0
  5  4  2  0  0  0  0
  5  6  1  0  0  0  0
  6  7  2  0  0  0  0
  7  2  1  0  0  0  0
  7 29  1  0  0  0  0
  8  6  1  0  0  0  0
  9 11  1  0  0  0  0
  9  4  1  0  0  0  0
 10  9  2  0  0  0  0
 11 14  1  0  0  0  0
 11 12  1  0  0  0  0
 12 13  1  0  0  0  0
 12 30  1  0  0  0  0
 12 31  1  0  0  0  0
 14 33  1  0  0  0  0
 14 32  1  0  0  0  0
 15 14  1  0  0  0  0
 15 16  1  0  0  0  0
 16 36  1  0  0  0  0
 16 35  1  0  0  0  0
 17 38  1  0  0  0  0
 17 16  1  0  0  0  0
 18 19  1  0  0  0  0
 18 39  1  0  0  0  0
 18 17  1  0  0  0  0
 19 42  1  0  0  0  0
 20 19  1  0  0  0  0
 20 44  1  0  0  0  0
 20 15  1  0  0  0  0
 21 45  1  0  0  0  0
 21 11  1  0  0  0  0
 22 47  1  0  0  0  0
 22 21  1  0  0  0  0
 22 27  1  0  0  0  0
 23 22  1  0  0  0  0
 24 51  1  0  0  0  0
 24 23  1  0  0  0  0
 24 25  1  0  0  0  0
 25 52  1  0  0  0  0
 25 26  1  0  0  0  0
 26 54  1  0  0  0  0
 26 55  1  0  0  0  0
 27 26  1  0  0  0  0
 27 56  1  0  0  0  0
 28  5  1  0  0  0  0
 34 15  1  0  0  0  0
 37 17  1  0  0  0  0
 40 18  1  0  0  0  0
 41 19  1  0  0  0  0
 43 20  1  0  0  0  0
 46 21  1  0  0  0  0
 48 23  1  0  0  0  0
 49 23  1  0  0  0  0
 50 24  1  0  0  0  0
 53 25  1  0  0  0  0
 57 27  1  0  0  0  0
M  END
>  <Pose>
1

>  <Score>
-4.82

$$$$
