
 OpenBabel03212208413D

 44 47  0  0  1  0  0  0  0  0999 V2000
   14.4730   38.9860   68.6160 B   0  0  0  0  0  0  0  0  0  0  0  0
   15.3480   37.4620   69.3760 C   0  0  0  0  0  0  0  0  0  0  0  0
   14.6350   36.3890   69.8710 C   0  0  0  0  0  0  0  0  0  0  0  0
   15.2560   35.2810   70.4200 C   0  0  0  0  0  0  0  0  0  0  0  0
   16.6340   35.3010   70.4500 C   0  0  0  0  0  0  0  0  0  0  0  0
   17.3790   36.3530   69.9670 C   0  0  0  0  0  0  0  0  0  0  0  0
   16.7420   37.4540   69.4200 C   0  0  0  0  0  0  0  0  0  0  0  0
   19.2890   36.3160   70.0380 B   0  0  0  0  0  0  0  0  0  0  0  0
   14.2790   34.2970   70.8610 C   0  0  0  0  0  0  0  0  0  0  0  0
   14.4470   33.1550   71.4130 N   0  0  0  0  0  0  0  0  0  0  0  0
   13.3820   32.3250   71.7770 N   0  0  0  0  0  0  0  0  0  0  0  0
   13.6400   30.9450   71.9360 C   0  0  0  0  0  0  0  0  0  0  0  0
   14.1340   30.2820   71.0010 O   0  0  0  0  0  0  0  0  0  0  0  0
   13.3400   30.2170   73.2090 C   0  0  0  0  0  0  0  0  0  0  0  0
   13.9770   28.9290   73.2540 N   0  0  0  0  0  0  0  0  0  0  0  0
   15.3880   28.7640   73.2170 C   0  0  0  0  0  0  0  0  0  0  0  0
   15.8690   27.9500   72.3980 O   0  0  0  0  0  0  0  0  0  0  0  0
   16.3290   29.5090   74.1060 C   0  0  2  0  0  0  0  0  0  0  0  0
   16.6960   30.7410   73.5610 O   0  0  0  0  0  0  0  0  0  0  0  0
   17.9630   31.0490   73.0690 C   0  0  0  0  0  0  0  0  0  0  0  0
   18.9970   30.2440   73.4690 C   0  0  0  0  0  0  0  0  0  0  0  0
   20.2770   30.5300   72.9920 C   0  0  0  0  0  0  0  0  0  0  0  0
   20.5320   31.5830   72.1440 C   0  0  0  0  0  0  0  0  0  0  0  0
   19.4640   32.3730   71.7630 C   0  0  0  0  0  0  0  0  0  0  0  0
   18.2000   32.0960   72.2290 C   0  0  0  0  0  0  0  0  0  0  0  0
   18.7540   29.1950   74.3120 O   0  0  0  0  0  0  0  0  0  0  0  0
   17.4770   28.6720   74.5520 C   0  0  0  0  0  0  0  0  0  0  0  0
   12.9670   34.8740   70.5450 C   0  0  0  0  0  0  0  0  0  0  0  0
   11.8710   34.3010   70.7860 O   0  0  0  0  0  0  0  0  0  0  0  0
   13.2380   36.1290   69.9520 N   0  0  0  0  0  0  0  0  0  0  0  0
   17.1620   34.4610   70.8690 H   0  0  0  0  0  0  0  0  0  0  0  0
   17.2990   38.2790   69.0380 H   0  0  0  0  0  0  0  0  0  0  0  0
   12.4500   32.7720   71.9100 H   0  0  0  0  0  0  0  0  0  0  0  0
   13.7650   30.8480   74.0200 H   0  0  0  0  0  0  0  0  0  0  0  0
   12.2440   30.1560   73.3890 H   0  0  0  0  0  0  0  0  0  0  0  0
   13.4160   28.0470   73.3190 H   0  0  0  0  0  0  0  0  0  0  0  0
   15.7070   29.7550   75.0160 H   0  0  0  0  0  0  0  0  0  0  0  0
   21.0780   29.8800   73.3220 H   0  0  0  0  0  0  0  0  0  0  0  0
   21.5370   31.7690   71.7990 H   0  0  0  0  0  0  0  0  0  0  0  0
   19.6750   33.2160   71.0820 H   0  0  0  0  0  0  0  0  0  0  0  0
   17.3830   32.7310   71.9160 H   0  0  0  0  0  0  0  0  0  0  0  0
   17.3920   28.4470   75.6600 H   0  0  0  0  0  0  0  0  0  0  0  0
   17.4300   27.6810   74.0440 H   0  0  0  0  0  0  0  0  0  0  0  0
   12.5100   36.7820   69.6180 H   0  0  0  0  0  0  0  0  0  0  0  0
  1  2  1  0  0  0  0
  2  7  2  0  0  0  0
  2  3  1  0  0  0  0
  3 30  1  0  0  0  0
  3  4  2  0  0  0  0
  4  5  1  0  0  0  0
  4  9  1  0  0  0  0
  5 31  1  0  0  0  0
  6  8  1  0  0  0  0
  6  5  2  0  0  0  0
  7  6  1  0  0  0  0
  9 10  2  0  0  0  0
 10 11  1  0  0  0  0
 11 33  1  0  0  0  0
 11 12  1  0  0  0  0
 12 14  1  0  0  0  0
 13 12  2  0  0  0  0
 14 15  1  0  0  0  0
 14 35  1  0  0  0  0
 14 34  1  0  0  0  0
 15 36  1  0  0  0  0
 16 15  1  0  0  0  0
 16 18  1  0  0  0  0
 17 16  2  0  0  0  0
 18 27  1  0  0  0  0
 18 37  1  1  0  0  0
 19 18  1  0  0  0  0
 20 21  1  0  0  0  0
 20 19  1  0  0  0  0
 21 26  1  0  0  0  0
 22 38  1  0  0  0  0
 22 21  2  0  0  0  0
 23 22  1  0  0  0  0
 24 23  2  0  0  0  0
 24 25  1  0  0  0  0
 25 20  2  0  0  0  0
 26 27  1  0  0  0  0
 27 42  1  0  0  0  0
 28 29  2  0  0  0  0
 28  9  1  0  0  0  0
 30 28  1  0  0  0  0
 32  7  1  0  0  0  0
 39 23  1  0  0  0  0
 40 24  1  0  0  0  0
 41 25  1  0  0  0  0
 43 27  1  0  0  0  0
 44 30  1  0  0  0  0
M  END
>  <Pose>
1

>  <Score>
-7.77

$$$$
