
 OpenBabel03212208413D

 31 34  0  0  0  0  0  0  0  0999 V2000
   13.3400   28.7470   75.7490 B   0  0  0  0  0  0  0  0  0  0  0  0
   14.2100   29.3060   74.1300 C   0  0  0  0  0  0  0  0  0  0  0  0
   15.4350   28.7420   73.8400 C   0  0  0  0  0  0  0  0  0  0  0  0
   16.0570   29.1410   72.6830 C   0  0  0  0  0  0  0  0  0  0  0  0
   15.4580   30.0850   71.8460 C   0  0  0  0  0  0  0  0  0  0  0  0
   14.2370   30.6530   72.1270 C   0  0  0  0  0  0  0  0  0  0  0  0
   13.6130   30.2390   73.3070 C   0  0  0  0  0  0  0  0  0  0  0  0
   13.5750   31.6550   71.2540 C   0  0  0  0  0  0  0  0  0  0  0  0
   14.4570   32.7810   71.0620 N   0  0  0  0  0  0  0  0  0  0  0  0
   13.8930   34.0200   70.5940 C   0  0  0  0  0  0  0  0  0  0  0  0
   12.6140   34.0920   70.2000 N   0  0  0  0  0  0  0  0  0  0  0  0
   12.0950   35.2540   69.7640 C   0  0  0  0  0  0  0  0  0  0  0  0
   12.8630   36.4130   69.7080 C   0  0  0  0  0  0  0  0  0  0  0  0
   14.1340   36.3330   70.1020 N   0  0  0  0  0  0  0  0  0  0  0  0
   14.6610   35.1620   70.5420 C   0  0  0  0  0  0  0  0  0  0  0  0
   15.9450   35.3880   70.8650 N   0  0  0  0  0  0  0  0  0  0  0  0
   16.2450   36.6570   70.6450 N   0  0  0  0  0  0  0  0  0  0  0  0
   15.1330   37.2300   70.1770 C   0  0  0  0  0  0  0  0  0  0  0  0
   17.2600   28.4350   72.6200 O   0  0  0  0  0  0  0  0  0  0  0  0
   17.5840   28.0340   73.9610 C   0  0  0  0  0  0  0  0  0  0  0  0
   16.2610   27.8010   74.4640 O   0  0  0  0  0  0  0  0  0  0  0  0
   15.9810   30.3690   70.9560 H   0  0  0  0  0  0  0  0  0  0  0  0
   12.6550   30.6460   73.5850 H   0  0  0  0  0  0  0  0  0  0  0  0
   12.6670   32.0420   71.7910 H   0  0  0  0  0  0  0  0  0  0  0  0
   13.2440   31.2130   70.2910 H   0  0  0  0  0  0  0  0  0  0  0  0
   15.4720   32.7200   71.2510 H   0  0  0  0  0  0  0  0  0  0  0  0
   11.0720   35.3390   69.4420 H   0  0  0  0  0  0  0  0  0  0  0  0
   12.4450   37.3360   69.3590 H   0  0  0  0  0  0  0  0  0  0  0  0
   15.0810   38.2840   69.9050 H   0  0  0  0  0  0  0  0  0  0  0  0
   18.2080   27.1420   73.9910 H   0  0  0  0  0  0  0  0  0  0  0  0
   17.9910   28.9080   74.5050 H   0  0  0  0  0  0  0  0  0  0  0  0
  2  1  1  0  0  0  0
  3  2  1  0  0  0  0
  3 21  1  0  0  0  0
  4  3  2  0  0  0  0
  5  6  2  0  0  0  0
  5  4  1  0  0  0  0
  6  7  1  0  0  0  0
  7 23  1  0  0  0  0
  7  2  2  0  0  0  0
  8 24  1  0  0  0  0
  8  6  1  0  0  0  0
  9 26  1  0  0  0  0
  9  8  1  0  0  0  0
 10  9  1  0  0  0  0
 11 10  2  0  0  0  0
 12 11  1  0  0  0  0
 13 12  2  0  0  0  0
 13 14  1  0  0  0  0
 14 18  1  0  0  0  0
 14 15  1  0  0  0  0
 15 10  1  0  0  0  0
 15 16  2  0  0  0  0
 17 16  1  0  0  0  0
 18 17  2  0  0  0  0
 19  4  1  0  0  0  0
 19 20  1  0  0  0  0
 20 30  1  0  0  0  0
 20 21  1  0  0  0  0
 20 31  1  0  0  0  0
 22  5  1  0  0  0  0
 25  8  1  0  0  0  0
 27 12  1  0  0  0  0
 28 13  1  0  0  0  0
 29 18  1  0  0  0  0
M  END
>  <Pose>
1

>  <Score>
-6.20

$$$$
