
 OpenBabel03212208413D

 56 59  0  0  1  0  0  0  0  0999 V2000
   22.6810   32.9010   69.6810 B   0  0  0  0  0  0  0  0  0  0  0  0
   21.1640   33.9780   70.0590 C   0  0  0  0  0  0  0  0  0  0  0  0
   20.1570   33.4720   70.8920 C   0  0  0  0  0  0  0  0  0  0  0  0
   19.0510   34.2020   71.2060 C   0  0  0  0  0  0  0  0  0  0  0  0
   18.9270   35.4760   70.6790 C   0  0  0  0  0  0  0  0  0  0  0  0
   19.9210   35.9850   69.8520 C   0  0  0  0  0  0  0  0  0  0  0  0
   21.0380   35.2460   69.5380 C   0  0  0  0  0  0  0  0  0  0  0  0
   19.8260   37.3520   69.2650 C   0  0  0  0  0  0  0  0  0  0  0  0
   18.0150   33.6600   72.1270 C   0  0  1  0  0  0  0  0  0  0  0  0
   17.8240   32.1860   72.1230 C   0  0  0  0  0  0  0  0  0  0  0  0
   18.9810   31.4760   71.3780 C   0  0  0  0  0  0  0  0  0  0  0  0
   20.1930   32.2070   71.4610 O   0  0  0  0  0  0  0  0  0  0  0  0
   16.6050   31.7480   71.3340 C   0  0  0  0  0  0  0  0  0  0  0  0
   15.3540   32.3130   71.7940 N   0  0  0  0  0  4  0  0  0  0  0  0
   14.2380   31.5970   71.1760 C   0  0  0  0  0  0  0  0  0  0  0  0
   13.0640   32.5040   71.1760 C   0  0  0  0  0  0  0  0  0  0  0  0
   13.6210   33.8200   71.6010 C   0  0  0  0  0  0  0  0  0  0  0  0
   15.1080   33.6450   71.2670 C   0  0  0  0  0  0  0  0  0  0  0  0
   17.8770   31.6010   73.4840 C   0  0  0  0  0  0  0  0  0  0  0  0
   17.5050   30.3580   73.9230 N   0  0  0  0  0  4  0  0  0  0  0  0
   16.0290   30.2500   73.9620 C   0  0  0  0  0  0  0  0  0  0  0  0
   15.6970   28.8500   73.6160 C   0  0  0  0  0  0  0  0  0  0  0  0
   16.8390   28.3240   72.8340 C   0  0  0  0  0  0  0  0  0  0  0  0
   18.0000   29.2170   73.2700 C   0  0  0  0  0  0  0  0  0  0  0  0
   18.4290   34.1750   73.3870 O   0  0  0  0  0  0  0  0  0  0  0  0
   18.0870   36.1040   70.8800 H   0  0  0  0  0  0  0  0  0  0  0  0
   21.8290   35.6070   68.9010 H   0  0  0  0  0  0  0  0  0  0  0  0
   18.7780   37.6940   69.1960 H   0  0  0  0  0  0  0  0  0  0  0  0
   20.4480   38.0370   69.8990 H   0  0  0  0  0  0  0  0  0  0  0  0
   20.3270   37.3710   68.2570 H   0  0  0  0  0  0  0  0  0  0  0  0
   17.0570   34.2220   71.9260 H   0  0  0  0  0  0  0  0  0  0  0  0
   18.7010   31.1750   70.3700 H   0  0  0  0  0  0  0  0  0  0  0  0
   19.1770   30.5130   71.9240 H   0  0  0  0  0  0  0  0  0  0  0  0
   16.7220   32.1540   70.2770 H   0  0  0  0  0  0  0  0  0  0  0  0
   16.4650   30.6930   71.1870 H   0  0  0  0  0  0  0  0  0  0  0  0
   15.2450   32.3750   72.8160 H   0  0  0  0  0  0  0  0  0  0  0  0
   14.0050   30.6550   71.6590 H   0  0  0  0  0  0  0  0  0  0  0  0
   14.5720   31.3690   70.1320 H   0  0  0  0  0  0  0  0  0  0  0  0
   12.2490   32.1220   71.8080 H   0  0  0  0  0  0  0  0  0  0  0  0
   12.6330   32.5820   70.1360 H   0  0  0  0  0  0  0  0  0  0  0  0
   13.5290   33.9050   72.7180 H   0  0  0  0  0  0  0  0  0  0  0  0
   13.2020   34.6910   71.0810 H   0  0  0  0  0  0  0  0  0  0  0  0
   15.2070   33.6590   70.1590 H   0  0  0  0  0  0  0  0  0  0  0  0
   15.6860   34.4400   71.7270 H   0  0  0  0  0  0  0  0  0  0  0  0
   18.9660   31.7580   73.9020 H   0  0  0  0  0  0  0  0  0  0  0  0
   17.3680   32.3480   74.2250 H   0  0  0  0  0  0  0  0  0  0  0  0
   17.6990   30.2420   75.0130 H   0  0  0  0  0  0  0  0  0  0  0  0
   15.6290   30.4320   74.9940 H   0  0  0  0  0  0  0  0  0  0  0  0
   15.5290   30.9840   73.3320 H   0  0  0  0  0  0  0  0  0  0  0  0
   15.5530   28.2130   74.5180 H   0  0  0  0  0  0  0  0  0  0  0  0
   14.7750   28.7800   72.9820 H   0  0  0  0  0  0  0  0  0  0  0  0
   17.1010   27.2840   73.0900 H   0  0  0  0  0  0  0  0  0  0  0  0
   16.6880   28.3670   71.7290 H   0  0  0  0  0  0  0  0  0  0  0  0
   18.5960   29.3460   72.3740 H   0  0  0  0  0  0  0  0  0  0  0  0
   18.6690   28.5990   73.9650 H   0  0  0  0  0  0  0  0  0  0  0  0
   18.2060   33.5640   74.1090 H   0  0  0  0  0  0  0  0  0  0  0  0
  1  2  1  0  0  0  0
  2  3  1  0  0  0  0
  3  4  2  0  0  0  0
  3 12  1  0  0  0  0
  4  9  1  0  0  0  0
  5 26  1  0  0  0  0
  5  4  1  0  0  0  0
  6  5  2  0  0  0  0
  7  6  1  0  0  0  0
  7  2  2  0  0  0  0
  8  6  1  0  0  0  0
  8 29  1  0  0  0  0
  9 31  1  6  0  0  0
  9 25  1  0  0  0  0
 10  9  1  0  0  0  0
 10 19  1  0  0  0  0
 11 12  1  0  0  0  0
 11 33  1  0  0  0  0
 11 10  1  0  0  0  0
 13 14  1  0  0  0  0
 13 10  1  0  0  0  0
 14 36  1  0  0  0  0
 15 37  1  0  0  0  0
 15 14  1  0  0  0  0
 16 15  1  0  0  0  0
 16 17  1  0  0  0  0
 16 39  1  0  0  0  0
 17 41  1  0  0  0  0
 18 17  1  0  0  0  0
 18 44  1  0  0  0  0
 18 14  1  0  0  0  0
 19 45  1  0  0  0  0
 19 20  1  0  0  0  0
 19 46  1  0  0  0  0
 20 21  1  0  0  0  0
 20 47  1  0  0  0  0
 21 48  1  0  0  0  0
 22 21  1  0  0  0  0
 22 50  1  0  0  0  0
 23 52  1  0  0  0  0
 23 24  1  0  0  0  0
 23 22  1  0  0  0  0
 24 20  1  0  0  0  0
 24 55  1  0  0  0  0
 25 56  1  0  0  0  0
 27  7  1  0  0  0  0
 28  8  1  0  0  0  0
 30  8  1  0  0  0  0
 32 11  1  0  0  0  0
 34 13  1  0  0  0  0
 35 13  1  0  0  0  0
 38 15  1  0  0  0  0
 40 16  1  0  0  0  0
 42 17  1  0  0  0  0
 43 18  1  0  0  0  0
 49 21  1  0  0  0  0
 51 22  1  0  0  0  0
 53 23  1  0  0  0  0
 54 24  1  0  0  0  0
M  END
>  <Pose>
1

>  <Score>
-5.34

$$$$
