
 OpenBabel03212208413D

 56 59  0  0  1  0  0  0  0  0999 V2000
   23.3780   33.3100   69.2960 B   0  0  0  0  0  0  0  0  0  0  0  0
   21.8560   34.4160   69.5790 C   0  0  0  0  0  0  0  0  0  0  0  0
   21.5610   35.4070   68.6640 C   0  0  0  0  0  0  0  0  0  0  0  0
   20.4640   36.2240   68.8430 C   0  0  0  0  0  0  0  0  0  0  0  0
   19.6920   36.0020   69.9650 C   0  0  0  0  0  0  0  0  0  0  0  0
   19.9940   35.0080   70.8750 C   0  0  0  0  0  0  0  0  0  0  0  0
   21.0890   34.1860   70.7040 C   0  0  0  0  0  0  0  0  0  0  0  0
   21.4040   33.1800   71.6150 O   0  0  0  0  0  0  0  0  0  0  0  0
   20.5100   32.0900   71.7250 C   0  0  0  0  0  0  0  0  0  0  0  0
   20.0720   31.8560   73.1490 C   0  0  2  0  0  0  0  0  0  0  0  0
   21.1080   31.5240   73.9830 O   0  0  0  0  0  0  0  0  0  0  0  0
   18.9570   30.8700   73.2070 C   0  0  0  0  0  0  0  0  0  0  0  0
   17.6570   31.4680   73.4140 N   0  0  0  0  0  4  0  0  0  0  0  0
   16.6720   30.4280   73.1740 C   0  0  0  0  0  0  0  0  0  0  0  0
   15.2450   30.9910   73.1120 C   0  0  0  0  0  0  0  0  0  0  0  0
   15.1870   31.9780   72.0940 N   0  0  0  0  0  0  0  0  0  0  0  0
   16.4740   32.2520   71.4230 C   0  0  0  0  0  0  0  0  0  0  0  0
   17.4930   32.5620   72.4680 C   0  0  0  0  0  0  0  0  0  0  0  0
   14.0360   32.6730   71.7070 C   0  0  0  0  0  0  0  0  0  0  0  0
   12.9150   32.0680   72.0660 O   0  0  0  0  0  0  0  0  0  0  0  0
   13.8450   33.9000   71.0020 C   0  0  0  0  0  0  0  0  0  0  0  0
   13.1480   34.0770   69.8410 C   0  0  0  0  0  0  0  0  0  0  0  0
   13.0010   35.3020   69.2050 C   0  0  0  0  0  0  0  0  0  0  0  0
   13.5680   36.4170   69.7340 C   0  0  0  0  0  0  0  0  0  0  0  0
   14.2800   36.2710   70.9070 C   0  0  0  0  0  0  0  0  0  0  0  0
   14.4260   35.0600   71.5350 C   0  0  0  0  0  0  0  0  0  0  0  0
   20.1690   37.2180   67.9250 C   0  0  0  0  0  0  0  0  0  0  0  0
   20.9400   37.4410   66.8030 C   0  0  0  0  0  0  0  0  0  0  0  0
   22.0390   36.6240   66.6230 C   0  0  0  0  0  0  0  0  0  0  0  0
   22.3340   35.6330   67.5380 C   0  0  0  0  0  0  0  0  0  0  0  0
   18.8280   36.6390   70.1130 H   0  0  0  0  0  0  0  0  0  0  0  0
   19.3810   34.8360   71.7590 H   0  0  0  0  0  0  0  0  0  0  0  0
   19.6200   32.3340   71.1100 H   0  0  0  0  0  0  0  0  0  0  0  0
   21.0200   31.1970   71.3020 H   0  0  0  0  0  0  0  0  0  0  0  0
   19.6450   32.8400   73.5030 H   0  0  0  0  0  0  0  0  0  0  0  0
   21.8900   32.1020   73.9220 H   0  0  0  0  0  0  0  0  0  0  0  0
   19.1360   30.1970   74.0880 H   0  0  0  0  0  0  0  0  0  0  0  0
   18.8990   30.2790   72.2770 H   0  0  0  0  0  0  0  0  0  0  0  0
   17.5080   31.8260   74.3810 H   0  0  0  0  0  0  0  0  0  0  0  0
   16.9330   29.8370   72.2820 H   0  0  0  0  0  0  0  0  0  0  0  0
   16.6910   29.7570   74.0580 H   0  0  0  0  0  0  0  0  0  0  0  0
   14.6150   30.1280   72.8260 H   0  0  0  0  0  0  0  0  0  0  0  0
   14.9750   31.3240   74.1300 H   0  0  0  0  0  0  0  0  0  0  0  0
   16.7520   31.3140   70.9110 H   0  0  0  0  0  0  0  0  0  0  0  0
   16.3810   33.0830   70.7280 H   0  0  0  0  0  0  0  0  0  0  0  0
   17.2130   33.5040   72.9810 H   0  0  0  0  0  0  0  0  0  0  0  0
   18.4580   32.7710   71.9390 H   0  0  0  0  0  0  0  0  0  0  0  0
   12.6710   33.2630   69.3560 H   0  0  0  0  0  0  0  0  0  0  0  0
   12.4310   35.3760   68.2810 H   0  0  0  0  0  0  0  0  0  0  0  0
   13.4750   37.3860   69.2660 H   0  0  0  0  0  0  0  0  0  0  0  0
   14.7320   37.1610   71.3260 H   0  0  0  0  0  0  0  0  0  0  0  0
   15.0040   35.0630   72.4470 H   0  0  0  0  0  0  0  0  0  0  0  0
   19.3090   37.8590   68.0650 H   0  0  0  0  0  0  0  0  0  0  0  0
   20.6820   38.2280   66.1030 H   0  0  0  0  0  0  0  0  0  0  0  0
   22.6420   36.8060   65.7360 H   0  0  0  0  0  0  0  0  0  0  0  0
   23.1960   34.9920   67.3950 H   0  0  0  0  0  0  0  0  0  0  0  0
  1  2  1  0  0  0  0
  2  7  1  0  0  0  0
  3  4  1  0  0  0  0
  3  2  2  0  0  0  0
  4  5  2  0  0  0  0
  5 31  1  0  0  0  0
  5  6  1  0  0  0  0
  6 32  1  0  0  0  0
  7  6  2  0  0  0  0
  7  8  1  0  0  0  0
  8  9  1  0  0  0  0
  9 10  1  0  0  0  0
 10 12  1  0  0  0  0
 10 35  1  1  0  0  0
 10 11  1  0  0  0  0
 12 13  1  0  0  0  0
 12 37  1  0  0  0  0
 13 39  1  0  0  0  0
 14 13  1  0  0  0  0
 14 41  1  0  0  0  0
 15 14  1  0  0  0  0
 15 43  1  0  0  0  0
 16 15  1  0  0  0  0
 17 16  1  0  0  0  0
 17 18  1  0  0  0  0
 18 46  1  0  0  0  0
 18 13  1  0  0  0  0
 19 20  2  0  0  0  0
 19 16  1  0  0  0  0
 21 26  1  0  0  0  0
 21 19  1  0  0  0  0
 22 21  2  0  0  0  0
 23 24  2  0  0  0  0
 23 22  1  0  0  0  0
 24 25  1  0  0  0  0
 25 51  1  0  0  0  0
 25 26  2  0  0  0  0
 26 52  1  0  0  0  0
 27 53  1  0  0  0  0
 27  4  1  0  0  0  0
 28 27  2  0  0  0  0
 29 28  1  0  0  0  0
 29 30  2  0  0  0  0
 30  3  1  0  0  0  0
 33  9  1  0  0  0  0
 34  9  1  0  0  0  0
 36 11  1  0  0  0  0
 38 12  1  0  0  0  0
 40 14  1  0  0  0  0
 42 15  1  0  0  0  0
 44 17  1  0  0  0  0
 45 17  1  0  0  0  0
 47 18  1  0  0  0  0
 48 22  1  0  0  0  0
 49 23  1  0  0  0  0
 50 24  1  0  0  0  0
 54 28  1  0  0  0  0
 55 29  1  0  0  0  0
 56 30  1  0  0  0  0
M  END
>  <Pose>
1

>  <Score>
-6.67

$$$$
