
 OpenBabel03212208413D

 43 46  0  0  0  0  0  0  0  0999 V2000
   17.7990   33.3460   73.0830 B   0  0  0  0  0  0  0  0  0  0  0  0
   16.3510   34.0970   72.1000 C   0  0  0  0  0  0  0  0  0  0  0  0
   15.0820   33.5880   72.1420 N   0  0  0  0  0  0  0  0  0  0  0  0
   14.3660   34.3870   71.3260 C   0  0  0  0  0  0  0  0  0  0  0  0
   15.1640   35.3780   70.7790 C   0  0  0  0  0  0  0  0  0  0  0  0
   16.3970   35.1630   71.2870 N   0  0  0  0  0  0  0  0  0  0  0  0
   14.7220   36.3240   69.9330 N   0  0  0  0  0  0  0  0  0  0  0  0
   13.4160   36.2830   69.6150 C   0  0  0  0  0  0  0  0  0  0  0  0
   12.9470   37.1590   68.8140 O   0  0  0  0  0  0  0  0  0  0  0  0
   12.6040   35.3380   70.1240 N   0  0  0  0  0  0  0  0  0  0  0  0
   13.0490   34.3780   70.9820 C   0  0  0  0  0  0  0  0  0  0  0  0
   12.2830   33.5090   71.4470 O   0  0  0  0  0  0  0  0  0  0  0  0
   15.5640   37.3560   69.3650 C   0  0  0  0  0  0  0  0  0  0  0  0
   14.6760   32.4450   72.9340 C   0  0  0  0  0  0  0  0  0  0  0  0
   15.6150   31.2780   72.8450 C   0  0  0  0  0  0  0  0  0  0  0  0
   15.0190   30.0390   72.2420 C   0  0  0  0  0  0  0  0  0  0  0  0
   14.7040   29.0770   73.2900 N   0  0  0  0  0  0  0  0  0  0  0  0
   15.3290   27.9120   73.5750 C   0  0  0  0  0  0  0  0  0  0  0  0
   14.7230   27.2950   74.6440 C   0  0  0  0  0  0  0  0  0  0  0  0
   13.7130   28.1080   75.0060 N   0  0  0  0  0  0  0  0  0  0  0  0
   13.7090   29.1800   74.1840 C   0  0  0  0  0  0  0  0  0  0  0  0
   12.4970   30.6550   74.2360 B   0  0  0  0  0  0  0  0  0  0  0  0
   15.1280   26.1170   75.1540 N   0  0  0  0  0  0  0  0  0  0  0  0
   16.1960   25.5340   74.5560 C   0  0  0  0  0  0  0  0  0  0  0  0
   16.5810   24.4240   75.0350 O   0  0  0  0  0  0  0  0  0  0  0  0
   16.8200   26.1050   73.5050 N   0  0  0  0  0  0  0  0  0  0  0  0
   16.4060   27.2860   73.0020 C   0  0  0  0  0  0  0  0  0  0  0  0
   16.9640   27.8440   72.0260 O   0  0  0  0  0  0  0  0  0  0  0  0
   14.4510   25.4980   76.2920 C   0  0  0  0  0  0  0  0  0  0  0  0
   11.5900   35.2910   69.8880 H   0  0  0  0  0  0  0  0  0  0  0  0
   16.6400   37.1100   69.4770 H   0  0  0  0  0  0  0  0  0  0  0  0
   15.3870   37.3690   68.2520 H   0  0  0  0  0  0  0  0  0  0  0  0
   15.3910   38.3510   69.8220 H   0  0  0  0  0  0  0  0  0  0  0  0
   13.6270   32.1670   72.6900 H   0  0  0  0  0  0  0  0  0  0  0  0
   14.7080   32.7820   74.0110 H   0  0  0  0  0  0  0  0  0  0  0  0
   16.1020   31.0630   73.8220 H   0  0  0  0  0  0  0  0  0  0  0  0
   16.4670   31.5770   72.1630 H   0  0  0  0  0  0  0  0  0  0  0  0
   14.0180   30.3080   71.7900 H   0  0  0  0  0  0  0  0  0  0  0  0
   15.6660   29.5890   71.4910 H   0  0  0  0  0  0  0  0  0  0  0  0
   17.6340   25.6130   73.0880 H   0  0  0  0  0  0  0  0  0  0  0  0
   14.5710   26.1120   77.2100 H   0  0  0  0  0  0  0  0  0  0  0  0
   13.3660   25.3840   76.1050 H   0  0  0  0  0  0  0  0  0  0  0  0
   14.9470   24.5320   76.4730 H   0  0  0  0  0  0  0  0  0  0  0  0
  2  3  1  0  0  0  0
  2  1  1  0  0  0  0
  3 14  1  0  0  0  0
  4  3  1  0  0  0  0
  5  6  1  0  0  0  0
  5  4  2  0  0  0  0
  6  2  2  0  0  0  0
  7  5  1  0  0  0  0
  8  7  1  0  0  0  0
  8 10  1  0  0  0  0
  9  8  2  0  0  0  0
 10 11  1  0  0  0  0
 11  4  1  0  0  0  0
 11 12  2  0  0  0  0
 13 31  1  0  0  0  0
 13 33  1  0  0  0  0
 13  7  1  0  0  0  0
 14 35  1  0  0  0  0
 15 14  1  0  0  0  0
 15 36  1  0  0  0  0
 16 15  1  0  0  0  0
 16 17  1  0  0  0  0
 17 18  1  0  0  0  0
 17 21  1  0  0  0  0
 18 19  2  0  0  0  0
 19 20  1  0  0  0  0
 19 23  1  0  0  0  0
 21 22  1  0  0  0  0
 21 20  2  0  0  0  0
 23 29  1  0  0  0  0
 24 25  2  0  0  0  0
 24 23  1  0  0  0  0
 26 24  1  0  0  0  0
 27 26  1  0  0  0  0
 27 18  1  0  0  0  0
 28 27  2  0  0  0  0
 29 43  1  0  0  0  0
 29 41  1  0  0  0  0
 30 10  1  0  0  0  0
 32 13  1  0  0  0  0
 34 14  1  0  0  0  0
 37 15  1  0  0  0  0
 38 16  1  0  0  0  0
 39 16  1  0  0  0  0
 40 26  1  0  0  0  0
 42 29  1  0  0  0  0
M  END
>  <Pose>
1

>  <Score>
-7.68

$$$$
