
 OpenBabel03212208413D

 40 43  0  0  0  0  0  0  0  0999 V2000
   12.4310   30.8400   74.4240 B   0  0  0  0  0  0  0  0  0  0  0  0
   13.8330   29.6190   73.9880 C   0  0  0  0  0  0  0  0  0  0  0  0
   14.7420   29.8580   73.0130 N   0  0  0  0  0  0  0  0  0  0  0  0
   15.5650   28.7840   72.9970 C   0  0  0  0  0  0  0  0  0  0  0  0
   15.1710   27.8660   73.9660 C   0  0  0  0  0  0  0  0  0  0  0  0
   14.0920   28.4300   74.5540 N   0  0  0  0  0  0  0  0  0  0  0  0
   15.8430   26.7150   74.1470 N   0  0  0  0  0  0  0  0  0  0  0  0
   16.9170   26.4240   73.3920 C   0  0  0  0  0  0  0  0  0  0  0  0
   17.5580   25.3380   73.5550 O   0  0  0  0  0  0  0  0  0  0  0  0
   17.3440   27.2750   72.4410 N   0  0  0  0  0  0  0  0  0  0  0  0
   16.6690   28.4390   72.2550 C   0  0  0  0  0  0  0  0  0  0  0  0
   17.0420   29.2660   71.3720 O   0  0  0  0  0  0  0  0  0  0  0  0
   15.4400   25.7570   75.1500 C   0  0  0  0  0  0  0  0  0  0  0  0
   14.7900   31.0290   72.2050 C   0  0  0  0  0  0  0  0  0  0  0  0
   14.8430   32.3370   72.9110 C   0  0  0  0  0  0  0  0  0  0  0  0
   15.1710   33.4960   72.1590 N   0  0  0  0  0  0  0  0  0  0  0  0
   14.3540   34.2370   71.3920 C   0  0  0  0  0  0  0  0  0  0  0  0
   15.0770   35.2690   70.8310 C   0  0  0  0  0  0  0  0  0  0  0  0
   16.3320   35.1030   71.2970 N   0  0  0  0  0  0  0  0  0  0  0  0
   16.4190   34.0470   72.0970 C   0  0  0  0  0  0  0  0  0  0  0  0
   17.9840   33.3910   73.0090 B   0  0  0  0  0  0  0  0  0  0  0  0
   14.4790   36.1500   70.0300 N   0  0  0  0  0  0  0  0  0  0  0  0
   13.1760   36.0460   69.7590 C   0  0  0  0  0  0  0  0  0  0  0  0
   12.5760   36.8720   68.9950 O   0  0  0  0  0  0  0  0  0  0  0  0
   12.4030   35.0690   70.2670 N   0  0  0  0  0  0  0  0  0  0  0  0
   13.0060   34.1860   71.0730 C   0  0  0  0  0  0  0  0  0  0  0  0
   12.2940   33.2760   71.5520 O   0  0  0  0  0  0  0  0  0  0  0  0
   15.2250   37.2340   69.4340 C   0  0  0  0  0  0  0  0  0  0  0  0
   18.1750   27.0700   71.8450 H   0  0  0  0  0  0  0  0  0  0  0  0
   16.2680   25.6580   75.8980 H   0  0  0  0  0  0  0  0  0  0  0  0
   15.2230   24.8080   74.6360 H   0  0  0  0  0  0  0  0  0  0  0  0
   14.4990   26.1090   75.6410 H   0  0  0  0  0  0  0  0  0  0  0  0
   14.0020   31.0090   71.4140 H   0  0  0  0  0  0  0  0  0  0  0  0
   15.7470   30.9800   71.5920 H   0  0  0  0  0  0  0  0  0  0  0  0
   15.4900   32.2100   73.8210 H   0  0  0  0  0  0  0  0  0  0  0  0
   13.8020   32.5040   73.3310 H   0  0  0  0  0  0  0  0  0  0  0  0
   11.3780   35.0160   70.0340 H   0  0  0  0  0  0  0  0  0  0  0  0
   16.0730   37.4530   70.1100 H   0  0  0  0  0  0  0  0  0  0  0  0
   15.5860   37.0260   68.4250 H   0  0  0  0  0  0  0  0  0  0  0  0
   14.6200   38.1750   69.3970 H   0  0  0  0  0  0  0  0  0  0  0  0
  2  1  1  0  0  0  0
  2  6  2  0  0  0  0
  3  2  1  0  0  0  0
  4  3  1  0  0  0  0
  4  5  2  0  0  0  0
  5  7  1  0  0  0  0
  5  6  1  0  0  0  0
  7 13  1  0  0  0  0
  8  9  2  0  0  0  0
  8  7  1  0  0  0  0
 10  8  1  0  0  0  0
 11 10  1  0  0  0  0
 11  4  1  0  0  0  0
 12 11  2  0  0  0  0
 13 32  1  0  0  0  0
 13 30  1  0  0  0  0
 14 15  1  0  0  0  0
 14  3  1  0  0  0  0
 15 36  1  0  0  0  0
 15 35  1  0  0  0  0
 16 15  1  0  0  0  0
 17 16  1  0  0  0  0
 18 19  1  0  0  0  0
 18 17  2  0  0  0  0
 19 20  2  0  0  0  0
 20 16  1  0  0  0  0
 20 21  1  0  0  0  0
 22 18  1  0  0  0  0
 23 22  1  0  0  0  0
 23 25  1  0  0  0  0
 24 23  2  0  0  0  0
 25 26  1  0  0  0  0
 26 17  1  0  0  0  0
 26 27  2  0  0  0  0
 28 22  1  0  0  0  0
 28 38  1  0  0  0  0
 29 10  1  0  0  0  0
 31 13  1  0  0  0  0
 33 14  1  0  0  0  0
 34 14  1  0  0  0  0
 37 25  1  0  0  0  0
 39 28  1  0  0  0  0
 40 28  1  0  0  0  0
M  END
>  <Pose>
1

>  <Score>
-7.56

$$$$
