
 OpenBabel03212208413D

 50 54  0  0  1  0  0  0  0  0999 V2000
   12.6720   36.2450   69.1630 B   0  0  0  0  0  0  0  0  0  0  0  0
   13.4200   34.7510   70.1030 C   0  0  0  0  0  0  0  0  0  0  0  0
   14.7180   34.5060   70.3580 N   0  0  0  0  0  0  0  0  0  0  0  0
   14.8580   33.3730   71.0340 N   0  0  0  0  0  0  0  0  0  0  0  0
   13.6100   32.9000   71.2030 C   0  0  0  0  0  0  0  0  0  0  0  0
   12.7170   33.7290   70.6410 N   0  0  0  0  0  0  0  0  0  0  0  0
   16.1030   32.7620   71.4980 C   0  0  2  0  0  0  0  0  0  0  0  0
   17.2760   33.5100   70.9060 C   0  0  0  0  0  0  0  0  0  0  0  0
   18.5470   33.0310   71.5450 C   0  0  2  0  0  0  0  0  0  0  0  0
   18.7180   31.5690   71.1100 C   0  0  0  0  0  0  0  0  0  0  0  0
   17.5180   30.7840   71.5760 C   0  0  2  0  0  0  0  0  0  0  0  0
   16.2180   31.3240   71.0400 C   0  0  0  0  0  0  0  0  0  0  0  0
   17.5000   30.7830   73.0710 C   0  0  0  0  0  0  0  0  0  0  0  0
   17.3690   32.2110   73.5520 C   0  0  2  0  0  0  0  0  0  0  0  0
   16.1050   32.7750   72.9950 C   0  0  0  0  0  0  0  0  0  0  0  0
   18.5270   33.0360   73.0370 C   0  0  0  0  0  0  0  0  0  0  0  0
   19.7160   33.8050   71.0750 C   0  0  0  0  0  0  0  0  0  0  0  0
   20.6840   33.1720   70.5810 O   0  0  0  0  0  0  0  0  0  0  0  0
   19.7440   35.2260   71.1790 N   0  0  0  0  0  0  0  0  0  0  0  0
   19.7550   36.1220   70.0780 C   0  0  0  0  0  0  0  0  0  0  0  0
   20.4650   35.9250   68.9280 C   0  0  0  0  0  0  0  0  0  0  0  0
   20.2240   36.9860   68.1220 N   0  0  0  0  0  0  0  0  0  0  0  0
   19.4020   37.8080   68.7400 N   0  0  0  0  0  0  0  0  0  0  0  0
   19.0870   37.3210   69.9450 C   0  0  0  0  0  0  0  0  0  0  0  0
   20.7530   37.2310   66.7920 C   0  0  0  0  0  0  0  0  0  0  0  0
   21.3390   34.8430   68.5200 C   0  0  0  0  0  0  0  0  0  0  0  0
   22.5800   35.0110   68.4170 O   0  0  0  0  0  0  0  0  0  0  0  0
   20.8750   33.5360   68.2120 N   0  0  0  0  0  0  0  0  0  0  0  0
   13.3600   31.9840   71.7180 H   0  0  0  0  0  0  0  0  0  0  0  0
   17.3250   33.1900   69.8250 H   0  0  0  0  0  0  0  0  0  0  0  0
   17.1530   34.5930   70.8990 H   0  0  0  0  0  0  0  0  0  0  0  0
   19.6120   31.1240   71.5560 H   0  0  0  0  0  0  0  0  0  0  0  0
   18.7810   31.4700   70.0200 H   0  0  0  0  0  0  0  0  0  0  0  0
   17.6200   29.7420   71.2210 H   0  0  0  0  0  0  0  0  0  0  0  0
   16.1420   31.2160   69.9440 H   0  0  0  0  0  0  0  0  0  0  0  0
   15.4040   30.7340   71.4880 H   0  0  0  0  0  0  0  0  0  0  0  0
   18.4230   30.2970   73.4690 H   0  0  0  0  0  0  0  0  0  0  0  0
   16.6490   30.1910   73.4530 H   0  0  0  0  0  0  0  0  0  0  0  0
   17.3520   32.2890   74.6480 H   0  0  0  0  0  0  0  0  0  0  0  0
   15.2530   32.1760   73.3450 H   0  0  0  0  0  0  0  0  0  0  0  0
   15.9990   33.8130   73.3710 H   0  0  0  0  0  0  0  0  0  0  0  0
   18.4080   34.0820   73.3890 H   0  0  0  0  0  0  0  0  0  0  0  0
   19.4500   32.5530   73.3960 H   0  0  0  0  0  0  0  0  0  0  0  0
   19.7590   35.6160   72.1400 H   0  0  0  0  0  0  0  0  0  0  0  0
   18.4260   37.7720   70.6930 H   0  0  0  0  0  0  0  0  0  0  0  0
   20.1540   38.0290   66.3120 H   0  0  0  0  0  0  0  0  0  0  0  0
   20.5190   36.3100   66.1890 H   0  0  0  0  0  0  0  0  0  0  0  0
   21.8340   37.4730   66.8010 H   0  0  0  0  0  0  0  0  0  0  0  0
   19.8770   33.4360   67.8640 H   0  0  0  0  0  0  0  0  0  0  0  0
   21.4350   32.6670   68.3020 H   0  0  0  0  0  0  0  0  0  0  0  0
  1  2  1  0  0  0  0
  2  3  2  0  0  0  0
  2  6  1  0  0  0  0
  3  4  1  0  0  0  0
  4  5  1  0  0  0  0
  5 29  1  0  0  0  0
  6  5  2  0  0  0  0
  7  4  1  6  0  0  0
  7 15  1  0  0  0  0
  8  7  1  0  0  0  0
  8  9  1  0  0  0  0
  9 17  1  6  0  0  0
  9 16  1  0  0  0  0
 10  9  1  0  0  0  0
 10 32  1  0  0  0  0
 10 11  1  0  0  0  0
 11 34  1  6  0  0  0
 11 13  1  0  0  0  0
 12 36  1  0  0  0  0
 12  7  1  0  0  0  0
 12 11  1  0  0  0  0
 13 38  1  0  0  0  0
 13 37  1  0  0  0  0
 13 14  1  0  0  0  0
 14 39  1  1  0  0  0
 15 40  1  0  0  0  0
 15 41  1  0  0  0  0
 15 14  1  0  0  0  0
 16 42  1  0  0  0  0
 16 43  1  0  0  0  0
 16 14  1  0  0  0  0
 17 19  1  0  0  0  0
 18 17  2  0  0  0  0
 19 44  1  0  0  0  0
 20 19  1  0  0  0  0
 21 20  2  0  0  0  0
 22 23  1  0  0  0  0
 22 21  1  0  0  0  0
 23 24  2  0  0  0  0
 24 20  1  0  0  0  0
 24 45  1  0  0  0  0
 25 48  1  0  0  0  0
 25 22  1  0  0  0  0
 26 21  1  0  0  0  0
 27 26  2  0  0  0  0
 28 50  1  0  0  0  0
 28 26  1  0  0  0  0
 30  8  1  0  0  0  0
 31  8  1  0  0  0  0
 33 10  1  0  0  0  0
 35 12  1  0  0  0  0
 46 25  1  0  0  0  0
 47 25  1  0  0  0  0
 49 28  1  0  0  0  0
M  END
>  <Pose>
1

>  <Score>
-6.25

$$$$
