
 OpenBabel03212208413D

 37 40  0  0  1  0  0  0  0  0999 V2000
   16.5000   31.1950   69.2550 B   0  0  0  0  0  0  0  0  0  0  0  0
   18.0500   31.6800   70.2480 C   0  0  0  0  0  0  0  0  0  0  0  0
   19.3340   31.3630   69.9690 N   0  0  0  0  0  0  0  0  0  0  0  0
   20.1590   31.8850   70.8470 N   0  0  0  0  0  0  0  0  0  0  0  0
   19.3950   32.5600   71.7240 C   0  0  0  0  0  0  0  0  0  0  0  0
   19.7090   33.2870   72.8010 N   0  0  0  0  0  0  0  0  0  0  0  0
   18.7640   33.9000   73.5360 C   0  0  0  0  0  0  0  0  0  0  0  0
   17.4640   33.7970   73.2050 N   0  0  0  0  0  0  0  0  0  0  0  0
   17.0650   33.0690   72.1170 C   0  0  0  0  0  0  0  0  0  0  0  0
   18.0410   32.4560   71.3820 C   0  0  0  0  0  0  0  0  0  0  0  0
   15.6600   32.9460   71.8470 N   0  0  0  0  0  0  0  0  0  0  0  0
   14.9280   31.7630   72.1700 C   0  0  1  0  0  0  0  0  0  0  0  0
   13.7950   31.5030   71.2530 C   0  0  0  0  0  0  0  0  0  0  0  0
   13.4650   32.4910   70.3670 O   0  0  0  0  0  0  0  0  0  0  0  0
   13.6080   33.7680   70.8980 C   0  0  0  0  0  0  0  0  0  0  0  0
   15.0250   34.0820   71.2530 C   0  0  0  0  0  0  0  0  0  0  0  0
   15.8220   30.5980   72.3540 C   0  0  0  0  0  0  0  0  0  0  0  0
   16.8460   30.5220   73.2060 N   0  0  0  0  0  0  0  0  0  0  0  0
   17.3890   29.2820   73.0440 C   0  0  0  0  0  0  0  0  0  0  0  0
   16.6610   28.6670   72.0950 N   0  0  0  0  0  0  0  0  0  0  0  0
   15.7260   29.4790   71.6960 O   0  0  0  0  0  0  0  0  0  0  0  0
   18.5510   28.7110   73.7630 C   0  0  0  0  0  0  0  0  0  0  0  0
   21.6040   31.7470   70.8510 C   0  0  0  0  0  0  0  0  0  0  0  0
   19.1020   34.4770   74.4040 H   0  0  0  0  0  0  0  0  0  0  0  0
   14.4310   32.0030   73.1880 H   0  0  0  0  0  0  0  0  0  0  0  0
   12.8740   31.1300   71.8000 H   0  0  0  0  0  0  0  0  0  0  0  0
   14.0790   30.6000   70.6300 H   0  0  0  0  0  0  0  0  0  0  0  0
   13.2880   34.4800   70.1040 H   0  0  0  0  0  0  0  0  0  0  0  0
   12.9050   33.9400   71.7510 H   0  0  0  0  0  0  0  0  0  0  0  0
   15.6010   34.4980   70.3910 H   0  0  0  0  0  0  0  0  0  0  0  0
   15.0740   34.9020   72.0340 H   0  0  0  0  0  0  0  0  0  0  0  0
   19.2580   29.5510   74.0160 H   0  0  0  0  0  0  0  0  0  0  0  0
   19.1160   27.9930   73.1430 H   0  0  0  0  0  0  0  0  0  0  0  0
   18.2540   28.2270   74.7260 H   0  0  0  0  0  0  0  0  0  0  0  0
   21.8910   30.8940   70.2060 H   0  0  0  0  0  0  0  0  0  0  0  0
   21.9470   31.5380   71.8950 H   0  0  0  0  0  0  0  0  0  0  0  0
   22.1090   32.6490   70.4220 H   0  0  0  0  0  0  0  0  0  0  0  0
  1  2  1  0  0  0  0
  2 10  1  0  0  0  0
  3  2  2  0  0  0  0
  3  4  1  0  0  0  0
  4 23  1  0  0  0  0
  4  5  1  0  0  0  0
  5  6  1  0  0  0  0
  6  7  2  0  0  0  0
  7 24  1  0  0  0  0
  8  7  1  0  0  0  0
  9  8  2  0  0  0  0
 10  5  2  0  0  0  0
 10  9  1  0  0  0  0
 11  9  1  0  0  0  0
 11 12  1  0  0  0  0
 12 17  1  0  0  0  0
 12 25  1  1  0  0  0
 13 26  1  0  0  0  0
 13 12  1  0  0  0  0
 14 15  1  0  0  0  0
 14 13  1  0  0  0  0
 15 16  1  0  0  0  0
 15 29  1  0  0  0  0
 16 11  1  0  0  0  0
 16 31  1  0  0  0  0
 17 18  2  0  0  0  0
 19 18  1  0  0  0  0
 19 22  1  0  0  0  0
 20 19  2  0  0  0  0
 21 20  1  0  0  0  0
 21 17  1  0  0  0  0
 22 32  1  0  0  0  0
 22 34  1  0  0  0  0
 23 36  1  0  0  0  0
 27 13  1  0  0  0  0
 28 15  1  0  0  0  0
 30 16  1  0  0  0  0
 33 22  1  0  0  0  0
 35 23  1  0  0  0  0
 37 23  1  0  0  0  0
M  END
>  <Pose>
1

>  <Score>
-4.99

$$$$
