
 OpenBabel03212208413D

 35 38  0  0  0  0  0  0  0  0999 V2000
   16.8190   36.7500   70.0110 B   0  0  0  0  0  0  0  0  0  0  0  0
   14.9790   36.2780   70.1340 C   0  0  0  0  0  0  0  0  0  0  0  0
   13.9250   37.0500   69.7370 N   0  0  0  0  0  0  0  0  0  0  0  0
   12.8140   36.3890   69.9550 N   0  0  0  0  0  0  0  0  0  0  0  0
   13.0920   35.1890   70.4900 C   0  0  0  0  0  0  0  0  0  0  0  0
   12.3400   34.1480   70.8820 N   0  0  0  0  0  0  0  0  0  0  0  0
   12.8790   33.0400   71.3820 C   0  0  0  0  0  0  0  0  0  0  0  0
   14.1990   32.9460   71.5050 N   0  0  0  0  0  0  0  0  0  0  0  0
   15.0610   33.9500   71.1360 C   0  0  0  0  0  0  0  0  0  0  0  0
   14.4870   35.0850   70.6200 C   0  0  0  0  0  0  0  0  0  0  0  0
   16.4380   33.8200   71.3220 N   0  0  0  0  0  0  0  0  0  0  0  0
   17.1550   34.6740   72.2430 C   0  0  0  0  0  0  0  0  0  0  0  0
   17.5420   33.8070   73.4600 C   0  0  0  0  0  0  0  0  0  0  0  0
   17.9080   32.4510   72.9960 C   0  0  0  0  0  0  0  0  0  0  0  0
   18.4270   31.4500   73.7440 N   0  0  0  0  0  0  0  0  0  0  0  0
   18.6120   30.3910   72.9380 C   0  0  0  0  0  0  0  0  0  0  0  0
   18.2280   30.6830   71.6970 N   0  0  0  0  0  0  0  0  0  0  0  0
   17.7900   31.9610   71.7300 C   0  0  0  0  0  0  0  0  0  0  0  0
   17.2430   32.8270   70.6580 C   0  0  0  0  0  0  0  0  0  0  0  0
   18.7440   31.4580   75.1490 C   0  0  0  0  0  0  0  0  0  0  0  0
   11.4340   36.8210   69.6850 C   0  0  0  0  0  0  0  0  0  0  0  0
   12.2530   32.2300   71.6840 H   0  0  0  0  0  0  0  0  0  0  0  0
   16.5670   35.5110   72.6380 H   0  0  0  0  0  0  0  0  0  0  0  0
   18.0900   35.0890   71.7990 H   0  0  0  0  0  0  0  0  0  0  0  0
   16.7040   33.7410   74.1790 H   0  0  0  0  0  0  0  0  0  0  0  0
   18.3700   34.3410   73.9590 H   0  0  0  0  0  0  0  0  0  0  0  0
   19.0190   29.4070   73.2200 H   0  0  0  0  0  0  0  0  0  0  0  0
   16.6850   32.2590   69.8880 H   0  0  0  0  0  0  0  0  0  0  0  0
   18.1380   33.3460   70.2030 H   0  0  0  0  0  0  0  0  0  0  0  0
   18.4270   30.5160   75.6450 H   0  0  0  0  0  0  0  0  0  0  0  0
   19.8520   31.5130   75.2850 H   0  0  0  0  0  0  0  0  0  0  0  0
   18.2260   32.2960   75.6720 H   0  0  0  0  0  0  0  0  0  0  0  0
   10.9280   36.0720   69.0450 H   0  0  0  0  0  0  0  0  0  0  0  0
   11.4550   37.8210   69.2180 H   0  0  0  0  0  0  0  0  0  0  0  0
   10.8880   36.9260   70.6500 H   0  0  0  0  0  0  0  0  0  0  0  0
  1  2  1  0  0  0  0
  2 10  1  0  0  0  0
  3  4  1  0  0  0  0
  3  2  2  0  0  0  0
  4  5  1  0  0  0  0
  5 10  2  0  0  0  0
  5  6  1  0  0  0  0
  6  7  2  0  0  0  0
  7  8  1  0  0  0  0
  7 22  1  0  0  0  0
  9 11  1  0  0  0  0
  9  8  2  0  0  0  0
 10  9  1  0  0  0  0
 11 12  1  0  0  0  0
 12 23  1  0  0  0  0
 12 13  1  0  0  0  0
 13 26  1  0  0  0  0
 13 25  1  0  0  0  0
 14 13  1  0  0  0  0
 14 15  1  0  0  0  0
 15 20  1  0  0  0  0
 16 27  1  0  0  0  0
 16 15  1  0  0  0  0
 17 18  1  0  0  0  0
 17 16  2  0  0  0  0
 18 14  2  0  0  0  0
 19 11  1  0  0  0  0
 19 18  1  0  0  0  0
 20 31  1  0  0  0  0
 20 30  1  0  0  0  0
 20 32  1  0  0  0  0
 21  4  1  0  0  0  0
 21 35  1  0  0  0  0
 24 12  1  0  0  0  0
 28 19  1  0  0  0  0
 29 19  1  0  0  0  0
 33 21  1  0  0  0  0
 34 21  1  0  0  0  0
M  END
>  <Pose>
1

>  <Score>
-5.35

$$$$
