
 OpenBabel03212208413D

 53 56  0  0  1  0  0  0  0  0999 V2000
   13.9840   31.7600   71.5290 B   0  0  0  0  0  0  0  0  0  0  0  0
   13.4950   33.4920   70.9330 C   0  0  0  0  0  0  0  0  0  0  0  0
   12.2680   33.9630   70.6460 N   0  0  0  0  0  0  0  0  0  0  0  0
   12.3050   35.2040   70.2440 N   0  0  0  0  0  0  0  0  0  0  0  0
   13.5950   35.5930   70.2560 C   0  0  0  0  0  0  0  0  0  0  0  0
   14.2110   36.7440   69.9360 N   0  0  0  0  0  0  0  0  0  0  0  0
   15.5360   36.8950   70.0210 C   0  0  0  0  0  0  0  0  0  0  0  0
   16.2790   35.8760   70.4370 N   0  0  0  0  0  0  0  0  0  0  0  0
   15.7510   34.6780   70.7820 C   0  0  0  0  0  0  0  0  0  0  0  0
   14.3720   34.5240   70.6920 C   0  0  0  0  0  0  0  0  0  0  0  0
   16.5590   33.6350   71.2500 N   0  0  0  0  0  0  0  0  0  0  0  0
   16.6050   33.2820   72.6400 C   0  0  0  0  0  0  0  0  0  0  0  0
   17.9760   33.7620   73.1260 C   0  0  0  0  0  0  0  0  0  0  0  0
   18.8960   33.9420   71.9970 N   0  0  0  0  0  0  0  0  0  0  0  0
   18.7610   32.8160   71.0710 C   0  0  0  0  0  0  0  0  0  0  0  0
   17.4150   32.8760   70.3720 C   0  0  0  0  0  0  0  0  0  0  0  0
   20.2400   33.9150   72.5550 C   0  0  2  0  0  0  0  0  0  0  0  0
   20.3400   35.1110   73.5400 C   0  0  0  0  0  0  0  0  0  0  0  0
   21.2570   34.0900   71.5040 C   0  0  0  0  0  0  0  0  0  0  0  0
   22.1210   33.1180   71.4540 O   0  0  0  0  0  0  0  0  0  0  0  0
   21.4030   35.1440   70.5880 N   0  0  0  0  0  0  0  0  0  0  0  0
   20.8850   36.4760   70.6690 C   0  0  0  0  0  0  0  0  0  0  0  0
   20.2570   36.9820   69.3870 C   0  0  0  0  0  0  0  0  0  0  0  0
   20.9220   36.5030   68.1430 C   0  0  0  0  0  0  0  0  0  0  0  0
   21.2690   35.0300   68.2050 C   0  0  0  0  0  0  0  0  0  0  0  0
   22.2050   34.8680   69.3740 C   0  0  0  0  0  0  0  0  0  0  0  0
   11.2190   36.0840   69.8380 C   0  0  0  0  0  0  0  0  0  0  0  0
   16.0120   37.8630   69.7460 H   0  0  0  0  0  0  0  0  0  0  0  0
   16.7190   32.1540   72.6900 H   0  0  0  0  0  0  0  0  0  0  0  0
   15.7990   33.6590   73.2630 H   0  0  0  0  0  0  0  0  0  0  0  0
   17.8220   34.7670   73.5590 H   0  0  0  0  0  0  0  0  0  0  0  0
   18.3950   33.1180   73.9200 H   0  0  0  0  0  0  0  0  0  0  0  0
   19.5410   32.9340   70.3050 H   0  0  0  0  0  0  0  0  0  0  0  0
   18.8360   31.8530   71.5850 H   0  0  0  0  0  0  0  0  0  0  0  0
   17.5040   33.2600   69.3610 H   0  0  0  0  0  0  0  0  0  0  0  0
   16.9750   31.8340   70.3310 H   0  0  0  0  0  0  0  0  0  0  0  0
   20.4220   32.9880   73.1020 H   0  0  0  0  0  0  0  0  0  0  0  0
   19.6540   35.9170   73.2150 H   0  0  0  0  0  0  0  0  0  0  0  0
   21.3600   35.5270   73.5220 H   0  0  0  0  0  0  0  0  0  0  0  0
   20.1070   34.7800   74.5600 H   0  0  0  0  0  0  0  0  0  0  0  0
   21.7960   37.1300   70.8730 H   0  0  0  0  0  0  0  0  0  0  0  0
   20.1840   36.6700   71.4720 H   0  0  0  0  0  0  0  0  0  0  0  0
   20.3690   38.1000   69.4090 H   0  0  0  0  0  0  0  0  0  0  0  0
   19.1750   36.7990   69.3880 H   0  0  0  0  0  0  0  0  0  0  0  0
   21.8330   37.0950   67.9460 H   0  0  0  0  0  0  0  0  0  0  0  0
   20.2370   36.6510   67.2960 H   0  0  0  0  0  0  0  0  0  0  0  0
   20.3270   34.4460   68.3440 H   0  0  0  0  0  0  0  0  0  0  0  0
   21.7500   34.7570   67.2520 H   0  0  0  0  0  0  0  0  0  0  0  0
   22.6710   33.8790   69.4100 H   0  0  0  0  0  0  0  0  0  0  0  0
   22.9910   35.6410   69.2940 H   0  0  0  0  0  0  0  0  0  0  0  0
   11.2870   36.3340   68.7480 H   0  0  0  0  0  0  0  0  0  0  0  0
   11.3430   37.0310   70.3890 H   0  0  0  0  0  0  0  0  0  0  0  0
   10.2400   35.6000   69.9790 H   0  0  0  0  0  0  0  0  0  0  0  0
  2  1  1  0  0  0  0
  3  2  2  0  0  0  0
  4  5  1  0  0  0  0
  4  3  1  0  0  0  0
  5 10  2  0  0  0  0
  6  7  2  0  0  0  0
  6  5  1  0  0  0  0
  7  8  1  0  0  0  0
  8  9  2  0  0  0  0
  9 11  1  0  0  0  0
 10  9  1  0  0  0  0
 10  2  1  0  0  0  0
 11 12  1  0  0  0  0
 12 29  1  0  0  0  0
 12 13  1  0  0  0  0
 12 30  1  0  0  0  0
 13 31  1  0  0  0  0
 13 32  1  0  0  0  0
 14 17  1  0  0  0  0
 14 13  1  0  0  0  0
 15 34  1  0  0  0  0
 15 14  1  0  0  0  0
 16 15  1  0  0  0  0
 16 11  1  0  0  0  0
 17 37  1  1  0  0  0
 17 18  1  0  0  0  0
 18 40  1  0  0  0  0
 19 17  1  0  0  0  0
 20 19  2  0  0  0  0
 21 22  1  0  0  0  0
 21 19  1  0  0  0  0
 22 41  1  0  0  0  0
 22 42  1  0  0  0  0
 23 44  1  0  0  0  0
 23 43  1  0  0  0  0
 23 22  1  0  0  0  0
 24 25  1  0  0  0  0
 24 23  1  0  0  0  0
 25 47  1  0  0  0  0
 25 26  1  0  0  0  0
 26 49  1  0  0  0  0
 26 21  1  0  0  0  0
 27 53  1  0  0  0  0
 27  4  1  0  0  0  0
 27 52  1  0  0  0  0
 28  7  1  0  0  0  0
 33 15  1  0  0  0  0
 35 16  1  0  0  0  0
 36 16  1  0  0  0  0
 38 18  1  0  0  0  0
 39 18  1  0  0  0  0
 45 24  1  0  0  0  0
 46 24  1  0  0  0  0
 48 25  1  0  0  0  0
 50 26  1  0  0  0  0
 51 27  1  0  0  0  0
M  END
>  <Pose>
1

>  <Score>
-6.43

$$$$
