
 OpenBabel03212208413D

 32 35  0  0  1  0  0  0  0  0999 V2000
   14.6420   37.2720   70.2280 B   0  0  0  0  0  0  0  0  0  0  0  0
   13.7000   35.6070   70.3520 C   0  0  0  0  0  0  0  0  0  0  0  0
   14.1820   34.4060   70.6910 N   0  0  0  0  0  0  0  0  0  0  0  0
   13.2000   33.5060   70.6560 C   0  0  0  0  0  0  0  0  0  0  0  0
   12.0700   34.1630   70.2850 N   0  0  0  0  0  0  0  0  0  0  0  0
   12.3520   35.4640   70.0920 C   0  0  0  0  0  0  0  0  0  0  0  0
   13.4660   32.0760   70.9920 C   0  0  0  0  0  0  0  0  0  0  0  0
   14.5400   31.9760   71.9480 N   0  0  2  0  0  0  0  0  0  0  0  0
   15.5720   32.9740   72.1090 C   0  0  0  0  0  0  0  0  0  0  0  0
   15.5360   34.0380   71.0520 C   0  0  0  0  0  0  0  0  0  0  0  0
   14.5860   30.8350   72.7720 C   0  0  1  0  0  0  0  0  0  0  0  0
   15.6050   30.0120   72.6760 C   0  0  0  0  0  0  0  0  0  0  0  0
   15.7060   28.8050   73.5100 C   0  0  0  0  0  0  0  0  0  0  0  0
   16.7250   27.9680   73.4240 C   0  0  0  0  0  0  0  0  0  0  0  0
   14.6320   28.6010   74.4150 N   0  0  0  0  0  0  0  0  0  0  0  0
   13.5280   29.5110   74.5060 C   0  0  0  0  0  0  0  0  0  0  0  0
   13.5350   30.5970   73.6870 N   0  0  0  0  0  0  0  0  0  0  0  0
   12.4130   31.2680   73.9690 N   0  0  0  0  0  0  0  0  0  0  0  0
   11.7070   30.6500   74.9270 C   0  0  0  0  0  0  0  0  0  0  0  0
   12.4120   29.5540   75.2550 N   0  0  0  0  0  0  0  0  0  0  0  0
   11.6560   36.2560   69.7870 H   0  0  0  0  0  0  0  0  0  0  0  0
   12.5290   31.6050   71.3510 H   0  0  0  0  0  0  0  0  0  0  0  0
   13.8000   31.5320   70.0690 H   0  0  0  0  0  0  0  0  0  0  0  0
   16.5560   32.4410   72.0180 H   0  0  0  0  0  0  0  0  0  0  0  0
   15.5150   33.3720   73.1240 H   0  0  0  0  0  0  0  0  0  0  0  0
   16.0920   34.9150   71.4480 H   0  0  0  0  0  0  0  0  0  0  0  0
   16.0570   33.7410   70.1190 H   0  0  0  0  0  0  0  0  0  0  0  0
   16.4300   30.1740   71.9760 H   0  0  0  0  0  0  0  0  0  0  0  0
   17.5480   28.1170   72.7350 H   0  0  0  0  0  0  0  0  0  0  0  0
   16.7970   27.0810   74.0380 H   0  0  0  0  0  0  0  0  0  0  0  0
   14.6450   27.7630   75.0350 H   0  0  0  0  0  0  0  0  0  0  0  0
   10.7460   30.9790   75.3540 H   0  0  0  0  0  0  0  0  0  0  0  0
  1  2  1  0  0  0  0
  2  3  1  0  0  0  0
  3 10  1  0  0  0  0
  4  3  1  0  0  0  0
  4  7  1  0  0  0  0
  5  4  2  0  0  0  0
  6  5  1  0  0  0  0
  6  2  2  0  0  0  0
  7 22  1  0  0  0  0
  8  7  1  6  0  0  0
  8  9  1  0  0  0  0
  8 11  1  0  0  0  0
  9 25  1  0  0  0  0
 10 26  1  0  0  0  0
 10  9  1  0  0  0  0
 11 12  1  1  0  0  0
 11 17  1  0  0  0  0
 12 13  2  0  0  0  0
 13 15  1  0  0  0  0
 14 13  1  0  0  0  0
 14 30  1  0  0  0  0
 15 16  1  0  0  0  0
 15 31  1  0  0  0  0
 16 20  2  0  0  0  0
 17 18  1  0  0  0  0
 17 16  1  0  0  0  0
 18 19  2  0  0  0  0
 19 20  1  0  0  0  0
 19 32  1  0  0  0  0
 21  6  1  0  0  0  0
 23  7  1  0  0  0  0
 24  9  1  0  0  0  0
 27 10  1  0  0  0  0
 28 12  1  0  0  0  0
 29 14  1  0  0  0  0
M  END
>  <Pose>
1

>  <Score>
-6.33

$$$$
