
 OpenBabel03212208413D

 49 52  0  0  0  0  0  0  0  0999 V2000
   12.9060   36.0690   69.3680 B   0  0  0  0  0  0  0  0  0  0  0  0
   13.4930   34.5130   70.3380 C   0  0  0  0  0  0  0  0  0  0  0  0
   13.0660   33.2890   70.2510 O   0  0  0  0  0  0  0  0  0  0  0  0
   13.6870   32.4910   71.0540 C   0  0  0  0  0  0  0  0  0  0  0  0
   14.6350   33.2410   71.7600 C   0  0  0  0  0  0  0  0  0  0  0  0
   14.4900   34.5280   71.2860 C   0  0  0  0  0  0  0  0  0  0  0  0
   13.4620   31.0760   71.2110 C   0  0  0  0  0  0  0  0  0  0  0  0
   13.5010   30.3350   70.1840 O   0  0  0  0  0  0  0  0  0  0  0  0
   13.1970   30.4570   72.4620 N   0  0  0  0  0  0  0  0  0  0  0  0
   14.1910   29.7280   73.1860 C   0  0  0  0  0  0  0  0  0  0  0  0
   15.3500   30.5700   73.6230 C   0  0  0  0  0  0  0  0  0  0  0  0
   16.4640   30.5650   72.6610 C   0  0  0  0  0  0  0  0  0  0  0  0
   16.7700   29.4380   72.1470 O   0  0  0  0  0  0  0  0  0  0  0  0
   17.1830   31.7370   72.3010 N   0  0  0  0  0  0  0  0  0  0  0  0
   16.9450   32.9630   73.0120 C   0  0  0  0  0  0  0  0  0  0  0  0
   18.1550   33.8370   73.1440 C   0  0  0  0  0  0  0  0  0  0  0  0
   19.1850   33.6000   72.0790 C   0  0  0  0  0  0  0  0  0  0  0  0
   19.9290   34.7950   71.8170 N   0  0  0  0  0  0  0  0  0  0  0  0
   20.9030   34.6690   70.7860 C   0  0  0  0  0  0  0  0  0  0  0  0
   21.7250   33.4240   70.8300 C   0  0  0  0  0  0  0  0  0  0  0  0
   21.3670   32.5260   71.9580 C   0  0  0  0  0  0  0  0  0  0  0  0
   22.0490   31.5590   72.5710 N   0  0  0  0  0  0  0  0  0  0  0  0
   21.2920   31.0300   73.5430 C   0  0  0  0  0  0  0  0  0  0  0  0
   20.1100   31.6590   73.5610 N   0  0  0  0  0  0  0  0  0  0  0  0
   20.1480   32.5800   72.5890 C   0  0  0  0  0  0  0  0  0  0  0  0
   18.5300   33.0230   70.8350 C   0  0  0  0  0  0  0  0  0  0  0  0
   18.1380   31.6080   71.2050 C   0  0  0  0  0  0  0  0  0  0  0  0
   15.3170   32.8940   72.5030 H   0  0  0  0  0  0  0  0  0  0  0  0
   15.0560   35.4200   71.5910 H   0  0  0  0  0  0  0  0  0  0  0  0
   12.2400   30.5460   72.8540 H   0  0  0  0  0  0  0  0  0  0  0  0
   13.7680   29.1700   74.0420 H   0  0  0  0  0  0  0  0  0  0  0  0
   14.5750   28.9290   72.4850 H   0  0  0  0  0  0  0  0  0  0  0  0
   14.9780   31.6310   73.6830 H   0  0  0  0  0  0  0  0  0  0  0  0
   15.6470   30.2970   74.6540 H   0  0  0  0  0  0  0  0  0  0  0  0
   16.5130   32.7080   74.0010 H   0  0  0  0  0  0  0  0  0  0  0  0
   16.1670   33.5270   72.4560 H   0  0  0  0  0  0  0  0  0  0  0  0
   18.6250   33.6250   74.1250 H   0  0  0  0  0  0  0  0  0  0  0  0
   17.9000   34.9200   73.1550 H   0  0  0  0  0  0  0  0  0  0  0  0
   19.2540   35.5450   71.5520 H   0  0  0  0  0  0  0  0  0  0  0  0
   21.6190   35.5350   70.9020 H   0  0  0  0  0  0  0  0  0  0  0  0
   20.4600   34.8120   69.7720 H   0  0  0  0  0  0  0  0  0  0  0  0
   21.5850   32.8530   69.8720 H   0  0  0  0  0  0  0  0  0  0  0  0
   22.8160   33.6160   70.8950 H   0  0  0  0  0  0  0  0  0  0  0  0
   21.5360   30.2250   74.2380 H   0  0  0  0  0  0  0  0  0  0  0  0
   19.2900   31.4670   74.2220 H   0  0  0  0  0  0  0  0  0  0  0  0
   19.1950   33.0620   69.9580 H   0  0  0  0  0  0  0  0  0  0  0  0
   17.5590   33.5560   70.6180 H   0  0  0  0  0  0  0  0  0  0  0  0
   18.9840   31.0080   71.5710 H   0  0  0  0  0  0  0  0  0  0  0  0
   17.6540   31.1750   70.3070 H   0  0  0  0  0  0  0  0  0  0  0  0
  1  2  1  0  0  0  0
  2  6  2  0  0  0  0
  3  2  1  0  0  0  0
  3  4  1  0  0  0  0
  4  7  1  0  0  0  0
  4  5  2  0  0  0  0
  5 28  1  0  0  0  0
  6 29  1  0  0  0  0
  6  5  1  0  0  0  0
  7  9  1  0  0  0  0
  8  7  2  0  0  0  0
  9 30  1  0  0  0  0
  9 10  1  0  0  0  0
 10 11  1  0  0  0  0
 10 31  1  0  0  0  0
 11 33  1  0  0  0  0
 11 34  1  0  0  0  0
 12 11  1  0  0  0  0
 13 12  2  0  0  0  0
 14 12  1  0  0  0  0
 14 15  1  0  0  0  0
 15 16  1  0  0  0  0
 15 35  1  0  0  0  0
 16 38  1  0  0  0  0
 16 37  1  0  0  0  0
 17 25  1  0  0  0  0
 17 16  1  0  0  0  0
 18 17  1  0  0  0  0
 19 20  1  0  0  0  0
 19 40  1  0  0  0  0
 19 18  1  0  0  0  0
 20 43  1  0  0  0  0
 20 21  1  0  0  0  0
 21 22  1  0  0  0  0
 21 25  2  0  0  0  0
 22 23  2  0  0  0  0
 23 24  1  0  0  0  0
 23 44  1  0  0  0  0
 24 45  1  0  0  0  0
 25 24  1  0  0  0  0
 26 27  1  0  0  0  0
 26 17  1  0  0  0  0
 27 48  1  0  0  0  0
 27 14  1  0  0  0  0
 32 10  1  0  0  0  0
 36 15  1  0  0  0  0
 39 18  1  0  0  0  0
 41 19  1  0  0  0  0
 42 20  1  0  0  0  0
 46 26  1  0  0  0  0
 47 26  1  0  0  0  0
 49 27  1  0  0  0  0
M  END
>  <Pose>
1

>  <Score>
-6.72

$$$$
