
 OpenBabel03212208413D

 49 52  0  0  1  0  0  0  0  0999 V2000
   23.4060   37.0690   65.8760 B   0  0  0  0  0  0  0  0  0  0  0  0
   22.2130   37.0820   67.3860 C   0  0  0  0  0  0  0  0  0  0  0  0
   22.5740   37.1350   68.6420 O   0  0  0  0  0  0  0  0  0  0  0  0
   21.5030   37.1270   69.4370 C   0  0  0  0  0  0  0  0  0  0  0  0
   20.4010   37.0640   68.6140 C   0  0  0  0  0  0  0  0  0  0  0  0
   20.8300   37.0350   67.3110 C   0  0  0  0  0  0  0  0  0  0  0  0
   21.5450   37.1760   70.8900 C   0  0  0  0  0  0  0  0  0  0  0  0
   22.0830   38.1480   71.4600 O   0  0  0  0  0  0  0  0  0  0  0  0
   20.9840   36.1420   71.6610 N   0  0  0  0  0  0  0  0  0  0  0  0
   20.3460   34.9760   71.0860 C   0  0  1  0  0  0  0  0  0  0  0  0
   21.3710   34.1670   70.3770 C   0  0  0  0  0  0  0  0  0  0  0  0
   19.5340   34.2420   72.0710 C   0  0  0  0  0  0  0  0  0  0  0  0
   19.6050   34.6630   73.2780 O   0  0  0  0  0  0  0  0  0  0  0  0
   18.7000   33.1430   71.8310 N   0  0  0  0  0  0  0  0  0  0  0  0
   18.2130   32.2800   72.8870 C   0  0  0  0  0  0  0  0  0  0  0  0
   16.7190   32.3750   72.9060 C   0  0  0  0  0  0  0  0  0  0  0  0
   16.1190   32.1300   71.5580 C   0  0  1  0  0  0  0  0  0  0  0  0
   15.1720   31.0350   71.6690 N   0  0  0  0  0  0  0  0  0  0  0  0
   14.0820   31.4720   72.5230 C   0  0  0  0  0  0  0  0  0  0  0  0
   13.1470   32.2960   71.6300 C   0  0  0  0  0  0  0  0  0  0  0  0
   13.9830   33.3840   71.0690 C   0  0  0  0  0  0  0  0  0  0  0  0
   13.6090   34.5600   70.5280 N   0  0  0  0  0  0  0  0  0  0  0  0
   14.7290   35.2050   70.1650 C   0  0  0  0  0  0  0  0  0  0  0  0
   15.7810   34.4290   70.4820 N   0  0  0  0  0  0  0  0  0  0  0  0
   15.3530   33.2880   71.0460 C   0  0  0  0  0  0  0  0  0  0  0  0
   17.2160   31.7270   70.5720 C   0  0  0  0  0  0  0  0  0  0  0  0
   18.2680   32.7850   70.4920 C   0  0  0  0  0  0  0  0  0  0  0  0
   19.3880   37.0440   68.9660 H   0  0  0  0  0  0  0  0  0  0  0  0
   20.2290   36.9860   66.4030 H   0  0  0  0  0  0  0  0  0  0  0  0
   21.0240   36.2090   72.6980 H   0  0  0  0  0  0  0  0  0  0  0  0
   19.6280   35.3580   70.3010 H   0  0  0  0  0  0  0  0  0  0  0  0
   22.3540   34.6750   70.4690 H   0  0  0  0  0  0  0  0  0  0  0  0
   21.2160   34.0600   69.2830 H   0  0  0  0  0  0  0  0  0  0  0  0
   21.5310   33.1680   70.8450 H   0  0  0  0  0  0  0  0  0  0  0  0
   18.6870   32.4700   73.8530 H   0  0  0  0  0  0  0  0  0  0  0  0
   18.4920   31.2110   72.6430 H   0  0  0  0  0  0  0  0  0  0  0  0
   16.3600   31.5820   73.6260 H   0  0  0  0  0  0  0  0  0  0  0  0
   16.4140   33.3470   73.3440 H   0  0  0  0  0  0  0  0  0  0  0  0
   15.6060   30.2020   72.1570 H   0  0  0  0  0  0  0  0  0  0  0  0
   13.5630   30.6530   73.0240 H   0  0  0  0  0  0  0  0  0  0  0  0
   14.4460   32.2030   73.2970 H   0  0  0  0  0  0  0  0  0  0  0  0
   12.8600   31.6390   70.7700 H   0  0  0  0  0  0  0  0  0  0  0  0
   12.2790   32.6600   72.1870 H   0  0  0  0  0  0  0  0  0  0  0  0
   12.6440   34.9510   70.3910 H   0  0  0  0  0  0  0  0  0  0  0  0
   14.8010   36.1710   69.7020 H   0  0  0  0  0  0  0  0  0  0  0  0
   16.7120   31.6100   69.5850 H   0  0  0  0  0  0  0  0  0  0  0  0
   17.5870   30.7460   70.8870 H   0  0  0  0  0  0  0  0  0  0  0  0
   19.1720   32.3060   70.0120 H   0  0  0  0  0  0  0  0  0  0  0  0
   17.9840   33.6550   69.8910 H   0  0  0  0  0  0  0  0  0  0  0  0
  1  2  1  0  0  0  0
  2  3  1  0  0  0  0
  3  4  1  0  0  0  0
  4  7  1  0  0  0  0
  5 28  1  0  0  0  0
  5  4  2  0  0  0  0
  6  2  2  0  0  0  0
  6  5  1  0  0  0  0
  7  8  2  0  0  0  0
  7  9  1  0  0  0  0
  9 30  1  0  0  0  0
 10 31  1  6  0  0  0
 10  9  1  0  0  0  0
 10 12  1  0  0  0  0
 11 32  1  0  0  0  0
 11 34  1  0  0  0  0
 11 10  1  0  0  0  0
 12 13  2  0  0  0  0
 14 12  1  0  0  0  0
 14 15  1  0  0  0  0
 15 16  1  0  0  0  0
 15 35  1  0  0  0  0
 16 38  1  0  0  0  0
 16 37  1  0  0  0  0
 17 25  1  6  0  0  0
 17 18  1  0  0  0  0
 17 16  1  0  0  0  0
 18 39  1  0  0  0  0
 18 19  1  0  0  0  0
 19 40  1  0  0  0  0
 19 41  1  0  0  0  0
 20 43  1  0  0  0  0
 20 19  1  0  0  0  0
 21 20  1  0  0  0  0
 22 21  1  0  0  0  0
 23 24  2  0  0  0  0
 23 22  1  0  0  0  0
 24 25  1  0  0  0  0
 25 21  2  0  0  0  0
 26 47  1  0  0  0  0
 26 17  1  0  0  0  0
 27 26  1  0  0  0  0
 27 14  1  0  0  0  0
 29  6  1  0  0  0  0
 33 11  1  0  0  0  0
 36 15  1  0  0  0  0
 42 20  1  0  0  0  0
 44 22  1  0  0  0  0
 45 23  1  0  0  0  0
 46 26  1  0  0  0  0
 48 27  1  0  0  0  0
 49 27  1  0  0  0  0
M  END
>  <Pose>
1

>  <Score>
-6.13

$$$$
