
 OpenBabel03212208413D

 49 52  0  0  0  0  0  0  0  0999 V2000
   14.4480   31.0420   71.2670 B   0  0  0  0  0  0  0  0  0  0  0  0
   16.1590   31.7310   71.8490 C   0  0  0  0  0  0  0  0  0  0  0  0
   17.3160   31.5160   71.3370 O   0  0  0  0  0  0  0  0  0  0  0  0
   18.2580   32.1380   71.9800 C   0  0  0  0  0  0  0  0  0  0  0  0
   17.6580   32.8250   73.0100 C   0  0  0  0  0  0  0  0  0  0  0  0
   16.3140   32.5660   72.9280 C   0  0  0  0  0  0  0  0  0  0  0  0
   19.7050   32.1430   71.7040 C   0  0  0  0  0  0  0  0  0  0  0  0
   20.3550   31.1080   71.9140 O   0  0  0  0  0  0  0  0  0  0  0  0
   20.3590   33.2960   71.2060 N   0  0  0  0  0  0  0  0  0  0  0  0
   20.7470   34.3540   72.1170 C   0  0  0  0  0  0  0  0  0  0  0  0
   20.0840   35.6680   71.7810 C   0  0  0  0  0  0  0  0  0  0  0  0
   19.8560   35.6570   70.3270 N   0  0  0  0  0  0  0  0  0  0  0  0
   20.8540   35.0170   69.5400 C   0  0  0  0  0  0  0  0  0  0  0  0
   20.6830   33.5110   69.8090 C   0  0  0  0  0  0  0  0  0  0  0  0
   18.6740   36.2830   69.8610 C   0  0  0  0  0  0  0  0  0  0  0  0
   17.4410   35.8650   70.2630 N   0  0  0  0  0  0  0  0  0  0  0  0
   16.3130   36.4470   69.8290 C   0  0  0  0  0  0  0  0  0  0  0  0
   16.3740   37.4820   68.9640 N   0  0  0  0  0  0  0  0  0  0  0  0
   17.5460   37.9640   68.5130 C   0  0  0  0  0  0  0  0  0  0  0  0
   18.7040   37.3310   68.9880 C   0  0  0  0  0  0  0  0  0  0  0  0
   17.6370   39.1040   67.5620 C   0  0  0  0  0  0  0  0  0  0  0  0
   15.0540   35.9740   70.2770 N   0  0  0  0  0  0  0  0  0  0  0  0
   13.8670   36.7940   70.3110 C   0  0  0  0  0  0  0  0  0  0  0  0
   12.7460   36.1060   69.5920 C   0  0  0  0  0  0  0  0  0  0  0  0
   13.0320   34.7780   69.2790 O   0  0  0  0  0  0  0  0  0  0  0  0
   13.5480   34.1110   70.3870 C   0  0  0  0  0  0  0  0  0  0  0  0
   14.9330   34.6050   70.7280 C   0  0  0  0  0  0  0  0  0  0  0  0
   18.1570   33.4630   73.7600 H   0  0  0  0  0  0  0  0  0  0  0  0
   15.5410   32.9560   73.5960 H   0  0  0  0  0  0  0  0  0  0  0  0
   21.8460   34.4850   72.1640 H   0  0  0  0  0  0  0  0  0  0  0  0
   20.4140   34.1040   73.1670 H   0  0  0  0  0  0  0  0  0  0  0  0
   19.1380   35.8130   72.3000 H   0  0  0  0  0  0  0  0  0  0  0  0
   20.7930   36.5310   71.9430 H   0  0  0  0  0  0  0  0  0  0  0  0
   20.7120   35.2190   68.4770 H   0  0  0  0  0  0  0  0  0  0  0  0
   21.8750   35.3120   69.8910 H   0  0  0  0  0  0  0  0  0  0  0  0
   19.9200   33.1860   69.1080 H   0  0  0  0  0  0  0  0  0  0  0  0
   21.6160   32.9550   69.5940 H   0  0  0  0  0  0  0  0  0  0  0  0
   19.6280   37.7330   68.6110 H   0  0  0  0  0  0  0  0  0  0  0  0
   18.1300   38.7830   66.6220 H   0  0  0  0  0  0  0  0  0  0  0  0
   16.6410   39.5250   67.4300 H   0  0  0  0  0  0  0  0  0  0  0  0
   18.2850   39.8700   68.0460 H   0  0  0  0  0  0  0  0  0  0  0  0
   14.0500   37.7800   69.8020 H   0  0  0  0  0  0  0  0  0  0  0  0
   13.5680   37.0010   71.3710 H   0  0  0  0  0  0  0  0  0  0  0  0
   11.8270   36.0920   70.2410 H   0  0  0  0  0  0  0  0  0  0  0  0
   12.4770   36.6400   68.6580 H   0  0  0  0  0  0  0  0  0  0  0  0
   13.5930   33.0310   70.1690 H   0  0  0  0  0  0  0  0  0  0  0  0
   12.8500   34.2340   71.2590 H   0  0  0  0  0  0  0  0  0  0  0  0
   15.6930   33.9410   70.2540 H   0  0  0  0  0  0  0  0  0  0  0  0
   15.0450   34.5720   71.8410 H   0  0  0  0  0  0  0  0  0  0  0  0
  1  2  1  0  0  0  0
  2  6  2  0  0  0  0
  3  2  1  0  0  0  0
  3  4  1  0  0  0  0
  4  5  2  0  0  0  0
  5 28  1  0  0  0  0
  6  5  1  0  0  0  0
  6 29  1  0  0  0  0
  7  8  2  0  0  0  0
  7  4  1  0  0  0  0
  9  7  1  0  0  0  0
  9 10  1  0  0  0  0
 10 30  1  0  0  0  0
 10 31  1  0  0  0  0
 11 33  1  0  0  0  0
 11 10  1  0  0  0  0
 11 32  1  0  0  0  0
 12 11  1  0  0  0  0
 13 14  1  0  0  0  0
 13 35  1  0  0  0  0
 13 12  1  0  0  0  0
 14  9  1  0  0  0  0
 15 16  1  0  0  0  0
 15 12  1  0  0  0  0
 17 16  2  0  0  0  0
 17 22  1  0  0  0  0
 18 17  1  0  0  0  0
 19 18  2  0  0  0  0
 19 20  1  0  0  0  0
 20 15  2  0  0  0  0
 21 41  1  0  0  0  0
 21 19  1  0  0  0  0
 22 23  1  0  0  0  0
 22 27  1  0  0  0  0
 23 43  1  0  0  0  0
 24 44  1  0  0  0  0
 24 23  1  0  0  0  0
 25 24  1  0  0  0  0
 25 26  1  0  0  0  0
 26 27  1  0  0  0  0
 26 47  1  0  0  0  0
 27 49  1  0  0  0  0
 34 13  1  0  0  0  0
 36 14  1  0  0  0  0
 37 14  1  0  0  0  0
 38 20  1  0  0  0  0
 39 21  1  0  0  0  0
 40 21  1  0  0  0  0
 42 23  1  0  0  0  0
 45 24  1  0  0  0  0
 46 26  1  0  0  0  0
 48 27  1  0  0  0  0
M  END
>  <Pose>
1

>  <Score>
-6.49

$$$$
