
 OpenBabel03212208413D

 53 56  0  0  0  0  0  0  0  0999 V2000
   23.9950   27.4110   70.9950 B   0  0  0  0  0  0  0  0  0  0  0  0
   22.6900   28.2580   72.1060 C   0  0  0  0  0  0  0  0  0  0  0  0
   22.4480   29.5430   72.1620 O   0  0  0  0  0  0  0  0  0  0  0  0
   21.4970   29.8330   73.0140 C   0  0  0  0  0  0  0  0  0  0  0  0
   21.0870   28.6390   73.5560 C   0  0  0  0  0  0  0  0  0  0  0  0
   21.8330   27.6370   72.9890 C   0  0  0  0  0  0  0  0  0  0  0  0
   20.9710   31.1810   73.3300 C   0  0  0  0  0  0  0  0  0  0  0  0
   21.5100   31.8590   74.2170 O   0  0  0  0  0  0  0  0  0  0  0  0
   19.8530   31.6780   72.6080 N   0  0  0  0  0  0  0  0  0  0  0  0
   19.8720   31.7260   71.1490 C   0  0  0  0  0  0  0  0  0  0  0  0
   18.5820   32.3600   70.6320 C   0  0  0  0  0  0  0  0  0  0  0  0
   18.3900   33.5980   71.3620 N   0  0  0  0  0  0  0  0  0  0  0  0
   18.3160   33.5480   72.7970 C   0  0  0  0  0  0  0  0  0  0  0  0
   18.6540   32.1570   73.2660 C   0  0  0  0  0  0  0  0  0  0  0  0
   18.2730   34.8550   70.6830 C   0  0  0  0  0  0  0  0  0  0  0  0
   17.1190   35.5360   70.6560 N   0  0  0  0  0  0  0  0  0  0  0  0
   17.0400   36.7070   70.0130 C   0  0  0  0  0  0  0  0  0  0  0  0
   18.1000   37.2390   69.3760 N   0  0  0  0  0  0  0  0  0  0  0  0
   19.2880   36.6070   69.3640 C   0  0  0  0  0  0  0  0  0  0  0  0
   19.3490   35.4030   70.0330 C   0  0  0  0  0  0  0  0  0  0  0  0
   20.4310   37.1260   68.7090 N   0  0  0  0  0  0  0  0  0  0  0  0
   20.4080   37.3730   67.2820 C   0  0  0  0  0  0  0  0  0  0  0  0
   21.6330   38.1990   66.9490 C   0  0  0  0  0  0  0  0  0  0  0  0
   22.8080   37.4410   67.2860 N   0  0  0  0  0  0  0  0  0  0  0  0
   22.7870   36.8380   68.5810 C   0  0  0  0  0  0  0  0  0  0  0  0
   21.6650   37.4330   69.4060 C   0  0  0  0  0  0  0  0  0  0  0  0
   23.1390   36.5410   66.2110 C   0  0  0  0  0  0  0  0  0  0  0  0
   15.7570   37.4530   69.9900 C   0  0  0  0  0  0  0  0  0  0  0  0
   20.3160   28.4980   74.2960 H   0  0  0  0  0  0  0  0  0  0  0  0
   21.7780   26.5530   73.1830 H   0  0  0  0  0  0  0  0  0  0  0  0
   20.0010   30.7190   70.7210 H   0  0  0  0  0  0  0  0  0  0  0  0
   20.7360   32.3440   70.8250 H   0  0  0  0  0  0  0  0  0  0  0  0
   18.6600   32.5600   69.5620 H   0  0  0  0  0  0  0  0  0  0  0  0
   17.7600   31.6500   70.8730 H   0  0  0  0  0  0  0  0  0  0  0  0
   18.9980   34.3090   73.2480 H   0  0  0  0  0  0  0  0  0  0  0  0
   17.2530   33.7540   73.1070 H   0  0  0  0  0  0  0  0  0  0  0  0
   18.7260   32.1090   74.3600 H   0  0  0  0  0  0  0  0  0  0  0  0
   17.8190   31.4890   72.9400 H   0  0  0  0  0  0  0  0  0  0  0  0
   20.2820   34.8570   70.0520 H   0  0  0  0  0  0  0  0  0  0  0  0
   20.4380   36.4200   66.7380 H   0  0  0  0  0  0  0  0  0  0  0  0
   19.4690   37.9190   67.0550 H   0  0  0  0  0  0  0  0  0  0  0  0
   21.6130   38.3750   65.8590 H   0  0  0  0  0  0  0  0  0  0  0  0
   21.5840   39.1660   67.4760 H   0  0  0  0  0  0  0  0  0  0  0  0
   23.7460   37.0050   69.1120 H   0  0  0  0  0  0  0  0  0  0  0  0
   22.6260   35.7500   68.5190 H   0  0  0  0  0  0  0  0  0  0  0  0
   21.7770   38.5460   69.4110 H   0  0  0  0  0  0  0  0  0  0  0  0
   21.6390   37.0180   70.4320 H   0  0  0  0  0  0  0  0  0  0  0  0
   22.5580   36.7390   65.3070 H   0  0  0  0  0  0  0  0  0  0  0  0
   24.2260   36.6790   65.9710 H   0  0  0  0  0  0  0  0  0  0  0  0
   22.9830   35.4920   66.5420 H   0  0  0  0  0  0  0  0  0  0  0  0
   15.9780   38.5390   70.0430 H   0  0  0  0  0  0  0  0  0  0  0  0
   15.2040   37.2280   69.0550 H   0  0  0  0  0  0  0  0  0  0  0  0
   15.1670   37.2090   70.8910 H   0  0  0  0  0  0  0  0  0  0  0  0
  1  2  1  0  0  0  0
  2  3  1  0  0  0  0
  2  6  2  0  0  0  0
  3  4  1  0  0  0  0
  4  7  1  0  0  0  0
  4  5  2  0  0  0  0
  5 29  1  0  0  0  0
  6 30  1  0  0  0  0
  6  5  1  0  0  0  0
  7  8  2  0  0  0  0
  9 14  1  0  0  0  0
  9  7  1  0  0  0  0
 10  9  1  0  0  0  0
 11 34  1  0  0  0  0
 11 10  1  0  0  0  0
 11 12  1  0  0  0  0
 12 13  1  0  0  0  0
 13 36  1  0  0  0  0
 13 35  1  0  0  0  0
 13 14  1  0  0  0  0
 14 37  1  0  0  0  0
 15 12  1  0  0  0  0
 16 15  1  0  0  0  0
 17 16  2  0  0  0  0
 18 17  1  0  0  0  0
 19 18  2  0  0  0  0
 19 20  1  0  0  0  0
 20 39  1  0  0  0  0
 20 15  2  0  0  0  0
 21 19  1  0  0  0  0
 21 26  1  0  0  0  0
 22 21  1  0  0  0  0
 23 22  1  0  0  0  0
 23 24  1  0  0  0  0
 23 43  1  0  0  0  0
 24 25  1  0  0  0  0
 25 44  1  0  0  0  0
 25 26  1  0  0  0  0
 26 46  1  0  0  0  0
 26 47  1  0  0  0  0
 27 50  1  0  0  0  0
 27 24  1  0  0  0  0
 28 17  1  0  0  0  0
 28 51  1  0  0  0  0
 28 53  1  0  0  0  0
 31 10  1  0  0  0  0
 32 10  1  0  0  0  0
 33 11  1  0  0  0  0
 38 14  1  0  0  0  0
 40 22  1  0  0  0  0
 41 22  1  0  0  0  0
 42 23  1  0  0  0  0
 45 25  1  0  0  0  0
 48 27  1  0  0  0  0
 49 27  1  0  0  0  0
 52 28  1  0  0  0  0
M  END
>  <Pose>
1

>  <Score>
-5.55

$$$$
