
 OpenBabel03212208413D

 43 46  0  0  0  0  0  0  0  0999 V2000
   14.5530   36.5980   70.1100 B   0  0  0  0  0  0  0  0  0  0  0  0
   15.3710   35.0150   70.7600 C   0  0  0  0  0  0  0  0  0  0  0  0
   16.6120   34.6440   70.6750 O   0  0  0  0  0  0  0  0  0  0  0  0
   16.8250   33.4820   71.2390 C   0  0  0  0  0  0  0  0  0  0  0  0
   15.6070   33.0590   71.7390 C   0  0  0  0  0  0  0  0  0  0  0  0
   14.6590   34.0270   71.4430 C   0  0  0  0  0  0  0  0  0  0  0  0
   18.0840   32.7540   71.3380 C   0  0  0  0  0  0  0  0  0  0  0  0
   18.2680   31.4650   71.7030 N   0  0  0  0  0  0  0  0  0  0  0  0
   19.5380   31.1790   71.6690 O   0  0  0  0  0  0  0  0  0  0  0  0
   20.2280   32.2260   71.2930 C   0  0  0  0  0  0  0  0  0  0  0  0
   19.3290   33.1960   71.0900 N   0  0  0  0  0  0  0  0  0  0  0  0
   21.6800   32.2300   71.1560 C   0  0  0  0  0  0  0  0  0  0  0  0
   22.3000   31.1360   70.9310 O   0  0  0  0  0  0  0  0  0  0  0  0
   22.4440   33.4240   71.2630 N   0  0  0  0  0  0  0  0  0  0  0  0
   23.1590   33.9610   70.1560 C   0  0  0  0  0  0  0  0  0  0  0  0
   22.2560   34.6130   69.1300 C   0  0  0  0  0  0  0  0  0  0  0  0
   22.8730   35.8040   68.5630 N   0  0  0  0  0  0  0  0  0  0  0  0
   22.6050   36.1400   67.2250 C   0  0  0  0  0  0  0  0  0  0  0  0
   22.3970   35.1450   66.4420 O   0  0  0  0  0  0  0  0  0  0  0  0
   22.5350   37.4530   66.6360 C   0  0  0  0  0  0  0  0  0  0  0  0
   23.5470   37.8450   65.7610 C   0  0  0  0  0  0  0  0  0  0  0  0
   23.5010   39.0870   65.1790 C   0  0  0  0  0  0  0  0  0  0  0  0
   22.4730   39.9360   65.4530 C   0  0  0  0  0  0  0  0  0  0  0  0
   22.4300   41.1990   64.8580 C   0  0  0  0  0  0  0  0  0  0  0  0
   23.4070   41.6220   63.9900 C   0  0  0  0  0  0  0  0  0  0  0  0
   24.4410   40.7620   63.7180 C   0  0  0  0  0  0  0  0  0  0  0  0
   24.4980   39.5140   64.2970 C   0  0  0  0  0  0  0  0  0  0  0  0
   21.5430   39.5400   66.2740 O   0  0  0  0  0  0  0  0  0  0  0  0
   21.5270   38.3540   66.8710 C   0  0  0  0  0  0  0  0  0  0  0  0
   20.5720   38.0980   67.6420 O   0  0  0  0  0  0  0  0  0  0  0  0
   15.4710   32.1410   72.2540 H   0  0  0  0  0  0  0  0  0  0  0  0
   13.6010   34.0080   71.6930 H   0  0  0  0  0  0  0  0  0  0  0  0
   22.4770   33.9110   72.1780 H   0  0  0  0  0  0  0  0  0  0  0  0
   23.6590   33.1010   69.6300 H   0  0  0  0  0  0  0  0  0  0  0  0
   23.9780   34.6370   70.4730 H   0  0  0  0  0  0  0  0  0  0  0  0
   22.1400   33.8910   68.2950 H   0  0  0  0  0  0  0  0  0  0  0  0
   21.2520   34.8140   69.5450 H   0  0  0  0  0  0  0  0  0  0  0  0
   23.5010   36.4100   69.1210 H   0  0  0  0  0  0  0  0  0  0  0  0
   24.3810   37.1780   65.5290 H   0  0  0  0  0  0  0  0  0  0  0  0
   21.6020   41.8460   65.0960 H   0  0  0  0  0  0  0  0  0  0  0  0
   23.3360   42.6040   63.5520 H   0  0  0  0  0  0  0  0  0  0  0  0
   25.2120   41.0830   63.0390 H   0  0  0  0  0  0  0  0  0  0  0  0
   25.3060   38.8310   64.0890 H   0  0  0  0  0  0  0  0  0  0  0  0
  1  2  1  0  0  0  0
  2  6  2  0  0  0  0
  3  2  1  0  0  0  0
  3  4  1  0  0  0  0
  4  7  1  0  0  0  0
  4  5  2  0  0  0  0
  5 31  1  0  0  0  0
  6 32  1  0  0  0  0
  6  5  1  0  0  0  0
  7  8  2  0  0  0  0
  9  8  1  0  0  0  0
 10  9  1  0  0  0  0
 11 10  2  0  0  0  0
 11  7  1  0  0  0  0
 12 14  1  0  0  0  0
 12 10  1  0  0  0  0
 13 12  2  0  0  0  0
 14 33  1  0  0  0  0
 15 35  1  0  0  0  0
 15 14  1  0  0  0  0
 16 37  1  0  0  0  0
 16 15  1  0  0  0  0
 17 38  1  0  0  0  0
 17 16  1  0  0  0  0
 18 17  1  0  0  0  0
 19 18  2  0  0  0  0
 20 29  1  0  0  0  0
 20 18  1  0  0  0  0
 21 20  2  0  0  0  0
 22 23  1  0  0  0  0
 22 21  1  0  0  0  0
 23 28  1  0  0  0  0
 24 40  1  0  0  0  0
 24 23  2  0  0  0  0
 25 24  1  0  0  0  0
 26 25  2  0  0  0  0
 26 27  1  0  0  0  0
 27 22  2  0  0  0  0
 28 29  1  0  0  0  0
 29 30  2  0  0  0  0
 34 15  1  0  0  0  0
 36 16  1  0  0  0  0
 39 21  1  0  0  0  0
 41 25  1  0  0  0  0
 42 26  1  0  0  0  0
 43 27  1  0  0  0  0
M  END
>  <Pose>
1

>  <Score>
-6.43

$$$$
