
 OpenBabel03212208413D

 43 46  0  0  0  0  0  0  0  0999 V2000
   16.7670   37.3370   69.8760 B   0  0  0  0  0  0  0  0  0  0  0  0
   15.1110   36.4440   69.9660 C   0  0  0  0  0  0  0  0  0  0  0  0
   14.9880   35.1840   70.5600 C   0  0  0  0  0  0  0  0  0  0  0  0
   13.7620   34.5760   70.6000 C   0  0  0  0  0  0  0  0  0  0  0  0
   12.6910   35.2720   70.0320 C   0  0  0  0  0  0  0  0  0  0  0  0
   12.8550   36.4380   69.4930 O   0  0  0  0  0  0  0  0  0  0  0  0
   13.9910   37.0390   69.4380 C   0  0  0  0  0  0  0  0  0  0  0  0
   14.0480   38.1710   68.8920 O   0  0  0  0  0  0  0  0  0  0  0  0
   13.5320   33.2720   71.1920 C   0  0  0  0  0  0  0  0  0  0  0  0
   12.2680   33.0960   71.5290 O   0  0  0  0  0  0  0  0  0  0  0  0
   14.3760   32.2040   71.4580 N   0  0  0  0  0  0  0  0  0  0  0  0
   15.5700   32.4300   72.3120 C   0  0  0  0  0  0  0  0  0  0  0  0
   15.5230   31.4670   73.4740 C   0  0  0  0  0  0  0  0  0  0  0  0
   15.4680   30.1440   72.9930 N   0  0  0  0  0  0  0  0  0  0  0  0
   15.4460   30.0870   71.5710 C   0  0  0  0  0  0  0  0  0  0  0  0
   14.2400   30.8730   71.0040 C   0  0  0  0  0  0  0  0  0  0  0  0
   16.4010   29.2240   73.5620 C   0  0  0  0  0  0  0  0  0  0  0  0
   15.8380   27.9330   73.9970 C   0  0  0  0  0  0  0  0  0  0  0  0
   16.1770   26.7260   73.4800 C   0  0  0  0  0  0  0  0  0  0  0  0
   15.5930   25.5750   73.9500 C   0  0  0  0  0  0  0  0  0  0  0  0
   14.6610   25.6490   74.9490 C   0  0  0  0  0  0  0  0  0  0  0  0
   14.3010   26.8630   75.4890 C   0  0  0  0  0  0  0  0  0  0  0  0
   14.8930   27.9840   75.0070 C   0  0  0  0  0  0  0  0  0  0  0  0
   14.2120   24.3760   75.2580 O   0  0  0  0  0  0  0  0  0  0  0  0
   14.6120   23.5440   74.1790 C   0  0  0  0  0  0  0  0  0  0  0  0
   15.7290   24.2160   73.6290 O   0  0  0  0  0  0  0  0  0  0  0  0
   15.8820   34.7640   70.9550 H   0  0  0  0  0  0  0  0  0  0  0  0
   11.6680   34.8350   70.0310 H   0  0  0  0  0  0  0  0  0  0  0  0
   15.5220   33.4820   72.6800 H   0  0  0  0  0  0  0  0  0  0  0  0
   16.4760   32.2800   71.7290 H   0  0  0  0  0  0  0  0  0  0  0  0
   16.4520   31.6370   74.1020 H   0  0  0  0  0  0  0  0  0  0  0  0
   14.6990   31.7390   74.1860 H   0  0  0  0  0  0  0  0  0  0  0  0
   16.3230   30.4350   71.0360 H   0  0  0  0  0  0  0  0  0  0  0  0
   15.2790   29.0060   71.3020 H   0  0  0  0  0  0  0  0  0  0  0  0
   13.3370   30.3280   71.3120 H   0  0  0  0  0  0  0  0  0  0  0  0
   14.3010   30.8160   69.8810 H   0  0  0  0  0  0  0  0  0  0  0  0
   17.1490   28.9790   72.7500 H   0  0  0  0  0  0  0  0  0  0  0  0
   17.0040   29.6480   74.3820 H   0  0  0  0  0  0  0  0  0  0  0  0
   16.9090   26.6440   72.6980 H   0  0  0  0  0  0  0  0  0  0  0  0
   13.5650   26.9100   76.2760 H   0  0  0  0  0  0  0  0  0  0  0  0
   14.6000   28.9340   75.4440 H   0  0  0  0  0  0  0  0  0  0  0  0
   13.8170   23.3640   73.4580 H   0  0  0  0  0  0  0  0  0  0  0  0
   14.9850   22.5610   74.5420 H   0  0  0  0  0  0  0  0  0  0  0  0
  1  2  1  0  0  0  0
  2  3  2  0  0  0  0
  3  4  1  0  0  0  0
  3 27  1  0  0  0  0
  4  9  1  0  0  0  0
  5  4  2  0  0  0  0
  6  5  1  0  0  0  0
  7  6  1  0  0  0  0
  7  2  1  0  0  0  0
  8  7  2  0  0  0  0
  9 11  1  0  0  0  0
  9 10  2  0  0  0  0
 11 12  1  0  0  0  0
 12 29  1  0  0  0  0
 12 13  1  0  0  0  0
 13 31  1  0  0  0  0
 13 32  1  0  0  0  0
 14 13  1  0  0  0  0
 14 17  1  0  0  0  0
 15 14  1  0  0  0  0
 16 35  1  0  0  0  0
 16 11  1  0  0  0  0
 16 15  1  0  0  0  0
 17 18  1  0  0  0  0
 17 38  1  0  0  0  0
 18 23  1  0  0  0  0
 19 20  1  0  0  0  0
 19 18  2  0  0  0  0
 20 21  2  0  0  0  0
 21 24  1  0  0  0  0
 21 22  1  0  0  0  0
 22 40  1  0  0  0  0
 23 41  1  0  0  0  0
 23 22  2  0  0  0  0
 25 43  1  0  0  0  0
 25 24  1  0  0  0  0
 26 20  1  0  0  0  0
 26 25  1  0  0  0  0
 28  5  1  0  0  0  0
 30 12  1  0  0  0  0
 33 15  1  0  0  0  0
 34 15  1  0  0  0  0
 36 16  1  0  0  0  0
 37 17  1  0  0  0  0
 39 19  1  0  0  0  0
 42 25  1  0  0  0  0
M  END
>  <Pose>
1

>  <Score>
-5.67

$$$$
