
 OpenBabel03212208413D

 63 66  0  0  1  0  0  0  0  0999 V2000
   21.4010   37.1410   70.6110 B   0  0  0  0  0  0  0  0  0  0  0  0
   20.9320   35.2870   70.4280 C   0  0  0  0  0  0  0  0  0  0  0  0
   20.1360   34.6770   71.3690 C   0  0  0  0  0  0  0  0  0  0  0  0
   19.8030   33.3950   71.2570 N   0  0  0  0  0  0  0  0  0  0  0  0
   20.2350   32.6720   70.2270 C   0  0  0  0  0  0  0  0  0  0  0  0
   19.9380   31.4400   70.0850 O   0  0  0  0  0  0  0  0  0  0  0  0
   21.0140   33.2490   69.3000 N   0  0  0  0  0  0  0  0  0  0  0  0
   21.3840   34.5410   69.3590 C   0  0  0  0  0  0  0  0  0  0  0  0
   22.1200   35.0570   68.4670 O   0  0  0  0  0  0  0  0  0  0  0  0
   18.9560   32.7840   72.2610 C   0  0  1  0  0  0  0  0  0  0  0  0
   17.5390   33.1960   72.2050 C   0  0  1  0  0  0  0  0  0  0  0  0
   16.5590   32.1400   72.7290 C   0  0  0  0  0  0  0  0  0  0  0  0
   16.7680   30.8240   72.0200 C   0  0  2  0  0  0  0  0  0  0  0  0
   18.0320   30.7330   71.4690 O   0  0  0  0  0  0  0  0  0  0  0  0
   19.0360   31.2830   72.2030 C   0  0  0  0  0  0  0  0  0  0  0  0
   15.6850   30.7010   70.9630 C   0  0  0  0  0  0  0  0  0  0  0  0
   14.5260   29.8970   71.4880 C   0  0  0  0  0  0  0  0  0  0  0  0
   14.2940   30.2630   72.8620 N   0  0  0  0  0  0  0  0  0  0  0  0
   15.3240   29.8590   73.8080 C   0  0  0  0  0  0  0  0  0  0  0  0
   16.6160   29.7170   73.0360 C   0  0  0  0  0  0  0  0  0  0  0  0
   13.1350   30.9440   73.2430 C   0  0  0  0  0  0  0  0  0  0  0  0
   12.6690   31.7660   72.3720 O   0  0  0  0  0  0  0  0  0  0  0  0
   12.3790   30.8620   74.4880 C   0  0  1  0  0  0  0  0  0  0  0  0
   11.2540   31.7990   74.5090 N   0  0  0  0  0  0  0  0  0  0  0  0
   11.7910   29.5040   74.7990 C   0  0  0  0  0  0  0  0  0  0  0  0
   11.1540   29.6310   76.1620 C   0  0  0  0  0  0  0  0  0  0  0  0
   11.8280   29.2180   77.2800 C   0  0  0  0  0  0  0  0  0  0  0  0
   11.2030   29.3520   78.5170 C   0  0  0  0  0  0  0  0  0  0  0  0
    9.9400   29.8850   78.6370 C   0  0  0  0  0  0  0  0  0  0  0  0
    9.2930   30.2900   77.4860 C   0  0  0  0  0  0  0  0  0  0  0  0
    9.8860   30.1680   76.2460 C   0  0  0  0  0  0  0  0  0  0  0  0
    9.3690   29.9950   79.8900 O   0  0  0  0  0  0  0  0  0  0  0  0
   17.3850   34.2740   73.1140 O   0  0  0  0  0  0  0  0  0  0  0  0
   17.0670   33.7110   70.8840 C   0  0  0  0  0  0  0  0  0  0  0  0
   19.8060   35.3100   72.1950 H   0  0  0  0  0  0  0  0  0  0  0  0
   21.3600   32.6690   68.4760 H   0  0  0  0  0  0  0  0  0  0  0  0
   19.4220   33.0900   73.2520 H   0  0  0  0  0  0  0  0  0  0  0  0
   16.6850   31.9870   73.8070 H   0  0  0  0  0  0  0  0  0  0  0  0
   15.5400   32.4900   72.5410 H   0  0  0  0  0  0  0  0  0  0  0  0
   20.0210   30.9350   71.8120 H   0  0  0  0  0  0  0  0  0  0  0  0
   18.9450   30.9000   73.2630 H   0  0  0  0  0  0  0  0  0  0  0  0
   15.3170   31.6830   70.6340 H   0  0  0  0  0  0  0  0  0  0  0  0
   16.0540   30.1540   70.0680 H   0  0  0  0  0  0  0  0  0  0  0  0
   13.6380   29.9990   70.8310 H   0  0  0  0  0  0  0  0  0  0  0  0
   14.8090   28.8160   71.3950 H   0  0  0  0  0  0  0  0  0  0  0  0
   15.4820   30.5590   74.6240 H   0  0  0  0  0  0  0  0  0  0  0  0
   15.0740   28.8720   74.2350 H   0  0  0  0  0  0  0  0  0  0  0  0
   16.7040   28.7210   72.5520 H   0  0  0  0  0  0  0  0  0  0  0  0
   17.4220   29.7530   73.7890 H   0  0  0  0  0  0  0  0  0  0  0  0
   13.0440   31.1360   75.3320 H   0  0  0  0  0  0  0  0  0  0  0  0
   10.4830   31.4460   75.1160 H   0  0  0  0  0  0  0  0  0  0  0  0
   10.8580   31.8620   73.5380 H   0  0  0  0  0  0  0  0  0  0  0  0
   11.0070   29.1970   74.1100 H   0  0  0  0  0  0  0  0  0  0  0  0
   12.5380   28.7130   74.8540 H   0  0  0  0  0  0  0  0  0  0  0  0
   12.8140   28.8050   77.1710 H   0  0  0  0  0  0  0  0  0  0  0  0
   11.7320   29.0280   79.3990 H   0  0  0  0  0  0  0  0  0  0  0  0
    8.3110   30.7030   77.5650 H   0  0  0  0  0  0  0  0  0  0  0  0
    9.3870   30.4830   75.3390 H   0  0  0  0  0  0  0  0  0  0  0  0
    9.5720   30.7500   80.5450 H   0  0  0  0  0  0  0  0  0  0  0  0
   17.0940   33.9610   74.0030 H   0  0  0  0  0  0  0  0  0  0  0  0
   17.1830   33.0300   70.0390 H   0  0  0  0  0  0  0  0  0  0  0  0
   15.9900   33.9590   70.9730 H   0  0  0  0  0  0  0  0  0  0  0  0
   17.5660   34.7080   70.6940 H   0  0  0  0  0  0  0  0  0  0  0  0
  2  1  1  0  0  0  0
  2  3  2  0  0  0  0
  3 35  1  0  0  0  0
  4  3  1  0  0  0  0
  4 10  1  0  0  0  0
  5  4  1  0  0  0  0
  6  5  2  0  0  0  0
  7  8  1  0  0  0  0
  7  5  1  0  0  0  0
  8  2  1  0  0  0  0
  9  8  2  0  0  0  0
 10 37  1  1  0  0  0
 11 10  1  0  0  0  0
 11 12  1  0  0  0  0
 11 33  1  1  0  0  0
 12 38  1  0  0  0  0
 13 14  1  6  0  0  0
 13 12  1  0  0  0  0
 13 20  1  0  0  0  0
 14 15  1  0  0  0  0
 15 10  1  0  0  0  0
 15 41  1  0  0  0  0
 16 17  1  0  0  0  0
 16 13  1  0  0  0  0
 17 18  1  0  0  0  0
 18 21  1  0  0  0  0
 18 19  1  0  0  0  0
 19 47  1  0  0  0  0
 19 46  1  0  0  0  0
 20 49  1  0  0  0  0
 20 19  1  0  0  0  0
 21 23  1  0  0  0  0
 22 21  2  0  0  0  0
 23 24  1  0  0  0  0
 23 25  1  0  0  0  0
 23 50  1  1  0  0  0
 24 51  1  0  0  0  0
 25 54  1  0  0  0  0
 25 26  1  0  0  0  0
 26 31  2  0  0  0  0
 26 27  1  0  0  0  0
 27 28  2  0  0  0  0
 28 29  1  0  0  0  0
 28 56  1  0  0  0  0
 29 32  1  0  0  0  0
 30 57  1  0  0  0  0
 30 29  2  0  0  0  0
 31 30  1  0  0  0  0
 32 59  1  0  0  0  0
 33 60  1  0  0  0  0
 34 62  1  0  0  0  0
 34 11  1  0  0  0  0
 36  7  1  0  0  0  0
 39 12  1  0  0  0  0
 40 15  1  0  0  0  0
 42 16  1  0  0  0  0
 43 16  1  0  0  0  0
 44 17  1  0  0  0  0
 45 17  1  0  0  0  0
 48 20  1  0  0  0  0
 52 24  1  0  0  0  0
 53 25  1  0  0  0  0
 55 27  1  0  0  0  0
 58 31  1  0  0  0  0
 61 34  1  0  0  0  0
 63 34  1  0  0  0  0
M  END
>  <Pose>
1

>  <Score>
-5.97

$$$$
