
 OpenBabel03212208413D

 41 44  0  0  1  0  0  0  0  0999 V2000
   24.1690   36.6520   65.2080 B   0  0  0  0  0  0  0  0  0  0  0  0
   23.6820   35.3130   66.4870 C   0  0  0  0  0  0  0  0  0  0  0  0
   22.5040   35.3740   67.1980 C   0  0  0  0  0  0  0  0  0  0  0  0
   22.1540   34.4220   68.1090 N   0  0  0  0  0  0  0  0  0  0  0  0
   22.9910   33.3900   68.3170 C   0  0  0  0  0  0  0  0  0  0  0  0
   22.4480   32.5830   69.2460 N   0  0  0  0  0  0  0  0  0  0  0  0
   21.2650   33.0870   69.6410 C   0  0  0  0  0  0  0  0  0  0  0  0
   21.0910   34.2470   68.9160 C   0  0  0  0  0  0  0  0  0  0  0  0
   20.3300   32.5240   70.6480 C   0  0  0  0  0  0  0  0  0  0  0  0
   19.1040   32.0700   70.0290 N   0  0  0  0  0  0  0  0  0  0  0  0
   17.8740   32.3300   70.6530 C   0  0  0  0  0  0  0  0  0  0  0  0
   16.8750   32.6270   69.9650 O   0  0  0  0  0  0  0  0  0  0  0  0
   17.7470   32.2540   72.1200 C   0  0  1  0  0  0  0  0  0  0  0  0
   16.3680   32.6790   72.5550 C   0  0  0  0  0  0  0  0  0  0  0  0
   15.4280   31.7680   71.9300 N   0  0  0  0  0  0  0  0  0  0  0  0
   15.7450   30.4720   71.7810 C   0  0  0  0  0  0  0  0  0  0  0  0
   14.6950   29.8790   71.1780 N   0  0  0  0  0  0  0  0  0  0  0  0
   13.7650   30.7620   70.9600 N   0  0  0  0  0  0  0  0  0  0  0  0
   14.2070   31.9380   71.4220 C   0  0  0  0  0  0  0  0  0  0  0  0
   13.3970   33.1930   71.3400 C   0  0  0  0  0  0  0  0  0  0  0  0
   17.0130   29.8640   72.2130 C   0  0  0  0  0  0  0  0  0  0  0  0
   18.0600   30.8540   72.5810 C   0  0  0  0  0  0  0  0  0  0  0  0
   24.1890   33.2990   67.6140 C   0  0  0  0  0  0  0  0  0  0  0  0
   24.5430   34.2570   66.6970 C   0  0  0  0  0  0  0  0  0  0  0  0
   21.8460   36.1970   67.0280 H   0  0  0  0  0  0  0  0  0  0  0  0
   20.2710   34.9520   68.9340 H   0  0  0  0  0  0  0  0  0  0  0  0
   20.8470   31.7060   71.2060 H   0  0  0  0  0  0  0  0  0  0  0  0
   20.0890   33.3110   71.4130 H   0  0  0  0  0  0  0  0  0  0  0  0
   19.1190   31.5550   69.1280 H   0  0  0  0  0  0  0  0  0  0  0  0
   18.5280   32.9140   72.5650 H   0  0  0  0  0  0  0  0  0  0  0  0
   16.2990   32.5820   73.6640 H   0  0  0  0  0  0  0  0  0  0  0  0
   16.2090   33.7320   72.2480 H   0  0  0  0  0  0  0  0  0  0  0  0
   14.0480   34.0660   71.4440 H   0  0  0  0  0  0  0  0  0  0  0  0
   12.8900   33.2620   70.3400 H   0  0  0  0  0  0  0  0  0  0  0  0
   12.6020   33.1490   72.1120 H   0  0  0  0  0  0  0  0  0  0  0  0
   16.8330   29.2120   73.1120 H   0  0  0  0  0  0  0  0  0  0  0  0
   17.3510   29.1720   71.4130 H   0  0  0  0  0  0  0  0  0  0  0  0
   19.0330   30.5570   72.1030 H   0  0  0  0  0  0  0  0  0  0  0  0
   18.2490   30.8830   73.6760 H   0  0  0  0  0  0  0  0  0  0  0  0
   24.8170   32.4440   67.8280 H   0  0  0  0  0  0  0  0  0  0  0  0
   25.4870   34.1430   66.1740 H   0  0  0  0  0  0  0  0  0  0  0  0
  1  2  1  0  0  0  0
  2 24  1  0  0  0  0
  2  3  2  0  0  0  0
  3  4  1  0  0  0  0
  4  5  1  0  0  0  0
  4  8  1  0  0  0  0
  5  6  2  0  0  0  0
  6  7  1  0  0  0  0
  7  9  1  0  0  0  0
  8 26  1  0  0  0  0
  8  7  2  0  0  0  0
  9 27  1  0  0  0  0
  9 28  1  0  0  0  0
 10  9  1  0  0  0  0
 10 11  1  0  0  0  0
 11 13  1  0  0  0  0
 12 11  2  0  0  0  0
 13 14  1  0  0  0  0
 13 30  1  1  0  0  0
 13 22  1  0  0  0  0
 14 31  1  0  0  0  0
 15 14  1  0  0  0  0
 16 15  1  0  0  0  0
 16 21  1  0  0  0  0
 17 16  2  0  0  0  0
 18 17  1  0  0  0  0
 18 19  2  0  0  0  0
 19 15  1  0  0  0  0
 20 19  1  0  0  0  0
 20 33  1  0  0  0  0
 20 35  1  0  0  0  0
 21 22  1  0  0  0  0
 21 36  1  0  0  0  0
 22 39  1  0  0  0  0
 23 40  1  0  0  0  0
 23  5  1  0  0  0  0
 24 23  2  0  0  0  0
 25  3  1  0  0  0  0
 29 10  1  0  0  0  0
 32 14  1  0  0  0  0
 34 20  1  0  0  0  0
 37 21  1  0  0  0  0
 38 22  1  0  0  0  0
 41 24  1  0  0  0  0
M  END
>  <Pose>
1

>  <Score>
-5.59

$$$$
