
 OpenBabel03212208413D

 37 40  0  0  1  0  0  0  0  0999 V2000
   13.9970   37.0630   69.7620 B   0  0  0  0  0  0  0  0  0  0  0  0
   13.7540   35.2630   70.3900 C   0  0  0  0  0  0  0  0  0  0  0  0
   14.8270   34.4580   70.7000 C   0  0  0  0  0  0  0  0  0  0  0  0
   14.6720   33.1830   71.1450 N   0  0  0  0  0  0  0  0  0  0  0  0
   15.5150   32.2270   71.5020 N   0  0  0  0  0  0  0  0  0  0  0  0
   14.8730   31.1130   71.8780 C   0  0  0  0  0  0  0  0  0  0  0  0
   13.5230   31.4350   71.7330 C   0  0  0  0  0  0  0  0  0  0  0  0
   13.4110   32.7320   71.2730 C   0  0  0  0  0  0  0  0  0  0  0  0
   12.3440   33.5180   70.9710 N   0  0  0  0  0  0  0  0  0  0  0  0
   12.4730   34.7790   70.5310 C   0  0  0  0  0  0  0  0  0  0  0  0
   15.4080   29.8260   72.3450 C   0  0  0  0  0  0  0  0  0  0  0  0
   16.2230   29.1980   71.6160 O   0  0  0  0  0  0  0  0  0  0  0  0
   15.0470   29.2520   73.5910 N   0  0  0  0  0  0  0  0  0  0  0  0
   16.0100   28.5470   74.3540 C   0  0  0  0  0  0  0  0  0  0  0  0
   15.4320   27.5070   75.2400 C   0  0  2  0  0  0  0  0  0  0  0  0
   14.0020   27.3860   75.2160 N   0  0  2  0  0  0  0  0  0  0  0  0
   13.3570   28.6820   75.3090 C   0  0  0  0  0  0  0  0  0  0  0  0
   13.6870   29.4200   74.0260 C   0  0  0  0  0  0  0  0  0  0  0  0
   13.7200   26.5040   76.3070 C   0  0  0  0  0  0  0  0  0  0  0  0
   14.7030   26.8760   77.3890 C   0  0  0  0  0  0  0  0  0  0  0  0
   15.7140   27.7720   76.7090 C   0  0  0  0  0  0  0  0  0  0  0  0
   15.8210   34.8600   70.5820 H   0  0  0  0  0  0  0  0  0  0  0  0
   12.7340   30.7350   71.9610 H   0  0  0  0  0  0  0  0  0  0  0  0
   11.6080   35.4050   70.2900 H   0  0  0  0  0  0  0  0  0  0  0  0
   16.6080   29.2700   74.9620 H   0  0  0  0  0  0  0  0  0  0  0  0
   16.7790   28.0850   73.6610 H   0  0  0  0  0  0  0  0  0  0  0  0
   15.8440   26.5040   74.9810 H   0  0  0  0  0  0  0  0  0  0  0  0
   12.2660   28.5020   75.3300 H   0  0  0  0  0  0  0  0  0  0  0  0
   13.6210   29.2420   76.2140 H   0  0  0  0  0  0  0  0  0  0  0  0
   13.4870   30.5050   74.1410 H   0  0  0  0  0  0  0  0  0  0  0  0
   12.9710   29.0680   73.2190 H   0  0  0  0  0  0  0  0  0  0  0  0
   13.9330   25.4590   75.9440 H   0  0  0  0  0  0  0  0  0  0  0  0
   12.6720   26.5600   76.6600 H   0  0  0  0  0  0  0  0  0  0  0  0
   14.1650   27.3870   78.2140 H   0  0  0  0  0  0  0  0  0  0  0  0
   15.1850   25.9760   77.8260 H   0  0  0  0  0  0  0  0  0  0  0  0
   16.7530   27.5210   76.9630 H   0  0  0  0  0  0  0  0  0  0  0  0
   15.5100   28.8400   76.9140 H   0  0  0  0  0  0  0  0  0  0  0  0
  1  2  1  0  0  0  0
  2 10  1  0  0  0  0
  2  3  2  0  0  0  0
  3  4  1  0  0  0  0
  4  8  1  0  0  0  0
  4  5  1  0  0  0  0
  5  6  2  0  0  0  0
  6 11  1  0  0  0  0
  7  6  1  0  0  0  0
  7 23  1  0  0  0  0
  8  7  2  0  0  0  0
  9  8  1  0  0  0  0
 10  9  2  0  0  0  0
 11 13  1  0  0  0  0
 12 11  2  0  0  0  0
 13 18  1  0  0  0  0
 13 14  1  0  0  0  0
 14 25  1  0  0  0  0
 14 15  1  0  0  0  0
 15 27  1  6  0  0  0
 15 21  1  0  0  0  0
 16 15  1  0  0  0  0
 16 17  1  1  0  0  0
 16 19  1  0  0  0  0
 17 28  1  0  0  0  0
 17 29  1  0  0  0  0
 18 30  1  0  0  0  0
 18 17  1  0  0  0  0
 19 33  1  0  0  0  0
 19 20  1  0  0  0  0
 20 35  1  0  0  0  0
 20 34  1  0  0  0  0
 21 37  1  0  0  0  0
 21 36  1  0  0  0  0
 21 20  1  0  0  0  0
 22  3  1  0  0  0  0
 24 10  1  0  0  0  0
 26 14  1  0  0  0  0
 31 18  1  0  0  0  0
 32 19  1  0  0  0  0
M  END
>  <Pose>
1

>  <Score>
-5.69

$$$$
