
 OpenBabel03212208413D

 39 42  0  0  0  0  0  0  0  0999 V2000
   12.9410   35.8010   69.7590 B   0  0  0  0  0  0  0  0  0  0  0  0
   14.4750   35.0910   70.6370 C   0  0  0  0  0  0  0  0  0  0  0  0
   14.3660   34.0330   71.4830 C   0  0  0  0  0  0  0  0  0  0  0  0
   15.4320   33.5330   72.0970 N   0  0  0  0  0  0  0  0  0  0  0  0
   15.5690   32.5200   72.9530 N   0  0  0  0  0  0  0  0  0  0  0  0
   16.8670   32.4240   73.2820 C   0  0  0  0  0  0  0  0  0  0  0  0
   17.5770   33.3990   72.6210 C   0  0  0  0  0  0  0  0  0  0  0  0
   16.6330   34.0920   71.8720 C   0  0  0  0  0  0  0  0  0  0  0  0
   16.7570   35.1380   71.0390 N   0  0  0  0  0  0  0  0  0  0  0  0
   15.7000   35.6570   70.4100 C   0  0  0  0  0  0  0  0  0  0  0  0
   18.9900   33.6830   72.6620 C   0  0  0  0  0  0  0  0  0  0  0  0
   19.3610   34.7700   73.1920 O   0  0  0  0  0  0  0  0  0  0  0  0
   19.9370   32.7730   72.1260 N   0  0  0  0  0  0  0  0  0  0  0  0
   19.5410   32.0090   70.9330 C   0  0  0  0  0  0  0  0  0  0  0  0
   20.8670   31.6820   70.2480 C   0  0  0  0  0  0  0  0  0  0  0  0
   21.6870   32.8460   70.4070 N   0  0  0  0  0  0  0  0  0  0  0  0
   22.3820   32.8720   71.7270 C   0  0  0  0  0  0  0  0  0  0  0  0
   21.2530   32.5910   72.7220 C   0  0  0  0  0  0  0  0  0  0  0  0
   21.8580   33.9090   69.5350 C   0  0  0  0  0  0  0  0  0  0  0  0
   22.7840   33.7880   68.6310 O   0  0  0  0  0  0  0  0  0  0  0  0
   21.1510   35.1770   69.4650 C   0  0  0  0  0  0  0  0  0  0  0  0
   21.0300   35.9190   68.3560 O   0  0  0  0  0  0  0  0  0  0  0  0
   20.3570   36.9980   68.5660 C   0  0  0  0  0  0  0  0  0  0  0  0
   19.9710   37.0460   69.8820 C   0  0  0  0  0  0  0  0  0  0  0  0
   20.4830   35.8840   70.4360 C   0  0  0  0  0  0  0  0  0  0  0  0
   13.3870   33.5800   71.6650 H   0  0  0  0  0  0  0  0  0  0  0  0
   17.2630   31.6820   73.9670 H   0  0  0  0  0  0  0  0  0  0  0  0
   15.7670   36.4970   69.7340 H   0  0  0  0  0  0  0  0  0  0  0  0
   18.9850   32.6620   70.2560 H   0  0  0  0  0  0  0  0  0  0  0  0
   19.0360   31.0900   71.2370 H   0  0  0  0  0  0  0  0  0  0  0  0
   20.7890   31.2410   69.2720 H   0  0  0  0  0  0  0  0  0  0  0  0
   21.3190   30.8300   70.8830 H   0  0  0  0  0  0  0  0  0  0  0  0
   22.8640   33.8390   71.8960 H   0  0  0  0  0  0  0  0  0  0  0  0
   23.0970   32.0250   71.6760 H   0  0  0  0  0  0  0  0  0  0  0  0
   21.3320   31.5750   73.1400 H   0  0  0  0  0  0  0  0  0  0  0  0
   21.3500   33.3370   73.5300 H   0  0  0  0  0  0  0  0  0  0  0  0
   20.1110   37.7820   67.8320 H   0  0  0  0  0  0  0  0  0  0  0  0
   19.3910   37.8170   70.3960 H   0  0  0  0  0  0  0  0  0  0  0  0
   20.3530   35.6380   71.4810 H   0  0  0  0  0  0  0  0  0  0  0  0
  1  2  1  0  0  0  0
  2  3  2  0  0  0  0
  3 26  1  0  0  0  0
  3  4  1  0  0  0  0
  4  5  1  0  0  0  0
  5  6  2  0  0  0  0
  6 27  1  0  0  0  0
  7 11  1  0  0  0  0
  7  6  1  0  0  0  0
  8  4  1  0  0  0  0
  8  7  2  0  0  0  0
  9  8  1  0  0  0  0
 10  2  1  0  0  0  0
 10  9  2  0  0  0  0
 11 12  2  0  0  0  0
 13 11  1  0  0  0  0
 13 18  1  0  0  0  0
 14 30  1  0  0  0  0
 14 13  1  0  0  0  0
 15 16  1  0  0  0  0
 15 32  1  0  0  0  0
 15 14  1  0  0  0  0
 16 17  1  0  0  0  0
 17 33  1  0  0  0  0
 17 18  1  0  0  0  0
 18 35  1  0  0  0  0
 18 36  1  0  0  0  0
 19 16  1  0  0  0  0
 20 19  2  0  0  0  0
 21 19  1  0  0  0  0
 21 25  2  0  0  0  0
 22 23  1  0  0  0  0
 22 21  1  0  0  0  0
 23 24  2  0  0  0  0
 24 38  1  0  0  0  0
 24 25  1  0  0  0  0
 25 39  1  0  0  0  0
 28 10  1  0  0  0  0
 29 14  1  0  0  0  0
 31 15  1  0  0  0  0
 34 17  1  0  0  0  0
 37 23  1  0  0  0  0
M  END
>  <Pose>
1

>  <Score>
-5.84

$$$$
