
 OpenBabel03212208413D

 40 43  0  0  0  0  0  0  0  0999 V2000
   25.3630   36.7260   68.1080 B   0  0  0  0  0  0  0  0  0  0  0  0
   23.4730   37.0390   68.0100 C   0  0  0  0  0  0  0  0  0  0  0  0
   22.6520   36.8560   69.1010 C   0  0  0  0  0  0  0  0  0  0  0  0
   21.3180   37.0650   69.0700 N   0  0  0  0  0  0  0  0  0  0  0  0
   20.6970   37.4740   67.9500 C   0  0  0  0  0  0  0  0  0  0  0  0
   19.3700   37.6870   67.9010 N   0  0  0  0  0  0  0  0  0  0  0  0
   18.5580   37.5100   68.9710 C   0  0  0  0  0  0  0  0  0  0  0  0
   19.1740   37.0900   70.1310 C   0  0  0  0  0  0  0  0  0  0  0  0
   20.5490   36.8740   70.1620 C   0  0  0  0  0  0  0  0  0  0  0  0
   21.1130   36.4970   71.2010 O   0  0  0  0  0  0  0  0  0  0  0  0
   17.0950   37.7570   68.8900 C   0  0  0  0  0  0  0  0  0  0  0  0
   16.3430   36.9860   69.7900 O   0  0  0  0  0  0  0  0  0  0  0  0
   14.9860   36.7520   69.7040 C   0  0  0  0  0  0  0  0  0  0  0  0
   14.4010   36.9090   68.6140 O   0  0  0  0  0  0  0  0  0  0  0  0
   14.2630   36.3170   70.9210 C   0  0  0  0  0  0  0  0  0  0  0  0
   14.4190   34.9070   71.1380 N   0  0  0  0  0  0  0  0  0  0  0  0
   13.4590   33.9110   70.8630 C   0  0  0  0  0  0  0  0  0  0  0  0
   12.3000   34.0290   70.3870 O   0  0  0  0  0  0  0  0  0  0  0  0
   14.0340   32.6010   71.2360 C   0  0  0  0  0  0  0  0  0  0  0  0
   15.2960   32.8240   71.7160 C   0  0  0  0  0  0  0  0  0  0  0  0
   16.0910   31.8010   72.1460 C   0  0  0  0  0  0  0  0  0  0  0  0
   15.5990   30.5200   72.0890 C   0  0  0  0  0  0  0  0  0  0  0  0
   14.3250   30.2930   71.6050 C   0  0  0  0  0  0  0  0  0  0  0  0
   13.5150   31.3190   71.1690 C   0  0  0  0  0  0  0  0  0  0  0  0
   15.5580   34.2640   71.6630 C   0  0  0  0  0  0  0  0  0  0  0  0
   16.6420   34.8090   72.0360 O   0  0  0  0  0  0  0  0  0  0  0  0
   21.5040   37.6680   66.8260 C   0  0  0  0  0  0  0  0  0  0  0  0
   22.8650   37.4580   66.8450 C   0  0  0  0  0  0  0  0  0  0  0  0
   23.1310   36.5240   70.0240 H   0  0  0  0  0  0  0  0  0  0  0  0
   18.5790   36.9290   71.0370 H   0  0  0  0  0  0  0  0  0  0  0  0
   16.8580   38.8240   69.0700 H   0  0  0  0  0  0  0  0  0  0  0  0
   16.7060   37.5300   67.8570 H   0  0  0  0  0  0  0  0  0  0  0  0
   13.1730   36.5010   70.6990 H   0  0  0  0  0  0  0  0  0  0  0  0
   14.5470   36.9210   71.8100 H   0  0  0  0  0  0  0  0  0  0  0  0
   17.0810   31.9890   72.5200 H   0  0  0  0  0  0  0  0  0  0  0  0
   16.2440   29.7270   72.4330 H   0  0  0  0  0  0  0  0  0  0  0  0
   13.9920   29.2640   71.5850 H   0  0  0  0  0  0  0  0  0  0  0  0
   12.5210   31.1500   70.7910 H   0  0  0  0  0  0  0  0  0  0  0  0
   20.9980   37.9950   65.9340 H   0  0  0  0  0  0  0  0  0  0  0  0
   23.4860   37.6090   65.9730 H   0  0  0  0  0  0  0  0  0  0  0  0
  2  1  1  0  0  0  0
  2  3  1  0  0  0  0
  3 29  1  0  0  0  0
  4  3  1  0  0  0  0
  4  9  1  0  0  0  0
  5  4  1  0  0  0  0
  6  5  1  0  0  0  0
  6  7  2  0  0  0  0
  7  8  1  0  0  0  0
  8  9  1  0  0  0  0
  8 30  1  0  0  0  0
  9 10  2  0  0  0  0
 11  7  1  0  0  0  0
 11 31  1  0  0  0  0
 11 12  1  0  0  0  0
 13 12  1  0  0  0  0
 13 15  1  0  0  0  0
 14 13  2  0  0  0  0
 15 16  1  0  0  0  0
 15 34  1  0  0  0  0
 16 25  1  0  0  0  0
 17 16  1  0  0  0  0
 17 19  1  0  0  0  0
 18 17  2  0  0  0  0
 19 20  1  0  0  0  0
 20 21  2  0  0  0  0
 21 35  1  0  0  0  0
 22 21  1  0  0  0  0
 22 36  1  0  0  0  0
 23 22  2  0  0  0  0
 24 19  2  0  0  0  0
 24 23  1  0  0  0  0
 25 20  1  0  0  0  0
 25 26  2  0  0  0  0
 27 28  1  0  0  0  0
 27  5  2  0  0  0  0
 28  2  2  0  0  0  0
 32 11  1  0  0  0  0
 33 15  1  0  0  0  0
 37 23  1  0  0  0  0
 38 24  1  0  0  0  0
 39 27  1  0  0  0  0
 40 28  1  0  0  0  0
M  END
>  <Pose>
1

>  <Score>
-6.82

$$$$
