
 OpenBabel03212208413D

 45 48  0  0  0  0  0  0  0  0999 V2000
   24.7770   36.4710   67.6910 B   0  0  0  0  0  0  0  0  0  0  0  0
   22.9170   36.8160   67.9530 C   0  0  0  0  0  0  0  0  0  0  0  0
   22.2910   36.2980   69.0670 C   0  0  0  0  0  0  0  0  0  0  0  0
   20.9820   36.5380   69.2540 N   0  0  0  0  0  0  0  0  0  0  0  0
   20.2640   37.2740   68.3810 C   0  0  0  0  0  0  0  0  0  0  0  0
   18.9450   37.5040   68.5900 N   0  0  0  0  0  0  0  0  0  0  0  0
   18.2940   37.0180   69.6610 C   0  0  0  0  0  0  0  0  0  0  0  0
   19.0110   36.2650   70.5620 C   0  0  0  0  0  0  0  0  0  0  0  0
   20.3720   36.0280   70.3470 C   0  0  0  0  0  0  0  0  0  0  0  0
   21.0290   35.3500   71.1540 O   0  0  0  0  0  0  0  0  0  0  0  0
   16.8490   37.2770   69.8780 C   0  0  0  0  0  0  0  0  0  0  0  0
   16.1240   36.1080   69.5450 O   0  0  0  0  0  0  0  0  0  0  0  0
   14.9480   35.7560   70.1640 C   0  0  0  0  0  0  0  0  0  0  0  0
   13.8750   35.8850   69.5200 O   0  0  0  0  0  0  0  0  0  0  0  0
   14.8520   35.2290   71.5510 C   0  0  0  0  0  0  0  0  0  0  0  0
   14.3420   33.8910   71.5960 N   0  0  0  0  0  0  0  0  0  0  0  0
   12.9740   33.4990   71.4940 C   0  0  0  0  0  0  0  0  0  0  0  0
   12.0010   34.2940   71.3460 O   0  0  0  0  0  0  0  0  0  0  0  0
   12.9120   32.0810   71.5890 N   0  0  0  0  0  0  0  0  0  0  0  0
   14.2240   31.5790   71.9110 C   0  0  0  0  0  0  0  0  0  0  0  0
   14.3220   31.0570   73.3200 C   0  0  0  0  0  0  0  0  0  0  0  0
   15.5330   30.1790   73.2780 C   0  0  0  0  0  0  0  0  0  0  0  0
   15.8570   29.9070   71.8380 C   0  0  0  0  0  0  0  0  0  0  0  0
   14.6400   30.4070   71.0890 C   0  0  0  0  0  0  0  0  0  0  0  0
   15.1340   32.7120   71.7550 C   0  0  0  0  0  0  0  0  0  0  0  0
   16.3870   32.7110   71.7510 O   0  0  0  0  0  0  0  0  0  0  0  0
   20.8850   37.7960   67.2640 C   0  0  0  0  0  0  0  0  0  0  0  0
   22.2230   37.5780   67.0260 C   0  0  0  0  0  0  0  0  0  0  0  0
   22.8270   35.7010   69.7950 H   0  0  0  0  0  0  0  0  0  0  0  0
   18.5120   35.8620   71.4340 H   0  0  0  0  0  0  0  0  0  0  0  0
   16.6760   37.5100   70.9450 H   0  0  0  0  0  0  0  0  0  0  0  0
   16.5240   38.1360   69.2480 H   0  0  0  0  0  0  0  0  0  0  0  0
   15.8360   35.3220   72.0610 H   0  0  0  0  0  0  0  0  0  0  0  0
   14.1630   35.9290   72.0950 H   0  0  0  0  0  0  0  0  0  0  0  0
   12.0490   31.5310   71.4420 H   0  0  0  0  0  0  0  0  0  0  0  0
   14.5300   31.9460   73.9830 H   0  0  0  0  0  0  0  0  0  0  0  0
   13.4230   30.5470   73.6700 H   0  0  0  0  0  0  0  0  0  0  0  0
   15.2730   29.1950   73.7580 H   0  0  0  0  0  0  0  0  0  0  0  0
   16.3790   30.6480   73.8300 H   0  0  0  0  0  0  0  0  0  0  0  0
   16.0210   28.8230   71.6470 H   0  0  0  0  0  0  0  0  0  0  0  0
   16.7850   30.4270   71.4900 H   0  0  0  0  0  0  0  0  0  0  0  0
   14.8800   30.6490   70.0360 H   0  0  0  0  0  0  0  0  0  0  0  0
   13.8650   29.6050   71.1290 H   0  0  0  0  0  0  0  0  0  0  0  0
   20.2850   38.3790   66.5840 H   0  0  0  0  0  0  0  0  0  0  0  0
   22.7270   37.9780   66.1580 H   0  0  0  0  0  0  0  0  0  0  0  0
  1  2  1  0  0  0  0
  2  3  1  0  0  0  0
  3  4  1  0  0  0  0
  3 29  1  0  0  0  0
  4  9  1  0  0  0  0
  5  6  1  0  0  0  0
  5  4  1  0  0  0  0
  6  7  2  0  0  0  0
  7 11  1  0  0  0  0
  7  8  1  0  0  0  0
  8 30  1  0  0  0  0
  9  8  1  0  0  0  0
  9 10  2  0  0  0  0
 11 31  1  0  0  0  0
 12 11  1  0  0  0  0
 12 13  1  0  0  0  0
 13 15  1  0  0  0  0
 14 13  2  0  0  0  0
 15 16  1  0  0  0  0
 15 33  1  0  0  0  0
 15 34  1  0  0  0  0
 16 25  1  0  0  0  0
 17 19  1  0  0  0  0
 17 16  1  0  0  0  0
 18 17  2  0  0  0  0
 19 20  1  0  0  0  0
 20 21  1  0  0  0  0
 21 37  1  0  0  0  0
 21 36  1  0  0  0  0
 22 21  1  0  0  0  0
 22 38  1  0  0  0  0
 22 39  1  0  0  0  0
 23 22  1  0  0  0  0
 24 43  1  0  0  0  0
 24 23  1  0  0  0  0
 24 20  1  0  0  0  0
 25 20  1  0  0  0  0
 26 25  2  0  0  0  0
 27  5  2  0  0  0  0
 28 27  1  0  0  0  0
 28  2  2  0  0  0  0
 32 11  1  0  0  0  0
 35 19  1  0  0  0  0
 40 23  1  0  0  0  0
 41 23  1  0  0  0  0
 42 24  1  0  0  0  0
 44 27  1  0  0  0  0
 45 28  1  0  0  0  0
M  END
>  <Pose>
1

>  <Score>
-7.05

$$$$
