
 OpenBabel03212208413D

 56 59  0  0  1  0  0  0  0  0999 V2000
   13.7980   22.0190   75.9460 B   0  0  0  0  0  0  0  0  0  0  0  0
   14.6590   23.5000   75.0690 C   0  0  0  0  0  0  0  0  0  0  0  0
   13.9030   24.5690   74.6190 C   0  0  0  0  0  0  0  0  0  0  0  0
   14.5210   25.6420   73.9840 C   0  0  0  0  0  0  0  0  0  0  0  0
   15.8820   25.6720   73.7880 C   0  0  0  0  0  0  0  0  0  0  0  0
   16.6030   24.5920   74.2470 C   0  0  0  0  0  0  0  0  0  0  0  0
   16.0200   23.5200   74.8770 C   0  0  0  0  0  0  0  0  0  0  0  0
   16.5370   26.7810   73.1300 C   0  0  0  0  0  0  0  0  0  0  0  0
   17.0340   26.6140   71.9850 O   0  0  0  0  0  0  0  0  0  0  0  0
   16.6590   28.1310   73.7420 C   0  0  0  0  0  0  0  0  0  0  0  0
   15.5790   28.9900   73.3580 N   0  0  0  0  0  0  0  0  0  0  0  0
   15.2770   29.3790   72.1400 N   0  0  0  0  0  0  0  0  0  0  0  0
   14.2010   30.1810   72.1540 C   0  0  0  0  0  0  0  0  0  0  0  0
   13.8180   30.2960   73.4340 N   0  0  0  0  0  0  0  0  0  0  0  0
   14.6840   29.5480   74.1790 C   0  0  2  0  0  0  0  0  0  0  0  0
   14.6470   29.3820   75.6310 C   0  0  0  0  0  0  0  0  0  0  0  0
   13.3420   28.8060   76.1270 C   0  0  0  0  0  0  0  0  0  0  0  0
   12.2130   29.8090   76.0420 C   0  0  0  0  0  0  0  0  0  0  0  0
   11.7740   30.0850   74.6380 C   0  0  0  0  0  0  0  0  0  0  0  0
   12.6950   31.0680   73.9280 C   0  0  0  0  0  0  0  0  0  0  0  0
   13.5430   30.8260   71.0110 C   0  0  0  0  0  0  0  0  0  0  0  0
   12.8940   32.0500   71.3680 N   0  0  0  0  0  0  0  0  0  0  0  0
   13.3760   33.3300   70.9680 C   0  0  0  0  0  0  0  0  0  0  0  0
   12.7040   34.1170   70.0610 C   0  0  0  0  0  0  0  0  0  0  0  0
   13.1750   35.3490   69.6870 C   0  0  0  0  0  0  0  0  0  0  0  0
   14.3360   35.8150   70.2200 C   0  0  0  0  0  0  0  0  0  0  0  0
   15.0120   35.0290   71.1270 C   0  0  0  0  0  0  0  0  0  0  0  0
   14.5470   33.7880   71.5110 C   0  0  0  0  0  0  0  0  0  0  0  0
   14.8330   37.0450   69.8630 O   0  0  0  0  0  0  0  0  0  0  0  0
   16.1900   37.3890   69.9910 C   0  0  0  0  0  0  0  0  0  0  0  0
   12.8420   24.5380   74.7770 H   0  0  0  0  0  0  0  0  0  0  0  0
   13.9120   26.4610   73.6440 H   0  0  0  0  0  0  0  0  0  0  0  0
   17.6920   24.5980   74.1000 H   0  0  0  0  0  0  0  0  0  0  0  0
   16.6350   22.7080   75.2130 H   0  0  0  0  0  0  0  0  0  0  0  0
   16.8020   28.0720   74.8380 H   0  0  0  0  0  0  0  0  0  0  0  0
   17.6060   28.5700   73.3090 H   0  0  0  0  0  0  0  0  0  0  0  0
   15.4500   28.7090   75.9810 H   0  0  0  0  0  0  0  0  0  0  0  0
   14.7960   30.3480   76.1930 H   0  0  0  0  0  0  0  0  0  0  0  0
   13.0630   27.8670   75.6470 H   0  0  0  0  0  0  0  0  0  0  0  0
   13.4870   28.5860   77.2140 H   0  0  0  0  0  0  0  0  0  0  0  0
   12.4270   30.7200   76.6040 H   0  0  0  0  0  0  0  0  0  0  0  0
   11.3370   29.3230   76.5620 H   0  0  0  0  0  0  0  0  0  0  0  0
   11.7280   29.1780   74.0370 H   0  0  0  0  0  0  0  0  0  0  0  0
   10.7430   30.5300   74.6900 H   0  0  0  0  0  0  0  0  0  0  0  0
   13.0000   31.8940   74.5890 H   0  0  0  0  0  0  0  0  0  0  0  0
   12.1510   31.4980   73.0740 H   0  0  0  0  0  0  0  0  0  0  0  0
   12.7860   30.1090   70.5990 H   0  0  0  0  0  0  0  0  0  0  0  0
   14.2560   31.0210   70.1930 H   0  0  0  0  0  0  0  0  0  0  0  0
   12.0370   32.0330   71.9400 H   0  0  0  0  0  0  0  0  0  0  0  0
   11.7720   33.6940   69.6620 H   0  0  0  0  0  0  0  0  0  0  0  0
   12.6160   35.9290   68.9770 H   0  0  0  0  0  0  0  0  0  0  0  0
   15.9480   35.3750   71.5730 H   0  0  0  0  0  0  0  0  0  0  0  0
   15.0990   33.1770   72.2390 H   0  0  0  0  0  0  0  0  0  0  0  0
   16.3290   38.4730   69.8970 H   0  0  0  0  0  0  0  0  0  0  0  0
   16.5420   37.0610   70.9900 H   0  0  0  0  0  0  0  0  0  0  0  0
   16.8190   36.8730   69.2310 H   0  0  0  0  0  0  0  0  0  0  0  0
  2  1  1  0  0  0  0
  3 31  1  0  0  0  0
  3  2  2  0  0  0  0
  4  3  1  0  0  0  0
  5  4  2  0  0  0  0
  5  6  1  0  0  0  0
  6  7  2  0  0  0  0
  7  2  1  0  0  0  0
  7 34  1  0  0  0  0
  8 10  1  0  0  0  0
  8  5  1  0  0  0  0
  9  8  2  0  0  0  0
 10 35  1  0  0  0  0
 11 10  1  0  0  0  0
 12 13  2  0  0  0  0
 12 11  1  0  0  0  0
 13 14  1  0  0  0  0
 14 20  1  0  0  0  0
 14 15  1  0  0  0  0
 15 11  1  1  0  0  0
 15 16  1  0  0  0  0
 16 37  1  0  0  0  0
 16 17  1  0  0  0  0
 16 38  1  0  0  0  0
 17 40  1  0  0  0  0
 18 17  1  0  0  0  0
 18 42  1  0  0  0  0
 18 41  1  0  0  0  0
 19 44  1  0  0  0  0
 19 18  1  0  0  0  0
 20 45  1  0  0  0  0
 20 19  1  0  0  0  0
 21 22  1  0  0  0  0
 21 13  1  0  0  0  0
 22 49  1  0  0  0  0
 23 22  1  0  0  0  0
 23 28  1  0  0  0  0
 24 23  2  0  0  0  0
 25 24  1  0  0  0  0
 25 26  2  0  0  0  0
 26 27  1  0  0  0  0
 27 28  2  0  0  0  0
 27 52  1  0  0  0  0
 28 53  1  0  0  0  0
 29 30  1  0  0  0  0
 29 26  1  0  0  0  0
 30 55  1  0  0  0  0
 32  4  1  0  0  0  0
 33  6  1  0  0  0  0
 36 10  1  0  0  0  0
 39 17  1  0  0  0  0
 43 19  1  0  0  0  0
 46 20  1  0  0  0  0
 47 21  1  0  0  0  0
 48 21  1  0  0  0  0
 50 24  1  0  0  0  0
 51 25  1  0  0  0  0
 54 30  1  0  0  0  0
 56 30  1  0  0  0  0
M  END
>  <Pose>
1

>  <Score>
-6.46

$$$$
