
 OpenBabel03212208413D

 50 53  0  0  1  0  0  0  0  0999 V2000
   26.8800   38.9530   65.9920 B   0  0  0  0  0  0  0  0  0  0  0  0
   25.9450   37.3500   66.4620 C   0  0  0  0  0  0  0  0  0  0  0  0
   26.0420   36.2470   65.6450 C   0  0  0  0  0  0  0  0  0  0  0  0
   25.3720   35.0650   65.9600 C   0  0  0  0  0  0  0  0  0  0  0  0
   24.6070   35.0620   67.1300 C   0  0  0  0  0  0  0  0  0  0  0  0
   24.5020   36.1460   67.9430 C   0  0  0  0  0  0  0  0  0  0  0  0
   25.1750   37.3100   67.6130 C   0  0  0  0  0  0  0  0  0  0  0  0
   23.9180   33.8130   67.5110 C   0  0  1  0  0  0  0  0  0  0  0  0
   24.2260   33.4590   68.8900 N   0  0  0  0  0  0  0  0  0  0  0  0
   25.5040   33.7780   69.5160 C   0  0  0  0  0  0  0  0  0  0  0  0
   25.7200   33.0670   70.8010 C   0  0  0  0  0  0  0  0  0  0  0  0
   25.5070   31.5770   70.7250 C   0  0  0  0  0  0  0  0  0  0  0  0
   24.0890   31.3320   71.2040 C   0  0  0  0  0  0  0  0  0  0  0  0
   23.0490   31.8890   70.3890 C   0  0  0  0  0  0  0  0  0  0  0  0
   23.1050   32.8030   69.3930 C   0  0  0  0  0  0  0  0  0  0  0  0
   21.9330   33.2190   68.7310 N   0  0  0  0  0  4  0  0  0  0  0  0
   22.4380   33.9470   67.6030 C   0  0  0  0  0  0  0  0  0  0  0  0
   21.2340   34.0570   69.6510 C   0  0  0  0  0  0  0  0  0  0  0  0
   20.0890   33.6090   70.2890 C   0  0  0  0  0  0  0  0  0  0  0  0
   19.4400   34.5260   71.1050 C   0  0  0  0  0  0  0  0  0  0  0  0
   19.8680   35.8260   71.3060 C   0  0  0  0  0  0  0  0  0  0  0  0
   21.0390   36.2360   70.6350 C   0  0  0  0  0  0  0  0  0  0  0  0
   21.6600   35.3350   69.8480 C   0  0  0  0  0  0  0  0  0  0  0  0
   19.6590   32.3310   70.1010 O   0  0  0  0  0  0  0  0  0  0  0  0
   18.2990   31.9910   70.1830 C   0  0  0  0  0  0  0  0  0  0  0  0
   24.3420   32.7790   66.7180 O   0  0  0  0  0  0  0  0  0  0  0  0
   26.6450   36.2520   64.7340 H   0  0  0  0  0  0  0  0  0  0  0  0
   25.4990   34.2280   65.3000 H   0  0  0  0  0  0  0  0  0  0  0  0
   23.8940   36.1290   68.8640 H   0  0  0  0  0  0  0  0  0  0  0  0
   25.0830   38.1840   68.2730 H   0  0  0  0  0  0  0  0  0  0  0  0
   26.2990   33.4570   68.8060 H   0  0  0  0  0  0  0  0  0  0  0  0
   25.5580   34.8730   69.7660 H   0  0  0  0  0  0  0  0  0  0  0  0
   26.7960   33.2060   71.0990 H   0  0  0  0  0  0  0  0  0  0  0  0
   25.0940   33.5580   71.5760 H   0  0  0  0  0  0  0  0  0  0  0  0
   26.1760   31.0430   71.4790 H   0  0  0  0  0  0  0  0  0  0  0  0
   25.6450   31.1750   69.7020 H   0  0  0  0  0  0  0  0  0  0  0  0
   24.0400   31.7520   72.2590 H   0  0  0  0  0  0  0  0  0  0  0  0
   23.9610   30.2190   71.3060 H   0  0  0  0  0  0  0  0  0  0  0  0
   22.0550   31.5210   70.5870 H   0  0  0  0  0  0  0  0  0  0  0  0
   21.3310   32.4370   68.3830 H   0  0  0  0  0  0  0  0  0  0  0  0
   22.0990   35.0070   67.5910 H   0  0  0  0  0  0  0  0  0  0  0  0
   21.9950   33.5170   66.6890 H   0  0  0  0  0  0  0  0  0  0  0  0
   18.5400   34.1510   71.5880 H   0  0  0  0  0  0  0  0  0  0  0  0
   19.3580   36.5260   71.9420 H   0  0  0  0  0  0  0  0  0  0  0  0
   21.3730   37.2390   70.7760 H   0  0  0  0  0  0  0  0  0  0  0  0
   22.5660   35.7250   69.3350 H   0  0  0  0  0  0  0  0  0  0  0  0
   17.8730   32.4140   71.1200 H   0  0  0  0  0  0  0  0  0  0  0  0
   17.7860   32.4170   69.3110 H   0  0  0  0  0  0  0  0  0  0  0  0
   18.2200   30.8620   70.2040 H   0  0  0  0  0  0  0  0  0  0  0  0
   23.7110   32.0310   66.6590 H   0  0  0  0  0  0  0  0  0  0  0  0
  1  2  1  0  0  0  0
  2  7  1  0  0  0  0
  3  4  1  0  0  0  0
  3  2  2  0  0  0  0
  4  5  2  0  0  0  0
  5  8  1  0  0  0  0
  5  6  1  0  0  0  0
  6 29  1  0  0  0  0
  7  6  2  0  0  0  0
  7 30  1  0  0  0  0
  8 26  1  6  0  0  0
  8 17  1  0  0  0  0
  8  9  1  0  0  0  0
  9 15  1  0  0  0  0
  9 10  1  0  0  0  0
 10 32  1  0  0  0  0
 10 11  1  0  0  0  0
 11 33  1  0  0  0  0
 11 34  1  0  0  0  0
 12 11  1  0  0  0  0
 12 13  1  0  0  0  0
 12 35  1  0  0  0  0
 13 38  1  0  0  0  0
 13 37  1  0  0  0  0
 14 39  1  0  0  0  0
 14 13  1  0  0  0  0
 15 14  2  0  0  0  0
 16 15  1  0  0  0  0
 16 18  1  0  0  0  0
 17 16  1  0  0  0  0
 18 23  2  0  0  0  0
 18 19  1  0  0  0  0
 19 20  2  0  0  0  0
 20 21  1  0  0  0  0
 20 43  1  0  0  0  0
 21 44  1  0  0  0  0
 22 45  1  0  0  0  0
 22 21  2  0  0  0  0
 23 22  1  0  0  0  0
 24 25  1  0  0  0  0
 24 19  1  0  0  0  0
 25 49  1  0  0  0  0
 25 47  1  0  0  0  0
 27  3  1  0  0  0  0
 28  4  1  0  0  0  0
 31 10  1  0  0  0  0
 36 12  1  0  0  0  0
 40 16  1  0  0  0  0
 41 17  1  0  0  0  0
 42 17  1  0  0  0  0
 46 23  1  0  0  0  0
 48 25  1  0  0  0  0
 50 26  1  0  0  0  0
M  END
>  <Pose>
1

>  <Score>
-4.65

$$$$
