
 OpenBabel03212208413D

 50 53  0  0  1  0  0  0  0  0999 V2000
   13.5650   36.1030   69.9500 B   0  0  0  0  0  0  0  0  0  0  0  0
   13.9030   34.3860   70.7220 C   0  0  0  0  0  0  0  0  0  0  0  0
   12.8730   33.6010   71.1940 C   0  0  0  0  0  0  0  0  0  0  0  0
   13.1400   32.3580   71.7540 C   0  0  0  0  0  0  0  0  0  0  0  0
   14.3990   31.8690   71.8610 C   0  0  0  0  0  0  0  0  0  0  0  0
   15.4580   32.6680   71.3800 C   0  0  0  0  0  0  0  0  0  0  0  0
   15.1820   33.8920   70.8290 C   0  0  0  0  0  0  0  0  0  0  0  0
   14.8250   30.5900   72.4250 C   0  0  2  0  0  0  0  0  0  0  0  0
   13.8450   29.7910   73.0860 N   0  0  0  0  0  0  0  0  0  0  0  0
   12.6390   29.2470   72.5410 C   0  0  0  0  0  0  0  0  0  0  0  0
   11.4040   29.3880   73.3440 C   0  0  0  0  0  0  0  0  0  0  0  0
   11.5260   30.0400   74.6730 C   0  0  0  0  0  0  0  0  0  0  0  0
   12.2200   29.1400   75.6970 C   0  0  0  0  0  0  0  0  0  0  0  0
   13.6900   29.3620   75.5320 C   0  0  0  0  0  0  0  0  0  0  0  0
   14.3710   29.6360   74.4320 C   0  0  0  0  0  0  0  0  0  0  0  0
   15.7770   29.8460   74.3970 N   0  0  0  0  0  4  0  0  0  0  0  0
   15.8500   30.9630   73.5020 C   0  0  0  0  0  0  0  0  0  0  0  0
   16.4030   28.6890   73.9060 C   0  0  0  0  0  0  0  0  0  0  0  0
   15.6810   27.4920   73.7450 C   0  0  0  0  0  0  0  0  0  0  0  0
   16.2630   26.3470   73.2740 C   0  0  0  0  0  0  0  0  0  0  0  0
   17.5980   26.3210   72.9310 C   0  0  0  0  0  0  0  0  0  0  0  0
   18.3230   27.4750   73.0790 C   0  0  0  0  0  0  0  0  0  0  0  0
   17.7360   28.6290   73.5550 C   0  0  0  0  0  0  0  0  0  0  0  0
   18.1880   25.1380   72.4460 O   0  0  0  0  0  0  0  0  0  0  0  0
   19.5850   25.0070   72.4260 C   0  0  0  0  0  0  0  0  0  0  0  0
   15.4610   29.8990   71.3760 O   0  0  0  0  0  0  0  0  0  0  0  0
   11.8530   33.9240   71.1450 H   0  0  0  0  0  0  0  0  0  0  0  0
   12.3330   31.7490   72.1290 H   0  0  0  0  0  0  0  0  0  0  0  0
   16.4940   32.3310   71.4360 H   0  0  0  0  0  0  0  0  0  0  0  0
   15.9810   34.5190   70.4550 H   0  0  0  0  0  0  0  0  0  0  0  0
   12.5280   29.6640   71.4970 H   0  0  0  0  0  0  0  0  0  0  0  0
   12.7390   28.1330   72.3260 H   0  0  0  0  0  0  0  0  0  0  0  0
   10.8330   28.4380   73.4890 H   0  0  0  0  0  0  0  0  0  0  0  0
   10.6840   30.0320   72.7510 H   0  0  0  0  0  0  0  0  0  0  0  0
   12.0200   31.0370   74.6310 H   0  0  0  0  0  0  0  0  0  0  0  0
   10.5030   30.2150   75.0710 H   0  0  0  0  0  0  0  0  0  0  0  0
   11.9350   29.5670   76.7020 H   0  0  0  0  0  0  0  0  0  0  0  0
   11.9200   28.1060   75.5570 H   0  0  0  0  0  0  0  0  0  0  0  0
   14.2710   29.2860   76.4440 H   0  0  0  0  0  0  0  0  0  0  0  0
   16.0900   30.0890   75.3710 H   0  0  0  0  0  0  0  0  0  0  0  0
   16.8270   31.2120   73.1160 H   0  0  0  0  0  0  0  0  0  0  0  0
   15.4500   31.8540   74.0480 H   0  0  0  0  0  0  0  0  0  0  0  0
   14.6510   27.5510   74.0210 H   0  0  0  0  0  0  0  0  0  0  0  0
   15.6950   25.4340   73.1540 H   0  0  0  0  0  0  0  0  0  0  0  0
   19.3900   27.4570   72.8040 H   0  0  0  0  0  0  0  0  0  0  0  0
   18.3600   29.5260   73.6500 H   0  0  0  0  0  0  0  0  0  0  0  0
   20.0660   25.3080   73.3780 H   0  0  0  0  0  0  0  0  0  0  0  0
   19.9830   25.6070   71.5760 H   0  0  0  0  0  0  0  0  0  0  0  0
   19.8670   23.9550   72.2480 H   0  0  0  0  0  0  0  0  0  0  0  0
   14.7320   29.6600   70.7490 H   0  0  0  0  0  0  0  0  0  0  0  0
  1  2  1  0  0  0  0
  2  7  2  0  0  0  0
  2  3  1  0  0  0  0
  3  4  2  0  0  0  0
  4  5  1  0  0  0  0
  4 28  1  0  0  0  0
  5  8  1  0  0  0  0
  6 29  1  0  0  0  0
  6  5  2  0  0  0  0
  7  6  1  0  0  0  0
  8 26  1  6  0  0  0
  8  9  1  0  0  0  0
  8 17  1  0  0  0  0
  9 15  1  0  0  0  0
 10  9  1  0  0  0  0
 10 11  1  0  0  0  0
 11 33  1  0  0  0  0
 11 12  1  0  0  0  0
 12 36  1  0  0  0  0
 12 13  1  0  0  0  0
 13 37  1  0  0  0  0
 14 13  1  0  0  0  0
 14 39  1  0  0  0  0
 15 14  2  0  0  0  0
 16 15  1  0  0  0  0
 16 40  1  0  0  0  0
 17 42  1  0  0  0  0
 17 16  1  0  0  0  0
 18 16  1  0  0  0  0
 19 18  1  0  0  0  0
 19 43  1  0  0  0  0
 20 19  2  0  0  0  0
 21 22  2  0  0  0  0
 21 20  1  0  0  0  0
 22 23  1  0  0  0  0
 23 46  1  0  0  0  0
 23 18  2  0  0  0  0
 24 21  1  0  0  0  0
 25 24  1  0  0  0  0
 25 47  1  0  0  0  0
 27  3  1  0  0  0  0
 30  7  1  0  0  0  0
 31 10  1  0  0  0  0
 32 10  1  0  0  0  0
 34 11  1  0  0  0  0
 35 12  1  0  0  0  0
 38 13  1  0  0  0  0
 41 17  1  0  0  0  0
 44 20  1  0  0  0  0
 45 22  1  0  0  0  0
 48 25  1  0  0  0  0
 49 25  1  0  0  0  0
 50 26  1  0  0  0  0
M  END
>  <Pose>
1

>  <Score>
-5.19

$$$$
