
 OpenBabel03212208413D

 47 50  0  0  1  0  0  0  0  0999 V2000
   20.6910   36.4060   70.6740 B   0  0  0  0  0  0  0  0  0  0  0  0
   19.6820   34.9120   71.3380 C   0  0  0  0  0  0  0  0  0  0  0  0
   19.0670   34.0660   70.4430 C   0  0  0  0  0  0  0  0  0  0  0  0
   18.3420   32.9810   70.9360 C   0  0  0  0  0  0  0  0  0  0  0  0
   18.2170   32.7220   72.2840 C   0  0  0  0  0  0  0  0  0  0  0  0
   18.8440   33.5860   73.1610 C   0  0  0  0  0  0  0  0  0  0  0  0
   19.5670   34.6650   72.6890 C   0  0  0  0  0  0  0  0  0  0  0  0
   17.4230   31.5560   72.7420 C   0  0  2  0  0  0  0  0  0  0  0  0
   18.2410   30.4430   73.1740 N   0  0  0  0  0  0  0  0  0  0  0  0
   19.5550   30.2390   73.7480 C   0  0  0  0  0  0  0  0  0  0  0  0
   19.5810   29.0760   74.7190 C   0  0  0  0  0  0  0  0  0  0  0  0
   19.1360   27.8510   73.9940 C   0  0  0  0  0  0  0  0  0  0  0  0
   17.8590   28.0720   73.2820 C   0  0  0  0  0  0  0  0  0  0  0  0
   17.4520   29.2870   72.9040 C   0  0  0  0  0  0  0  0  0  0  0  0
   16.2760   29.6250   72.2030 N   0  0  0  0  0  4  0  0  0  0  0  0
   16.6190   30.9440   71.6310 C   0  0  0  0  0  0  0  0  0  0  0  0
   15.0950   29.6850   72.9330 C   0  0  0  0  0  0  0  0  0  0  0  0
   14.0390   30.5000   72.6070 C   0  0  0  0  0  0  0  0  0  0  0  0
   12.8880   30.5240   73.3980 C   0  0  0  0  0  0  0  0  0  0  0  0
   12.7850   29.7360   74.5160 C   0  0  0  0  0  0  0  0  0  0  0  0
   13.8390   28.9130   74.8500 C   0  0  0  0  0  0  0  0  0  0  0  0
   14.9670   28.8940   74.0680 C   0  0  0  0  0  0  0  0  0  0  0  0
   14.0560   31.3230   71.5000 O   0  0  0  0  0  0  0  0  0  0  0  0
   13.3850   32.5400   71.4950 C   0  0  0  0  0  0  0  0  0  0  0  0
   16.5390   31.9880   73.7260 O   0  0  0  0  0  0  0  0  0  0  0  0
   19.1250   34.2010   69.3530 H   0  0  0  0  0  0  0  0  0  0  0  0
   17.8390   32.2870   70.2480 H   0  0  0  0  0  0  0  0  0  0  0  0
   18.7410   33.3780   74.2360 H   0  0  0  0  0  0  0  0  0  0  0  0
   20.0560   35.3360   73.3840 H   0  0  0  0  0  0  0  0  0  0  0  0
   20.2450   29.9410   72.9060 H   0  0  0  0  0  0  0  0  0  0  0  0
   19.9380   31.1690   74.2200 H   0  0  0  0  0  0  0  0  0  0  0  0
   19.0500   29.2970   75.6580 H   0  0  0  0  0  0  0  0  0  0  0  0
   20.6590   28.9280   74.9930 H   0  0  0  0  0  0  0  0  0  0  0  0
   19.1120   26.9500   74.6410 H   0  0  0  0  0  0  0  0  0  0  0  0
   19.9010   27.6710   73.1840 H   0  0  0  0  0  0  0  0  0  0  0  0
   17.2560   27.1840   73.0790 H   0  0  0  0  0  0  0  0  0  0  0  0
   16.1690   29.0220   71.3220 H   0  0  0  0  0  0  0  0  0  0  0  0
   17.2480   30.8170   70.7520 H   0  0  0  0  0  0  0  0  0  0  0  0
   15.6810   31.4920   71.4300 H   0  0  0  0  0  0  0  0  0  0  0  0
   12.0340   31.1500   73.1820 H   0  0  0  0  0  0  0  0  0  0  0  0
   11.8960   29.7180   75.1660 H   0  0  0  0  0  0  0  0  0  0  0  0
   13.7420   28.2940   75.7310 H   0  0  0  0  0  0  0  0  0  0  0  0
   15.7810   28.2570   74.3330 H   0  0  0  0  0  0  0  0  0  0  0  0
   12.3430   32.5160   71.8970 H   0  0  0  0  0  0  0  0  0  0  0  0
   13.2590   32.9630   70.4440 H   0  0  0  0  0  0  0  0  0  0  0  0
   13.9610   33.3090   72.0690 H   0  0  0  0  0  0  0  0  0  0  0  0
   17.0520   32.0270   74.5690 H   0  0  0  0  0  0  0  0  0  0  0  0
  1  2  1  0  0  0  0
  2  7  1  0  0  0  0
  3  4  1  0  0  0  0
  3  2  2  0  0  0  0
  4  5  2  0  0  0  0
  5  8  1  0  0  0  0
  5  6  1  0  0  0  0
  6 28  1  0  0  0  0
  7  6  2  0  0  0  0
  7 29  1  0  0  0  0
  8  9  1  0  0  0  0
  8 25  1  1  0  0  0
  9 10  1  0  0  0  0
 10 31  1  0  0  0  0
 10 11  1  0  0  0  0
 11 33  1  0  0  0  0
 11 32  1  0  0  0  0
 12 34  1  0  0  0  0
 12 11  1  0  0  0  0
 13 12  1  0  0  0  0
 14  9  1  0  0  0  0
 14 13  2  0  0  0  0
 15 14  1  0  0  0  0
 15 17  1  0  0  0  0
 16 15  1  0  0  0  0
 16  8  1  0  0  0  0
 17 22  1  0  0  0  0
 18 17  2  0  0  0  0
 18 19  1  0  0  0  0
 19 20  2  0  0  0  0
 20 21  1  0  0  0  0
 20 41  1  0  0  0  0
 21 42  1  0  0  0  0
 22 43  1  0  0  0  0
 22 21  2  0  0  0  0
 23 18  1  0  0  0  0
 24 23  1  0  0  0  0
 24 44  1  0  0  0  0
 24 46  1  0  0  0  0
 25 47  1  0  0  0  0
 26  3  1  0  0  0  0
 27  4  1  0  0  0  0
 30 10  1  0  0  0  0
 35 12  1  0  0  0  0
 36 13  1  0  0  0  0
 37 15  1  0  0  0  0
 38 16  1  0  0  0  0
 39 16  1  0  0  0  0
 40 19  1  0  0  0  0
 45 24  1  0  0  0  0
M  END
>  <Pose>
1

>  <Score>
-4.66

$$$$
