
 OpenBabel03212208413D

 55 51  0  0  1  0  0  0  0  0999 V2000
   12.6670   35.9590   69.4430 B   0  0  0  0  0  0  0  0  0  0  0  0
   13.8600   34.8310   70.4300 C   0  0  0  0  0  0  0  0  0  0  0  0
   13.4420   33.6290   70.9660 C   0  0  0  0  0  0  0  0  0  0  0  0
   14.3040   32.8220   71.6750 C   0  0  0  0  0  0  0  0  0  0  0  0
   15.5990   33.2740   71.8240 C   0  0  0  0  0  0  0  0  0  0  0  0
   16.0220   34.4740   71.2900 C   0  0  0  0  0  0  0  0  0  0  0  0
   15.1560   35.2790   70.5810 C   0  0  0  0  0  0  0  0  0  0  0  0
   15.6240   36.5740   70.0100 C   0  0  0  0  0  0  0  0  0  0  0  0
   16.4510   32.4400   72.5450 O   0  0  0  0  0  0  0  0  0  0  0  0
   16.0210   31.3950   73.3510 C   0  0  0  0  0  0  0  0  0  0  0  0
   14.7810   30.7010   72.8990 C   0  0  1  0  0  0  0  0  0  0  0  0
   13.7810   31.5620   72.2120 C   0  0  2  0  0  0  0  0  0  0  0  0
   13.1840   30.8750   71.1270 O   0  0  0  0  0  0  0  0  0  0  0  0
   14.1410   30.2080   74.1230 N   0  0  0  0  0  4  0  0  0  0  0  0
   14.9880   29.3750   74.9060 C   0  0  0  0  0  0  0  0  0  0  0  0
   14.3230   29.2660   76.2870 C   0  0  0  0  0  0  0  0  0  0  0  0
   13.1190   28.6120   76.0870 O   0  0  0  0  0  0  0  0  0  0  0  0
   12.2560   29.2960   75.2380 C   0  0  0  0  0  0  0  0  0  0  0  0
   12.9080   29.5280   73.8670 C   0  0  0  0  0  0  0  0  0  0  0  0
   15.0700   29.4800   72.0480 C   0  0  0  0  0  0  0  0  0  0  0  0
   16.4620   29.1730   71.9300 N   0  0  0  0  0  0  0  0  0  0  0  0
   17.3120   30.1650   72.5630 C   0  0  0  0  0  0  0  0  0  0  0  0
   18.4190   29.5200   73.3830 C   0  0  0  0  0  0  0  0  0  0  0  0
   17.9260   28.7740   74.4400 O   0  0  0  0  0  0  0  0  0  0  0  0
   16.7220   28.1600   74.1080 C   0  0  0  0  0  0  0  0  0  0  0  0
   16.7580   27.9040   72.6150 C   0  0  0  0  0  0  0  0  0  0  0  0
   12.4030   33.3150   70.8210 H   0  0  0  0  0  0  0  0  0  0  0  0
   17.0430   34.8060   71.4200 H   0  0  0  0  0  0  0  0  0  0  0  0
   15.6010   37.3750   70.7810 H   0  0  0  0  0  0  0  0  0  0  0  0
   16.6570   36.5080   69.6330 H   0  0  0  0  0  0  0  0  0  0  0  0
   14.9120   36.8780   69.2140 H   0  0  0  0  0  0  0  0  0  0  0  0
   16.8600   30.6700   73.4530 H   0  0  0  0  0  0  0  0  0  0  0  0
   15.8890   31.8170   74.3920 H   0  0  0  0  0  0  0  0  0  0  0  0
   12.9040   31.8200   72.8760 H   0  0  0  0  0  0  0  0  0  0  0  0
   12.3220   30.4770   71.3690 H   0  0  0  0  0  0  0  0  0  0  0  0
   13.9190   31.0640   74.6800 H   0  0  0  0  0  0  0  0  0  0  0  0
   15.9960   29.7430   75.0800 H   0  0  0  0  0  0  0  0  0  0  0  0
   14.9760   28.3190   74.5120 H   0  0  0  0  0  0  0  0  0  0  0  0
   14.9640   28.6490   76.9140 H   0  0  0  0  0  0  0  0  0  0  0  0
   14.1990   30.3050   76.6400 H   0  0  0  0  0  0  0  0  0  0  0  0
   11.3330   28.7050   75.1550 H   0  0  0  0  0  0  0  0  0  0  0  0
   12.1090   30.3050   75.6750 H   0  0  0  0  0  0  0  0  0  0  0  0
   13.0340   28.5140   73.4370 H   0  0  0  0  0  0  0  0  0  0  0  0
   12.1820   30.1130   73.2730 H   0  0  0  0  0  0  0  0  0  0  0  0
   14.5350   28.5800   72.3870 H   0  0  0  0  0  0  0  0  0  0  0  0
   14.6710   29.7060   71.0170 H   0  0  0  0  0  0  0  0  0  0  0  0
   16.8090   29.0510   70.9670 H   0  0  0  0  0  0  0  0  0  0  0  0
   16.6950   30.7440   73.2860 H   0  0  0  0  0  0  0  0  0  0  0  0
   17.8210   30.8240   71.8300 H   0  0  0  0  0  0  0  0  0  0  0  0
   19.1550   28.9890   72.7630 H   0  0  0  0  0  0  0  0  0  0  0  0
   18.9780   30.3800   73.8450 H   0  0  0  0  0  0  0  0  0  0  0  0
   15.9120   28.8710   74.3800 H   0  0  0  0  0  0  0  0  0  0  0  0
   16.6570   27.2200   74.6810 H   0  0  0  0  0  0  0  0  0  0  0  0
   17.7680   27.5650   72.3050 H   0  0  0  0  0  0  0  0  0  0  0  0
   16.0470   27.1100   72.3050 H   0  0  0  0  0  0  0  0  0  0  0  0
  1  2  1  0  0  0  0
  2  7  2  0  0  0  0
  2  3  1  0  0  0  0
  3  4  2  0  0  0  0
  4  5  1  0  0  0  0
  4 12  1  0  0  0  0
  5  9  1  0  0  0  0
  6 28  1  0  0  0  0
  6  5  2  0  0  0  0
  7  6  1  0  0  0  0
  8  7  1  0  0  0  0
  8 29  1  0  0  0  0
 11 20  1  6  0  0  0
 11 14  1  0  0  0  0
 12 34  1  1  0  0  0
 12 11  1  0  0  0  0
 13 35  1  0  0  0  0
 13 12  1  0  0  0  0
 14 36  1  0  0  0  0
 14 15  1  0  0  0  0
 15 37  1  0  0  0  0
 16 40  1  0  0  0  0
 16 39  1  0  0  0  0
 17 16  1  0  0  0  0
 18 42  1  0  0  0  0
 18 17  1  0  0  0  0
 19 14  1  0  0  0  0
 19 18  1  0  0  0  0
 20 45  1  0  0  0  0
 21 20  1  0  0  0  0
 21 26  1  0  0  0  0
 23 51  1  0  0  0  0
 23 24  1  0  0  0  0
 25 52  1  0  0  0  0
 25 24  1  0  0  0  0
 25 53  1  0  0  0  0
 26 25  1  0  0  0  0
 27  3  1  0  0  0  0
 30  8  1  0  0  0  0
 31  8  1  0  0  0  0
 38 15  1  0  0  0  0
 41 18  1  0  0  0  0
 43 19  1  0  0  0  0
 44 19  1  0  0  0  0
 46 20  1  0  0  0  0
 47 21  1  0  0  0  0
 48 10  1  0  0  0  0
 49 22  1  0  0  0  0
 50 23  1  0  0  0  0
 54 26  1  0  0  0  0
 55 26  1  0  0  0  0
M  END
>  <Pose>
1

>  <Score>
-4.96

$$$$
