
 OpenBabel03212208413D

 66 69  0  0  1  0  0  0  0  0999 V2000
   20.8230   37.1460   72.9400 B   0  0  0  0  0  0  0  0  0  0  0  0
   20.6070   35.8740   71.5230 C   0  0  0  0  0  0  0  0  0  0  0  0
   19.9700   34.6810   71.7670 C   0  0  0  0  0  0  0  0  0  0  0  0
   19.7910   33.7210   70.7570 C   0  0  0  0  0  0  0  0  0  0  0  0
   20.2870   34.0400   69.5120 C   0  0  0  0  0  0  0  0  0  0  0  0
   20.9300   35.2290   69.2410 C   0  0  0  0  0  0  0  0  0  0  0  0
   21.0930   36.1540   70.2470 C   0  0  0  0  0  0  0  0  0  0  0  0
   21.7710   37.4620   70.0550 C   0  0  0  0  0  0  0  0  0  0  0  0
   21.6060   35.6440   67.5060 B   0  0  0  0  0  0  0  0  0  0  0  0
   19.1170   32.4750   71.0590 C   0  0  0  0  0  0  0  0  0  0  0  0
   18.8630   31.6710   70.1560 O   0  0  0  0  0  0  0  0  0  0  0  0
   18.7370   32.1750   72.4500 C   0  0  1  0  0  0  0  0  0  0  0  0
   18.3950   33.4920   73.1130 C   0  0  0  0  0  0  0  0  0  0  0  0
   19.4820   34.3950   73.0380 O   0  0  0  0  0  0  0  0  0  0  0  0
   17.6150   31.1890   72.5690 C   0  0  0  0  0  0  0  0  0  0  0  0
   16.8310   31.2780   73.7400 N   0  0  0  0  0  4  0  0  0  0  0  0
   15.4960   31.6750   73.4070 C   0  0  0  0  0  0  0  0  0  0  0  0
   14.6830   30.6440   72.7090 C   0  0  2  0  0  0  0  0  0  0  0  0
   15.2560   29.2820   72.6350 C   0  0  0  0  0  0  0  0  0  0  0  0
   16.2700   28.9300   73.6510 C   0  0  0  0  0  0  0  0  0  0  0  0
   16.7240   30.0710   74.5140 C   0  0  0  0  0  0  0  0  0  0  0  0
   14.4530   31.1300   71.2730 C   0  0  0  0  0  0  0  0  0  0  0  0
   19.9830   31.6260   73.1140 C   0  0  0  0  0  0  0  0  0  0  0  0
   20.3070   30.2810   72.7800 N   0  0  0  0  0  4  0  0  0  0  0  0
   19.7820   29.3670   73.7930 C   0  0  0  0  0  0  0  0  0  0  0  0
   20.8360   28.9090   74.7590 C   0  0  1  0  0  0  0  0  0  0  0  0
   21.7220   30.0760   75.1320 C   0  0  0  0  0  0  0  0  0  0  0  0
   22.4880   30.4780   73.9090 C   0  0  0  0  0  0  0  0  0  0  0  0
   21.7270   30.0170   72.6910 C   0  0  0  0  0  0  0  0  0  0  0  0
   20.1120   28.4890   76.0450 C   0  0  0  0  0  0  0  0  0  0  0  0
   20.1760   33.3340   68.6930 H   0  0  0  0  0  0  0  0  0  0  0  0
   21.0210   38.2630   70.2440 H   0  0  0  0  0  0  0  0  0  0  0  0
   22.2710   37.5480   69.0900 H   0  0  0  0  0  0  0  0  0  0  0  0
   22.5080   37.5510   70.9030 H   0  0  0  0  0  0  0  0  0  0  0  0
   17.5420   33.9790   72.6190 H   0  0  0  0  0  0  0  0  0  0  0  0
   18.0730   33.3360   74.1810 H   0  0  0  0  0  0  0  0  0  0  0  0
   16.9530   31.3670   71.6960 H   0  0  0  0  0  0  0  0  0  0  0  0
   18.0370   30.1740   72.4200 H   0  0  0  0  0  0  0  0  0  0  0  0
   17.2230   32.0150   74.3800 H   0  0  0  0  0  0  0  0  0  0  0  0
   15.0060   31.9810   74.3790 H   0  0  0  0  0  0  0  0  0  0  0  0
   15.5580   32.6170   72.8240 H   0  0  0  0  0  0  0  0  0  0  0  0
   13.6690   30.6290   73.1710 H   0  0  0  0  0  0  0  0  0  0  0  0
   14.4040   28.5470   72.7220 H   0  0  0  0  0  0  0  0  0  0  0  0
   15.6760   29.0640   71.6070 H   0  0  0  0  0  0  0  0  0  0  0  0
   17.1740   28.4390   73.1840 H   0  0  0  0  0  0  0  0  0  0  0  0
   15.8910   28.1370   74.3630 H   0  0  0  0  0  0  0  0  0  0  0  0
   17.5890   29.7920   75.1010 H   0  0  0  0  0  0  0  0  0  0  0  0
   15.8880   30.2520   75.2550 H   0  0  0  0  0  0  0  0  0  0  0  0
   13.4550   30.7910   70.8990 H   0  0  0  0  0  0  0  0  0  0  0  0
   14.5850   32.2190   71.2260 H   0  0  0  0  0  0  0  0  0  0  0  0
   15.2320   30.6670   70.6390 H   0  0  0  0  0  0  0  0  0  0  0  0
   19.7860   31.6910   74.2220 H   0  0  0  0  0  0  0  0  0  0  0  0
   20.8370   32.3430   72.9540 H   0  0  0  0  0  0  0  0  0  0  0  0
   19.8710   30.0120   71.8940 H   0  0  0  0  0  0  0  0  0  0  0  0
   19.3100   28.4800   73.3390 H   0  0  0  0  0  0  0  0  0  0  0  0
   18.9890   29.8730   74.4050 H   0  0  0  0  0  0  0  0  0  0  0  0
   21.3970   28.0270   74.4260 H   0  0  0  0  0  0  0  0  0  0  0  0
   22.3960   29.7270   75.9400 H   0  0  0  0  0  0  0  0  0  0  0  0
   21.0860   30.8690   75.5380 H   0  0  0  0  0  0  0  0  0  0  0  0
   22.7540   31.5300   73.8500 H   0  0  0  0  0  0  0  0  0  0  0  0
   23.4580   29.9030   73.9030 H   0  0  0  0  0  0  0  0  0  0  0  0
   21.8220   28.8960   72.5970 H   0  0  0  0  0  0  0  0  0  0  0  0
   22.2240   30.4310   71.8130 H   0  0  0  0  0  0  0  0  0  0  0  0
   19.0900   28.1180   75.8000 H   0  0  0  0  0  0  0  0  0  0  0  0
   20.0840   29.3220   76.7790 H   0  0  0  0  0  0  0  0  0  0  0  0
   20.6480   27.6560   76.5450 H   0  0  0  0  0  0  0  0  0  0  0  0
  2  3  1  0  0  0  0
  2  1  1  0  0  0  0
  3 14  1  0  0  0  0
  4 10  1  0  0  0  0
  4  3  2  0  0  0  0
  5  4  1  0  0  0  0
  6  5  2  0  0  0  0
  6  7  1  0  0  0  0
  7  2  2  0  0  0  0
  8 32  1  0  0  0  0
  8  7  1  0  0  0  0
  8 34  1  0  0  0  0
  9  6  1  0  0  0  0
 10 12  1  0  0  0  0
 11 10  2  0  0  0  0
 12 15  1  1  0  0  0
 12 13  1  0  0  0  0
 12 23  1  0  0  0  0
 13 36  1  0  0  0  0
 14 13  1  0  0  0  0
 15 16  1  0  0  0  0
 16 39  1  0  0  0  0
 16 21  1  0  0  0  0
 17 16  1  0  0  0  0
 17 40  1  0  0  0  0
 18 42  1  1  0  0  0
 18 17  1  0  0  0  0
 19 18  1  0  0  0  0
 19 43  1  0  0  0  0
 19 20  1  0  0  0  0
 20 46  1  0  0  0  0
 20 21  1  0  0  0  0
 21 47  1  0  0  0  0
 21 48  1  0  0  0  0
 22 18  1  0  0  0  0
 23 52  1  0  0  0  0
 24 23  1  0  0  0  0
 24 25  1  0  0  0  0
 25 56  1  0  0  0  0
 25 26  1  0  0  0  0
 26 57  1  6  0  0  0
 26 27  1  0  0  0  0
 26 30  1  0  0  0  0
 27 59  1  0  0  0  0
 27 58  1  0  0  0  0
 28 27  1  0  0  0  0
 29 24  1  0  0  0  0
 29 28  1  0  0  0  0
 30 66  1  0  0  0  0
 30 65  1  0  0  0  0
 31  5  1  0  0  0  0
 33  8  1  0  0  0  0
 35 13  1  0  0  0  0
 37 15  1  0  0  0  0
 38 15  1  0  0  0  0
 41 17  1  0  0  0  0
 44 19  1  0  0  0  0
 45 20  1  0  0  0  0
 49 22  1  0  0  0  0
 50 22  1  0  0  0  0
 51 22  1  0  0  0  0
 53 23  1  0  0  0  0
 54 24  1  0  0  0  0
 55 25  1  0  0  0  0
 60 28  1  0  0  0  0
 61 28  1  0  0  0  0
 62 29  1  0  0  0  0
 63 29  1  0  0  0  0
 64 30  1  0  0  0  0
M  END
>  <Pose>
1

>  <Score>
-4.99

$$$$
