
 OpenBabel03212208413D

 60 63  0  0  0  0  0  0  0  0999 V2000
   14.1340   28.7170   76.5500 B   0  0  0  0  0  0  0  0  0  0  0  0
   15.0290   28.5440   74.8980 C   0  0  0  0  0  0  0  0  0  0  0  0
   14.6940   29.4160   73.8910 C   0  0  0  0  0  0  0  0  0  0  0  0
   15.2920   29.3860   72.6190 C   0  0  0  0  0  0  0  0  0  0  0  0
   16.2740   28.4200   72.3650 C   0  0  0  0  0  0  0  0  0  0  0  0
   16.5980   27.5520   73.3840 C   0  0  0  0  0  0  0  0  0  0  0  0
   15.9980   27.5990   74.6280 C   0  0  0  0  0  0  0  0  0  0  0  0
   16.3740   26.6370   75.7190 C   0  0  0  0  0  0  0  0  0  0  0  0
   17.9360   26.2390   73.0370 B   0  0  0  0  0  0  0  0  0  0  0  0
   14.8930   30.3290   71.5920 C   0  0  0  0  0  0  0  0  0  0  0  0
   14.9530   29.9190   70.4060 O   0  0  0  0  0  0  0  0  0  0  0  0
   14.4580   31.6670   72.0350 C   0  0  0  0  0  0  0  0  0  0  0  0
   13.2840   31.2490   73.0310 C   0  0  0  0  0  0  0  0  0  0  0  0
   13.7400   30.4080   74.0290 O   0  0  0  0  0  0  0  0  0  0  0  0
   13.8370   32.5230   71.0440 C   0  0  0  0  0  0  0  0  0  0  0  0
   14.3550   33.6440   70.4160 N   0  0  0  0  0  4  0  0  0  0  0  0
   14.8080   34.7800   71.1190 C   0  0  0  0  0  0  0  0  0  0  0  0
   14.6970   36.0760   70.3270 C   0  0  0  0  0  0  0  0  0  0  0  0
   13.2730   36.4440   70.0590 C   0  0  0  0  0  0  0  0  0  0  0  0
   12.4890   35.1820   69.8680 C   0  0  0  0  0  0  0  0  0  0  0  0
   13.4000   34.1020   69.3820 C   0  0  0  0  0  0  0  0  0  0  0  0
   15.5190   32.2990   72.8530 C   0  0  0  0  0  0  0  0  0  0  0  0
   16.7890   32.5540   72.3160 N   0  0  0  0  0  4  0  0  0  0  0  0
   17.5170   33.4230   73.2510 C   0  0  0  0  0  0  0  0  0  0  0  0
   18.7770   33.9940   72.6350 C   0  0  0  0  0  0  0  0  0  0  0  0
   19.6970   32.7880   72.3860 C   0  0  0  0  0  0  0  0  0  0  0  0
   18.9240   31.9250   71.4150 C   0  0  0  0  0  0  0  0  0  0  0  0
   17.6720   31.4120   72.1470 C   0  0  0  0  0  0  0  0  0  0  0  0
   16.7250   28.4000   71.3930 H   0  0  0  0  0  0  0  0  0  0  0  0
   17.4000   26.9440   76.0470 H   0  0  0  0  0  0  0  0  0  0  0  0
   15.6400   26.6840   76.5240 H   0  0  0  0  0  0  0  0  0  0  0  0
   16.4700   25.6400   75.2450 H   0  0  0  0  0  0  0  0  0  0  0  0
   12.5980   30.6860   72.3680 H   0  0  0  0  0  0  0  0  0  0  0  0
   12.7880   32.1490   73.3700 H   0  0  0  0  0  0  0  0  0  0  0  0
   12.7960   32.8300   71.4230 H   0  0  0  0  0  0  0  0  0  0  0  0
   13.4960   31.8130   70.1910 H   0  0  0  0  0  0  0  0  0  0  0  0
   15.1960   33.3720   69.7530 H   0  0  0  0  0  0  0  0  0  0  0  0
   15.8860   34.6480   71.3900 H   0  0  0  0  0  0  0  0  0  0  0  0
   14.2960   35.0020   72.0580 H   0  0  0  0  0  0  0  0  0  0  0  0
   15.2140   35.9230   69.3680 H   0  0  0  0  0  0  0  0  0  0  0  0
   15.1790   36.9080   70.8490 H   0  0  0  0  0  0  0  0  0  0  0  0
   13.1310   37.1200   69.2060 H   0  0  0  0  0  0  0  0  0  0  0  0
   12.9120   36.9630   70.9960 H   0  0  0  0  0  0  0  0  0  0  0  0
   11.7540   35.3620   69.0550 H   0  0  0  0  0  0  0  0  0  0  0  0
   11.8840   34.8920   70.7470 H   0  0  0  0  0  0  0  0  0  0  0  0
   12.8610   33.2160   68.9490 H   0  0  0  0  0  0  0  0  0  0  0  0
   13.9970   34.5310   68.5610 H   0  0  0  0  0  0  0  0  0  0  0  0
   15.6290   31.7750   73.8390 H   0  0  0  0  0  0  0  0  0  0  0  0
   15.1390   33.3340   73.2380 H   0  0  0  0  0  0  0  0  0  0  0  0
   16.8520   33.0660   71.4130 H   0  0  0  0  0  0  0  0  0  0  0  0
   17.8740   32.7460   74.0820 H   0  0  0  0  0  0  0  0  0  0  0  0
   16.9190   34.1910   73.7140 H   0  0  0  0  0  0  0  0  0  0  0  0
   18.5380   34.5070   71.6890 H   0  0  0  0  0  0  0  0  0  0  0  0
   19.2480   34.6290   73.3810 H   0  0  0  0  0  0  0  0  0  0  0  0
   20.6680   33.1030   72.0050 H   0  0  0  0  0  0  0  0  0  0  0  0
   19.7410   32.2250   73.3430 H   0  0  0  0  0  0  0  0  0  0  0  0
   18.5190   32.5840   70.5960 H   0  0  0  0  0  0  0  0  0  0  0  0
   19.4940   31.1090   70.9710 H   0  0  0  0  0  0  0  0  0  0  0  0
   17.2980   30.6310   71.4710 H   0  0  0  0  0  0  0  0  0  0  0  0
   18.0240   31.0250   73.1160 H   0  0  0  0  0  0  0  0  0  0  0  0
  2  1  1  0  0  0  0
  3 14  1  0  0  0  0
  3  2  2  0  0  0  0
  4  3  1  0  0  0  0
  5  4  2  0  0  0  0
  5  6  1  0  0  0  0
  6  7  2  0  0  0  0
  7  2  1  0  0  0  0
  7  8  1  0  0  0  0
  8 30  1  0  0  0  0
  8 31  1  0  0  0  0
  9  6  1  0  0  0  0
 10 12  1  0  0  0  0
 10  4  1  0  0  0  0
 11 10  2  0  0  0  0
 12 22  1  0  0  0  0
 12 13  1  0  0  0  0
 13 34  1  0  0  0  0
 13 14  1  0  0  0  0
 15 35  1  0  0  0  0
 15 12  1  0  0  0  0
 16 15  1  0  0  0  0
 16 17  1  0  0  0  0
 17 38  1  0  0  0  0
 17 39  1  0  0  0  0
 18 41  1  0  0  0  0
 18 17  1  0  0  0  0
 19 18  1  0  0  0  0
 19 43  1  0  0  0  0
 20 19  1  0  0  0  0
 20 45  1  0  0  0  0
 21 20  1  0  0  0  0
 21 16  1  0  0  0  0
 22 49  1  0  0  0  0
 22 48  1  0  0  0  0
 23 22  1  0  0  0  0
 23 24  1  0  0  0  0
 24 52  1  0  0  0  0
 24 51  1  0  0  0  0
 25 24  1  0  0  0  0
 25 54  1  0  0  0  0
 26 25  1  0  0  0  0
 26 56  1  0  0  0  0
 27 28  1  0  0  0  0
 27 26  1  0  0  0  0
 28 23  1  0  0  0  0
 28 60  1  0  0  0  0
 29  5  1  0  0  0  0
 32  8  1  0  0  0  0
 33 13  1  0  0  0  0
 36 15  1  0  0  0  0
 37 16  1  0  0  0  0
 40 18  1  0  0  0  0
 42 19  1  0  0  0  0
 44 20  1  0  0  0  0
 46 21  1  0  0  0  0
 47 21  1  0  0  0  0
 50 23  1  0  0  0  0
 53 25  1  0  0  0  0
 55 26  1  0  0  0  0
 57 27  1  0  0  0  0
 58 27  1  0  0  0  0
 59 28  1  0  0  0  0
M  END
>  <Pose>
1

>  <Score>
-5.87

$$$$
