
 OpenBabel03212208413D

 41 44  0  0  0  0  0  0  0  0999 V2000
   20.7280   34.6760   72.1840 F   0  0  0  0  0  0  0  0  0  0  0  0
   21.2280   34.3370   70.9640 C   0  0  0  0  0  0  0  0  0  0  0  0
   22.1520   33.2800   70.9110 C   0  0  0  0  0  0  0  0  0  0  0  0
   22.6540   32.9380   69.6940 C   0  0  0  0  0  0  0  0  0  0  0  0
   22.2880   33.5940   68.4990 C   0  0  0  0  0  0  0  0  0  0  0  0
   21.3810   34.6240   68.5940 C   0  0  0  0  0  0  0  0  0  0  0  0
   20.8580   34.9900   69.8160 C   0  0  0  0  0  0  0  0  0  0  0  0
   20.9890   35.2940   67.4850 F   0  0  0  0  0  0  0  0  0  0  0  0
   22.5030   32.6390   72.1090 N   0  0  0  0  0  0  0  0  0  0  0  0
   21.6540   31.8420   72.8710 C   0  0  0  0  0  0  0  0  0  0  0  0
   21.4630   31.9930   74.0820 O   0  0  0  0  0  0  0  0  0  0  0  0
   20.9030   30.7080   72.2010 C   0  0  0  0  0  0  0  0  0  0  0  0
   19.6040   30.5710   72.8220 N   0  0  0  0  0  0  0  0  0  0  0  0
   19.3520   29.7130   73.7940 N   0  0  0  0  0  0  0  0  0  0  0  0
   18.0750   29.8730   74.0950 N   0  0  0  0  0  0  0  0  0  0  0  0
   17.5090   30.8250   73.3250 C   0  0  0  0  0  0  0  0  0  0  0  0
   18.4920   31.2610   72.5200 C   0  0  0  0  0  0  0  0  0  0  0  0
   17.9000   32.2300   71.7440 C   0  0  0  0  0  0  0  0  0  0  0  0
   18.4920   32.8930   70.8510 O   0  0  0  0  0  0  0  0  0  0  0  0
   16.5970   32.3930   72.0520 N   0  0  0  0  0  0  0  0  0  0  0  0
   16.3460   31.5180   73.0400 C   0  0  0  0  0  0  0  0  0  0  0  0
   15.2320   31.3620   73.6050 O   0  0  0  0  0  0  0  0  0  0  0  0
   15.6970   33.3250   71.4270 C   0  0  0  0  0  0  0  0  0  0  0  0
   14.4290   32.9330   71.0470 C   0  0  0  0  0  0  0  0  0  0  0  0
   13.5330   33.7920   70.4440 C   0  0  0  0  0  0  0  0  0  0  0  0
   13.9540   35.0890   70.2240 C   0  0  0  0  0  0  0  0  0  0  0  0
   15.2140   35.5380   70.5840 C   0  0  0  0  0  0  0  0  0  0  0  0
   16.0610   34.6280   71.1830 C   0  0  0  0  0  0  0  0  0  0  0  0
   12.6900   36.2670   69.3830 B   0  0  0  0  0  0  0  0  0  0  0  0
   23.3580   32.1500   69.5630 H   0  0  0  0  0  0  0  0  0  0  0  0
   22.7090   33.2940   67.5530 H   0  0  0  0  0  0  0  0  0  0  0  0
   20.1350   35.8130   69.8810 H   0  0  0  0  0  0  0  0  0  0  0  0
   23.5040   32.7560   72.4920 H   0  0  0  0  0  0  0  0  0  0  0  0
   21.4790   29.7630   72.3390 H   0  0  0  0  0  0  0  0  0  0  0  0
   20.8690   30.9270   71.1330 H   0  0  0  0  0  0  0  0  0  0  0  0
   20.0230   29.0300   74.2490 H   0  0  0  0  0  0  0  0  0  0  0  0
   17.5960   29.3100   74.8470 H   0  0  0  0  0  0  0  0  0  0  0  0
   14.1560   31.9070   71.2440 H   0  0  0  0  0  0  0  0  0  0  0  0
   12.5270   33.4600   70.1490 H   0  0  0  0  0  0  0  0  0  0  0  0
   15.4760   36.5630   70.3830 H   0  0  0  0  0  0  0  0  0  0  0  0
   17.0490   34.9740   71.4660 H   0  0  0  0  0  0  0  0  0  0  0  0
  2  1  1  0  0  0  0
  3  2  1  0  0  0  0
  3  9  1  0  0  0  0
  4  3  2  0  0  0  0
  5  6  2  0  0  0  0
  5  4  1  0  0  0  0
  6  7  1  0  0  0  0
  7 32  1  0  0  0  0
  7  2  2  0  0  0  0
  8  6  1  0  0  0  0
  9 33  1  0  0  0  0
  9 10  1  0  0  0  0
 10 11  2  0  0  0  0
 12 34  1  0  0  0  0
 12 13  1  0  0  0  0
 12 10  1  0  0  0  0
 13 14  1  0  0  0  0
 14 15  1  0  0  0  0
 14 36  1  0  0  0  0
 15 37  1  0  0  0  0
 16 15  1  0  0  0  0
 17 13  1  0  0  0  0
 17 16  2  0  0  0  0
 18 20  1  0  0  0  0
 18 17  1  0  0  0  0
 19 18  2  0  0  0  0
 20 21  1  0  0  0  0
 21 16  1  0  0  0  0
 21 22  2  0  0  0  0
 23 20  1  0  0  0  0
 24 38  1  0  0  0  0
 24 23  2  0  0  0  0
 25 24  1  0  0  0  0
 26 25  2  0  0  0  0
 26 27  1  0  0  0  0
 27 28  2  0  0  0  0
 28 23  1  0  0  0  0
 28 41  1  0  0  0  0
 29 26  1  0  0  0  0
 30  4  1  0  0  0  0
 31  5  1  0  0  0  0
 35 12  1  0  0  0  0
 39 25  1  0  0  0  0
 40 27  1  0  0  0  0
M  END
>  <Pose>
1

>  <Score>
-7.02

$$$$
