
 OpenBabel03212208413D

 41 44  0  0  0  0  0  0  0  0999 V2000
   16.0920   35.5900   71.3200 F   0  0  0  0  0  0  0  0  0  0  0  0
   14.8870   35.2790   70.7610 C   0  0  0  0  0  0  0  0  0  0  0  0
   14.3470   34.0080   71.0120 C   0  0  0  0  0  0  0  0  0  0  0  0
   13.1350   33.7420   70.4280 C   0  0  0  0  0  0  0  0  0  0  0  0
   12.5010   34.6900   69.6410 C   0  0  0  0  0  0  0  0  0  0  0  0
   13.0300   35.9240   69.4000 C   0  0  0  0  0  0  0  0  0  0  0  0
   14.2460   36.2050   69.9780 C   0  0  0  0  0  0  0  0  0  0  0  0
   15.0650   33.0930   71.8340 N   0  0  0  0  0  0  0  0  0  0  0  0
   15.4880   31.8060   71.5170 C   0  0  0  0  0  0  0  0  0  0  0  0
   14.8250   31.0450   70.7940 O   0  0  0  0  0  0  0  0  0  0  0  0
   16.7770   31.2650   72.0340 C   0  0  0  0  0  0  0  0  0  0  0  0
   17.5750   32.3460   72.5800 N   0  0  0  0  0  0  0  0  0  0  0  0
   17.5820   32.8290   73.8030 N   0  0  0  0  0  0  0  0  0  0  0  0
   18.4570   33.8190   73.9020 N   0  0  0  0  0  0  0  0  0  0  0  0
   19.0420   33.9840   72.6960 C   0  0  0  0  0  0  0  0  0  0  0  0
   18.4970   33.0840   71.9030 C   0  0  0  0  0  0  0  0  0  0  0  0
   19.0950   33.2510   70.6640 C   0  0  0  0  0  0  0  0  0  0  0  0
   18.8250   32.5650   69.6550 O   0  0  0  0  0  0  0  0  0  0  0  0
   19.9990   34.2460   70.6970 N   0  0  0  0  0  0  0  0  0  0  0  0
   19.9660   34.7040   71.9630 C   0  0  0  0  0  0  0  0  0  0  0  0
   20.6620   35.6370   72.4200 O   0  0  0  0  0  0  0  0  0  0  0  0
   20.8070   34.7020   69.6120 C   0  0  0  0  0  0  0  0  0  0  0  0
   21.6630   33.8450   68.9490 C   0  0  0  0  0  0  0  0  0  0  0  0
   22.4510   34.2690   67.8970 C   0  0  0  0  0  0  0  0  0  0  0  0
   22.4150   35.5780   67.4640 C   0  0  0  0  0  0  0  0  0  0  0  0
   21.5680   36.4520   68.1130 C   0  0  0  0  0  0  0  0  0  0  0  0
   20.7880   36.0080   69.1620 C   0  0  0  0  0  0  0  0  0  0  0  0
   23.4940   36.1940   66.0100 B   0  0  0  0  0  0  0  0  0  0  0  0
   12.6550   32.7990   70.5700 H   0  0  0  0  0  0  0  0  0  0  0  0
   11.5340   34.4640   69.1810 H   0  0  0  0  0  0  0  0  0  0  0  0
   12.4960   36.6280   68.7780 H   0  0  0  0  0  0  0  0  0  0  0  0
   14.6640   37.1930   69.7820 H   0  0  0  0  0  0  0  0  0  0  0  0
   15.3150   33.4320   72.8220 H   0  0  0  0  0  0  0  0  0  0  0  0
   17.3280   30.8250   71.1590 H   0  0  0  0  0  0  0  0  0  0  0  0
   16.6050   30.4640   72.7770 H   0  0  0  0  0  0  0  0  0  0  0  0
   16.9650   32.4600   74.5720 H   0  0  0  0  0  0  0  0  0  0  0  0
   18.6620   34.3790   74.7660 H   0  0  0  0  0  0  0  0  0  0  0  0
   21.6830   32.8080   69.3000 H   0  0  0  0  0  0  0  0  0  0  0  0
   23.1120   33.5890   67.3890 H   0  0  0  0  0  0  0  0  0  0  0  0
   21.5430   37.4920   67.7650 H   0  0  0  0  0  0  0  0  0  0  0  0
   20.1230   36.6860   69.6750 H   0  0  0  0  0  0  0  0  0  0  0  0
  2  3  1  0  0  0  0
  2  1  1  0  0  0  0
  3  8  1  0  0  0  0
  4 29  1  0  0  0  0
  4  3  2  0  0  0  0
  5  4  1  0  0  0  0
  6  5  2  0  0  0  0
  6  7  1  0  0  0  0
  7  2  2  0  0  0  0
  8 33  1  0  0  0  0
  9  8  1  0  0  0  0
  9 11  1  0  0  0  0
 10  9  2  0  0  0  0
 11 12  1  0  0  0  0
 11 35  1  0  0  0  0
 12 13  1  0  0  0  0
 13 14  1  0  0  0  0
 13 36  1  0  0  0  0
 14 37  1  0  0  0  0
 15 14  1  0  0  0  0
 16 12  1  0  0  0  0
 16 15  2  0  0  0  0
 17 19  1  0  0  0  0
 17 16  1  0  0  0  0
 18 17  2  0  0  0  0
 19 20  1  0  0  0  0
 20 21  2  0  0  0  0
 20 15  1  0  0  0  0
 22 19  1  0  0  0  0
 23 38  1  0  0  0  0
 23 22  2  0  0  0  0
 24 23  1  0  0  0  0
 25 24  2  0  0  0  0
 25 26  1  0  0  0  0
 26 27  2  0  0  0  0
 27 22  1  0  0  0  0
 27 41  1  0  0  0  0
 28 25  1  0  0  0  0
 30  5  1  0  0  0  0
 31  6  1  0  0  0  0
 32  7  1  0  0  0  0
 34 11  1  0  0  0  0
 39 24  1  0  0  0  0
 40 26  1  0  0  0  0
M  END
>  <Pose>
1

>  <Score>
-7.40

$$$$
