
 OpenBabel03212208413D

 43 46  0  0  1  0  0  0  0  0999 V2000
   10.5930   30.2350   76.1500 I   0  0  0  0  0  0  0  0  0  0  0  0
   12.4480   29.9700   75.1810 C   0  0  0  0  0  0  0  0  0  0  0  0
   13.4150   29.1740   75.7610 C   0  0  0  0  0  0  0  0  0  0  0  0
   14.6450   28.9900   75.1330 C   0  0  0  0  0  0  0  0  0  0  0  0
   14.8460   29.6210   73.9430 C   0  0  0  0  0  0  0  0  0  0  0  0
   13.8910   30.4270   73.3370 C   0  0  0  0  0  0  0  0  0  0  0  0
   12.6900   30.5950   73.9680 C   0  0  0  0  0  0  0  0  0  0  0  0
   14.2340   31.0610   72.0340 C   0  0  2  0  0  0  0  0  0  0  0  0
   15.4460   31.8440   72.2770 N   0  0  0  0  0  0  0  0  0  0  0  0
   15.6260   33.1470   71.6680 C   0  0  0  0  0  0  0  0  0  0  0  0
   16.9960   34.1700   71.4840 S   0  0  0  0  0  0  0  0  0  0  0  0
   16.2580   35.4580   70.6640 C   0  0  0  0  0  0  0  0  0  0  0  0
   14.9530   35.0610   70.5520 C   0  0  0  0  0  0  0  0  0  0  0  0
   14.6320   33.8580   71.0770 C   0  0  0  0  0  0  0  0  0  0  0  0
   13.2920   33.2040   71.0850 C   0  0  0  0  0  0  0  0  0  0  0  0
   12.2780   33.7610   70.5660 O   0  0  0  0  0  0  0  0  0  0  0  0
   13.1490   31.9370   71.6850 N   0  0  0  0  0  0  0  0  0  0  0  0
   14.1040   36.1010   69.8300 C   0  0  0  0  0  0  0  0  0  0  0  0
   14.3340   37.4510   70.4560 C   0  0  0  0  0  0  0  0  0  0  0  0
   15.7030   37.7470   70.7150 N   0  0  0  0  0  4  0  0  0  0  0  0
   16.6120   36.8020   70.0760 C   0  0  0  0  0  0  0  0  0  0  0  0
   15.9170   37.5750   72.1610 C   0  0  0  0  0  0  0  0  0  0  0  0
   15.5790   28.1780   75.7630 O   0  0  0  0  0  0  0  0  0  0  0  0
   16.8420   27.9990   75.1500 C   0  0  0  0  0  0  0  0  0  0  0  0
   13.1730   28.5500   76.9710 O   0  0  0  0  0  0  0  0  0  0  0  0
   15.8020   29.4850   73.4440 H   0  0  0  0  0  0  0  0  0  0  0  0
   11.9410   31.2300   73.4910 H   0  0  0  0  0  0  0  0  0  0  0  0
   14.4410   30.3050   71.2530 H   0  0  0  0  0  0  0  0  0  0  0  0
   16.2080   31.4960   72.8870 H   0  0  0  0  0  0  0  0  0  0  0  0
   12.1790   31.5870   71.9020 H   0  0  0  0  0  0  0  0  0  0  0  0
   14.3660   36.0840   68.7730 H   0  0  0  0  0  0  0  0  0  0  0  0
   13.0330   35.8640   69.9630 H   0  0  0  0  0  0  0  0  0  0  0  0
   13.7020   37.6200   71.3520 H   0  0  0  0  0  0  0  0  0  0  0  0
   13.9700   38.2080   69.7000 H   0  0  0  0  0  0  0  0  0  0  0  0
   15.9810   38.7300   70.4600 H   0  0  0  0  0  0  0  0  0  0  0  0
   17.6310   37.0860   70.3710 H   0  0  0  0  0  0  0  0  0  0  0  0
   16.4110   36.8400   68.9950 H   0  0  0  0  0  0  0  0  0  0  0  0
   15.3840   36.6480   72.4560 H   0  0  0  0  0  0  0  0  0  0  0  0
   17.0050   37.4480   72.3580 H   0  0  0  0  0  0  0  0  0  0  0  0
   15.5750   38.4610   72.7180 H   0  0  0  0  0  0  0  0  0  0  0  0
   17.4390   28.9490   75.2610 H   0  0  0  0  0  0  0  0  0  0  0  0
   16.7670   27.8100   74.0620 H   0  0  0  0  0  0  0  0  0  0  0  0
   17.3940   27.1390   75.5820 H   0  0  0  0  0  0  0  0  0  0  0  0
  2  3  1  0  0  0  0
  2  1  1  0  0  0  0
  3 25  1  0  0  0  0
  4  3  2  0  0  0  0
  4 23  1  0  0  0  0
  5  4  1  0  0  0  0
  6  5  2  0  0  0  0
  6  7  1  0  0  0  0
  7  2  2  0  0  0  0
  8 28  1  6  0  0  0
  8  9  1  0  0  0  0
  8  6  1  0  0  0  0
  9 29  1  0  0  0  0
 10  9  1  0  0  0  0
 11 10  1  0  0  0  0
 12 11  1  0  0  0  0
 13 12  2  0  0  0  0
 13 14  1  0  0  0  0
 14 15  1  0  0  0  0
 14 10  2  0  0  0  0
 15 17  1  0  0  0  0
 16 15  2  0  0  0  0
 17 30  1  0  0  0  0
 17  8  1  0  0  0  0
 18 32  1  0  0  0  0
 18 19  1  0  0  0  0
 18 13  1  0  0  0  0
 19 20  1  0  0  0  0
 19 33  1  0  0  0  0
 20 22  1  0  0  0  0
 21 36  1  0  0  0  0
 21 12  1  0  0  0  0
 21 20  1  0  0  0  0
 22 39  1  0  0  0  0
 22 38  1  0  0  0  0
 22 40  1  0  0  0  0
 24 41  1  0  0  0  0
 24 43  1  0  0  0  0
 24 23  1  0  0  0  0
 26  5  1  0  0  0  0
 27  7  1  0  0  0  0
 31 18  1  0  0  0  0
 34 19  1  0  0  0  0
 35 20  1  0  0  0  0
 37 21  1  0  0  0  0
 42 24  1  0  0  0  0
M  END
>  <Pose>
1

>  <Score>
-6.90

$$$$
