
 OpenBabel03212208413D

 40 43  0  0  0  0  0  0  0  0999 V2000
   12.6710   35.5570   69.6400 I   0  0  0  0  0  0  0  0  0  0  0  0
   14.4620   34.9570   70.6210 C   0  0  0  0  0  0  0  0  0  0  0  0
   14.6460   33.8090   71.3610 C   0  0  0  0  0  0  0  0  0  0  0  0
   15.9050   33.8200   71.8050 N   0  0  0  0  0  0  0  0  0  0  0  0
   16.4930   34.9260   71.3630 N   0  0  0  0  0  0  0  0  0  0  0  0
   15.6470   35.6510   70.6350 C   0  0  0  0  0  0  0  0  0  0  0  0
   16.5800   32.8440   72.6800 C   0  0  0  0  0  0  0  0  0  0  0  0
   13.5910   32.7970   71.6430 C   0  0  0  0  0  0  0  0  0  0  0  0
   12.4530   33.1990   71.1640 O   0  0  0  0  0  0  0  0  0  0  0  0
   13.7640   31.6430   72.2850 N   0  0  0  0  0  0  0  0  0  0  0  0
   13.9430   30.4480   72.9510 C   0  0  0  0  0  0  0  0  0  0  0  0
   15.1360   29.7590   72.6290 C   0  0  0  0  0  0  0  0  0  0  0  0
   16.0880   30.0210   71.7420 N   0  0  0  0  0  0  0  0  0  0  0  0
   16.9850   29.0850   71.8170 O   0  0  0  0  0  0  0  0  0  0  0  0
   16.6590   28.2240   72.7120 N   0  0  0  0  0  0  0  0  0  0  0  0
   15.4960   28.6090   73.2520 C   0  0  0  0  0  0  0  0  0  0  0  0
   14.6870   28.0800   74.2320 C   0  0  0  0  0  0  0  0  0  0  0  0
   13.5230   28.7220   74.5670 C   0  0  0  0  0  0  0  0  0  0  0  0
   13.1440   29.8940   73.9410 C   0  0  0  0  0  0  0  0  0  0  0  0
   15.0910   26.8860   74.8470 N   0  0  0  0  0  0  0  0  0  0  0  0
   16.3810   26.7400   75.5220 C   0  0  0  0  0  0  0  0  0  0  0  0
   17.1070   25.6720   74.7300 C   0  0  0  0  0  0  0  0  0  0  0  0
   16.3620   25.1500   73.6860 O   0  0  0  0  0  0  0  0  0  0  0  0
   15.1140   24.6770   74.0320 C   0  0  0  0  0  0  0  0  0  0  0  0
   14.3500   25.6460   74.9170 C   0  0  0  0  0  0  0  0  0  0  0  0
   15.8280   36.6040   70.1360 H   0  0  0  0  0  0  0  0  0  0  0  0
   17.4540   32.4230   72.1660 H   0  0  0  0  0  0  0  0  0  0  0  0
   15.9000   32.0530   73.0090 H   0  0  0  0  0  0  0  0  0  0  0  0
   16.9400   33.4130   73.5890 H   0  0  0  0  0  0  0  0  0  0  0  0
   12.5720   31.8010   72.9240 H   0  0  0  0  0  0  0  0  0  0  0  0
   12.8810   28.3180   75.3200 H   0  0  0  0  0  0  0  0  0  0  0  0
   12.2230   30.3460   74.2670 H   0  0  0  0  0  0  0  0  0  0  0  0
   16.9420   27.6330   75.6810 H   0  0  0  0  0  0  0  0  0  0  0  0
   16.1910   26.2960   76.5460 H   0  0  0  0  0  0  0  0  0  0  0  0
   17.5570   24.9070   75.3950 H   0  0  0  0  0  0  0  0  0  0  0  0
   17.9820   26.1890   74.2340 H   0  0  0  0  0  0  0  0  0  0  0  0
   14.5330   24.6120   73.0730 H   0  0  0  0  0  0  0  0  0  0  0  0
   15.1290   23.6670   74.4700 H   0  0  0  0  0  0  0  0  0  0  0  0
   14.4490   25.2520   75.9830 H   0  0  0  0  0  0  0  0  0  0  0  0
   13.2900   25.6910   74.7450 H   0  0  0  0  0  0  0  0  0  0  0  0
  1  2  1  0  0  0  0
  2  6  1  0  0  0  0
  2  3  2  0  0  0  0
  3  8  1  0  0  0  0
  3  4  1  0  0  0  0
  4  7  1  0  0  0  0
  5  4  1  0  0  0  0
  6  5  2  0  0  0  0
  7 28  1  0  0  0  0
  7 29  1  0  0  0  0
  8 10  1  0  0  0  0
  9  8  2  0  0  0  0
 10 30  1  0  0  0  0
 10 11  1  0  0  0  0
 11 19  2  0  0  0  0
 12 11  1  0  0  0  0
 12 16  1  0  0  0  0
 13 14  1  0  0  0  0
 13 12  2  0  0  0  0
 14 15  1  0  0  0  0
 15 16  2  0  0  0  0
 16 17  1  0  0  0  0
 17 18  2  0  0  0  0
 17 20  1  0  0  0  0
 18 31  1  0  0  0  0
 19 32  1  0  0  0  0
 19 18  1  0  0  0  0
 20 25  1  0  0  0  0
 20 21  1  0  0  0  0
 21 33  1  0  0  0  0
 21 34  1  0  0  0  0
 22 35  1  0  0  0  0
 22 21  1  0  0  0  0
 23 24  1  0  0  0  0
 23 22  1  0  0  0  0
 24 38  1  0  0  0  0
 24 25  1  0  0  0  0
 25 39  1  0  0  0  0
 26  6  1  0  0  0  0
 27  7  1  0  0  0  0
 36 22  1  0  0  0  0
 37 24  1  0  0  0  0
 40 25  1  0  0  0  0
M  END
>  <Pose>
1

>  <Score>
-6.72

$$$$
