
 OpenBabel03212208413D

 40 43  0  0  1  0  0  0  0  0999 V2000
   12.5950   24.7840   76.5560 I   0  0  0  0  0  0  0  0  0  0  0  0
   13.8840   25.8840   75.3470 C   0  0  0  0  0  0  0  0  0  0  0  0
   13.8820   27.2630   75.2600 C   0  0  0  0  0  0  0  0  0  0  0  0
   14.7460   27.9560   74.4550 C   0  0  0  0  0  0  0  0  0  0  0  0
   15.6660   27.3120   73.6860 C   0  0  0  0  0  0  0  0  0  0  0  0
   15.6840   25.9200   73.7610 C   0  0  0  0  0  0  0  0  0  0  0  0
   14.8300   25.2310   74.5570 C   0  0  0  0  0  0  0  0  0  0  0  0
   16.6000   28.0090   72.8430 C   0  0  1  0  0  0  0  0  0  0  0  0
   17.2500   27.2320   72.0180 O   0  0  0  0  0  0  0  0  0  0  0  0
   16.9720   29.3930   72.7140 C   0  0  0  0  0  0  0  0  0  0  0  0
   16.1020   30.3500   72.1410 N   0  0  0  0  0  0  0  0  0  0  0  0
   16.3760   31.6040   71.9580 C   0  0  1  0  0  0  0  0  0  0  0  0
   17.6990   32.7960   72.2170 S   0  0  0  0  0  0  0  0  0  0  0  0
   16.7780   34.1510   71.5260 C   0  0  0  0  0  0  0  0  0  0  0  0
   15.5980   33.7120   71.1470 C   0  0  0  0  0  0  0  0  0  0  0  0
   15.3440   32.3360   71.3650 N   0  0  0  0  0  0  0  0  0  0  0  0
   14.2380   31.3720   71.1310 C   0  0  0  0  0  0  0  0  0  0  0  0
   14.7550   30.1000   71.7080 C   0  0  0  0  0  0  0  0  0  0  0  0
   14.6510   34.6930   70.5410 C   0  0  0  0  0  0  0  0  0  0  0  0
   13.3860   34.3420   70.1470 C   0  0  0  0  0  0  0  0  0  0  0  0
   12.4920   35.2740   69.5840 C   0  0  0  0  0  0  0  0  0  0  0  0
   12.8760   36.5840   69.4120 C   0  0  0  0  0  0  0  0  0  0  0  0
   14.1420   36.9410   69.8040 C   0  0  0  0  0  0  0  0  0  0  0  0
   15.0160   36.0150   70.3590 C   0  0  0  0  0  0  0  0  0  0  0  0
   13.1430   27.7870   75.8770 H   0  0  0  0  0  0  0  0  0  0  0  0
   14.6540   29.0120   74.4520 H   0  0  0  0  0  0  0  0  0  0  0  0
   16.3990   25.3930   73.1660 H   0  0  0  0  0  0  0  0  0  0  0  0
   14.8340   24.1310   74.6250 H   0  0  0  0  0  0  0  0  0  0  0  0
   17.3060   29.8350   73.7240 H   0  0  0  0  0  0  0  0  0  0  0  0
   17.9690   29.4040   72.1550 H   0  0  0  0  0  0  0  0  0  0  0  0
   17.2290   35.1400   71.4790 H   0  0  0  0  0  0  0  0  0  0  0  0
   14.0370   31.2270   70.0610 H   0  0  0  0  0  0  0  0  0  0  0  0
   13.3330   31.6470   71.7130 H   0  0  0  0  0  0  0  0  0  0  0  0
   14.7060   29.3020   70.9380 H   0  0  0  0  0  0  0  0  0  0  0  0
   14.1410   29.7560   72.5930 H   0  0  0  0  0  0  0  0  0  0  0  0
   13.0650   33.3270   70.2690 H   0  0  0  0  0  0  0  0  0  0  0  0
   11.5270   34.9430   69.3000 H   0  0  0  0  0  0  0  0  0  0  0  0
   12.2380   37.3430   68.9880 H   0  0  0  0  0  0  0  0  0  0  0  0
   14.4550   37.9620   69.6750 H   0  0  0  0  0  0  0  0  0  0  0  0
   16.0030   36.3670   70.6470 H   0  0  0  0  0  0  0  0  0  0  0  0
  2  1  1  0  0  0  0
  3  2  1  0  0  0  0
  3 25  1  0  0  0  0
  4  3  2  0  0  0  0
  5  6  2  0  0  0  0
  5  4  1  0  0  0  0
  6  7  1  0  0  0  0
  7 28  1  0  0  0  0
  7  2  2  0  0  0  0
  8  9  1  6  0  0  0
  8  5  1  0  0  0  0
 10  8  1  0  0  0  0
 10 29  1  0  0  0  0
 11 10  1  0  0  0  0
 12 11  1  0  0  0  0
 12 13  1  6  0  0  0
 14 13  1  0  0  0  0
 15 16  1  0  0  0  0
 15 14  2  0  0  0  0
 16 12  1  0  0  0  0
 17 16  1  0  0  0  0
 17 18  1  0  0  0  0
 17 33  1  0  0  0  0
 18 11  1  0  0  0  0
 18 35  1  0  0  0  0
 19 15  1  0  0  0  0
 20 36  1  0  0  0  0
 20 19  2  0  0  0  0
 21 20  1  0  0  0  0
 22 21  2  0  0  0  0
 22 23  1  0  0  0  0
 23 24  2  0  0  0  0
 24 19  1  0  0  0  0
 24 40  1  0  0  0  0
 26  4  1  0  0  0  0
 27  6  1  0  0  0  0
 30 10  1  0  0  0  0
 31 14  1  0  0  0  0
 32 17  1  0  0  0  0
 34 18  1  0  0  0  0
 37 21  1  0  0  0  0
 38 22  1  0  0  0  0
 39 23  1  0  0  0  0
M  END
>  <Pose>
1

>  <Score>
-5.88

$$$$
