
 OpenBabel03212208413D

 50 53  0  0  0  0  0  0  0  0999 V2000
    9.1330   30.8080   78.4920 I   0  0  0  0  0  0  0  0  0  0  0  0
   10.5510   30.2260   77.0690 C   0  0  0  0  0  0  0  0  0  0  0  0
   10.5080   30.6400   75.7730 C   0  0  0  0  0  0  0  0  0  0  0  0
   11.4910   30.2120   74.8680 C   0  0  0  0  0  0  0  0  0  0  0  0
   12.5160   29.3840   75.2180 C   0  0  0  0  0  0  0  0  0  0  0  0
   12.5360   28.9730   76.5590 C   0  0  0  0  0  0  0  0  0  0  0  0
   11.5760   29.3890   77.4500 C   0  0  0  0  0  0  0  0  0  0  0  0
   13.5680   28.8880   74.3740 C   0  0  0  0  0  0  0  0  0  0  0  0
   13.9400   29.3250   73.2530 N   0  0  0  0  0  0  0  0  0  0  0  0
   13.3850   30.3900   72.6250 N   0  0  0  0  0  0  0  0  0  0  0  0
   14.2440   31.4290   72.0970 C   0  0  0  0  0  0  0  0  0  0  0  0
   15.5740   31.2430   72.0420 N   0  0  0  0  0  4  0  0  0  0  0  0
   16.3870   32.1900   71.5580 C   0  0  0  0  0  0  0  0  0  0  0  0
   15.8080   33.3260   71.1330 N   0  0  0  0  0  0  0  0  0  0  0  0
   14.4790   33.5480   71.1720 C   0  0  0  0  0  0  0  0  0  0  0  0
   13.6960   32.5720   71.6670 N   0  0  0  0  0  0  0  0  0  0  0  0
   13.9480   34.7790   70.7000 N   0  0  0  0  0  0  0  0  0  0  0  0
   12.5470   34.8690   70.3590 C   0  0  0  0  0  0  0  0  0  0  0  0
   12.4810   35.8310   69.1640 C   0  0  0  0  0  0  0  0  0  0  0  0
   12.8660   37.0680   69.6110 O   0  0  0  0  0  0  0  0  0  0  0  0
   14.1410   37.1720   70.0910 C   0  0  0  0  0  0  0  0  0  0  0  0
   14.7870   35.9190   70.5620 C   0  0  0  0  0  0  0  0  0  0  0  0
   17.8020   32.0160   71.4880 N   0  0  0  0  0  0  0  0  0  0  0  0
   18.6410   31.9320   72.6450 C   0  0  0  0  0  0  0  0  0  0  0  0
   20.0940   31.9320   72.1650 C   0  0  0  0  0  0  0  0  0  0  0  0
   20.3320   32.9560   71.2630 O   0  0  0  0  0  0  0  0  0  0  0  0
   19.6360   32.8230   70.0870 C   0  0  0  0  0  0  0  0  0  0  0  0
   18.4360   31.9160   70.1840 C   0  0  0  0  0  0  0  0  0  0  0  0
    9.7090   31.2960   75.4660 H   0  0  0  0  0  0  0  0  0  0  0  0
   11.3700   30.5880   73.8900 H   0  0  0  0  0  0  0  0  0  0  0  0
   13.3140   28.3170   76.9130 H   0  0  0  0  0  0  0  0  0  0  0  0
   11.6640   29.0240   78.4700 H   0  0  0  0  0  0  0  0  0  0  0  0
   14.1570   27.9970   74.7200 H   0  0  0  0  0  0  0  0  0  0  0  0
   12.3490   30.4790   72.5380 H   0  0  0  0  0  0  0  0  0  0  0  0
   11.9840   35.2840   71.2060 H   0  0  0  0  0  0  0  0  0  0  0  0
   12.1400   33.8970   70.0110 H   0  0  0  0  0  0  0  0  0  0  0  0
   13.0980   35.4140   68.3670 H   0  0  0  0  0  0  0  0  0  0  0  0
   11.4230   35.8800   68.8680 H   0  0  0  0  0  0  0  0  0  0  0  0
   14.8000   37.7530   69.3790 H   0  0  0  0  0  0  0  0  0  0  0  0
   14.0840   37.8600   70.9880 H   0  0  0  0  0  0  0  0  0  0  0  0
   15.3300   36.0520   71.5430 H   0  0  0  0  0  0  0  0  0  0  0  0
   15.6280   35.6960   69.8390 H   0  0  0  0  0  0  0  0  0  0  0  0
   18.4700   32.7100   73.3970 H   0  0  0  0  0  0  0  0  0  0  0  0
   18.4660   30.9290   73.1100 H   0  0  0  0  0  0  0  0  0  0  0  0
   20.3000   30.9170   71.7330 H   0  0  0  0  0  0  0  0  0  0  0  0
   20.7800   32.0730   73.0230 H   0  0  0  0  0  0  0  0  0  0  0  0
   20.2710   32.4150   69.2530 H   0  0  0  0  0  0  0  0  0  0  0  0
   19.2620   33.8420   69.8000 H   0  0  0  0  0  0  0  0  0  0  0  0
   18.7660   30.8700   70.0020 H   0  0  0  0  0  0  0  0  0  0  0  0
   17.7320   32.2390   69.3730 H   0  0  0  0  0  0  0  0  0  0  0  0
  2  7  1  0  0  0  0
  2  1  1  0  0  0  0
  3  2  2  0  0  0  0
  4  5  2  0  0  0  0
  4  3  1  0  0  0  0
  5  6  1  0  0  0  0
  6 31  1  0  0  0  0
  6  7  2  0  0  0  0
  7 32  1  0  0  0  0
  8 33  1  0  0  0  0
  8  5  1  0  0  0  0
  9  8  2  0  0  0  0
 10  9  1  0  0  0  0
 11 10  1  0  0  0  0
 12 11  2  0  0  0  0
 13 12  2  0  0  0  0
 14 15  2  0  0  0  0
 14 13  1  0  0  0  0
 15 16  1  0  0  0  0
 16 11  1  0  0  0  0
 17 15  1  0  0  0  0
 18 17  1  0  0  0  0
 18 35  1  0  0  0  0
 19 20  1  0  0  0  0
 19 18  1  0  0  0  0
 20 21  1  0  0  0  0
 21 22  1  0  0  0  0
 21 40  1  0  0  0  0
 22 17  1  0  0  0  0
 22 41  1  0  0  0  0
 23 13  1  0  0  0  0
 23 24  1  0  0  0  0
 24 44  1  0  0  0  0
 24 43  1  0  0  0  0
 25 24  1  0  0  0  0
 25 46  1  0  0  0  0
 26 25  1  0  0  0  0
 27 28  1  0  0  0  0
 27 26  1  0  0  0  0
 28 23  1  0  0  0  0
 29  3  1  0  0  0  0
 30  4  1  0  0  0  0
 34 10  1  0  0  0  0
 36 18  1  0  0  0  0
 37 19  1  0  0  0  0
 38 19  1  0  0  0  0
 39 21  1  0  0  0  0
 42 22  1  0  0  0  0
 45 25  1  0  0  0  0
 47 27  1  0  0  0  0
 48 27  1  0  0  0  0
 49 28  1  0  0  0  0
 50 28  1  0  0  0  0
M  END
>  <Pose>
1

>  <Score>
-7.11

$$$$
