
 OpenBabel03212208413D

 52 56  0  0  1  0  0  0  0  0999 V2000
   14.0450   34.0910   70.4950 I   0  0  0  0  0  0  0  0  0  0  0  0
   14.5260   32.3510   71.5650 C   0  0  0  0  0  0  0  0  0  0  0  0
   13.6790   31.2490   71.5170 C   0  0  0  0  0  0  0  0  0  0  0  0
   13.9840   30.1130   72.2090 C   0  0  0  0  0  0  0  0  0  0  0  0
   15.1290   29.9950   72.9820 C   0  0  0  0  0  0  0  0  0  0  0  0
   15.9800   31.0930   73.0340 C   0  0  0  0  0  0  0  0  0  0  0  0
   15.6620   32.2370   72.3310 C   0  0  0  0  0  0  0  0  0  0  0  0
   15.4440   28.8130   73.7010 N   0  0  0  0  0  0  0  0  0  0  0  0
   16.2790   27.8870   73.1990 C   0  0  0  0  0  0  0  0  0  0  0  0
   16.6000   26.7330   73.8800 C   0  0  2  0  0  0  0  0  0  0  0  0
   16.0090   26.5780   75.1190 C   0  0  0  0  0  0  0  0  0  0  0  0
   16.2010   25.5750   75.8690 O   0  0  0  0  0  0  0  0  0  0  0  0
   15.1560   27.5140   75.6410 N   0  0  0  0  0  0  0  0  0  0  0  0
   14.8970   28.6130   74.9120 C   0  0  0  0  0  0  0  0  0  0  0  0
   14.1220   29.5000   75.3500 O   0  0  0  0  0  0  0  0  0  0  0  0
   17.5030   25.6970   73.4120 C   0  0  1  0  0  0  0  0  0  0  0  0
   18.5080   26.0750   72.4710 N   0  0  0  0  0  4  0  0  0  0  0  0
   19.4780   27.0100   72.9730 C   0  0  0  0  0  0  0  0  0  0  0  0
   19.3870   27.2220   74.4700 C   0  0  0  0  0  0  0  0  0  0  0  0
   19.2280   25.8750   75.1330 C   0  0  0  0  0  0  0  0  0  0  0  0
   18.2620   25.0860   74.5610 C   0  0  0  0  0  0  0  0  0  0  0  0
   18.0260   23.8180   75.0370 C   0  0  0  0  0  0  0  0  0  0  0  0
   18.8000   23.3850   76.1040 C   0  0  0  0  0  0  0  0  0  0  0  0
   19.7740   24.1660   76.6900 C   0  0  0  0  0  0  0  0  0  0  0  0
   19.9800   25.4460   76.1760 C   0  0  0  0  0  0  0  0  0  0  0  0
   20.3560   23.4440   77.7210 O   0  0  0  0  0  0  0  0  0  0  0  0
   19.5080   22.3300   78.0450 C   0  0  0  0  0  0  0  0  0  0  0  0
   18.8210   22.1760   76.8170 O   0  0  0  0  0  0  0  0  0  0  0  0
   17.0630   23.0390   74.4600 O   0  0  0  0  0  0  0  0  0  0  0  0
   15.8100   22.7290   74.9800 C   0  0  0  0  0  0  0  0  0  0  0  0
   19.2770   24.8310   72.2090 C   0  0  0  0  0  0  0  0  0  0  0  0
   16.8430   28.0760   71.9640 O   0  0  0  0  0  0  0  0  0  0  0  0
   12.7870   31.3310   70.9190 H   0  0  0  0  0  0  0  0  0  0  0  0
   13.3200   29.2600   72.1670 H   0  0  0  0  0  0  0  0  0  0  0  0
   16.8770   30.9960   73.6420 H   0  0  0  0  0  0  0  0  0  0  0  0
   16.3180   33.0820   72.3710 H   0  0  0  0  0  0  0  0  0  0  0  0
   14.7160   27.3940   76.5720 H   0  0  0  0  0  0  0  0  0  0  0  0
   16.8970   24.8780   72.9870 H   0  0  0  0  0  0  0  0  0  0  0  0
   18.1850   26.3140   71.5190 H   0  0  0  0  0  0  0  0  0  0  0  0
   19.3780   27.9950   72.4920 H   0  0  0  0  0  0  0  0  0  0  0  0
   20.5410   26.6940   72.7800 H   0  0  0  0  0  0  0  0  0  0  0  0
   18.6230   27.9420   74.7840 H   0  0  0  0  0  0  0  0  0  0  0  0
   20.3610   27.6100   74.8340 H   0  0  0  0  0  0  0  0  0  0  0  0
   20.7230   26.0930   76.5940 H   0  0  0  0  0  0  0  0  0  0  0  0
   18.7510   22.6730   78.7890 H   0  0  0  0  0  0  0  0  0  0  0  0
   20.0720   21.4520   78.3530 H   0  0  0  0  0  0  0  0  0  0  0  0
   15.7680   21.6110   75.1170 H   0  0  0  0  0  0  0  0  0  0  0  0
   15.5610   23.2380   75.9250 H   0  0  0  0  0  0  0  0  0  0  0  0
   14.9720   22.9470   74.2640 H   0  0  0  0  0  0  0  0  0  0  0  0
   18.6320   24.0820   71.7540 H   0  0  0  0  0  0  0  0  0  0  0  0
   19.7650   24.5380   73.1490 H   0  0  0  0  0  0  0  0  0  0  0  0
   20.1100   25.0920   71.5020 H   0  0  0  0  0  0  0  0  0  0  0  0
  1  2  1  0  0  0  0
  2  7  1  0  0  0  0
  3  2  2  0  0  0  0
  3  4  1  0  0  0  0
  4  5  2  0  0  0  0
  5  6  1  0  0  0  0
  5  8  1  0  0  0  0
  6 35  1  0  0  0  0
  7 36  1  0  0  0  0
  7  6  2  0  0  0  0
  8 14  1  0  0  0  0
  9  8  1  0  0  0  0
 10  9  1  1  0  0  0
 10 11  1  0  0  0  0
 11 13  1  0  0  0  0
 11 12  2  0  0  0  0
 13 37  1  0  0  0  0
 14 15  2  0  0  0  0
 14 13  1  0  0  0  0
 16 38  1  6  0  0  0
 16 10  1  0  0  0  0
 16 21  1  0  0  0  0
 17 18  1  0  0  0  0
 17 16  1  0  0  0  0
 18 19  1  0  0  0  0
 19 42  1  0  0  0  0
 19 43  1  0  0  0  0
 19 20  1  0  0  0  0
 20 25  1  0  0  0  0
 21 22  1  0  0  0  0
 21 20  2  0  0  0  0
 22 23  2  0  0  0  0
 23 24  1  0  0  0  0
 23 28  1  0  0  0  0
 24 26  1  0  0  0  0
 25 44  1  0  0  0  0
 25 24  2  0  0  0  0
 26 27  1  0  0  0  0
 27 46  1  0  0  0  0
 27 45  1  0  0  0  0
 28 27  1  0  0  0  0
 29 30  1  0  0  0  0
 29 22  1  0  0  0  0
 30 47  1  0  0  0  0
 30 48  1  0  0  0  0
 31 17  1  0  0  0  0
 31 51  1  0  0  0  0
 32  9  2  0  0  0  0
 33  3  1  0  0  0  0
 34  4  1  0  0  0  0
 39 17  1  0  0  0  0
 40 18  1  0  0  0  0
 41 18  1  0  0  0  0
 49 30  1  0  0  0  0
 50 31  1  0  0  0  0
 52 31  1  0  0  0  0
M  END
>  <Pose>
1

>  <Score>
-5.42

$$$$
