
 OpenBabel03212208413D

 48 52  0  0  1  0  0  0  0  0999 V2000
   13.9740   31.0040   71.8340 B   0  0  0  0  0  0  0  0  0  0  0  0
   14.2100   32.7720   71.1630 C   0  0  0  0  0  0  0  0  0  0  0  0
   13.0800   33.4040   70.5860 C   0  0  0  0  0  0  0  0  0  0  0  0
   13.1840   34.6550   70.0410 C   0  0  0  0  0  0  0  0  0  0  0  0
   14.4090   35.2850   70.0650 C   0  0  0  0  0  0  0  0  0  0  0  0
   15.4990   34.6610   70.6280 C   0  0  0  0  0  0  0  0  0  0  0  0
   15.4270   33.3670   71.2030 C   0  0  0  0  0  0  0  0  0  0  0  0
   16.6260   32.8470   71.8190 C   0  0  0  0  0  0  0  0  0  0  0  0
   17.8370   32.7360   71.3990 C   0  0  0  0  0  0  0  0  0  0  0  0
   19.0430   32.2220   72.0220 C   0  0  1  0  0  0  0  0  0  0  0  0
   20.1960   32.8370   72.1310 N   0  0  0  0  0  0  0  0  0  0  0  0
   21.2130   32.2600   72.8390 C   0  0  0  0  0  0  0  0  0  0  0  0
   21.1140   31.0520   73.4580 C   0  0  0  0  0  0  0  0  0  0  0  0
   19.9180   30.3740   73.3640 C   0  0  0  0  0  0  0  0  0  0  0  0
   19.4540   29.1680   73.8410 N   0  0  0  0  0  0  0  0  0  0  0  0
   18.2020   28.9940   73.4530 C   0  0  0  0  0  0  0  0  0  0  0  0
   17.8790   30.0980   72.7270 N   0  0  0  0  0  0  0  0  0  0  0  0
   18.9060   30.9550   72.6570 C   0  0  0  0  0  0  0  0  0  0  0  0
   17.3010   27.8620   73.6980 C   0  0  0  0  0  0  0  0  0  0  0  0
   16.5500   27.6860   74.8130 C   0  0  0  0  0  0  0  0  0  0  0  0
   15.7420   26.5420   74.9480 C   0  0  0  0  0  0  0  0  0  0  0  0
   15.7080   25.5940   73.9520 C   0  0  0  0  0  0  0  0  0  0  0  0
   16.4660   25.7500   72.7990 C   0  0  0  0  0  0  0  0  0  0  0  0
   17.2310   26.8670   72.7090 C   0  0  0  0  0  0  0  0  0  0  0  0
   20.3170   28.3160   74.6110 C   0  0  0  0  0  0  0  0  0  0  0  0
   20.4700   34.0770   71.4670 C   0  0  0  0  0  0  0  0  0  0  0  0
   14.2420   36.5360   69.4480 O   0  0  0  0  0  0  0  0  0  0  0  0
   12.8650   36.8350   69.5390 C   0  0  0  0  0  0  0  0  0  0  0  0
   12.2950   35.5330   69.4130 O   0  0  0  0  0  0  0  0  0  0  0  0
   12.1490   32.8630   70.5970 H   0  0  0  0  0  0  0  0  0  0  0  0
   16.4590   35.1750   70.6390 H   0  0  0  0  0  0  0  0  0  0  0  0
   16.4590   32.4340   72.8310 H   0  0  0  0  0  0  0  0  0  0  0  0
   17.9720   33.0960   70.3580 H   0  0  0  0  0  0  0  0  0  0  0  0
   22.1500   32.8080   72.9060 H   0  0  0  0  0  0  0  0  0  0  0  0
   21.9110   30.5860   74.0220 H   0  0  0  0  0  0  0  0  0  0  0  0
   16.5370   28.4140   75.6140 H   0  0  0  0  0  0  0  0  0  0  0  0
   15.1560   26.4260   75.8450 H   0  0  0  0  0  0  0  0  0  0  0  0
   15.0850   24.7090   74.0510 H   0  0  0  0  0  0  0  0  0  0  0  0
   16.4570   25.0210   72.0040 H   0  0  0  0  0  0  0  0  0  0  0  0
   17.8320   26.9970   71.8060 H   0  0  0  0  0  0  0  0  0  0  0  0
   20.0820   28.2390   75.6780 H   0  0  0  0  0  0  0  0  0  0  0  0
   21.3960   28.7060   74.5670 H   0  0  0  0  0  0  0  0  0  0  0  0
   20.4450   27.2910   74.1960 H   0  0  0  0  0  0  0  0  0  0  0  0
   20.3030   34.9830   72.0640 H   0  0  0  0  0  0  0  0  0  0  0  0
   21.6210   34.1030   71.3270 H   0  0  0  0  0  0  0  0  0  0  0  0
   20.1410   34.1080   70.4110 H   0  0  0  0  0  0  0  0  0  0  0  0
   12.6590   37.2560   70.5450 H   0  0  0  0  0  0  0  0  0  0  0  0
   12.5260   37.4970   68.7130 H   0  0  0  0  0  0  0  0  0  0  0  0
  2  7  1  0  0  0  0
  2  1  1  0  0  0  0
  3 30  1  0  0  0  0
  3  2  2  0  0  0  0
  4  5  2  0  0  0  0
  4  3  1  0  0  0  0
  5  6  1  0  0  0  0
  6 31  1  0  0  0  0
  6  7  2  0  0  0  0
  7  8  1  0  0  0  0
  8 32  1  0  0  0  0
  9  8  2  0  0  0  0
 10  9  1  1  0  0  0
 10 11  1  0  0  0  0
 10 18  1  0  0  0  0
 11 12  1  0  0  0  0
 12 34  1  0  0  0  0
 12 13  2  0  0  0  0
 13 35  1  0  0  0  0
 14 13  1  0  0  0  0
 14 15  1  0  0  0  0
 15 25  1  0  0  0  0
 16 19  1  0  0  0  0
 16 15  1  0  0  0  0
 17 16  2  0  0  0  0
 18 17  1  0  0  0  0
 18 14  2  0  0  0  0
 19 20  1  0  0  0  0
 20 21  2  0  0  0  0
 20 36  1  0  0  0  0
 21 37  1  0  0  0  0
 22 38  1  0  0  0  0
 22 21  1  0  0  0  0
 23 22  2  0  0  0  0
 24 23  1  0  0  0  0
 24 19  2  0  0  0  0
 25 41  1  0  0  0  0
 26 44  1  0  0  0  0
 26 11  1  0  0  0  0
 27 28  1  0  0  0  0
 27  5  1  0  0  0  0
 28 47  1  0  0  0  0
 29 28  1  0  0  0  0
 29  4  1  0  0  0  0
 33  9  1  0  0  0  0
 39 23  1  0  0  0  0
 40 24  1  0  0  0  0
 42 25  1  0  0  0  0
 43 25  1  0  0  0  0
 45 26  1  0  0  0  0
 46 26  1  0  0  0  0
 48 28  1  0  0  0  0
M  END
>  <Pose>
1

>  <Score>
-6.12

$$$$
