
 OpenBabel03212208413D

 35 39  0  0  0  0  0  0  0  0999 V2000
   16.2170   29.1130   73.2670 B   0  0  0  0  0  0  0  0  0  0  0  0
   17.7900   30.1720   73.0650 C   0  0  0  0  0  0  0  0  0  0  0  0
   17.7360   31.4710   72.5260 C   0  0  0  0  0  0  0  0  0  0  0  0
   18.8360   32.2590   72.3640 C   0  0  0  0  0  0  0  0  0  0  0  0
   20.0690   31.7350   72.7590 C   0  0  0  0  0  0  0  0  0  0  0  0
   20.1220   30.4770   73.2810 C   0  0  0  0  0  0  0  0  0  0  0  0
   19.0110   29.6740   73.4480 C   0  0  0  0  0  0  0  0  0  0  0  0
   19.1410   28.3860   73.9930 O   0  0  0  0  0  0  0  0  0  0  0  0
   21.8010   29.7530   73.8230 B   0  0  0  0  0  0  0  0  0  0  0  0
   18.7480   33.6010   71.8030 C   0  0  0  0  0  0  0  0  0  0  0  0
   19.1730   34.4990   72.8270 O   0  0  0  0  0  0  0  0  0  0  0  0
   20.2770   35.2170   72.4560 C   0  0  0  0  0  0  0  0  0  0  0  0
   20.8580   36.0750   73.1580 O   0  0  0  0  0  0  0  0  0  0  0  0
   20.6060   34.7770   71.1140 C   0  0  0  0  0  0  0  0  0  0  0  0
   19.7180   33.8140   70.6910 C   0  0  0  0  0  0  0  0  0  0  0  0
   19.8830   33.2920   69.4500 C   0  0  0  0  0  0  0  0  0  0  0  0
   20.9190   33.7270   68.6510 C   0  0  0  0  0  0  0  0  0  0  0  0
   21.8110   34.6910   69.0710 C   0  0  0  0  0  0  0  0  0  0  0  0
   21.6570   35.2290   70.3220 C   0  0  0  0  0  0  0  0  0  0  0  0
   17.3920   34.0000   71.4410 C   0  0  0  0  0  0  0  0  0  0  0  0
   16.3270   33.1640   71.6270 C   0  0  0  0  0  0  0  0  0  0  0  0
   15.0230   33.5660   71.2710 C   0  0  0  0  0  0  0  0  0  0  0  0
   14.8410   34.8180   70.7330 C   0  0  0  0  0  0  0  0  0  0  0  0
   15.9170   35.6730   70.5410 C   0  0  0  0  0  0  0  0  0  0  0  0
   17.1780   35.2750   70.8880 C   0  0  0  0  0  0  0  0  0  0  0  0
   15.6800   37.4100   69.7960 B   0  0  0  0  0  0  0  0  0  0  0  0
   13.5540   35.2020   70.3880 O   0  0  0  0  0  0  0  0  0  0  0  0
   13.5580   32.3670   71.5470 B   0  0  0  0  0  0  0  0  0  0  0  0
   16.4530   31.8910   72.1670 O   0  0  0  0  0  0  0  0  0  0  0  0
   20.9290   32.3820   72.6210 H   0  0  0  0  0  0  0  0  0  0  0  0
   19.2080   32.5370   69.0860 H   0  0  0  0  0  0  0  0  0  0  0  0
   21.0820   33.3280   67.6480 H   0  0  0  0  0  0  0  0  0  0  0  0
   22.6350   35.0430   68.4460 H   0  0  0  0  0  0  0  0  0  0  0  0
   22.3410   35.9830   70.6730 H   0  0  0  0  0  0  0  0  0  0  0  0
   18.0560   35.8930   70.7630 H   0  0  0  0  0  0  0  0  0  0  0  0
  2  1  1  0  0  0  0
  2  7  1  0  0  0  0
  3  2  2  0  0  0  0
  4  3  1  0  0  0  0
  4  5  2  0  0  0  0
  5  6  1  0  0  0  0
  6  7  2  0  0  0  0
  6  9  1  0  0  0  0
  7  8  1  0  0  0  0
 10  4  1  0  0  0  0
 10 11  1  0  0  0  0
 12 11  1  0  0  0  0
 12 13  2  0  0  0  0
 14 12  1  0  0  0  0
 15 14  1  0  0  0  0
 15 10  1  0  0  0  0
 16 15  2  0  0  0  0
 17 18  2  0  0  0  0
 17 16  1  0  0  0  0
 18 19  1  0  0  0  0
 19 34  1  0  0  0  0
 19 14  2  0  0  0  0
 20 21  1  0  0  0  0
 20 10  1  0  0  0  0
 21 29  1  0  0  0  0
 22 28  1  0  0  0  0
 22 21  2  0  0  0  0
 23 22  1  0  0  0  0
 24 23  2  0  0  0  0
 24 25  1  0  0  0  0
 25 20  2  0  0  0  0
 26 24  1  0  0  0  0
 27 23  1  0  0  0  0
 29  3  1  0  0  0  0
 30  5  1  0  0  0  0
 31 16  1  0  0  0  0
 32 17  1  0  0  0  0
 33 18  1  0  0  0  0
 35 25  1  0  0  0  0
M  END
>  <Pose>
1

>  <Score>
-6.54

$$$$
