
 OpenBabel03212208413D

 35 39  0  0  0  0  0  0  0  0999 V2000
   13.7100   30.6060   71.7730 I   0  0  0  0  0  0  0  0  0  0  0  0
   14.8500   32.3780   71.6340 C   0  0  0  0  0  0  0  0  0  0  0  0
   16.1770   32.3130   72.0460 C   0  0  0  0  0  0  0  0  0  0  0  0
   16.9350   33.4360   71.9680 C   0  0  0  0  0  0  0  0  0  0  0  0
   16.3590   34.6120   71.4800 C   0  0  0  0  0  0  0  0  0  0  0  0
   15.0460   34.6860   71.0700 C   0  0  0  0  0  0  0  0  0  0  0  0
   14.2820   33.5390   71.1520 C   0  0  0  0  0  0  0  0  0  0  0  0
   12.9570   33.5900   70.7450 O   0  0  0  0  0  0  0  0  0  0  0  0
   14.2200   36.4950   70.3370 I   0  0  0  0  0  0  0  0  0  0  0  0
   18.3280   33.4790   72.3710 C   0  0  0  0  0  0  0  0  0  0  0  0
   18.5410   34.4390   73.4160 O   0  0  0  0  0  0  0  0  0  0  0  0
   19.4600   35.3920   73.0640 C   0  0  0  0  0  0  0  0  0  0  0  0
   19.8910   36.3800   73.7250 O   0  0  0  0  0  0  0  0  0  0  0  0
   19.8920   35.0620   71.7140 C   0  0  0  0  0  0  0  0  0  0  0  0
   19.2310   33.9430   71.3050 C   0  0  0  0  0  0  0  0  0  0  0  0
   19.4640   33.4110   70.0370 C   0  0  0  0  0  0  0  0  0  0  0  0
   20.3610   34.0000   69.1720 C   0  0  0  0  0  0  0  0  0  0  0  0
   21.0350   35.1430   69.5920 C   0  0  0  0  0  0  0  0  0  0  0  0
   20.8090   35.6690   70.8390 C   0  0  0  0  0  0  0  0  0  0  0  0
   21.6510   37.0850   71.3440 Cl  0  0  0  0  0  0  0  0  0  0  0  0
   22.1830   35.9340   68.5480 Cl  0  0  0  0  0  0  0  0  0  0  0  0
   20.6290   33.3050   67.5900 Cl  0  0  0  0  0  0  0  0  0  0  0  0
   18.5900   31.9870   69.5810 Cl  0  0  0  0  0  0  0  0  0  0  0  0
   18.8070   32.1610   72.8680 C   0  0  0  0  0  0  0  0  0  0  0  0
   18.0230   31.0600   72.9320 C   0  0  0  0  0  0  0  0  0  0  0  0
   18.5990   29.8880   73.4190 C   0  0  0  0  0  0  0  0  0  0  0  0
   19.9110   29.8140   73.8290 C   0  0  0  0  0  0  0  0  0  0  0  0
   20.6800   30.9570   73.7490 C   0  0  0  0  0  0  0  0  0  0  0  0
   20.1470   32.1270   73.2760 C   0  0  0  0  0  0  0  0  0  0  0  0
   22.6920   30.8750   74.3690 I   0  0  0  0  0  0  0  0  0  0  0  0
   20.4770   28.6610   74.3080 O   0  0  0  0  0  0  0  0  0  0  0  0
   17.3930   28.1730   73.5230 I   0  0  0  0  0  0  0  0  0  0  0  0
   16.7010   31.0970   72.5290 O   0  0  0  0  0  0  0  0  0  0  0  0
   16.9350   35.5320   71.4040 H   0  0  0  0  0  0  0  0  0  0  0  0
   20.7690   32.9920   73.2280 H   0  0  0  0  0  0  0  0  0  0  0  0
  2  1  1  0  0  0  0
  2  3  1  0  0  0  0
  3 33  1  0  0  0  0
  4  3  2  0  0  0  0
  4 10  1  0  0  0  0
  5  4  1  0  0  0  0
  6  7  1  0  0  0  0
  6  5  2  0  0  0  0
  7  2  2  0  0  0  0
  8  7  1  0  0  0  0
  9  6  1  0  0  0  0
 10 24  1  0  0  0  0
 10 11  1  0  0  0  0
 12 11  1  0  0  0  0
 12 13  2  0  0  0  0
 14 12  1  0  0  0  0
 15 14  1  0  0  0  0
 15 10  1  0  0  0  0
 16 15  2  0  0  0  0
 17 18  2  0  0  0  0
 17 16  1  0  0  0  0
 18 19  1  0  0  0  0
 19 20  1  0  0  0  0
 19 14  2  0  0  0  0
 21 18  1  0  0  0  0
 22 17  1  0  0  0  0
 23 16  1  0  0  0  0
 24 25  2  0  0  0  0
 24 29  1  0  0  0  0
 25 26  1  0  0  0  0
 26 32  1  0  0  0  0
 26 27  2  0  0  0  0
 27 31  1  0  0  0  0
 28 27  1  0  0  0  0
 28 30  1  0  0  0  0
 29 28  2  0  0  0  0
 33 25  1  0  0  0  0
 34  5  1  0  0  0  0
 35 29  1  0  0  0  0
M  END
>  <Pose>
1

>  <Score>
-7.05

$$$$
