
 OpenBabel03212208413D

 35 39  0  0  0  0  0  0  0  0999 V2000
   13.3760   33.5140   71.5560 I   0  0  0  0  0  0  0  0  0  0  0  0
   15.1110   32.3300   71.8410 C   0  0  0  0  0  0  0  0  0  0  0  0
   16.3350   32.9300   71.5000 C   0  0  0  0  0  0  0  0  0  0  0  0
   17.4620   32.1910   71.6730 C   0  0  0  0  0  0  0  0  0  0  0  0
   17.3560   30.8830   72.1780 C   0  0  0  0  0  0  0  0  0  0  0  0
   16.1610   30.3000   72.5110 C   0  0  0  0  0  0  0  0  0  0  0  0
   15.0190   31.0490   72.3350 C   0  0  0  0  0  0  0  0  0  0  0  0
   13.7920   30.4900   72.6620 O   0  0  0  0  0  0  0  0  0  0  0  0
   16.0730   28.3220   73.2680 I   0  0  0  0  0  0  0  0  0  0  0  0
   18.7880   32.7280   71.3450 C   0  0  0  0  0  0  0  0  0  0  0  0
   19.5030   31.8700   70.4770 O   0  0  0  0  0  0  0  0  0  0  0  0
   20.6710   31.4190   71.0320 C   0  0  0  0  0  0  0  0  0  0  0  0
   21.5360   30.6490   70.5360 O   0  0  0  0  0  0  0  0  0  0  0  0
   20.7660   32.0020   72.3630 C   0  0  0  0  0  0  0  0  0  0  0  0
   19.6650   32.7720   72.5570 C   0  0  0  0  0  0  0  0  0  0  0  0
   19.5310   33.4430   73.7780 C   0  0  0  0  0  0  0  0  0  0  0  0
   20.4980   33.3160   74.7480 C   0  0  0  0  0  0  0  0  0  0  0  0
   21.6170   32.5340   74.5540 C   0  0  0  0  0  0  0  0  0  0  0  0
   21.7590   31.8710   73.3590 C   0  0  0  0  0  0  0  0  0  0  0  0
   18.7460   34.1070   70.8280 C   0  0  0  0  0  0  0  0  0  0  0  0
   17.5890   34.7910   70.6780 C   0  0  0  0  0  0  0  0  0  0  0  0
   17.6250   36.0900   70.1820 C   0  0  0  0  0  0  0  0  0  0  0  0
   18.8130   36.6770   69.8480 C   0  0  0  0  0  0  0  0  0  0  0  0
   20.0090   36.0110   69.9890 C   0  0  0  0  0  0  0  0  0  0  0  0
   19.9480   34.7350   70.4770 C   0  0  0  0  0  0  0  0  0  0  0  0
   21.8440   36.9250   69.4710 I   0  0  0  0  0  0  0  0  0  0  0  0
   18.8210   37.9760   69.3560 O   0  0  0  0  0  0  0  0  0  0  0  0
   15.8010   37.1570   69.9500 I   0  0  0  0  0  0  0  0  0  0  0  0
   16.3410   34.2360   71.0040 O   0  0  0  0  0  0  0  0  0  0  0  0
   18.2810   30.3030   72.3110 H   0  0  0  0  0  0  0  0  0  0  0  0
   18.6450   34.0410   73.8890 H   0  0  0  0  0  0  0  0  0  0  0  0
   20.3570   33.8470   75.6690 H   0  0  0  0  0  0  0  0  0  0  0  0
   22.3980   32.4210   75.3160 H   0  0  0  0  0  0  0  0  0  0  0  0
   22.6210   31.2410   73.1520 H   0  0  0  0  0  0  0  0  0  0  0  0
   20.8720   34.1890   70.5980 H   0  0  0  0  0  0  0  0  0  0  0  0
  1  2  1  0  0  0  0
  2  7  1  0  0  0  0
  3  4  1  0  0  0  0
  3  2  2  0  0  0  0
  4  5  2  0  0  0  0
  5 30  1  0  0  0  0
  5  6  1  0  0  0  0
  6  9  1  0  0  0  0
  7  6  2  0  0  0  0
  7  8  1  0  0  0  0
 10  4  1  0  0  0  0
 10 15  1  0  0  0  0
 11 12  1  0  0  0  0
 11 10  1  0  0  0  0
 12 14  1  0  0  0  0
 13 12  2  0  0  0  0
 14 15  2  0  0  0  0
 14 19  1  0  0  0  0
 15 16  1  0  0  0  0
 16 31  1  0  0  0  0
 16 17  2  0  0  0  0
 17 32  1  0  0  0  0
 18 17  1  0  0  0  0
 18 33  1  0  0  0  0
 19 18  2  0  0  0  0
 20 10  1  0  0  0  0
 21 20  1  0  0  0  0
 21 29  1  0  0  0  0
 22 21  2  0  0  0  0
 23 24  2  0  0  0  0
 23 22  1  0  0  0  0
 24 25  1  0  0  0  0
 25 35  1  0  0  0  0
 25 20  2  0  0  0  0
 26 24  1  0  0  0  0
 27 23  1  0  0  0  0
 28 22  1  0  0  0  0
 29  3  1  0  0  0  0
 34 19  1  0  0  0  0
M  END
>  <Pose>
1

>  <Score>
-6.01

$$$$
