
 OpenBabel03212208413D

 38 41  0  0  0  0  0  0  0  0999 V2000
   14.0560   33.9180   71.0920 S   0  0  0  0  0  0  0  0  0  0  0  0
   13.0370   34.6250   71.9410 O   0  0  0  0  0  0  0  0  0  0  0  0
   14.3720   34.7720   69.8890 O   0  0  0  0  0  0  0  0  0  0  0  0
   13.4060   32.4380   70.6280 O   0  0  0  0  0  0  0  0  0  0  0  0
   15.4450   33.7030   72.0710 O   0  0  0  0  0  0  0  0  0  0  0  0
   16.0130   32.4470   72.2510 C   0  0  0  0  0  0  0  0  0  0  0  0
   15.3180   31.3790   72.8360 C   0  0  0  0  0  0  0  0  0  0  0  0
   16.2130   30.3320   72.8270 C   0  0  0  0  0  0  0  0  0  0  0  0
   17.3590   30.7540   72.2740 N   0  0  0  0  0  0  0  0  0  0  0  0
   17.2810   32.0680   71.9000 C   0  0  0  0  0  0  0  0  0  0  0  0
   18.3670   32.8400   71.3080 C   0  0  0  0  0  0  0  0  0  0  0  0
   18.2180   34.1310   70.9050 N   0  0  0  0  0  0  0  0  0  0  0  0
   19.3610   34.6020   70.3820 C   0  0  0  0  0  0  0  0  0  0  0  0
   20.3150   33.6080   70.4280 C   0  0  0  0  0  0  0  0  0  0  0  0
   19.6550   32.5210   71.0120 C   0  0  0  0  0  0  0  0  0  0  0  0
   20.2810   31.3070   71.2290 O   0  0  0  0  0  0  0  0  0  0  0  0
   21.4550   31.0900   72.4470 S   0  0  0  0  0  0  0  0  0  0  0  0
   21.0790   31.8350   73.6940 O   0  0  0  0  0  0  0  0  0  0  0  0
   22.8040   31.5910   72.0140 O   0  0  0  0  0  0  0  0  0  0  0  0
   21.6440   29.4320   72.7590 O   0  0  0  0  0  0  0  0  0  0  0  0
   21.5990   33.7980   69.9600 C   0  0  0  0  0  0  0  0  0  0  0  0
   21.9760   35.0160   69.4180 C   0  0  0  0  0  0  0  0  0  0  0  0
   21.0280   36.0260   69.3650 C   0  0  0  0  0  0  0  0  0  0  0  0
   19.7490   35.8180   69.8380 C   0  0  0  0  0  0  0  0  0  0  0  0
   18.4950   37.2500   69.7340 B   0  0  0  0  0  0  0  0  0  0  0  0
   23.7530   35.3030   68.7600 B   0  0  0  0  0  0  0  0  0  0  0  0
   15.8090   29.1080   73.3530 C   0  0  0  0  0  0  0  0  0  0  0  0
   14.5450   28.9780   73.8600 C   0  0  0  0  0  0  0  0  0  0  0  0
   13.6330   30.0380   73.8710 C   0  0  0  0  0  0  0  0  0  0  0  0
   14.0430   31.2650   73.3420 C   0  0  0  0  0  0  0  0  0  0  0  0
   11.8930   29.7920   74.5900 B   0  0  0  0  0  0  0  0  0  0  0  0
   17.0170   27.6500   73.3540 B   0  0  0  0  0  0  0  0  0  0  0  0
   18.2260   30.1610   72.1350 H   0  0  0  0  0  0  0  0  0  0  0  0
   17.3500   34.7070   70.9780 H   0  0  0  0  0  0  0  0  0  0  0  0
   22.2970   32.9940   70.0190 H   0  0  0  0  0  0  0  0  0  0  0  0
   21.3280   36.9910   68.9350 H   0  0  0  0  0  0  0  0  0  0  0  0
   14.1940   28.0430   74.2770 H   0  0  0  0  0  0  0  0  0  0  0  0
   13.3620   32.1100   73.3350 H   0  0  0  0  0  0  0  0  0  0  0  0
  1  2  1  0  0  0  0
  1  5  1  0  0  0  0
  3  1  1  0  0  0  0
  4  1  1  0  0  0  0
  5  6  1  0  0  0  0
  6  7  1  0  0  0  0
  7 30  1  0  0  0  0
  8  7  2  0  0  0  0
  8 27  1  0  0  0  0
  9  8  1  0  0  0  0
 10  6  2  0  0  0  0
 10  9  1  0  0  0  0
 11 10  1  0  0  0  0
 12 34  1  0  0  0  0
 12 11  1  0  0  0  0
 13 14  1  0  0  0  0
 13 12  1  0  0  0  0
 14 15  1  0  0  0  0
 15 16  1  0  0  0  0
 15 11  2  0  0  0  0
 16 17  1  0  0  0  0
 17 20  1  0  0  0  0
 17 18  1  0  0  0  0
 19 17  1  0  0  0  0
 21 35  1  0  0  0  0
 21 14  2  0  0  0  0
 22 21  1  0  0  0  0
 23 22  2  0  0  0  0
 23 24  1  0  0  0  0
 24 13  2  0  0  0  0
 25 24  1  0  0  0  0
 26 22  1  0  0  0  0
 27 32  1  0  0  0  0
 27 28  2  0  0  0  0
 28 29  1  0  0  0  0
 28 37  1  0  0  0  0
 29 31  1  0  0  0  0
 30 29  2  0  0  0  0
 33  9  1  0  0  0  0
 36 23  1  0  0  0  0
 38 30  1  0  0  0  0
M  END
>  <Pose>
1

>  <Score>
-7.67

$$$$
