
 OpenBabel03212208413D

 46 51  0  0  1  0  0  0  0  0999 V2000
   24.9700   35.3950   65.2460 P   0  0  2  0  0  0  0  0  0  0  0  0
   24.8970   36.8980   64.3770 S   0  0  0  0  0  0  0  0  0  0  0  0
   23.5420   35.2480   66.1550 O   0  0  0  0  0  0  0  0  0  0  0  0
   23.9260   34.8720   67.4390 C   0  0  2  0  0  0  0  0  0  0  0  0
   24.9990   33.7960   67.2600 C   0  0  2  0  0  0  0  0  0  0  0  0
   24.8310   32.9740   68.3400 O   0  0  0  0  0  0  0  0  0  0  0  0
   23.4670   32.8910   68.6110 C   0  0  2  0  0  0  0  0  0  0  0  0
   22.8390   34.1790   68.2030 C   0  0  2  0  0  0  0  0  0  0  0  0
   21.7230   33.9630   67.3830 O   0  0  0  0  0  0  0  0  0  0  0  0
   23.2300   32.5620   70.0140 N   0  0  0  0  0  0  0  0  0  0  0  0
   22.0460   32.2880   70.6160 C   0  0  0  0  0  0  0  0  0  0  0  0
   22.2320   32.0240   71.9570 C   0  0  0  0  0  0  0  0  0  0  0  0
   23.5610   32.1430   72.1590 N   0  0  0  0  0  0  0  0  0  0  0  0
   24.1510   32.4640   70.9890 C   0  0  0  0  0  0  0  0  0  0  0  0
   26.0160   32.7580   70.6790 B   0  0  0  0  0  0  0  0  0  0  0  0
   21.1420   31.7210   72.7480 C   0  0  0  0  0  0  0  0  0  0  0  0
   21.2990   31.4800   73.9650 O   0  0  0  0  0  0  0  0  0  0  0  0
   19.8840   31.6740   72.2550 N   0  0  0  0  0  0  0  0  0  0  0  0
   19.7250   31.9350   70.9450 C   0  0  0  0  0  0  0  0  0  0  0  0
   18.4060   31.8250   70.7080 N   0  0  0  0  0  0  0  0  0  0  0  0
   17.7230   31.5040   71.8220 C   0  0  0  0  0  0  0  0  0  0  0  0
   18.6730   31.4060   72.8170 C   0  0  0  0  0  0  0  0  0  0  0  0
   16.2750   31.2990   71.9560 C   0  0  0  0  0  0  0  0  0  0  0  0
   15.7880   30.1360   72.5090 C   0  0  0  0  0  0  0  0  0  0  0  0
   14.4240   29.9130   72.6500 C   0  0  0  0  0  0  0  0  0  0  0  0
   13.5470   30.8840   72.2240 C   0  0  0  0  0  0  0  0  0  0  0  0
   13.9970   32.0690   71.6620 C   0  0  0  0  0  0  0  0  0  0  0  0
   15.3590   32.2360   71.5480 C   0  0  0  0  0  0  0  0  0  0  0  0
   20.7890   32.2360   70.1460 N   0  0  0  0  0  0  0  0  0  0  0  0
   26.3250   34.5190   67.2390 C   0  0  0  0  0  0  0  0  0  0  0  0
   26.3320   35.4680   66.2420 O   0  0  0  0  0  0  0  0  0  0  0  0
   25.1740   34.0870   64.1960 O   0  0  0  0  0  0  0  0  0  0  0  0
   24.3050   35.7470   67.9850 H   0  0  0  0  0  0  0  0  0  0  0  0
   24.8510   33.2170   66.3420 H   0  0  0  0  0  0  0  0  0  0  0  0
   23.0950   32.0190   67.9970 H   0  0  0  0  0  0  0  0  0  0  0  0
   22.5620   34.7740   69.0740 H   0  0  0  0  0  0  0  0  0  0  0  0
   21.3780   33.0510   67.4630 H   0  0  0  0  0  0  0  0  0  0  0  0
   18.5070   31.1620   73.8640 H   0  0  0  0  0  0  0  0  0  0  0  0
   16.4750   29.3750   72.8420 H   0  0  0  0  0  0  0  0  0  0  0  0
   14.0340   28.9990   73.0840 H   0  0  0  0  0  0  0  0  0  0  0  0
   12.4810   30.7350   72.3230 H   0  0  0  0  0  0  0  0  0  0  0  0
   13.2830   32.8220   71.3340 H   0  0  0  0  0  0  0  0  0  0  0  0
   15.7260   33.1510   71.1140 H   0  0  0  0  0  0  0  0  0  0  0  0
   20.6600   32.4380   69.1290 H   0  0  0  0  0  0  0  0  0  0  0  0
   27.1910   33.8290   67.2090 H   0  0  0  0  0  0  0  0  0  0  0  0
   26.4150   35.0640   68.2230 H   0  0  0  0  0  0  0  0  0  0  0  0
  1 32  2  6  0  0  0
  1  3  1  0  0  0  0
  1 31  1  0  0  0  0
  2  1  1  0  0  0  0
  3  4  1  0  0  0  0
  4 33  1  1  0  0  0
  4  8  1  0  0  0  0
  5 34  1  6  0  0  0
  5  4  1  0  0  0  0
  5  6  1  0  0  0  0
  6  7  1  0  0  0  0
  7 35  1  6  0  0  0
  7 10  1  0  0  0  0
  8  7  1  0  0  0  0
  8 36  1  1  0  0  0
  9 37  1  0  0  0  0
  9  8  1  0  0  0  0
 10 11  1  0  0  0  0
 10 14  1  0  0  0  0
 11 12  2  0  0  0  0
 12 13  1  0  0  0  0
 12 16  1  0  0  0  0
 14 13  2  0  0  0  0
 15 14  1  0  0  0  0
 16 17  2  0  0  0  0
 18 16  1  0  0  0  0
 18 22  1  0  0  0  0
 19 18  1  0  0  0  0
 20 19  2  0  0  0  0
 20 21  1  0  0  0  0
 21 23  1  0  0  0  0
 21 22  2  0  0  0  0
 22 38  1  0  0  0  0
 23 24  1  0  0  0  0
 24 25  2  0  0  0  0
 24 39  1  0  0  0  0
 25 40  1  0  0  0  0
 26 41  1  0  0  0  0
 26 25  1  0  0  0  0
 27 26  2  0  0  0  0
 28 27  1  0  0  0  0
 28 23  2  0  0  0  0
 29 11  1  0  0  0  0
 29 19  1  0  0  0  0
 30  5  1  0  0  0  0
 30 46  1  0  0  0  0
 31 30  1  0  0  0  0
 42 27  1  0  0  0  0
 43 28  1  0  0  0  0
 44 29  1  0  0  0  0
 45 30  1  0  0  0  0
M  END
>  <Pose>
1

>  <Score>
-7.11

$$$$
