
 OpenBabel03212208413D

 33 36  0  0  1  0  0  0  0  0999 V2000
   21.6250   32.8850   70.3150 P   0  0  2  0  0  0  0  0  0  0  0  0
   22.0410   33.8240   68.9040 S   0  0  0  0  0  0  0  0  0  0  0  0
   20.0150   32.3310   70.1820 O   0  0  0  0  0  0  0  0  0  0  0  0
   19.2030   33.4230   70.3710 C   0  0  2  0  0  0  0  0  0  0  0  0
   19.4300   33.9620   71.7890 C   0  0  2  0  0  0  0  0  0  0  0  0
   18.3170   34.7930   71.9150 O   0  0  0  0  0  0  0  0  0  0  0  0
   17.2430   34.0440   71.4980 C   0  0  2  0  0  0  0  0  0  0  0  0
   17.7330   33.0610   70.4650 C   0  0  2  0  0  0  0  0  0  0  0  0
   17.6730   31.7880   71.0500 O   0  0  0  0  0  0  0  0  0  0  0  0
   16.2030   34.8430   70.8790 N   0  0  0  0  0  0  0  0  0  0  0  0
   14.8880   34.5080   70.8730 C   0  0  0  0  0  0  0  0  0  0  0  0
   14.2180   33.4430   71.3850 N   0  0  0  0  0  0  0  0  0  0  0  0
   12.8830   33.3290   71.2480 C   0  0  0  0  0  0  0  0  0  0  0  0
   12.1900   34.2890   70.5890 N   0  0  0  0  0  0  0  0  0  0  0  0
   12.8170   35.3590   70.0670 C   0  0  0  0  0  0  0  0  0  0  0  0
   14.1870   35.4880   70.2010 C   0  0  0  0  0  0  0  0  0  0  0  0
   15.0760   36.4150   69.8020 N   0  0  0  0  0  0  0  0  0  0  0  0
   16.2960   36.0100   70.2200 C   0  0  0  0  0  0  0  0  0  0  0  0
   17.9700   36.9120   69.9540 B   0  0  0  0  0  0  0  0  0  0  0  0
   12.0710   36.3650   69.3740 N   0  0  0  0  0  0  0  0  0  0  0  0
   20.7280   34.7010   71.8890 C   0  0  0  0  0  0  0  0  0  0  0  0
   21.7590   33.7970   71.7080 O   0  0  0  0  0  0  0  0  0  0  0  0
   22.6300   31.5530   70.3660 O   0  0  0  0  0  0  0  0  0  0  0  0
   19.3970   34.2450   69.6830 H   0  0  0  0  0  0  0  0  0  0  0  0
   19.3510   33.1090   72.4760 H   0  0  0  0  0  0  0  0  0  0  0  0
   16.7860   33.5460   72.3850 H   0  0  0  0  0  0  0  0  0  0  0  0
   17.2090   33.1250   69.5110 H   0  0  0  0  0  0  0  0  0  0  0  0
   17.0430   31.1910   70.6050 H   0  0  0  0  0  0  0  0  0  0  0  0
   12.3860   32.4530   71.6770 H   0  0  0  0  0  0  0  0  0  0  0  0
   11.1910   36.0750   68.8650 H   0  0  0  0  0  0  0  0  0  0  0  0
   12.3620   37.3620   69.3540 H   0  0  0  0  0  0  0  0  0  0  0  0
   20.8130   35.1250   72.8890 H   0  0  0  0  0  0  0  0  0  0  0  0
   20.7200   35.5160   71.1410 H   0  0  0  0  0  0  0  0  0  0  0  0
  1  2  1  6  0  0  0
  1 23  2  0  0  0  0
  1 22  1  0  0  0  0
  3  1  1  0  0  0  0
  3  4  1  0  0  0  0
  4 24  1  6  0  0  0
  4  8  1  0  0  0  0
  4  5  1  0  0  0  0
  5 21  1  0  0  0  0
  5  6  1  0  0  0  0
  5 25  1  1  0  0  0
  7  6  1  0  0  0  0
  7 26  1  1  0  0  0
  8 27  1  6  0  0  0
  8  9  1  0  0  0  0
  8  7  1  0  0  0  0
 10  7  1  0  0  0  0
 11 10  1  0  0  0  0
 11 12  1  0  0  0  0
 13 12  2  0  0  0  0
 13 29  1  0  0  0  0
 14 13  1  0  0  0  0
 15 16  1  0  0  0  0
 15 14  2  0  0  0  0
 16 11  2  0  0  0  0
 17 16  1  0  0  0  0
 17 18  2  0  0  0  0
 18 10  1  0  0  0  0
 19 18  1  0  0  0  0
 20 15  1  0  0  0  0
 21 32  1  0  0  0  0
 22 21  1  0  0  0  0
 28  9  1  0  0  0  0
 30 20  1  0  0  0  0
 31 20  1  0  0  0  0
 33 21  1  0  0  0  0
M  END
>  <Pose>
1

>  <Score>
-7.39

$$$$
