
 OpenBabel03212208413D

 52 55  0  0  1  0  0  0  0  0999 V2000
   16.1470   32.3910   72.3570 S   0  0  0  0  0  0  0  0  0  0  0  0
   16.0930   30.6230   72.0740 C   0  0  1  0  0  0  0  0  0  0  0  0
   17.3160   30.0550   72.5460 N   0  0  0  0  0  0  0  0  0  0  0  0
   18.5690   30.6910   72.8150 C   0  0  0  0  0  0  0  0  0  0  0  0
   18.7870   31.8920   72.3800 C   0  0  0  0  0  0  0  0  0  0  0  0
   17.7690   32.7090   71.5710 C   0  0  0  0  0  0  0  0  0  0  0  0
   19.9900   32.6590   72.5770 C   0  0  0  0  0  0  0  0  0  0  0  0
   20.0030   34.0070   72.7190 O   0  0  0  0  0  0  0  0  0  0  0  0
   20.1770   34.8930   71.6490 C   0  0  0  0  0  0  0  0  0  0  0  0
   19.2900   35.7480   71.4730 O   0  0  0  0  0  0  0  0  0  0  0  0
   21.3930   34.7440   70.8160 C   0  0  0  0  0  0  0  0  0  0  0  0
   19.5510   29.8850   73.5970 C   0  0  0  0  0  0  0  0  0  0  0  0
   19.9570   28.7750   73.3250 O   0  0  0  0  0  0  0  0  0  0  0  0
   20.0830   30.4350   74.7780 O   0  0  0  0  0  0  0  0  0  0  0  0
   16.5830   28.8420   72.5630 C   0  0  0  0  0  0  0  0  0  0  0  0
   16.6480   27.6250   72.3600 O   0  0  0  0  0  0  0  0  0  0  0  0
   15.4240   29.7140   73.0170 C   0  0  1  0  0  0  0  0  0  0  0  0
   15.5820   29.9430   74.4170 N   0  0  0  0  0  0  0  0  0  0  0  0
   14.6690   29.3520   75.3250 C   0  0  0  0  0  0  0  0  0  0  0  0
   15.1330   28.6870   76.2900 O   0  0  0  0  0  0  0  0  0  0  0  0
   13.2170   29.4910   75.1720 C   0  0  0  0  0  0  0  0  0  0  0  0
   12.2830   28.6070   75.3340 O   0  0  0  0  0  0  0  0  0  0  0  0
   11.1030   29.0880   75.1120 C   0  0  0  0  0  0  0  0  0  0  0  0
   11.2620   30.4340   74.7630 C   0  0  0  0  0  0  0  0  0  0  0  0
   12.6100   30.6710   74.8060 C   0  0  0  0  0  0  0  0  0  0  0  0
    9.7730   28.3810   75.1970 C   0  0  0  0  0  0  0  0  0  0  0  0
    9.2800   28.4020   76.5110 O   0  0  0  0  0  0  0  0  0  0  0  0
    8.8840   29.5090   77.2050 C   0  0  0  0  0  0  0  0  0  0  0  0
    9.7300   30.2990   77.9790 C   0  0  0  0  0  0  0  0  0  0  0  0
    9.2250   31.3980   78.6370 C   0  0  0  0  0  0  0  0  0  0  0  0
    7.9030   31.7740   78.5770 C   0  0  0  0  0  0  0  0  0  0  0  0
    7.0550   30.9940   77.8100 C   0  0  0  0  0  0  0  0  0  0  0  0
    7.5580   29.8850   77.1430 C   0  0  0  0  0  0  0  0  0  0  0  0
    7.2600   33.3080   79.5110 B   0  0  0  0  0  0  0  0  0  0  0  0
   15.8780   30.3240   71.0250 H   0  0  0  0  0  0  0  0  0  0  0  0
   17.9960   33.7680   71.5710 H   0  0  0  0  0  0  0  0  0  0  0  0
   17.7930   32.2770   70.5560 H   0  0  0  0  0  0  0  0  0  0  0  0
   20.5470   32.2330   73.5150 H   0  0  0  0  0  0  0  0  0  0  0  0
   20.7480   32.3800   71.7360 H   0  0  0  0  0  0  0  0  0  0  0  0
   21.7860   33.7100   70.8990 H   0  0  0  0  0  0  0  0  0  0  0  0
   22.2070   35.4390   71.1830 H   0  0  0  0  0  0  0  0  0  0  0  0
   21.2190   34.9840   69.7560 H   0  0  0  0  0  0  0  0  0  0  0  0
   14.4390   29.3060   72.7370 H   0  0  0  0  0  0  0  0  0  0  0  0
   16.3470   30.5350   74.8300 H   0  0  0  0  0  0  0  0  0  0  0  0
   10.4380   31.0980   74.5200 H   0  0  0  0  0  0  0  0  0  0  0  0
   13.0770   31.6220   74.5880 H   0  0  0  0  0  0  0  0  0  0  0  0
    9.8600   27.3510   74.7880 H   0  0  0  0  0  0  0  0  0  0  0  0
    9.0390   28.9100   74.5550 H   0  0  0  0  0  0  0  0  0  0  0  0
   10.7630   30.0310   78.0480 H   0  0  0  0  0  0  0  0  0  0  0  0
    9.9000   31.9900   79.2280 H   0  0  0  0  0  0  0  0  0  0  0  0
    6.0160   31.2840   77.7580 H   0  0  0  0  0  0  0  0  0  0  0  0
    6.8190   29.3270   76.5610 H   0  0  0  0  0  0  0  0  0  0  0  0
  2 35  1  6  0  0  0
  2  1  1  0  0  0  0
  2  3  1  0  0  0  0
  2 17  1  0  0  0  0
  3 15  1  0  0  0  0
  3  4  1  0  0  0  0
  4 12  1  0  0  0  0
  5  7  1  0  0  0  0
  5  4  2  0  0  0  0
  6  1  1  0  0  0  0
  6  5  1  0  0  0  0
  7  8  1  0  0  0  0
  7 38  1  0  0  0  0
  9  8  1  0  0  0  0
 10  9  2  0  0  0  0
 11 40  1  0  0  0  0
 11 41  1  0  0  0  0
 11  9  1  0  0  0  0
 12 14  1  0  0  0  0
 13 12  2  0  0  0  0
 15 17  1  0  0  0  0
 16 15  2  0  0  0  0
 17 43  1  6  0  0  0
 17 18  1  0  0  0  0
 18 44  1  0  0  0  0
 18 19  1  0  0  0  0
 19 20  2  0  0  0  0
 21 19  1  0  0  0  0
 21 22  1  0  0  0  0
 23 26  1  0  0  0  0
 23 22  1  0  0  0  0
 24 25  1  0  0  0  0
 24 23  2  0  0  0  0
 25 21  2  0  0  0  0
 26 27  1  0  0  0  0
 27 28  1  0  0  0  0
 28 29  1  0  0  0  0
 29 49  1  0  0  0  0
 29 30  2  0  0  0  0
 30 50  1  0  0  0  0
 31 30  1  0  0  0  0
 31 34  1  0  0  0  0
 32 31  2  0  0  0  0
 33 28  2  0  0  0  0
 33 32  1  0  0  0  0
 36  6  1  0  0  0  0
 37  6  1  0  0  0  0
 39  7  1  0  0  0  0
 42 11  1  0  0  0  0
 45 24  1  0  0  0  0
 46 25  1  0  0  0  0
 47 26  1  0  0  0  0
 48 26  1  0  0  0  0
 51 32  1  0  0  0  0
 52 33  1  0  0  0  0
M  END
>  <Pose>
1

>  <Score>
-6.63

$$$$
