
 OpenBabel03212208413D

 33 36  0  0  1  0  0  0  0  0999 V2000
   17.0580   29.6390   73.2940 P   0  0  2  0  0  0  0  0  0  0  0  0
   16.3610   28.6110   74.1880 O   0  0  0  0  0  0  0  0  0  0  0  0
   16.6430   31.1640   73.8610 O   0  0  0  0  0  0  0  0  0  0  0  0
   16.2640   32.0020   72.8440 C   0  0  2  0  0  0  0  0  0  0  0  0
   17.1080   31.6180   71.6210 C   0  0  2  0  0  0  0  0  0  0  0  0
   17.2250   32.7480   70.8680 O   0  0  0  0  0  0  0  0  0  0  0  0
   17.0840   33.8540   71.6590 C   0  0  2  0  0  0  0  0  0  0  0  0
   16.6890   33.4340   73.0320 C   0  0  2  0  0  0  0  0  0  0  0  0
   17.7120   33.5140   73.9570 O   0  0  0  0  0  0  0  0  0  0  0  0
   16.0990   34.7260   71.0320 N   0  0  0  0  0  0  0  0  0  0  0  0
   14.7630   34.5140   70.9940 C   0  0  0  0  0  0  0  0  0  0  0  0
   14.0150   33.5130   71.4900 N   0  0  0  0  0  0  0  0  0  0  0  0
   12.6840   33.5360   71.3150 C   0  0  0  0  0  0  0  0  0  0  0  0
   12.1140   34.5570   70.6500 N   0  0  0  0  0  0  0  0  0  0  0  0
   12.7950   35.5890   70.1300 C   0  0  0  0  0  0  0  0  0  0  0  0
   14.1760   35.5600   70.3130 C   0  0  0  0  0  0  0  0  0  0  0  0
   15.1400   36.3970   69.9400 N   0  0  0  0  0  0  0  0  0  0  0  0
   16.3020   35.8820   70.3800 C   0  0  0  0  0  0  0  0  0  0  0  0
   18.0600   36.6410   70.1500 B   0  0  0  0  0  0  0  0  0  0  0  0
   12.2050   36.6720   69.4260 N   0  0  0  0  0  0  0  0  0  0  0  0
   16.3920   30.4820   70.9640 C   0  0  0  0  0  0  0  0  0  0  0  0
   16.5670   29.3510   71.7250 O   0  0  0  0  0  0  0  0  0  0  0  0
   18.7340   29.3710   73.5010 O   0  0  0  0  0  0  0  0  0  0  0  0
   15.1990   31.9700   72.5960 H   0  0  0  0  0  0  0  0  0  0  0  0
   18.1220   31.2880   71.9350 H   0  0  0  0  0  0  0  0  0  0  0  0
   18.0730   34.3880   71.7500 H   0  0  0  0  0  0  0  0  0  0  0  0
   15.8490   34.0590   73.4020 H   0  0  0  0  0  0  0  0  0  0  0  0
   17.5190   33.0690   74.7980 H   0  0  0  0  0  0  0  0  0  0  0  0
   12.0500   32.7240   71.7130 H   0  0  0  0  0  0  0  0  0  0  0  0
   12.8400   37.2800   68.8290 H   0  0  0  0  0  0  0  0  0  0  0  0
   11.2080   36.9070   69.4520 H   0  0  0  0  0  0  0  0  0  0  0  0
   15.2890   30.7210   70.9930 H   0  0  0  0  0  0  0  0  0  0  0  0
   16.6330   30.3540   69.8980 H   0  0  0  0  0  0  0  0  0  0  0  0
  1 23  2  1  0  0  0
  1  3  1  0  0  0  0
  1  2  1  0  0  0  0
  4 24  1  6  0  0  0
  4  8  1  0  0  0  0
  4  3  1  0  0  0  0
  5 25  1  1  0  0  0
  5  4  1  0  0  0  0
  6  5  1  0  0  0  0
  6  7  1  0  0  0  0
  7 26  1  1  0  0  0
  7  8  1  0  0  0  0
  8 27  1  1  0  0  0
  8  9  1  0  0  0  0
  9 28  1  0  0  0  0
 10  7  1  0  0  0  0
 11 10  1  0  0  0  0
 11 12  1  0  0  0  0
 13 12  2  0  0  0  0
 13 29  1  0  0  0  0
 14 13  1  0  0  0  0
 15 16  1  0  0  0  0
 15 14  2  0  0  0  0
 16 11  2  0  0  0  0
 17 16  1  0  0  0  0
 17 18  2  0  0  0  0
 18 10  1  0  0  0  0
 19 18  1  0  0  0  0
 20 31  1  0  0  0  0
 20 15  1  0  0  0  0
 21 32  1  0  0  0  0
 21  5  1  0  0  0  0
 21 22  1  0  0  0  0
 22  1  1  0  0  0  0
 30 20  1  0  0  0  0
 33 21  1  0  0  0  0
M  END
>  <Pose>
1

>  <Score>
-6.91

$$$$
