
 OpenBabel03212208413D

 47 50  0  0  1  0  0  0  0  0999 V2000
   13.4240   34.5020   70.4820 S   0  0  0  0  0  0  0  0  0  0  0  0
   12.0600   34.4000   71.1320 O   0  0  0  0  0  0  0  0  0  0  0  0
   13.2410   34.4760   68.9850 O   0  0  0  0  0  0  0  0  0  0  0  0
   14.1210   35.9810   71.0000 N   0  0  0  0  0  0  0  0  0  0  0  0
   14.3960   33.1590   71.0070 C   0  0  0  0  0  0  0  0  0  0  0  0
   15.7390   33.1320   70.7060 C   0  0  0  0  0  0  0  0  0  0  0  0
   16.5600   32.0820   71.1030 C   0  0  0  0  0  0  0  0  0  0  0  0
   15.9840   31.0540   71.8170 C   0  0  0  0  0  0  0  0  0  0  0  0
   14.6240   31.0750   72.1260 C   0  0  0  0  0  0  0  0  0  0  0  0
   13.8270   32.1230   71.7250 C   0  0  0  0  0  0  0  0  0  0  0  0
   17.0370   29.5880   72.3930 B   0  0  0  0  0  0  0  0  0  0  0  0
   17.9720   32.0660   70.7760 C   0  0  0  0  0  0  0  0  0  0  0  0
   18.4260   31.1380   70.0620 O   0  0  0  0  0  0  0  0  0  0  0  0
   18.8440   33.0890   71.2540 N   0  0  0  0  0  0  0  0  0  0  0  0
   19.4670   34.0150   70.3320 C   0  0  0  0  0  0  0  0  0  0  0  0
   19.5090   35.4200   70.8470 C   0  0  2  0  0  0  0  0  0  0  0  0
   18.5230   35.4940   72.0150 C   0  0  0  0  0  0  0  0  0  0  0  0
   19.1340   34.6560   73.1160 C   0  0  0  0  0  0  0  0  0  0  0  0
   19.1240   33.2200   72.6600 C   0  0  0  0  0  0  0  0  0  0  0  0
   19.1750   36.4410   69.8030 C   0  0  0  0  0  0  0  0  0  0  0  0
   19.8640   36.6790   68.6560 N   0  0  0  0  0  0  0  0  0  0  0  0
   19.2810   37.6590   67.9610 C   0  0  0  0  0  0  0  0  0  0  0  0
   18.2000   38.0280   68.7120 N   0  0  0  0  0  0  0  0  0  0  0  0
   18.1430   37.2980   69.8090 N   0  0  0  0  0  0  0  0  0  0  0  0
   20.0020   37.9600   66.6900 C   0  0  0  0  0  0  0  0  0  0  0  0
   20.9120   36.7780   66.5650 C   0  0  0  0  0  0  0  0  0  0  0  0
   21.0410   36.1950   67.9570 C   0  0  0  0  0  0  0  0  0  0  0  0
   14.0920   36.0800   72.0440 H   0  0  0  0  0  0  0  0  0  0  0  0
   13.6300   36.7920   70.5480 H   0  0  0  0  0  0  0  0  0  0  0  0
   16.1460   33.9790   70.1330 H   0  0  0  0  0  0  0  0  0  0  0  0
   14.2250   30.2420   72.6890 H   0  0  0  0  0  0  0  0  0  0  0  0
   12.7760   32.1570   71.9540 H   0  0  0  0  0  0  0  0  0  0  0  0
   19.0550   33.9410   69.3080 H   0  0  0  0  0  0  0  0  0  0  0  0
   20.5390   33.6760   70.2380 H   0  0  0  0  0  0  0  0  0  0  0  0
   20.4860   35.7020   71.2900 H   0  0  0  0  0  0  0  0  0  0  0  0
   18.3720   36.5430   72.3200 H   0  0  0  0  0  0  0  0  0  0  0  0
   17.5590   35.0480   71.7180 H   0  0  0  0  0  0  0  0  0  0  0  0
   20.1790   35.0270   73.2880 H   0  0  0  0  0  0  0  0  0  0  0  0
   18.5470   34.8160   74.0420 H   0  0  0  0  0  0  0  0  0  0  0  0
   18.2820   32.7220   73.2190 H   0  0  0  0  0  0  0  0  0  0  0  0
   20.0740   32.7150   72.9550 H   0  0  0  0  0  0  0  0  0  0  0  0
   19.3050   37.9650   65.8160 H   0  0  0  0  0  0  0  0  0  0  0  0
   20.5410   38.9230   66.8020 H   0  0  0  0  0  0  0  0  0  0  0  0
   20.5210   35.9980   65.8560 H   0  0  0  0  0  0  0  0  0  0  0  0
   21.9000   37.1250   66.1790 H   0  0  0  0  0  0  0  0  0  0  0  0
   21.9790   36.6000   68.3870 H   0  0  0  0  0  0  0  0  0  0  0  0
   21.1190   35.1090   67.9320 H   0  0  0  0  0  0  0  0  0  0  0  0
  1  4  1  0  0  0  0
  1  5  1  0  0  0  0
  1  2  2  0  0  0  0
  3  1  2  0  0  0  0
  4 28  1  0  0  0  0
  5 10  1  0  0  0  0
  6  5  2  0  0  0  0
  6  7  1  0  0  0  0
  7  8  2  0  0  0  0
  8  9  1  0  0  0  0
  8 11  1  0  0  0  0
  9 31  1  0  0  0  0
 10 32  1  0  0  0  0
 10  9  2  0  0  0  0
 12  7  1  0  0  0  0
 12 14  1  0  0  0  0
 13 12  2  0  0  0  0
 14 19  1  0  0  0  0
 15 16  1  0  0  0  0
 15 14  1  0  0  0  0
 16 35  1  1  0  0  0
 16 17  1  0  0  0  0
 17 36  1  0  0  0  0
 17 18  1  0  0  0  0
 18 38  1  0  0  0  0
 18 39  1  0  0  0  0
 19 41  1  0  0  0  0
 19 18  1  0  0  0  0
 19 40  1  0  0  0  0
 20 24  2  0  0  0  0
 20 16  1  0  0  0  0
 21 20  1  0  0  0  0
 22 21  1  0  0  0  0
 22 23  2  0  0  0  0
 23 24  1  0  0  0  0
 25 43  1  0  0  0  0
 25 22  1  0  0  0  0
 26 25  1  0  0  0  0
 26 27  1  0  0  0  0
 27 46  1  0  0  0  0
 27 21  1  0  0  0  0
 29  4  1  0  0  0  0
 30  6  1  0  0  0  0
 33 15  1  0  0  0  0
 34 15  1  0  0  0  0
 37 17  1  0  0  0  0
 42 25  1  0  0  0  0
 44 26  1  0  0  0  0
 45 26  1  0  0  0  0
 47 27  1  0  0  0  0
M  END
>  <Pose>
1

>  <Score>
-6.60

$$$$
