
 OpenBabel03212208413D

 54 57  0  0  0  0  0  0  0  0999 V2000
   13.7020   33.2610   71.4990 S   0  0  0  0  0  0  0  0  0  0  0  0
   13.6110   33.5000   73.0070 O   0  0  0  0  0  0  0  0  0  0  0  0
   12.3030   33.5330   70.9970 O   0  0  0  0  0  0  0  0  0  0  0  0
   14.1070   31.6510   71.2670 N   0  0  0  0  0  0  0  0  0  0  0  0
   13.2830   30.6210   71.7110 C   0  0  0  0  0  0  0  0  0  0  0  0
   13.4900   30.1970   73.1140 C   0  0  0  0  0  0  0  0  0  0  0  0
   12.5580   29.6830   73.7780 O   0  0  0  0  0  0  0  0  0  0  0  0
   14.7920   30.4060   73.6500 N   0  0  0  0  0  0  0  0  0  0  0  0
   15.8170   30.7250   72.7240 C   0  0  0  0  0  0  0  0  0  0  0  0
   17.0070   30.4280   73.0260 O   0  0  0  0  0  0  0  0  0  0  0  0
   15.5290   31.3870   71.4340 C   0  0  0  0  0  0  0  0  0  0  0  0
   15.0270   30.2840   75.0730 C   0  0  0  0  0  0  0  0  0  0  0  0
   15.2600   28.8920   75.5500 C   0  0  0  0  0  0  0  0  0  0  0  0
   16.3770   28.1820   74.9310 C   0  0  0  0  0  0  0  0  0  0  0  0
   17.6290   28.1710   75.4810 C   0  0  0  0  0  0  0  0  0  0  0  0
   18.6310   27.4900   74.8490 C   0  0  0  0  0  0  0  0  0  0  0  0
   18.4180   26.8050   73.6570 C   0  0  0  0  0  0  0  0  0  0  0  0
   17.1580   26.8320   73.1270 C   0  0  0  0  0  0  0  0  0  0  0  0
   16.1270   27.5060   73.7360 C   0  0  0  0  0  0  0  0  0  0  0  0
   14.8120   34.4530   70.8830 C   0  0  0  0  0  0  0  0  0  0  0  0
   16.1710   34.3180   71.1950 C   0  0  0  0  0  0  0  0  0  0  0  0
   17.1370   35.2270   70.8240 C   0  0  0  0  0  0  0  0  0  0  0  0
   16.7850   36.3480   70.1040 C   0  0  0  0  0  0  0  0  0  0  0  0
   15.4570   36.4960   69.7880 C   0  0  0  0  0  0  0  0  0  0  0  0
   14.4760   35.5650   70.1670 C   0  0  0  0  0  0  0  0  0  0  0  0
   12.6700   35.8300   69.5790 B   0  0  0  0  0  0  0  0  0  0  0  0
   17.9800   37.1770   69.8130 C   0  0  0  0  0  0  0  0  0  0  0  0
   19.1140   36.1790   70.0540 C   0  0  0  0  0  0  0  0  0  0  0  0
   18.5490   35.2680   71.0440 N   0  0  0  0  0  0  0  0  0  0  0  0
   19.2940   34.5880   72.0230 C   0  0  0  0  0  0  0  0  0  0  0  0
   20.5220   34.9090   72.1880 O   0  0  0  0  0  0  0  0  0  0  0  0
   18.7860   33.5110   72.9060 C   0  0  0  0  0  0  0  0  0  0  0  0
   13.5190   29.6990   71.0510 H   0  0  0  0  0  0  0  0  0  0  0  0
   12.2300   30.7950   71.4880 H   0  0  0  0  0  0  0  0  0  0  0  0
   16.1580   32.2900   71.3610 H   0  0  0  0  0  0  0  0  0  0  0  0
   15.8280   30.7020   70.6200 H   0  0  0  0  0  0  0  0  0  0  0  0
   14.1780   30.7530   75.6350 H   0  0  0  0  0  0  0  0  0  0  0  0
   15.9310   30.8800   75.3610 H   0  0  0  0  0  0  0  0  0  0  0  0
   14.3310   28.3160   75.3310 H   0  0  0  0  0  0  0  0  0  0  0  0
   15.3340   28.9120   76.6620 H   0  0  0  0  0  0  0  0  0  0  0  0
   17.8210   28.6850   76.3910 H   0  0  0  0  0  0  0  0  0  0  0  0
   19.6470   27.4520   75.2490 H   0  0  0  0  0  0  0  0  0  0  0  0
   19.2240   26.2660   73.1610 H   0  0  0  0  0  0  0  0  0  0  0  0
   16.9450   26.3090   72.1950 H   0  0  0  0  0  0  0  0  0  0  0  0
   15.1530   27.4900   73.2680 H   0  0  0  0  0  0  0  0  0  0  0  0
   16.4350   33.4220   71.7610 H   0  0  0  0  0  0  0  0  0  0  0  0
   15.1170   37.3590   69.2210 H   0  0  0  0  0  0  0  0  0  0  0  0
   18.1000   38.0290   70.4920 H   0  0  0  0  0  0  0  0  0  0  0  0
   18.0030   37.5270   68.7570 H   0  0  0  0  0  0  0  0  0  0  0  0
   19.9910   36.6940   70.4700 H   0  0  0  0  0  0  0  0  0  0  0  0
   19.3100   35.6170   69.1330 H   0  0  0  0  0  0  0  0  0  0  0  0
   19.5080   33.3310   73.7550 H   0  0  0  0  0  0  0  0  0  0  0  0
   18.7270   32.5280   72.3970 H   0  0  0  0  0  0  0  0  0  0  0  0
   17.7820   33.7660   73.3170 H   0  0  0  0  0  0  0  0  0  0  0  0
  1  2  2  0  0  0  0
  3  1  2  0  0  0  0
  4 11  1  0  0  0  0
  4  1  1  0  0  0  0
  4  5  1  0  0  0  0
  5  6  1  0  0  0  0
  6  8  1  0  0  0  0
  6  7  2  0  0  0  0
  8 12  1  0  0  0  0
  9 10  2  0  0  0  0
  9  8  1  0  0  0  0
 11  9  1  0  0  0  0
 12 38  1  0  0  0  0
 12 13  1  0  0  0  0
 12 37  1  0  0  0  0
 13 40  1  0  0  0  0
 14 15  1  0  0  0  0
 14 13  1  0  0  0  0
 15 41  1  0  0  0  0
 16 42  1  0  0  0  0
 16 15  2  0  0  0  0
 17 16  1  0  0  0  0
 18 17  2  0  0  0  0
 18 19  1  0  0  0  0
 19 14  2  0  0  0  0
 20 21  1  0  0  0  0
 20  1  1  0  0  0  0
 21 46  1  0  0  0  0
 22 29  1  0  0  0  0
 22 21  2  0  0  0  0
 23 22  1  0  0  0  0
 24 23  2  0  0  0  0
 24 25  1  0  0  0  0
 25 20  2  0  0  0  0
 26 25  1  0  0  0  0
 27 28  1  0  0  0  0
 27 23  1  0  0  0  0
 27 48  1  0  0  0  0
 28 50  1  0  0  0  0
 28 29  1  0  0  0  0
 29 30  1  0  0  0  0
 30 31  2  0  0  0  0
 30 32  1  0  0  0  0
 32 54  1  0  0  0  0
 32 52  1  0  0  0  0
 33  5  1  0  0  0  0
 34  5  1  0  0  0  0
 35 11  1  0  0  0  0
 36 11  1  0  0  0  0
 39 13  1  0  0  0  0
 43 17  1  0  0  0  0
 44 18  1  0  0  0  0
 45 19  1  0  0  0  0
 47 24  1  0  0  0  0
 49 27  1  0  0  0  0
 51 28  1  0  0  0  0
 53 32  1  0  0  0  0
M  END
>  <Pose>
1

>  <Score>
-6.70

$$$$
