
 OpenBabel03212208413D

 50 53  0  0  0  0  0  0  0  0999 V2000
   14.0410   33.0000   71.7360 S   0  0  0  0  0  0  0  0  0  0  0  0
   14.2090   32.8200   70.2530 O   0  0  0  0  0  0  0  0  0  0  0  0
   12.6310   33.5270   71.9400 O   0  0  0  0  0  0  0  0  0  0  0  0
   15.1800   34.1240   72.2950 N   0  0  0  0  0  0  0  0  0  0  0  0
   16.3380   33.5870   72.9240 C   0  0  0  0  0  0  0  0  0  0  0  0
   17.6010   33.6020   72.1970 C   0  0  0  0  0  0  0  0  0  0  0  0
   17.7050   34.4340   71.0140 N   0  0  0  0  0  0  0  0  0  0  0  0
   16.5370   35.0040   70.4160 C   0  0  0  0  0  0  0  0  0  0  0  0
   15.4240   35.2240   71.4340 C   0  0  0  0  0  0  0  0  0  0  0  0
   18.9780   34.6780   70.4970 C   0  0  0  0  0  0  0  0  0  0  0  0
   19.5260   33.5370   70.0270 O   0  0  0  0  0  0  0  0  0  0  0  0
   19.7970   35.8480   70.3650 C   0  0  0  0  0  0  0  0  0  0  0  0
   20.4650   36.1750   69.1070 C   0  0  0  0  0  0  0  0  0  0  0  0
   21.6330   35.5560   68.7350 C   0  0  0  0  0  0  0  0  0  0  0  0
   22.2570   35.8730   67.5280 C   0  0  0  0  0  0  0  0  0  0  0  0
   21.6980   36.8080   66.7090 C   0  0  0  0  0  0  0  0  0  0  0  0
   20.5090   37.4390   67.0810 C   0  0  0  0  0  0  0  0  0  0  0  0
   19.9040   37.1290   68.2570 C   0  0  0  0  0  0  0  0  0  0  0  0
   22.4410   34.2430   69.8740 B   0  0  0  0  0  0  0  0  0  0  0  0
   14.1960   31.4040   72.4410 C   0  0  0  0  0  0  0  0  0  0  0  0
   15.2710   30.5890   72.0900 C   0  0  0  0  0  0  0  0  0  0  0  0
   15.4410   29.3200   72.6000 C   0  0  0  0  0  0  0  0  0  0  0  0
   14.5370   28.7930   73.4950 C   0  0  0  0  0  0  0  0  0  0  0  0
   13.4720   29.5930   73.8460 C   0  0  0  0  0  0  0  0  0  0  0  0
   13.2940   30.8740   73.3360 C   0  0  0  0  0  0  0  0  0  0  0  0
   14.7010   27.4950   74.0190 O   0  0  0  0  0  0  0  0  0  0  0  0
   16.0180   26.9210   74.0870 C   0  0  0  0  0  0  0  0  0  0  0  0
   16.6470   27.1920   72.7690 C   0  0  0  0  0  0  0  0  0  0  0  0
   17.2620   26.3110   72.1250 O   0  0  0  0  0  0  0  0  0  0  0  0
   16.5510   28.4910   72.2140 N   0  0  0  0  0  0  0  0  0  0  0  0
   16.0920   32.5140   73.1840 H   0  0  0  0  0  0  0  0  0  0  0  0
   16.4200   34.0930   73.9330 H   0  0  0  0  0  0  0  0  0  0  0  0
   18.4380   33.9220   72.8870 H   0  0  0  0  0  0  0  0  0  0  0  0
   17.9210   32.5630   71.8620 H   0  0  0  0  0  0  0  0  0  0  0  0
   16.2050   34.3420   69.6050 H   0  0  0  0  0  0  0  0  0  0  0  0
   16.6880   35.9980   69.9540 H   0  0  0  0  0  0  0  0  0  0  0  0
   14.5180   35.4840   70.8750 H   0  0  0  0  0  0  0  0  0  0  0  0
   15.7780   36.0720   72.0830 H   0  0  0  0  0  0  0  0  0  0  0  0
   19.1720   36.7700   70.6750 H   0  0  0  0  0  0  0  0  0  0  0  0
   20.5900   35.8210   71.1760 H   0  0  0  0  0  0  0  0  0  0  0  0
   23.1740   35.3510   67.2980 H   0  0  0  0  0  0  0  0  0  0  0  0
   22.1800   37.0460   65.7840 H   0  0  0  0  0  0  0  0  0  0  0  0
   20.0990   38.1840   66.3850 H   0  0  0  0  0  0  0  0  0  0  0  0
   18.9790   37.5990   68.5810 H   0  0  0  0  0  0  0  0  0  0  0  0
   15.9900   30.9930   71.3850 H   0  0  0  0  0  0  0  0  0  0  0  0
   12.7470   29.1780   74.5620 H   0  0  0  0  0  0  0  0  0  0  0  0
   12.4410   31.4810   73.6370 H   0  0  0  0  0  0  0  0  0  0  0  0
   16.6390   27.5050   74.8340 H   0  0  0  0  0  0  0  0  0  0  0  0
   15.8910   25.8780   74.3360 H   0  0  0  0  0  0  0  0  0  0  0  0
   17.2230   28.8940   71.5450 H   0  0  0  0  0  0  0  0  0  0  0  0
  1  3  2  0  0  0  0
  1  4  1  0  0  0  0
  1 20  1  0  0  0  0
  2  1  2  0  0  0  0
  4  5  1  0  0  0  0
  5 31  1  0  0  0  0
  5 32  1  0  0  0  0
  6 33  1  0  0  0  0
  6  5  1  0  0  0  0
  7  6  1  0  0  0  0
  8  7  1  0  0  0  0
  8  9  1  0  0  0  0
  9 38  1  0  0  0  0
  9  4  1  0  0  0  0
 10  7  1  0  0  0  0
 11 10  2  0  0  0  0
 12 10  1  0  0  0  0
 12 39  1  0  0  0  0
 12 40  1  0  0  0  0
 13 12  1  0  0  0  0
 14 13  1  0  0  0  0
 14 19  1  0  0  0  0
 15 14  2  0  0  0  0
 16 17  2  0  0  0  0
 16 15  1  0  0  0  0
 17 18  1  0  0  0  0
 18 44  1  0  0  0  0
 18 13  2  0  0  0  0
 20 25  1  0  0  0  0
 21 20  2  0  0  0  0
 21 22  1  0  0  0  0
 22 23  2  0  0  0  0
 23 24  1  0  0  0  0
 23 26  1  0  0  0  0
 24 46  1  0  0  0  0
 25 47  1  0  0  0  0
 25 24  2  0  0  0  0
 26 27  1  0  0  0  0
 27 49  1  0  0  0  0
 27 48  1  0  0  0  0
 28 27  1  0  0  0  0
 29 28  2  0  0  0  0
 30 22  1  0  0  0  0
 30 28  1  0  0  0  0
 34  6  1  0  0  0  0
 35  8  1  0  0  0  0
 36  8  1  0  0  0  0
 37  9  1  0  0  0  0
 41 15  1  0  0  0  0
 42 16  1  0  0  0  0
 43 17  1  0  0  0  0
 45 21  1  0  0  0  0
 50 30  1  0  0  0  0
M  END
>  <Pose>
1

>  <Score>
-6.32

$$$$
