
 OpenBabel03212208413D

 47 50  0  0  0  0  0  0  0  0999 V2000
   13.3290   33.9150   70.4760 S   0  0  0  0  0  0  0  0  0  0  0  0
   11.8900   34.0870   70.7690 O   0  0  0  0  0  0  0  0  0  0  0  0
   13.4550   33.7280   68.9690 O   0  0  0  0  0  0  0  0  0  0  0  0
   14.2960   35.2320   70.9100 N   0  0  0  0  0  0  0  0  0  0  0  0
   13.9900   36.4740   70.3510 C   0  0  0  0  0  0  0  0  0  0  0  0
   15.0990   37.4600   70.2510 C   0  0  0  0  0  0  0  0  0  0  0  0
   16.4050   36.8860   70.1740 N   0  0  0  0  0  0  0  0  0  0  0  0
   16.5410   35.4460   70.1870 C   0  0  0  0  0  0  0  0  0  0  0  0
   15.6180   34.9560   71.3010 C   0  0  0  0  0  0  0  0  0  0  0  0
   17.5770   37.6750   70.0840 C   0  0  0  0  0  0  0  0  0  0  0  0
   17.7010   38.7380   70.7730 O   0  0  0  0  0  0  0  0  0  0  0  0
   18.7010   37.3390   69.2190 C   0  0  0  0  0  0  0  0  0  0  0  0
   18.8190   37.8340   67.9340 C   0  0  0  0  0  0  0  0  0  0  0  0
   19.8750   37.5250   67.1080 C   0  0  0  0  0  0  0  0  0  0  0  0
   20.8560   36.6780   67.5990 C   0  0  0  0  0  0  0  0  0  0  0  0
   20.7920   36.1560   68.8690 C   0  0  0  0  0  0  0  0  0  0  0  0
   19.7140   36.4960   69.6560 C   0  0  0  0  0  0  0  0  0  0  0  0
   17.4290   38.9950   67.3260 B   0  0  0  0  0  0  0  0  0  0  0  0
   13.9600   32.4340   71.1880 C   0  0  0  0  0  0  0  0  0  0  0  0
   13.2850   31.7740   72.1940 C   0  0  0  0  0  0  0  0  0  0  0  0
   13.7530   30.6120   72.7720 C   0  0  0  0  0  0  0  0  0  0  0  0
   14.9450   30.0560   72.3530 C   0  0  0  0  0  0  0  0  0  0  0  0
   15.6260   30.7170   71.3420 C   0  0  0  0  0  0  0  0  0  0  0  0
   15.1520   31.8790   70.7690 C   0  0  0  0  0  0  0  0  0  0  0  0
   15.4440   28.8840   72.9170 O   0  0  0  0  0  0  0  0  0  0  0  0
   14.9440   28.2990   74.1040 C   0  0  0  0  0  0  0  0  0  0  0  0
   13.5550   28.7310   74.3980 C   0  0  0  0  0  0  0  0  0  0  0  0
   12.8760   28.0030   75.1660 O   0  0  0  0  0  0  0  0  0  0  0  0
   13.0620   29.9290   73.8090 N   0  0  0  0  0  0  0  0  0  0  0  0
   13.1570   36.9460   70.9480 H   0  0  0  0  0  0  0  0  0  0  0  0
   13.5390   36.3080   69.3290 H   0  0  0  0  0  0  0  0  0  0  0  0
   15.0120   38.2200   71.0670 H   0  0  0  0  0  0  0  0  0  0  0  0
   14.9550   38.0610   69.3050 H   0  0  0  0  0  0  0  0  0  0  0  0
   17.5870   35.1280   70.3660 H   0  0  0  0  0  0  0  0  0  0  0  0
   16.1930   35.0170   69.2400 H   0  0  0  0  0  0  0  0  0  0  0  0
   15.8160   33.8850   71.4150 H   0  0  0  0  0  0  0  0  0  0  0  0
   15.8650   35.5410   72.2240 H   0  0  0  0  0  0  0  0  0  0  0  0
   19.9560   37.9250   66.0880 H   0  0  0  0  0  0  0  0  0  0  0  0
   21.6900   36.4400   66.9330 H   0  0  0  0  0  0  0  0  0  0  0  0
   21.5820   35.4900   69.2280 H   0  0  0  0  0  0  0  0  0  0  0  0
   19.6560   36.0900   70.6540 H   0  0  0  0  0  0  0  0  0  0  0  0
   12.3530   32.1970   72.5320 H   0  0  0  0  0  0  0  0  0  0  0  0
   16.5640   30.2830   71.0100 H   0  0  0  0  0  0  0  0  0  0  0  0
   15.6820   32.3900   69.9850 H   0  0  0  0  0  0  0  0  0  0  0  0
   15.5790   28.5910   74.9850 H   0  0  0  0  0  0  0  0  0  0  0  0
   15.0320   27.1980   74.0160 H   0  0  0  0  0  0  0  0  0  0  0  0
   12.1600   30.3350   74.1370 H   0  0  0  0  0  0  0  0  0  0  0  0
  1  2  2  0  0  0  0
  1  4  1  0  0  0  0
  1 19  1  0  0  0  0
  3  1  2  0  0  0  0
  4  9  1  0  0  0  0
  5  4  1  0  0  0  0
  5 30  1  0  0  0  0
  6  5  1  0  0  0  0
  6 32  1  0  0  0  0
  7  8  1  0  0  0  0
  7  6  1  0  0  0  0
  8 34  1  0  0  0  0
  8  9  1  0  0  0  0
  9 36  1  0  0  0  0
  9 37  1  0  0  0  0
 10  7  1  0  0  0  0
 10 11  2  0  0  0  0
 12 17  1  0  0  0  0
 12 10  1  0  0  0  0
 13 12  2  0  0  0  0
 14 15  2  0  0  0  0
 14 13  1  0  0  0  0
 15 16  1  0  0  0  0
 16 40  1  0  0  0  0
 16 17  2  0  0  0  0
 17 41  1  0  0  0  0
 18 13  1  0  0  0  0
 19 20  1  0  0  0  0
 20 42  1  0  0  0  0
 20 21  2  0  0  0  0
 21 29  1  0  0  0  0
 22 21  1  0  0  0  0
 22 25  1  0  0  0  0
 23 22  2  0  0  0  0
 24 19  2  0  0  0  0
 24 23  1  0  0  0  0
 25 26  1  0  0  0  0
 26 27  1  0  0  0  0
 26 45  1  0  0  0  0
 27 28  2  0  0  0  0
 29 47  1  0  0  0  0
 29 27  1  0  0  0  0
 31  5  1  0  0  0  0
 33  6  1  0  0  0  0
 35  8  1  0  0  0  0
 38 14  1  0  0  0  0
 39 15  1  0  0  0  0
 43 23  1  0  0  0  0
 44 24  1  0  0  0  0
 46 26  1  0  0  0  0
M  END
>  <Pose>
1

>  <Score>
-7.42

$$$$
