
 OpenBabel03212208413D

 54 58  0  0  1  0  0  0  0  0999 V2000
   13.0410   34.8390   69.7990 S   0  0  0  0  0  0  0  0  0  0  0  0
   11.6660   34.9300   70.4500 O   0  0  0  0  0  0  0  0  0  0  0  0
   12.7460   34.2780   68.4060 O   0  0  0  0  0  0  0  0  0  0  0  0
   13.6250   36.4010   69.6040 N   0  0  0  0  0  0  0  0  0  0  0  0
   14.2790   36.9930   70.7410 C   0  0  0  0  0  0  0  0  0  0  0  0
   15.5750   37.6670   70.3500 C   0  0  0  0  0  0  0  0  0  0  0  0
   16.4490   36.7070   69.6300 N   0  0  0  0  0  0  0  0  0  0  0  0
   15.7760   36.3500   68.3890 C   0  0  0  0  0  0  0  0  0  0  0  0
   14.3020   36.7140   68.3830 C   0  0  0  0  0  0  0  0  0  0  0  0
   17.6350   37.4800   69.3320 C   0  0  0  0  0  0  0  0  0  0  0  0
   18.9030   37.0570   69.9430 C   0  0  0  0  0  0  0  0  0  0  0  0
   20.0720   36.9380   69.1390 N   0  0  0  0  0  0  0  0  0  0  0  0
   20.4640   37.6330   67.9610 C   0  0  0  0  0  0  0  0  0  0  0  0
   19.6900   38.1690   67.1540 O   0  0  0  0  0  0  0  0  0  0  0  0
   21.9430   37.6080   67.8610 C   0  0  1  0  0  0  0  0  0  0  0  0
   22.2470   36.2710   68.5750 C   0  0  2  0  0  0  0  0  0  0  0  0
   22.4390   35.2770   67.4920 C   0  0  1  0  0  0  0  0  0  0  0  0
   21.6600   35.9110   66.3280 C   0  0  0  0  0  0  0  0  0  0  0  0
   22.3600   37.2730   66.4740 C   0  0  2  0  0  0  0  0  0  0  0  0
   23.7820   36.7990   66.5530 C   0  0  0  0  0  0  0  0  0  0  0  0
   23.8250   35.5210   66.9320 C   0  0  0  0  0  0  0  0  0  0  0  0
   21.1390   36.0290   69.4880 C   0  0  0  0  0  0  0  0  0  0  0  0
   21.1450   35.1730   70.4070 O   0  0  0  0  0  0  0  0  0  0  0  0
   14.0550   33.7080   70.5990 C   0  0  0  0  0  0  0  0  0  0  0  0
   13.5380   32.5500   71.1290 C   0  0  0  0  0  0  0  0  0  0  0  0
   14.3880   31.6580   71.7580 C   0  0  0  0  0  0  0  0  0  0  0  0
   15.7470   31.8840   71.8780 C   0  0  0  0  0  0  0  0  0  0  0  0
   16.2610   33.0470   71.3450 C   0  0  0  0  0  0  0  0  0  0  0  0
   15.4070   33.9440   70.7120 C   0  0  0  0  0  0  0  0  0  0  0  0
   16.9190   30.6560   72.7470 B   0  0  0  0  0  0  0  0  0  0  0  0
   13.6130   37.8030   71.1200 H   0  0  0  0  0  0  0  0  0  0  0  0
   14.4140   36.2680   71.5420 H   0  0  0  0  0  0  0  0  0  0  0  0
   16.1200   37.9430   71.2700 H   0  0  0  0  0  0  0  0  0  0  0  0
   15.4380   38.5770   69.7380 H   0  0  0  0  0  0  0  0  0  0  0  0
   15.7930   35.2520   68.2890 H   0  0  0  0  0  0  0  0  0  0  0  0
   16.3180   36.8420   67.5620 H   0  0  0  0  0  0  0  0  0  0  0  0
   13.7730   36.2760   67.5390 H   0  0  0  0  0  0  0  0  0  0  0  0
   14.2510   37.8200   68.2630 H   0  0  0  0  0  0  0  0  0  0  0  0
   17.4630   38.5520   69.6700 H   0  0  0  0  0  0  0  0  0  0  0  0
   17.7090   37.6110   68.2060 H   0  0  0  0  0  0  0  0  0  0  0  0
   19.1360   37.8270   70.7510 H   0  0  0  0  0  0  0  0  0  0  0  0
   18.6990   36.1170   70.5290 H   0  0  0  0  0  0  0  0  0  0  0  0
   22.4360   38.4550   68.3290 H   0  0  0  0  0  0  0  0  0  0  0  0
   23.2310   36.3680   69.1170 H   0  0  0  0  0  0  0  0  0  0  0  0
   22.1950   34.2580   67.6780 H   0  0  0  0  0  0  0  0  0  0  0  0
   21.8980   35.4470   65.3640 H   0  0  0  0  0  0  0  0  0  0  0  0
   20.6010   36.0370   66.5340 H   0  0  0  0  0  0  0  0  0  0  0  0
   22.1550   37.9670   65.6940 H   0  0  0  0  0  0  0  0  0  0  0  0
   24.6800   37.3690   66.3430 H   0  0  0  0  0  0  0  0  0  0  0  0
   24.6450   34.8320   66.8570 H   0  0  0  0  0  0  0  0  0  0  0  0
   12.4640   32.3150   71.0630 H   0  0  0  0  0  0  0  0  0  0  0  0
   13.9760   30.7410   72.1770 H   0  0  0  0  0  0  0  0  0  0  0  0
   17.3220   33.2120   71.4460 H   0  0  0  0  0  0  0  0  0  0  0  0
   15.8930   34.8260   70.3210 H   0  0  0  0  0  0  0  0  0  0  0  0
  1  2  2  0  0  0  0
  1 24  1  0  0  0  0
  3  1  2  0  0  0  0
  4  1  1  0  0  0  0
  4  5  1  0  0  0  0
  5 31  1  0  0  0  0
  5 32  1  0  0  0  0
  6  5  1  0  0  0  0
  6 33  1  0  0  0  0
  7  6  1  0  0  0  0
  8  7  1  0  0  0  0
  9  8  1  0  0  0  0
  9  4  1  0  0  0  0
 10  7  1  0  0  0  0
 10 39  1  0  0  0  0
 10 11  1  0  0  0  0
 11 42  1  0  0  0  0
 11 41  1  0  0  0  0
 12 22  1  0  0  0  0
 12 11  1  0  0  0  0
 13 12  1  0  0  0  0
 14 13  2  0  0  0  0
 15 13  1  0  0  0  0
 15 43  1  1  0  0  0
 15 16  1  0  0  0  0
 16 44  1  1  0  0  0
 16 22  1  0  0  0  0
 17 45  1  1  0  0  0
 17 16  1  0  0  0  0
 18 19  1  0  0  0  0
 18 47  1  0  0  0  0
 18 17  1  0  0  0  0
 19 48  1  6  0  0  0
 19 20  1  0  0  0  0
 19 15  1  0  0  0  0
 20 21  1  0  0  0  0
 21 17  1  0  0  0  0
 22 23  2  0  0  0  0
 24 29  2  0  0  0  0
 24 25  1  0  0  0  0
 25 26  2  0  0  0  0
 26 27  1  0  0  0  0
 26 52  1  0  0  0  0
 27 30  1  0  0  0  0
 28 53  1  0  0  0  0
 28 27  2  0  0  0  0
 29 28  1  0  0  0  0
 34  6  1  0  0  0  0
 35  8  1  0  0  0  0
 36  8  1  0  0  0  0
 37  9  1  0  0  0  0
 38  9  1  0  0  0  0
 40 10  1  0  0  0  0
 46 18  1  0  0  0  0
 49 20  1  0  0  0  0
 50 21  1  0  0  0  0
 51 25  1  0  0  0  0
 54 29  1  0  0  0  0
M  END
>  <Pose>
1

>  <Score>
-6.89

$$$$
