
 OpenBabel03212208413D

 37 40  0  0  0  0  0  0  0  0999 V2000
   18.1830   31.5220   71.4470 S   0  0  0  0  0  0  0  0  0  0  0  0
   19.1090   30.4810   72.0650 O   0  0  0  0  0  0  0  0  0  0  0  0
   18.2730   31.3400   69.9750 O   0  0  0  0  0  0  0  0  0  0  0  0
   18.6630   33.0360   71.9650 N   0  0  0  0  0  0  0  0  0  0  0  0
   18.0190   33.6240   73.0760 C   0  0  0  0  0  0  0  0  0  0  0  0
   16.9640   34.6540   72.7600 C   0  0  0  0  0  0  0  0  0  0  0  0
   16.8510   34.9280   71.3620 N   0  0  0  0  0  0  0  0  0  0  0  0
   17.9580   34.7940   70.4310 C   0  0  0  0  0  0  0  0  0  0  0  0
   19.0820   33.9860   71.0100 C   0  0  0  0  0  0  0  0  0  0  0  0
   15.6080   35.3520   70.8200 C   0  0  0  0  0  0  0  0  0  0  0  0
   15.5280   36.5570   70.1810 N   0  0  0  0  0  0  0  0  0  0  0  0
   14.3740   36.9700   69.6570 C   0  0  0  0  0  0  0  0  0  0  0  0
   13.2610   36.2420   69.7310 N   0  0  0  0  0  0  0  0  0  0  0  0
   13.3170   35.0640   70.3500 C   0  0  0  0  0  0  0  0  0  0  0  0
   12.3810   34.1390   70.5760 N   0  0  0  0  0  0  0  0  0  0  0  0
   12.9500   33.1090   71.2630 C   0  0  0  0  0  0  0  0  0  0  0  0
   14.2400   33.3720   71.4730 N   0  0  0  0  0  0  0  0  0  0  0  0
   14.4900   34.5680   70.9220 C   0  0  0  0  0  0  0  0  0  0  0  0
   16.5580   31.0460   71.9480 C   0  0  0  0  0  0  0  0  0  0  0  0
   15.8620   31.0500   73.5040 S   0  0  0  0  0  0  0  0  0  0  0  0
   14.3110   30.4630   73.1200 C   0  0  0  0  0  0  0  0  0  0  0  0
   14.3800   30.2770   71.7600 C   0  0  0  0  0  0  0  0  0  0  0  0
   15.5400   30.5790   71.1640 C   0  0  0  0  0  0  0  0  0  0  0  0
   12.8240   30.1360   74.2730 B   0  0  0  0  0  0  0  0  0  0  0  0
   17.6150   32.8900   73.8140 H   0  0  0  0  0  0  0  0  0  0  0  0
   18.8270   34.1570   73.6620 H   0  0  0  0  0  0  0  0  0  0  0  0
   17.1260   35.5430   73.4020 H   0  0  0  0  0  0  0  0  0  0  0  0
   15.9740   34.2510   73.1190 H   0  0  0  0  0  0  0  0  0  0  0  0
   17.6170   34.3040   69.5000 H   0  0  0  0  0  0  0  0  0  0  0  0
   18.3030   35.8150   70.1630 H   0  0  0  0  0  0  0  0  0  0  0  0
   19.6550   33.4750   70.2120 H   0  0  0  0  0  0  0  0  0  0  0  0
   19.7810   34.7080   71.5190 H   0  0  0  0  0  0  0  0  0  0  0  0
   14.3030   37.9270   69.1470 H   0  0  0  0  0  0  0  0  0  0  0  0
   12.4020   32.2330   71.5670 H   0  0  0  0  0  0  0  0  0  0  0  0
   14.9020   32.7510   71.9750 H   0  0  0  0  0  0  0  0  0  0  0  0
   13.4840   29.8890   71.2170 H   0  0  0  0  0  0  0  0  0  0  0  0
   15.6880   30.4610   70.0690 H   0  0  0  0  0  0  0  0  0  0  0  0
  1 19  1  0  0  0  0
  1  4  1  0  0  0  0
  1  2  2  0  0  0  0
  3  1  2  0  0  0  0
  4  5  1  0  0  0  0
  5 26  1  0  0  0  0
  5 25  1  0  0  0  0
  6  5  1  0  0  0  0
  6 28  1  0  0  0  0
  6 27  1  0  0  0  0
  7  6  1  0  0  0  0
  8  9  1  0  0  0  0
  8  7  1  0  0  0  0
  9 32  1  0  0  0  0
  9  4  1  0  0  0  0
 10 18  2  0  0  0  0
 10  7  1  0  0  0  0
 11 10  1  0  0  0  0
 12 13  1  0  0  0  0
 12 11  2  0  0  0  0
 13 14  2  0  0  0  0
 14 15  1  0  0  0  0
 14 18  1  0  0  0  0
 15 16  2  0  0  0  0
 16 17  1  0  0  0  0
 16 34  1  0  0  0  0
 17 35  1  0  0  0  0
 18 17  1  0  0  0  0
 19 20  1  0  0  0  0
 21 20  1  0  0  0  0
 21 24  1  0  0  0  0
 22 21  2  0  0  0  0
 23 22  1  0  0  0  0
 23 19  2  0  0  0  0
 29  8  1  0  0  0  0
 30  8  1  0  0  0  0
 31  9  1  0  0  0  0
 33 12  1  0  0  0  0
 36 22  1  0  0  0  0
 37 23  1  0  0  0  0
M  END
>  <Pose>
1

>  <Score>
-7.51

$$$$
