
 OpenBabel03212208413D

 40 43  0  0  1  0  0  0  0  0999 V2000
   19.9630   34.9970   71.4850 S   0  0  0  0  0  0  0  0  0  0  0  0
   20.4900   35.6510   72.7360 O   0  0  0  0  0  0  0  0  0  0  0  0
   19.4010   36.1220   70.6280 O   0  0  0  0  0  0  0  0  0  0  0  0
   18.7020   33.9020   71.7940 N   0  0  0  0  0  0  0  0  0  0  0  0
   18.1080   33.4740   70.5720 C   0  0  0  0  0  0  0  0  0  0  0  0
   17.5460   32.0700   70.6490 C   0  0  0  0  0  0  0  0  0  0  0  0
   17.0380   31.8850   71.9840 N   0  0  0  0  0  0  0  0  0  0  0  0
   18.0230   31.8770   73.0360 C   0  0  0  0  0  0  0  0  0  0  0  0
   19.0690   32.8840   72.7210 C   0  0  0  0  0  0  0  0  0  0  0  0
   15.6650   31.7190   72.2790 C   0  0  1  0  0  0  0  0  0  0  0  0
   15.2300   30.8130   73.1540 C   0  0  0  0  0  0  0  0  0  0  0  0
   13.8300   30.6130   73.4840 C   0  0  0  0  0  0  0  0  0  0  0  0
   13.4560   29.6960   74.3610 C   0  0  0  0  0  0  0  0  0  0  0  0
   12.8630   31.4200   72.8460 N   0  0  0  0  0  0  0  0  0  0  0  0
   13.3670   32.3850   71.9110 C   0  0  0  0  0  0  0  0  0  0  0  0
   14.6740   32.5310   71.6410 N   0  0  0  0  0  0  0  0  0  0  0  0
   14.8270   33.5020   70.7370 N   0  0  0  0  0  0  0  0  0  0  0  0
   13.6190   33.9960   70.4120 C   0  0  0  0  0  0  0  0  0  0  0  0
   12.7290   33.3000   71.1400 N   0  0  0  0  0  0  0  0  0  0  0  0
   21.2730   34.2760   70.5510 C   0  0  0  0  0  0  0  0  0  0  0  0
   21.7200   34.6700   68.9600 S   0  0  0  0  0  0  0  0  0  0  0  0
   23.0180   33.5890   68.7600 C   0  0  0  0  0  0  0  0  0  0  0  0
   23.0710   32.9360   69.9620 C   0  0  0  0  0  0  0  0  0  0  0  0
   22.1580   33.2970   70.8960 C   0  0  0  0  0  0  0  0  0  0  0  0
   24.1650   33.3160   67.2310 B   0  0  0  0  0  0  0  0  0  0  0  0
   18.7380   33.6390   69.6740 H   0  0  0  0  0  0  0  0  0  0  0  0
   17.2080   34.1380   70.4030 H   0  0  0  0  0  0  0  0  0  0  0  0
   16.8080   31.8650   69.8650 H   0  0  0  0  0  0  0  0  0  0  0  0
   18.3980   31.3700   70.5260 H   0  0  0  0  0  0  0  0  0  0  0  0
   17.5780   31.9860   74.0440 H   0  0  0  0  0  0  0  0  0  0  0  0
   18.4910   30.8480   73.0620 H   0  0  0  0  0  0  0  0  0  0  0  0
   19.2930   33.4170   73.6940 H   0  0  0  0  0  0  0  0  0  0  0  0
   20.0170   32.3710   72.4780 H   0  0  0  0  0  0  0  0  0  0  0  0
   15.9750   30.2000   73.6360 H   0  0  0  0  0  0  0  0  0  0  0  0
   14.2040   29.0730   74.8520 H   0  0  0  0  0  0  0  0  0  0  0  0
   12.4230   29.5280   74.6220 H   0  0  0  0  0  0  0  0  0  0  0  0
   11.8490   31.3570   73.0100 H   0  0  0  0  0  0  0  0  0  0  0  0
   13.3950   34.7980   69.7020 H   0  0  0  0  0  0  0  0  0  0  0  0
   23.8530   32.1470   70.1170 H   0  0  0  0  0  0  0  0  0  0  0  0
   22.1570   32.7940   71.8960 H   0  0  0  0  0  0  0  0  0  0  0  0
  1  4  1  0  0  0  0
  1  2  2  0  0  0  0
  3  1  2  0  0  0  0
  4  9  1  0  0  0  0
  5  6  1  0  0  0  0
  5  4  1  0  0  0  0
  6  7  1  0  0  0  0
  7  8  1  0  0  0  0
  8 31  1  0  0  0  0
  8 30  1  0  0  0  0
  9  8  1  0  0  0  0
  9 32  1  0  0  0  0
 10  7  1  1  0  0  0
 10 11  1  0  0  0  0
 11 12  2  0  0  0  0
 11 34  1  0  0  0  0
 12 13  1  0  0  0  0
 13 36  1  0  0  0  0
 13 35  1  0  0  0  0
 14 37  1  0  0  0  0
 14 12  1  0  0  0  0
 15 14  1  0  0  0  0
 16 15  1  0  0  0  0
 16 10  1  0  0  0  0
 17 16  1  0  0  0  0
 18 17  2  0  0  0  0
 18 19  1  0  0  0  0
 19 15  2  0  0  0  0
 20 24  2  0  0  0  0
 20  1  1  0  0  0  0
 21 20  1  0  0  0  0
 22 21  1  0  0  0  0
 22 23  2  0  0  0  0
 23 39  1  0  0  0  0
 23 24  1  0  0  0  0
 24 40  1  0  0  0  0
 25 22  1  0  0  0  0
 26  5  1  0  0  0  0
 27  5  1  0  0  0  0
 28  6  1  0  0  0  0
 29  6  1  0  0  0  0
 33  9  1  0  0  0  0
 38 18  1  0  0  0  0
M  END
>  <Pose>
1

>  <Score>
-7.57

$$$$
