
 OpenBabel03212208413D

 51 54  0  0  0  0  0  0  0  0999 V2000
   24.2340   35.7210   68.7480 S   0  0  0  0  0  0  0  0  0  0  0  0
   24.6630   37.0830   69.1730 O   0  0  0  0  0  0  0  0  0  0  0  0
   25.2670   34.7430   69.2720 O   0  0  0  0  0  0  0  0  0  0  0  0
   24.2030   35.5690   67.0470 N   0  0  0  0  0  0  0  0  0  0  0  0
   25.3590   36.1370   66.4050 C   0  0  0  0  0  0  0  0  0  0  0  0
   24.9770   36.3630   64.9390 C   0  0  0  0  0  0  0  0  0  0  0  0
   24.1340   37.4470   64.8220 O   0  0  0  0  0  0  0  0  0  0  0  0
   23.4510   37.6280   66.0380 C   0  0  0  0  0  0  0  0  0  0  0  0
   23.0340   36.2440   66.5140 C   0  0  0  0  0  0  0  0  0  0  0  0
   22.7070   35.2660   69.4890 C   0  0  0  0  0  0  0  0  0  0  0  0
   21.6300   36.1050   69.5360 C   0  0  0  0  0  0  0  0  0  0  0  0
   20.4320   35.7180   70.1290 C   0  0  0  0  0  0  0  0  0  0  0  0
   20.2840   34.4840   70.6880 C   0  0  0  0  0  0  0  0  0  0  0  0
   21.3700   33.6280   70.6450 C   0  0  0  0  0  0  0  0  0  0  0  0
   22.5600   34.0140   70.0560 C   0  0  0  0  0  0  0  0  0  0  0  0
   19.0430   33.9930   71.3360 C   0  0  0  0  0  0  0  0  0  0  0  0
   18.2010   33.3160   70.4290 O   0  0  0  0  0  0  0  0  0  0  0  0
   18.0810   31.9510   70.3330 C   0  0  0  0  0  0  0  0  0  0  0  0
   19.0630   31.2330   70.6050 O   0  0  0  0  0  0  0  0  0  0  0  0
   16.8240   31.3350   69.9160 C   0  0  0  0  0  0  0  0  0  0  0  0
   16.0340   30.8420   71.0060 N   0  0  0  0  0  0  0  0  0  0  0  0
   14.7860   31.4310   71.3960 C   0  0  0  0  0  0  0  0  0  0  0  0
   14.2360   32.4280   70.8480 O   0  0  0  0  0  0  0  0  0  0  0  0
   14.2460   30.6930   72.5320 C   0  0  0  0  0  0  0  0  0  0  0  0
   15.1130   29.6810   72.8500 C   0  0  0  0  0  0  0  0  0  0  0  0
   14.8380   28.8240   73.8990 C   0  0  0  0  0  0  0  0  0  0  0  0
   13.6860   28.9670   74.6490 C   0  0  0  0  0  0  0  0  0  0  0  0
   12.8040   29.9810   74.3400 C   0  0  0  0  0  0  0  0  0  0  0  0
   13.1040   30.8230   73.2890 C   0  0  0  0  0  0  0  0  0  0  0  0
   11.2020   30.2180   75.3460 B   0  0  0  0  0  0  0  0  0  0  0  0
   16.2380   29.7630   71.9020 C   0  0  0  0  0  0  0  0  0  0  0  0
   17.2350   29.0090   71.8660 O   0  0  0  0  0  0  0  0  0  0  0  0
   26.1540   35.3620   66.4170 H   0  0  0  0  0  0  0  0  0  0  0  0
   25.7450   37.0390   66.8770 H   0  0  0  0  0  0  0  0  0  0  0  0
   24.5070   35.4150   64.5820 H   0  0  0  0  0  0  0  0  0  0  0  0
   25.8640   36.5240   64.3040 H   0  0  0  0  0  0  0  0  0  0  0  0
   24.0510   38.1700   66.7710 H   0  0  0  0  0  0  0  0  0  0  0  0
   22.5730   38.2580   65.8000 H   0  0  0  0  0  0  0  0  0  0  0  0
   22.2830   36.2810   67.3160 H   0  0  0  0  0  0  0  0  0  0  0  0
   22.6200   35.7280   65.6190 H   0  0  0  0  0  0  0  0  0  0  0  0
   21.7340   37.0930   69.0940 H   0  0  0  0  0  0  0  0  0  0  0  0
   19.6070   36.4100   70.1480 H   0  0  0  0  0  0  0  0  0  0  0  0
   21.2740   32.6450   71.0830 H   0  0  0  0  0  0  0  0  0  0  0  0
   23.4000   33.3190   70.0360 H   0  0  0  0  0  0  0  0  0  0  0  0
   19.2810   33.2910   72.1610 H   0  0  0  0  0  0  0  0  0  0  0  0
   18.5120   34.8810   71.7700 H   0  0  0  0  0  0  0  0  0  0  0  0
   16.1910   32.0530   69.3160 H   0  0  0  0  0  0  0  0  0  0  0  0
   16.9840   30.4630   69.2150 H   0  0  0  0  0  0  0  0  0  0  0  0
   15.5440   28.0320   74.1260 H   0  0  0  0  0  0  0  0  0  0  0  0
   13.4760   28.2790   75.4830 H   0  0  0  0  0  0  0  0  0  0  0  0
   12.4290   31.6350   73.0190 H   0  0  0  0  0  0  0  0  0  0  0  0
  1  2  2  0  0  0  0
  1  3  2  0  0  0  0
  1 10  1  0  0  0  0
  4  1  1  0  0  0  0
  5 33  1  0  0  0  0
  5 34  1  0  0  0  0
  5  4  1  0  0  0  0
  6  5  1  0  0  0  0
  7  6  1  0  0  0  0
  7  8  1  0  0  0  0
  8  9  1  0  0  0  0
  8 37  1  0  0  0  0
  9  4  1  0  0  0  0
  9 39  1  0  0  0  0
 10 11  2  0  0  0  0
 10 15  1  0  0  0  0
 11 12  1  0  0  0  0
 12 42  1  0  0  0  0
 12 13  2  0  0  0  0
 13 16  1  0  0  0  0
 14 13  1  0  0  0  0
 14 43  1  0  0  0  0
 15 14  2  0  0  0  0
 16 46  1  0  0  0  0
 16 45  1  0  0  0  0
 17 16  1  0  0  0  0
 18 17  1  0  0  0  0
 18 19  2  0  0  0  0
 20 18  1  0  0  0  0
 20 21  1  0  0  0  0
 21 22  1  0  0  0  0
 21 31  1  0  0  0  0
 22 24  1  0  0  0  0
 23 22  2  0  0  0  0
 24 25  2  0  0  0  0
 24 29  1  0  0  0  0
 25 26  1  0  0  0  0
 26 49  1  0  0  0  0
 26 27  2  0  0  0  0
 27 50  1  0  0  0  0
 28 27  1  0  0  0  0
 28 30  1  0  0  0  0
 29 28  2  0  0  0  0
 31 25  1  0  0  0  0
 32 31  2  0  0  0  0
 35  6  1  0  0  0  0
 36  6  1  0  0  0  0
 38  8  1  0  0  0  0
 40  9  1  0  0  0  0
 41 11  1  0  0  0  0
 44 15  1  0  0  0  0
 47 20  1  0  0  0  0
 48 20  1  0  0  0  0
 51 29  1  0  0  0  0
M  END
>  <Pose>
1

>  <Score>
-6.75

$$$$
