
 OpenBabel03212208413D

 46 49  0  0  0  0  0  0  0  0999 V2000
   16.5920   34.0440   71.4000 S   0  0  0  0  0  0  0  0  0  0  0  0
   18.0190   33.8510   70.9010 O   0  0  0  0  0  0  0  0  0  0  0  0
   16.7290   34.3330   72.8810 O   0  0  0  0  0  0  0  0  0  0  0  0
   15.7440   32.6240   71.1320 N   0  0  0  0  0  0  0  0  0  0  0  0
   16.4660   31.4320   70.9680 C   0  0  0  0  0  0  0  0  0  0  0  0
   15.8510   30.3160   71.7590 C   0  0  0  0  0  0  0  0  0  0  0  0
   14.5360   30.1870   71.3510 O   0  0  0  0  0  0  0  0  0  0  0  0
   13.7570   31.2820   71.7020 C   0  0  0  0  0  0  0  0  0  0  0  0
   14.3680   32.5920   71.3830 C   0  0  0  0  0  0  0  0  0  0  0  0
   15.9320   35.4470   70.5920 C   0  0  0  0  0  0  0  0  0  0  0  0
   14.6530   35.6790   70.2510 N   0  0  0  0  0  0  0  0  0  0  0  0
   14.5740   36.8900   69.6420 C   0  0  0  0  0  0  0  0  0  0  0  0
   15.7990   37.4400   69.5910 N   0  0  0  0  0  0  0  0  0  0  0  0
   16.6300   36.5790   70.1600 C   0  0  0  0  0  0  0  0  0  0  0  0
   16.1020   38.7320   69.0090 C   0  0  0  0  0  0  0  0  0  0  0  0
   17.2360   38.6500   68.0570 C   0  0  0  0  0  0  0  0  0  0  0  0
   17.2380   39.1630   66.7990 N   0  0  0  0  0  0  0  0  0  0  0  0
   18.3910   38.9060   66.2610 O   0  0  0  0  0  0  0  0  0  0  0  0
   19.1670   38.2480   67.0850 C   0  0  0  0  0  0  0  0  0  0  0  0
   18.4350   38.0880   68.2170 N   0  0  0  0  0  0  0  0  0  0  0  0
   20.5610   37.7620   66.8580 C   0  0  0  0  0  0  0  0  0  0  0  0
   20.8450   36.7580   67.9210 C   0  0  0  0  0  0  0  0  0  0  0  0
   20.8770   35.4180   67.5700 C   0  0  0  0  0  0  0  0  0  0  0  0
   21.1300   34.4260   68.4810 C   0  0  0  0  0  0  0  0  0  0  0  0
   21.3590   34.7860   69.7820 C   0  0  0  0  0  0  0  0  0  0  0  0
   21.3370   36.0870   70.1770 C   0  0  0  0  0  0  0  0  0  0  0  0
   21.0770   37.0740   69.2300 C   0  0  0  0  0  0  0  0  0  0  0  0
   21.7140   33.4330   71.0790 B   0  0  0  0  0  0  0  0  0  0  0  0
   17.5330   31.6030   71.2210 H   0  0  0  0  0  0  0  0  0  0  0  0
   16.4050   31.1210   69.8840 H   0  0  0  0  0  0  0  0  0  0  0  0
   16.3450   29.3390   71.5600 H   0  0  0  0  0  0  0  0  0  0  0  0
   15.8640   30.5940   72.8270 H   0  0  0  0  0  0  0  0  0  0  0  0
   12.7750   31.1470   71.1830 H   0  0  0  0  0  0  0  0  0  0  0  0
   13.5170   31.2340   72.7890 H   0  0  0  0  0  0  0  0  0  0  0  0
   14.1260   33.3370   72.1980 H   0  0  0  0  0  0  0  0  0  0  0  0
   13.8300   33.0120   70.4820 H   0  0  0  0  0  0  0  0  0  0  0  0
   13.6540   37.3280   69.2630 H   0  0  0  0  0  0  0  0  0  0  0  0
   17.6960   36.6900   70.2960 H   0  0  0  0  0  0  0  0  0  0  0  0
   16.3540   39.4720   69.7950 H   0  0  0  0  0  0  0  0  0  0  0  0
   15.2010   39.1240   68.4950 H   0  0  0  0  0  0  0  0  0  0  0  0
   21.2310   38.6340   66.9660 H   0  0  0  0  0  0  0  0  0  0  0  0
   20.6560   37.3120   65.8470 H   0  0  0  0  0  0  0  0  0  0  0  0
   20.6930   35.1580   66.5270 H   0  0  0  0  0  0  0  0  0  0  0  0
   21.1560   33.3690   68.2050 H   0  0  0  0  0  0  0  0  0  0  0  0
   21.5180   36.3820   71.2100 H   0  0  0  0  0  0  0  0  0  0  0  0
   21.0580   38.1130   69.5320 H   0  0  0  0  0  0  0  0  0  0  0  0
  1  3  2  0  0  0  0
  2  1  2  0  0  0  0
  4  9  1  0  0  0  0
  4  1  1  0  0  0  0
  5  4  1  0  0  0  0
  5 29  1  0  0  0  0
  5  6  1  0  0  0  0
  6 32  1  0  0  0  0
  7  8  1  0  0  0  0
  7  6  1  0  0  0  0
  8 34  1  0  0  0  0
  9  8  1  0  0  0  0
  9 35  1  0  0  0  0
 10  1  1  0  0  0  0
 11 10  1  0  0  0  0
 12 11  2  0  0  0  0
 13 12  1  0  0  0  0
 13 14  1  0  0  0  0
 14 38  1  0  0  0  0
 14 10  2  0  0  0  0
 15 13  1  0  0  0  0
 15 39  1  0  0  0  0
 16 20  1  0  0  0  0
 16 15  1  0  0  0  0
 17 16  2  0  0  0  0
 18 17  1  0  0  0  0
 18 19  1  0  0  0  0
 19 20  2  0  0  0  0
 21 41  1  0  0  0  0
 21 19  1  0  0  0  0
 21 22  1  0  0  0  0
 22 27  1  0  0  0  0
 23 22  2  0  0  0  0
 23 24  1  0  0  0  0
 24 25  2  0  0  0  0
 25 26  1  0  0  0  0
 25 28  1  0  0  0  0
 26 45  1  0  0  0  0
 27 46  1  0  0  0  0
 27 26  2  0  0  0  0
 30  5  1  0  0  0  0
 31  6  1  0  0  0  0
 33  8  1  0  0  0  0
 36  9  1  0  0  0  0
 37 12  1  0  0  0  0
 40 15  1  0  0  0  0
 42 21  1  0  0  0  0
 43 23  1  0  0  0  0
 44 24  1  0  0  0  0
M  END
>  <Pose>
1

>  <Score>
-6.53

$$$$
