
 OpenBabel03212208413D

 47 50  0  0  1  0  0  0  0  0999 V2000
   15.7960   30.6740   71.5400 S   0  0  0  0  0  0  0  0  0  0  0  0
   15.9390   30.3580   73.3540 C   0  0  0  0  0  0  0  0  0  0  0  0
   15.5370   28.9630   73.6460 C   0  0  0  0  0  0  0  0  0  0  0  0
   14.3460   28.6070   74.2300 C   0  0  0  0  0  0  0  0  0  0  0  0
   14.0760   27.3360   74.6030 C   0  0  0  0  0  0  0  0  0  0  0  0
   14.9930   26.3100   74.4070 C   0  0  0  0  0  0  0  0  0  0  0  0
   16.2210   26.6390   73.8160 C   0  0  0  0  0  0  0  0  0  0  0  0
   16.4860   27.9430   73.4430 C   0  0  0  0  0  0  0  0  0  0  0  0
   13.0360   29.9940   74.3590 B   0  0  0  0  0  0  0  0  0  0  0  0
   15.4150   32.4050   71.2350 C   0  0  0  0  0  0  0  0  0  0  0  0
   16.2970   33.4010   71.1600 N   0  0  0  0  0  0  0  0  0  0  0  0
   15.5970   34.5190   70.8280 C   0  0  0  0  0  0  0  0  0  0  0  0
   15.8630   35.8000   70.5320 N   0  0  0  0  0  0  0  0  0  0  0  0
   14.9680   36.7200   70.1570 C   0  0  0  0  0  0  0  0  0  0  0  0
   13.6390   36.3300   70.0720 N   0  0  0  0  0  0  0  0  0  0  0  0
   13.2840   35.0980   70.3410 C   0  0  0  0  0  0  0  0  0  0  0  0
   14.2260   34.1610   70.7180 C   0  0  0  0  0  0  0  0  0  0  0  0
   14.1810   32.8600   70.9740 N   0  0  0  0  0  0  0  0  0  0  0  0
   11.9850   34.6620   70.2810 O   0  0  0  0  0  0  0  0  0  0  0  0
   15.2790   38.0750   69.7980 N   0  0  0  0  0  0  0  0  0  0  0  0
   17.7030   33.4210   71.4030 C   0  0  2  0  0  0  0  0  0  0  0  0
   18.4540   32.6450   70.4930 O   0  0  0  0  0  0  0  0  0  0  0  0
   19.7210   32.7380   71.1150 C   0  0  1  0  0  0  0  0  0  0  0  0
   19.3250   32.1180   72.4810 C   0  0  2  0  0  0  0  0  0  0  0  0
   18.1500   33.0590   72.7820 C   0  0  1  0  0  0  0  0  0  0  0  0
   18.6960   34.1800   73.4590 O   0  0  0  0  0  0  0  0  0  0  0  0
   20.3300   32.2010   73.4060 O   0  0  0  0  0  0  0  0  0  0  0  0
   20.7550   31.9420   70.4150 C   0  0  0  0  0  0  0  0  0  0  0  0
   21.3350   32.6860   69.3790 O   0  0  0  0  0  0  0  0  0  0  0  0
   15.3710   31.0760   73.8800 H   0  0  0  0  0  0  0  0  0  0  0  0
   17.0770   30.4650   73.5420 H   0  0  0  0  0  0  0  0  0  0  0  0
   13.1280   27.1080   75.0570 H   0  0  0  0  0  0  0  0  0  0  0  0
   14.7560   25.2960   74.6810 H   0  0  0  0  0  0  0  0  0  0  0  0
   16.9830   25.8750   73.6500 H   0  0  0  0  0  0  0  0  0  0  0  0
   17.4290   28.1860   73.0340 H   0  0  0  0  0  0  0  0  0  0  0  0
   11.1830   35.2820   70.2560 H   0  0  0  0  0  0  0  0  0  0  0  0
   15.4040   38.4460   68.8580 H   0  0  0  0  0  0  0  0  0  0  0  0
   15.4340   38.7670   70.6110 H   0  0  0  0  0  0  0  0  0  0  0  0
   18.0830   34.4630   71.2080 H   0  0  0  0  0  0  0  0  0  0  0  0
   19.9890   33.7800   71.2970 H   0  0  0  0  0  0  0  0  0  0  0  0
   18.9750   31.0800   72.3410 H   0  0  0  0  0  0  0  0  0  0  0  0
   17.4370   32.6350   73.4490 H   0  0  0  0  0  0  0  0  0  0  0  0
   18.5220   33.9940   74.4090 H   0  0  0  0  0  0  0  0  0  0  0  0
   20.3910   33.1190   73.7630 H   0  0  0  0  0  0  0  0  0  0  0  0
   20.1970   31.1230   69.8580 H   0  0  0  0  0  0  0  0  0  0  0  0
   21.4560   31.4470   71.0700 H   0  0  0  0  0  0  0  0  0  0  0  0
   20.8090   32.4870   68.5450 H   0  0  0  0  0  0  0  0  0  0  0  0
  1  2  1  0  0  0  0
  2 31  1  0  0  0  0
  2  3  1  0  0  0  0
  2 30  1  0  0  0  0
  3  4  1  0  0  0  0
  4  9  1  0  0  0  0
  4  5  2  0  0  0  0
  5 32  1  0  0  0  0
  6  5  1  0  0  0  0
  6 33  1  0  0  0  0
  7  6  2  0  0  0  0
  8  3  2  0  0  0  0
  8  7  1  0  0  0  0
 10  1  1  0  0  0  0
 11 10  1  0  0  0  0
 11 21  1  0  0  0  0
 12 11  1  0  0  0  0
 13 12  1  0  0  0  0
 14 13  2  0  0  0  0
 15 14  1  0  0  0  0
 15 16  2  0  0  0  0
 16 17  1  0  0  0  0
 17 12  2  0  0  0  0
 17 18  1  0  0  0  0
 18 10  2  0  0  0  0
 19 16  1  0  0  0  0
 20 14  1  0  0  0  0
 20 38  1  0  0  0  0
 21 39  1  6  0  0  0
 21 25  1  0  0  0  0
 22 23  1  0  0  0  0
 22 21  1  0  0  0  0
 23 40  1  1  0  0  0
 23 24  1  0  0  0  0
 24 41  1  6  0  0  0
 24 25  1  0  0  0  0
 24 27  1  0  0  0  0
 25 42  1  1  0  0  0
 25 26  1  0  0  0  0
 26 43  1  0  0  0  0
 27 44  1  0  0  0  0
 28 46  1  0  0  0  0
 28 23  1  0  0  0  0
 29 28  1  0  0  0  0
 34  7  1  0  0  0  0
 35  8  1  0  0  0  0
 36 19  1  0  0  0  0
 37 20  1  0  0  0  0
 45 28  1  0  0  0  0
 47 29  1  0  0  0  0
M  END
>  <Pose>
1

>  <Score>
-8.18

$$$$
