
 OpenBabel03212208413D

 52 56  0  0  1  0  0  0  0  0999 V2000
   22.1370   32.8030   70.2210 S   0  0  0  0  0  0  0  0  0  0  0  0
   22.7550   32.0690   71.7280 C   0  0  0  0  0  0  0  0  0  0  0  0
   23.9960   31.7880   71.8990 N   0  0  0  0  0  0  0  0  0  0  0  0
   24.5580   31.2080   73.0640 C   0  0  0  0  0  0  0  0  0  0  0  0
   25.7000   31.4340   73.4720 O   0  0  0  0  0  0  0  0  0  0  0  0
   23.6040   30.2450   73.8050 C   0  0  1  0  0  0  0  0  0  0  0  0
   22.4340   31.1520   74.0130 C   0  0  0  0  0  0  0  0  0  0  0  0
   21.9100   31.4280   75.0940 O   0  0  0  0  0  0  0  0  0  0  0  0
   21.8920   31.7420   72.8410 N   0  0  0  0  0  0  0  0  0  0  0  0
   20.5210   32.0050   72.7760 C   0  0  0  0  0  0  0  0  0  0  0  0
   19.6570   30.9120   72.6370 C   0  0  0  0  0  0  0  0  0  0  0  0
   18.2920   31.0920   72.5670 C   0  0  0  0  0  0  0  0  0  0  0  0
   17.7720   32.3810   72.6360 C   0  0  0  0  0  0  0  0  0  0  0  0
   18.6440   33.4680   72.7750 C   0  0  0  0  0  0  0  0  0  0  0  0
   20.0020   33.2690   72.8440 C   0  0  0  0  0  0  0  0  0  0  0  0
   15.9100   32.6720   72.5440 B   0  0  0  0  0  0  0  0  0  0  0  0
   23.3840   29.1490   72.8710 C   0  0  1  0  0  0  0  0  0  0  0  0
   24.6180   28.6260   72.3010 N   0  0  0  0  0  4  0  0  0  0  0  0
   24.3460   27.9860   71.0250 C   0  0  0  0  0  0  0  0  0  0  0  0
   22.8840   27.7320   70.7620 C   0  0  0  0  0  0  0  0  0  0  0  0
   22.2630   27.2230   72.0370 C   0  0  0  0  0  0  0  0  0  0  0  0
   22.5620   27.9930   73.1860 C   0  0  0  0  0  0  0  0  0  0  0  0
   22.0680   27.6040   74.4000 C   0  0  0  0  0  0  0  0  0  0  0  0
   21.2820   26.4550   74.4430 C   0  0  0  0  0  0  0  0  0  0  0  0
   21.0040   25.7240   73.3120 C   0  0  0  0  0  0  0  0  0  0  0  0
   21.4970   26.1030   72.0780 C   0  0  0  0  0  0  0  0  0  0  0  0
   20.2090   24.6540   73.6700 O   0  0  0  0  0  0  0  0  0  0  0  0
   20.2160   24.5360   75.0710 C   0  0  0  0  0  0  0  0  0  0  0  0
   20.6580   25.8280   75.4870 O   0  0  0  0  0  0  0  0  0  0  0  0
   22.3370   28.3160   75.5600 O   0  0  0  0  0  0  0  0  0  0  0  0
   23.6590   28.2960   76.0870 C   0  0  0  0  0  0  0  0  0  0  0  0
   25.3150   27.7030   73.1280 C   0  0  0  0  0  0  0  0  0  0  0  0
   24.1010   30.0760   74.7460 H   0  0  0  0  0  0  0  0  0  0  0  0
   20.0390   29.8960   72.5810 H   0  0  0  0  0  0  0  0  0  0  0  0
   17.6480   30.2370   72.4600 H   0  0  0  0  0  0  0  0  0  0  0  0
   18.2840   34.4830   72.8330 H   0  0  0  0  0  0  0  0  0  0  0  0
   20.6670   34.0960   72.9500 H   0  0  0  0  0  0  0  0  0  0  0  0
   22.8950   29.6280   71.9500 H   0  0  0  0  0  0  0  0  0  0  0  0
   25.2310   29.4470   72.1140 H   0  0  0  0  0  0  0  0  0  0  0  0
   24.8760   27.0150   70.9500 H   0  0  0  0  0  0  0  0  0  0  0  0
   24.7230   28.6030   70.1650 H   0  0  0  0  0  0  0  0  0  0  0  0
   22.3360   28.5770   70.3330 H   0  0  0  0  0  0  0  0  0  0  0  0
   22.8310   26.8760   70.0360 H   0  0  0  0  0  0  0  0  0  0  0  0
   21.2870   25.5350   71.1720 H   0  0  0  0  0  0  0  0  0  0  0  0
   19.2030   24.3200   75.4690 H   0  0  0  0  0  0  0  0  0  0  0  0
   20.9580   23.7620   75.3540 H   0  0  0  0  0  0  0  0  0  0  0  0
   23.6870   27.5110   76.8880 H   0  0  0  0  0  0  0  0  0  0  0  0
   23.9850   29.2580   76.4830 H   0  0  0  0  0  0  0  0  0  0  0  0
   24.3610   27.9680   75.3090 H   0  0  0  0  0  0  0  0  0  0  0  0
   26.1010   27.2240   72.5080 H   0  0  0  0  0  0  0  0  0  0  0  0
   25.8360   28.1560   73.9900 H   0  0  0  0  0  0  0  0  0  0  0  0
   24.6490   26.8530   73.4520 H   0  0  0  0  0  0  0  0  0  0  0  0
  1  2  2  0  0  0  0
  2  3  1  0  0  0  0
  2  9  1  0  0  0  0
  3  4  1  0  0  0  0
  4  5  2  0  0  0  0
  4  6  1  0  0  0  0
  6  7  1  0  0  0  0
  6 33  1  1  0  0  0
  7  8  2  0  0  0  0
  9  7  1  0  0  0  0
 10  9  1  0  0  0  0
 10 15  1  0  0  0  0
 11 10  2  0  0  0  0
 12 13  2  0  0  0  0
 12 11  1  0  0  0  0
 13 14  1  0  0  0  0
 14 36  1  0  0  0  0
 14 15  2  0  0  0  0
 15 37  1  0  0  0  0
 16 13  1  0  0  0  0
 17 38  1  6  0  0  0
 17 22  1  0  0  0  0
 17  6  1  0  0  0  0
 18 17  1  0  0  0  0
 18 32  1  0  0  0  0
 19 18  1  0  0  0  0
 20 19  1  0  0  0  0
 20 21  1  0  0  0  0
 21 26  2  0  0  0  0
 21 22  1  0  0  0  0
 22 23  2  0  0  0  0
 23 24  1  0  0  0  0
 23 30  1  0  0  0  0
 24 29  1  0  0  0  0
 25 27  1  0  0  0  0
 25 24  2  0  0  0  0
 26 25  1  0  0  0  0
 27 28  1  0  0  0  0
 28 46  1  0  0  0  0
 28 45  1  0  0  0  0
 28 29  1  0  0  0  0
 30 31  1  0  0  0  0
 31 48  1  0  0  0  0
 31 47  1  0  0  0  0
 32 52  1  0  0  0  0
 32 51  1  0  0  0  0
 34 11  1  0  0  0  0
 35 12  1  0  0  0  0
 39 18  1  0  0  0  0
 40 19  1  0  0  0  0
 41 19  1  0  0  0  0
 42 20  1  0  0  0  0
 43 20  1  0  0  0  0
 44 26  1  0  0  0  0
 49 31  1  0  0  0  0
 50 32  1  0  0  0  0
M  END
>  <Pose>
1

>  <Score>
-4.56

$$$$
