
 OpenBabel03212208413D

 39 42  0  0  1  0  0  0  0  0999 V2000
   21.0590   35.4940   69.4510 S   0  0  0  0  0  0  0  0  0  0  0  0
   22.5050   35.8850   69.5590 O   0  0  0  0  0  0  0  0  0  0  0  0
   20.4760   35.8790   68.1200 O   0  0  0  0  0  0  0  0  0  0  0  0
   20.8360   33.7510   69.7300 C   0  0  0  0  0  0  0  0  0  0  0  0
   19.4180   33.5900   70.2370 C   0  0  2  0  0  0  0  0  0  0  0  0
   19.3360   34.1430   71.5740 N   0  0  0  0  0  0  0  0  0  0  0  0
   20.0760   35.3370   71.9240 C   0  0  0  0  0  0  0  0  0  0  0  0
   20.0940   36.3010   70.7360 C   0  0  0  0  0  0  0  0  0  0  0  0
   18.4540   33.2790   72.2800 C   0  0  0  0  0  0  0  0  0  0  0  0
   17.9050   33.5250   73.4070 O   0  0  0  0  0  0  0  0  0  0  0  0
   18.2480   32.0720   71.5580 N   0  0  0  0  0  0  0  0  0  0  0  0
   19.0210   32.1850   70.3720 C   0  0  0  0  0  0  0  0  0  0  0  0
   19.3240   31.2560   69.5670 O   0  0  0  0  0  0  0  0  0  0  0  0
   17.4210   30.9340   71.9300 C   0  0  1  0  0  0  0  0  0  0  0  0
   17.8270   30.3790   73.2840 C   0  0  0  0  0  0  0  0  0  0  0  0
   16.9550   29.1420   73.5080 C   0  0  0  0  0  0  0  0  0  0  0  0
   15.6280   29.6170   73.6460 O   0  0  0  0  0  0  0  0  0  0  0  0
   15.1680   30.6740   72.8700 C   0  0  0  0  0  0  0  0  0  0  0  0
   16.0060   31.3420   72.0230 C   0  0  0  0  0  0  0  0  0  0  0  0
   15.5550   32.3830   71.2600 C   0  0  0  0  0  0  0  0  0  0  0  0
   14.2340   32.7490   71.3590 C   0  0  0  0  0  0  0  0  0  0  0  0
   13.4040   32.0690   72.2140 C   0  0  0  0  0  0  0  0  0  0  0  0
   13.8300   31.0130   72.9990 C   0  0  0  0  0  0  0  0  0  0  0  0
   12.6680   30.0790   74.1800 B   0  0  0  0  0  0  0  0  0  0  0  0
   21.5000   33.4850   70.5930 H   0  0  0  0  0  0  0  0  0  0  0  0
   21.0450   33.1510   68.8320 H   0  0  0  0  0  0  0  0  0  0  0  0
   18.6760   34.1210   69.6150 H   0  0  0  0  0  0  0  0  0  0  0  0
   21.1250   35.1210   72.1960 H   0  0  0  0  0  0  0  0  0  0  0  0
   19.5940   35.9060   72.7570 H   0  0  0  0  0  0  0  0  0  0  0  0
   19.0950   36.5580   70.3930 H   0  0  0  0  0  0  0  0  0  0  0  0
   20.6960   37.1750   71.0650 H   0  0  0  0  0  0  0  0  0  0  0  0
   17.4960   30.1110   71.2120 H   0  0  0  0  0  0  0  0  0  0  0  0
   18.8880   30.1080   73.3340 H   0  0  0  0  0  0  0  0  0  0  0  0
   17.5610   31.0850   74.0980 H   0  0  0  0  0  0  0  0  0  0  0  0
   16.9840   28.5710   72.5460 H   0  0  0  0  0  0  0  0  0  0  0  0
   17.2800   28.5480   74.3600 H   0  0  0  0  0  0  0  0  0  0  0  0
   16.2460   32.9070   70.5840 H   0  0  0  0  0  0  0  0  0  0  0  0
   13.8640   33.5720   70.7590 H   0  0  0  0  0  0  0  0  0  0  0  0
   12.3690   32.3740   72.2750 H   0  0  0  0  0  0  0  0  0  0  0  0
  1  2  2  0  0  0  0
  1  4  1  0  0  0  0
  1  8  1  0  0  0  0
  3  1  2  0  0  0  0
  4  5  1  0  0  0  0
  4 25  1  0  0  0  0
  5 27  1  6  0  0  0
  5 12  1  0  0  0  0
  5  6  1  0  0  0  0
  6  7  1  0  0  0  0
  6  9  1  0  0  0  0
  7 28  1  0  0  0  0
  7 29  1  0  0  0  0
  8 31  1  0  0  0  0
  8  7  1  0  0  0  0
  9 10  2  0  0  0  0
 11 14  1  0  0  0  0
 11  9  1  0  0  0  0
 12 11  1  0  0  0  0
 13 12  2  0  0  0  0
 14 32  1  6  0  0  0
 14 19  1  0  0  0  0
 14 15  1  0  0  0  0
 15 33  1  0  0  0  0
 15 16  1  0  0  0  0
 15 34  1  0  0  0  0
 16 17  1  0  0  0  0
 16 36  1  0  0  0  0
 18 23  1  0  0  0  0
 18 17  1  0  0  0  0
 19 18  2  0  0  0  0
 20 21  2  0  0  0  0
 20 19  1  0  0  0  0
 21 22  1  0  0  0  0
 22 39  1  0  0  0  0
 22 23  2  0  0  0  0
 23 24  1  0  0  0  0
 26  4  1  0  0  0  0
 30  8  1  0  0  0  0
 35 16  1  0  0  0  0
 37 20  1  0  0  0  0
 38 21  1  0  0  0  0
M  END
>  <Pose>
1

>  <Score>
-5.36

$$$$
