
 OpenBabel03212208413D

 36 39  0  0  1  0  0  0  0  0999 V2000
   14.2530   29.0300   75.0420 S   0  0  0  0  0  0  0  0  0  0  0  0
   13.8150   30.0360   73.7360 C   0  0  0  0  0  0  0  0  0  0  0  0
   12.4860   30.2760   73.9710 C   0  0  0  0  0  0  0  0  0  0  0  0
   11.9360   29.7160   75.0510 C   0  0  0  0  0  0  0  0  0  0  0  0
   12.7500   28.9430   75.8390 C   0  0  0  0  0  0  0  0  0  0  0  0
   10.0750   29.9360   75.5500 B   0  0  0  0  0  0  0  0  0  0  0  0
   14.6420   30.5410   72.6170 C   0  0  0  0  0  0  0  0  0  0  0  0
   14.8630   29.7240   71.6890 O   0  0  0  0  0  0  0  0  0  0  0  0
   15.1410   31.8630   72.6140 N   0  0  0  0  0  0  0  0  0  0  0  0
   16.5680   32.1480   72.6230 C   0  0  2  0  0  0  0  0  0  0  0  0
   16.8460   33.6260   72.5200 C   0  0  0  0  0  0  0  0  0  0  0  0
   16.4930   33.8950   71.1340 N   0  0  0  0  0  0  0  0  0  0  0  0
   17.1210   32.8430   70.3710 C   0  0  0  0  0  0  0  0  0  0  0  0
   17.1310   31.6500   71.3090 C   0  0  0  0  0  0  0  0  0  0  0  0
   15.6860   34.9940   70.6810 C   0  0  0  0  0  0  0  0  0  0  0  0
   16.2200   36.2150   70.4880 N   0  0  0  0  0  0  0  0  0  0  0  0
   15.4390   37.2250   70.0650 C   0  0  0  0  0  0  0  0  0  0  0  0
   14.1010   37.0560   69.8170 C   0  0  0  0  0  0  0  0  0  0  0  0
   13.5530   35.8430   70.0040 N   0  0  0  0  0  0  0  0  0  0  0  0
   14.3440   34.8390   70.4290 C   0  0  0  0  0  0  0  0  0  0  0  0
   13.5280   33.7720   70.5210 N   0  0  0  0  0  0  0  0  0  0  0  0
   12.2920   34.0860   70.1730 N   0  0  0  0  0  0  0  0  0  0  0  0
   12.2870   35.3890   69.8440 C   0  0  0  0  0  0  0  0  0  0  0  0
   11.9300   30.9220   73.2570 H   0  0  0  0  0  0  0  0  0  0  0  0
   12.5250   28.3910   76.7630 H   0  0  0  0  0  0  0  0  0  0  0  0
   14.4500   32.6460   72.6050 H   0  0  0  0  0  0  0  0  0  0  0  0
   17.0710   31.7410   73.4990 H   0  0  0  0  0  0  0  0  0  0  0  0
   16.2900   34.2370   73.2310 H   0  0  0  0  0  0  0  0  0  0  0  0
   17.9400   33.7580   72.6210 H   0  0  0  0  0  0  0  0  0  0  0  0
   16.6440   32.6150   69.4150 H   0  0  0  0  0  0  0  0  0  0  0  0
   18.1770   33.1480   70.2140 H   0  0  0  0  0  0  0  0  0  0  0  0
   16.4890   30.8630   70.8530 H   0  0  0  0  0  0  0  0  0  0  0  0
   18.1650   31.2820   71.4790 H   0  0  0  0  0  0  0  0  0  0  0  0
   15.8850   38.2110   69.9120 H   0  0  0  0  0  0  0  0  0  0  0  0
   13.4680   37.8670   69.4740 H   0  0  0  0  0  0  0  0  0  0  0  0
   11.4550   35.9760   69.5160 H   0  0  0  0  0  0  0  0  0  0  0  0
  1  5  1  0  0  0  0
  2  3  2  0  0  0  0
  2  1  1  0  0  0  0
  3  4  1  0  0  0  0
  4  6  1  0  0  0  0
  4  5  2  0  0  0  0
  5 25  1  0  0  0  0
  7  2  1  0  0  0  0
  8  7  2  0  0  0  0
  9  7  1  0  0  0  0
  9 10  1  0  0  0  0
 10 27  1  1  0  0  0
 11 29  1  0  0  0  0
 11 10  1  0  0  0  0
 11 28  1  0  0  0  0
 12 11  1  0  0  0  0
 13 12  1  0  0  0  0
 13 14  1  0  0  0  0
 14 33  1  0  0  0  0
 14 10  1  0  0  0  0
 15 12  1  0  0  0  0
 16 15  2  0  0  0  0
 17 16  1  0  0  0  0
 18 19  1  0  0  0  0
 18 17  2  0  0  0  0
 19 20  1  0  0  0  0
 20 21  2  0  0  0  0
 20 15  1  0  0  0  0
 22 21  1  0  0  0  0
 23 19  1  0  0  0  0
 23 22  2  0  0  0  0
 24  3  1  0  0  0  0
 26  9  1  0  0  0  0
 30 13  1  0  0  0  0
 31 13  1  0  0  0  0
 32 14  1  0  0  0  0
 34 17  1  0  0  0  0
 35 18  1  0  0  0  0
 36 23  1  0  0  0  0
M  END
>  <Pose>
1

>  <Score>
-6.92

$$$$
