
 OpenBabel03212208413D

 58 62  0  0  1  0  0  0  0  0999 V2000
   13.3690   34.6150   70.0860 S   0  0  1  0  0  0  0  0  0  0  0  0
   12.4670   36.0560   69.9470 C   0  0  0  0  0  0  0  0  0  0  0  0
   13.3880   36.9820   70.1370 N   0  0  0  0  0  0  0  0  0  0  0  0
   14.6220   36.6370   70.3600 C   0  0  0  0  0  0  0  0  0  0  0  0
   14.9100   35.2980   70.3890 C   0  0  0  0  0  0  0  0  0  0  0  0
   16.1660   34.5730   70.5650 C   0  0  0  0  0  0  0  0  0  0  0  0
   16.1760   33.2900   70.8710 C   0  0  0  0  0  0  0  0  0  0  0  0
   17.3590   32.3940   71.0940 C   0  0  2  0  0  0  0  0  0  0  0  0
   16.8990   31.4610   72.0750 N   0  0  0  0  0  0  0  0  0  0  0  0
   15.4910   31.2740   71.7590 C   0  0  0  0  0  0  0  0  0  0  0  0
   14.8390   30.2560   72.1190 O   0  0  0  0  0  0  0  0  0  0  0  0
   15.0180   32.4160   70.9980 C   0  0  0  0  0  0  0  0  0  0  0  0
   13.8440   32.6110   70.5370 O   0  0  0  0  0  0  0  0  0  0  0  0
   17.5860   30.7590   73.1180 C   0  0  0  0  0  0  0  0  0  0  0  0
   17.3750   29.2800   73.1710 C   0  0  0  0  0  0  0  0  0  0  0  0
   18.7110   28.5470   73.3650 C   0  0  0  0  0  0  0  0  0  0  0  0
   18.4610   27.3450   74.0870 N   0  0  0  0  0  4  0  0  0  0  0  0
   17.0910   26.9780   74.2500 C   0  0  0  0  0  0  0  0  0  0  0  0
   16.4670   26.4080   72.9980 C   0  0  0  0  0  0  0  0  0  0  0  0
   17.4530   26.4700   71.9880 O   0  0  0  0  0  0  0  0  0  0  0  0
   18.4430   25.5530   72.3970 C   0  0  0  0  0  0  0  0  0  0  0  0
   19.1850   26.2120   73.5410 C   0  0  0  0  0  0  0  0  0  0  0  0
   18.5650   33.1510   71.4010 C   0  0  0  0  0  0  0  0  0  0  0  0
   19.6360   33.0710   70.4970 C   0  0  0  0  0  0  0  0  0  0  0  0
   20.8130   33.7550   70.6630 C   0  0  0  0  0  0  0  0  0  0  0  0
   20.9760   34.5650   71.7590 C   0  0  0  0  0  0  0  0  0  0  0  0
   19.9400   34.6710   72.6750 C   0  0  0  0  0  0  0  0  0  0  0  0
   18.7710   33.9680   72.4750 C   0  0  0  0  0  0  0  0  0  0  0  0
   22.2540   33.6280   69.4160 B   0  0  0  0  0  0  0  0  0  0  0  0
   17.3990   35.2470   70.4060 O   0  0  0  0  0  0  0  0  0  0  0  0
   15.6890   37.7110   70.5370 C   0  0  0  0  0  0  0  0  0  0  0  0
   10.9910   36.2320   69.6740 C   0  0  0  0  0  0  0  0  0  0  0  0
   17.4960   31.8720   70.0990 H   0  0  0  0  0  0  0  0  0  0  0  0
   17.1910   31.1820   74.0840 H   0  0  0  0  0  0  0  0  0  0  0  0
   18.6830   30.9520   73.0500 H   0  0  0  0  0  0  0  0  0  0  0  0
   16.7120   28.9000   73.9350 H   0  0  0  0  0  0  0  0  0  0  0  0
   17.0500   28.9800   72.1290 H   0  0  0  0  0  0  0  0  0  0  0  0
   19.4210   29.1760   73.9380 H   0  0  0  0  0  0  0  0  0  0  0  0
   19.1080   28.3820   72.3410 H   0  0  0  0  0  0  0  0  0  0  0  0
   18.8550   27.4850   75.0660 H   0  0  0  0  0  0  0  0  0  0  0  0
   16.4240   27.7430   74.6430 H   0  0  0  0  0  0  0  0  0  0  0  0
   17.0790   26.1470   75.0170 H   0  0  0  0  0  0  0  0  0  0  0  0
   15.5270   26.8800   72.7040 H   0  0  0  0  0  0  0  0  0  0  0  0
   16.2490   25.3100   73.1010 H   0  0  0  0  0  0  0  0  0  0  0  0
   17.8950   24.6770   72.8350 H   0  0  0  0  0  0  0  0  0  0  0  0
   19.0830   25.2200   71.5830 H   0  0  0  0  0  0  0  0  0  0  0  0
   19.3820   25.4970   74.3570 H   0  0  0  0  0  0  0  0  0  0  0  0
   20.1580   26.5950   73.1570 H   0  0  0  0  0  0  0  0  0  0  0  0
   19.5500   32.4390   69.6140 H   0  0  0  0  0  0  0  0  0  0  0  0
   21.9070   35.0960   71.8760 H   0  0  0  0  0  0  0  0  0  0  0  0
   20.0360   35.2920   73.5380 H   0  0  0  0  0  0  0  0  0  0  0  0
   17.9660   34.0710   73.1880 H   0  0  0  0  0  0  0  0  0  0  0  0
   16.6710   37.2720   70.3910 H   0  0  0  0  0  0  0  0  0  0  0  0
   15.5460   38.2210   71.5100 H   0  0  0  0  0  0  0  0  0  0  0  0
   15.5590   38.5020   69.7630 H   0  0  0  0  0  0  0  0  0  0  0  0
   10.5040   36.8010   70.4730 H   0  0  0  0  0  0  0  0  0  0  0  0
   10.9420   36.7610   68.6970 H   0  0  0  0  0  0  0  0  0  0  0  0
   10.5750   35.2160   69.5200 H   0  0  0  0  0  0  0  0  0  0  0  0
  1  2  2  1  0  0  0
  1  5  1  0  0  0  0
  1 13  1  0  0  0  0
  2  3  1  0  0  0  0
  3  4  2  0  0  0  0
  4  5  1  0  0  0  0
  4 31  1  0  0  0  0
  5  6  2  0  0  0  0
  6  7  1  0  0  0  0
  7 12  2  0  0  0  0
  7  8  1  0  0  0  0
  8 33  1  6  0  0  0
  8 23  1  0  0  0  0
  8  9  1  0  0  0  0
  9 14  1  0  0  0  0
 10  9  1  0  0  0  0
 10 11  2  0  0  0  0
 12 10  1  0  0  0  0
 13 12  1  0  0  0  0
 14 15  1  0  0  0  0
 14 34  1  0  0  0  0
 15 16  1  0  0  0  0
 15 36  1  0  0  0  0
 16 38  1  0  0  0  0
 16 17  1  0  0  0  0
 17 18  1  0  0  0  0
 17 40  1  0  0  0  0
 18 41  1  0  0  0  0
 18 42  1  0  0  0  0
 19 44  1  0  0  0  0
 19 18  1  0  0  0  0
 20 21  1  0  0  0  0
 20 19  1  0  0  0  0
 21 45  1  0  0  0  0
 21 22  1  0  0  0  0
 22 17  1  0  0  0  0
 22 47  1  0  0  0  0
 23 28  1  0  0  0  0
 24 25  1  0  0  0  0
 24 23  2  0  0  0  0
 25 26  2  0  0  0  0
 26 50  1  0  0  0  0
 26 27  1  0  0  0  0
 27 51  1  0  0  0  0
 28 27  2  0  0  0  0
 28 52  1  0  0  0  0
 29 25  1  0  0  0  0
 30  6  1  0  0  0  0
 31 54  1  0  0  0  0
 32  2  1  0  0  0  0
 32 56  1  0  0  0  0
 35 14  1  0  0  0  0
 37 15  1  0  0  0  0
 39 16  1  0  0  0  0
 43 19  1  0  0  0  0
 46 21  1  0  0  0  0
 48 22  1  0  0  0  0
 49 24  1  0  0  0  0
 53 31  1  0  0  0  0
 55 31  1  0  0  0  0
 57 32  1  0  0  0  0
 58 32  1  0  0  0  0
M  END
>  <Pose>
1

>  <Score>
-6.13

$$$$
