
 OpenBabel03212208413D

 58 61  0  0  1  0  0  0  0  0999 V2000
   12.6630   34.9510   69.5670 S   0  0  0  0  0  0  0  0  0  0  0  0
   12.1800   36.4350   68.8820 C   0  0  0  0  0  0  0  0  0  0  0  0
   13.1880   37.2280   69.1830 N   0  0  0  0  0  0  0  0  0  0  0  0
   14.2010   36.7660   69.8500 C   0  0  0  0  0  0  0  0  0  0  0  0
   14.1700   35.4420   70.2170 C   0  0  0  0  0  0  0  0  0  0  0  0
   15.1460   34.6640   71.0110 C   0  0  0  0  0  0  0  0  0  0  0  0
   14.8280   33.5030   71.5030 C   0  0  0  0  0  0  0  0  0  0  0  0
   15.7340   32.6300   72.3120 C   0  0  1  0  0  0  0  0  0  0  0  0
   15.3140   31.3070   71.9330 N   0  0  0  0  0  0  0  0  0  0  0  0
   13.8970   31.4020   71.7320 C   0  0  0  0  0  0  0  0  0  0  0  0
   13.0850   30.4600   71.7830 O   0  0  0  0  0  0  0  0  0  0  0  0
   13.5570   32.7910   71.4580 C   0  0  0  0  0  0  0  0  0  0  0  0
   12.4460   33.3410   71.2270 O   0  0  0  0  0  0  0  0  0  0  0  0
   16.1700   30.1640   71.8210 C   0  0  0  0  0  0  0  0  0  0  0  0
   16.5870   29.5540   73.0940 C   0  0  0  0  0  0  0  0  0  0  0  0
   17.2480   28.2750   73.0610 C   0  0  0  0  0  0  0  0  0  0  0  0
   16.7400   27.0230   72.7580 N   0  0  0  0  0  4  0  0  0  0  0  0
   16.0120   26.4420   73.9460 C   0  0  0  0  0  0  0  0  0  0  0  0
   17.0090   25.8770   74.9020 C   0  0  0  0  0  0  0  0  0  0  0  0
   17.5800   24.7640   74.2940 O   0  0  0  0  0  0  0  0  0  0  0  0
   18.3910   25.2800   73.2590 C   0  0  0  0  0  0  0  0  0  0  0  0
   17.5550   25.9860   72.2280 C   0  0  0  0  0  0  0  0  0  0  0  0
   17.1450   32.9510   72.0520 C   0  0  0  0  0  0  0  0  0  0  0  0
   17.9990   33.6110   72.8920 C   0  0  0  0  0  0  0  0  0  0  0  0
   19.3160   33.8970   72.6080 C   0  0  0  0  0  0  0  0  0  0  0  0
   19.8270   33.4970   71.3990 C   0  0  0  0  0  0  0  0  0  0  0  0
   19.0210   32.8320   70.5140 C   0  0  0  0  0  0  0  0  0  0  0  0
   17.7090   32.5620   70.8290 C   0  0  0  0  0  0  0  0  0  0  0  0
   21.6610   33.8940   71.0080 B   0  0  0  0  0  0  0  0  0  0  0  0
   16.4340   35.1790   71.2400 O   0  0  0  0  0  0  0  0  0  0  0  0
   15.3650   37.6660   70.2540 C   0  0  0  0  0  0  0  0  0  0  0  0
   10.9310   36.7910   68.1210 C   0  0  0  0  0  0  0  0  0  0  0  0
   15.5090   32.7440   73.3900 H   0  0  0  0  0  0  0  0  0  0  0  0
   15.7820   29.4590   71.1080 H   0  0  0  0  0  0  0  0  0  0  0  0
   17.1270   30.5730   71.3040 H   0  0  0  0  0  0  0  0  0  0  0  0
   17.1070   30.3620   73.6850 H   0  0  0  0  0  0  0  0  0  0  0  0
   15.6160   29.4740   73.7100 H   0  0  0  0  0  0  0  0  0  0  0  0
   18.2360   28.4710   72.4480 H   0  0  0  0  0  0  0  0  0  0  0  0
   17.7610   28.1570   74.0980 H   0  0  0  0  0  0  0  0  0  0  0  0
   15.9400   27.1170   72.0860 H   0  0  0  0  0  0  0  0  0  0  0  0
   15.3270   27.1880   74.3110 H   0  0  0  0  0  0  0  0  0  0  0  0
   15.4280   25.5930   73.5500 H   0  0  0  0  0  0  0  0  0  0  0  0
   16.4710   25.6190   75.8350 H   0  0  0  0  0  0  0  0  0  0  0  0
   17.8470   26.5600   75.1380 H   0  0  0  0  0  0  0  0  0  0  0  0
   18.8710   24.4010   72.7850 H   0  0  0  0  0  0  0  0  0  0  0  0
   19.1700   25.8750   73.7300 H   0  0  0  0  0  0  0  0  0  0  0  0
   16.8800   25.1290   71.8280 H   0  0  0  0  0  0  0  0  0  0  0  0
   18.1360   26.2510   71.3680 H   0  0  0  0  0  0  0  0  0  0  0  0
   17.6160   33.9310   73.8510 H   0  0  0  0  0  0  0  0  0  0  0  0
   19.9120   34.4280   73.3480 H   0  0  0  0  0  0  0  0  0  0  0  0
   19.4640   32.5280   69.5570 H   0  0  0  0  0  0  0  0  0  0  0  0
   17.0910   32.0380   70.1200 H   0  0  0  0  0  0  0  0  0  0  0  0
   15.9390   37.2170   71.0520 H   0  0  0  0  0  0  0  0  0  0  0  0
   15.9940   37.9170   69.3800 H   0  0  0  0  0  0  0  0  0  0  0  0
   14.9590   38.6400   70.6310 H   0  0  0  0  0  0  0  0  0  0  0  0
   10.0990   36.1420   68.5000 H   0  0  0  0  0  0  0  0  0  0  0  0
   10.6140   37.8360   68.3760 H   0  0  0  0  0  0  0  0  0  0  0  0
   11.0640   36.6680   67.0430 H   0  0  0  0  0  0  0  0  0  0  0  0
  1  5  1  0  0  0  0
  2  3  2  0  0  0  0
  2  1  1  0  0  0  0
  3  4  1  0  0  0  0
  4  5  2  0  0  0  0
  4 31  1  0  0  0  0
  5  6  1  0  0  0  0
  6 30  1  0  0  0  0
  6  7  2  0  0  0  0
  7  8  1  0  0  0  0
  8 33  1  1  0  0  0
  9  8  1  0  0  0  0
 10 11  2  0  0  0  0
 10  9  1  0  0  0  0
 12  7  1  0  0  0  0
 12 10  1  0  0  0  0
 13 12  2  0  0  0  0
 14  9  1  0  0  0  0
 14 15  1  0  0  0  0
 15 36  1  0  0  0  0
 15 37  1  0  0  0  0
 16 15  1  0  0  0  0
 16 39  1  0  0  0  0
 17 16  1  0  0  0  0
 17 18  1  0  0  0  0
 18 41  1  0  0  0  0
 18 19  1  0  0  0  0
 19 44  1  0  0  0  0
 19 43  1  0  0  0  0
 20 19  1  0  0  0  0
 21 46  1  0  0  0  0
 21 20  1  0  0  0  0
 22 17  1  0  0  0  0
 22 21  1  0  0  0  0
 23  8  1  0  0  0  0
 23 24  1  0  0  0  0
 24 49  1  0  0  0  0
 25 24  2  0  0  0  0
 25 50  1  0  0  0  0
 26 25  1  0  0  0  0
 27 28  1  0  0  0  0
 27 26  2  0  0  0  0
 28 23  2  0  0  0  0
 29 26  1  0  0  0  0
 31 55  1  0  0  0  0
 31 53  1  0  0  0  0
 32 57  1  0  0  0  0
 32 56  1  0  0  0  0
 32  2  1  0  0  0  0
 34 14  1  0  0  0  0
 35 14  1  0  0  0  0
 38 16  1  0  0  0  0
 40 17  1  0  0  0  0
 42 18  1  0  0  0  0
 45 21  1  0  0  0  0
 47 22  1  0  0  0  0
 48 22  1  0  0  0  0
 51 27  1  0  0  0  0
 52 28  1  0  0  0  0
 54 31  1  0  0  0  0
 58 32  1  0  0  0  0
M  END
>  <Pose>
1

>  <Score>
-6.74

$$$$
