
 OpenBabel03212208413D

 55 58  0  0  1  0  0  0  0  0999 V2000
   17.1290   27.2540   72.8300 S   0  0  0  0  0  0  0  0  0  0  0  0
   16.5510   26.0840   73.9210 C   0  0  0  0  0  0  0  0  0  0  0  0
   15.5530   26.7130   74.5070 N   0  0  0  0  0  0  0  0  0  0  0  0
   15.2620   27.9320   74.1710 C   0  0  0  0  0  0  0  0  0  0  0  0
   16.0250   28.5260   73.1940 C   0  0  0  0  0  0  0  0  0  0  0  0
   15.9680   29.8860   72.6360 C   0  0  0  0  0  0  0  0  0  0  0  0
   17.0560   30.6190   72.7390 C   0  0  0  0  0  0  0  0  0  0  0  0
   17.3040   32.0160   72.2690 C   0  0  1  0  0  0  0  0  0  0  0  0
   18.5710   31.8740   71.6640 N   0  0  0  0  0  0  0  0  0  0  0  0
   19.3220   31.1220   72.6960 C   0  0  0  0  0  0  0  0  0  0  0  0
   20.5610   31.1750   72.9220 O   0  0  0  0  0  0  0  0  0  0  0  0
   18.3290   30.3080   73.3890 C   0  0  0  0  0  0  0  0  0  0  0  0
   18.4660   29.4910   74.3510 O   0  0  0  0  0  0  0  0  0  0  0  0
   19.2940   32.2690   70.5030 C   0  0  0  0  0  0  0  0  0  0  0  0
   20.7620   32.2500   70.5030 C   0  0  0  0  0  0  0  0  0  0  0  0
   21.5210   32.7470   69.4290 N   0  0  0  0  0  4  0  0  0  0  0  0
   21.2020   34.1040   69.0390 C   0  0  0  0  0  0  0  0  0  0  0  0
   22.0250   34.3920   67.7870 C   0  0  0  0  0  0  0  0  0  0  0  0
   23.0530   33.4610   67.6400 O   0  0  0  0  0  0  0  0  0  0  0  0
   23.7450   33.4670   68.8680 C   0  0  0  0  0  0  0  0  0  0  0  0
   22.9130   32.8780   69.9710 C   0  0  0  0  0  0  0  0  0  0  0  0
   16.2030   32.7350   71.7300 C   0  0  0  0  0  0  0  0  0  0  0  0
   14.9410   32.1330   71.7150 C   0  0  0  0  0  0  0  0  0  0  0  0
   13.8310   32.7500   71.1990 C   0  0  0  0  0  0  0  0  0  0  0  0
   13.9790   34.0170   70.6750 C   0  0  0  0  0  0  0  0  0  0  0  0
   15.2160   34.6280   70.6790 C   0  0  0  0  0  0  0  0  0  0  0  0
   16.3160   33.9890   71.2030 C   0  0  0  0  0  0  0  0  0  0  0  0
   12.4820   34.9480   69.9340 B   0  0  0  0  0  0  0  0  0  0  0  0
   14.8400   30.4020   72.0240 O   0  0  0  0  0  0  0  0  0  0  0  0
   14.1420   28.6910   74.8670 C   0  0  0  0  0  0  0  0  0  0  0  0
   17.0470   24.6830   74.1590 C   0  0  0  0  0  0  0  0  0  0  0  0
   17.5480   32.5470   73.2710 H   0  0  0  0  0  0  0  0  0  0  0  0
   18.9880   33.3360   70.2500 H   0  0  0  0  0  0  0  0  0  0  0  0
   18.9750   31.7130   69.5840 H   0  0  0  0  0  0  0  0  0  0  0  0
   21.0770   31.1610   70.6300 H   0  0  0  0  0  0  0  0  0  0  0  0
   21.0900   32.7350   71.4850 H   0  0  0  0  0  0  0  0  0  0  0  0
   21.5870   32.0750   68.6570 H   0  0  0  0  0  0  0  0  0  0  0  0
   20.1550   34.2540   68.7710 H   0  0  0  0  0  0  0  0  0  0  0  0
   21.5130   34.7800   69.8760 H   0  0  0  0  0  0  0  0  0  0  0  0
   22.4220   35.4340   67.9180 H   0  0  0  0  0  0  0  0  0  0  0  0
   21.4000   34.3140   66.8720 H   0  0  0  0  0  0  0  0  0  0  0  0
   24.7060   32.9370   68.7690 H   0  0  0  0  0  0  0  0  0  0  0  0
   23.8960   34.5620   69.0940 H   0  0  0  0  0  0  0  0  0  0  0  0
   23.2400   31.8980   70.3140 H   0  0  0  0  0  0  0  0  0  0  0  0
   22.8040   33.5880   70.8160 H   0  0  0  0  0  0  0  0  0  0  0  0
   14.7930   31.1200   72.1250 H   0  0  0  0  0  0  0  0  0  0  0  0
   12.8490   32.2590   71.1970 H   0  0  0  0  0  0  0  0  0  0  0  0
   15.3030   35.6300   70.2600 H   0  0  0  0  0  0  0  0  0  0  0  0
   17.2930   34.5230   71.1660 H   0  0  0  0  0  0  0  0  0  0  0  0
   14.2010   28.4500   75.9530 H   0  0  0  0  0  0  0  0  0  0  0  0
   13.1560   28.3780   74.5310 H   0  0  0  0  0  0  0  0  0  0  0  0
   14.2630   29.7720   74.7170 H   0  0  0  0  0  0  0  0  0  0  0  0
   17.0540   24.4280   75.2330 H   0  0  0  0  0  0  0  0  0  0  0  0
   18.0830   24.6270   73.7130 H   0  0  0  0  0  0  0  0  0  0  0  0
   16.4160   24.0060   73.5510 H   0  0  0  0  0  0  0  0  0  0  0  0
  1  5  1  0  0  0  0
  1  2  1  0  0  0  0
  2 31  1  0  0  0  0
  2  3  2  0  0  0  0
  4  3  1  0  0  0  0
  4 30  1  0  0  0  0
  5  4  2  0  0  0  0
  6  7  2  0  0  0  0
  6  5  1  0  0  0  0
  7 12  1  0  0  0  0
  8  7  1  0  0  0  0
  8 32  1  1  0  0  0
  9  8  1  0  0  0  0
  9 10  1  0  0  0  0
 10 11  2  0  0  0  0
 10 12  1  0  0  0  0
 12 13  2  0  0  0  0
 14 15  1  0  0  0  0
 14  9  1  0  0  0  0
 15 35  1  0  0  0  0
 15 36  1  0  0  0  0
 16 21  1  0  0  0  0
 16 15  1  0  0  0  0
 17 16  1  0  0  0  0
 17 39  1  0  0  0  0
 18 40  1  0  0  0  0
 18 17  1  0  0  0  0
 19 18  1  0  0  0  0
 19 20  1  0  0  0  0
 20 43  1  0  0  0  0
 20 21  1  0  0  0  0
 21 44  1  0  0  0  0
 21 45  1  0  0  0  0
 22  8  1  0  0  0  0
 23 22  1  0  0  0  0
 24 23  2  0  0  0  0
 25 26  2  0  0  0  0
 25 24  1  0  0  0  0
 26 27  1  0  0  0  0
 27 22  2  0  0  0  0
 28 25  1  0  0  0  0
 29 46  1  0  0  0  0
 29  6  1  0  0  0  0
 30 50  1  0  0  0  0
 31 53  1  0  0  0  0
 33 14  1  0  0  0  0
 34 14  1  0  0  0  0
 37 16  1  0  0  0  0
 38 17  1  0  0  0  0
 41 18  1  0  0  0  0
 42 20  1  0  0  0  0
 47 24  1  0  0  0  0
 48 26  1  0  0  0  0
 49 27  1  0  0  0  0
 51 30  1  0  0  0  0
 52 30  1  0  0  0  0
 54 31  1  0  0  0  0
 55 31  1  0  0  0  0
M  END
>  <Pose>
1

>  <Score>
-5.95

$$$$
