
 OpenBabel03212208413D

 39 42  0  0  1  0  0  0  0  0999 V2000
   19.4130   32.4380   69.9960 S   0  0  0  0  0  0  0  0  0  0  0  0
   18.3610   32.2380   71.3390 C   0  0  0  0  0  0  0  0  0  0  0  0
   18.7680   33.2350   72.1840 C   0  0  0  0  0  0  0  0  0  0  0  0
   19.7760   34.0210   71.7760 C   0  0  0  0  0  0  0  0  0  0  0  0
   20.3190   33.7640   70.5460 C   0  0  0  0  0  0  0  0  0  0  0  0
   21.4460   34.6540   70.1080 C   0  0  0  0  0  0  0  0  0  0  0  0
   20.9840   36.0380   70.1980 N   0  0  0  0  0  4  0  0  0  0  0  0
   20.4630   36.3790   71.4850 C   0  0  0  0  0  0  0  0  0  0  0  0
   20.4620   35.1990   72.4510 C   0  0  0  0  0  0  0  0  0  0  0  0
   19.8880   36.1500   69.2350 C   0  0  0  0  0  0  0  0  0  0  0  0
   18.0110   33.2980   73.4650 C   0  0  0  0  0  0  0  0  0  0  0  0
   18.2860   34.1760   74.3360 O   0  0  0  0  0  0  0  0  0  0  0  0
   16.9740   32.3570   73.6930 N   0  0  0  0  0  0  0  0  0  0  0  0
   16.2860   31.6380   72.6610 C   0  0  2  0  0  0  0  0  0  0  0  0
   17.2870   31.3200   71.6540 N   0  0  0  0  0  0  0  0  0  0  0  0
   15.1950   32.4290   72.0400 C   0  0  0  0  0  0  0  0  0  0  0  0
   15.4140   33.6850   71.5130 C   0  0  0  0  0  0  0  0  0  0  0  0
   14.4150   34.4330   70.9320 C   0  0  0  0  0  0  0  0  0  0  0  0
   13.1330   33.9270   70.8630 C   0  0  0  0  0  0  0  0  0  0  0  0
   12.8910   32.6780   71.3810 C   0  0  0  0  0  0  0  0  0  0  0  0
   13.8990   31.9330   71.9620 C   0  0  0  0  0  0  0  0  0  0  0  0
   11.0920   32.0130   71.2630 B   0  0  0  0  0  0  0  0  0  0  0  0
   12.1210   34.6760   70.2790 O   0  0  0  0  0  0  0  0  0  0  0  0
   14.7290   36.1580   70.2120 B   0  0  0  0  0  0  0  0  0  0  0  0
   22.3620   34.4800   70.6840 H   0  0  0  0  0  0  0  0  0  0  0  0
   21.6470   34.4800   69.0280 H   0  0  0  0  0  0  0  0  0  0  0  0
   21.7240   36.6840   69.8570 H   0  0  0  0  0  0  0  0  0  0  0  0
   19.3840   36.7100   71.4370 H   0  0  0  0  0  0  0  0  0  0  0  0
   20.9970   37.2090   71.9750 H   0  0  0  0  0  0  0  0  0  0  0  0
   19.9770   35.4720   73.3850 H   0  0  0  0  0  0  0  0  0  0  0  0
   21.5190   34.8870   72.5650 H   0  0  0  0  0  0  0  0  0  0  0  0
   19.9780   35.3950   68.4210 H   0  0  0  0  0  0  0  0  0  0  0  0
   18.9230   35.8880   69.7590 H   0  0  0  0  0  0  0  0  0  0  0  0
   19.7620   37.1720   68.8640 H   0  0  0  0  0  0  0  0  0  0  0  0
   16.7030   32.1850   74.7030 H   0  0  0  0  0  0  0  0  0  0  0  0
   15.8640   30.7090   73.0710 H   0  0  0  0  0  0  0  0  0  0  0  0
   17.2740   30.4270   71.1210 H   0  0  0  0  0  0  0  0  0  0  0  0
   16.4130   34.0920   71.5610 H   0  0  0  0  0  0  0  0  0  0  0  0
   13.6960   30.9590   72.3630 H   0  0  0  0  0  0  0  0  0  0  0  0
  1  5  1  0  0  0  0
  1  2  1  0  0  0  0
  2 15  1  0  0  0  0
  2  3  2  0  0  0  0
  3 11  1  0  0  0  0
  4  3  1  0  0  0  0
  4  9  1  0  0  0  0
  5  4  2  0  0  0  0
  6  7  1  0  0  0  0
  6  5  1  0  0  0  0
  6 25  1  0  0  0  0
  7  8  1  0  0  0  0
  8 29  1  0  0  0  0
  8  9  1  0  0  0  0
  9 31  1  0  0  0  0
  9 30  1  0  0  0  0
 10 33  1  0  0  0  0
 10  7  1  0  0  0  0
 11 13  1  0  0  0  0
 11 12  2  0  0  0  0
 13 35  1  0  0  0  0
 14 36  1  1  0  0  0
 14 13  1  0  0  0  0
 15 14  1  0  0  0  0
 16 14  1  0  0  0  0
 17 38  1  0  0  0  0
 17 16  2  0  0  0  0
 18 17  1  0  0  0  0
 19 18  2  0  0  0  0
 19 20  1  0  0  0  0
 20 21  2  0  0  0  0
 21 16  1  0  0  0  0
 21 39  1  0  0  0  0
 22 20  1  0  0  0  0
 23 19  1  0  0  0  0
 24 18  1  0  0  0  0
 26  6  1  0  0  0  0
 27  7  1  0  0  0  0
 28  8  1  0  0  0  0
 32 10  1  0  0  0  0
 34 10  1  0  0  0  0
 37 15  1  0  0  0  0
M  END
>  <Pose>
1

>  <Score>
-6.49

$$$$
