
 OpenBabel03212208413D

 46 49  0  0  1  0  0  0  0  0999 V2000
   13.0160   30.0060   74.7470 S   0  0  0  0  0  0  0  0  0  0  0  0
   13.6240   30.0510   73.1530 C   0  0  0  0  0  0  0  0  0  0  0  0
   14.8590   29.4780   73.2790 C   0  0  0  0  0  0  0  0  0  0  0  0
   15.2250   29.0690   74.5200 C   0  0  0  0  0  0  0  0  0  0  0  0
   14.3230   29.2700   75.5350 C   0  0  0  0  0  0  0  0  0  0  0  0
   14.6080   28.8670   76.9430 C   0  0  0  0  0  0  0  0  0  0  0  0
   15.4390   27.7180   77.0630 N   0  0  0  0  0  4  0  0  0  0  0  0
   16.1290   27.3070   75.8890 C   0  0  0  0  0  0  0  0  0  0  0  0
   16.5360   28.4000   74.9520 C   0  0  0  0  0  0  0  0  0  0  0  0
   16.3380   27.8390   78.2040 C   0  0  0  0  0  0  0  0  0  0  0  0
   15.6120   29.3890   71.9900 C   0  0  0  0  0  0  0  0  0  0  0  0
   16.7770   28.8750   71.9780 O   0  0  0  0  0  0  0  0  0  0  0  0
   15.0260   29.8770   70.7990 N   0  0  0  0  0  0  0  0  0  0  0  0
   14.0460   30.9400   70.8370 C   0  0  1  0  0  0  0  0  0  0  0  0
   13.1080   30.5350   71.8840 N   0  0  0  0  0  0  0  0  0  0  0  0
   14.7550   32.1800   71.2460 C   0  0  0  0  0  0  0  0  0  0  0  0
   14.3560   33.4100   70.7680 C   0  0  0  0  0  0  0  0  0  0  0  0
   15.0000   34.5720   71.1350 C   0  0  0  0  0  0  0  0  0  0  0  0
   16.0790   34.5080   72.0060 C   0  0  0  0  0  0  0  0  0  0  0  0
   16.5010   33.2920   72.5000 C   0  0  0  0  0  0  0  0  0  0  0  0
   15.8440   32.1640   72.1190 C   0  0  0  0  0  0  0  0  0  0  0  0
   17.5790   33.2830   73.3650 O   0  0  0  0  0  0  0  0  0  0  0  0
   18.9210   33.3760   73.0020 C   0  0  0  0  0  0  0  0  0  0  0  0
   19.4280   32.0790   72.4110 C   0  0  0  0  0  0  0  0  0  0  0  0
   16.7460   35.6690   72.3910 O   0  0  0  0  0  0  0  0  0  0  0  0
   14.4580   36.2780   70.4820 B   0  0  0  0  0  0  0  0  0  0  0  0
   15.1400   29.7330   77.4110 H   0  0  0  0  0  0  0  0  0  0  0  0
   13.6450   28.7720   77.4800 H   0  0  0  0  0  0  0  0  0  0  0  0
   14.7940   26.9090   77.3280 H   0  0  0  0  0  0  0  0  0  0  0  0
   15.5630   26.5410   75.3190 H   0  0  0  0  0  0  0  0  0  0  0  0
   17.0750   26.7920   76.2170 H   0  0  0  0  0  0  0  0  0  0  0  0
   17.2000   29.1430   75.4220 H   0  0  0  0  0  0  0  0  0  0  0  0
   16.9950   27.9140   74.0760 H   0  0  0  0  0  0  0  0  0  0  0  0
   16.4430   26.8870   78.7570 H   0  0  0  0  0  0  0  0  0  0  0  0
   15.9200   28.6130   78.8970 H   0  0  0  0  0  0  0  0  0  0  0  0
   17.3550   28.1460   77.8920 H   0  0  0  0  0  0  0  0  0  0  0  0
   15.3020   29.4680   69.8780 H   0  0  0  0  0  0  0  0  0  0  0  0
   13.5160   31.0500   69.8860 H   0  0  0  0  0  0  0  0  0  0  0  0
   12.0790   30.5650   71.7930 H   0  0  0  0  0  0  0  0  0  0  0  0
   13.5260   33.4850   70.0940 H   0  0  0  0  0  0  0  0  0  0  0  0
   16.1480   31.2080   72.4840 H   0  0  0  0  0  0  0  0  0  0  0  0
   19.0290   34.2160   72.2830 H   0  0  0  0  0  0  0  0  0  0  0  0
   19.5530   33.6190   73.8800 H   0  0  0  0  0  0  0  0  0  0  0  0
   18.5820   31.3610   72.3970 H   0  0  0  0  0  0  0  0  0  0  0  0
   19.8810   32.2440   71.4080 H   0  0  0  0  0  0  0  0  0  0  0  0
   20.1890   31.6080   73.0910 H   0  0  0  0  0  0  0  0  0  0  0  0
  1  5  1  0  0  0  0
  2  3  2  0  0  0  0
  2  1  1  0  0  0  0
  3  4  1  0  0  0  0
  4  9  1  0  0  0  0
  4  5  2  0  0  0  0
  5  6  1  0  0  0  0
  6  7  1  0  0  0  0
  6 27  1  0  0  0  0
  6 28  1  0  0  0  0
  7 29  1  0  0  0  0
  7 10  1  0  0  0  0
  8 31  1  0  0  0  0
  8  7  1  0  0  0  0
  9 32  1  0  0  0  0
  9  8  1  0  0  0  0
 10 34  1  0  0  0  0
 10 35  1  0  0  0  0
 11  3  1  0  0  0  0
 12 11  2  0  0  0  0
 13 14  1  0  0  0  0
 13 11  1  0  0  0  0
 14 38  1  6  0  0  0
 14 16  1  0  0  0  0
 14 15  1  0  0  0  0
 15  2  1  0  0  0  0
 16 21  1  0  0  0  0
 17 18  1  0  0  0  0
 17 16  2  0  0  0  0
 18 19  2  0  0  0  0
 19 25  1  0  0  0  0
 19 20  1  0  0  0  0
 20 22  1  0  0  0  0
 21 41  1  0  0  0  0
 21 20  2  0  0  0  0
 23 22  1  0  0  0  0
 23 43  1  0  0  0  0
 24 23  1  0  0  0  0
 24 46  1  0  0  0  0
 26 18  1  0  0  0  0
 30  8  1  0  0  0  0
 33  9  1  0  0  0  0
 36 10  1  0  0  0  0
 37 13  1  0  0  0  0
 39 15  1  0  0  0  0
 40 17  1  0  0  0  0
 42 23  1  0  0  0  0
 44 24  1  0  0  0  0
 45 24  1  0  0  0  0
M  END
>  <Pose>
1

>  <Score>
-6.07

$$$$
