
 OpenBabel03212208413D

 40 43  0  0  1  0  0  0  0  0999 V2000
   19.8310   30.3980   73.6540 S   0  0  0  0  0  0  0  0  0  0  0  0
   20.0900   31.9140   72.6960 C   0  0  2  0  0  0  0  0  0  0  0  0
   18.6710   32.4090   72.6350 C   0  0  0  0  0  0  0  0  0  0  0  0
   17.7260   31.3350   72.5840 N   0  0  0  0  0  0  0  0  0  0  0  0
   18.1600   30.1570   73.0600 C   0  0  2  0  0  0  0  0  0  0  0  0
   17.1920   29.2430   72.9280 N   0  0  0  0  0  0  0  0  0  0  0  0
   16.1170   29.8340   72.3610 C   0  0  0  0  0  0  0  0  0  0  0  0
   16.4360   31.1520   72.1390 C   0  0  0  0  0  0  0  0  0  0  0  0
   15.5460   32.1160   71.5350 C   0  0  0  0  0  0  0  0  0  0  0  0
   14.1680   31.8350   71.5500 C   0  0  0  0  0  0  0  0  0  0  0  0
   13.2640   32.7240   71.0300 C   0  0  0  0  0  0  0  0  0  0  0  0
   13.6310   33.9230   70.4720 C   0  0  0  0  0  0  0  0  0  0  0  0
   14.9740   34.2220   70.4460 C   0  0  0  0  0  0  0  0  0  0  0  0
   15.8990   33.3150   70.9770 C   0  0  0  0  0  0  0  0  0  0  0  0
   12.6370   34.7860   69.9560 N   0  0  0  0  0  0  0  0  0  0  0  0
   11.4810   34.7530   70.3940 O   0  0  0  0  0  0  0  0  0  0  0  0
   12.9610   35.6620   68.9660 O   0  0  0  0  0  0  0  0  0  0  0  0
   17.2590   27.8740   73.3120 C   0  0  0  0  0  0  0  0  0  0  0  0
   17.4080   26.8640   72.3900 C   0  0  0  0  0  0  0  0  0  0  0  0
   17.4760   25.5310   72.7360 C   0  0  0  0  0  0  0  0  0  0  0  0
   17.3890   25.1690   74.0620 C   0  0  0  0  0  0  0  0  0  0  0  0
   17.2370   26.1580   75.0180 C   0  0  0  0  0  0  0  0  0  0  0  0
   17.1740   27.4850   74.6450 C   0  0  0  0  0  0  0  0  0  0  0  0
   17.4780   23.3290   74.5800 B   0  0  0  0  0  0  0  0  0  0  0  0
   20.5330   31.6050   71.2860 C   0  0  0  0  0  0  0  0  0  0  0  0
   20.7500   32.6300   73.2070 H   0  0  0  0  0  0  0  0  0  0  0  0
   18.5080   33.0340   73.5440 H   0  0  0  0  0  0  0  0  0  0  0  0
   18.5690   33.0480   71.7150 H   0  0  0  0  0  0  0  0  0  0  0  0
   15.1620   29.3270   72.1280 H   0  0  0  0  0  0  0  0  0  0  0  0
   13.8210   30.8980   71.9760 H   0  0  0  0  0  0  0  0  0  0  0  0
   12.2070   32.4590   71.0660 H   0  0  0  0  0  0  0  0  0  0  0  0
   15.3160   35.1560   70.0160 H   0  0  0  0  0  0  0  0  0  0  0  0
   16.9160   33.6240   70.9470 H   0  0  0  0  0  0  0  0  0  0  0  0
   17.4780   27.1510   71.3320 H   0  0  0  0  0  0  0  0  0  0  0  0
   17.5950   24.8050   71.9460 H   0  0  0  0  0  0  0  0  0  0  0  0
   17.1680   25.8870   76.0740 H   0  0  0  0  0  0  0  0  0  0  0  0
   17.0550   28.2970   75.3580 H   0  0  0  0  0  0  0  0  0  0  0  0
   21.5770   31.2850   71.2340 H   0  0  0  0  0  0  0  0  0  0  0  0
   19.8660   30.7940   70.9150 H   0  0  0  0  0  0  0  0  0  0  0  0
   20.3950   32.5130   70.6710 H   0  0  0  0  0  0  0  0  0  0  0  0
  2 26  1  1  0  0  0
  2  1  1  0  0  0  0
  3  2  1  0  0  0  0
  3 27  1  0  0  0  0
  4  3  1  0  0  0  0
  4  5  1  0  0  0  0
  5  1  1  1  0  0  0
  6  5  1  0  0  0  0
  6 18  1  0  0  0  0
  7  6  1  0  0  0  0
  8  7  2  0  0  0  0
  8  4  1  0  0  0  0
  9 10  1  0  0  0  0
  9  8  1  0  0  0  0
 10 30  1  0  0  0  0
 11 31  1  0  0  0  0
 11 10  2  0  0  0  0
 12 11  1  0  0  0  0
 13 12  2  0  0  0  0
 13 14  1  0  0  0  0
 14  9  2  0  0  0  0
 15 16  2  0  0  0  0
 15 12  1  0  0  0  0
 17 15  2  0  0  0  0
 18 23  1  0  0  0  0
 19 20  1  0  0  0  0
 19 18  2  0  0  0  0
 20 21  2  0  0  0  0
 21 24  1  0  0  0  0
 21 22  1  0  0  0  0
 22 36  1  0  0  0  0
 23 22  2  0  0  0  0
 23 37  1  0  0  0  0
 25  2  1  0  0  0  0
 28  3  1  0  0  0  0
 29  7  1  0  0  0  0
 32 13  1  0  0  0  0
 33 14  1  0  0  0  0
 34 19  1  0  0  0  0
 35 20  1  0  0  0  0
 38 25  1  0  0  0  0
 39 25  1  0  0  0  0
 40 25  1  0  0  0  0
M  END
>  <Pose>
1

>  <Score>
-5.68

$$$$
