
 OpenBabel03212208413D

 45 48  0  0  1  0  0  0  0  0999 V2000
   19.0980   32.4710   70.2920 S   0  0  0  0  0  0  0  0  0  0  0  0
   20.0090   31.3010   71.3730 C   0  0  0  0  0  0  0  0  0  0  0  0
   20.2700   32.0950   72.6550 C   0  0  0  0  0  0  0  0  0  0  0  0
   21.2420   33.2200   72.3130 C   0  0  0  0  0  0  0  0  0  0  0  0
   20.4630   34.3130   71.7850 N   0  0  1  0  0  0  0  0  0  0  0  0
   19.5150   34.0960   70.9110 C   0  0  2  0  0  0  0  0  0  0  0  0
   18.9170   35.3820   70.5980 N   0  0  0  0  0  0  0  0  0  0  0  0
   20.0730   36.2510   70.6370 C   0  0  2  0  0  0  0  0  0  0  0  0
   20.5050   35.7520   72.0650 C   0  0  0  0  0  0  0  0  0  0  0  0
   19.8160   37.5850   70.6290 O   0  0  0  0  0  0  0  0  0  0  0  0
   21.0740   35.7850   69.6700 C   0  0  0  0  0  0  0  0  0  0  0  0
   22.3350   36.3460   69.5590 C   0  0  0  0  0  0  0  0  0  0  0  0
   23.2260   35.8680   68.5870 C   0  0  0  0  0  0  0  0  0  0  0  0
   22.9060   34.8730   67.7420 C   0  0  0  0  0  0  0  0  0  0  0  0
   21.6300   34.2770   67.8300 C   0  0  0  0  0  0  0  0  0  0  0  0
   20.7810   34.7770   68.8010 C   0  0  0  0  0  0  0  0  0  0  0  0
   23.7770   34.3630   66.7440 O   0  0  0  0  0  0  0  0  0  0  0  0
   24.6480   33.2920   67.0390 C   0  0  0  0  0  0  0  0  0  0  0  0
   17.5480   35.6560   70.4020 C   0  0  0  0  0  0  0  0  0  0  0  0
   16.6140   34.6780   70.8240 C   0  0  0  0  0  0  0  0  0  0  0  0
   15.2540   34.8350   70.6250 C   0  0  0  0  0  0  0  0  0  0  0  0
   14.7540   35.9480   70.0060 C   0  0  0  0  0  0  0  0  0  0  0  0
   15.6380   36.9180   69.5830 C   0  0  0  0  0  0  0  0  0  0  0  0
   17.0210   36.7530   69.7910 C   0  0  0  0  0  0  0  0  0  0  0  0
   12.8870   36.1990   69.6910 B   0  0  0  0  0  0  0  0  0  0  0  0
   19.3100   30.4740   71.5870 H   0  0  0  0  0  0  0  0  0  0  0  0
   20.9510   30.9870   70.9050 H   0  0  0  0  0  0  0  0  0  0  0  0
   20.6120   31.4540   73.4680 H   0  0  0  0  0  0  0  0  0  0  0  0
   19.2690   32.5370   72.9360 H   0  0  0  0  0  0  0  0  0  0  0  0
   21.7610   33.5360   73.2460 H   0  0  0  0  0  0  0  0  0  0  0  0
   22.0340   32.9120   71.6200 H   0  0  0  0  0  0  0  0  0  0  0  0
   21.4530   36.1350   72.3670 H   0  0  0  0  0  0  0  0  0  0  0  0
   19.6310   36.0060   72.6990 H   0  0  0  0  0  0  0  0  0  0  0  0
   19.6980   37.8920   71.5800 H   0  0  0  0  0  0  0  0  0  0  0  0
   22.6240   37.1410   70.2100 H   0  0  0  0  0  0  0  0  0  0  0  0
   24.2010   36.3400   68.5390 H   0  0  0  0  0  0  0  0  0  0  0  0
   21.3590   33.4910   67.1630 H   0  0  0  0  0  0  0  0  0  0  0  0
   19.8140   34.2910   68.8420 H   0  0  0  0  0  0  0  0  0  0  0  0
   24.9710   32.8450   66.0830 H   0  0  0  0  0  0  0  0  0  0  0  0
   24.1780   32.4780   67.6240 H   0  0  0  0  0  0  0  0  0  0  0  0
   25.5530   33.6410   67.6160 H   0  0  0  0  0  0  0  0  0  0  0  0
   16.9680   33.7950   71.3080 H   0  0  0  0  0  0  0  0  0  0  0  0
   14.5480   34.0720   70.9540 H   0  0  0  0  0  0  0  0  0  0  0  0
   15.2650   37.7960   69.0890 H   0  0  0  0  0  0  0  0  0  0  0  0
   17.6970   37.5320   69.4400 H   0  0  0  0  0  0  0  0  0  0  0  0
  1  2  1  0  0  0  0
  2 26  1  0  0  0  0
  2  3  1  0  0  0  0
  3 29  1  0  0  0  0
  3 28  1  0  0  0  0
  4  3  1  0  0  0  0
  4 30  1  0  0  0  0
  5  9  1  1  0  0  0
  5  4  1  0  0  0  0
  6  1  1  1  0  0  0
  6  5  1  0  0  0  0
  7  8  1  0  0  0  0
  7  6  1  0  0  0  0
  8 10  1  6  0  0  0
  8  9  1  0  0  0  0
  9 32  1  0  0  0  0
  9 33  1  0  0  0  0
 10 34  1  0  0  0  0
 11  8  1  0  0  0  0
 12 11  1  0  0  0  0
 12 35  1  0  0  0  0
 13 12  2  0  0  0  0
 14 15  2  0  0  0  0
 14 13  1  0  0  0  0
 15 16  1  0  0  0  0
 16 38  1  0  0  0  0
 16 11  2  0  0  0  0
 17 18  1  0  0  0  0
 17 14  1  0  0  0  0
 18 41  1  0  0  0  0
 18 40  1  0  0  0  0
 19  7  1  0  0  0  0
 19 20  1  0  0  0  0
 20 42  1  0  0  0  0
 21 20  2  0  0  0  0
 21 43  1  0  0  0  0
 22 21  1  0  0  0  0
 23 24  1  0  0  0  0
 23 22  2  0  0  0  0
 24 19  2  0  0  0  0
 25 22  1  0  0  0  0
 27  2  1  0  0  0  0
 31  4  1  0  0  0  0
 36 13  1  0  0  0  0
 37 15  1  0  0  0  0
 39 18  1  0  0  0  0
 44 23  1  0  0  0  0
 45 24  1  0  0  0  0
M  END
>  <Pose>
1

>  <Score>
-4.96

$$$$
