
 OpenBabel03212208413D

 49 52  0  0  1  0  0  0  0  0999 V2000
   16.1110   33.9920   72.0300 S   0  0  0  0  0  0  0  0  0  0  0  0
   14.8040   35.0400   71.4420 C   0  0  0  0  0  0  0  0  0  0  0  0
   13.5060   34.2590   71.3990 C   0  0  0  0  0  0  0  0  0  0  0  0
   13.6600   33.0810   70.4530 C   0  0  0  0  0  0  0  0  0  0  0  0
   14.4590   32.0510   71.0760 N   0  0  2  0  0  0  0  0  0  0  0  0
   14.2040   30.6700   71.3300 C   0  0  2  0  0  0  0  0  0  0  0  0
   15.6100   30.1160   71.1650 C   0  0  0  0  0  0  0  0  0  0  0  0
   16.4400   31.1680   71.7100 N   0  0  0  0  0  0  0  0  0  0  0  0
   15.7800   32.2680   71.6020 C   0  0  2  0  0  0  0  0  0  0  0  0
   17.7250   31.0360   72.2990 C   0  0  0  0  0  0  0  0  0  0  0  0
   17.9900   29.8560   72.9810 C   0  0  0  0  0  0  0  0  0  0  0  0
   19.2240   29.6620   73.6100 C   0  0  0  0  0  0  0  0  0  0  0  0
   20.1850   30.6560   73.5520 C   0  0  0  0  0  0  0  0  0  0  0  0
   19.9570   31.8360   72.8850 C   0  0  0  0  0  0  0  0  0  0  0  0
   18.6950   31.9690   72.2740 C   0  0  0  0  0  0  0  0  0  0  0  0
   20.8760   32.8670   72.7910 O   0  0  0  0  0  0  0  0  0  0  0  0
   21.1740   33.6000   71.6380 C   0  0  0  0  0  0  0  0  0  0  0  0
   17.0280   28.8690   73.0380 O   0  0  0  0  0  0  0  0  0  0  0  0
   17.2490   27.5040   72.7710 C   0  0  0  0  0  0  0  0  0  0  0  0
   13.3470   30.1510   70.3650 O   0  0  0  0  0  0  0  0  0  0  0  0
   13.7560   30.3430   72.6980 C   0  0  0  0  0  0  0  0  0  0  0  0
   12.8720   31.0530   73.4480 C   0  0  0  0  0  0  0  0  0  0  0  0
   12.5460   30.6710   74.7510 C   0  0  0  0  0  0  0  0  0  0  0  0
   13.1130   29.5560   75.3310 C   0  0  0  0  0  0  0  0  0  0  0  0
   14.0000   28.8370   74.5890 C   0  0  0  0  0  0  0  0  0  0  0  0
   14.3180   29.2120   73.3140 C   0  0  0  0  0  0  0  0  0  0  0  0
   12.6610   29.0470   77.1240 B   0  0  0  0  0  0  0  0  0  0  0  0
   14.6560   35.9370   72.1010 H   0  0  0  0  0  0  0  0  0  0  0  0
   15.0170   35.3730   70.3860 H   0  0  0  0  0  0  0  0  0  0  0  0
   13.2650   33.8870   72.4220 H   0  0  0  0  0  0  0  0  0  0  0  0
   12.6890   34.8850   71.0090 H   0  0  0  0  0  0  0  0  0  0  0  0
   12.6230   32.6880   70.2770 H   0  0  0  0  0  0  0  0  0  0  0  0
   14.1380   33.4490   69.5260 H   0  0  0  0  0  0  0  0  0  0  0  0
   15.5960   29.1800   71.7220 H   0  0  0  0  0  0  0  0  0  0  0  0
   15.8110   29.9600   70.0900 H   0  0  0  0  0  0  0  0  0  0  0  0
   19.4150   28.7270   74.1400 H   0  0  0  0  0  0  0  0  0  0  0  0
   21.1530   30.5360   74.0340 H   0  0  0  0  0  0  0  0  0  0  0  0
   18.5560   32.8950   71.7720 H   0  0  0  0  0  0  0  0  0  0  0  0
   21.6530   34.5910   71.9140 H   0  0  0  0  0  0  0  0  0  0  0  0
   21.9420   32.9780   71.0930 H   0  0  0  0  0  0  0  0  0  0  0  0
   20.2910   33.8240   71.0070 H   0  0  0  0  0  0  0  0  0  0  0  0
   17.8990   27.3900   71.8970 H   0  0  0  0  0  0  0  0  0  0  0  0
   17.8010   27.0150   73.6140 H   0  0  0  0  0  0  0  0  0  0  0  0
   16.2880   26.9760   72.5540 H   0  0  0  0  0  0  0  0  0  0  0  0
   13.8560   29.6310   69.7020 H   0  0  0  0  0  0  0  0  0  0  0  0
   12.4130   31.9200   73.0320 H   0  0  0  0  0  0  0  0  0  0  0  0
   11.8200   31.2650   75.3400 H   0  0  0  0  0  0  0  0  0  0  0  0
   14.4280   27.9660   75.0710 H   0  0  0  0  0  0  0  0  0  0  0  0
   15.0270   28.6170   72.7620 H   0  0  0  0  0  0  0  0  0  0  0  0
  2  1  1  0  0  0  0
  2 28  1  0  0  0  0
  3  2  1  0  0  0  0
  3 30  1  0  0  0  0
  4  3  1  0  0  0  0
  5  4  1  1  0  0  0
  5  6  1  0  0  0  0
  5  9  1  0  0  0  0
  6 20  1  6  0  0  0
  6 21  1  0  0  0  0
  7  6  1  0  0  0  0
  7  8  1  0  0  0  0
  7 34  1  0  0  0  0
  8 10  1  0  0  0  0
  9  8  1  0  0  0  0
  9  1  1  1  0  0  0
 10 11  1  0  0  0  0
 11 18  1  0  0  0  0
 11 12  2  0  0  0  0
 12 36  1  0  0  0  0
 13 12  1  0  0  0  0
 13 37  1  0  0  0  0
 14 13  2  0  0  0  0
 15 10  2  0  0  0  0
 15 14  1  0  0  0  0
 16 14  1  0  0  0  0
 17 39  1  0  0  0  0
 17 16  1  0  0  0  0
 19 18  1  0  0  0  0
 19 43  1  0  0  0  0
 21 26  2  0  0  0  0
 21 22  1  0  0  0  0
 22 23  2  0  0  0  0
 23 24  1  0  0  0  0
 23 47  1  0  0  0  0
 24 27  1  0  0  0  0
 25 48  1  0  0  0  0
 25 24  2  0  0  0  0
 26 25  1  0  0  0  0
 29  2  1  0  0  0  0
 31  3  1  0  0  0  0
 32  4  1  0  0  0  0
 33  4  1  0  0  0  0
 35  7  1  0  0  0  0
 38 15  1  0  0  0  0
 40 17  1  0  0  0  0
 41 17  1  0  0  0  0
 42 19  1  0  0  0  0
 44 19  1  0  0  0  0
 45 20  1  0  0  0  0
 46 22  1  0  0  0  0
 49 26  1  0  0  0  0
M  END
>  <Pose>
1

>  <Score>
-5.68

$$$$
