
 OpenBabel03212208413D

 43 46  0  0  1  0  0  0  0  0999 V2000
   14.0590   31.1820   71.2450 S   0  0  0  0  0  0  0  0  0  0  0  0
   13.6660   30.0830   72.6690 C   0  0  0  0  0  0  0  0  0  0  0  0
   14.5440   30.4680   73.8470 C   0  0  0  0  0  0  0  0  0  0  0  0
   15.9750   30.6630   73.4170 C   0  0  0  0  0  0  0  0  0  0  0  0
   16.1380   31.9630   72.8490 N   0  0  2  0  0  0  0  0  0  0  0  0
   17.1150   33.0340   72.9190 C   0  0  1  0  0  0  0  0  0  0  0  0
   16.2820   34.2750   72.6510 C   0  0  0  0  0  0  0  0  0  0  0  0
   15.1940   33.7210   71.8220 N   0  0  0  0  0  0  0  0  0  0  0  0
   15.1300   32.4560   71.9520 C   0  0  1  0  0  0  0  0  0  0  0  0
   14.3290   34.5100   71.0080 C   0  0  0  0  0  0  0  0  0  0  0  0
   13.0940   34.1480   70.5590 C   0  0  0  0  0  0  0  0  0  0  0  0
   12.2950   34.9770   69.7820 C   0  0  0  0  0  0  0  0  0  0  0  0
   12.7500   36.2320   69.4340 C   0  0  0  0  0  0  0  0  0  0  0  0
   14.0050   36.6340   69.8740 C   0  0  0  0  0  0  0  0  0  0  0  0
   14.7870   35.7880   70.6500 C   0  0  0  0  0  0  0  0  0  0  0  0
   11.7260   37.4440   68.3640 B   0  0  0  0  0  0  0  0  0  0  0  0
   17.7540   33.0850   74.1420 O   0  0  0  0  0  0  0  0  0  0  0  0
   18.1260   32.9250   71.8400 C   0  0  0  0  0  0  0  0  0  0  0  0
   19.2630   33.7070   71.8840 C   0  0  0  0  0  0  0  0  0  0  0  0
   20.1880   33.5710   70.8490 C   0  0  0  0  0  0  0  0  0  0  0  0
   19.9790   32.6960   69.8260 C   0  0  0  0  0  0  0  0  0  0  0  0
   18.8450   31.9050   69.7700 C   0  0  0  0  0  0  0  0  0  0  0  0
   17.9220   32.0470   70.8130 C   0  0  0  0  0  0  0  0  0  0  0  0
   21.3590   34.3700   70.8850 N   0  0  0  0  0  0  0  0  0  0  0  0
   21.3590   35.5140   71.3810 O   0  0  0  0  0  0  0  0  0  0  0  0
   22.5420   33.9160   70.3760 O   0  0  0  0  0  0  0  0  0  0  0  0
   13.7780   29.0360   72.3860 H   0  0  0  0  0  0  0  0  0  0  0  0
   12.6220   30.2690   72.9720 H   0  0  0  0  0  0  0  0  0  0  0  0
   14.5210   29.6320   74.5840 H   0  0  0  0  0  0  0  0  0  0  0  0
   14.1940   31.3740   74.3490 H   0  0  0  0  0  0  0  0  0  0  0  0
   16.6540   30.4490   74.2580 H   0  0  0  0  0  0  0  0  0  0  0  0
   16.1960   29.9140   72.5990 H   0  0  0  0  0  0  0  0  0  0  0  0
   15.8870   34.7220   73.5690 H   0  0  0  0  0  0  0  0  0  0  0  0
   16.8250   35.0360   72.0470 H   0  0  0  0  0  0  0  0  0  0  0  0
   12.7000   33.1760   70.7990 H   0  0  0  0  0  0  0  0  0  0  0  0
   11.3140   34.6770   69.4330 H   0  0  0  0  0  0  0  0  0  0  0  0
   14.3420   37.6260   69.5930 H   0  0  0  0  0  0  0  0  0  0  0  0
   15.7660   36.1260   70.9820 H   0  0  0  0  0  0  0  0  0  0  0  0
   17.5100   32.3990   74.7790 H   0  0  0  0  0  0  0  0  0  0  0  0
   19.4260   34.3980   72.6920 H   0  0  0  0  0  0  0  0  0  0  0  0
   20.6950   32.5900   69.0230 H   0  0  0  0  0  0  0  0  0  0  0  0
   18.7040   31.2250   68.9650 H   0  0  0  0  0  0  0  0  0  0  0  0
   17.0450   31.4230   70.7490 H   0  0  0  0  0  0  0  0  0  0  0  0
  1  2  1  0  0  0  0
  2 28  1  0  0  0  0
  2  3  1  0  0  0  0
  3 30  1  0  0  0  0
  3 29  1  0  0  0  0
  4  3  1  0  0  0  0
  4 31  1  0  0  0  0
  5  6  1  0  0  0  0
  5  4  1  1  0  0  0
  6 17  1  1  0  0  0
  7  6  1  0  0  0  0
  7 33  1  0  0  0  0
  8  9  1  0  0  0  0
  8  7  1  0  0  0  0
  9  1  1  6  0  0  0
  9  5  1  0  0  0  0
 10  8  1  0  0  0  0
 11 35  1  0  0  0  0
 11 10  2  0  0  0  0
 12 11  1  0  0  0  0
 13 12  2  0  0  0  0
 13 14  1  0  0  0  0
 14 15  2  0  0  0  0
 15 38  1  0  0  0  0
 15 10  1  0  0  0  0
 16 13  1  0  0  0  0
 17 39  1  0  0  0  0
 18 19  1  0  0  0  0
 18  6  1  0  0  0  0
 19 40  1  0  0  0  0
 20 24  1  0  0  0  0
 20 19  2  0  0  0  0
 21 20  1  0  0  0  0
 22 21  2  0  0  0  0
 22 23  1  0  0  0  0
 23 18  2  0  0  0  0
 24 25  2  0  0  0  0
 26 24  2  0  0  0  0
 27  2  1  0  0  0  0
 32  4  1  0  0  0  0
 34  7  1  0  0  0  0
 36 12  1  0  0  0  0
 37 14  1  0  0  0  0
 41 21  1  0  0  0  0
 42 22  1  0  0  0  0
 43 23  1  0  0  0  0
M  END
>  <Pose>
1

>  <Score>
-5.75

$$$$
