
 OpenBabel03212208413D

 43 46  0  0  1  0  0  0  0  0999 V2000
   18.0220   32.9320   73.1010 S   0  0  0  0  0  0  0  0  0  0  0  0
   19.5930   32.1230   72.5960 C   0  0  0  0  0  0  0  0  0  0  0  0
   19.6250   30.6790   72.8720 C   0  0  0  0  0  0  0  0  0  0  0  0
   18.5760   30.0760   73.7130 C   0  0  0  0  0  0  0  0  0  0  0  0
   17.2330   30.3710   73.4220 N   0  0  1  0  0  0  0  0  0  0  0  0
   15.9960   29.6720   73.5960 C   0  0  2  0  0  0  0  0  0  0  0  0
   15.2300   30.1540   72.3840 C   0  0  0  0  0  0  0  0  0  0  0  0
   15.7050   31.5150   72.2570 N   0  0  0  0  0  0  0  0  0  0  0  0
   16.8130   31.6240   72.8230 C   0  0  1  0  0  0  0  0  0  0  0  0
   14.9990   32.5730   71.5970 C   0  0  0  0  0  0  0  0  0  0  0  0
   15.7240   33.6560   71.1220 C   0  0  0  0  0  0  0  0  0  0  0  0
   15.1030   34.7310   70.4890 C   0  0  0  0  0  0  0  0  0  0  0  0
   13.7370   34.7490   70.3170 C   0  0  0  0  0  0  0  0  0  0  0  0
   13.0060   33.6830   70.7820 C   0  0  0  0  0  0  0  0  0  0  0  0
   13.6570   32.6170   71.4160 C   0  0  0  0  0  0  0  0  0  0  0  0
   12.8840   36.2440   69.4580 B   0  0  0  0  0  0  0  0  0  0  0  0
   15.3310   30.1860   74.7120 O   0  0  0  0  0  0  0  0  0  0  0  0
   16.0790   28.2000   73.6430 C   0  0  0  0  0  0  0  0  0  0  0  0
   15.3540   27.5530   74.6390 C   0  0  0  0  0  0  0  0  0  0  0  0
   15.3660   26.1820   74.7620 C   0  0  0  0  0  0  0  0  0  0  0  0
   16.0960   25.3800   73.9030 C   0  0  0  0  0  0  0  0  0  0  0  0
   16.8160   26.0170   72.9110 C   0  0  0  0  0  0  0  0  0  0  0  0
   16.8030   27.4110   72.7880 C   0  0  0  0  0  0  0  0  0  0  0  0
   16.0900   23.9720   74.0490 N   0  0  0  0  0  0  0  0  0  0  0  0
   17.1110   23.2980   74.2270 O   0  0  0  0  0  0  0  0  0  0  0  0
   14.8920   23.3050   73.9980 O   0  0  0  0  0  0  0  0  0  0  0  0
   19.7190   32.3300   71.4920 H   0  0  0  0  0  0  0  0  0  0  0  0
   20.3900   32.6860   73.0800 H   0  0  0  0  0  0  0  0  0  0  0  0
   19.7040   30.1210   71.9130 H   0  0  0  0  0  0  0  0  0  0  0  0
   20.6180   30.4640   73.3860 H   0  0  0  0  0  0  0  0  0  0  0  0
   18.7580   30.3780   74.7910 H   0  0  0  0  0  0  0  0  0  0  0  0
   18.7520   28.9770   73.7360 H   0  0  0  0  0  0  0  0  0  0  0  0
   15.6290   29.5230   71.5320 H   0  0  0  0  0  0  0  0  0  0  0  0
   14.1460   30.0470   72.5070 H   0  0  0  0  0  0  0  0  0  0  0  0
   16.7970   33.6820   71.2450 H   0  0  0  0  0  0  0  0  0  0  0  0
   15.7000   35.5710   70.1290 H   0  0  0  0  0  0  0  0  0  0  0  0
   11.9420   33.6840   70.6700 H   0  0  0  0  0  0  0  0  0  0  0  0
   13.0510   31.7910   71.7840 H   0  0  0  0  0  0  0  0  0  0  0  0
   15.9570   30.7070   75.2410 H   0  0  0  0  0  0  0  0  0  0  0  0
   14.7700   28.1610   75.3330 H   0  0  0  0  0  0  0  0  0  0  0  0
   14.8090   25.6430   75.5350 H   0  0  0  0  0  0  0  0  0  0  0  0
   17.4010   25.4080   72.2220 H   0  0  0  0  0  0  0  0  0  0  0  0
   17.3800   27.8880   72.0010 H   0  0  0  0  0  0  0  0  0  0  0  0
  2  3  1  0  0  0  0
  2 28  1  0  0  0  0
  2  1  1  0  0  0  0
  3 30  1  0  0  0  0
  3  4  1  0  0  0  0
  4 32  1  0  0  0  0
  4 31  1  0  0  0  0
  5  6  1  0  0  0  0
  5  4  1  1  0  0  0
  6 18  1  0  0  0  0
  6 17  1  1  0  0  0
  7 34  1  0  0  0  0
  7  6  1  0  0  0  0
  8  7  1  0  0  0  0
  8  9  1  0  0  0  0
  9  1  1  1  0  0  0
  9  5  1  0  0  0  0
 10  8  1  0  0  0  0
 11 35  1  0  0  0  0
 11 10  2  0  0  0  0
 12 11  1  0  0  0  0
 13 12  2  0  0  0  0
 13 14  1  0  0  0  0
 14 15  2  0  0  0  0
 15 10  1  0  0  0  0
 15 38  1  0  0  0  0
 16 13  1  0  0  0  0
 17 39  1  0  0  0  0
 18 19  1  0  0  0  0
 19 20  2  0  0  0  0
 19 40  1  0  0  0  0
 20 41  1  0  0  0  0
 21 24  1  0  0  0  0
 21 20  1  0  0  0  0
 22 21  2  0  0  0  0
 23 22  1  0  0  0  0
 23 18  2  0  0  0  0
 24 25  2  0  0  0  0
 26 24  2  0  0  0  0
 27  2  1  0  0  0  0
 29  3  1  0  0  0  0
 33  7  1  0  0  0  0
 36 12  1  0  0  0  0
 37 14  1  0  0  0  0
 42 22  1  0  0  0  0
 43 23  1  0  0  0  0
M  END
>  <Pose>
1

>  <Score>
-5.94

$$$$
