
 OpenBabel03212208413D

 45 49  0  0  1  0  0  0  0  0999 V2000
   17.1250   28.2800   71.5760 S   0  0  0  0  0  0  0  0  0  0  0  0
   17.7930   28.3640   73.3060 C   0  0  0  0  0  0  0  0  0  0  0  0
   18.1180   29.8360   73.3090 C   0  0  0  0  0  0  0  0  0  0  0  0
   17.0660   30.5810   72.6770 N   0  0  0  0  0  0  0  0  0  0  0  0
   16.3920   29.9010   71.6410 C   0  0  0  0  0  0  0  0  0  0  0  0
   15.4600   30.4570   70.9910 N   0  0  0  0  0  0  0  0  0  0  0  0
   15.0400   31.8140   71.2360 C   0  0  0  0  0  0  0  0  0  0  0  0
   13.9050   32.2470   70.9200 O   0  0  0  0  0  0  0  0  0  0  0  0
   16.0200   32.7180   71.8970 C   0  0  1  0  0  0  0  0  0  0  0  0
   16.6590   31.9400   72.9830 C   0  0  0  0  0  0  0  0  0  0  0  0
   16.8730   32.3670   74.1430 O   0  0  0  0  0  0  0  0  0  0  0  0
   16.9840   33.1690   70.8560 C   0  0  2  0  0  0  0  0  0  0  0  0
   18.4310   32.9950   71.2460 C   0  0  2  0  0  0  0  0  0  0  0  0
   19.0630   34.2080   71.7890 C   0  0  0  0  0  0  0  0  0  0  0  0
   18.8100   34.5770   72.9890 O   0  0  0  0  0  0  0  0  0  0  0  0
   19.9680   34.9900   70.9700 N   0  0  0  0  0  0  0  0  0  0  0  0
   20.4720   36.3030   71.2630 C   0  0  0  0  0  0  0  0  0  0  0  0
   20.7260   37.0730   69.9920 C   0  0  0  0  0  0  0  0  0  0  0  0
   21.4890   35.6810   69.0340 S   0  0  0  0  0  0  0  0  0  0  0  0
   20.4430   34.4240   69.7660 C   0  0  0  0  0  0  0  0  0  0  0  0
   20.1130   33.2560   69.3710 N   0  0  0  0  0  0  0  0  0  0  0  0
   19.2210   32.4220   70.1280 C   0  0  0  0  0  0  0  0  0  0  0  0
   19.1410   31.2090   69.8110 O   0  0  0  0  0  0  0  0  0  0  0  0
   16.6700   34.5650   70.4790 C   0  0  0  0  0  0  0  0  0  0  0  0
   15.3620   34.9570   70.2250 C   0  0  0  0  0  0  0  0  0  0  0  0
   15.0570   36.2560   69.8760 C   0  0  0  0  0  0  0  0  0  0  0  0
   16.0540   37.2010   69.7720 C   0  0  0  0  0  0  0  0  0  0  0  0
   17.3350   36.8140   70.0220 C   0  0  0  0  0  0  0  0  0  0  0  0
   17.6560   35.5190   70.3710 C   0  0  0  0  0  0  0  0  0  0  0  0
   13.2630   36.8040   69.5250 B   0  0  0  0  0  0  0  0  0  0  0  0
   17.0020   28.1430   74.0230 H   0  0  0  0  0  0  0  0  0  0  0  0
   18.7010   27.7740   73.3860 H   0  0  0  0  0  0  0  0  0  0  0  0
   18.2260   30.1480   74.3660 H   0  0  0  0  0  0  0  0  0  0  0  0
   19.0740   29.9550   72.7440 H   0  0  0  0  0  0  0  0  0  0  0  0
   15.4980   33.6120   72.3260 H   0  0  0  0  0  0  0  0  0  0  0  0
   16.8400   32.5210   69.9460 H   0  0  0  0  0  0  0  0  0  0  0  0
   18.4970   32.2060   72.0580 H   0  0  0  0  0  0  0  0  0  0  0  0
   21.4490   36.2730   71.7980 H   0  0  0  0  0  0  0  0  0  0  0  0
   19.7170   36.8920   71.8240 H   0  0  0  0  0  0  0  0  0  0  0  0
   19.8060   37.4110   69.4920 H   0  0  0  0  0  0  0  0  0  0  0  0
   21.4640   37.8520   70.1730 H   0  0  0  0  0  0  0  0  0  0  0  0
   14.5700   34.2310   70.3000 H   0  0  0  0  0  0  0  0  0  0  0  0
   15.8250   38.2400   69.4960 H   0  0  0  0  0  0  0  0  0  0  0  0
   18.1510   37.5450   69.9470 H   0  0  0  0  0  0  0  0  0  0  0  0
   18.7150   35.2750   70.5620 H   0  0  0  0  0  0  0  0  0  0  0  0
  1  5  1  0  0  0  0
  1  2  1  0  0  0  0
  2  3  1  0  0  0  0
  2 32  1  0  0  0  0
  2 31  1  0  0  0  0
  3 33  1  0  0  0  0
  4 10  1  0  0  0  0
  4  3  1  0  0  0  0
  5  4  1  0  0  0  0
  6  7  1  0  0  0  0
  6  5  2  0  0  0  0
  7  9  1  0  0  0  0
  8  7  2  0  0  0  0
  9 35  1  1  0  0  0
  9 10  1  0  0  0  0
 10 11  2  0  0  0  0
 12 36  1  6  0  0  0
 12 13  1  0  0  0  0
 12  9  1  0  0  0  0
 13 14  1  0  0  0  0
 13 37  1  1  0  0  0
 14 15  2  0  0  0  0
 16 17  1  0  0  0  0
 16 14  1  0  0  0  0
 17 38  1  0  0  0  0
 17 39  1  0  0  0  0
 18 41  1  0  0  0  0
 18 17  1  0  0  0  0
 19 20  1  0  0  0  0
 19 18  1  0  0  0  0
 20 16  1  0  0  0  0
 21 20  2  0  0  0  0
 21 22  1  0  0  0  0
 22 13  1  0  0  0  0
 23 22  2  0  0  0  0
 24 12  1  0  0  0  0
 25 42  1  0  0  0  0
 25 24  2  0  0  0  0
 26 25  1  0  0  0  0
 27 26  2  0  0  0  0
 27 28  1  0  0  0  0
 28 29  2  0  0  0  0
 29 24  1  0  0  0  0
 29 45  1  0  0  0  0
 30 26  1  0  0  0  0
 34  3  1  0  0  0  0
 40 18  1  0  0  0  0
 43 27  1  0  0  0  0
 44 28  1  0  0  0  0
M  END
>  <Pose>
1

>  <Score>
-4.99

$$$$
