
 OpenBabel03212208413D

 45 49  0  0  1  0  0  0  0  0999 V2000
   16.9250   26.0010   72.5670 S   0  0  0  0  0  0  0  0  0  0  0  0
   18.7580   25.8480   72.4120 C   0  0  0  0  0  0  0  0  0  0  0  0
   19.1620   26.8280   73.4670 C   0  0  0  0  0  0  0  0  0  0  0  0
   18.2990   27.9480   73.5010 N   0  0  0  0  0  0  0  0  0  0  0  0
   16.9690   27.7380   73.0820 C   0  0  0  0  0  0  0  0  0  0  0  0
   16.0550   28.6560   73.0700 N   0  0  0  0  0  0  0  0  0  0  0  0
   16.3490   29.9980   73.5480 C   0  0  0  0  0  0  0  0  0  0  0  0
   15.3310   30.6050   73.9610 O   0  0  0  0  0  0  0  0  0  0  0  0
   17.7180   30.4280   73.4900 C   0  0  1  0  0  0  0  0  0  0  0  0
   18.6120   29.2930   73.9320 C   0  0  0  0  0  0  0  0  0  0  0  0
   19.6030   29.4990   74.6550 O   0  0  0  0  0  0  0  0  0  0  0  0
   18.2890   31.1380   72.3350 C   0  0  2  0  0  0  0  0  0  0  0  0
   19.7360   31.3370   72.1830 C   0  0  1  0  0  0  0  0  0  0  0  0
   19.9630   31.9990   70.8240 C   0  0  0  0  0  0  0  0  0  0  0  0
   19.9260   31.3080   69.7810 O   0  0  0  0  0  0  0  0  0  0  0  0
   20.2210   33.4200   70.7440 N   0  0  0  0  0  0  0  0  0  0  0  0
   20.1280   34.2520   69.5940 C   0  0  0  0  0  0  0  0  0  0  0  0
   19.7640   35.6670   69.9680 C   0  0  0  0  0  0  0  0  0  0  0  0
   20.8210   35.7830   71.4880 S   0  0  0  0  0  0  0  0  0  0  0  0
   20.6320   34.0670   71.9340 C   0  0  0  0  0  0  0  0  0  0  0  0
   20.7880   33.4750   73.0520 N   0  0  0  0  0  0  0  0  0  0  0  0
   20.5390   32.0400   73.1480 C   0  0  0  0  0  0  0  0  0  0  0  0
   21.0760   31.4780   74.1190 O   0  0  0  0  0  0  0  0  0  0  0  0
   17.4690   32.3470   71.9380 C   0  0  0  0  0  0  0  0  0  0  0  0
   17.7010   33.5760   72.5060 C   0  0  0  0  0  0  0  0  0  0  0  0
   16.9340   34.6470   72.1240 C   0  0  0  0  0  0  0  0  0  0  0  0
   15.9420   34.5550   71.2000 C   0  0  0  0  0  0  0  0  0  0  0  0
   15.6850   33.3390   70.6150 C   0  0  0  0  0  0  0  0  0  0  0  0
   16.4650   32.2500   71.0030 C   0  0  0  0  0  0  0  0  0  0  0  0
   14.8740   36.0590   70.6720 B   0  0  0  0  0  0  0  0  0  0  0  0
   19.0090   24.8150   72.7250 H   0  0  0  0  0  0  0  0  0  0  0  0
   19.0890   26.1010   71.4040 H   0  0  0  0  0  0  0  0  0  0  0  0
   19.2210   26.3050   74.4570 H   0  0  0  0  0  0  0  0  0  0  0  0
   20.1970   27.1560   73.1980 H   0  0  0  0  0  0  0  0  0  0  0  0
   17.8380   31.1640   74.3750 H   0  0  0  0  0  0  0  0  0  0  0  0
   18.0300   30.4120   71.4510 H   0  0  0  0  0  0  0  0  0  0  0  0
   20.2260   30.3080   71.9890 H   0  0  0  0  0  0  0  0  0  0  0  0
   21.0910   34.2770   69.0210 H   0  0  0  0  0  0  0  0  0  0  0  0
   19.3060   33.8950   68.9370 H   0  0  0  0  0  0  0  0  0  0  0  0
   18.7240   35.7700   70.2750 H   0  0  0  0  0  0  0  0  0  0  0  0
   20.1070   36.3710   69.2150 H   0  0  0  0  0  0  0  0  0  0  0  0
   18.4990   33.6910   73.2570 H   0  0  0  0  0  0  0  0  0  0  0  0
   17.1260   35.6120   72.5800 H   0  0  0  0  0  0  0  0  0  0  0  0
   14.8960   33.2340   69.8690 H   0  0  0  0  0  0  0  0  0  0  0  0
   16.2320   31.3040   70.5170 H   0  0  0  0  0  0  0  0  0  0  0  0
  1  5  1  0  0  0  0
  2  1  1  0  0  0  0
  2 31  1  0  0  0  0
  2  3  1  0  0  0  0
  3  4  1  0  0  0  0
  3 33  1  0  0  0  0
  4 10  1  0  0  0  0
  5  4  1  0  0  0  0
  6  5  2  0  0  0  0
  6  7  1  0  0  0  0
  7  8  2  0  0  0  0
  9  7  1  0  0  0  0
  9 10  1  0  0  0  0
  9 35  1  1  0  0  0
 10 11  2  0  0  0  0
 12 36  1  6  0  0  0
 12  9  1  0  0  0  0
 13 37  1  6  0  0  0
 13 12  1  0  0  0  0
 13 22  1  0  0  0  0
 14 13  1  0  0  0  0
 15 14  2  0  0  0  0
 16 14  1  0  0  0  0
 16 20  1  0  0  0  0
 17 18  1  0  0  0  0
 17 16  1  0  0  0  0
 18 40  1  0  0  0  0
 18 19  1  0  0  0  0
 19 20  1  0  0  0  0
 20 21  2  0  0  0  0
 21 22  1  0  0  0  0
 22 23  2  0  0  0  0
 24 12  1  0  0  0  0
 24 25  1  0  0  0  0
 25 42  1  0  0  0  0
 26 25  2  0  0  0  0
 26 43  1  0  0  0  0
 27 26  1  0  0  0  0
 28 29  1  0  0  0  0
 28 27  2  0  0  0  0
 29 24  2  0  0  0  0
 30 27  1  0  0  0  0
 32  2  1  0  0  0  0
 34  3  1  0  0  0  0
 38 17  1  0  0  0  0
 39 17  1  0  0  0  0
 41 18  1  0  0  0  0
 44 28  1  0  0  0  0
 45 29  1  0  0  0  0
M  END
>  <Pose>
1

>  <Score>
-6.33

$$$$
