
 OpenBabel03212208413D

 25 28  0  0  0  0  0  0  0  0999 V2000
   13.6740   31.2440   71.6070 S   0  0  0  0  0  0  0  0  0  0  0  0
   15.1460   30.4740   72.0430 C   0  0  0  0  0  0  0  0  0  0  0  0
   16.0350   31.4100   71.7140 N   0  0  0  0  0  0  0  0  0  0  0  0
   17.2480   30.8490   72.0430 C   0  0  0  0  0  0  0  0  0  0  0  0
   17.0520   29.6310   72.5450 N   0  0  0  0  0  0  0  0  0  0  0  0
   15.7620   29.3630   72.5610 N   0  0  0  0  0  0  0  0  0  0  0  0
   18.5720   31.4810   71.8750 C   0  0  0  0  0  0  0  0  0  0  0  0
   19.1340   31.6060   70.6590 N   0  0  0  0  0  0  0  0  0  0  0  0
   20.3470   32.1860   70.5180 C   0  0  0  0  0  0  0  0  0  0  0  0
   21.0200   32.6560   71.6120 C   0  0  0  0  0  0  0  0  0  0  0  0
   20.4500   32.5260   72.8110 N   0  0  0  0  0  0  0  0  0  0  0  0
   19.2400   31.9500   72.9810 C   0  0  0  0  0  0  0  0  0  0  0  0
   15.6250   32.5070   71.2180 N   0  0  0  0  0  0  0  0  0  0  0  0
   14.3390   32.7270   71.0280 C   0  0  0  0  0  0  0  0  0  0  0  0
   13.6500   33.8990   70.4790 C   0  0  0  0  0  0  0  0  0  0  0  0
   12.3480   33.9980   70.1840 N   0  0  0  0  0  0  0  0  0  0  0  0
   12.0960   35.2260   69.7030 N   0  0  0  0  0  0  0  0  0  0  0  0
   13.2460   35.9290   69.6870 C   0  0  0  0  0  0  0  0  0  0  0  0
   14.2380   35.0790   70.1840 C   0  0  0  0  0  0  0  0  0  0  0  0
   16.0480   35.5760   70.3720 B   0  0  0  0  0  0  0  0  0  0  0  0
   20.7550   32.2650   69.5370 H   0  0  0  0  0  0  0  0  0  0  0  0
   21.9740   33.1130   71.5000 H   0  0  0  0  0  0  0  0  0  0  0  0
   18.7830   31.8470   73.9660 H   0  0  0  0  0  0  0  0  0  0  0  0
   11.1550   35.5620   69.3970 H   0  0  0  0  0  0  0  0  0  0  0  0
   13.3220   36.9490   69.3450 H   0  0  0  0  0  0  0  0  0  0  0  0
  1  2  1  0  0  0  0
  2  6  2  0  0  0  0
  3  4  1  0  0  0  0
  3  2  1  0  0  0  0
  4  5  2  0  0  0  0
  5  6  1  0  0  0  0
  7  4  1  0  0  0  0
  7 12  1  0  0  0  0
  8  7  2  0  0  0  0
  9  8  1  0  0  0  0
  9 10  2  0  0  0  0
 10 11  1  0  0  0  0
 11 12  2  0  0  0  0
 12 23  1  0  0  0  0
 13  3  1  0  0  0  0
 14 13  2  0  0  0  0
 14  1  1  0  0  0  0
 15 14  1  0  0  0  0
 16 15  2  0  0  0  0
 17 16  1  0  0  0  0
 18 17  1  0  0  0  0
 18 19  2  0  0  0  0
 19 20  1  0  0  0  0
 19 15  1  0  0  0  0
 21  9  1  0  0  0  0
 22 10  1  0  0  0  0
 24 17  1  0  0  0  0
 25 18  1  0  0  0  0
M  END
>  <Pose>
1

>  <Score>
-7.63

$$$$
