
 OpenBabel03212208413D

 45 49  0  0  1  0  0  0  0  0999 V2000
   19.2250   33.7460   72.2550 S   0  0  0  0  0  0  0  0  0  0  0  0
   19.8700   35.2380   71.5180 C   0  0  0  0  0  0  0  0  0  0  0  0
   21.0340   35.7950   71.6070 N   0  0  0  0  0  0  0  0  0  0  0  0
   21.2960   37.0240   70.8930 C   0  0  0  0  0  0  0  0  0  0  0  0
   22.0850   37.9020   71.2400 O   0  0  0  0  0  0  0  0  0  0  0  0
   20.5130   37.2300   69.5970 C   0  0  2  0  0  0  0  0  0  0  0  0
   19.1050   37.0250   70.0610 C   0  0  0  0  0  0  0  0  0  0  0  0
   18.1850   37.8740   69.8790 O   0  0  0  0  0  0  0  0  0  0  0  0
   18.8110   35.7790   70.7560 N   0  0  0  0  0  0  0  0  0  0  0  0
   17.6370   35.0760   70.7700 N   0  0  0  0  0  0  0  0  0  0  0  0
   17.5960   33.8910   71.5360 C   0  0  0  0  0  0  0  0  0  0  0  0
   16.5860   33.0430   71.7080 C   0  0  0  0  0  0  0  0  0  0  0  0
   20.9520   36.1830   68.6130 C   0  0  1  0  0  0  0  0  0  0  0  0
   20.5200   36.3410   67.2100 C   0  0  2  0  0  0  0  0  0  0  0  0
   21.5150   36.1590   66.1640 C   0  0  0  0  0  0  0  0  0  0  0  0
   21.5520   35.0680   65.5000 O   0  0  0  0  0  0  0  0  0  0  0  0
   22.4800   37.1940   65.8430 N   0  0  0  0  0  0  0  0  0  0  0  0
   23.6950   37.0520   65.2540 N   0  0  0  0  0  0  0  0  0  0  0  0
   24.4560   38.2280   65.0380 C   0  0  0  0  0  0  0  0  0  0  0  0
   25.6430   38.3710   64.4910 C   0  0  0  0  0  0  0  0  0  0  0  0
   23.4390   39.5510   65.6880 S   0  0  0  0  0  0  0  0  0  0  0  0
   22.0860   38.5030   66.1870 C   0  0  0  0  0  0  0  0  0  0  0  0
   20.9640   38.7930   66.7440 N   0  0  0  0  0  0  0  0  0  0  0  0
   20.0120   37.7650   67.0610 C   0  0  0  0  0  0  0  0  0  0  0  0
   18.7980   37.9590   67.2230 O   0  0  0  0  0  0  0  0  0  0  0  0
   22.4260   35.9630   68.6720 C   0  0  0  0  0  0  0  0  0  0  0  0
   23.3090   37.0030   68.4980 C   0  0  0  0  0  0  0  0  0  0  0  0
   24.6700   36.8070   68.5510 C   0  0  0  0  0  0  0  0  0  0  0  0
   25.1640   35.5430   68.7830 C   0  0  0  0  0  0  0  0  0  0  0  0
   24.3020   34.4600   68.9660 C   0  0  0  0  0  0  0  0  0  0  0  0
   22.9450   34.6980   68.9050 C   0  0  0  0  0  0  0  0  0  0  0  0
   27.0510   35.2370   68.8640 B   0  0  0  0  0  0  0  0  0  0  0  0
   20.6810   38.2520   69.2750 H   0  0  0  0  0  0  0  0  0  0  0  0
   16.7460   35.3830   70.2400 H   0  0  0  0  0  0  0  0  0  0  0  0
   16.7430   32.1810   72.3360 H   0  0  0  0  0  0  0  0  0  0  0  0
   15.6380   33.1820   71.2520 H   0  0  0  0  0  0  0  0  0  0  0  0
   20.4870   35.2080   68.9740 H   0  0  0  0  0  0  0  0  0  0  0  0
   19.6490   35.6830   66.9380 H   0  0  0  0  0  0  0  0  0  0  0  0
   24.1240   36.1150   64.9360 H   0  0  0  0  0  0  0  0  0  0  0  0
   26.0670   39.3490   64.4110 H   0  0  0  0  0  0  0  0  0  0  0  0
   26.1950   37.5300   64.1230 H   0  0  0  0  0  0  0  0  0  0  0  0
   22.9780   38.0170   68.3120 H   0  0  0  0  0  0  0  0  0  0  0  0
   25.3660   37.6160   68.4160 H   0  0  0  0  0  0  0  0  0  0  0  0
   24.6870   33.4610   69.1500 H   0  0  0  0  0  0  0  0  0  0  0  0
   22.2100   33.9010   69.0370 H   0  0  0  0  0  0  0  0  0  0  0  0
  2  3  2  0  0  0  0
  2  1  1  0  0  0  0
  4  5  2  0  0  0  0
  4  3  1  0  0  0  0
  6 33  1  6  0  0  0
  6  7  1  0  0  0  0
  6  4  1  0  0  0  0
  7  9  1  0  0  0  0
  8  7  2  0  0  0  0
  9 10  1  0  0  0  0
  9  2  1  0  0  0  0
 10 11  1  0  0  0  0
 11 12  2  0  0  0  0
 11  1  1  0  0  0  0
 12 35  1  0  0  0  0
 13 26  1  0  0  0  0
 13 37  1  1  0  0  0
 13  6  1  0  0  0  0
 14 38  1  6  0  0  0
 14 13  1  0  0  0  0
 15 14  1  0  0  0  0
 16 15  2  0  0  0  0
 17 15  1  0  0  0  0
 17 22  1  0  0  0  0
 18 17  1  0  0  0  0
 19 18  1  0  0  0  0
 19 21  1  0  0  0  0
 20 19  2  0  0  0  0
 21 22  1  0  0  0  0
 22 23  2  0  0  0  0
 23 24  1  0  0  0  0
 24 14  1  0  0  0  0
 24 25  2  0  0  0  0
 26 31  1  0  0  0  0
 27 28  1  0  0  0  0
 27 26  2  0  0  0  0
 28 29  2  0  0  0  0
 29 32  1  0  0  0  0
 29 30  1  0  0  0  0
 30 44  1  0  0  0  0
 31 30  2  0  0  0  0
 31 45  1  0  0  0  0
 34 10  1  0  0  0  0
 36 12  1  0  0  0  0
 39 18  1  0  0  0  0
 40 20  1  0  0  0  0
 41 20  1  0  0  0  0
 42 27  1  0  0  0  0
 43 28  1  0  0  0  0
M  END
>  <Pose>
1

>  <Score>
-5.80

$$$$
