
 OpenBabel03212208413D

 47 50  0  0  0  0  0  0  0  0999 V2000
   16.7910   34.8370   70.8240 S   0  0  0  0  0  0  0  0  0  0  0  0
   15.1530   34.3390   70.8610 C   0  0  0  0  0  0  0  0  0  0  0  0
   13.9560   34.9740   70.6590 N   0  0  0  0  0  0  0  0  0  0  0  0
   12.7950   34.3020   70.7230 C   0  0  0  0  0  0  0  0  0  0  0  0
   11.6640   34.7930   70.5520 O   0  0  0  0  0  0  0  0  0  0  0  0
   12.9110   32.9610   71.0010 C   0  0  0  0  0  0  0  0  0  0  0  0
   14.0990   32.3210   71.2050 C   0  0  0  0  0  0  0  0  0  0  0  0
   15.2690   33.0350   71.1310 N   0  0  0  0  0  0  0  0  0  0  0  0
   16.4450   32.5590   71.2730 N   0  0  0  0  0  0  0  0  0  0  0  0
   17.5090   33.3020   71.1630 C   0  0  0  0  0  0  0  0  0  0  0  0
   18.9090   32.9520   71.2670 N   0  0  0  0  0  0  0  0  0  0  0  0
   19.5290   32.1660   70.2710 C   0  0  0  0  0  0  0  0  0  0  0  0
   20.9580   31.8620   70.6560 C   0  0  0  0  0  0  0  0  0  0  0  0
   21.0280   31.5960   72.0250 O   0  0  0  0  0  0  0  0  0  0  0  0
   20.8620   32.7790   72.7560 C   0  0  0  0  0  0  0  0  0  0  0  0
   19.5680   33.4550   72.4250 C   0  0  0  0  0  0  0  0  0  0  0  0
   14.0610   30.8860   71.4800 C   0  0  0  0  0  0  0  0  0  0  0  0
   14.7770   30.0910   70.7680 O   0  0  0  0  0  0  0  0  0  0  0  0
   13.2800   30.2810   72.4860 N   0  0  0  0  0  0  0  0  0  0  0  0
   13.9310   29.6820   73.6450 C   0  0  0  0  0  0  0  0  0  0  0  0
   12.9750   29.5470   74.7720 C   0  0  0  0  0  0  0  0  0  0  0  0
   13.4580   29.2310   76.0330 C   0  0  0  0  0  0  0  0  0  0  0  0
   12.5790   29.0630   77.0730 C   0  0  0  0  0  0  0  0  0  0  0  0
   11.2250   29.1980   76.9130 C   0  0  0  0  0  0  0  0  0  0  0  0
   10.7350   29.5140   75.6600 C   0  0  0  0  0  0  0  0  0  0  0  0
   11.6250   29.6830   74.6120 C   0  0  0  0  0  0  0  0  0  0  0  0
    8.8630   29.7250   75.3520 B   0  0  0  0  0  0  0  0  0  0  0  0
   14.8210   29.0970   76.1810 O   0  0  0  0  0  0  0  0  0  0  0  0
   15.3310   28.7810   77.4760 C   0  0  0  0  0  0  0  0  0  0  0  0
   11.9740   32.3920   71.0570 H   0  0  0  0  0  0  0  0  0  0  0  0
   19.4940   32.6850   69.2730 H   0  0  0  0  0  0  0  0  0  0  0  0
   19.0430   31.1720   70.1130 H   0  0  0  0  0  0  0  0  0  0  0  0
   21.5480   32.7920   70.4540 H   0  0  0  0  0  0  0  0  0  0  0  0
   21.3270   30.9820   70.1210 H   0  0  0  0  0  0  0  0  0  0  0  0
   20.9410   32.5310   73.8560 H   0  0  0  0  0  0  0  0  0  0  0  0
   21.7540   33.4250   72.5450 H   0  0  0  0  0  0  0  0  0  0  0  0
   18.8820   33.4440   73.3260 H   0  0  0  0  0  0  0  0  0  0  0  0
   19.8170   34.5430   72.2250 H   0  0  0  0  0  0  0  0  0  0  0  0
   12.2450   30.2450   72.4200 H   0  0  0  0  0  0  0  0  0  0  0  0
   14.7530   30.3680   74.0140 H   0  0  0  0  0  0  0  0  0  0  0  0
   14.4240   28.7280   73.4180 H   0  0  0  0  0  0  0  0  0  0  0  0
   12.9730   28.8110   78.0620 H   0  0  0  0  0  0  0  0  0  0  0  0
   10.5180   29.0660   77.7330 H   0  0  0  0  0  0  0  0  0  0  0  0
   11.1720   29.9290   73.6500 H   0  0  0  0  0  0  0  0  0  0  0  0
   16.4310   28.6900   77.4320 H   0  0  0  0  0  0  0  0  0  0  0  0
   15.1000   29.5720   78.2120 H   0  0  0  0  0  0  0  0  0  0  0  0
   14.8390   27.8600   77.8240 H   0  0  0  0  0  0  0  0  0  0  0  0
  1  2  1  0  0  0  0
  1 10  1  0  0  0  0
  2  8  1  0  0  0  0
  3  4  1  0  0  0  0
  3  2  2  0  0  0  0
  4  6  1  0  0  0  0
  5  4  2  0  0  0  0
  6 30  1  0  0  0  0
  6  7  2  0  0  0  0
  7 17  1  0  0  0  0
  8  7  1  0  0  0  0
  8  9  1  0  0  0  0
 10 11  1  0  0  0  0
 10  9  2  0  0  0  0
 11 16  1  0  0  0  0
 12 13  1  0  0  0  0
 12 11  1  0  0  0  0
 13 14  1  0  0  0  0
 14 15  1  0  0  0  0
 15 35  1  0  0  0  0
 16 15  1  0  0  0  0
 16 37  1  0  0  0  0
 17 19  1  0  0  0  0
 18 17  2  0  0  0  0
 19 20  1  0  0  0  0
 20 40  1  0  0  0  0
 20 21  1  0  0  0  0
 21 22  1  0  0  0  0
 22 28  1  0  0  0  0
 22 23  2  0  0  0  0
 23 42  1  0  0  0  0
 24 23  1  0  0  0  0
 24 43  1  0  0  0  0
 25 24  2  0  0  0  0
 26 21  2  0  0  0  0
 26 25  1  0  0  0  0
 27 25  1  0  0  0  0
 28 29  1  0  0  0  0
 29 47  1  0  0  0  0
 29 46  1  0  0  0  0
 31 12  1  0  0  0  0
 32 12  1  0  0  0  0
 33 13  1  0  0  0  0
 34 13  1  0  0  0  0
 36 15  1  0  0  0  0
 38 16  1  0  0  0  0
 39 19  1  0  0  0  0
 41 20  1  0  0  0  0
 44 26  1  0  0  0  0
 45 29  1  0  0  0  0
M  END
>  <Pose>
1

>  <Score>
-7.89

$$$$
