
 OpenBabel03212208413D

 40 43  0  0  1  0  0  0  0  0999 V2000
   15.2260   36.9170   69.8740 S   0  0  0  0  0  0  0  0  0  0  0  0
   15.8110   35.6090   70.9440 C   0  0  1  0  0  0  0  0  0  0  0  0
   15.3990   34.6730   71.7360 N   0  0  0  0  0  0  0  0  0  0  0  0
   16.4780   33.9540   72.3000 C   0  0  0  0  0  0  0  0  0  0  0  0
   17.7000   34.5930   71.7250 C   0  0  0  0  0  0  0  0  0  0  0  0
   17.2110   35.6730   70.8350 N   0  0  0  0  0  0  0  0  0  0  0  0
   17.7250   36.6600   69.9860 C   0  0  0  0  0  0  0  0  0  0  0  0
   16.8610   37.4370   69.3720 C   0  0  0  0  0  0  0  0  0  0  0  0
   19.1850   36.8780   69.7250 C   0  0  0  0  0  0  0  0  0  0  0  0
   20.0850   37.0370   70.7550 C   0  0  0  0  0  0  0  0  0  0  0  0
   21.4350   37.2440   70.5710 C   0  0  0  0  0  0  0  0  0  0  0  0
   21.9550   37.3020   69.2980 C   0  0  0  0  0  0  0  0  0  0  0  0
   21.0820   37.1480   68.2580 C   0  0  0  0  0  0  0  0  0  0  0  0
   19.7050   36.9380   68.4570 C   0  0  0  0  0  0  0  0  0  0  0  0
   13.9620   34.4370   71.9620 C   0  0  0  0  0  0  0  0  0  0  0  0
   13.6250   33.1650   71.2920 C   0  0  0  0  0  0  0  0  0  0  0  0
   12.8760   33.1350   70.2950 O   0  0  0  0  0  0  0  0  0  0  0  0
   14.1680   31.9100   71.7920 C   0  0  0  0  0  0  0  0  0  0  0  0
   13.5410   31.2180   72.8300 C   0  0  0  0  0  0  0  0  0  0  0  0
   14.0400   30.0290   73.3290 C   0  0  0  0  0  0  0  0  0  0  0  0
   15.1880   29.5370   72.7680 C   0  0  0  0  0  0  0  0  0  0  0  0
   15.8450   30.1830   71.7380 C   0  0  0  0  0  0  0  0  0  0  0  0
   15.3220   31.3830   71.2510 C   0  0  0  0  0  0  0  0  0  0  0  0
   15.8700   27.8860   73.4670 B   0  0  0  0  0  0  0  0  0  0  0  0
   16.4260   32.8500   72.0860 H   0  0  0  0  0  0  0  0  0  0  0  0
   16.4290   34.0070   73.4200 H   0  0  0  0  0  0  0  0  0  0  0  0
   18.2180   33.8120   71.1290 H   0  0  0  0  0  0  0  0  0  0  0  0
   18.2780   34.9920   72.5740 H   0  0  0  0  0  0  0  0  0  0  0  0
   17.0520   38.2690   68.6700 H   0  0  0  0  0  0  0  0  0  0  0  0
   19.7460   37.0020   71.7890 H   0  0  0  0  0  0  0  0  0  0  0  0
   22.0950   37.3610   71.4160 H   0  0  0  0  0  0  0  0  0  0  0  0
   23.0100   37.4640   69.1570 H   0  0  0  0  0  0  0  0  0  0  0  0
   21.4330   37.1840   67.2270 H   0  0  0  0  0  0  0  0  0  0  0  0
   19.0680   36.8220   67.6040 H   0  0  0  0  0  0  0  0  0  0  0  0
   13.8930   34.2840   73.0770 H   0  0  0  0  0  0  0  0  0  0  0  0
   13.3620   35.2890   71.6520 H   0  0  0  0  0  0  0  0  0  0  0  0
   12.6440   31.6270   73.2490 H   0  0  0  0  0  0  0  0  0  0  0  0
   13.5600   29.5040   74.1230 H   0  0  0  0  0  0  0  0  0  0  0  0
   16.7440   29.8000   71.2970 H   0  0  0  0  0  0  0  0  0  0  0  0
   15.8570   31.8640   70.4450 H   0  0  0  0  0  0  0  0  0  0  0  0
  2  1  1  6  0  0  0
  2  3  1  0  0  0  0
  3 15  1  0  0  0  0
  3  4  1  0  0  0  0
  4 26  1  0  0  0  0
  5  4  1  0  0  0  0
  5 28  1  0  0  0  0
  6  2  1  0  0  0  0
  6  5  1  0  0  0  0
  7  6  1  0  0  0  0
  8  1  1  0  0  0  0
  8  7  2  0  0  0  0
  9  7  1  0  0  0  0
  9 10  1  0  0  0  0
 10 30  1  0  0  0  0
 11 10  2  0  0  0  0
 11 31  1  0  0  0  0
 12 11  1  0  0  0  0
 13 14  1  0  0  0  0
 13 12  2  0  0  0  0
 14  9  2  0  0  0  0
 15 35  1  0  0  0  0
 16 18  1  0  0  0  0
 16 15  1  0  0  0  0
 17 16  2  0  0  0  0
 18 19  1  0  0  0  0
 19 37  1  0  0  0  0
 19 20  2  0  0  0  0
 20 38  1  0  0  0  0
 21 20  1  0  0  0  0
 21 24  1  0  0  0  0
 22 21  2  0  0  0  0
 23 22  1  0  0  0  0
 23 18  2  0  0  0  0
 25  4  1  0  0  0  0
 27  5  1  0  0  0  0
 29  8  1  0  0  0  0
 32 12  1  0  0  0  0
 33 13  1  0  0  0  0
 34 14  1  0  0  0  0
 36 15  1  0  0  0  0
 39 22  1  0  0  0  0
 40 23  1  0  0  0  0
M  END
>  <Pose>
1

>  <Score>
-5.90

$$$$
