
 OpenBabel03212208413D

 43 45  0  0  1  0  0  0  0  0999 V2000
   16.3780   36.8830   70.3120 Cl  0  0  0  0  0  0  0  0  0  0  0  0
   14.9100   35.8840   70.3710 C   0  0  0  0  0  0  0  0  0  0  0  0
   14.9210   34.7810   71.2390 C   0  0  0  0  0  0  0  0  0  0  0  0
   13.7910   34.0180   71.2840 C   0  0  0  0  0  0  0  0  0  0  0  0
   12.6970   34.3370   70.5000 C   0  0  0  0  0  0  0  0  0  0  0  0
   12.6840   35.4250   69.6430 C   0  0  0  0  0  0  0  0  0  0  0  0
   13.8280   36.2140   69.5840 C   0  0  0  0  0  0  0  0  0  0  0  0
   16.2130   34.4600   71.9420 C   0  0  2  0  0  0  0  0  0  0  0  0
   17.2420   34.7040   70.9390 N   0  0  0  0  0  0  0  0  0  0  0  0
   17.9960   33.6400   70.4650 C   0  0  0  0  0  0  0  0  0  0  0  0
   17.4170   32.2420   70.5070 C   0  0  0  0  0  0  0  0  0  0  0  0
   16.4740   32.0540   71.5220 N   0  0  0  0  0  0  0  0  0  0  0  0
   16.2810   33.1040   72.4760 C   0  0  0  0  0  0  0  0  0  0  0  0
   15.6630   30.9060   71.7120 C   0  0  0  0  0  0  0  0  0  0  0  0
   15.6610   30.1280   70.6540 O   0  0  0  0  0  0  0  0  0  0  0  0
   14.8770   30.4370   72.7950 C   0  0  0  0  0  0  0  0  0  0  0  0
   15.5520   29.7610   73.8400 C   0  0  0  0  0  0  0  0  0  0  0  0
   14.9160   29.4060   74.9560 N   0  0  0  0  0  0  0  0  0  0  0  0
   13.6210   29.6670   75.1420 C   0  0  0  0  0  0  0  0  0  0  0  0
   12.9150   30.3180   74.1670 C   0  0  0  0  0  0  0  0  0  0  0  0
   13.5430   30.7060   72.9860 C   0  0  0  0  0  0  0  0  0  0  0  0
   11.5350   30.6340   74.3700 N   0  0  0  0  0  0  0  0  0  0  0  0
   10.9230   30.2550   75.6030 C   0  0  0  0  0  0  0  0  0  0  0  0
    9.9170   30.8100   76.0900 O   0  0  0  0  0  0  0  0  0  0  0  0
   11.5430   29.1160   76.3480 C   0  0  0  0  0  0  0  0  0  0  0  0
   12.9690   29.2820   76.3190 O   0  0  0  0  0  0  0  0  0  0  0  0
   13.7450   33.1190   71.9260 H   0  0  0  0  0  0  0  0  0  0  0  0
   11.7980   33.6950   70.5540 H   0  0  0  0  0  0  0  0  0  0  0  0
   11.7870   35.6400   69.0450 H   0  0  0  0  0  0  0  0  0  0  0  0
   13.8730   37.0750   68.9400 H   0  0  0  0  0  0  0  0  0  0  0  0
   16.3560   35.2520   72.7210 H   0  0  0  0  0  0  0  0  0  0  0  0
   16.8750   35.3210   70.1860 H   0  0  0  0  0  0  0  0  0  0  0  0
   18.2250   33.8450   69.3610 H   0  0  0  0  0  0  0  0  0  0  0  0
   19.0210   33.6230   70.9540 H   0  0  0  0  0  0  0  0  0  0  0  0
   18.3380   31.5680   70.9070 H   0  0  0  0  0  0  0  0  0  0  0  0
   17.2680   31.8360   69.5110 H   0  0  0  0  0  0  0  0  0  0  0  0
   15.3950   32.8500   73.1310 H   0  0  0  0  0  0  0  0  0  0  0  0
   17.1440   33.0640   73.2460 H   0  0  0  0  0  0  0  0  0  0  0  0
   16.6090   29.5380   73.7070 H   0  0  0  0  0  0  0  0  0  0  0  0
   12.9460   31.2290   72.3070 H   0  0  0  0  0  0  0  0  0  0  0  0
   10.9800   31.1290   73.6550 H   0  0  0  0  0  0  0  0  0  0  0  0
   11.3190   28.1440   75.9040 H   0  0  0  0  0  0  0  0  0  0  0  0
   11.2510   29.1030   77.4140 H   0  0  0  0  0  0  0  0  0  0  0  0
  2  3  1  0  0  0  0
  3  4  2  0  0  0  0
  3  8  1  0  0  0  0
  4 27  1  0  0  0  0
  5 28  1  0  0  0  0
  5  4  1  0  0  0  0
  6  5  2  0  0  0  0
  7  6  1  0  0  0  0
  7  2  2  0  0  0  0
  8 13  1  0  0  0  0
  8 31  1  1  0  0  0
  9  8  1  0  0  0  0
 10 11  1  0  0  0  0
 10  9  1  0  0  0  0
 10 34  1  0  0  0  0
 11 35  1  0  0  0  0
 11 12  1  0  0  0  0
 12 14  1  0  0  0  0
 12 13  1  0  0  0  0
 13 37  1  0  0  0  0
 13 38  1  0  0  0  0
 14 16  1  0  0  0  0
 15 14  2  0  0  0  0
 16 21  1  0  0  0  0
 16 17  2  0  0  0  0
 17 18  1  0  0  0  0
 18 19  2  0  0  0  0
 19 26  1  0  0  0  0
 20 22  1  0  0  0  0
 20 19  1  0  0  0  0
 21 20  2  0  0  0  0
 22 23  1  0  0  0  0
 23 24  2  0  0  0  0
 23 25  1  0  0  0  0
 25 43  1  0  0  0  0
 26 25  1  0  0  0  0
 29  6  1  0  0  0  0
 30  7  1  0  0  0  0
 32  9  1  0  0  0  0
 33 10  1  0  0  0  0
 36 11  1  0  0  0  0
 39 17  1  0  0  0  0
 40 21  1  0  0  0  0
 41 22  1  0  0  0  0
 42 25  1  0  0  0  0
M  END
>  <Pose>
1

>  <Score>
-5.80

$$$$
