
 OpenBabel03212208413D

 63 66  0  0  1  0  0  0  0  0999 V2000
   14.9530   37.2610   69.9700 B   0  0  0  0  0  0  0  0  0  0  0  0
   14.6310   35.4600   70.5580 C   0  0  0  0  0  0  0  0  0  0  0  0
   15.5540   34.8120   71.3860 C   0  0  0  0  0  0  0  0  0  0  0  0
   15.3450   33.5120   71.8240 C   0  0  0  0  0  0  0  0  0  0  0  0
   14.1960   32.8980   71.4070 C   0  0  0  0  0  0  0  0  0  0  0  0
   13.2680   33.5260   70.5850 C   0  0  0  0  0  0  0  0  0  0  0  0
   13.4890   34.8140   70.1600 C   0  0  0  0  0  0  0  0  0  0  0  0
   16.3450   32.8480   72.6730 C   0  0  1  0  0  0  0  0  0  0  0  0
   16.0360   31.4390   72.8120 N   0  0  0  0  0  0  0  0  0  0  0  0
   16.4980   30.7980   71.6360 C   0  0  0  0  0  0  0  0  0  0  0  0
   16.0470   29.7460   71.1700 O   0  0  0  0  0  0  0  0  0  0  0  0
   17.5930   31.6300   71.1090 C   0  0  0  0  0  0  0  0  0  0  0  0
   18.2870   31.4250   70.0840 O   0  0  0  0  0  0  0  0  0  0  0  0
   17.7020   32.7470   72.0390 C   0  0  0  0  0  0  0  0  0  0  0  0
   18.7980   33.4580   72.2630 C   0  0  0  0  0  0  0  0  0  0  0  0
   18.6780   34.4660   73.2480 O   0  0  0  0  0  0  0  0  0  0  0  0
   20.0630   33.2510   71.5650 C   0  0  0  0  0  0  0  0  0  0  0  0
   20.6350   34.1550   70.7200 C   0  0  0  0  0  0  0  0  0  0  0  0
   21.8340   33.8530   70.0490 C   0  0  0  0  0  0  0  0  0  0  0  0
   22.4840   32.6590   70.2030 C   0  0  0  0  0  0  0  0  0  0  0  0
   21.9080   31.7440   71.0590 C   0  0  0  0  0  0  0  0  0  0  0  0
   20.7400   32.0270   71.7180 C   0  0  0  0  0  0  0  0  0  0  0  0
   23.6730   32.3550   69.5410 O   0  0  0  0  0  0  0  0  0  0  0  0
   24.7400   33.2680   69.5320 C   0  0  0  0  0  0  0  0  0  0  0  0
   20.0280   35.4930   70.5290 C   0  0  0  0  0  0  0  0  0  0  0  0
   15.3720   30.8580   73.9600 C   0  0  0  0  0  0  0  0  0  0  0  0
   15.8120   29.4610   74.2650 C   0  0  0  0  0  0  0  0  0  0  0  0
   15.1640   28.8180   75.4310 C   0  0  0  0  0  0  0  0  0  0  0  0
   15.9400   28.7710   76.6190 N   0  0  0  0  0  4  0  0  0  0  0  0
   15.1450   28.5340   77.8350 C   0  0  0  0  0  0  0  0  0  0  0  0
   15.9980   29.0750   78.9840 C   0  0  0  0  0  0  0  0  0  0  0  0
   17.2970   29.3400   78.5880 O   0  0  0  0  0  0  0  0  0  0  0  0
   17.8500   28.2430   77.9260 C   0  0  0  0  0  0  0  0  0  0  0  0
   17.0400   27.8780   76.6680 C   0  0  0  0  0  0  0  0  0  0  0  0
   16.4180   35.3740   71.6540 H   0  0  0  0  0  0  0  0  0  0  0  0
   14.0010   31.8960   71.7060 H   0  0  0  0  0  0  0  0  0  0  0  0
   12.3660   33.0320   70.2650 H   0  0  0  0  0  0  0  0  0  0  0  0
   12.7950   35.3590   69.5140 H   0  0  0  0  0  0  0  0  0  0  0  0
   16.3700   33.3920   73.6410 H   0  0  0  0  0  0  0  0  0  0  0  0
   22.2740   34.5940   69.3710 H   0  0  0  0  0  0  0  0  0  0  0  0
   22.4320   30.7900   71.1800 H   0  0  0  0  0  0  0  0  0  0  0  0
   20.3080   31.2980   72.3830 H   0  0  0  0  0  0  0  0  0  0  0  0
   24.4530   34.2380   69.0420 H   0  0  0  0  0  0  0  0  0  0  0  0
   25.5970   32.8990   68.9600 H   0  0  0  0  0  0  0  0  0  0  0  0
   25.0970   33.5570   70.5440 H   0  0  0  0  0  0  0  0  0  0  0  0
   18.9330   35.5120   70.5530 H   0  0  0  0  0  0  0  0  0  0  0  0
   20.3040   35.8910   69.5050 H   0  0  0  0  0  0  0  0  0  0  0  0
   20.4930   36.2450   71.2300 H   0  0  0  0  0  0  0  0  0  0  0  0
   15.6400   31.4880   74.8420 H   0  0  0  0  0  0  0  0  0  0  0  0
   14.2690   30.9020   73.8940 H   0  0  0  0  0  0  0  0  0  0  0  0
   15.6720   28.8860   73.3070 H   0  0  0  0  0  0  0  0  0  0  0  0
   16.9360   29.4690   74.4060 H   0  0  0  0  0  0  0  0  0  0  0  0
   14.9380   27.7600   75.1430 H   0  0  0  0  0  0  0  0  0  0  0  0
   14.1810   29.3070   75.6060 H   0  0  0  0  0  0  0  0  0  0  0  0
   16.3400   29.7490   76.7600 H   0  0  0  0  0  0  0  0  0  0  0  0
   14.1650   29.0150   77.8010 H   0  0  0  0  0  0  0  0  0  0  0  0
   15.0170   27.4280   77.9160 H   0  0  0  0  0  0  0  0  0  0  0  0
   15.5700   30.0660   79.3170 H   0  0  0  0  0  0  0  0  0  0  0  0
   15.9090   28.4220   79.8580 H   0  0  0  0  0  0  0  0  0  0  0  0
   17.8750   27.4090   78.6580 H   0  0  0  0  0  0  0  0  0  0  0  0
   18.9120   28.4580   77.6770 H   0  0  0  0  0  0  0  0  0  0  0  0
   16.7610   26.8150   76.7940 H   0  0  0  0  0  0  0  0  0  0  0  0
   17.7240   28.0390   75.8160 H   0  0  0  0  0  0  0  0  0  0  0  0
  1  2  1  0  0  0  0
  2  3  1  0  0  0  0
  3 35  1  0  0  0  0
  3  4  2  0  0  0  0
  4  8  1  0  0  0  0
  5 36  1  0  0  0  0
  5  4  1  0  0  0  0
  6  5  2  0  0  0  0
  7  2  2  0  0  0  0
  7  6  1  0  0  0  0
  8  9  1  0  0  0  0
  8 39  1  1  0  0  0
  9 26  1  0  0  0  0
 10  9  1  0  0  0  0
 11 10  2  0  0  0  0
 12 10  1  0  0  0  0
 12 14  1  0  0  0  0
 13 12  2  0  0  0  0
 14 15  2  0  0  0  0
 14  8  1  0  0  0  0
 15 16  1  0  0  0  0
 17 22  1  0  0  0  0
 17 15  1  0  0  0  0
 18 17  2  0  0  0  0
 19 20  2  0  0  0  0
 19 18  1  0  0  0  0
 20 21  1  0  0  0  0
 21 41  1  0  0  0  0
 21 22  2  0  0  0  0
 22 42  1  0  0  0  0
 23 20  1  0  0  0  0
 24 23  1  0  0  0  0
 24 45  1  0  0  0  0
 25 46  1  0  0  0  0
 25 18  1  0  0  0  0
 25 48  1  0  0  0  0
 26 27  1  0  0  0  0
 26 49  1  0  0  0  0
 27 52  1  0  0  0  0
 27 28  1  0  0  0  0
 28 54  1  0  0  0  0
 28 29  1  0  0  0  0
 29 34  1  0  0  0  0
 29 55  1  0  0  0  0
 29 30  1  0  0  0  0
 30 57  1  0  0  0  0
 30 31  1  0  0  0  0
 31 58  1  0  0  0  0
 31 59  1  0  0  0  0
 32 31  1  0  0  0  0
 33 32  1  0  0  0  0
 33 60  1  0  0  0  0
 34 62  1  0  0  0  0
 34 33  1  0  0  0  0
 37  6  1  0  0  0  0
 38  7  1  0  0  0  0
 40 19  1  0  0  0  0
 43 24  1  0  0  0  0
 44 24  1  0  0  0  0
 47 25  1  0  0  0  0
 50 26  1  0  0  0  0
 51 27  1  0  0  0  0
 53 28  1  0  0  0  0
 56 30  1  0  0  0  0
 61 33  1  0  0  0  0
 63 34  1  0  0  0  0
M  END
>  <Pose>
1

>  <Score>
-7.13

$$$$
