
 OpenBabel03212208413D

 60 63  0  0  1  0  0  0  0  0999 V2000
   16.6330   37.3120   69.9260 B   0  0  0  0  0  0  0  0  0  0  0  0
   15.4270   35.9250   70.4460 C   0  0  0  0  0  0  0  0  0  0  0  0
   15.8520   34.9260   71.2650 C   0  0  0  0  0  0  0  0  0  0  0  0
   14.9820   33.9030   71.6540 C   0  0  0  0  0  0  0  0  0  0  0  0
   13.6880   33.9430   71.1800 C   0  0  0  0  0  0  0  0  0  0  0  0
   13.2530   34.9630   70.3440 C   0  0  0  0  0  0  0  0  0  0  0  0
   14.1340   35.9540   69.9800 C   0  0  0  0  0  0  0  0  0  0  0  0
   15.5090   32.8550   72.5370 C   0  0  1  0  0  0  0  0  0  0  0  0
   14.9990   31.5240   72.2700 N   0  0  0  0  0  0  0  0  0  0  0  0
   15.7500   30.9750   71.1640 C   0  0  0  0  0  0  0  0  0  0  0  0
   15.4010   30.0890   70.3760 O   0  0  0  0  0  0  0  0  0  0  0  0
   17.0170   31.7000   71.1830 C   0  0  0  0  0  0  0  0  0  0  0  0
   18.0070   31.5780   70.4020 O   0  0  0  0  0  0  0  0  0  0  0  0
   16.9810   32.6440   72.2880 C   0  0  0  0  0  0  0  0  0  0  0  0
   17.9940   33.2280   72.9070 C   0  0  0  0  0  0  0  0  0  0  0  0
   17.6860   34.1710   73.9280 O   0  0  0  0  0  0  0  0  0  0  0  0
   19.3640   32.9230   72.5790 C   0  0  0  0  0  0  0  0  0  0  0  0
   20.0330   31.7650   72.7650 N   0  0  0  0  0  0  0  0  0  0  0  0
   21.2890   31.9120   72.2770 C   0  0  0  0  0  0  0  0  0  0  0  0
   21.4320   33.1690   71.7730 N   0  0  0  0  0  0  0  0  0  0  0  0
   20.2400   33.7820   71.9650 C   0  0  0  0  0  0  0  0  0  0  0  0
   19.9490   35.1850   71.5610 C   0  0  0  0  0  0  0  0  0  0  0  0
   22.2550   30.9400   72.3080 C   0  0  0  0  0  0  0  0  0  0  0  0
   21.9240   29.7300   72.8770 C   0  0  0  0  0  0  0  0  0  0  0  0
   20.6470   29.5760   73.3770 C   0  0  0  0  0  0  0  0  0  0  0  0
   19.7200   30.5810   73.3190 C   0  0  0  0  0  0  0  0  0  0  0  0
   23.6220   31.1560   71.7530 C   0  0  0  0  0  0  0  0  0  0  0  0
   13.9210   30.8490   72.9720 C   0  0  0  0  0  0  0  0  0  0  0  0
   14.1700   29.4020   73.2300 C   0  0  0  0  0  0  0  0  0  0  0  0
   14.1190   29.0010   74.6830 C   0  0  0  0  0  0  0  0  0  0  0  0
   12.7880   28.5530   75.0200 N   0  0  0  0  0  4  0  0  0  0  0  0
   12.8100   27.7690   76.2400 C   0  0  0  0  0  0  0  0  0  0  0  0
   11.9680   29.7170   75.2910 C   0  0  0  0  0  0  0  0  0  0  0  0
   16.8880   34.9530   71.6040 H   0  0  0  0  0  0  0  0  0  0  0  0
   12.9780   33.1580   71.4600 H   0  0  0  0  0  0  0  0  0  0  0  0
   12.2260   34.9830   69.9750 H   0  0  0  0  0  0  0  0  0  0  0  0
   13.8060   36.7590   69.3250 H   0  0  0  0  0  0  0  0  0  0  0  0
   15.3400   33.1520   73.5950 H   0  0  0  0  0  0  0  0  0  0  0  0
   19.7670   35.8180   72.4440 H   0  0  0  0  0  0  0  0  0  0  0  0
   19.0700   35.2310   70.8880 H   0  0  0  0  0  0  0  0  0  0  0  0
   20.7970   35.6230   71.0150 H   0  0  0  0  0  0  0  0  0  0  0  0
   22.6630   28.9210   72.9250 H   0  0  0  0  0  0  0  0  0  0  0  0
   20.3880   28.6000   73.8340 H   0  0  0  0  0  0  0  0  0  0  0  0
   18.7190   30.4520   73.7180 H   0  0  0  0  0  0  0  0  0  0  0  0
   23.7290   32.1970   71.4190 H   0  0  0  0  0  0  0  0  0  0  0  0
   23.8310   30.4250   70.9330 H   0  0  0  0  0  0  0  0  0  0  0  0
   24.3230   31.0040   72.6160 H   0  0  0  0  0  0  0  0  0  0  0  0
   13.0190   30.9340   72.3350 H   0  0  0  0  0  0  0  0  0  0  0  0
   13.6780   31.3660   73.9210 H   0  0  0  0  0  0  0  0  0  0  0  0
   15.1380   29.0540   72.7950 H   0  0  0  0  0  0  0  0  0  0  0  0
   13.3930   28.7960   72.7140 H   0  0  0  0  0  0  0  0  0  0  0  0
   14.8030   28.1580   74.9110 H   0  0  0  0  0  0  0  0  0  0  0  0
   14.3820   29.8400   75.3320 H   0  0  0  0  0  0  0  0  0  0  0  0
   12.3250   28.0470   74.2340 H   0  0  0  0  0  0  0  0  0  0  0  0
   11.8140   27.8300   76.7650 H   0  0  0  0  0  0  0  0  0  0  0  0
   13.5080   28.3170   76.9380 H   0  0  0  0  0  0  0  0  0  0  0  0
   13.1480   26.7400   76.1000 H   0  0  0  0  0  0  0  0  0  0  0  0
   10.9140   29.4160   75.5240 H   0  0  0  0  0  0  0  0  0  0  0  0
   12.0020   30.4530   74.4610 H   0  0  0  0  0  0  0  0  0  0  0  0
   12.3840   30.2050   76.1960 H   0  0  0  0  0  0  0  0  0  0  0  0
  1  2  1  0  0  0  0
  2  3  1  0  0  0  0
  3 34  1  0  0  0  0
  3  4  2  0  0  0  0
  4  8  1  0  0  0  0
  5 35  1  0  0  0  0
  5  4  1  0  0  0  0
  6  5  2  0  0  0  0
  7  6  1  0  0  0  0
  7  2  2  0  0  0  0
  8 38  1  1  0  0  0
  9  8  1  0  0  0  0
  9 28  1  0  0  0  0
 10 12  1  0  0  0  0
 10  9  1  0  0  0  0
 11 10  2  0  0  0  0
 12 14  1  0  0  0  0
 13 12  2  0  0  0  0
 14  8  1  0  0  0  0
 14 15  2  0  0  0  0
 15 16  1  0  0  0  0
 17 18  1  0  0  0  0
 17 15  1  0  0  0  0
 18 26  1  0  0  0  0
 19 23  1  0  0  0  0
 19 18  1  0  0  0  0
 20 21  1  0  0  0  0
 20 19  2  0  0  0  0
 21 17  2  0  0  0  0
 22 21  1  0  0  0  0
 22 39  1  0  0  0  0
 23 24  2  0  0  0  0
 24 42  1  0  0  0  0
 24 25  1  0  0  0  0
 25 43  1  0  0  0  0
 26 25  2  0  0  0  0
 26 44  1  0  0  0  0
 27 23  1  0  0  0  0
 27 47  1  0  0  0  0
 28 29  1  0  0  0  0
 28 49  1  0  0  0  0
 29 30  1  0  0  0  0
 30 52  1  0  0  0  0
 30 31  1  0  0  0  0
 30 53  1  0  0  0  0
 31 33  1  0  0  0  0
 31 32  1  0  0  0  0
 32 55  1  0  0  0  0
 32 56  1  0  0  0  0
 33 58  1  0  0  0  0
 33 60  1  0  0  0  0
 36  6  1  0  0  0  0
 37  7  1  0  0  0  0
 40 22  1  0  0  0  0
 41 22  1  0  0  0  0
 45 27  1  0  0  0  0
 46 27  1  0  0  0  0
 48 28  1  0  0  0  0
 50 29  1  0  0  0  0
 51 29  1  0  0  0  0
 54 31  1  0  0  0  0
 57 32  1  0  0  0  0
 59 33  1  0  0  0  0
M  END
>  <Pose>
1

>  <Score>
-7.09

$$$$
