
 OpenBabel03212208413D

 51 53  0  0  0  0  0  0  0  0999 V2000
   11.8870   30.2280   75.1290 B   0  0  0  0  0  0  0  0  0  0  0  0
   13.5090   29.7030   74.2700 C   0  0  0  0  0  0  0  0  0  0  0  0
   13.9490   28.4060   74.4430 C   0  0  0  0  0  0  0  0  0  0  0  0
   15.1160   28.0360   73.8220 C   0  0  0  0  0  0  0  0  0  0  0  0
   15.8280   28.9330   73.0470 C   0  0  0  0  0  0  0  0  0  0  0  0
   15.3970   30.2110   72.8740 C   0  0  0  0  0  0  0  0  0  0  0  0
   14.2270   30.5900   73.4940 C   0  0  0  0  0  0  0  0  0  0  0  0
   16.1540   31.1650   72.0500 C   0  0  0  0  0  0  0  0  0  0  0  0
   15.5780   31.9020   71.1820 N   0  0  0  0  0  0  0  0  0  0  0  0
   16.3160   32.8340   70.3780 N   0  0  0  0  0  0  0  0  0  0  0  0
   16.8210   33.9750   71.0400 C   0  0  0  0  0  0  0  0  0  0  0  0
   17.4730   33.7040   72.1200 O   0  0  0  0  0  0  0  0  0  0  0  0
   16.6740   35.3640   70.6240 C   0  0  0  0  0  0  0  0  0  0  0  0
   15.4270   35.9170   70.4760 N   0  0  0  0  0  0  0  0  0  0  0  0
   15.6350   37.1610   70.0980 N   0  0  0  0  0  0  0  0  0  0  0  0
   16.8950   37.4300   69.9970 N   0  0  0  0  0  0  0  0  0  0  0  0
   17.6100   36.3160   70.3220 C   0  0  0  0  0  0  0  0  0  0  0  0
   19.0630   36.1520   70.3610 C   0  0  0  0  0  0  0  0  0  0  0  0
   19.6890   36.0920   69.0490 N   0  0  0  0  0  0  0  0  0  0  0  0
   20.2790   37.3820   68.7150 C   0  0  0  0  0  0  0  0  0  0  0  0
   21.7160   37.4680   69.1460 C   0  0  0  0  0  0  0  0  0  0  0  0
   22.0540   36.5920   70.1610 O   0  0  0  0  0  0  0  0  0  0  0  0
   21.8400   35.2550   69.8640 C   0  0  0  0  0  0  0  0  0  0  0  0
   20.6750   35.0450   68.9350 C   0  0  0  0  0  0  0  0  0  0  0  0
   14.1830   35.2820   70.6860 C   0  0  0  0  0  0  0  0  0  0  0  0
   13.8130   34.4000   71.6470 N   0  0  0  0  0  0  0  0  0  0  0  0
   12.5830   34.0740   71.4640 O   0  0  0  0  0  0  0  0  0  0  0  0
   12.0630   34.6700   70.4390 N   0  0  0  0  0  0  0  0  0  0  0  0
   13.0470   35.4480   69.9140 C   0  0  0  0  0  0  0  0  0  0  0  0
   12.8900   36.2720   68.7720 N   0  0  0  0  0  0  0  0  0  0  0  0
   15.7360   26.2320   74.0590 B   0  0  0  0  0  0  0  0  0  0  0  0
   13.2630   27.4790   75.2140 O   0  0  0  0  0  0  0  0  0  0  0  0
   19.8310   31.7550   71.3160 Cl  0  0  0  0  0  0  0  0  0  0  0  0
   16.7480   28.6170   72.5660 H   0  0  0  0  0  0  0  0  0  0  0  0
   13.8890   31.6030   73.3550 H   0  0  0  0  0  0  0  0  0  0  0  0
   17.2050   31.2430   72.1780 H   0  0  0  0  0  0  0  0  0  0  0  0
   16.4320   32.6100   69.3650 H   0  0  0  0  0  0  0  0  0  0  0  0
   19.5890   36.9800   70.8780 H   0  0  0  0  0  0  0  0  0  0  0  0
   19.3790   35.2060   70.8530 H   0  0  0  0  0  0  0  0  0  0  0  0
   20.2340   37.4900   67.6170 H   0  0  0  0  0  0  0  0  0  0  0  0
   19.6230   38.1560   69.1550 H   0  0  0  0  0  0  0  0  0  0  0  0
   21.8760   38.4910   69.5420 H   0  0  0  0  0  0  0  0  0  0  0  0
   22.4200   37.3740   68.2810 H   0  0  0  0  0  0  0  0  0  0  0  0
   21.5900   34.7420   70.8230 H   0  0  0  0  0  0  0  0  0  0  0  0
   22.7800   34.8120   69.5050 H   0  0  0  0  0  0  0  0  0  0  0  0
   20.2360   34.0510   68.9400 H   0  0  0  0  0  0  0  0  0  0  0  0
   21.1020   35.1710   67.8940 H   0  0  0  0  0  0  0  0  0  0  0  0
   13.6540   36.2850   68.0710 H   0  0  0  0  0  0  0  0  0  0  0  0
   12.0570   36.8630   68.5940 H   0  0  0  0  0  0  0  0  0  0  0  0
   13.0590   26.5460   74.9040 H   0  0  0  0  0  0  0  0  0  0  0  0
   19.5140   30.6880   72.1250 H   0  0  0  0  0  0  0  0  0  0  0  0
  2  3  1  0  0  0  0
  2  1  1  0  0  0  0
  3 32  1  0  0  0  0
  4 31  1  0  0  0  0
  4  3  2  0  0  0  0
  5  4  1  0  0  0  0
  6  5  2  0  0  0  0
  6  7  1  0  0  0  0
  7  2  2  0  0  0  0
  8 36  1  0  0  0  0
  8  6  1  0  0  0  0
  9  8  2  0  0  0  0
 10 11  1  0  0  0  0
 10  9  1  0  0  0  0
 11 12  2  0  0  0  0
 13 11  1  0  0  0  0
 14 13  1  0  0  0  0
 14 25  1  0  0  0  0
 15 14  1  0  0  0  0
 16 15  2  0  0  0  0
 16 17  1  0  0  0  0
 17 18  1  0  0  0  0
 17 13  2  0  0  0  0
 18 39  1  0  0  0  0
 18 38  1  0  0  0  0
 19 18  1  0  0  0  0
 20 19  1  0  0  0  0
 20 21  1  0  0  0  0
 20 41  1  0  0  0  0
 21 42  1  0  0  0  0
 21 22  1  0  0  0  0
 23 22  1  0  0  0  0
 23 44  1  0  0  0  0
 24 46  1  0  0  0  0
 24 19  1  0  0  0  0
 24 23  1  0  0  0  0
 25 26  2  0  0  0  0
 27 26  1  0  0  0  0
 28 27  1  0  0  0  0
 29 28  2  0  0  0  0
 29 25  1  0  0  0  0
 30 29  1  0  0  0  0
 33 51  1  0  0  0  0
 34  5  1  0  0  0  0
 35  7  1  0  0  0  0
 37 10  1  0  0  0  0
 40 20  1  0  0  0  0
 43 21  1  0  0  0  0
 45 23  1  0  0  0  0
 47 24  1  0  0  0  0
 48 30  1  0  0  0  0
 49 30  1  0  0  0  0
 50 32  1  0  0  0  0
M  END
>  <Pose>
1

>  <Score>
-8.64

$$$$
