
 OpenBabel03212208413D

 31 34  0  0  1  0  0  0  0  0999 V2000
   17.4840   32.9840   73.0210 B   0  0  0  0  0  0  0  0  0  0  0  0
   15.8160   32.4440   72.2500 C   0  0  0  0  0  0  0  0  0  0  0  0
   15.4580   31.1250   72.4150 C   0  0  0  0  0  0  0  0  0  0  0  0
   14.2420   30.7380   71.8480 C   0  0  0  0  0  0  0  0  0  0  0  0
   13.4620   31.6430   71.1670 C   0  0  0  0  0  0  0  0  0  0  0  0
   13.8240   32.9700   71.0020 C   0  0  0  0  0  0  0  0  0  0  0  0
   15.0260   33.3600   71.5600 C   0  0  0  0  0  0  0  0  0  0  0  0
   12.9950   33.8830   70.2940 N   0  0  0  0  0  0  0  0  0  0  0  0
   12.0350   34.3940   70.8970 O   0  0  0  0  0  0  0  0  0  0  0  0
   13.1830   34.2420   68.9880 O   0  0  0  0  0  0  0  0  0  0  0  0
   16.2790   30.2140   73.1280 N   0  0  0  0  0  0  0  0  0  0  0  0
   17.6160   29.8040   72.9080 C   0  0  0  0  0  0  0  0  0  0  0  0
   18.4740   30.4000   72.2250 O   0  0  0  0  0  0  0  0  0  0  0  0
   17.8890   28.5320   73.6110 C   0  0  2  0  0  0  0  0  0  0  0  0
   17.6810   27.4240   72.6020 C   0  0  2  0  0  0  0  0  0  0  0  0
   16.2620   27.4270   72.5270 O   0  0  0  0  0  0  0  0  0  0  0  0
   16.0360   27.1270   73.8970 C   0  0  2  0  0  0  0  0  0  0  0  0
   16.6930   28.3210   74.5360 C   0  0  2  0  0  0  0  0  0  0  0  0
   15.8390   29.5040   74.2890 C   0  0  0  0  0  0  0  0  0  0  0  0
   14.8460   29.8500   75.0070 O   0  0  0  0  0  0  0  0  0  0  0  0
   16.8520   25.9010   74.0220 C   0  0  0  0  0  0  0  0  0  0  0  0
   17.9030   26.0980   73.2310 C   0  0  0  0  0  0  0  0  0  0  0  0
   13.9320   29.7020   71.9600 H   0  0  0  0  0  0  0  0  0  0  0  0
   12.5080   31.3450   70.7220 H   0  0  0  0  0  0  0  0  0  0  0  0
   15.3620   34.3710   71.4670 H   0  0  0  0  0  0  0  0  0  0  0  0
   18.8430   28.4960   74.1270 H   0  0  0  0  0  0  0  0  0  0  0  0
   18.1620   27.5850   71.6490 H   0  0  0  0  0  0  0  0  0  0  0  0
   14.9810   27.0070   74.1230 H   0  0  0  0  0  0  0  0  0  0  0  0
   16.9850   28.1960   75.5740 H   0  0  0  0  0  0  0  0  0  0  0  0
   16.6250   25.0400   74.6330 H   0  0  0  0  0  0  0  0  0  0  0  0
   18.7570   25.4400   73.0650 H   0  0  0  0  0  0  0  0  0  0  0  0
  2  3  1  0  0  0  0
  2  1  1  0  0  0  0
  3 11  1  0  0  0  0
  4 23  1  0  0  0  0
  4  3  2  0  0  0  0
  5  4  1  0  0  0  0
  6  5  2  0  0  0  0
  6  7  1  0  0  0  0
  7  2  2  0  0  0  0
  8  9  2  0  0  0  0
  8  6  1  0  0  0  0
 10  8  2  0  0  0  0
 11 19  1  0  0  0  0
 12 11  1  0  0  0  0
 12 14  1  0  0  0  0
 13 12  2  0  0  0  0
 14 26  1  1  0  0  0
 14 18  1  0  0  0  0
 15 27  1  6  0  0  0
 15 22  1  0  0  0  0
 15 14  1  0  0  0  0
 16 15  1  0  0  0  0
 16 17  1  0  0  0  0
 17 21  1  0  0  0  0
 17 28  1  1  0  0  0
 17 18  1  0  0  0  0
 18 29  1  1  0  0  0
 19 18  1  0  0  0  0
 19 20  2  0  0  0  0
 21 30  1  0  0  0  0
 22 21  2  0  0  0  0
 24  5  1  0  0  0  0
 25  7  1  0  0  0  0
 31 22  1  0  0  0  0
M  END
>  <Pose>
1

>  <Score>
-5.46

$$$$
