
 OpenBabel03212208413D

 54 57  0  0  1  0  0  0  0  0999 V2000
   14.3410   37.2660   69.7910 B   0  0  0  0  0  0  0  0  0  0  0  0
   14.2340   35.4080   70.2790 C   0  0  0  0  0  0  0  0  0  0  0  0
   15.3950   34.6430   70.4030 C   0  0  0  0  0  0  0  0  0  0  0  0
   15.3780   33.3160   70.7490 C   0  0  0  0  0  0  0  0  0  0  0  0
   14.1100   32.7560   70.9770 C   0  0  0  0  0  0  0  0  0  0  0  0
   12.9570   33.4980   70.8580 C   0  0  0  0  0  0  0  0  0  0  0  0
   13.0050   34.8300   70.5100 C   0  0  0  0  0  0  0  0  0  0  0  0
   16.5630   32.4640   70.8870 C   0  0  1  0  0  0  0  0  0  0  0  0
   17.6610   33.0800   71.6000 N   0  0  0  0  0  0  0  0  0  0  0  0
   17.3670   32.9710   72.9810 C   0  0  0  0  0  0  0  0  0  0  0  0
   17.7530   33.7170   73.9150 O   0  0  0  0  0  0  0  0  0  0  0  0
   16.5050   31.7960   73.1190 C   0  0  0  0  0  0  0  0  0  0  0  0
   15.9930   31.3100   74.1530 O   0  0  0  0  0  0  0  0  0  0  0  0
   16.3420   31.2650   71.7560 C   0  0  0  0  0  0  0  0  0  0  0  0
   16.0400   30.0230   71.4540 C   0  0  0  0  0  0  0  0  0  0  0  0
   15.8820   29.7190   70.0960 O   0  0  0  0  0  0  0  0  0  0  0  0
   15.8770   28.9730   72.4800 C   0  0  0  0  0  0  0  0  0  0  0  0
   14.8370   28.6980   73.2090 O   0  0  0  0  0  0  0  0  0  0  0  0
   15.0640   27.6860   74.0160 C   0  0  0  0  0  0  0  0  0  0  0  0
   16.3610   27.2390   73.8190 C   0  0  0  0  0  0  0  0  0  0  0  0
   16.8620   28.0710   72.8360 C   0  0  0  0  0  0  0  0  0  0  0  0
   16.8510   26.1780   74.5480 C   0  0  0  0  0  0  0  0  0  0  0  0
   16.0900   25.5220   75.4900 C   0  0  0  0  0  0  0  0  0  0  0  0
   14.7990   25.9550   75.6970 C   0  0  0  0  0  0  0  0  0  0  0  0
   14.2990   27.0280   74.9620 C   0  0  0  0  0  0  0  0  0  0  0  0
   18.8850   33.6940   71.0900 C   0  0  0  0  0  0  0  0  0  0  0  0
   20.0700   32.7710   71.3030 C   0  0  0  0  0  0  0  0  0  0  0  0
   21.3140   33.5090   71.7240 C   0  0  0  0  0  0  0  0  0  0  0  0
   22.3830   32.5810   71.9110 N   0  0  0  0  0  4  0  0  0  0  0  0
   22.0120   31.4320   72.7090 C   0  0  0  0  0  0  0  0  0  0  0  0
   22.9930   32.0990   70.7090 C   0  0  0  0  0  0  0  0  0  0  0  0
   16.3410   35.1260   70.2200 H   0  0  0  0  0  0  0  0  0  0  0  0
   14.0650   31.7070   71.2540 H   0  0  0  0  0  0  0  0  0  0  0  0
   11.9780   33.0640   71.0360 H   0  0  0  0  0  0  0  0  0  0  0  0
   12.0960   35.4400   70.4100 H   0  0  0  0  0  0  0  0  0  0  0  0
   16.8980   32.1510   69.8680 H   0  0  0  0  0  0  0  0  0  0  0  0
   17.8440   28.0100   72.4180 H   0  0  0  0  0  0  0  0  0  0  0  0
   17.8590   25.8330   74.3910 H   0  0  0  0  0  0  0  0  0  0  0  0
   16.4300   24.6880   76.0850 H   0  0  0  0  0  0  0  0  0  0  0  0
   14.1790   25.4490   76.4400 H   0  0  0  0  0  0  0  0  0  0  0  0
   13.2780   27.3320   75.1610 H   0  0  0  0  0  0  0  0  0  0  0  0
   18.8350   33.9040   70.0040 H   0  0  0  0  0  0  0  0  0  0  0  0
   19.0760   34.6490   71.6070 H   0  0  0  0  0  0  0  0  0  0  0  0
   20.2920   32.3460   70.2960 H   0  0  0  0  0  0  0  0  0  0  0  0
   19.8340   31.9470   71.9780 H   0  0  0  0  0  0  0  0  0  0  0  0
   21.1690   34.0610   72.6790 H   0  0  0  0  0  0  0  0  0  0  0  0
   21.6170   34.2300   70.9320 H   0  0  0  0  0  0  0  0  0  0  0  0
   23.1410   33.0840   72.4620 H   0  0  0  0  0  0  0  0  0  0  0  0
   22.9410   31.0330   73.2030 H   0  0  0  0  0  0  0  0  0  0  0  0
   21.6460   30.6240   72.0510 H   0  0  0  0  0  0  0  0  0  0  0  0
   21.2810   31.7460   73.4670 H   0  0  0  0  0  0  0  0  0  0  0  0
   22.4810   31.2250   70.2650 H   0  0  0  0  0  0  0  0  0  0  0  0
   24.0170   31.7520   70.9530 H   0  0  0  0  0  0  0  0  0  0  0  0
   23.1450   32.9250   69.9520 H   0  0  0  0  0  0  0  0  0  0  0  0
  1  2  1  0  0  0  0
  2  3  2  0  0  0  0
  2  7  1  0  0  0  0
  3  4  1  0  0  0  0
  4  8  1  0  0  0  0
  4  5  2  0  0  0  0
  5 33  1  0  0  0  0
  6  5  1  0  0  0  0
  6 34  1  0  0  0  0
  7  6  2  0  0  0  0
  8 36  1  6  0  0  0
  8  9  1  0  0  0  0
  8 14  1  0  0  0  0
  9 10  1  0  0  0  0
 10 12  1  0  0  0  0
 10 11  2  0  0  0  0
 12 13  2  0  0  0  0
 14 12  1  0  0  0  0
 15 14  2  0  0  0  0
 15 17  1  0  0  0  0
 16 15  1  0  0  0  0
 17 21  2  0  0  0  0
 17 18  1  0  0  0  0
 18 19  1  0  0  0  0
 19 25  1  0  0  0  0
 20 19  2  0  0  0  0
 20 22  1  0  0  0  0
 21 20  1  0  0  0  0
 22 23  2  0  0  0  0
 23 24  1  0  0  0  0
 23 39  1  0  0  0  0
 24 40  1  0  0  0  0
 25 41  1  0  0  0  0
 25 24  2  0  0  0  0
 26 27  1  0  0  0  0
 26  9  1  0  0  0  0
 26 43  1  0  0  0  0
 27 28  1  0  0  0  0
 27 45  1  0  0  0  0
 28 29  1  0  0  0  0
 28 46  1  0  0  0  0
 29 48  1  0  0  0  0
 29 30  1  0  0  0  0
 30 49  1  0  0  0  0
 30 51  1  0  0  0  0
 31 53  1  0  0  0  0
 31 29  1  0  0  0  0
 32  3  1  0  0  0  0
 35  7  1  0  0  0  0
 37 21  1  0  0  0  0
 38 22  1  0  0  0  0
 42 26  1  0  0  0  0
 44 27  1  0  0  0  0
 47 28  1  0  0  0  0
 50 30  1  0  0  0  0
 52 31  1  0  0  0  0
 54 31  1  0  0  0  0
M  END
>  <Pose>
1

>  <Score>
-5.91

$$$$
