
 OpenBabel03212208413D

 48 51  0  0  0  0  0  0  0  0999 V2000
   13.8080   28.4950   75.6950 B   0  0  0  0  0  0  0  0  0  0  0  0
   14.3960   29.3430   74.0870 C   0  0  0  0  0  0  0  0  0  0  0  0
   13.6270   30.3400   73.4930 C   0  0  0  0  0  0  0  0  0  0  0  0
   14.0540   30.9560   72.3380 C   0  0  0  0  0  0  0  0  0  0  0  0
   15.2460   30.5940   71.7590 C   0  0  0  0  0  0  0  0  0  0  0  0
   15.9940   29.6090   72.3590 C   0  0  0  0  0  0  0  0  0  0  0  0
   15.6010   28.9680   73.5130 C   0  0  0  0  0  0  0  0  0  0  0  0
   13.2700   32.0050   71.7160 C   0  0  0  0  0  0  0  0  0  0  0  0
   13.8410   33.1360   71.2990 C   0  0  0  0  0  0  0  0  0  0  0  0
   15.1880   33.4800   71.3840 O   0  0  0  0  0  0  0  0  0  0  0  0
   15.4060   34.7180   70.8450 C   0  0  0  0  0  0  0  0  0  0  0  0
   14.2130   35.2570   70.3770 C   0  0  0  0  0  0  0  0  0  0  0  0
   14.2460   36.5120   69.7890 C   0  0  0  0  0  0  0  0  0  0  0  0
   15.4360   37.1940   69.6780 C   0  0  0  0  0  0  0  0  0  0  0  0
   16.6150   36.6210   70.1600 C   0  0  0  0  0  0  0  0  0  0  0  0
   16.6110   35.3830   70.7470 C   0  0  0  0  0  0  0  0  0  0  0  0
   17.8590   34.8620   71.3070 C   0  0  0  0  0  0  0  0  0  0  0  0
   18.8300   34.4110   70.3780 N   0  0  0  0  0  4  0  0  0  0  0  0
   18.9780   32.9740   70.5350 C   0  0  0  0  0  0  0  0  0  0  0  0
   20.3710   32.4620   70.4050 C   0  0  0  0  0  0  0  0  0  0  0  0
   21.3490   33.1520   71.1710 N   0  0  0  0  0  0  0  0  0  0  0  0
   20.8620   34.4010   71.6570 C   0  0  0  0  0  0  0  0  0  0  0  0
   20.0840   35.0930   70.5880 C   0  0  0  0  0  0  0  0  0  0  0  0
   22.5650   33.2990   70.4000 C   0  0  0  0  0  0  0  0  0  0  0  0
   17.7600   37.3870   70.0010 O   0  0  0  0  0  0  0  0  0  0  0  0
   13.1650   34.2590   70.6530 C   0  0  0  0  0  0  0  0  0  0  0  0
   11.9470   34.4010   70.3720 O   0  0  0  0  0  0  0  0  0  0  0  0
   12.6860   30.5970   73.9800 H   0  0  0  0  0  0  0  0  0  0  0  0
   15.5750   31.0770   70.8470 H   0  0  0  0  0  0  0  0  0  0  0  0
   16.9490   29.3460   71.8830 H   0  0  0  0  0  0  0  0  0  0  0  0
   16.2320   28.1960   73.9620 H   0  0  0  0  0  0  0  0  0  0  0  0
   12.2120   31.8800   71.5890 H   0  0  0  0  0  0  0  0  0  0  0  0
   13.3000   36.8960   69.4350 H   0  0  0  0  0  0  0  0  0  0  0  0
   15.3980   38.1630   69.2120 H   0  0  0  0  0  0  0  0  0  0  0  0
   18.3200   35.7130   71.9180 H   0  0  0  0  0  0  0  0  0  0  0  0
   17.6320   34.0930   72.0600 H   0  0  0  0  0  0  0  0  0  0  0  0
   18.5680   34.6300   69.3690 H   0  0  0  0  0  0  0  0  0  0  0  0
   18.3570   32.3990   69.8290 H   0  0  0  0  0  0  0  0  0  0  0  0
   18.5910   32.6450   71.5450 H   0  0  0  0  0  0  0  0  0  0  0  0
   20.3480   31.3880   70.7790 H   0  0  0  0  0  0  0  0  0  0  0  0
   20.7020   32.3240   69.3250 H   0  0  0  0  0  0  0  0  0  0  0  0
   20.1500   34.1900   72.5100 H   0  0  0  0  0  0  0  0  0  0  0  0
   21.6680   35.0620   72.0690 H   0  0  0  0  0  0  0  0  0  0  0  0
   20.6750   35.1520   69.6230 H   0  0  0  0  0  0  0  0  0  0  0  0
   19.9140   36.1490   70.9160 H   0  0  0  0  0  0  0  0  0  0  0  0
   22.3770   33.4170   69.3030 H   0  0  0  0  0  0  0  0  0  0  0  0
   23.2200   34.1300   70.7360 H   0  0  0  0  0  0  0  0  0  0  0  0
   23.1170   32.3170   70.4680 H   0  0  0  0  0  0  0  0  0  0  0  0
  2  1  1  0  0  0  0
  3 28  1  0  0  0  0
  3  2  2  0  0  0  0
  4  3  1  0  0  0  0
  5  4  2  0  0  0  0
  5  6  1  0  0  0  0
  6  7  2  0  0  0  0
  7 31  1  0  0  0  0
  7  2  1  0  0  0  0
  8  4  1  0  0  0  0
  9 10  1  0  0  0  0
  9  8  2  0  0  0  0
 11 10  1  0  0  0  0
 12 26  1  0  0  0  0
 12 11  2  0  0  0  0
 13 12  1  0  0  0  0
 14 13  2  0  0  0  0
 14 15  1  0  0  0  0
 15 16  2  0  0  0  0
 16 11  1  0  0  0  0
 16 17  1  0  0  0  0
 17 35  1  0  0  0  0
 17 36  1  0  0  0  0
 18 19  1  0  0  0  0
 18 23  1  0  0  0  0
 18 17  1  0  0  0  0
 19 39  1  0  0  0  0
 20 19  1  0  0  0  0
 20 40  1  0  0  0  0
 20 21  1  0  0  0  0
 21 22  1  0  0  0  0
 22 43  1  0  0  0  0
 22 42  1  0  0  0  0
 23 45  1  0  0  0  0
 23 22  1  0  0  0  0
 24 48  1  0  0  0  0
 24 47  1  0  0  0  0
 24 21  1  0  0  0  0
 25 15  1  0  0  0  0
 26  9  1  0  0  0  0
 27 26  2  0  0  0  0
 29  5  1  0  0  0  0
 30  6  1  0  0  0  0
 32  8  1  0  0  0  0
 33 13  1  0  0  0  0
 34 14  1  0  0  0  0
 37 18  1  0  0  0  0
 38 19  1  0  0  0  0
 41 20  1  0  0  0  0
 44 23  1  0  0  0  0
 46 24  1  0  0  0  0
M  END
>  <Pose>
1

>  <Score>
-6.90

$$$$
