
 OpenBabel03212208413D

 55 58  0  0  1  0  0  0  0  0999 V2000
   10.3300   30.2580   75.3330 B   0  0  0  0  0  0  0  0  0  0  0  0
   12.0780   29.5780   74.9460 C   0  0  0  0  0  0  0  0  0  0  0  0
   12.5600   28.5270   75.6930 C   0  0  0  0  0  0  0  0  0  0  0  0
   13.8140   28.0250   75.4310 C   0  0  0  0  0  0  0  0  0  0  0  0
   14.6490   28.5170   74.4380 C   0  0  0  0  0  0  0  0  0  0  0  0
   14.1390   29.5680   73.7090 C   0  0  0  0  0  0  0  0  0  0  0  0
   12.8630   30.0920   73.9630 C   0  0  0  0  0  0  0  0  0  0  0  0
   15.9010   27.9400   74.2510 N   0  0  0  0  0  0  0  0  0  0  0  0
   16.8750   28.2410   73.2820 C   0  0  0  0  0  0  0  0  0  0  0  0
   16.7820   27.7970   72.1200 O   0  0  0  0  0  0  0  0  0  0  0  0
   18.0570   29.0930   73.5720 C   0  0  0  0  0  0  0  0  0  0  0  0
   17.7080   30.4820   73.5520 N   0  0  0  0  0  0  0  0  0  0  0  0
   17.8700   31.3170   72.4180 C   0  0  0  0  0  0  0  0  0  0  0  0
   18.0160   30.7610   71.2960 O   0  0  0  0  0  0  0  0  0  0  0  0
   17.8630   32.7950   72.5770 C   0  0  2  0  0  0  0  0  0  0  0  0
   16.5950   33.2090   72.7370 O   0  0  0  0  0  0  0  0  0  0  0  0
   16.2690   34.4730   72.3590 C   0  0  2  0  0  0  0  0  0  0  0  0
   14.8700   34.5500   72.2860 O   0  0  0  0  0  0  0  0  0  0  0  0
   14.5020   34.1840   71.0140 C   0  0  0  0  0  0  0  0  0  0  0  0
   15.6370   34.0870   70.2340 O   0  0  0  0  0  0  0  0  0  0  0  0
   16.6420   34.7970   70.9310 C   0  0  2  0  0  0  0  0  0  0  0  0
   18.0030   34.3350   70.5800 C   0  0  1  0  0  0  0  0  0  0  0  0
   18.8910   35.4230   70.4180 O   0  0  0  0  0  0  0  0  0  0  0  0
   20.0730   35.0840   71.0270 C   0  0  0  0  0  0  0  0  0  0  0  0
   19.7030   34.2540   72.0530 O   0  0  0  0  0  0  0  0  0  0  0  0
   18.6850   33.4450   71.5270 C   0  0  1  0  0  0  0  0  0  0  0  0
   20.6900   36.3860   71.5540 C   0  0  0  0  0  0  0  0  0  0  0  0
   21.0870   34.4900   70.0850 C   0  0  0  0  0  0  0  0  0  0  0  0
   13.6080   35.2360   70.3550 C   0  0  0  0  0  0  0  0  0  0  0  0
   13.7190   32.8820   70.9860 C   0  0  0  0  0  0  0  0  0  0  0  0
   11.9440   28.0890   76.4980 H   0  0  0  0  0  0  0  0  0  0  0  0
   14.1380   27.2000   76.0500 H   0  0  0  0  0  0  0  0  0  0  0  0
   14.7050   30.0100   72.9290 H   0  0  0  0  0  0  0  0  0  0  0  0
   12.5240   30.9080   73.3620 H   0  0  0  0  0  0  0  0  0  0  0  0
   16.1680   27.1580   74.9330 H   0  0  0  0  0  0  0  0  0  0  0  0
   18.3660   28.8580   74.6330 H   0  0  0  0  0  0  0  0  0  0  0  0
   18.9340   28.8430   72.9480 H   0  0  0  0  0  0  0  0  0  0  0  0
   17.3140   30.9040   74.4200 H   0  0  0  0  0  0  0  0  0  0  0  0
   18.4030   32.9740   73.5570 H   0  0  0  0  0  0  0  0  0  0  0  0
   16.5810   35.2750   73.0580 H   0  0  0  0  0  0  0  0  0  0  0  0
   16.4970   35.8890   70.7980 H   0  0  0  0  0  0  0  0  0  0  0  0
   17.9490   33.8760   69.5490 H   0  0  0  0  0  0  0  0  0  0  0  0
   19.2210   32.6480   70.9500 H   0  0  0  0  0  0  0  0  0  0  0  0
   21.7210   36.1560   71.8490 H   0  0  0  0  0  0  0  0  0  0  0  0
   20.0720   36.8180   72.3560 H   0  0  0  0  0  0  0  0  0  0  0  0
   20.6780   37.0920   70.6980 H   0  0  0  0  0  0  0  0  0  0  0  0
   21.7410   33.7500   70.5490 H   0  0  0  0  0  0  0  0  0  0  0  0
   20.5950   34.0440   69.1960 H   0  0  0  0  0  0  0  0  0  0  0  0
   21.7680   35.2870   69.6640 H   0  0  0  0  0  0  0  0  0  0  0  0
   12.8720   35.5750   71.0940 H   0  0  0  0  0  0  0  0  0  0  0  0
   14.2090   36.0440   69.9000 H   0  0  0  0  0  0  0  0  0  0  0  0
   13.0670   34.7110   69.5400 H   0  0  0  0  0  0  0  0  0  0  0  0
   12.6670   33.0300   70.6670 H   0  0  0  0  0  0  0  0  0  0  0  0
   13.6970   32.4050   71.9950 H   0  0  0  0  0  0  0  0  0  0  0  0
   14.1630   32.1560   70.2600 H   0  0  0  0  0  0  0  0  0  0  0  0
  2  1  1  0  0  0  0
  2  3  1  0  0  0  0
  3 31  1  0  0  0  0
  4  3  2  0  0  0  0
  4 32  1  0  0  0  0
  5  4  1  0  0  0  0
  6  7  1  0  0  0  0
  6  5  2  0  0  0  0
  7  2  2  0  0  0  0
  8  5  1  0  0  0  0
  8 35  1  0  0  0  0
  9 11  1  0  0  0  0
  9  8  1  0  0  0  0
 10  9  2  0  0  0  0
 11 36  1  0  0  0  0
 12 11  1  0  0  0  0
 12 38  1  0  0  0  0
 13 15  1  0  0  0  0
 13 12  1  0  0  0  0
 14 13  2  0  0  0  0
 15 16  1  0  0  0  0
 15 39  1  1  0  0  0
 17 16  1  0  0  0  0
 17 40  1  1  0  0  0
 18 17  1  0  0  0  0
 19 18  1  0  0  0  0
 20 21  1  0  0  0  0
 20 19  1  0  0  0  0
 21 41  1  6  0  0  0
 21 17  1  0  0  0  0
 22 42  1  6  0  0  0
 22 21  1  0  0  0  0
 22 26  1  0  0  0  0
 23 22  1  0  0  0  0
 23 24  1  0  0  0  0
 24 27  1  0  0  0  0
 24 25  1  0  0  0  0
 26 43  1  6  0  0  0
 26 25  1  0  0  0  0
 26 15  1  0  0  0  0
 27 44  1  0  0  0  0
 27 45  1  0  0  0  0
 28 47  1  0  0  0  0
 28 24  1  0  0  0  0
 29 19  1  0  0  0  0
 29 50  1  0  0  0  0
 30 19  1  0  0  0  0
 30 54  1  0  0  0  0
 33  6  1  0  0  0  0
 34  7  1  0  0  0  0
 37 11  1  0  0  0  0
 46 27  1  0  0  0  0
 48 28  1  0  0  0  0
 49 28  1  0  0  0  0
 51 29  1  0  0  0  0
 52 29  1  0  0  0  0
 53 30  1  0  0  0  0
 55 30  1  0  0  0  0
M  END
>  <Pose>
1

>  <Score>
-7.08

$$$$
