
 OpenBabel03212208413D

 56 59  0  0  1  0  0  0  0  0999 V2000
   16.4390   28.4490   75.5910 B   0  0  0  0  0  0  0  0  0  0  0  0
   14.5580   28.7260   75.6430 C   0  0  0  0  0  0  0  0  0  0  0  0
   13.9680   29.4430   74.6240 C   0  0  0  0  0  0  0  0  0  0  0  0
   12.6040   29.6190   74.7030 C   0  0  0  0  0  0  0  0  0  0  0  0
   11.8490   29.1120   75.7400 C   0  0  0  0  0  0  0  0  0  0  0  0
   12.4390   28.3950   76.7590 C   0  0  0  0  0  0  0  0  0  0  0  0
   13.8040   28.2080   76.6990 C   0  0  0  0  0  0  0  0  0  0  0  0
   11.6700   27.8840   77.8060 O   0  0  0  0  0  0  0  0  0  0  0  0
   11.1250   28.6790   78.8150 C   0  0  0  0  0  0  0  0  0  0  0  0
   10.4710   29.2940   75.8120 O   0  0  0  0  0  0  0  0  0  0  0  0
    9.7580   30.2350   75.0730 C   0  0  0  0  0  0  0  0  0  0  0  0
   14.7630   29.9810   73.5250 C   0  0  0  0  0  0  0  0  0  0  0  0
   14.4450   29.9150   72.2980 N   0  0  0  0  0  0  0  0  0  0  0  0
   15.2330   30.4440   71.2570 N   0  0  0  0  0  0  0  0  0  0  0  0
   15.1490   31.8430   71.0150 C   0  0  0  0  0  0  0  0  0  0  0  0
   16.1880   32.7170   70.9910 N   0  0  0  0  0  0  0  0  0  0  0  0
   15.7050   33.9590   70.7290 C   0  0  0  0  0  0  0  0  0  0  0  0
   16.2640   35.1670   70.5950 N   0  0  0  0  0  0  0  0  0  0  0  0
   15.5360   36.2670   70.3290 C   0  0  0  0  0  0  0  0  0  0  0  0
   14.1970   36.1480   70.1940 N   0  0  0  0  0  0  0  0  0  0  0  0
   13.5750   34.9810   70.3140 C   0  0  0  0  0  0  0  0  0  0  0  0
   14.3270   33.8550   70.5880 C   0  0  0  0  0  0  0  0  0  0  0  0
   14.0430   32.5770   70.7660 N   0  0  0  0  0  0  0  0  0  0  0  0
   12.1910   34.8250   70.1800 O   0  0  0  0  0  0  0  0  0  0  0  0
   16.1520   37.5560   70.1880 N   0  0  0  0  0  0  0  0  0  0  0  0
   17.5610   32.3800   71.2050 C   0  0  2  0  0  0  0  0  0  0  0  0
   18.1200   32.9750   72.3280 O   0  0  0  0  0  0  0  0  0  0  0  0
   19.4760   33.0110   72.1730 C   0  0  1  0  0  0  0  0  0  0  0  0
   19.8330   32.6910   70.7620 C   0  0  2  0  0  0  0  0  0  0  0  0
   18.4740   32.7760   70.0630 C   0  0  1  0  0  0  0  0  0  0  0  0
   18.4080   31.8700   69.0060 O   0  0  0  0  0  0  0  0  0  0  0  0
   20.2220   31.3410   70.6500 O   0  0  0  0  0  0  0  0  0  0  0  0
   19.9520   34.4360   72.4620 C   0  0  0  0  0  0  0  0  0  0  0  0
   21.2280   34.6310   71.9220 O   0  0  0  0  0  0  0  0  0  0  0  0
   12.1310   30.1870   73.8960 H   0  0  0  0  0  0  0  0  0  0  0  0
   14.2930   27.6490   77.4870 H   0  0  0  0  0  0  0  0  0  0  0  0
   10.2460   28.2100   79.3110 H   0  0  0  0  0  0  0  0  0  0  0  0
   10.7310   29.6490   78.3980 H   0  0  0  0  0  0  0  0  0  0  0  0
   11.8350   28.9460   79.6160 H   0  0  0  0  0  0  0  0  0  0  0  0
    8.7010   29.8910   75.0200 H   0  0  0  0  0  0  0  0  0  0  0  0
   10.1860   30.4890   74.0990 H   0  0  0  0  0  0  0  0  0  0  0  0
    9.7200   31.1970   75.6600 H   0  0  0  0  0  0  0  0  0  0  0  0
   15.6960   30.4760   73.7600 H   0  0  0  0  0  0  0  0  0  0  0  0
   15.8570   29.8650   70.6750 H   0  0  0  0  0  0  0  0  0  0  0  0
   11.6490   35.6800   70.1410 H   0  0  0  0  0  0  0  0  0  0  0  0
   16.9030   37.9080   70.7910 H   0  0  0  0  0  0  0  0  0  0  0  0
   15.7970   38.1560   69.4140 H   0  0  0  0  0  0  0  0  0  0  0  0
   17.6880   31.2840   71.3320 H   0  0  0  0  0  0  0  0  0  0  0  0
   19.9250   32.2990   72.9000 H   0  0  0  0  0  0  0  0  0  0  0  0
   20.5660   33.3740   70.3090 H   0  0  0  0  0  0  0  0  0  0  0  0
   18.2770   33.7960   69.7040 H   0  0  0  0  0  0  0  0  0  0  0  0
   19.1160   32.0730   68.3410 H   0  0  0  0  0  0  0  0  0  0  0  0
   20.2670   31.0560   69.7120 H   0  0  0  0  0  0  0  0  0  0  0  0
   19.9900   34.5360   73.5600 H   0  0  0  0  0  0  0  0  0  0  0  0
   19.2100   35.1220   72.0300 H   0  0  0  0  0  0  0  0  0  0  0  0
   21.9110   34.1030   72.4100 H   0  0  0  0  0  0  0  0  0  0  0  0
  1  2  1  0  0  0  0
  2  7  1  0  0  0  0
  3  4  1  0  0  0  0
  3  2  2  0  0  0  0
  4  5  2  0  0  0  0
  5 10  1  0  0  0  0
  5  6  1  0  0  0  0
  6  8  1  0  0  0  0
  7  6  2  0  0  0  0
  7 36  1  0  0  0  0
  8  9  1  0  0  0  0
  9 37  1  0  0  0  0
  9 39  1  0  0  0  0
 11 42  1  0  0  0  0
 11 10  1  0  0  0  0
 12 43  1  0  0  0  0
 12  3  1  0  0  0  0
 13 12  2  0  0  0  0
 14 13  1  0  0  0  0
 15 14  1  0  0  0  0
 16 15  1  0  0  0  0
 16 26  1  0  0  0  0
 17 16  1  0  0  0  0
 18 17  1  0  0  0  0
 19 18  2  0  0  0  0
 20 21  2  0  0  0  0
 20 19  1  0  0  0  0
 21 22  1  0  0  0  0
 22 17  2  0  0  0  0
 22 23  1  0  0  0  0
 23 15  2  0  0  0  0
 24 21  1  0  0  0  0
 25 19  1  0  0  0  0
 25 46  1  0  0  0  0
 26 48  1  1  0  0  0
 26 27  1  0  0  0  0
 28 27  1  0  0  0  0
 28 33  1  0  0  0  0
 28 49  1  1  0  0  0
 29 50  1  6  0  0  0
 29 28  1  0  0  0  0
 30 51  1  6  0  0  0
 30 29  1  0  0  0  0
 30 26  1  0  0  0  0
 31 30  1  0  0  0  0
 32 29  1  0  0  0  0
 33 54  1  0  0  0  0
 34 56  1  0  0  0  0
 34 33  1  0  0  0  0
 35  4  1  0  0  0  0
 38  9  1  0  0  0  0
 40 11  1  0  0  0  0
 41 11  1  0  0  0  0
 44 14  1  0  0  0  0
 45 24  1  0  0  0  0
 47 25  1  0  0  0  0
 52 31  1  0  0  0  0
 53 32  1  0  0  0  0
 55 33  1  0  0  0  0
M  END
>  <Pose>
1

>  <Score>
-8.13

$$$$
