
 OpenBabel03212208413D

 42 45  0  0  1  0  0  0  0  0999 V2000
   12.8470   34.8220   70.0490 Cl  0  0  0  0  0  0  0  0  0  0  0  0
   14.3310   35.7360   70.1640 C   0  0  0  0  0  0  0  0  0  0  0  0
   15.4490   35.0850   70.6410 C   0  0  0  0  0  0  0  0  0  0  0  0
   16.6010   35.8320   70.7210 C   0  0  0  0  0  0  0  0  0  0  0  0
   16.6560   37.1560   70.3490 C   0  0  0  0  0  0  0  0  0  0  0  0
   15.5100   37.7980   69.8650 C   0  0  0  0  0  0  0  0  0  0  0  0
   14.3490   37.0720   69.7780 C   0  0  0  0  0  0  0  0  0  0  0  0
   15.4260   33.6840   71.0450 C   0  0  0  0  0  0  0  0  0  0  0  0
   14.4550   32.7830   70.8180 N   0  0  0  0  0  0  0  0  0  0  0  0
   14.8040   31.6250   71.3370 O   0  0  0  0  0  0  0  0  0  0  0  0
   15.9790   31.7270   71.9040 C   0  0  0  0  0  0  0  0  0  0  0  0
   16.3700   33.0080   71.7240 N   0  0  0  0  0  0  0  0  0  0  0  0
   16.7590   30.6530   72.6170 C   0  0  0  0  0  0  0  0  0  0  0  0
   16.1750   30.3890   73.9200 N   0  0  0  0  0  0  0  0  0  0  0  0
   15.4880   29.1910   74.1840 C   0  0  0  0  0  0  0  0  0  0  0  0
   14.2450   29.1530   74.0570 O   0  0  0  0  0  0  0  0  0  0  0  0
   16.2230   27.9900   74.6100 C   0  0  1  0  0  0  0  0  0  0  0  0
   15.5780   27.3200   75.8090 C   0  0  0  0  0  0  0  0  0  0  0  0
   16.2180   26.0070   76.1090 C   0  0  0  0  0  0  0  0  0  0  0  0
   15.5820   24.8270   75.4500 C   0  0  0  0  0  0  0  0  0  0  0  0
   14.9120   25.1950   74.1290 C   0  0  0  0  0  0  0  0  0  0  0  0
   15.9090   25.8400   73.3060 N   0  0  0  0  0  0  0  0  0  0  0  0
   16.4010   25.3110   72.2180 N   0  0  0  0  0  0  0  0  0  0  0  0
   17.2770   26.1410   71.7070 N   0  0  0  0  0  0  0  0  0  0  0  0
   17.3260   27.2000   72.4920 N   0  0  0  0  0  0  0  0  0  0  0  0
   16.4690   27.0390   73.5150 C   0  0  0  0  0  0  0  0  0  0  0  0
   17.4990   35.3700   71.0860 H   0  0  0  0  0  0  0  0  0  0  0  0
   17.5550   37.7500   70.4060 H   0  0  0  0  0  0  0  0  0  0  0  0
   15.5300   38.8400   69.5660 H   0  0  0  0  0  0  0  0  0  0  0  0
   13.4610   37.5710   69.4040 H   0  0  0  0  0  0  0  0  0  0  0  0
   17.8110   30.9640   72.7160 H   0  0  0  0  0  0  0  0  0  0  0  0
   16.7330   29.7520   71.9730 H   0  0  0  0  0  0  0  0  0  0  0  0
   16.2650   31.0980   74.6740 H   0  0  0  0  0  0  0  0  0  0  0  0
   17.2320   28.3150   74.9710 H   0  0  0  0  0  0  0  0  0  0  0  0
   15.7640   27.9960   76.6960 H   0  0  0  0  0  0  0  0  0  0  0  0
   14.4880   27.2970   75.6950 H   0  0  0  0  0  0  0  0  0  0  0  0
   16.2360   25.8690   77.2280 H   0  0  0  0  0  0  0  0  0  0  0  0
   17.2910   26.0670   75.8170 H   0  0  0  0  0  0  0  0  0  0  0  0
   16.3710   24.0630   75.2920 H   0  0  0  0  0  0  0  0  0  0  0  0
   14.7820   24.3670   76.0740 H   0  0  0  0  0  0  0  0  0  0  0  0
   14.5890   24.2530   73.6470 H   0  0  0  0  0  0  0  0  0  0  0  0
   14.0850   25.8870   74.2850 H   0  0  0  0  0  0  0  0  0  0  0  0
  1  2  1  0  0  0  0
  2  3  1  0  0  0  0
  3  4  2  0  0  0  0
  3  8  1  0  0  0  0
  4 27  1  0  0  0  0
  5 28  1  0  0  0  0
  5  4  1  0  0  0  0
  6  5  2  0  0  0  0
  7  6  1  0  0  0  0
  7  2  2  0  0  0  0
  8 12  1  0  0  0  0
  9  8  2  0  0  0  0
  9 10  1  0  0  0  0
 10 11  1  0  0  0  0
 11 13  1  0  0  0  0
 12 11  2  0  0  0  0
 13 31  1  0  0  0  0
 13 14  1  0  0  0  0
 14 15  1  0  0  0  0
 14 33  1  0  0  0  0
 15 17  1  0  0  0  0
 16 15  2  0  0  0  0
 17 34  1  1  0  0  0
 17 18  1  0  0  0  0
 18 19  1  0  0  0  0
 18 35  1  0  0  0  0
 19 37  1  0  0  0  0
 20 40  1  0  0  0  0
 20 19  1  0  0  0  0
 21 42  1  0  0  0  0
 21 20  1  0  0  0  0
 22 26  1  0  0  0  0
 22 21  1  0  0  0  0
 23 22  1  0  0  0  0
 24 23  2  0  0  0  0
 24 25  1  0  0  0  0
 25 26  2  0  0  0  0
 26 17  1  0  0  0  0
 29  6  1  0  0  0  0
 30  7  1  0  0  0  0
 32 13  1  0  0  0  0
 36 18  1  0  0  0  0
 38 19  1  0  0  0  0
 39 20  1  0  0  0  0
 41 21  1  0  0  0  0
M  END
>  <Pose>
1

>  <Score>
-6.34

$$$$
