
 OpenBabel03212208413D

 33 36  0  0  1  0  0  0  0  0999 V2000
   13.5690   33.6960   71.0750 B   0  0  0  0  0  0  0  0  0  0  0  0
   14.8230   35.0620   70.6200 C   0  0  0  0  0  0  0  0  0  0  0  0
   16.1710   34.8150   70.5650 C   0  0  0  0  0  0  0  0  0  0  0  0
   17.0450   35.8260   70.2410 C   0  0  0  0  0  0  0  0  0  0  0  0
   16.5980   37.1100   69.9610 C   0  0  0  0  0  0  0  0  0  0  0  0
   15.2520   37.3790   70.0110 C   0  0  0  0  0  0  0  0  0  0  0  0
   14.3700   36.3440   70.3420 C   0  0  0  0  0  0  0  0  0  0  0  0
   16.7420   33.4710   70.8410 C   0  0  1  0  0  0  0  0  0  0  0  0
   18.1160   33.3990   71.0770 C   0  0  1  0  0  0  0  0  0  0  0  0
   19.0700   33.8170   72.1400 C   0  0  0  0  0  0  0  0  0  0  0  0
   19.0660   32.4970   72.8210 N   0  0  0  0  0  0  0  0  0  0  0  0
   17.8500   32.0490   72.8060 C   0  0  2  0  0  0  0  0  0  0  0  0
   17.0440   33.0290   72.1480 C   0  0  2  0  0  0  0  0  0  0  0  0
   16.6960   34.0730   73.1570 C   0  0  0  0  0  0  0  0  0  0  0  0
   16.4390   34.8920   73.9730 N   0  0  0  0  0  0  0  0  0  0  0  0
   17.4090   30.7880   73.3590 N   0  0  0  0  0  0  0  0  0  0  0  0
   20.3210   34.0180   71.5450 O   0  0  0  0  0  0  0  0  0  0  0  0
   20.7700   35.2580   71.9590 C   0  0  0  0  0  0  0  0  0  0  0  0
   20.0280   35.4500   73.2700 C   0  0  0  0  0  0  0  0  0  0  0  0
   18.7860   34.8680   72.9140 O   0  0  0  0  0  0  0  0  0  0  0  0
   18.7530   32.2210   70.3880 C   0  0  0  0  0  0  0  0  0  0  0  0
   19.2340   31.2940   69.8350 N   0  0  0  0  0  0  0  0  0  0  0  0
   18.1360   35.6850   70.1810 H   0  0  0  0  0  0  0  0  0  0  0  0
   17.2680   37.9100   69.7050 H   0  0  0  0  0  0  0  0  0  0  0  0
   14.8920   38.3540   69.7970 H   0  0  0  0  0  0  0  0  0  0  0  0
   13.2960   36.5100   70.3920 H   0  0  0  0  0  0  0  0  0  0  0  0
   16.2230   32.7200   70.1810 H   0  0  0  0  0  0  0  0  0  0  0  0
   17.2320   30.6810   74.3760 H   0  0  0  0  0  0  0  0  0  0  0  0
   17.2630   29.9640   72.7470 H   0  0  0  0  0  0  0  0  0  0  0  0
   20.4280   36.0210   71.2280 H   0  0  0  0  0  0  0  0  0  0  0  0
   21.8720   35.2860   72.0930 H   0  0  0  0  0  0  0  0  0  0  0  0
   20.5130   34.8550   74.0740 H   0  0  0  0  0  0  0  0  0  0  0  0
   19.9160   36.5050   73.5530 H   0  0  0  0  0  0  0  0  0  0  0  0
  2  1  1  0  0  0  0
  3  2  1  0  0  0  0
  3  8  1  0  0  0  0
  4  3  2  0  0  0  0
  5  6  2  0  0  0  0
  5  4  1  0  0  0  0
  6  7  1  0  0  0  0
  7 26  1  0  0  0  0
  7  2  2  0  0  0  0
  8 27  1  6  0  0  0
  8  9  1  0  0  0  0
  8 13  1  0  0  0  0
  9 21  1  6  0  0  0
  9 10  1  0  0  0  0
  9 13  1  0  0  0  0
 10 11  1  0  0  0  0
 10 20  1  0  0  0  0
 12 11  1  0  0  0  0
 12 16  1  1  0  0  0
 13 12  1  0  0  0  0
 13 14  1  1  0  0  0
 14 15  3  0  0  0  0
 16 28  1  0  0  0  0
 17 18  1  0  0  0  0
 17 10  1  0  0  0  0
 18 31  1  0  0  0  0
 18 19  1  0  0  0  0
 19 33  1  0  0  0  0
 19 32  1  0  0  0  0
 20 19  1  0  0  0  0
 22 21  3  0  0  0  0
 23  4  1  0  0  0  0
 24  5  1  0  0  0  0
 25  6  1  0  0  0  0
 29 16  1  0  0  0  0
 30 18  1  0  0  0  0
M  END
>  <Pose>
1

>  <Score>
-4.57

$$$$
