
 OpenBabel03212208413D

 57 60  0  0  1  0  0  0  0  0999 V2000
   24.5510   34.0640   67.9480 B   0  0  0  0  0  0  0  0  0  0  0  0
   22.8500   33.6330   68.6900 C   0  0  0  0  0  0  0  0  0  0  0  0
   22.7320   32.6780   69.6880 C   0  0  0  0  0  0  0  0  0  0  0  0
   21.5160   32.3520   70.2360 C   0  0  0  0  0  0  0  0  0  0  0  0
   20.3810   32.9850   69.7880 C   0  0  0  0  0  0  0  0  0  0  0  0
   20.4810   33.9500   68.7820 C   0  0  0  0  0  0  0  0  0  0  0  0
   21.7040   34.2660   68.2430 C   0  0  0  0  0  0  0  0  0  0  0  0
   19.0660   32.7250   70.3320 C   0  0  1  0  0  0  0  0  0  0  0  0
   18.4720   31.6630   69.8670 O   0  0  0  0  0  0  0  0  0  0  0  0
   18.2870   33.4440   71.3130 C   0  0  1  0  0  0  0  0  0  0  0  0
   16.8720   33.3400   71.0660 N   0  0  0  0  0  0  0  0  0  0  0  0
   16.6680   31.8760   71.1570 C   0  0  2  0  0  0  0  0  0  0  0  0
   15.2740   31.6570   71.1000 N   0  0  0  0  0  0  0  0  0  0  0  0
   14.6460   32.9170   70.8450 C   0  0  0  0  0  0  0  0  0  0  0  0
   15.6260   33.9100   70.8280 C   0  0  0  0  0  0  0  0  0  0  0  0
   15.2440   35.2150   70.5950 C   0  0  0  0  0  0  0  0  0  0  0  0
   16.1460   36.0920   70.5840 O   0  0  0  0  0  0  0  0  0  0  0  0
   13.9530   35.5000   70.3910 N   0  0  0  0  0  0  0  0  0  0  0  0
   13.0450   34.5380   70.4130 C   0  0  0  0  0  0  0  0  0  0  0  0
   11.8390   34.8490   70.2160 O   0  0  0  0  0  0  0  0  0  0  0  0
   13.3620   33.2260   70.6390 N   0  0  0  0  0  0  0  0  0  0  0  0
   12.2760   32.2730   70.6340 C   0  0  0  0  0  0  0  0  0  0  0  0
   13.5910   36.9000   70.1470 C   0  0  0  0  0  0  0  0  0  0  0  0
   14.5600   30.4130   71.2290 C   0  0  0  0  0  0  0  0  0  0  0  0
   17.4620   31.4640   72.3240 C   0  0  1  0  0  0  0  0  0  0  0  0
   18.3320   32.6860   72.6500 C   0  0  1  0  0  0  0  0  0  0  0  0
   19.6830   32.3030   73.0480 C   0  0  0  0  0  0  0  0  0  0  0  0
   20.4970   33.1890   73.4710 O   0  0  0  0  0  0  0  0  0  0  0  0
   20.1200   31.0070   72.9830 O   0  0  0  0  0  0  0  0  0  0  0  0
   21.2510   30.5290   73.7160 C   0  0  0  0  0  0  0  0  0  0  0  0
   16.7730   30.9780   73.5120 C   0  0  0  0  0  0  0  0  0  0  0  0
   16.0150   31.7480   74.1570 O   0  0  0  0  0  0  0  0  0  0  0  0
   16.9220   29.6840   73.9620 O   0  0  0  0  0  0  0  0  0  0  0  0
   16.6560   28.5780   73.1260 C   0  0  0  0  0  0  0  0  0  0  0  0
   23.6080   32.1670   70.0580 H   0  0  0  0  0  0  0  0  0  0  0  0
   21.4680   31.6040   70.9830 H   0  0  0  0  0  0  0  0  0  0  0  0
   19.5900   34.4790   68.3970 H   0  0  0  0  0  0  0  0  0  0  0  0
   21.7610   35.0280   67.4510 H   0  0  0  0  0  0  0  0  0  0  0  0
   18.6080   34.5010   71.4660 H   0  0  0  0  0  0  0  0  0  0  0  0
   17.1050   31.3910   70.2440 H   0  0  0  0  0  0  0  0  0  0  0  0
   12.2540   31.6050   71.5160 H   0  0  0  0  0  0  0  0  0  0  0  0
   11.2910   32.8400   70.7280 H   0  0  0  0  0  0  0  0  0  0  0  0
   12.1570   31.7500   69.6590 H   0  0  0  0  0  0  0  0  0  0  0  0
   13.8980   37.5400   71.0010 H   0  0  0  0  0  0  0  0  0  0  0  0
   12.5080   36.9780   69.9270 H   0  0  0  0  0  0  0  0  0  0  0  0
   14.1540   37.2520   69.2560 H   0  0  0  0  0  0  0  0  0  0  0  0
   15.2740   29.5450   71.0830 H   0  0  0  0  0  0  0  0  0  0  0  0
   14.0490   30.2420   72.1690 H   0  0  0  0  0  0  0  0  0  0  0  0
   13.8510   30.2620   70.3540 H   0  0  0  0  0  0  0  0  0  0  0  0
   18.2390   30.6900   72.0060 H   0  0  0  0  0  0  0  0  0  0  0  0
   17.7960   33.3090   73.4120 H   0  0  0  0  0  0  0  0  0  0  0  0
   20.9560   30.3130   74.7730 H   0  0  0  0  0  0  0  0  0  0  0  0
   21.6080   29.6170   73.1990 H   0  0  0  0  0  0  0  0  0  0  0  0
   22.0030   31.3580   73.6630 H   0  0  0  0  0  0  0  0  0  0  0  0
   17.0020   27.6620   73.6660 H   0  0  0  0  0  0  0  0  0  0  0  0
   15.5430   28.4860   73.0630 H   0  0  0  0  0  0  0  0  0  0  0  0
   17.1250   28.6770   72.1260 H   0  0  0  0  0  0  0  0  0  0  0  0
  1  2  1  0  0  0  0
  2  3  1  0  0  0  0
  3 35  1  0  0  0  0
  3  4  2  0  0  0  0
  4 36  1  0  0  0  0
  5  4  1  0  0  0  0
  5  8  1  0  0  0  0
  6  5  2  0  0  0  0
  7  2  2  0  0  0  0
  7  6  1  0  0  0  0
  8  9  1  1  0  0  0
  8 10  1  0  0  0  0
 10 39  1  1  0  0  0
 10 26  1  0  0  0  0
 11 12  1  0  0  0  0
 11 10  1  0  0  0  0
 12 40  1  6  0  0  0
 12 25  1  0  0  0  0
 13 12  1  0  0  0  0
 13 24  1  0  0  0  0
 14 13  1  0  0  0  0
 15 14  2  0  0  0  0
 15 11  1  0  0  0  0
 16 15  1  0  0  0  0
 17 16  2  0  0  0  0
 18 19  1  0  0  0  0
 18 16  1  0  0  0  0
 19 21  1  0  0  0  0
 20 19  2  0  0  0  0
 21 14  1  0  0  0  0
 22 21  1  0  0  0  0
 22 42  1  0  0  0  0
 22 41  1  0  0  0  0
 23 18  1  0  0  0  0
 23 44  1  0  0  0  0
 24 48  1  0  0  0  0
 25 50  1  6  0  0  0
 25 26  1  0  0  0  0
 25 31  1  0  0  0  0
 26 27  1  0  0  0  0
 26 51  1  1  0  0  0
 27 28  2  0  0  0  0
 29 27  1  0  0  0  0
 29 30  1  0  0  0  0
 30 52  1  0  0  0  0
 31 33  1  0  0  0  0
 31 32  2  0  0  0  0
 34 55  1  0  0  0  0
 34 33  1  0  0  0  0
 37  6  1  0  0  0  0
 38  7  1  0  0  0  0
 43 22  1  0  0  0  0
 45 23  1  0  0  0  0
 46 23  1  0  0  0  0
 47 24  1  0  0  0  0
 49 24  1  0  0  0  0
 53 30  1  0  0  0  0
 54 30  1  0  0  0  0
 56 34  1  0  0  0  0
 57 34  1  0  0  0  0
M  END
>  <Pose>
1

>  <Score>
-5.74

$$$$
