
 OpenBabel03212208413D

 52 55  0  0  1  0  0  0  0  0999 V2000
   11.2130   30.2600   75.2730 B   0  0  0  0  0  0  0  0  0  0  0  0
   12.5860   28.9050   75.3350 C   0  0  0  0  0  0  0  0  0  0  0  0
   13.7160   29.0360   74.5660 C   0  0  0  0  0  0  0  0  0  0  0  0
   14.7510   28.0860   74.5560 C   0  0  0  0  0  0  0  0  0  0  0  0
   14.6160   26.9940   75.3570 C   0  0  0  0  0  0  0  0  0  0  0  0
   13.4760   26.8500   76.1410 C   0  0  0  0  0  0  0  0  0  0  0  0
   12.4630   27.7940   76.1350 C   0  0  0  0  0  0  0  0  0  0  0  0
   15.9180   28.3540   73.6980 C   0  0  0  0  0  0  0  0  0  0  0  0
   16.0640   27.8220   72.5910 O   0  0  0  0  0  0  0  0  0  0  0  0
   16.8890   29.2970   74.2250 N   0  0  0  0  0  0  0  0  0  0  0  0
   17.8030   29.9420   73.3150 C   0  0  2  0  0  0  0  0  0  0  0  0
   19.1740   29.3130   73.6770 C   0  0  0  0  0  0  0  0  0  0  0  0
   17.9430   31.4140   73.5380 C   0  0  0  0  0  0  0  0  0  0  0  0
   17.9910   31.8200   74.7180 O   0  0  0  0  0  0  0  0  0  0  0  0
   18.0310   32.3230   72.4780 N   0  0  0  0  0  0  0  0  0  0  0  0
   18.3050   32.1130   71.0970 C   0  0  0  0  0  0  0  0  0  0  0  0
   17.5280   33.2290   70.3820 C   0  0  0  0  0  0  0  0  0  0  0  0
   16.2890   33.6320   71.1430 C   0  0  1  0  0  0  0  0  0  0  0  0
   15.5780   34.6830   70.4660 N   0  0  0  0  0  0  0  0  0  0  0  0
   14.4470   35.0750   71.3180 C   0  0  0  0  0  0  0  0  0  0  0  0
   13.4290   33.9830   71.4290 C   0  0  0  0  0  0  0  0  0  0  0  0
   14.0310   32.6310   71.3840 C   0  0  0  0  0  0  0  0  0  0  0  0
   13.4590   31.4260   71.4630 N   0  0  0  0  0  0  0  0  0  0  0  0
   14.4220   30.4870   71.3760 C   0  0  0  0  0  0  0  0  0  0  0  0
   15.5910   31.1290   71.2440 N   0  0  0  0  0  0  0  0  0  0  0  0
   15.4140   32.4580   71.2400 C   0  0  0  0  0  0  0  0  0  0  0  0
   16.6130   34.2200   72.5260 C   0  0  0  0  0  0  0  0  0  0  0  0
   17.9900   33.7880   72.8000 C   0  0  0  0  0  0  0  0  0  0  0  0
   13.8310   29.8910   73.9160 H   0  0  0  0  0  0  0  0  0  0  0  0
   15.4010   26.2400   75.3720 H   0  0  0  0  0  0  0  0  0  0  0  0
   13.3510   26.0170   76.7800 H   0  0  0  0  0  0  0  0  0  0  0  0
   11.5510   27.7150   76.7280 H   0  0  0  0  0  0  0  0  0  0  0  0
   16.9260   29.4940   75.2240 H   0  0  0  0  0  0  0  0  0  0  0  0
   17.6420   29.6650   72.2590 H   0  0  0  0  0  0  0  0  0  0  0  0
   19.2600   29.5820   74.7850 H   0  0  0  0  0  0  0  0  0  0  0  0
   19.1460   28.2430   73.5940 H   0  0  0  0  0  0  0  0  0  0  0  0
   19.9830   29.8010   73.1280 H   0  0  0  0  0  0  0  0  0  0  0  0
   19.3960   32.3280   70.9510 H   0  0  0  0  0  0  0  0  0  0  0  0
   18.0730   31.1280   70.7090 H   0  0  0  0  0  0  0  0  0  0  0  0
   17.1770   32.7700   69.4500 H   0  0  0  0  0  0  0  0  0  0  0  0
   18.1750   34.0620   70.0840 H   0  0  0  0  0  0  0  0  0  0  0  0
   16.1900   35.5310   70.4050 H   0  0  0  0  0  0  0  0  0  0  0  0
   14.7210   35.3730   72.3280 H   0  0  0  0  0  0  0  0  0  0  0  0
   13.9330   35.9600   70.8400 H   0  0  0  0  0  0  0  0  0  0  0  0
   12.5800   34.1000   70.6980 H   0  0  0  0  0  0  0  0  0  0  0  0
   12.9140   34.0550   72.4370 H   0  0  0  0  0  0  0  0  0  0  0  0
   12.4530   31.1670   71.5730 H   0  0  0  0  0  0  0  0  0  0  0  0
   14.3370   29.4190   71.4010 H   0  0  0  0  0  0  0  0  0  0  0  0
   15.8390   33.8630   73.2050 H   0  0  0  0  0  0  0  0  0  0  0  0
   16.6480   35.3470   72.4850 H   0  0  0  0  0  0  0  0  0  0  0  0
   18.4800   33.9830   73.7330 H   0  0  0  0  0  0  0  0  0  0  0  0
   18.6450   34.3170   72.0260 H   0  0  0  0  0  0  0  0  0  0  0  0
  1  2  1  0  0  0  0
  2  7  1  0  0  0  0
  3  2  2  0  0  0  0
  4  3  1  0  0  0  0
  4  5  2  0  0  0  0
  5 30  1  0  0  0  0
  5  6  1  0  0  0  0
  6 31  1  0  0  0  0
  7  6  2  0  0  0  0
  7 32  1  0  0  0  0
  8 10  1  0  0  0  0
  8  4  1  0  0  0  0
  9  8  2  0  0  0  0
 10 33  1  0  0  0  0
 11 34  1  6  0  0  0
 11 13  1  0  0  0  0
 11 12  1  0  0  0  0
 11 10  1  0  0  0  0
 12 35  1  0  0  0  0
 13 14  2  0  0  0  0
 15 28  1  0  0  0  0
 15 13  1  0  0  0  0
 16 15  1  0  0  0  0
 17 16  1  0  0  0  0
 17 18  1  0  0  0  0
 18 26  1  1  0  0  0
 18 27  1  0  0  0  0
 19 18  1  0  0  0  0
 19 20  1  0  0  0  0
 20 21  1  0  0  0  0
 20 43  1  0  0  0  0
 21 46  1  0  0  0  0
 22 21  1  0  0  0  0
 22 23  1  0  0  0  0
 23 47  1  0  0  0  0
 24 48  1  0  0  0  0
 24 23  1  0  0  0  0
 25 24  2  0  0  0  0
 26 25  1  0  0  0  0
 26 22  2  0  0  0  0
 27 28  1  0  0  0  0
 27 49  1  0  0  0  0
 28 51  1  0  0  0  0
 29  3  1  0  0  0  0
 36 12  1  0  0  0  0
 37 12  1  0  0  0  0
 38 16  1  0  0  0  0
 39 16  1  0  0  0  0
 40 17  1  0  0  0  0
 41 17  1  0  0  0  0
 42 19  1  0  0  0  0
 44 20  1  0  0  0  0
 45 21  1  0  0  0  0
 50 27  1  0  0  0  0
 52 28  1  0  0  0  0
M  END
>  <Pose>
1

>  <Score>
-6.15

$$$$
