
 OpenBabel03212208413D

 36 39  0  0  1  0  0  0  0  0999 V2000
   13.0250   35.2750   69.9460 B   0  0  0  0  0  0  0  0  0  0  0  0
   14.0030   33.7780   70.6640 C   0  0  0  0  0  0  0  0  0  0  0  0
   15.3720   33.7620   70.6620 C   0  0  0  0  0  0  0  0  0  0  0  0
   16.0510   32.6790   71.1830 C   0  0  0  0  0  0  0  0  0  0  0  0
   15.3080   31.6470   71.6880 C   0  0  0  0  0  0  0  0  0  0  0  0
   13.8980   31.6650   71.6900 C   0  0  0  0  0  0  0  0  0  0  0  0
   13.2410   32.7480   71.1700 C   0  0  0  0  0  0  0  0  0  0  0  0
   16.1460   30.6080   72.1860 N   0  0  0  0  0  0  0  0  0  0  0  0
   17.4770   30.9970   71.9880 C   0  0  0  0  0  0  0  0  0  0  0  0
   18.4940   30.3110   72.3120 O   0  0  0  0  0  0  0  0  0  0  0  0
   17.4900   32.3510   71.3310 C   0  0  2  0  0  0  0  0  0  0  0  0
   18.1870   33.2370   72.2560 C   0  0  0  0  0  0  0  0  0  0  0  0
   19.3630   33.8290   71.9160 C   0  0  0  0  0  0  0  0  0  0  0  0
   19.7440   34.5830   72.9890 N   0  0  0  0  0  0  0  0  0  0  0  0
   18.8600   34.4760   73.9580 N   0  0  0  0  0  0  0  0  0  0  0  0
   17.8880   33.6600   73.5550 C   0  0  0  0  0  0  0  0  0  0  0  0
   16.6600   33.2180   74.2860 C   0  0  0  0  0  0  0  0  0  0  0  0
   19.9770   33.6360   70.6740 O   0  0  0  0  0  0  0  0  0  0  0  0
   19.3090   32.7900   69.7940 C   0  0  0  0  0  0  0  0  0  0  0  0
   18.1780   32.1920   70.0640 C   0  0  0  0  0  0  0  0  0  0  0  0
   17.6130   31.3310   69.0100 C   0  0  0  0  0  0  0  0  0  0  0  0
   17.1860   30.6500   68.1630 N   0  0  0  0  0  0  0  0  0  0  0  0
   19.9000   32.5500   68.4850 N   0  0  0  0  0  0  0  0  0  0  0  0
   15.7050   29.3470   72.8000 C   0  0  0  0  0  0  0  0  0  0  0  0
   15.9420   34.5840   70.2600 H   0  0  0  0  0  0  0  0  0  0  0  0
   13.3140   30.8470   72.0910 H   0  0  0  0  0  0  0  0  0  0  0  0
   12.1410   32.7890   71.1580 H   0  0  0  0  0  0  0  0  0  0  0  0
   18.8700   34.9310   74.9070 H   0  0  0  0  0  0  0  0  0  0  0  0
   16.7000   33.7190   75.2870 H   0  0  0  0  0  0  0  0  0  0  0  0
   15.7330   33.6160   73.8040 H   0  0  0  0  0  0  0  0  0  0  0  0
   16.6380   32.1450   74.4740 H   0  0  0  0  0  0  0  0  0  0  0  0
   19.2270   32.2450   67.7550 H   0  0  0  0  0  0  0  0  0  0  0  0
   20.8920   32.6670   68.2870 H   0  0  0  0  0  0  0  0  0  0  0  0
   16.1010   28.5210   72.1770 H   0  0  0  0  0  0  0  0  0  0  0  0
   16.2460   29.3000   73.7740 H   0  0  0  0  0  0  0  0  0  0  0  0
   14.6250   29.3230   72.9420 H   0  0  0  0  0  0  0  0  0  0  0  0
  1  2  1  0  0  0  0
  2  7  1  0  0  0  0
  3  2  2  0  0  0  0
  3  4  1  0  0  0  0
  4 11  1  0  0  0  0
  4  5  2  0  0  0  0
  5  6  1  0  0  0  0
  5  8  1  0  0  0  0
  6 26  1  0  0  0  0
  7  6  2  0  0  0  0
  8 24  1  0  0  0  0
  9  8  1  0  0  0  0
  9 10  2  0  0  0  0
 11 20  1  6  0  0  0
 11  9  1  0  0  0  0
 11 12  1  0  0  0  0
 12 16  2  0  0  0  0
 13 12  1  0  0  0  0
 13 14  2  0  0  0  0
 14 15  1  0  0  0  0
 15 28  1  0  0  0  0
 16 15  1  0  0  0  0
 16 17  1  0  0  0  0
 17 31  1  0  0  0  0
 17 29  1  0  0  0  0
 18 13  1  0  0  0  0
 19 20  2  0  0  0  0
 19 18  1  0  0  0  0
 21 20  1  0  0  0  0
 22 21  3  0  0  0  0
 23 19  1  0  0  0  0
 24 36  1  0  0  0  0
 24 35  1  0  0  0  0
 25  3  1  0  0  0  0
 27  7  1  0  0  0  0
 30 17  1  0  0  0  0
 32 23  1  0  0  0  0
 33 23  1  0  0  0  0
 34 24  1  0  0  0  0
M  END
>  <Pose>
1

>  <Score>
-4.93

$$$$
