
 OpenBabel03212208413D

 38 41  0  0  0  0  0  0  0  0999 V2000
   16.1290   37.0790   70.1320 B   0  0  0  0  0  0  0  0  0  0  0  0
   15.5560   35.3500   70.6490 C   0  0  0  0  0  0  0  0  0  0  0  0
   14.2560   35.0150   70.4780 C   0  0  0  0  0  0  0  0  0  0  0  0
   13.2110   35.7060   69.9820 N   0  0  0  0  0  0  0  0  0  0  0  0
   12.1860   34.8640   70.0640 N   0  0  0  0  0  0  0  0  0  0  0  0
   12.5300   33.7130   70.5710 N   0  0  0  0  0  0  0  0  0  0  0  0
   13.8570   33.7530   70.8580 C   0  0  0  0  0  0  0  0  0  0  0  0
   14.7630   32.8490   71.4020 C   0  0  0  0  0  0  0  0  0  0  0  0
   16.0550   33.1760   71.5740 N   0  0  0  0  0  0  0  0  0  0  0  0
   16.4350   34.4170   71.1970 C   0  0  0  0  0  0  0  0  0  0  0  0
   17.0380   32.2650   72.1360 C   0  0  0  0  0  0  0  0  0  0  0  0
   16.6160   30.8680   72.1620 C   0  0  0  0  0  0  0  0  0  0  0  0
   16.9490   30.1610   71.1620 O   0  0  0  0  0  0  0  0  0  0  0  0
   15.8530   30.2130   73.2200 C   0  0  0  0  0  0  0  0  0  0  0  0
   14.5160   30.4710   73.3290 C   0  0  0  0  0  0  0  0  0  0  0  0
   13.7750   29.8760   74.3170 C   0  0  0  0  0  0  0  0  0  0  0  0
   14.3390   29.0030   75.2300 C   0  0  0  0  0  0  0  0  0  0  0  0
   15.7040   28.7630   75.0920 C   0  0  0  0  0  0  0  0  0  0  0  0
   16.4460   29.3540   74.1080 C   0  0  0  0  0  0  0  0  0  0  0  0
   13.6140   28.3910   76.2320 C   0  0  0  0  0  0  0  0  0  0  0  0
   12.2680   28.6760   76.3100 C   0  0  0  0  0  0  0  0  0  0  0  0
   11.6950   29.5450   75.4050 C   0  0  0  0  0  0  0  0  0  0  0  0
   12.4230   30.1510   74.4070 C   0  0  0  0  0  0  0  0  0  0  0  0
   13.1120   37.0200   69.4680 C   0  0  0  0  0  0  0  0  0  0  0  0
   14.4040   31.8870   71.6790 H   0  0  0  0  0  0  0  0  0  0  0  0
   17.4680   34.7010   71.3250 H   0  0  0  0  0  0  0  0  0  0  0  0
   18.0030   32.3290   71.5660 H   0  0  0  0  0  0  0  0  0  0  0  0
   17.2640   32.5920   73.1680 H   0  0  0  0  0  0  0  0  0  0  0  0
   13.9900   31.1500   72.6460 H   0  0  0  0  0  0  0  0  0  0  0  0
   16.1470   28.0680   75.8220 H   0  0  0  0  0  0  0  0  0  0  0  0
   17.5180   29.1430   74.0310 H   0  0  0  0  0  0  0  0  0  0  0  0
   14.1130   27.7190   76.9170 H   0  0  0  0  0  0  0  0  0  0  0  0
   11.6750   28.2010   77.0970 H   0  0  0  0  0  0  0  0  0  0  0  0
   10.6350   29.7560   75.4810 H   0  0  0  0  0  0  0  0  0  0  0  0
   11.9590   30.8390   73.6930 H   0  0  0  0  0  0  0  0  0  0  0  0
   12.0430   37.3070   69.4030 H   0  0  0  0  0  0  0  0  0  0  0  0
   13.4790   37.0470   68.3980 H   0  0  0  0  0  0  0  0  0  0  0  0
   13.6170   37.8210   69.9850 H   0  0  0  0  0  0  0  0  0  0  0  0
  1  2  1  0  0  0  0
  2 10  2  0  0  0  0
  3  2  1  0  0  0  0
  3  7  2  0  0  0  0
  4  5  1  0  0  0  0
  4  3  1  0  0  0  0
  5  6  2  0  0  0  0
  6  7  1  0  0  0  0
  7  8  1  0  0  0  0
  8  9  1  0  0  0  0
  8 25  1  0  0  0  0
  9 11  1  0  0  0  0
 10 26  1  0  0  0  0
 10  9  1  0  0  0  0
 11 12  1  0  0  0  0
 11 28  1  0  0  0  0
 12 14  1  0  0  0  0
 13 12  2  0  0  0  0
 14 15  2  0  0  0  0
 14 19  1  0  0  0  0
 15 16  1  0  0  0  0
 16 23  2  0  0  0  0
 16 17  1  0  0  0  0
 17 20  2  0  0  0  0
 18 17  1  0  0  0  0
 18 30  1  0  0  0  0
 19 18  2  0  0  0  0
 20 21  1  0  0  0  0
 20 32  1  0  0  0  0
 21 33  1  0  0  0  0
 22 34  1  0  0  0  0
 22 21  2  0  0  0  0
 23 22  1  0  0  0  0
 24  4  1  0  0  0  0
 24 38  1  0  0  0  0
 27 11  1  0  0  0  0
 29 15  1  0  0  0  0
 31 19  1  0  0  0  0
 35 23  1  0  0  0  0
 36 24  1  0  0  0  0
 37 24  1  0  0  0  0
M  END
>  <Pose>
1

>  <Score>
-6.17

$$$$
