
 OpenBabel03212208413D

 66 69  0  0  1  0  0  0  0  0999 V2000
   12.6750   27.3590   77.1120 B   0  0  0  0  0  0  0  0  0  0  0  0
   13.5690   26.4340   75.6920 C   0  0  0  0  0  0  0  0  0  0  0  0
   14.7010   26.9730   75.1300 C   0  0  0  0  0  0  0  0  0  0  0  0
   15.3860   26.3280   74.0870 C   0  0  0  0  0  0  0  0  0  0  0  0
   14.8630   25.1280   73.6590 C   0  0  0  0  0  0  0  0  0  0  0  0
   13.7290   24.5650   74.2040 C   0  0  0  0  0  0  0  0  0  0  0  0
   13.0760   25.2160   75.2260 C   0  0  0  0  0  0  0  0  0  0  0  0
   11.8480   24.6910   75.8780 C   0  0  0  0  0  0  0  0  0  0  0  0
   13.0280   22.9000   73.5910 B   0  0  0  0  0  0  0  0  0  0  0  0
   16.5740   26.9350   73.5220 C   0  0  0  0  0  0  0  0  0  0  0  0
   17.2410   26.3270   72.6780 O   0  0  0  0  0  0  0  0  0  0  0  0
   16.9790   28.2810   73.9620 C   0  0  1  0  0  0  0  0  0  0  0  0
   16.5860   28.4130   75.4170 C   0  0  0  0  0  0  0  0  0  0  0  0
   15.1990   28.1880   75.5900 O   0  0  0  0  0  0  0  0  0  0  0  0
   18.4350   28.5700   73.7540 C   0  0  0  0  0  0  0  0  0  0  0  0
   18.9940   29.5690   74.5810 N   0  0  0  0  0  4  0  0  0  0  0  0
   19.7050   28.9640   75.6680 C   0  0  0  0  0  0  0  0  0  0  0  0
   20.9760   28.2880   75.2970 C   0  0  2  0  0  0  0  0  0  0  0  0
   21.4640   28.4990   73.9170 C   0  0  0  0  0  0  0  0  0  0  0  0
   20.9830   29.7100   73.2180 C   0  0  0  0  0  0  0  0  0  0  0  0
   19.9090   30.4710   73.9390 C   0  0  0  0  0  0  0  0  0  0  0  0
   20.7730   26.7810   75.4920 C   0  0  0  0  0  0  0  0  0  0  0  0
   16.1390   29.2530   73.1590 C   0  0  0  0  0  0  0  0  0  0  0  0
   16.3530   30.6290   73.4520 N   0  0  0  0  0  4  0  0  0  0  0  0
   15.0880   31.3590   73.4080 C   0  0  0  0  0  0  0  0  0  0  0  0
   14.9060   32.1220   72.1280 C   0  0  1  0  0  0  0  0  0  0  0  0
   15.3700   31.2750   70.9640 C   0  0  0  0  0  0  0  0  0  0  0  0
   16.8520   31.1020   71.0860 C   0  0  0  0  0  0  0  0  0  0  0  0
   17.2430   31.3010   72.5300 C   0  0  0  0  0  0  0  0  0  0  0  0
   13.3970   32.3250   71.9390 C   0  0  0  0  0  0  0  0  0  0  0  0
   15.3530   24.5850   72.8550 H   0  0  0  0  0  0  0  0  0  0  0  0
   12.0890   24.4980   76.9470 H   0  0  0  0  0  0  0  0  0  0  0  0
   11.4220   23.8300   75.3620 H   0  0  0  0  0  0  0  0  0  0  0  0
   11.1210   25.5520   75.8980 H   0  0  0  0  0  0  0  0  0  0  0  0
   17.1080   27.6730   76.0410 H   0  0  0  0  0  0  0  0  0  0  0  0
   16.8870   29.4160   75.8290 H   0  0  0  0  0  0  0  0  0  0  0  0
   18.9710   27.6180   73.9530 H   0  0  0  0  0  0  0  0  0  0  0  0
   18.5900   28.7780   72.6760 H   0  0  0  0  0  0  0  0  0  0  0  0
   18.2300   30.1580   75.0000 H   0  0  0  0  0  0  0  0  0  0  0  0
   19.8950   29.7890   76.4180 H   0  0  0  0  0  0  0  0  0  0  0  0
   19.0070   28.2760   76.1890 H   0  0  0  0  0  0  0  0  0  0  0  0
   21.7520   28.5700   76.0460 H   0  0  0  0  0  0  0  0  0  0  0  0
   22.5910   28.5420   73.9540 H   0  0  0  0  0  0  0  0  0  0  0  0
   21.2650   27.5970   73.2630 H   0  0  0  0  0  0  0  0  0  0  0  0
   20.6280   29.4740   72.1710 H   0  0  0  0  0  0  0  0  0  0  0  0
   21.8200   30.4500   73.0400 H   0  0  0  0  0  0  0  0  0  0  0  0
   19.4760   31.2280   73.2970 H   0  0  0  0  0  0  0  0  0  0  0  0
   20.4310   31.0290   74.7740 H   0  0  0  0  0  0  0  0  0  0  0  0
   21.7260   26.2940   75.8150 H   0  0  0  0  0  0  0  0  0  0  0  0
   19.9410   26.6070   76.1890 H   0  0  0  0  0  0  0  0  0  0  0  0
   20.4860   26.3570   74.5120 H   0  0  0  0  0  0  0  0  0  0  0  0
   15.0680   28.9910   73.3970 H   0  0  0  0  0  0  0  0  0  0  0  0
   16.2340   29.0100   72.0630 H   0  0  0  0  0  0  0  0  0  0  0  0
   16.7210   30.7450   74.4000 H   0  0  0  0  0  0  0  0  0  0  0  0
   14.9910   32.0610   74.2530 H   0  0  0  0  0  0  0  0  0  0  0  0
   14.2220   30.6490   73.4800 H   0  0  0  0  0  0  0  0  0  0  0  0
   15.3480   33.1260   72.1370 H   0  0  0  0  0  0  0  0  0  0  0  0
   15.0970   31.8190   70.0380 H   0  0  0  0  0  0  0  0  0  0  0  0
   14.8100   30.3340   70.9840 H   0  0  0  0  0  0  0  0  0  0  0  0
   17.2490   30.1750   70.6800 H   0  0  0  0  0  0  0  0  0  0  0  0
   17.3470   31.9380   70.5150 H   0  0  0  0  0  0  0  0  0  0  0  0
   17.1730   32.3980   72.7850 H   0  0  0  0  0  0  0  0  0  0  0  0
   18.2980   31.0410   72.6270 H   0  0  0  0  0  0  0  0  0  0  0  0
   12.8950   32.3730   72.9330 H   0  0  0  0  0  0  0  0  0  0  0  0
   12.9630   31.5310   71.2950 H   0  0  0  0  0  0  0  0  0  0  0  0
   13.1900   33.2870   71.4240 H   0  0  0  0  0  0  0  0  0  0  0  0
  2  1  1  0  0  0  0
  3 14  1  0  0  0  0
  3  2  2  0  0  0  0
  4  3  1  0  0  0  0
  5  4  2  0  0  0  0
  5  6  1  0  0  0  0
  6  7  2  0  0  0  0
  7  2  1  0  0  0  0
  7  8  1  0  0  0  0
  8 34  1  0  0  0  0
  8 32  1  0  0  0  0
  9  6  1  0  0  0  0
 10 12  1  0  0  0  0
 10  4  1  0  0  0  0
 11 10  2  0  0  0  0
 12 23  1  6  0  0  0
 12 13  1  0  0  0  0
 13 14  1  0  0  0  0
 13 36  1  0  0  0  0
 13 35  1  0  0  0  0
 15 37  1  0  0  0  0
 15 12  1  0  0  0  0
 15 16  1  0  0  0  0
 16 39  1  0  0  0  0
 16 17  1  0  0  0  0
 17 41  1  0  0  0  0
 17 40  1  0  0  0  0
 18 22  1  0  0  0  0
 18 17  1  0  0  0  0
 18 42  1  1  0  0  0
 19 43  1  0  0  0  0
 19 18  1  0  0  0  0
 20 19  1  0  0  0  0
 20 21  1  0  0  0  0
 21 16  1  0  0  0  0
 21 48  1  0  0  0  0
 22 49  1  0  0  0  0
 22 50  1  0  0  0  0
 23 52  1  0  0  0  0
 23 24  1  0  0  0  0
 24 54  1  0  0  0  0
 25 24  1  0  0  0  0
 25 56  1  0  0  0  0
 25 55  1  0  0  0  0
 26 57  1  1  0  0  0
 26 25  1  0  0  0  0
 27 59  1  0  0  0  0
 27 28  1  0  0  0  0
 27 26  1  0  0  0  0
 28 29  1  0  0  0  0
 29 63  1  0  0  0  0
 29 62  1  0  0  0  0
 29 24  1  0  0  0  0
 30 26  1  0  0  0  0
 30 64  1  0  0  0  0
 31  5  1  0  0  0  0
 33  8  1  0  0  0  0
 38 15  1  0  0  0  0
 44 19  1  0  0  0  0
 45 20  1  0  0  0  0
 46 20  1  0  0  0  0
 47 21  1  0  0  0  0
 51 22  1  0  0  0  0
 53 23  1  0  0  0  0
 58 27  1  0  0  0  0
 60 28  1  0  0  0  0
 61 28  1  0  0  0  0
 65 30  1  0  0  0  0
 66 30  1  0  0  0  0
M  END
>  <Pose>
1

>  <Score>
-5.00

$$$$
