
 OpenBabel03212208413D

 55 58  0  0  1  0  0  0  0  0999 V2000
   13.4540   34.2180   70.6100 Cl  0  0  0  0  0  0  0  0  0  0  0  0
   15.0240   35.0110   70.5250 C   0  0  0  0  0  0  0  0  0  0  0  0
   16.1880   34.3500   70.8130 C   0  0  0  0  0  0  0  0  0  0  0  0
   17.3890   35.0180   70.7310 C   0  0  0  0  0  0  0  0  0  0  0  0
   17.3750   36.3370   70.3600 C   0  0  0  0  0  0  0  0  0  0  0  0
   16.1840   37.0090   70.0670 C   0  0  0  0  0  0  0  0  0  0  0  0
   15.0000   36.3370   70.1510 C   0  0  0  0  0  0  0  0  0  0  0  0
   18.6820   36.8970   70.3030 N   0  0  0  0  0  0  0  0  0  0  0  0
   19.5620   35.8670   70.6590 C   0  0  0  0  0  0  0  0  0  0  0  0
   20.8250   36.0430   70.6910 O   0  0  0  0  0  0  0  0  0  0  0  0
   18.8050   34.6450   70.9640 C   0  0  2  0  0  0  0  0  0  0  0  0
   19.2510   33.6160   70.0670 N   0  0  0  0  0  0  0  0  0  0  0  0
   19.9550   32.6220   70.8150 C   0  0  2  0  0  0  0  0  0  0  0  0
   20.2240   33.1910   72.1710 C   0  0  0  0  0  0  0  0  0  0  0  0
   19.1100   34.1890   72.3240 C   0  0  2  0  0  0  0  0  0  0  0  0
   17.9690   33.6610   73.1150 C   0  0  0  0  0  0  0  0  0  0  0  0
   17.9220   34.0160   74.3180 O   0  0  0  0  0  0  0  0  0  0  0  0
   16.9850   32.8140   72.5920 N   0  0  0  0  0  0  0  0  0  0  0  0
   16.8210   31.4400   72.7780 C   0  0  0  0  0  0  0  0  0  0  0  0
   15.6470   30.8350   72.3550 C   0  0  0  0  0  0  0  0  0  0  0  0
   15.4180   29.4820   72.5050 C   0  0  0  0  0  0  0  0  0  0  0  0
   16.3530   28.6640   73.0880 C   0  0  0  0  0  0  0  0  0  0  0  0
   17.5180   29.2320   73.5150 C   0  0  0  0  0  0  0  0  0  0  0  0
   17.7370   30.5980   73.3570 C   0  0  0  0  0  0  0  0  0  0  0  0
   18.4870   28.4420   74.1070 O   0  0  0  0  0  0  0  0  0  0  0  0
   19.6270   28.9820   74.7510 C   0  0  0  0  0  0  0  0  0  0  0  0
   14.6560   31.5930   71.7570 O   0  0  0  0  0  0  0  0  0  0  0  0
   13.4820   31.0640   71.2190 C   0  0  0  0  0  0  0  0  0  0  0  0
   21.2320   32.1880   70.1140 C   0  0  0  0  0  0  0  0  0  0  0  0
   22.4090   32.3110   70.9860 C   0  0  0  0  0  0  0  0  0  0  0  0
   22.8590   31.3160   71.5760 O   0  0  0  0  0  0  0  0  0  0  0  0
   23.0270   33.5640   71.1530 N   0  0  0  0  0  0  0  0  0  0  0  0
   16.1570   33.3280   71.0970 H   0  0  0  0  0  0  0  0  0  0  0  0
   16.1930   38.0630   69.7720 H   0  0  0  0  0  0  0  0  0  0  0  0
   14.0750   36.8650   69.9220 H   0  0  0  0  0  0  0  0  0  0  0  0
   18.9420   37.8860   70.0460 H   0  0  0  0  0  0  0  0  0  0  0  0
   18.4610   33.2430   69.4990 H   0  0  0  0  0  0  0  0  0  0  0  0
   19.3380   31.6990   70.9460 H   0  0  0  0  0  0  0  0  0  0  0  0
   21.1870   33.7640   72.2060 H   0  0  0  0  0  0  0  0  0  0  0  0
   20.2050   32.4250   72.9760 H   0  0  0  0  0  0  0  0  0  0  0  0
   19.5130   35.0860   72.8960 H   0  0  0  0  0  0  0  0  0  0  0  0
   16.2670   33.3050   71.9760 H   0  0  0  0  0  0  0  0  0  0  0  0
   14.4810   29.0290   72.1620 H   0  0  0  0  0  0  0  0  0  0  0  0
   16.1750   27.6090   73.2060 H   0  0  0  0  0  0  0  0  0  0  0  0
   18.6660   30.9570   73.7150 H   0  0  0  0  0  0  0  0  0  0  0  0
   19.3600   29.7800   75.4700 H   0  0  0  0  0  0  0  0  0  0  0  0
   20.2850   29.3760   73.9490 H   0  0  0  0  0  0  0  0  0  0  0  0
   20.1950   28.2120   75.2970 H   0  0  0  0  0  0  0  0  0  0  0  0
   12.8570   30.7150   72.0860 H   0  0  0  0  0  0  0  0  0  0  0  0
   12.9270   31.8750   70.7040 H   0  0  0  0  0  0  0  0  0  0  0  0
   13.6320   30.1840   70.5760 H   0  0  0  0  0  0  0  0  0  0  0  0
   21.3560   32.7560   69.1660 H   0  0  0  0  0  0  0  0  0  0  0  0
   21.1530   31.1210   69.8170 H   0  0  0  0  0  0  0  0  0  0  0  0
   22.9180   34.2720   70.3960 H   0  0  0  0  0  0  0  0  0  0  0  0
   23.5940   33.8390   71.9920 H   0  0  0  0  0  0  0  0  0  0  0  0
  2  1  1  0  0  0  0
  2  3  1  0  0  0  0
  3 33  1  0  0  0  0
  4  3  2  0  0  0  0
  4 11  1  0  0  0  0
  5  4  1  0  0  0  0
  6  7  1  0  0  0  0
  6  5  2  0  0  0  0
  7  2  2  0  0  0  0
  8  5  1  0  0  0  0
  8  9  1  0  0  0  0
  9 10  2  0  0  0  0
 11  9  1  6  0  0  0
 11 15  1  0  0  0  0
 12 13  1  0  0  0  0
 12 11  1  0  0  0  0
 13 38  1  1  0  0  0
 13 14  1  0  0  0  0
 14 39  1  0  0  0  0
 14 15  1  0  0  0  0
 14 40  1  0  0  0  0
 15 41  1  1  0  0  0
 15 16  1  0  0  0  0
 16 17  2  0  0  0  0
 18 19  1  0  0  0  0
 18 16  1  0  0  0  0
 19 24  1  0  0  0  0
 20 21  1  0  0  0  0
 20 19  2  0  0  0  0
 21 22  2  0  0  0  0
 22 44  1  0  0  0  0
 22 23  1  0  0  0  0
 23 25  1  0  0  0  0
 24 23  2  0  0  0  0
 24 45  1  0  0  0  0
 25 26  1  0  0  0  0
 26 48  1  0  0  0  0
 26 46  1  0  0  0  0
 27 20  1  0  0  0  0
 28 27  1  0  0  0  0
 28 49  1  0  0  0  0
 29 13  1  0  0  0  0
 29 30  1  0  0  0  0
 30 32  1  0  0  0  0
 30 31  2  0  0  0  0
 32 55  1  0  0  0  0
 34  6  1  0  0  0  0
 35  7  1  0  0  0  0
 36  8  1  0  0  0  0
 37 12  1  0  0  0  0
 42 18  1  0  0  0  0
 43 21  1  0  0  0  0
 47 26  1  0  0  0  0
 50 28  1  0  0  0  0
 51 28  1  0  0  0  0
 52 29  1  0  0  0  0
 53 29  1  0  0  0  0
 54 32  1  0  0  0  0
M  END
>  <Pose>
1

>  <Score>
-6.41

$$$$
