
 OpenBabel03212208413D

 32 35  0  0  0  0  0  0  0  0999 V2000
   14.4040   27.2760   75.5380 B   0  0  0  0  0  0  0  0  0  0  0  0
   15.4630   27.9610   74.1100 C   0  0  0  0  0  0  0  0  0  0  0  0
   15.7250   29.2920   73.7950 C   0  0  0  0  0  0  0  0  0  0  0  0
   16.5210   29.3230   72.7070 N   0  0  0  0  0  0  0  0  0  0  0  0
   16.7600   28.0640   72.3370 N   0  0  0  0  0  0  0  0  0  0  0  0
   16.1330   27.2090   73.1680 C   0  0  0  0  0  0  0  0  0  0  0  0
   16.1170   25.7270   73.1390 C   0  0  0  0  0  0  0  0  0  0  0  0
   17.0370   30.5060   72.0390 C   0  0  0  0  0  0  0  0  0  0  0  0
   15.9520   31.4710   71.7100 C   0  0  0  0  0  0  0  0  0  0  0  0
   14.6280   31.3360   71.8880 N   0  0  0  0  0  0  0  0  0  0  0  0
   13.9800   32.4330   71.4620 N   0  0  0  0  0  0  0  0  0  0  0  0
   14.9120   33.2860   71.0010 C   0  0  0  0  0  0  0  0  0  0  0  0
   16.1100   32.6920   71.1550 N   0  0  0  0  0  0  0  0  0  0  0  0
   14.4810   34.5010   70.5020 C   0  0  0  0  0  0  0  0  0  0  0  0
   13.1440   34.8500   70.4680 C   0  0  0  0  0  0  0  0  0  0  0  0
   12.9970   36.0830   69.9370 N   0  0  0  0  0  0  0  0  0  0  0  0
   14.2150   36.4980   69.6430 N   0  0  0  0  0  0  0  0  0  0  0  0
   15.1440   35.5800   69.9660 C   0  0  0  0  0  0  0  0  0  0  0  0
   11.7310   36.7870   69.7400 C   0  0  0  0  0  0  0  0  0  0  0  0
   12.2680   33.9490   70.9450 N   0  0  0  0  0  0  0  0  0  0  0  0
   12.6750   32.7650   71.4320 C   0  0  0  0  0  0  0  0  0  0  0  0
   15.3320   30.1280   74.3630 H   0  0  0  0  0  0  0  0  0  0  0  0
   15.3210   25.3150   72.4830 H   0  0  0  0  0  0  0  0  0  0  0  0
   15.9860   25.2870   74.1410 H   0  0  0  0  0  0  0  0  0  0  0  0
   17.1010   25.4170   72.6920 H   0  0  0  0  0  0  0  0  0  0  0  0
   17.6190   30.2280   71.1170 H   0  0  0  0  0  0  0  0  0  0  0  0
   17.8100   30.9840   72.7090 H   0  0  0  0  0  0  0  0  0  0  0  0
   16.2120   35.6140   69.8540 H   0  0  0  0  0  0  0  0  0  0  0  0
   11.8880   37.8860   69.7100 H   0  0  0  0  0  0  0  0  0  0  0  0
   11.0570   36.6220   70.6300 H   0  0  0  0  0  0  0  0  0  0  0  0
   11.2230   36.4940   68.8150 H   0  0  0  0  0  0  0  0  0  0  0  0
   11.9830   32.0230   71.8220 H   0  0  0  0  0  0  0  0  0  0  0  0
  2  1  1  0  0  0  0
  3  2  2  0  0  0  0
  3 22  1  0  0  0  0
  4  3  1  0  0  0  0
  5  4  1  0  0  0  0
  5  6  2  0  0  0  0
  6  2  1  0  0  0  0
  7  6  1  0  0  0  0
  7 24  1  0  0  0  0
  8  4  1  0  0  0  0
  8 27  1  0  0  0  0
  9 10  2  0  0  0  0
  9  8  1  0  0  0  0
 11 10  1  0  0  0  0
 12 13  2  0  0  0  0
 12 11  1  0  0  0  0
 13  9  1  0  0  0  0
 14 12  1  0  0  0  0
 15 14  2  0  0  0  0
 15 20  1  0  0  0  0
 16 15  1  0  0  0  0
 17 16  1  0  0  0  0
 17 18  2  0  0  0  0
 18 14  1  0  0  0  0
 19 16  1  0  0  0  0
 19 30  1  0  0  0  0
 20 21  2  0  0  0  0
 21 11  1  0  0  0  0
 21 32  1  0  0  0  0
 23  7  1  0  0  0  0
 25  7  1  0  0  0  0
 26  8  1  0  0  0  0
 28 18  1  0  0  0  0
 29 19  1  0  0  0  0
 31 19  1  0  0  0  0
M  END
>  <Pose>
1

>  <Score>
-5.55

$$$$
