
 OpenBabel03212208413D

 56 59  0  0  1  0  0  0  0  0999 V2000
   20.0230   36.5860   72.9090 B   0  0  0  0  0  0  0  0  0  0  0  0
   20.0020   35.0730   71.7660 C   0  0  0  0  0  0  0  0  0  0  0  0
   18.8150   34.3540   71.5900 C   0  0  0  0  0  0  0  0  0  0  0  0
   18.7600   33.2610   70.7620 C   0  0  0  0  0  0  0  0  0  0  0  0
   19.9150   32.8960   70.1120 C   0  0  0  0  0  0  0  0  0  0  0  0
   21.1110   33.5930   70.2700 C   0  0  0  0  0  0  0  0  0  0  0  0
   21.1520   34.7060   71.1140 C   0  0  0  0  0  0  0  0  0  0  0  0
   22.4230   35.4620   71.2870 C   0  0  0  0  0  0  0  0  0  0  0  0
   22.3400   33.1450   69.5620 C   0  0  0  0  0  0  0  0  0  0  0  0
   17.5320   32.4610   70.4840 C   0  0  2  0  0  0  0  0  0  0  0  0
   16.3620   32.7950   71.3590 C   0  0  2  0  0  0  0  0  0  0  0  0
   16.8690   33.4910   72.6080 C   0  0  0  0  0  0  0  0  0  0  0  0
   17.6230   34.6720   72.2260 O   0  0  0  0  0  0  0  0  0  0  0  0
   15.7820   31.5320   71.7620 N   0  0  0  0  0  0  0  0  0  0  0  0
   14.4190   31.3780   71.3780 C   0  0  0  0  0  0  0  0  0  0  0  0
   13.6630   30.2950   72.0930 C   0  0  0  0  0  0  0  0  0  0  0  0
   13.9780   30.1360   73.4150 O   0  0  0  0  0  0  0  0  0  0  0  0
   15.3530   29.8800   73.5010 C   0  0  0  0  0  0  0  0  0  0  0  0
   16.0000   31.2450   73.1490 C   0  0  0  0  0  0  0  0  0  0  0  0
   15.3680   33.7330   70.7870 C   0  0  0  0  0  0  0  0  0  0  0  0
   14.4330   34.4320   71.5420 N   0  0  0  0  0  0  0  0  0  0  0  0
   14.4590   35.8830   71.1500 C   0  0  0  0  0  0  0  0  0  0  0  0
   14.2390   36.0490   69.6920 C   0  0  0  0  0  0  0  0  0  0  0  0
   13.4360   35.1030   69.1160 O   0  0  0  0  0  0  0  0  0  0  0  0
   12.5500   34.4810   69.9470 C   0  0  0  0  0  0  0  0  0  0  0  0
   13.0210   34.1720   71.3320 C   0  0  0  0  0  0  0  0  0  0  0  0
   17.8870   31.0860   70.6450 O   0  0  0  0  0  0  0  0  0  0  0  0
   19.9780   32.0330   69.4290 H   0  0  0  0  0  0  0  0  0  0  0  0
   23.2380   34.8880   71.7350 H   0  0  0  0  0  0  0  0  0  0  0  0
   22.2270   36.3290   71.9630 H   0  0  0  0  0  0  0  0  0  0  0  0
   22.6860   35.8280   70.2520 H   0  0  0  0  0  0  0  0  0  0  0  0
   22.6860   32.2000   70.0700 H   0  0  0  0  0  0  0  0  0  0  0  0
   22.1870   32.9160   68.5000 H   0  0  0  0  0  0  0  0  0  0  0  0
   23.1330   33.9100   69.7270 H   0  0  0  0  0  0  0  0  0  0  0  0
   17.3700   32.5640   69.4120 H   0  0  0  0  0  0  0  0  0  0  0  0
   17.5040   32.9010   73.2520 H   0  0  0  0  0  0  0  0  0  0  0  0
   15.9670   33.9100   73.1210 H   0  0  0  0  0  0  0  0  0  0  0  0
   14.3810   31.1100   70.3050 H   0  0  0  0  0  0  0  0  0  0  0  0
   13.9030   32.3220   71.6370 H   0  0  0  0  0  0  0  0  0  0  0  0
   13.6800   29.3260   71.5540 H   0  0  0  0  0  0  0  0  0  0  0  0
   12.5760   30.5870   72.0720 H   0  0  0  0  0  0  0  0  0  0  0  0
   15.6000   29.6810   74.5460 H   0  0  0  0  0  0  0  0  0  0  0  0
   15.6730   29.1150   72.7730 H   0  0  0  0  0  0  0  0  0  0  0  0
   15.4220   31.9520   73.7950 H   0  0  0  0  0  0  0  0  0  0  0  0
   17.0470   31.1270   73.4230 H   0  0  0  0  0  0  0  0  0  0  0  0
   14.7530   33.0410   70.0850 H   0  0  0  0  0  0  0  0  0  0  0  0
   15.8580   34.3980   70.0300 H   0  0  0  0  0  0  0  0  0  0  0  0
   15.3930   36.3400   71.5240 H   0  0  0  0  0  0  0  0  0  0  0  0
   13.6370   36.3640   71.7110 H   0  0  0  0  0  0  0  0  0  0  0  0
   13.8530   37.0820   69.4470 H   0  0  0  0  0  0  0  0  0  0  0  0
   15.2410   35.9880   69.1970 H   0  0  0  0  0  0  0  0  0  0  0  0
   12.2590   33.5260   69.4700 H   0  0  0  0  0  0  0  0  0  0  0  0
   11.6220   35.1210   69.9460 H   0  0  0  0  0  0  0  0  0  0  0  0
   12.5290   35.0000   71.9730 H   0  0  0  0  0  0  0  0  0  0  0  0
   12.6110   33.2800   71.7740 H   0  0  0  0  0  0  0  0  0  0  0  0
   17.0420   30.5710   70.6330 H   0  0  0  0  0  0  0  0  0  0  0  0
  2  1  1  0  0  0  0
  3  2  1  0  0  0  0
  3 13  1  0  0  0  0
  4  3  2  0  0  0  0
  5  6  2  0  0  0  0
  5  4  1  0  0  0  0
  6  7  1  0  0  0  0
  7  8  1  0  0  0  0
  7  2  2  0  0  0  0
  8 29  1  0  0  0  0
  8 30  1  0  0  0  0
  9 34  1  0  0  0  0
  9 32  1  0  0  0  0
  9  6  1  0  0  0  0
 10 35  1  6  0  0  0
 10 27  1  0  0  0  0
 10  4  1  0  0  0  0
 10 11  1  0  0  0  0
 11 20  1  6  0  0  0
 11 14  1  0  0  0  0
 11 12  1  0  0  0  0
 12 37  1  0  0  0  0
 12 36  1  0  0  0  0
 13 12  1  0  0  0  0
 14 19  1  0  0  0  0
 15 39  1  0  0  0  0
 15 14  1  0  0  0  0
 15 16  1  0  0  0  0
 16 17  1  0  0  0  0
 17 18  1  0  0  0  0
 18 42  1  0  0  0  0
 19 45  1  0  0  0  0
 19 18  1  0  0  0  0
 19 44  1  0  0  0  0
 20 21  1  0  0  0  0
 22 48  1  0  0  0  0
 22 21  1  0  0  0  0
 22 49  1  0  0  0  0
 23 22  1  0  0  0  0
 24 23  1  0  0  0  0
 24 25  1  0  0  0  0
 25 26  1  0  0  0  0
 26 21  1  0  0  0  0
 26 55  1  0  0  0  0
 26 54  1  0  0  0  0
 28  5  1  0  0  0  0
 31  8  1  0  0  0  0
 33  9  1  0  0  0  0
 38 15  1  0  0  0  0
 40 16  1  0  0  0  0
 41 16  1  0  0  0  0
 43 18  1  0  0  0  0
 46 20  1  0  0  0  0
 47 20  1  0  0  0  0
 50 23  1  0  0  0  0
 51 23  1  0  0  0  0
 52 25  1  0  0  0  0
 53 25  1  0  0  0  0
 56 27  1  0  0  0  0
M  END
>  <Pose>
1

>  <Score>
-4.49

$$$$
