
 OpenBabel03212208413D

 45 48  0  0  0  0  0  0  0  0999 V2000
   24.8320   32.8290   70.5540 B   0  0  0  0  0  0  0  0  0  0  0  0
   23.0370   33.1890   70.0050 C   0  0  0  0  0  0  0  0  0  0  0  0
   22.6700   34.3380   69.3500 C   0  0  0  0  0  0  0  0  0  0  0  0
   21.3210   34.2490   69.1190 C   0  0  0  0  0  0  0  0  0  0  0  0
   20.8590   33.0650   69.6230 N   0  0  0  0  0  0  0  0  0  0  0  0
   21.9180   32.4200   70.1660 C   0  0  0  0  0  0  0  0  0  0  0  0
   21.8600   31.0960   70.8260 C   0  0  0  0  0  0  0  0  0  0  0  0
   19.4940   32.6760   69.5630 C   0  0  0  0  0  0  0  0  0  0  0  0
   18.6920   32.6630   70.7710 C   0  0  0  0  0  0  0  0  0  0  0  0
   18.6950   31.4680   71.3510 O   0  0  0  0  0  0  0  0  0  0  0  0
   17.9360   33.6180   71.4320 N   0  0  0  0  0  0  0  0  0  0  0  0
   17.5140   34.8870   70.9550 C   0  0  0  0  0  0  0  0  0  0  0  0
   16.0090   34.8660   70.6860 C   0  0  0  0  0  0  0  0  0  0  0  0
   15.3280   33.9320   71.6720 C   0  0  0  0  0  0  0  0  0  0  0  0
   14.0330   34.5290   71.9470 N   0  0  0  0  0  0  0  0  0  0  0  0
   13.1240   34.0000   70.9590 C   0  0  0  0  0  0  0  0  0  0  0  0
   12.0100   34.4870   70.6450 O   0  0  0  0  0  0  0  0  0  0  0  0
   13.7360   32.8170   70.4090 N   0  0  0  0  0  0  0  0  0  0  0  0
   14.9920   32.6340   71.0510 C   0  0  0  0  0  0  0  0  0  0  0  0
   15.6490   31.5670   71.0620 O   0  0  0  0  0  0  0  0  0  0  0  0
   16.0760   33.8080   72.9620 C   0  0  0  0  0  0  0  0  0  0  0  0
   17.4800   33.3190   72.8110 C   0  0  0  0  0  0  0  0  0  0  0  0
   20.6700   35.2900   68.4580 C   0  0  0  0  0  0  0  0  0  0  0  0
   21.3750   36.4100   68.0350 C   0  0  0  0  0  0  0  0  0  0  0  0
   22.7190   36.4800   68.2750 C   0  0  0  0  0  0  0  0  0  0  0  0
   23.3700   35.4570   68.9260 C   0  0  0  0  0  0  0  0  0  0  0  0
   22.7550   30.4770   70.5910 H   0  0  0  0  0  0  0  0  0  0  0  0
   21.8630   31.2630   71.9300 H   0  0  0  0  0  0  0  0  0  0  0  0
   20.9430   30.5280   70.5350 H   0  0  0  0  0  0  0  0  0  0  0  0
   19.4540   31.6440   69.0760 H   0  0  0  0  0  0  0  0  0  0  0  0
   19.0010   33.3120   68.7580 H   0  0  0  0  0  0  0  0  0  0  0  0
   18.0530   35.3580   70.1540 H   0  0  0  0  0  0  0  0  0  0  0  0
   17.6380   35.6120   71.8330 H   0  0  0  0  0  0  0  0  0  0  0  0
   15.6620   35.9140   70.7960 H   0  0  0  0  0  0  0  0  0  0  0  0
   15.8450   34.5650   69.6510 H   0  0  0  0  0  0  0  0  0  0  0  0
   13.7930   35.2060   72.7010 H   0  0  0  0  0  0  0  0  0  0  0  0
   13.3290   32.2150   69.6800 H   0  0  0  0  0  0  0  0  0  0  0  0
   16.0010   34.7930   73.4830 H   0  0  0  0  0  0  0  0  0  0  0  0
   15.5040   33.0840   73.5980 H   0  0  0  0  0  0  0  0  0  0  0  0
   17.6600   32.2830   73.0890 H   0  0  0  0  0  0  0  0  0  0  0  0
   18.1290   33.9780   73.4600 H   0  0  0  0  0  0  0  0  0  0  0  0
   19.6040   35.1970   68.2890 H   0  0  0  0  0  0  0  0  0  0  0  0
   20.8300   37.2020   67.5240 H   0  0  0  0  0  0  0  0  0  0  0  0
   23.2620   37.3430   67.9490 H   0  0  0  0  0  0  0  0  0  0  0  0
   24.4270   35.4850   69.1270 H   0  0  0  0  0  0  0  0  0  0  0  0
  2  6  2  0  0  0  0
  2  1  1  0  0  0  0
  3  2  1  0  0  0  0
  4  3  1  0  0  0  0
  4  5  1  0  0  0  0
  5  6  1  0  0  0  0
  6  7  1  0  0  0  0
  7 28  1  0  0  0  0
  8  5  1  0  0  0  0
  8  9  1  0  0  0  0
  9 10  2  0  0  0  0
  9 11  1  0  0  0  0
 11 22  1  0  0  0  0
 12 11  1  0  0  0  0
 12 33  1  0  0  0  0
 13 34  1  0  0  0  0
 13 12  1  0  0  0  0
 13 14  1  0  0  0  0
 14 15  1  0  0  0  0
 14 21  1  0  0  0  0
 15 36  1  0  0  0  0
 16 15  1  0  0  0  0
 17 16  2  0  0  0  0
 18 16  1  0  0  0  0
 18 19  1  0  0  0  0
 19 20  2  0  0  0  0
 19 14  1  0  0  0  0
 21 38  1  0  0  0  0
 21 39  1  0  0  0  0
 22 21  1  0  0  0  0
 22 40  1  0  0  0  0
 22 41  1  0  0  0  0
 23  4  2  0  0  0  0
 24 25  2  0  0  0  0
 24 23  1  0  0  0  0
 25 26  1  0  0  0  0
 26 45  1  0  0  0  0
 26  3  2  0  0  0  0
 27  7  1  0  0  0  0
 29  7  1  0  0  0  0
 30  8  1  0  0  0  0
 31  8  1  0  0  0  0
 32 12  1  0  0  0  0
 35 13  1  0  0  0  0
 37 18  1  0  0  0  0
 42 23  1  0  0  0  0
 43 24  1  0  0  0  0
 44 25  1  0  0  0  0
M  END
>  <Pose>
1

>  <Score>
-5.82

$$$$
