
 OpenBabel03212208413D

 46 49  0  0  0  0  0  0  0  0999 V2000
   13.6810   29.9450   72.8040 B   0  0  0  0  0  0  0  0  0  0  0  0
   14.1270   31.6850   72.1560 C   0  0  0  0  0  0  0  0  0  0  0  0
   15.2250   32.3680   72.5610 N   0  0  0  0  0  0  0  0  0  0  0  0
   15.1790   33.5330   71.8790 C   0  0  0  0  0  0  0  0  0  0  0  0
   14.0710   33.5810   71.0590 C   0  0  0  0  0  0  0  0  0  0  0  0
   13.4320   32.4040   71.2560 N   0  0  0  0  0  0  0  0  0  0  0  0
   13.7940   34.6430   70.2690 N   0  0  0  0  0  0  0  0  0  0  0  0
   14.6440   35.6850   70.2980 C   0  0  0  0  0  0  0  0  0  0  0  0
   14.4520   36.7090   69.5900 O   0  0  0  0  0  0  0  0  0  0  0  0
   15.7480   35.6740   71.0950 N   0  0  0  0  0  0  0  0  0  0  0  0
   16.0300   34.6260   71.8820 C   0  0  0  0  0  0  0  0  0  0  0  0
   17.0310   34.5680   72.6310 O   0  0  0  0  0  0  0  0  0  0  0  0
   12.6240   34.6760   69.4120 C   0  0  0  0  0  0  0  0  0  0  0  0
   16.2400   31.9720   73.5090 C   0  0  0  0  0  0  0  0  0  0  0  0
   17.2200   30.9820   72.8930 C   0  0  0  0  0  0  0  0  0  0  0  0
   18.6420   31.4290   73.1010 C   0  0  0  0  0  0  0  0  0  0  0  0
   19.6620   30.3310   73.0340 C   0  0  0  0  0  0  0  0  0  0  0  0
   20.9520   30.8650   72.7470 N   0  0  0  0  0  0  0  0  0  0  0  0
   21.4300   31.4440   71.6480 C   0  0  0  0  0  0  0  0  0  0  0  0
   22.7450   31.8310   71.8820 C   0  0  0  0  0  0  0  0  0  0  0  0
   23.0120   31.4640   73.1320 N   0  0  0  0  0  0  0  0  0  0  0  0
   21.9440   30.8770   73.6730 C   0  0  0  0  0  0  0  0  0  0  0  0
   21.8830   30.1940   75.4520 B   0  0  0  0  0  0  0  0  0  0  0  0
   23.4600   32.4360   70.9290 N   0  0  0  0  0  0  0  0  0  0  0  0
   22.9290   32.6850   69.7170 C   0  0  0  0  0  0  0  0  0  0  0  0
   23.6080   33.2540   68.8260 O   0  0  0  0  0  0  0  0  0  0  0  0
   21.6660   32.3170   69.4780 N   0  0  0  0  0  0  0  0  0  0  0  0
   20.9140   31.7080   70.4060 C   0  0  0  0  0  0  0  0  0  0  0  0
   19.7380   31.3700   70.1640 O   0  0  0  0  0  0  0  0  0  0  0  0
   24.8410   32.8530   71.1480 C   0  0  0  0  0  0  0  0  0  0  0  0
   16.3860   36.5040   71.0910 H   0  0  0  0  0  0  0  0  0  0  0  0
   12.2380   33.6560   69.2070 H   0  0  0  0  0  0  0  0  0  0  0  0
   11.7850   35.2150   69.9390 H   0  0  0  0  0  0  0  0  0  0  0  0
   12.8300   35.1340   68.4230 H   0  0  0  0  0  0  0  0  0  0  0  0
   15.8120   31.6050   74.4400 H   0  0  0  0  0  0  0  0  0  0  0  0
   16.8400   32.8900   73.7310 H   0  0  0  0  0  0  0  0  0  0  0  0
   17.1440   29.9930   73.4340 H   0  0  0  0  0  0  0  0  0  0  0  0
   17.0160   30.7980   71.8310 H   0  0  0  0  0  0  0  0  0  0  0  0
   18.8730   32.2670   72.4080 H   0  0  0  0  0  0  0  0  0  0  0  0
   18.7740   31.8920   74.1250 H   0  0  0  0  0  0  0  0  0  0  0  0
   19.6350   29.8130   74.0250 H   0  0  0  0  0  0  0  0  0  0  0  0
   19.3150   29.5770   72.3020 H   0  0  0  0  0  0  0  0  0  0  0  0
   21.2100   32.4940   68.5370 H   0  0  0  0  0  0  0  0  0  0  0  0
   25.0570   32.7320   72.2330 H   0  0  0  0  0  0  0  0  0  0  0  0
   24.8810   33.9320   70.8780 H   0  0  0  0  0  0  0  0  0  0  0  0
   25.5470   32.2720   70.5310 H   0  0  0  0  0  0  0  0  0  0  0  0
  2  3  1  0  0  0  0
  2  1  1  0  0  0  0
  3 14  1  0  0  0  0
  4 11  1  0  0  0  0
  4  3  1  0  0  0  0
  5  6  1  0  0  0  0
  5  4  2  0  0  0  0
  6  2  2  0  0  0  0
  7  8  1  0  0  0  0
  7  5  1  0  0  0  0
  8 10  1  0  0  0  0
  9  8  2  0  0  0  0
 10 11  1  0  0  0  0
 11 12  2  0  0  0  0
 13 33  1  0  0  0  0
 13  7  1  0  0  0  0
 14 36  1  0  0  0  0
 14 35  1  0  0  0  0
 15 16  1  0  0  0  0
 15 37  1  0  0  0  0
 15 14  1  0  0  0  0
 16 40  1  0  0  0  0
 17 16  1  0  0  0  0
 17 41  1  0  0  0  0
 18 17  1  0  0  0  0
 18 22  1  0  0  0  0
 19 20  2  0  0  0  0
 19 18  1  0  0  0  0
 20 21  1  0  0  0  0
 21 22  2  0  0  0  0
 22 23  1  0  0  0  0
 24 30  1  0  0  0  0
 24 20  1  0  0  0  0
 25 24  1  0  0  0  0
 26 25  2  0  0  0  0
 27 25  1  0  0  0  0
 27 28  1  0  0  0  0
 28 19  1  0  0  0  0
 29 28  2  0  0  0  0
 30 44  1  0  0  0  0
 31 10  1  0  0  0  0
 32 13  1  0  0  0  0
 34 13  1  0  0  0  0
 38 15  1  0  0  0  0
 39 16  1  0  0  0  0
 42 17  1  0  0  0  0
 43 27  1  0  0  0  0
 45 30  1  0  0  0  0
 46 30  1  0  0  0  0
M  END
>  <Pose>
1

>  <Score>
-7.17

$$$$
