
 OpenBabel03212208413D

 47 50  0  0  0  0  0  0  0  0999 V2000
   13.5900   30.7070   72.5330 B   0  0  0  0  0  0  0  0  0  0  0  0
   13.6710   32.4320   71.7120 C   0  0  0  0  0  0  0  0  0  0  0  0
   14.7630   33.1280   71.4000 N   0  0  0  0  0  0  0  0  0  0  0  0
   14.3190   34.2630   70.7930 C   0  0  0  0  0  0  0  0  0  0  0  0
   12.9430   34.2110   70.7630 C   0  0  0  0  0  0  0  0  0  0  0  0
   12.5460   33.0800   71.3320 N   0  0  0  0  0  0  0  0  0  0  0  0
   12.2540   35.2400   70.1950 N   0  0  0  0  0  0  0  0  0  0  0  0
   12.9330   36.2660   69.6840 C   0  0  0  0  0  0  0  0  0  0  0  0
   12.2660   37.2070   69.1640 O   0  0  0  0  0  0  0  0  0  0  0  0
   14.2740   36.3270   69.7080 N   0  0  0  0  0  0  0  0  0  0  0  0
   15.0190   35.3290   70.2620 C   0  0  0  0  0  0  0  0  0  0  0  0
   16.2740   35.3940   70.2760 O   0  0  0  0  0  0  0  0  0  0  0  0
   10.8070   35.2230   70.1450 C   0  0  0  0  0  0  0  0  0  0  0  0
   16.1440   32.8640   71.6260 C   0  0  0  0  0  0  0  0  0  0  0  0
   16.5520   31.4870   71.9480 C   0  0  0  0  0  0  0  0  0  0  0  0
   17.3950   31.1990   72.9700 O   0  0  0  0  0  0  0  0  0  0  0  0
   18.0350   29.9860   72.7730 C   0  0  0  0  0  0  0  0  0  0  0  0
   18.9340   29.7090   73.9410 C   0  0  0  0  0  0  0  0  0  0  0  0
   20.1710   29.1180   73.5390 N   0  0  0  0  0  0  0  0  0  0  0  0
   21.3330   29.7640   73.3780 C   0  0  0  0  0  0  0  0  0  0  0  0
   22.2640   28.8540   72.9840 C   0  0  0  0  0  0  0  0  0  0  0  0
   21.6460   27.6770   72.9150 N   0  0  0  0  0  0  0  0  0  0  0  0
   20.3520   27.8000   73.2510 C   0  0  0  0  0  0  0  0  0  0  0  0
   18.9940   26.4750   73.3330 B   0  0  0  0  0  0  0  0  0  0  0  0
   23.5300   29.2410   72.7530 N   0  0  0  0  0  0  0  0  0  0  0  0
   23.8550   30.5220   72.9160 C   0  0  0  0  0  0  0  0  0  0  0  0
   25.0460   30.8710   72.6960 O   0  0  0  0  0  0  0  0  0  0  0  0
   22.9620   31.4260   73.3000 N   0  0  0  0  0  0  0  0  0  0  0  0
   21.6930   31.0880   73.5410 C   0  0  0  0  0  0  0  0  0  0  0  0
   20.8680   31.9840   73.9070 O   0  0  0  0  0  0  0  0  0  0  0  0
   24.5340   28.2860   72.3330 C   0  0  0  0  0  0  0  0  0  0  0  0
   14.7910   37.1360   69.3030 H   0  0  0  0  0  0  0  0  0  0  0  0
   10.4430   34.1860   69.9660 H   0  0  0  0  0  0  0  0  0  0  0  0
   10.4240   35.8540   69.3360 H   0  0  0  0  0  0  0  0  0  0  0  0
   10.3760   35.6140   71.1020 H   0  0  0  0  0  0  0  0  0  0  0  0
   16.6640   33.1450   70.6560 H   0  0  0  0  0  0  0  0  0  0  0  0
   16.6010   33.6220   72.3430 H   0  0  0  0  0  0  0  0  0  0  0  0
   15.6180   30.8380   72.1530 H   0  0  0  0  0  0  0  0  0  0  0  0
   16.9110   30.9620   70.9840 H   0  0  0  0  0  0  0  0  0  0  0  0
   18.6930   30.1000   71.8480 H   0  0  0  0  0  0  0  0  0  0  0  0
   17.3110   29.2260   72.5280 H   0  0  0  0  0  0  0  0  0  0  0  0
   19.0830   30.6910   74.4710 H   0  0  0  0  0  0  0  0  0  0  0  0
   18.3560   29.0450   74.6270 H   0  0  0  0  0  0  0  0  0  0  0  0
   23.2370   32.4240   73.4220 H   0  0  0  0  0  0  0  0  0  0  0  0
   25.0480   27.9090   73.2300 H   0  0  0  0  0  0  0  0  0  0  0  0
   24.0600   27.4590   71.7760 H   0  0  0  0  0  0  0  0  0  0  0  0
   25.2240   28.8480   71.6460 H   0  0  0  0  0  0  0  0  0  0  0  0
  2  1  1  0  0  0  0
  3 14  1  0  0  0  0
  3  2  1  0  0  0  0
  4  3  1  0  0  0  0
  5  4  2  0  0  0  0
  5  6  1  0  0  0  0
  6  2  2  0  0  0  0
  7  5  1  0  0  0  0
  8 10  1  0  0  0  0
  8  7  1  0  0  0  0
  9  8  2  0  0  0  0
 10 11  1  0  0  0  0
 11 12  2  0  0  0  0
 11  4  1  0  0  0  0
 13  7  1  0  0  0  0
 13 35  1  0  0  0  0
 14 15  1  0  0  0  0
 14 37  1  0  0  0  0
 15 38  1  0  0  0  0
 15 16  1  0  0  0  0
 17 16  1  0  0  0  0
 17 18  1  0  0  0  0
 18 42  1  0  0  0  0
 18 43  1  0  0  0  0
 19 18  1  0  0  0  0
 20 19  1  0  0  0  0
 20 29  1  0  0  0  0
 21 20  2  0  0  0  0
 22 21  1  0  0  0  0
 22 23  2  0  0  0  0
 23 24  1  0  0  0  0
 23 19  1  0  0  0  0
 25 26  1  0  0  0  0
 25 21  1  0  0  0  0
 26 28  1  0  0  0  0
 27 26  2  0  0  0  0
 28 44  1  0  0  0  0
 28 29  1  0  0  0  0
 29 30  2  0  0  0  0
 31 25  1  0  0  0  0
 31 45  1  0  0  0  0
 32 10  1  0  0  0  0
 33 13  1  0  0  0  0
 34 13  1  0  0  0  0
 36 14  1  0  0  0  0
 39 15  1  0  0  0  0
 40 17  1  0  0  0  0
 41 17  1  0  0  0  0
 46 31  1  0  0  0  0
 47 31  1  0  0  0  0
M  END
>  <Pose>
1

>  <Score>
-7.34

$$$$
