
 OpenBabel03212208413D

 51 54  0  0  0  0  0  0  0  0999 V2000
   23.2470   34.2600   67.8550 Cl  0  0  0  0  0  0  0  0  0  0  0  0
   22.3450   35.1810   69.0350 C   0  0  0  0  0  0  0  0  0  0  0  0
   21.4590   34.5480   69.8560 C   0  0  0  0  0  0  0  0  0  0  0  0
   20.7750   35.3220   70.7670 C   0  0  0  0  0  0  0  0  0  0  0  0
   20.9620   36.6770   70.8620 C   0  0  0  0  0  0  0  0  0  0  0  0
   21.8600   37.3070   70.0270 C   0  0  0  0  0  0  0  0  0  0  0  0
   22.5470   36.5400   69.1140 C   0  0  0  0  0  0  0  0  0  0  0  0
   21.1980   33.0970   69.8200 C   0  0  0  0  0  0  0  0  0  0  0  0
   21.5370   32.4090   71.0170 N   0  0  0  0  0  0  0  0  0  0  0  0
   22.7510   32.0250   71.3930 N   0  0  0  0  0  0  0  0  0  0  0  0
   22.7200   31.4040   72.5600 C   0  0  0  0  0  0  0  0  0  0  0  0
   21.3750   31.3930   72.9580 C   0  0  0  0  0  0  0  0  0  0  0  0
   20.6440   32.0270   71.9790 C   0  0  0  0  0  0  0  0  0  0  0  0
   19.2790   32.2860   71.9970 N   0  0  0  0  0  0  0  0  0  0  0  0
   18.1230   31.6650   71.6450 C   0  0  0  0  0  0  0  0  0  0  0  0
   18.0700   30.4700   72.3220 O   0  0  0  0  0  0  0  0  0  0  0  0
   16.9370   31.8180   70.8180 C   0  0  0  0  0  0  0  0  0  0  0  0
   16.0320   32.8840   70.8540 N   0  0  0  0  0  0  0  0  0  0  0  0
   16.4500   34.3040   70.7100 C   0  0  0  0  0  0  0  0  0  0  0  0
   15.2450   35.1030   71.1610 C   0  0  0  0  0  0  0  0  0  0  0  0
   14.1100   34.8440   70.2060 C   0  0  0  0  0  0  0  0  0  0  0  0
   13.6380   33.4150   70.3640 C   0  0  0  0  0  0  0  0  0  0  0  0
   14.6470   32.6270   71.1300 C   0  0  0  0  0  0  0  0  0  0  0  0
   14.2580   31.7960   72.0990 C   0  0  0  0  0  0  0  0  0  0  0  0
   12.8650   31.5430   72.3510 N   0  0  0  0  0  0  0  0  0  0  0  0
   12.7420   30.6860   73.4610 N   0  0  0  0  0  0  0  0  0  0  0  0
   14.0380   30.3850   73.9260 C   0  0  0  0  0  0  0  0  0  0  0  0
   14.3930   29.6630   74.8850 O   0  0  0  0  0  0  0  0  0  0  0  0
   14.9580   31.0840   73.0680 N   0  0  0  0  0  0  0  0  0  0  0  0
   20.0650   34.8610   71.4340 H   0  0  0  0  0  0  0  0  0  0  0  0
   20.4130   37.2600   71.5850 H   0  0  0  0  0  0  0  0  0  0  0  0
   22.0050   38.3780   70.1060 H   0  0  0  0  0  0  0  0  0  0  0  0
   23.2480   37.0330   68.4640 H   0  0  0  0  0  0  0  0  0  0  0  0
   21.6400   32.6580   68.8900 H   0  0  0  0  0  0  0  0  0  0  0  0
   20.0840   32.9950   69.6510 H   0  0  0  0  0  0  0  0  0  0  0  0
   23.5220   30.9670   73.1500 H   0  0  0  0  0  0  0  0  0  0  0  0
   21.0330   30.9650   73.8780 H   0  0  0  0  0  0  0  0  0  0  0  0
   19.0880   33.2620   72.5220 H   0  0  0  0  0  0  0  0  0  0  0  0
   17.4230   31.7870   69.7520 H   0  0  0  0  0  0  0  0  0  0  0  0
   16.3220   30.8270   70.8530 H   0  0  0  0  0  0  0  0  0  0  0  0
   17.2280   34.5220   71.4800 H   0  0  0  0  0  0  0  0  0  0  0  0
   16.7090   34.5980   69.7160 H   0  0  0  0  0  0  0  0  0  0  0  0
   15.5010   36.2030   71.1370 H   0  0  0  0  0  0  0  0  0  0  0  0
   14.9430   34.8490   72.1980 H   0  0  0  0  0  0  0  0  0  0  0  0
   13.2640   35.5460   70.4150 H   0  0  0  0  0  0  0  0  0  0  0  0
   14.4650   35.0420   69.1830 H   0  0  0  0  0  0  0  0  0  0  0  0
   12.6280   33.3840   70.8350 H   0  0  0  0  0  0  0  0  0  0  0  0
   13.5170   32.9640   69.3750 H   0  0  0  0  0  0  0  0  0  0  0  0
   12.0080   31.8720   71.8680 H   0  0  0  0  0  0  0  0  0  0  0  0
   11.8600   30.3160   73.8940 H   0  0  0  0  0  0  0  0  0  0  0  0
   15.9840   31.0670   73.1860 H   0  0  0  0  0  0  0  0  0  0  0  0
  1  2  1  0  0  0  0
  2  7  2  0  0  0  0
  2  3  1  0  0  0  0
  3  4  2  0  0  0  0
  4  5  1  0  0  0  0
  4 30  1  0  0  0  0
  5 31  1  0  0  0  0
  6 32  1  0  0  0  0
  6  5  2  0  0  0  0
  7  6  1  0  0  0  0
  8  3  1  0  0  0  0
  8  9  1  0  0  0  0
  9 10  1  0  0  0  0
  9 13  1  0  0  0  0
 10 11  2  0  0  0  0
 11 12  1  0  0  0  0
 11 36  1  0  0  0  0
 12 37  1  0  0  0  0
 13 14  1  0  0  0  0
 13 12  2  0  0  0  0
 14 38  1  0  0  0  0
 15 14  1  0  0  0  0
 15 16  2  0  0  0  0
 17 40  1  0  0  0  0
 17 18  1  0  0  0  0
 17 15  1  0  0  0  0
 18 23  1  0  0  0  0
 19 18  1  0  0  0  0
 19 20  1  0  0  0  0
 19 41  1  0  0  0  0
 20 44  1  0  0  0  0
 21 22  1  0  0  0  0
 21 45  1  0  0  0  0
 21 20  1  0  0  0  0
 22 47  1  0  0  0  0
 22 23  1  0  0  0  0
 23 24  2  0  0  0  0
 24 25  1  0  0  0  0
 24 29  1  0  0  0  0
 25 26  1  0  0  0  0
 26 50  1  0  0  0  0
 26 27  1  0  0  0  0
 27 28  2  0  0  0  0
 29 51  1  0  0  0  0
 29 27  1  0  0  0  0
 33  7  1  0  0  0  0
 34  8  1  0  0  0  0
 35  8  1  0  0  0  0
 39 17  1  0  0  0  0
 42 19  1  0  0  0  0
 43 20  1  0  0  0  0
 46 21  1  0  0  0  0
 48 22  1  0  0  0  0
 49 25  1  0  0  0  0
M  END
>  <Pose>
1

>  <Score>
-7.14

$$$$
