
 OpenBabel03212208413D

 53 56  0  0  1  0  0  0  0  0999 V2000
   13.5830   35.7190   69.9470 B   0  0  0  0  0  0  0  0  0  0  0  0
   14.1890   34.0610   70.7080 C   0  0  0  0  0  0  0  0  0  0  0  0
   15.3160   33.9990   71.4950 C   0  0  0  0  0  0  0  0  0  0  0  0
   15.7920   32.8500   72.0610 C   0  0  0  0  0  0  0  0  0  0  0  0
   15.1050   31.6720   71.8320 C   0  0  0  0  0  0  0  0  0  0  0  0
   13.9740   31.7060   71.0490 C   0  0  0  0  0  0  0  0  0  0  0  0
   13.4980   32.8890   70.4770 C   0  0  0  0  0  0  0  0  0  0  0  0
   15.5290   30.4080   72.4220 C   0  0  0  0  0  0  0  0  0  0  0  0
   14.8250   29.8290   73.3740 C   0  0  0  0  0  0  0  0  0  0  0  0
   15.0830   28.5480   74.1080 C   0  0  2  0  0  0  0  0  0  0  0  0
   14.7410   28.8960   75.4390 N   0  0  0  0  0  0  0  0  0  0  0  0
   13.5000   29.6520   75.2880 C   0  0  0  0  0  0  0  0  0  0  0  0
   12.5660   29.7700   76.1220 O   0  0  0  0  0  0  0  0  0  0  0  0
   13.5550   30.2530   73.9600 C   0  0  0  0  0  0  0  0  0  0  0  0
   12.7130   31.0040   73.3630 O   0  0  0  0  0  0  0  0  0  0  0  0
   15.3080   28.6110   76.7430 C   0  0  0  0  0  0  0  0  0  0  0  0
   16.0710   29.6900   77.4070 C   0  0  0  0  0  0  0  0  0  0  0  0
   17.3820   29.2710   77.9160 N   0  0  0  0  0  4  0  0  0  0  0  0
   17.7090   27.9740   77.4310 C   0  0  0  0  0  0  0  0  0  0  0  0
   17.8210   26.8900   78.4450 C   0  0  0  0  0  0  0  0  0  0  0  0
   18.1850   27.2950   79.7150 O   0  0  0  0  0  0  0  0  0  0  0  0
   17.1570   28.1740   80.1250 C   0  0  0  0  0  0  0  0  0  0  0  0
   17.3510   29.4230   79.3410 C   0  0  0  0  0  0  0  0  0  0  0  0
   16.3040   27.9020   73.7610 C   0  0  0  0  0  0  0  0  0  0  0  0
   16.2660   26.7580   73.0000 C   0  0  0  0  0  0  0  0  0  0  0  0
   17.4010   26.0890   72.6110 C   0  0  0  0  0  0  0  0  0  0  0  0
   18.6540   26.5550   72.9810 C   0  0  0  0  0  0  0  0  0  0  0  0
   18.6720   27.7050   73.7450 C   0  0  0  0  0  0  0  0  0  0  0  0
   17.5290   28.3700   74.1310 C   0  0  0  0  0  0  0  0  0  0  0  0
   20.1040   25.7150   72.4940 Cl  0  0  0  0  0  0  0  0  0  0  0  0
   16.6970   29.8520   71.9300 O   0  0  0  0  0  0  0  0  0  0  0  0
   15.8410   34.9270   71.6620 H   0  0  0  0  0  0  0  0  0  0  0  0
   16.6750   32.7840   72.6800 H   0  0  0  0  0  0  0  0  0  0  0  0
   13.3790   30.8120   70.8480 H   0  0  0  0  0  0  0  0  0  0  0  0
   12.5960   32.8720   69.8610 H   0  0  0  0  0  0  0  0  0  0  0  0
   14.2170   27.8910   73.7580 H   0  0  0  0  0  0  0  0  0  0  0  0
   14.4720   28.3420   77.4690 H   0  0  0  0  0  0  0  0  0  0  0  0
   15.8780   27.6320   76.7160 H   0  0  0  0  0  0  0  0  0  0  0  0
   15.5970   30.2130   78.2340 H   0  0  0  0  0  0  0  0  0  0  0  0
   16.3290   30.4220   76.5660 H   0  0  0  0  0  0  0  0  0  0  0  0
   18.0600   29.9940   77.5240 H   0  0  0  0  0  0  0  0  0  0  0  0
   16.9870   27.6740   76.6130 H   0  0  0  0  0  0  0  0  0  0  0  0
   18.7190   28.0370   76.9260 H   0  0  0  0  0  0  0  0  0  0  0  0
   16.8060   26.4060   78.5580 H   0  0  0  0  0  0  0  0  0  0  0  0
   18.5110   26.0760   78.1560 H   0  0  0  0  0  0  0  0  0  0  0  0
   16.1600   27.7270   80.0050 H   0  0  0  0  0  0  0  0  0  0  0  0
   17.2980   28.3760   81.1970 H   0  0  0  0  0  0  0  0  0  0  0  0
   16.5800   30.1670   79.6700 H   0  0  0  0  0  0  0  0  0  0  0  0
   18.3330   29.8650   79.6720 H   0  0  0  0  0  0  0  0  0  0  0  0
   15.2950   26.3270   72.6680 H   0  0  0  0  0  0  0  0  0  0  0  0
   17.3650   25.1910   72.0130 H   0  0  0  0  0  0  0  0  0  0  0  0
   19.6680   28.0550   74.0260 H   0  0  0  0  0  0  0  0  0  0  0  0
   17.6820   29.2710   74.7180 H   0  0  0  0  0  0  0  0  0  0  0  0
  1  2  1  0  0  0  0
  2  3  1  0  0  0  0
  3 32  1  0  0  0  0
  3  4  2  0  0  0  0
  4 33  1  0  0  0  0
  5  4  1  0  0  0  0
  5  8  1  0  0  0  0
  6  5  2  0  0  0  0
  7  2  2  0  0  0  0
  7  6  1  0  0  0  0
  8  9  2  0  0  0  0
  9 14  1  0  0  0  0
  9 10  1  0  0  0  0
 10 36  1  6  0  0  0
 10 11  1  0  0  0  0
 11 16  1  0  0  0  0
 12 11  1  0  0  0  0
 12 13  2  0  0  0  0
 14 12  1  0  0  0  0
 15 14  2  0  0  0  0
 16 17  1  0  0  0  0
 16 37  1  0  0  0  0
 17 18  1  0  0  0  0
 17 39  1  0  0  0  0
 18 23  1  0  0  0  0
 19 18  1  0  0  0  0
 19 20  1  0  0  0  0
 20 44  1  0  0  0  0
 20 21  1  0  0  0  0
 21 22  1  0  0  0  0
 22 47  1  0  0  0  0
 23 48  1  0  0  0  0
 23 49  1  0  0  0  0
 23 22  1  0  0  0  0
 24 10  1  0  0  0  0
 24 29  1  0  0  0  0
 25 24  2  0  0  0  0
 26 27  2  0  0  0  0
 26 25  1  0  0  0  0
 27 28  1  0  0  0  0
 28 52  1  0  0  0  0
 28 29  2  0  0  0  0
 29 53  1  0  0  0  0
 30 27  1  0  0  0  0
 31  8  1  0  0  0  0
 34  6  1  0  0  0  0
 35  7  1  0  0  0  0
 38 16  1  0  0  0  0
 40 17  1  0  0  0  0
 41 18  1  0  0  0  0
 42 19  1  0  0  0  0
 43 19  1  0  0  0  0
 45 20  1  0  0  0  0
 46 22  1  0  0  0  0
 50 25  1  0  0  0  0
 51 26  1  0  0  0  0
M  END
>  <Pose>
1

>  <Score>
-5.53

$$$$
