
 OpenBabel03212208413D

 49 52  0  0  0  0  0  0  0  0999 V2000
   24.3940   35.5100   66.2730 B   0  0  0  0  0  0  0  0  0  0  0  0
   23.2040   34.9580   67.6680 C   0  0  0  0  0  0  0  0  0  0  0  0
   22.0220   35.6310   67.9110 C   0  0  0  0  0  0  0  0  0  0  0  0
   21.1600   35.2260   68.9250 C   0  0  0  0  0  0  0  0  0  0  0  0
   21.4520   34.1410   69.7260 C   0  0  0  0  0  0  0  0  0  0  0  0
   22.6320   33.4740   69.4790 C   0  0  0  0  0  0  0  0  0  0  0  0
   23.4880   33.8740   68.4730 C   0  0  0  0  0  0  0  0  0  0  0  0
   20.5960   33.6980   70.7720 N   0  0  0  0  0  0  0  0  0  0  0  0
   20.1290   32.4690   71.0450 C   0  0  0  0  0  0  0  0  0  0  0  0
   20.4190   31.4660   70.3440 O   0  0  0  0  0  0  0  0  0  0  0  0
   19.3160   32.4800   72.1660 C   0  0  0  0  0  0  0  0  0  0  0  0
   19.2900   33.7400   72.5820 C   0  0  0  0  0  0  0  0  0  0  0  0
   18.5020   33.7500   73.6680 N   0  0  0  0  0  0  0  0  0  0  0  0
   18.0600   32.5290   73.9090 N   0  0  0  0  0  0  0  0  0  0  0  0
   18.5500   31.7330   72.9970 N   0  0  0  0  0  0  0  0  0  0  0  0
   18.3370   30.3110   72.8600 C   0  0  0  0  0  0  0  0  0  0  0  0
   16.9110   29.9860   73.2360 C   0  0  0  0  0  0  0  0  0  0  0  0
   16.5430   28.7900   73.2570 O   0  0  0  0  0  0  0  0  0  0  0  0
   16.0150   31.0160   73.5550 N   0  0  0  0  0  0  0  0  0  0  0  0
   15.2970   31.8030   72.6320 C   0  0  0  0  0  0  0  0  0  0  0  0
   15.5320   33.1240   72.3460 C   0  0  0  0  0  0  0  0  0  0  0  0
   14.7800   33.8440   71.4410 C   0  0  0  0  0  0  0  0  0  0  0  0
   13.7450   33.1980   70.7980 C   0  0  0  0  0  0  0  0  0  0  0  0
   13.4760   31.8650   71.0580 C   0  0  0  0  0  0  0  0  0  0  0  0
   14.2340   31.1700   71.9610 C   0  0  0  0  0  0  0  0  0  0  0  0
   12.9750   33.9070   69.8810 O   0  0  0  0  0  0  0  0  0  0  0  0
   12.0680   34.8850   70.3520 C   0  0  0  0  0  0  0  0  0  0  0  0
   15.0430   35.1860   71.1710 O   0  0  0  0  0  0  0  0  0  0  0  0
   16.2260   35.4910   70.4210 C   0  0  0  0  0  0  0  0  0  0  0  0
   20.0710   34.4930   71.7320 C   0  0  0  0  0  0  0  0  0  0  0  0
   20.2730   35.7490   71.8320 O   0  0  0  0  0  0  0  0  0  0  0  0
   21.8000   36.4860   67.2740 H   0  0  0  0  0  0  0  0  0  0  0  0
   20.2430   35.7570   69.1070 H   0  0  0  0  0  0  0  0  0  0  0  0
   22.8550   32.6200   70.1150 H   0  0  0  0  0  0  0  0  0  0  0  0
   24.4170   33.3240   68.3020 H   0  0  0  0  0  0  0  0  0  0  0  0
   18.2550   34.5710   74.2550 H   0  0  0  0  0  0  0  0  0  0  0  0
   17.4180   32.2200   74.6990 H   0  0  0  0  0  0  0  0  0  0  0  0
   18.9970   29.7100   73.5280 H   0  0  0  0  0  0  0  0  0  0  0  0
   18.4620   29.9840   71.8160 H   0  0  0  0  0  0  0  0  0  0  0  0
   15.8630   31.2140   74.5980 H   0  0  0  0  0  0  0  0  0  0  0  0
   16.3430   33.6510   72.8300 H   0  0  0  0  0  0  0  0  0  0  0  0
   12.6490   31.3850   70.5320 H   0  0  0  0  0  0  0  0  0  0  0  0
   14.0070   30.1070   72.1590 H   0  0  0  0  0  0  0  0  0  0  0  0
   12.6630   35.5790   70.9940 H   0  0  0  0  0  0  0  0  0  0  0  0
   11.2960   34.4050   70.9650 H   0  0  0  0  0  0  0  0  0  0  0  0
   11.6520   35.4420   69.4800 H   0  0  0  0  0  0  0  0  0  0  0  0
   16.1370   35.0720   69.3810 H   0  0  0  0  0  0  0  0  0  0  0  0
   16.3810   36.5870   70.3660 H   0  0  0  0  0  0  0  0  0  0  0  0
   17.1160   35.0330   70.9010 H   0  0  0  0  0  0  0  0  0  0  0  0
  1  2  1  0  0  0  0
  2  3  2  0  0  0  0
  2  7  1  0  0  0  0
  3  4  1  0  0  0  0
  4 33  1  0  0  0  0
  4  5  2  0  0  0  0
  5  8  1  0  0  0  0
  6  5  1  0  0  0  0
  6 34  1  0  0  0  0
  7  6  2  0  0  0  0
  8  9  1  0  0  0  0
  8 30  1  0  0  0  0
  9 11  1  0  0  0  0
 10  9  2  0  0  0  0
 11 12  2  0  0  0  0
 11 15  1  0  0  0  0
 12 13  1  0  0  0  0
 13 14  1  0  0  0  0
 13 36  1  0  0  0  0
 14 37  1  0  0  0  0
 15 14  1  0  0  0  0
 16 15  1  0  0  0  0
 16 17  1  0  0  0  0
 16 38  1  0  0  0  0
 17 18  2  0  0  0  0
 17 19  1  0  0  0  0
 19 40  1  0  0  0  0
 20 19  1  0  0  0  0
 21 20  1  0  0  0  0
 21 41  1  0  0  0  0
 22 21  2  0  0  0  0
 23 24  2  0  0  0  0
 23 22  1  0  0  0  0
 24 25  1  0  0  0  0
 25 43  1  0  0  0  0
 25 20  2  0  0  0  0
 26 27  1  0  0  0  0
 26 23  1  0  0  0  0
 27 45  1  0  0  0  0
 27 44  1  0  0  0  0
 28 22  1  0  0  0  0
 29 49  1  0  0  0  0
 29 28  1  0  0  0  0
 30 31  2  0  0  0  0
 30 12  1  0  0  0  0
 32  3  1  0  0  0  0
 35  7  1  0  0  0  0
 39 16  1  0  0  0  0
 42 24  1  0  0  0  0
 46 27  1  0  0  0  0
 47 29  1  0  0  0  0
 48 29  1  0  0  0  0
M  END
>  <Pose>
1

>  <Score>
-7.15

$$$$
