
 OpenBabel03212208413D

 49 52  0  0  0  0  0  0  0  0999 V2000
   24.9720   35.0410   65.3580 Cl  0  0  0  0  0  0  0  0  0  0  0  0
   24.5520   34.3540   66.9220 C   0  0  0  0  0  0  0  0  0  0  0  0
   23.4640   33.5320   67.0030 C   0  0  0  0  0  0  0  0  0  0  0  0
   23.1300   32.9810   68.2450 C   0  0  0  0  0  0  0  0  0  0  0  0
   23.8920   33.2760   69.3360 C   0  0  0  0  0  0  0  0  0  0  0  0
   24.9710   34.0900   69.2600 C   0  0  0  0  0  0  0  0  0  0  0  0
   25.3150   34.6490   68.0140 C   0  0  0  0  0  0  0  0  0  0  0  0
   23.5210   32.6770   70.6600 C   0  0  0  0  0  0  0  0  0  0  0  0
   24.3140   31.7960   71.0820 O   0  0  0  0  0  0  0  0  0  0  0  0
   22.3960   33.1290   71.2640 N   0  0  0  0  0  0  0  0  0  0  0  0
   21.2590   33.5860   71.8770 C   0  0  0  0  0  0  0  0  0  0  0  0
   20.0920   32.7070   71.9020 C   0  0  0  0  0  0  0  0  0  0  0  0
   20.3860   31.4270   71.9180 O   0  0  0  0  0  0  0  0  0  0  0  0
   18.7300   32.9750   71.9160 N   0  0  0  0  0  0  0  0  0  0  0  0
   18.1610   34.2540   72.1870 C   0  0  0  0  0  0  0  0  0  0  0  0
   16.6470   34.0580   72.4350 C   0  0  0  0  0  0  0  0  0  0  0  0
   16.0450   33.6540   71.1030 C   0  0  0  0  0  0  0  0  0  0  0  0
   16.2610   34.6790   70.1670 N   0  0  0  0  0  0  0  0  0  0  0  0
   15.3810   35.7640   70.0740 C   0  0  0  0  0  0  0  0  0  0  0  0
   13.9370   35.4980   70.2760 C   0  0  0  0  0  0  0  0  0  0  0  0
   13.6560   34.2040   70.9330 C   0  0  0  0  0  0  0  0  0  0  0  0
   12.4570   33.6760   71.2480 N   0  0  0  0  0  0  0  0  0  0  0  0
   12.6660   32.4910   71.8310 C   0  0  0  0  0  0  0  0  0  0  0  0
   14.0000   32.2750   71.8820 N   0  0  0  0  0  0  0  0  0  0  0  0
   14.6290   33.3290   71.3300 C   0  0  0  0  0  0  0  0  0  0  0  0
   16.8060   32.4110   70.6110 C   0  0  0  0  0  0  0  0  0  0  0  0
   17.7700   31.8940   71.6410 C   0  0  0  0  0  0  0  0  0  0  0  0
   22.8610   33.2980   66.1430 H   0  0  0  0  0  0  0  0  0  0  0  0
   22.2800   32.3310   68.3570 H   0  0  0  0  0  0  0  0  0  0  0  0
   25.6030   34.3480   70.1020 H   0  0  0  0  0  0  0  0  0  0  0  0
   26.1720   35.3020   67.9390 H   0  0  0  0  0  0  0  0  0  0  0  0
   23.1230   33.5510   72.3550 H   0  0  0  0  0  0  0  0  0  0  0  0
   20.9140   34.5760   71.3830 H   0  0  0  0  0  0  0  0  0  0  0  0
   21.4300   33.9740   72.9500 H   0  0  0  0  0  0  0  0  0  0  0  0
   18.2570   34.9490   71.3580 H   0  0  0  0  0  0  0  0  0  0  0  0
   18.6140   34.6340   73.1460 H   0  0  0  0  0  0  0  0  0  0  0  0
   16.2330   35.0300   72.7690 H   0  0  0  0  0  0  0  0  0  0  0  0
   16.5390   33.3020   73.2070 H   0  0  0  0  0  0  0  0  0  0  0  0
   17.1450   34.7230   69.6730 H   0  0  0  0  0  0  0  0  0  0  0  0
   15.4900   36.1940   69.0310 H   0  0  0  0  0  0  0  0  0  0  0  0
   15.7510   36.6030   70.7350 H   0  0  0  0  0  0  0  0  0  0  0  0
   13.3750   35.4870   69.2960 H   0  0  0  0  0  0  0  0  0  0  0  0
   13.4770   36.3590   70.8290 H   0  0  0  0  0  0  0  0  0  0  0  0
   11.9060   31.8130   72.1990 H   0  0  0  0  0  0  0  0  0  0  0  0
   14.4540   31.4350   72.2840 H   0  0  0  0  0  0  0  0  0  0  0  0
   16.0990   31.6040   70.3120 H   0  0  0  0  0  0  0  0  0  0  0  0
   17.4030   32.6500   69.6890 H   0  0  0  0  0  0  0  0  0  0  0  0
   18.2960   31.0250   71.1630 H   0  0  0  0  0  0  0  0  0  0  0  0
   17.2960   31.5450   72.5610 H   0  0  0  0  0  0  0  0  0  0  0  0
  1  2  1  0  0  0  0
  2  3  2  0  0  0  0
  2  7  1  0  0  0  0
  3  4  1  0  0  0  0
  4 29  1  0  0  0  0
  4  5  2  0  0  0  0
  5  8  1  0  0  0  0
  6  5  1  0  0  0  0
  6 30  1  0  0  0  0
  7  6  2  0  0  0  0
  8  9  2  0  0  0  0
  8 10  1  0  0  0  0
 10 11  1  0  0  0  0
 10 32  1  0  0  0  0
 11 12  1  0  0  0  0
 11 34  1  0  0  0  0
 12 14  1  0  0  0  0
 12 13  2  0  0  0  0
 14 15  1  0  0  0  0
 15 16  1  0  0  0  0
 15 36  1  0  0  0  0
 16 37  1  0  0  0  0
 16 38  1  0  0  0  0
 17 25  1  0  0  0  0
 17 16  1  0  0  0  0
 18 17  1  0  0  0  0
 19 18  1  0  0  0  0
 19 20  1  0  0  0  0
 19 41  1  0  0  0  0
 20 43  1  0  0  0  0
 20 21  1  0  0  0  0
 21 22  1  0  0  0  0
 21 25  2  0  0  0  0
 22 23  2  0  0  0  0
 23 24  1  0  0  0  0
 23 44  1  0  0  0  0
 24 45  1  0  0  0  0
 25 24  1  0  0  0  0
 26 17  1  0  0  0  0
 26 27  1  0  0  0  0
 27 14  1  0  0  0  0
 27 49  1  0  0  0  0
 28  3  1  0  0  0  0
 31  7  1  0  0  0  0
 33 11  1  0  0  0  0
 35 15  1  0  0  0  0
 39 18  1  0  0  0  0
 40 19  1  0  0  0  0
 42 20  1  0  0  0  0
 46 26  1  0  0  0  0
 47 26  1  0  0  0  0
 48 27  1  0  0  0  0
M  END
>  <Pose>
1

>  <Score>
-6.83

$$$$
