
 OpenBabel03212208413D

 43 46  0  0  0  0  0  0  0  0999 V2000
   22.2690   36.3390   66.0480 B   0  0  0  0  0  0  0  0  0  0  0  0
   21.7390   36.7020   67.8430 C   0  0  0  0  0  0  0  0  0  0  0  0
   20.4850   36.2830   68.3090 C   0  0  0  0  0  0  0  0  0  0  0  0
   20.1150   36.5500   69.6050 C   0  0  0  0  0  0  0  0  0  0  0  0
   20.9870   37.2260   70.4170 C   0  0  0  0  0  0  0  0  0  0  0  0
   22.2430   37.6480   69.9620 C   0  0  0  0  0  0  0  0  0  0  0  0
   22.6030   37.3760   68.6650 C   0  0  0  0  0  0  0  0  0  0  0  0
   18.8510   36.1350   70.0940 N   0  0  0  0  0  0  0  0  0  0  0  0
   17.6720   36.6970   69.8060 N   0  0  0  0  0  0  0  0  0  0  0  0
   16.6990   36.0670   70.4270 N   0  0  0  0  0  0  0  0  0  0  0  0
   17.2140   35.0620   71.1500 C   0  0  0  0  0  0  0  0  0  0  0  0
   18.5690   35.1200   70.9280 C   0  0  0  0  0  0  0  0  0  0  0  0
   16.4830   34.0970   72.0030 C   0  0  0  0  0  0  0  0  0  0  0  0
   16.8090   34.1120   73.2420 O   0  0  0  0  0  0  0  0  0  0  0  0
   15.5040   33.2180   71.5380 N   0  0  0  0  0  0  0  0  0  0  0  0
   15.8900   31.9440   70.9980 C   0  0  0  0  0  0  0  0  0  0  0  0
   15.3840   30.8650   71.9150 C   0  0  0  0  0  0  0  0  0  0  0  0
   14.0280   31.1510   72.2870 N   0  0  0  0  0  0  0  0  0  0  0  0
   13.3360   32.1500   71.4480 C   0  0  0  0  0  0  0  0  0  0  0  0
   14.0810   33.4740   71.5450 C   0  0  0  0  0  0  0  0  0  0  0  0
   13.2970   30.6060   73.3420 C   0  0  0  0  0  0  0  0  0  0  0  0
   12.3760   31.3810   73.8280 O   0  0  0  0  0  0  0  0  0  0  0  0
   13.3970   29.3030   73.9900 C   0  0  0  0  0  0  0  0  0  0  0  0
   14.6370   28.7370   74.5200 C   0  0  0  0  0  0  0  0  0  0  0  0
   13.4890   29.1010   75.4560 C   0  0  0  0  0  0  0  0  0  0  0  0
   19.8600   35.7570   67.6020 H   0  0  0  0  0  0  0  0  0  0  0  0
   20.7620   37.4670   71.4430 H   0  0  0  0  0  0  0  0  0  0  0  0
   22.9330   38.1790   70.5950 H   0  0  0  0  0  0  0  0  0  0  0  0
   23.5820   37.7030   68.3030 H   0  0  0  0  0  0  0  0  0  0  0  0
   19.2940   34.4490   71.3620 H   0  0  0  0  0  0  0  0  0  0  0  0
   16.9740   31.8660   70.7960 H   0  0  0  0  0  0  0  0  0  0  0  0
   15.4030   31.8720   69.9980 H   0  0  0  0  0  0  0  0  0  0  0  0
   15.4770   29.8570   71.4280 H   0  0  0  0  0  0  0  0  0  0  0  0
   15.9880   30.8410   72.8450 H   0  0  0  0  0  0  0  0  0  0  0  0
   13.2980   31.7330   70.4360 H   0  0  0  0  0  0  0  0  0  0  0  0
   12.3440   32.3010   71.8760 H   0  0  0  0  0  0  0  0  0  0  0  0
   13.8020   34.0340   72.4380 H   0  0  0  0  0  0  0  0  0  0  0  0
   13.8350   34.0570   70.6490 H   0  0  0  0  0  0  0  0  0  0  0  0
   12.6860   28.5100   73.5390 H   0  0  0  0  0  0  0  0  0  0  0  0
   14.8300   27.6190   74.4150 H   0  0  0  0  0  0  0  0  0  0  0  0
   15.5830   29.2810   74.6610 H   0  0  0  0  0  0  0  0  0  0  0  0
   13.6180   29.8710   76.1970 H   0  0  0  0  0  0  0  0  0  0  0  0
   12.9550   28.2050   75.9060 H   0  0  0  0  0  0  0  0  0  0  0  0
  1  2  1  0  0  0  0
  2  3  2  0  0  0  0
  2  7  1  0  0  0  0
  3  4  1  0  0  0  0
  4  8  1  0  0  0  0
  4  5  2  0  0  0  0
  5 27  1  0  0  0  0
  6  5  1  0  0  0  0
  6 28  1  0  0  0  0
  7  6  2  0  0  0  0
  8 12  1  0  0  0  0
  9  8  1  0  0  0  0
  9 10  2  0  0  0  0
 10 11  1  0  0  0  0
 11 13  1  0  0  0  0
 12 11  2  0  0  0  0
 12 30  1  0  0  0  0
 13 14  2  0  0  0  0
 15 20  1  0  0  0  0
 15 13  1  0  0  0  0
 16 15  1  0  0  0  0
 16 17  1  0  0  0  0
 17 18  1  0  0  0  0
 17 34  1  0  0  0  0
 18 21  1  0  0  0  0
 19 20  1  0  0  0  0
 19 36  1  0  0  0  0
 19 18  1  0  0  0  0
 20 37  1  0  0  0  0
 21 22  2  0  0  0  0
 21 23  1  0  0  0  0
 23 24  1  0  0  0  0
 23 25  1  0  0  0  0
 24 41  1  0  0  0  0
 24 25  1  0  0  0  0
 25 43  1  0  0  0  0
 25 42  1  0  0  0  0
 26  3  1  0  0  0  0
 29  7  1  0  0  0  0
 31 16  1  0  0  0  0
 32 16  1  0  0  0  0
 33 17  1  0  0  0  0
 35 19  1  0  0  0  0
 38 20  1  0  0  0  0
 39 23  1  0  0  0  0
 40 24  1  0  0  0  0
M  END
>  <Pose>
1

>  <Score>
-5.36

$$$$
