
 OpenBabel03212208413D

 46 49  0  0  1  0  0  0  0  0999 V2000
   22.0600   36.4220   66.4890 Cl  0  0  0  0  0  0  0  0  0  0  0  0
   21.0850   36.4880   67.9330 C   0  0  0  0  0  0  0  0  0  0  0  0
   21.5700   35.9100   69.0840 C   0  0  0  0  0  0  0  0  0  0  0  0
   20.7900   35.9690   70.2120 C   0  0  0  0  0  0  0  0  0  0  0  0
   19.5420   36.6070   70.1600 C   0  0  0  0  0  0  0  0  0  0  0  0
   19.0250   37.1900   69.0430 C   0  0  0  0  0  0  0  0  0  0  0  0
   19.8740   37.0970   67.9110 C   0  0  0  0  0  0  0  0  0  0  0  0
   17.7550   37.8540   68.9270 C   0  0  1  0  0  0  0  0  0  0  0  0
   17.6940   38.7230   67.9370 O   0  0  0  0  0  0  0  0  0  0  0  0
   16.5370   37.7420   69.6940 C   0  0  0  0  0  0  0  0  0  0  0  0
   15.9600   36.4760   69.9970 N   0  0  0  0  0  0  0  0  0  0  0  0
   14.6230   36.1790   70.0090 C   0  0  1  0  0  0  0  0  0  0  0  0
   14.5250   34.9030   70.3890 N   0  0  0  0  0  0  0  0  0  0  0  0
   15.7260   34.3500   70.6250 C   0  0  0  0  0  0  0  0  0  0  0  0
   16.6390   35.3580   70.3730 C   0  0  0  0  0  0  0  0  0  0  0  0
   16.0550   32.9910   71.0540 C   0  0  0  0  0  0  0  0  0  0  0  0
   17.3270   32.5210   71.2550 C   0  0  0  0  0  0  0  0  0  0  0  0
   17.5630   31.2020   71.6680 C   0  0  0  0  0  0  0  0  0  0  0  0
   16.5340   30.3150   71.8920 C   0  0  0  0  0  0  0  0  0  0  0  0
   15.2520   30.7770   71.6920 C   0  0  0  0  0  0  0  0  0  0  0  0
   15.0220   32.0760   71.2860 C   0  0  0  0  0  0  0  0  0  0  0  0
   16.7530   29.0070   72.3020 O   0  0  0  0  0  0  0  0  0  0  0  0
   16.1570   28.5170   73.4900 C   0  0  0  0  0  0  0  0  0  0  0  0
   13.1250   34.4930   70.4310 C   0  0  0  0  0  0  0  0  0  0  0  0
   12.3520   35.6710   69.9140 C   0  0  0  0  0  0  0  0  0  0  0  0
   13.3020   36.8020   69.7470 C   0  0  0  0  0  0  0  0  0  0  0  0
   23.1270   35.1170   69.1440 Cl  0  0  0  0  0  0  0  0  0  0  0  0
   21.1620   35.5230   71.1090 H   0  0  0  0  0  0  0  0  0  0  0  0
   19.0240   36.5980   71.0820 H   0  0  0  0  0  0  0  0  0  0  0  0
   19.5410   37.5330   66.9840 H   0  0  0  0  0  0  0  0  0  0  0  0
   16.6390   38.3150   70.6980 H   0  0  0  0  0  0  0  0  0  0  0  0
   15.7090   38.3990   69.2140 H   0  0  0  0  0  0  0  0  0  0  0  0
   17.7230   35.2950   70.4540 H   0  0  0  0  0  0  0  0  0  0  0  0
   18.1560   33.1760   71.0910 H   0  0  0  0  0  0  0  0  0  0  0  0
   18.5710   30.8420   71.8230 H   0  0  0  0  0  0  0  0  0  0  0  0
   14.4240   30.0890   71.8650 H   0  0  0  0  0  0  0  0  0  0  0  0
   14.0050   32.4370   71.1290 H   0  0  0  0  0  0  0  0  0  0  0  0
   15.0610   28.4120   73.2780 H   0  0  0  0  0  0  0  0  0  0  0  0
   16.5830   27.5230   73.7310 H   0  0  0  0  0  0  0  0  0  0  0  0
   16.2820   29.2400   74.3250 H   0  0  0  0  0  0  0  0  0  0  0  0
   12.9090   33.6460   69.7360 H   0  0  0  0  0  0  0  0  0  0  0  0
   12.8370   34.2120   71.4630 H   0  0  0  0  0  0  0  0  0  0  0  0
   11.8570   35.4680   68.9330 H   0  0  0  0  0  0  0  0  0  0  0  0
   11.5410   35.8900   70.6660 H   0  0  0  0  0  0  0  0  0  0  0  0
   13.2840   37.2700   68.7440 H   0  0  0  0  0  0  0  0  0  0  0  0
   13.0750   37.6130   70.4850 H   0  0  0  0  0  0  0  0  0  0  0  0
  1  2  1  0  0  0  0
  2  3  1  0  0  0  0
  3 27  1  0  0  0  0
  3  4  2  0  0  0  0
  4 28  1  0  0  0  0
  5  4  1  0  0  0  0
  5 29  1  0  0  0  0
  6  5  2  0  0  0  0
  7  2  2  0  0  0  0
  7  6  1  0  0  0  0
  8  9  1  6  0  0  0
  8  6  1  0  0  0  0
  8 10  1  0  0  0  0
 10 11  1  0  0  0  0
 10 31  1  0  0  0  0
 11 12  1  0  0  0  0
 11 15  1  0  0  0  0
 12 26  1  1  0  0  0
 12 13  1  0  0  0  0
 13 24  1  0  0  0  0
 13 14  1  0  0  0  0
 14 16  1  0  0  0  0
 15 33  1  0  0  0  0
 15 14  2  0  0  0  0
 16 17  2  0  0  0  0
 16 21  1  0  0  0  0
 17 18  1  0  0  0  0
 18 35  1  0  0  0  0
 18 19  2  0  0  0  0
 19 22  1  0  0  0  0
 20 36  1  0  0  0  0
 20 19  1  0  0  0  0
 21 20  2  0  0  0  0
 22 23  1  0  0  0  0
 23 39  1  0  0  0  0
 23 40  1  0  0  0  0
 24 42  1  0  0  0  0
 25 24  1  0  0  0  0
 25 44  1  0  0  0  0
 26 25  1  0  0  0  0
 26 46  1  0  0  0  0
 30  7  1  0  0  0  0
 32 10  1  0  0  0  0
 34 17  1  0  0  0  0
 37 21  1  0  0  0  0
 38 23  1  0  0  0  0
 41 24  1  0  0  0  0
 43 25  1  0  0  0  0
 45 26  1  0  0  0  0
M  END
>  <Pose>
1

>  <Score>
-6.56

$$$$
