
 OpenBabel03212208413D

 44 47  0  0  1  0  0  0  0  0999 V2000
   13.7850   31.4710   71.3520 Cl  0  0  0  0  0  0  0  0  0  0  0  0
   14.9240   32.7720   71.2090 C   0  0  0  0  0  0  0  0  0  0  0  0
   14.5110   34.0290   70.8600 C   0  0  0  0  0  0  0  0  0  0  0  0
   15.4590   35.0200   70.7620 C   0  0  0  0  0  0  0  0  0  0  0  0
   16.7780   34.7500   71.0080 C   0  0  0  0  0  0  0  0  0  0  0  0
   17.2360   33.4780   71.3680 C   0  0  0  0  0  0  0  0  0  0  0  0
   16.2870   32.5140   71.4580 C   0  0  0  0  0  0  0  0  0  0  0  0
   18.6620   33.2450   71.6000 C   0  0  0  0  0  0  0  0  0  0  0  0
   19.7420   33.8880   71.1270 N   0  0  0  0  0  0  0  0  0  0  0  0
   20.8600   33.3130   71.6170 C   0  0  2  0  0  0  0  0  0  0  0  0
   20.4880   32.2920   72.4100 N   0  0  0  0  0  0  0  0  0  0  0  0
   19.1270   32.2120   72.4280 C   0  0  0  0  0  0  0  0  0  0  0  0
   21.3560   31.4530   73.1500 C   0  0  0  0  0  0  0  0  0  0  0  0
   20.9300   30.6650   74.2710 C   0  0  2  0  0  0  0  0  0  0  0  0
   21.6650   30.8960   75.3400 O   0  0  0  0  0  0  0  0  0  0  0  0
   19.8770   29.6920   74.4440 C   0  0  0  0  0  0  0  0  0  0  0  0
   19.0010   29.2980   73.4690 C   0  0  0  0  0  0  0  0  0  0  0  0
   18.0050   28.3480   73.7110 C   0  0  0  0  0  0  0  0  0  0  0  0
   17.8820   27.7840   74.9400 C   0  0  0  0  0  0  0  0  0  0  0  0
   18.7510   28.1620   75.9400 C   0  0  0  0  0  0  0  0  0  0  0  0
   19.7300   29.0920   75.7150 C   0  0  0  0  0  0  0  0  0  0  0  0
   17.1220   27.9800   72.6490 N   0  0  0  0  0  0  0  0  0  0  0  0
   17.1970   26.8400   72.1590 O   0  0  0  0  0  0  0  0  0  0  0  0
   16.1960   28.8410   72.1540 O   0  0  0  0  0  0  0  0  0  0  0  0
   22.0580   34.0220   71.1120 C   0  0  0  0  0  0  0  0  0  0  0  0
   21.5250   34.5080   69.7880 C   0  0  0  0  0  0  0  0  0  0  0  0
   20.1400   34.9950   70.2480 C   0  0  0  0  0  0  0  0  0  0  0  0
   12.8270   34.3850   70.5430 Cl  0  0  0  0  0  0  0  0  0  0  0  0
   15.1690   36.0400   70.4850 H   0  0  0  0  0  0  0  0  0  0  0  0
   17.4930   35.5450   70.9240 H   0  0  0  0  0  0  0  0  0  0  0  0
   16.5510   31.5120   71.7150 H   0  0  0  0  0  0  0  0  0  0  0  0
   18.5500   31.5000   72.9700 H   0  0  0  0  0  0  0  0  0  0  0  0
   22.2560   32.0680   73.5160 H   0  0  0  0  0  0  0  0  0  0  0  0
   21.8410   30.7180   72.4130 H   0  0  0  0  0  0  0  0  0  0  0  0
   19.0510   29.7140   72.4750 H   0  0  0  0  0  0  0  0  0  0  0  0
   17.0910   27.0380   75.1070 H   0  0  0  0  0  0  0  0  0  0  0  0
   18.6510   27.7050   76.9350 H   0  0  0  0  0  0  0  0  0  0  0  0
   20.3940   29.3580   76.5390 H   0  0  0  0  0  0  0  0  0  0  0  0
   22.2730   34.8780   71.7930 H   0  0  0  0  0  0  0  0  0  0  0  0
   22.9340   33.3590   70.9830 H   0  0  0  0  0  0  0  0  0  0  0  0
   21.3280   33.6200   69.1640 H   0  0  0  0  0  0  0  0  0  0  0  0
   22.1030   35.2880   69.3210 H   0  0  0  0  0  0  0  0  0  0  0  0
   20.2940   35.8750   70.8630 H   0  0  0  0  0  0  0  0  0  0  0  0
   19.4870   35.1090   69.3660 H   0  0  0  0  0  0  0  0  0  0  0  0
  2  1  1  0  0  0  0
  2  7  1  0  0  0  0
  3  2  2  0  0  0  0
  4  3  1  0  0  0  0
  4  5  2  0  0  0  0
  5  6  1  0  0  0  0
  6  7  2  0  0  0  0
  6  8  1  0  0  0  0
  7 31  1  0  0  0  0
  8 12  2  0  0  0  0
  9  8  1  0  0  0  0
  9 10  1  0  0  0  0
 10 25  1  1  0  0  0
 10 11  1  0  0  0  0
 11 12  1  0  0  0  0
 11 13  1  0  0  0  0
 12 32  1  0  0  0  0
 13 33  1  0  0  0  0
 13 14  1  0  0  0  0
 14 16  1  0  0  0  0
 14 15  1  6  0  0  0
 16 21  1  0  0  0  0
 17 18  1  0  0  0  0
 17 16  2  0  0  0  0
 18 19  2  0  0  0  0
 19 36  1  0  0  0  0
 19 20  1  0  0  0  0
 20 37  1  0  0  0  0
 21 20  2  0  0  0  0
 21 38  1  0  0  0  0
 22 18  1  0  0  0  0
 23 22  2  0  0  0  0
 24 22  2  0  0  0  0
 25 39  1  0  0  0  0
 26 27  1  0  0  0  0
 26 25  1  0  0  0  0
 27 43  1  0  0  0  0
 27  9  1  0  0  0  0
 28  3  1  0  0  0  0
 29  4  1  0  0  0  0
 30  5  1  0  0  0  0
 34 13  1  0  0  0  0
 35 17  1  0  0  0  0
 40 25  1  0  0  0  0
 41 26  1  0  0  0  0
 42 26  1  0  0  0  0
 44 27  1  0  0  0  0
M  END
>  <Pose>
1

>  <Score>
-6.84

$$$$
