
 OpenBabel03212208413D

 55 58  0  0  0  0  0  0  0  0999 V2000
   17.4060   33.8350   72.1750 S   0  0  0  0  0  0  0  0  0  0  0  0
   17.7030   33.6620   73.6680 O   0  0  0  0  0  0  0  0  0  0  0  0
   16.5040   35.0700   72.1410 O   0  0  0  0  0  0  0  0  0  0  0  0
   16.5610   32.5120   71.6560 N   0  0  0  0  0  0  0  0  0  0  0  0
   15.3050   32.1470   72.1270 C   0  0  0  0  0  0  0  0  0  0  0  0
   15.2690   31.1870   73.2720 C   0  0  0  0  0  0  0  0  0  0  0  0
   16.5800   30.4040   73.3060 C   0  0  0  0  0  0  0  0  0  0  0  0
   16.8490   30.0900   71.8250 C   0  0  0  0  0  0  0  0  0  0  0  0
   17.3870   31.3860   71.2390 C   0  0  0  0  0  0  0  0  0  0  0  0
   16.4810   29.1960   74.1070 C   0  0  0  0  0  0  0  0  0  0  0  0
   15.7610   29.1940   75.1410 O   0  0  0  0  0  0  0  0  0  0  0  0
   17.1650   28.0270   73.7600 N   0  0  0  0  0  0  0  0  0  0  0  0
   16.6630   27.0730   72.7640 C   0  0  0  0  0  0  0  0  0  0  0  0
   17.5730   25.8660   72.8340 C   0  0  0  0  0  0  0  0  0  0  0  0
   18.9300   26.2350   72.4770 N   0  0  0  0  0  0  0  0  0  0  0  0
   19.4530   27.2530   73.3710 C   0  0  0  0  0  0  0  0  0  0  0  0
   18.4080   27.6770   74.3880 C   0  0  0  0  0  0  0  0  0  0  0  0
   19.7960   25.0750   72.4580 C   0  0  0  0  0  0  0  0  0  0  0  0
   18.9390   34.1940   71.4350 C   0  0  0  0  0  0  0  0  0  0  0  0
   19.0070   35.1960   70.4510 C   0  0  0  0  0  0  0  0  0  0  0  0
   20.1670   35.5010   69.7880 C   0  0  0  0  0  0  0  0  0  0  0  0
   21.3080   34.8200   70.0800 C   0  0  0  0  0  0  0  0  0  0  0  0
   21.3040   33.8330   71.0330 C   0  0  0  0  0  0  0  0  0  0  0  0
   20.1090   33.5430   71.6950 C   0  0  0  0  0  0  0  0  0  0  0  0
   20.1780   32.3250   72.9580 Cl  0  0  0  0  0  0  0  0  0  0  0  0
   22.5150   35.1510   69.3710 N   0  0  0  0  0  0  0  0  0  0  0  0
   22.4890   36.1720   68.3880 C   0  0  0  0  0  0  0  0  0  0  0  0
   23.5300   36.7550   68.0210 O   0  0  0  0  0  0  0  0  0  0  0  0
   21.1700   36.5280   67.8040 C   0  0  0  0  0  0  0  0  0  0  0  0
   20.1950   36.5060   68.8120 O   0  0  0  0  0  0  0  0  0  0  0  0
   14.6510   32.9970   72.3240 H   0  0  0  0  0  0  0  0  0  0  0  0
   14.7750   31.6380   71.2310 H   0  0  0  0  0  0  0  0  0  0  0  0
   14.4720   30.4260   73.0820 H   0  0  0  0  0  0  0  0  0  0  0  0
   15.0520   31.6130   74.2550 H   0  0  0  0  0  0  0  0  0  0  0  0
   17.3680   31.0880   73.6590 H   0  0  0  0  0  0  0  0  0  0  0  0
   17.5260   29.2570   71.6720 H   0  0  0  0  0  0  0  0  0  0  0  0
   15.8310   29.8980   71.3790 H   0  0  0  0  0  0  0  0  0  0  0  0
   17.4970   31.3120   70.1440 H   0  0  0  0  0  0  0  0  0  0  0  0
   18.3930   31.5420   71.6700 H   0  0  0  0  0  0  0  0  0  0  0  0
   16.8070   27.5720   71.7590 H   0  0  0  0  0  0  0  0  0  0  0  0
   15.6200   26.8160   72.9520 H   0  0  0  0  0  0  0  0  0  0  0  0
   17.4990   25.4600   73.8810 H   0  0  0  0  0  0  0  0  0  0  0  0
   17.1970   25.0950   72.1360 H   0  0  0  0  0  0  0  0  0  0  0  0
   19.7770   28.1370   72.8080 H   0  0  0  0  0  0  0  0  0  0  0  0
   20.2800   26.7940   73.9500 H   0  0  0  0  0  0  0  0  0  0  0  0
   18.2300   26.8660   75.1370 H   0  0  0  0  0  0  0  0  0  0  0  0
   18.7940   28.5260   74.9510 H   0  0  0  0  0  0  0  0  0  0  0  0
   20.7410   25.3720   71.9680 H   0  0  0  0  0  0  0  0  0  0  0  0
   19.3340   24.2790   71.8570 H   0  0  0  0  0  0  0  0  0  0  0  0
   20.0670   24.7350   73.4890 H   0  0  0  0  0  0  0  0  0  0  0  0
   18.0840   35.7340   70.2260 H   0  0  0  0  0  0  0  0  0  0  0  0
   22.1970   33.2970   71.2640 H   0  0  0  0  0  0  0  0  0  0  0  0
   23.3910   34.6370   69.5880 H   0  0  0  0  0  0  0  0  0  0  0  0
   21.2010   37.5370   67.3380 H   0  0  0  0  0  0  0  0  0  0  0  0
   20.8700   35.8070   67.0290 H   0  0  0  0  0  0  0  0  0  0  0  0
  1  2  2  0  0  0  0
  3  1  2  0  0  0  0
  4  5  1  0  0  0  0
  4  1  1  0  0  0  0
  5 31  1  0  0  0  0
  5  6  1  0  0  0  0
  6  7  1  0  0  0  0
  6 34  1  0  0  0  0
  7 35  1  0  0  0  0
  7 10  1  0  0  0  0
  8  7  1  0  0  0  0
  9  4  1  0  0  0  0
  9 39  1  0  0  0  0
  9  8  1  0  0  0  0
 10 11  2  0  0  0  0
 12 10  1  0  0  0  0
 12 17  1  0  0  0  0
 13 14  1  0  0  0  0
 13 41  1  0  0  0  0
 13 12  1  0  0  0  0
 14 42  1  0  0  0  0
 15 14  1  0  0  0  0
 15 16  1  0  0  0  0
 16 45  1  0  0  0  0
 16 17  1  0  0  0  0
 17 47  1  0  0  0  0
 17 46  1  0  0  0  0
 18 15  1  0  0  0  0
 18 50  1  0  0  0  0
 19 24  1  0  0  0  0
 19  1  1  0  0  0  0
 20 19  2  0  0  0  0
 21 22  2  0  0  0  0
 21 20  1  0  0  0  0
 22 23  1  0  0  0  0
 23 52  1  0  0  0  0
 23 24  2  0  0  0  0
 24 25  1  0  0  0  0
 26 53  1  0  0  0  0
 26 22  1  0  0  0  0
 27 26  1  0  0  0  0
 28 27  2  0  0  0  0
 29 27  1  0  0  0  0
 29 30  1  0  0  0  0
 30 21  1  0  0  0  0
 32  5  1  0  0  0  0
 33  6  1  0  0  0  0
 36  8  1  0  0  0  0
 37  8  1  0  0  0  0
 38  9  1  0  0  0  0
 40 13  1  0  0  0  0
 43 14  1  0  0  0  0
 44 16  1  0  0  0  0
 48 18  1  0  0  0  0
 49 18  1  0  0  0  0
 51 20  1  0  0  0  0
 54 29  1  0  0  0  0
 55 29  1  0  0  0  0
M  END
>  <Pose>
1

>  <Score>
-5.49

$$$$
