
 OpenBabel03212208413D

 36 39  0  0  1  0  0  0  0  0999 V2000
   12.8780   34.2930   69.9730 Cl  0  0  0  0  0  0  0  0  0  0  0  0
   14.1860   33.4830   70.8220 C   0  0  0  0  0  0  0  0  0  0  0  0
   14.0510   32.2110   71.3360 C   0  0  0  0  0  0  0  0  0  0  0  0
   15.0700   31.5840   71.9950 N   0  0  0  0  0  0  0  0  0  0  0  0
   16.2620   32.1820   72.1750 C   0  0  0  0  0  0  0  0  0  0  0  0
   17.2750   31.5610   72.8300 N   0  0  0  0  0  0  0  0  0  0  0  0
   17.1350   30.3150   73.3300 C   0  0  0  0  0  0  0  0  0  0  0  0
   15.9390   29.6790   73.1650 C   0  0  2  0  0  0  0  0  0  0  0  0
   15.7300   28.2950   73.7000 C   0  0  0  0  0  0  0  0  0  0  0  0
   17.0720   27.6880   73.7110 N   0  0  0  0  0  0  0  0  0  0  0  0
   18.0080   28.3620   74.5660 C   0  0  0  0  0  0  0  0  0  0  0  0
   18.3200   29.7460   74.0250 C   0  0  0  0  0  0  0  0  0  0  0  0
   17.2820   26.5650   72.9170 C   0  0  0  0  0  0  0  0  0  0  0  0
   16.4630   26.3280   71.9630 O   0  0  0  0  0  0  0  0  0  0  0  0
   18.3770   25.5990   73.0680 C   0  0  0  0  0  0  0  0  0  0  0  0
   18.6490   25.0020   74.2320 N   0  0  0  0  0  0  0  0  0  0  0  0
   19.6480   24.1230   74.3600 C   0  0  0  0  0  0  0  0  0  0  0  0
   20.4580   23.7830   73.2970 C   0  0  0  0  0  0  0  0  0  0  0  0
   20.1690   24.3930   72.1340 N   0  0  0  0  0  0  0  0  0  0  0  0
   19.1790   25.2730   71.9800 C   0  0  0  0  0  0  0  0  0  0  0  0
   14.9230   30.3430   72.4910 C   0  0  0  0  0  0  0  0  0  0  0  0
   13.8270   29.7700   72.3350 O   0  0  0  0  0  0  0  0  0  0  0  0
   16.4060   33.4620   71.6610 C   0  0  0  0  0  0  0  0  0  0  0  0
   15.3970   34.1200   70.9920 C   0  0  0  0  0  0  0  0  0  0  0  0
   13.1260   31.6750   71.2270 H   0  0  0  0  0  0  0  0  0  0  0  0
   15.0280   27.7230   73.0800 H   0  0  0  0  0  0  0  0  0  0  0  0
   15.3570   28.4340   74.7460 H   0  0  0  0  0  0  0  0  0  0  0  0
   18.8860   27.8100   74.8680 H   0  0  0  0  0  0  0  0  0  0  0  0
   17.4450   28.5680   75.5310 H   0  0  0  0  0  0  0  0  0  0  0  0
   19.1920   29.6700   73.3650 H   0  0  0  0  0  0  0  0  0  0  0  0
   18.6050   30.4000   74.8790 H   0  0  0  0  0  0  0  0  0  0  0  0
   19.8610   23.6440   75.3130 H   0  0  0  0  0  0  0  0  0  0  0  0
   21.2710   23.0690   73.3970 H   0  0  0  0  0  0  0  0  0  0  0  0
   18.9930   25.7280   71.0390 H   0  0  0  0  0  0  0  0  0  0  0  0
   17.3580   33.9570   71.7980 H   0  0  0  0  0  0  0  0  0  0  0  0
   15.5110   35.1220   70.5890 H   0  0  0  0  0  0  0  0  0  0  0  0
  1  2  1  0  0  0  0
  2 24  2  0  0  0  0
  2  3  1  0  0  0  0
  3  4  1  0  0  0  0
  4  5  1  0  0  0  0
  4 21  1  0  0  0  0
  5  6  1  0  0  0  0
  6  7  2  0  0  0  0
  7 12  1  0  0  0  0
  8 21  1  6  0  0  0
  8  7  1  0  0  0  0
  8  9  1  0  0  0  0
  9 10  1  0  0  0  0
  9 27  1  0  0  0  0
 10 11  1  0  0  0  0
 11 28  1  0  0  0  0
 11 29  1  0  0  0  0
 12 11  1  0  0  0  0
 12 31  1  0  0  0  0
 13 15  1  0  0  0  0
 13 10  1  0  0  0  0
 14 13  2  0  0  0  0
 15 16  1  0  0  0  0
 16 17  2  0  0  0  0
 17 32  1  0  0  0  0
 18 33  1  0  0  0  0
 18 17  1  0  0  0  0
 19 18  2  0  0  0  0
 20 19  1  0  0  0  0
 20 15  2  0  0  0  0
 22 21  2  0  0  0  0
 23 35  1  0  0  0  0
 23  5  2  0  0  0  0
 24 23  1  0  0  0  0
 25  3  1  0  0  0  0
 26  9  1  0  0  0  0
 30 12  1  0  0  0  0
 34 20  1  0  0  0  0
 36 24  1  0  0  0  0
M  END
>  <Pose>
1

>  <Score>
-5.83

$$$$
