
 OpenBabel03212208413D

 46 49  0  0  1  0  0  0  0  0999 V2000
   12.3290   35.2510   69.8510 B   0  0  0  0  0  0  0  0  0  0  0  0
   14.2330   35.4570   70.0720 C   0  0  0  0  0  0  0  0  0  0  0  0
   15.0140   34.4080   70.4920 C   0  0  0  0  0  0  0  0  0  0  0  0
   16.3400   34.5190   70.6550 N   0  0  0  0  0  0  0  0  0  0  0  0
   16.9760   35.6920   70.4060 C   0  0  0  0  0  0  0  0  0  0  0  0
   18.2930   35.8540   70.5520 N   0  0  0  0  0  0  0  0  0  0  0  0
   19.0930   34.8510   70.9620 C   0  0  0  0  0  0  0  0  0  0  0  0
   18.4820   33.6420   71.2250 C   0  0  0  0  0  0  0  0  0  0  0  0
   17.1190   33.4870   71.0710 C   0  0  0  0  0  0  0  0  0  0  0  0
   16.5210   32.3990   71.3000 O   0  0  0  0  0  0  0  0  0  0  0  0
   20.5580   35.0000   71.1330 C   0  0  0  0  0  0  0  0  0  0  0  0
   21.2890   34.4320   70.0830 O   0  0  0  0  0  0  0  0  0  0  0  0
   22.3690   33.5920   70.2240 C   0  0  0  0  0  0  0  0  0  0  0  0
   22.1000   32.3800   70.4620 O   0  0  0  0  0  0  0  0  0  0  0  0
   23.7760   34.0620   70.1050 C   0  0  0  0  0  0  0  0  0  0  0  0
   24.0520   34.5950   68.7700 N   0  0  0  0  0  0  0  0  0  0  0  0
   24.5780   35.8780   68.4430 C   0  0  0  0  0  0  0  0  0  0  0  0
   25.0640   36.7100   69.2490 O   0  0  0  0  0  0  0  0  0  0  0  0
   24.4520   36.0600   66.9780 C   0  0  2  0  0  0  0  0  0  0  0  0
   24.6020   34.6310   66.5110 C   0  0  1  0  0  0  0  0  0  0  0  0
   26.0380   34.1450   66.5510 C   0  0  0  0  0  0  0  0  0  0  0  0
   27.0220   35.2390   66.8700 C   0  0  0  0  0  0  0  0  0  0  0  0
   26.7510   36.4690   66.0510 C   0  0  0  0  0  0  0  0  0  0  0  0
   25.4080   37.0140   66.3870 C   0  0  0  0  0  0  0  0  0  0  0  0
   23.8280   33.9110   67.5490 C   0  0  0  0  0  0  0  0  0  0  0  0
   23.0990   32.8820   67.3990 O   0  0  0  0  0  0  0  0  0  0  0  0
   16.2170   36.7790   69.9770 C   0  0  0  0  0  0  0  0  0  0  0  0
   14.8540   36.6520   69.8140 C   0  0  0  0  0  0  0  0  0  0  0  0
   14.5320   33.4680   70.6960 H   0  0  0  0  0  0  0  0  0  0  0  0
   19.0450   32.7690   71.5620 H   0  0  0  0  0  0  0  0  0  0  0  0
   20.7710   36.0870   71.1610 H   0  0  0  0  0  0  0  0  0  0  0  0
   20.8190   34.4920   72.0970 H   0  0  0  0  0  0  0  0  0  0  0  0
   24.0270   34.8470   70.8340 H   0  0  0  0  0  0  0  0  0  0  0  0
   24.4310   33.1950   70.3060 H   0  0  0  0  0  0  0  0  0  0  0  0
   23.4090   36.3560   66.7660 H   0  0  0  0  0  0  0  0  0  0  0  0
   24.1620   34.4880   65.4960 H   0  0  0  0  0  0  0  0  0  0  0  0
   26.3340   33.6950   65.5650 H   0  0  0  0  0  0  0  0  0  0  0  0
   26.1850   33.3380   67.2850 H   0  0  0  0  0  0  0  0  0  0  0  0
   28.0350   34.8720   66.5410 H   0  0  0  0  0  0  0  0  0  0  0  0
   27.1240   35.4510   67.9410 H   0  0  0  0  0  0  0  0  0  0  0  0
   26.8520   36.1780   64.9780 H   0  0  0  0  0  0  0  0  0  0  0  0
   27.5790   37.1920   66.2530 H   0  0  0  0  0  0  0  0  0  0  0  0
   24.9570   37.4090   65.4300 H   0  0  0  0  0  0  0  0  0  0  0  0
   25.4750   37.9070   67.0480 H   0  0  0  0  0  0  0  0  0  0  0  0
   16.7110   37.7090   69.7780 H   0  0  0  0  0  0  0  0  0  0  0  0
   14.2540   37.4840   69.4820 H   0  0  0  0  0  0  0  0  0  0  0  0
  1  2  1  0  0  0  0
  2  3  1  0  0  0  0
  3  4  1  0  0  0  0
  3 29  1  0  0  0  0
  4  9  1  0  0  0  0
  5  6  1  0  0  0  0
  5  4  1  0  0  0  0
  6  7  2  0  0  0  0
  7 11  1  0  0  0  0
  7  8  1  0  0  0  0
  8 30  1  0  0  0  0
  9  8  1  0  0  0  0
  9 10  2  0  0  0  0
 11 31  1  0  0  0  0
 11 32  1  0  0  0  0
 12 13  1  0  0  0  0
 12 11  1  0  0  0  0
 13 14  2  0  0  0  0
 15 13  1  0  0  0  0
 15 34  1  0  0  0  0
 15 33  1  0  0  0  0
 16 15  1  0  0  0  0
 17 16  1  0  0  0  0
 17 18  2  0  0  0  0
 19 35  1  6  0  0  0
 19 17  1  0  0  0  0
 20 36  1  6  0  0  0
 20 21  1  0  0  0  0
 20 19  1  0  0  0  0
 20 25  1  0  0  0  0
 21 22  1  0  0  0  0
 21 38  1  0  0  0  0
 22 40  1  0  0  0  0
 23 42  1  0  0  0  0
 23 24  1  0  0  0  0
 23 22  1  0  0  0  0
 24 19  1  0  0  0  0
 24 44  1  0  0  0  0
 25 16  1  0  0  0  0
 26 25  2  0  0  0  0
 27  5  2  0  0  0  0
 28 27  1  0  0  0  0
 28  2  2  0  0  0  0
 37 21  1  0  0  0  0
 39 22  1  0  0  0  0
 41 23  1  0  0  0  0
 43 24  1  0  0  0  0
 45 27  1  0  0  0  0
 46 28  1  0  0  0  0
M  END
>  <Pose>
1

>  <Score>
-6.18

$$$$
