
 OpenBabel03212208413D

 56 59  0  0  0  0  0  0  0  0999 V2000
   12.5050   30.1230   73.7700 Cl  0  0  0  0  0  0  0  0  0  0  0  0
   13.7080   29.6330   74.9080 C   0  0  0  0  0  0  0  0  0  0  0  0
   15.0020   29.4540   74.4700 C   0  0  0  0  0  0  0  0  0  0  0  0
   15.9240   29.0610   75.4390 C   0  0  0  0  0  0  0  0  0  0  0  0
   15.5510   28.8650   76.7540 C   0  0  0  0  0  0  0  0  0  0  0  0
   14.2510   29.0560   77.1430 C   0  0  0  0  0  0  0  0  0  0  0  0
   13.3270   29.4400   76.2210 C   0  0  0  0  0  0  0  0  0  0  0  0
   15.4270   29.6370   73.1530 N   0  0  0  0  0  0  0  0  0  0  0  0
   15.0570   30.7360   72.2870 C   0  0  0  0  0  0  0  0  0  0  0  0
   16.0650   30.8100   71.1430 C   0  0  0  0  0  0  0  0  0  0  0  0
   17.4020   30.5720   71.6620 N   0  0  0  0  0  0  0  0  0  0  0  0
   17.6580   29.3360   72.3640 C   0  0  0  0  0  0  0  0  0  0  0  0
   16.3360   28.6360   72.5730 C   0  0  0  0  0  0  0  0  0  0  0  0
   18.4500   31.5190   71.4910 C   0  0  0  0  0  0  0  0  0  0  0  0
   19.2930   31.3200   70.5620 O   0  0  0  0  0  0  0  0  0  0  0  0
   18.6200   32.7150   72.3240 C   0  0  0  0  0  0  0  0  0  0  0  0
   18.2240   33.9520   71.6540 N   0  0  0  0  0  0  0  0  0  0  0  0
   17.0320   34.5090   71.5630 N   0  0  0  0  0  0  0  0  0  0  0  0
   17.0440   35.6490   70.8690 C   0  0  0  0  0  0  0  0  0  0  0  0
   18.3550   35.8500   70.4770 C   0  0  0  0  0  0  0  0  0  0  0  0
   19.0650   34.7820   70.9780 C   0  0  0  0  0  0  0  0  0  0  0  0
   20.5180   34.5780   70.8010 C   0  0  0  0  0  0  0  0  0  0  0  0
   15.8900   36.5210   70.5810 C   0  0  0  0  0  0  0  0  0  0  0  0
   16.0070   37.7600   70.6580 O   0  0  0  0  0  0  0  0  0  0  0  0
   14.6610   35.9290   70.2180 N   0  0  0  0  0  0  0  0  0  0  0  0
   14.1390   34.7320   70.8150 C   0  0  0  0  0  0  0  0  0  0  0  0
   12.7330   34.5380   70.2340 C   0  0  0  0  0  0  0  0  0  0  0  0
   11.9680   35.6730   70.3940 O   0  0  0  0  0  0  0  0  0  0  0  0
   12.4630   36.7800   69.7460 C   0  0  0  0  0  0  0  0  0  0  0  0
   13.8450   36.5490   69.1700 C   0  0  0  0  0  0  0  0  0  0  0  0
   16.9520   28.8990   75.1870 H   0  0  0  0  0  0  0  0  0  0  0  0
   16.2770   28.5590   77.4950 H   0  0  0  0  0  0  0  0  0  0  0  0
   13.9640   28.8960   78.1940 H   0  0  0  0  0  0  0  0  0  0  0  0
   12.2830   29.5970   76.5170 H   0  0  0  0  0  0  0  0  0  0  0  0
   14.0670   30.6080   71.8250 H   0  0  0  0  0  0  0  0  0  0  0  0
   15.1620   31.6980   72.8300 H   0  0  0  0  0  0  0  0  0  0  0  0
   16.0410   31.8550   70.7720 H   0  0  0  0  0  0  0  0  0  0  0  0
   15.8090   30.1010   70.3320 H   0  0  0  0  0  0  0  0  0  0  0  0
   18.3930   28.6950   71.8420 H   0  0  0  0  0  0  0  0  0  0  0  0
   18.0190   29.5840   73.4000 H   0  0  0  0  0  0  0  0  0  0  0  0
   15.9210   28.3640   71.5700 H   0  0  0  0  0  0  0  0  0  0  0  0
   16.4290   27.7490   73.2330 H   0  0  0  0  0  0  0  0  0  0  0  0
   19.6580   32.8230   72.6980 H   0  0  0  0  0  0  0  0  0  0  0  0
   17.9560   32.6170   73.2050 H   0  0  0  0  0  0  0  0  0  0  0  0
   18.7270   36.6790   69.8980 H   0  0  0  0  0  0  0  0  0  0  0  0
   21.0690   35.4670   71.1650 H   0  0  0  0  0  0  0  0  0  0  0  0
   20.8570   33.6970   71.3780 H   0  0  0  0  0  0  0  0  0  0  0  0
   20.7490   34.3670   69.7260 H   0  0  0  0  0  0  0  0  0  0  0  0
   14.0630   34.8330   71.9180 H   0  0  0  0  0  0  0  0  0  0  0  0
   14.7080   33.8240   70.5910 H   0  0  0  0  0  0  0  0  0  0  0  0
   12.7890   34.1650   69.2000 H   0  0  0  0  0  0  0  0  0  0  0  0
   12.2720   33.7380   70.8540 H   0  0  0  0  0  0  0  0  0  0  0  0
   11.7910   37.0620   68.8930 H   0  0  0  0  0  0  0  0  0  0  0  0
   12.5360   37.6440   70.4330 H   0  0  0  0  0  0  0  0  0  0  0  0
   14.2900   37.5170   68.8750 H   0  0  0  0  0  0  0  0  0  0  0  0
   13.7470   35.8640   68.3110 H   0  0  0  0  0  0  0  0  0  0  0  0
  1  2  1  0  0  0  0
  2  7  1  0  0  0  0
  3  2  2  0  0  0  0
  3  4  1  0  0  0  0
  4  5  2  0  0  0  0
  5  6  1  0  0  0  0
  5 32  1  0  0  0  0
  6 33  1  0  0  0  0
  7 34  1  0  0  0  0
  7  6  2  0  0  0  0
  8  3  1  0  0  0  0
  9 36  1  0  0  0  0
  9  8  1  0  0  0  0
 10 11  1  0  0  0  0
 10  9  1  0  0  0  0
 11 12  1  0  0  0  0
 12 13  1  0  0  0  0
 12 40  1  0  0  0  0
 13  8  1  0  0  0  0
 13 42  1  0  0  0  0
 14 11  1  0  0  0  0
 14 16  1  0  0  0  0
 15 14  2  0  0  0  0
 16 43  1  0  0  0  0
 16 44  1  0  0  0  0
 17 16  1  0  0  0  0
 18 17  1  0  0  0  0
 19 18  2  0  0  0  0
 20 19  1  0  0  0  0
 20 21  2  0  0  0  0
 21 17  1  0  0  0  0
 22 21  1  0  0  0  0
 22 46  1  0  0  0  0
 22 47  1  0  0  0  0
 23 24  2  0  0  0  0
 23 19  1  0  0  0  0
 25 23  1  0  0  0  0
 25 26  1  0  0  0  0
 26 49  1  0  0  0  0
 27 28  1  0  0  0  0
 27 26  1  0  0  0  0
 27 52  1  0  0  0  0
 29 28  1  0  0  0  0
 29 54  1  0  0  0  0
 30 29  1  0  0  0  0
 30 25  1  0  0  0  0
 31  4  1  0  0  0  0
 35  9  1  0  0  0  0
 37 10  1  0  0  0  0
 38 10  1  0  0  0  0
 39 12  1  0  0  0  0
 41 13  1  0  0  0  0
 45 20  1  0  0  0  0
 48 22  1  0  0  0  0
 50 26  1  0  0  0  0
 51 27  1  0  0  0  0
 53 29  1  0  0  0  0
 55 30  1  0  0  0  0
 56 30  1  0  0  0  0
M  END
>  <Pose>
1

>  <Score>
-5.53

$$$$
