
 OpenBabel03212208413D

 46 49  0  0  1  0  0  0  0  0999 V2000
   15.6640   37.7900   69.9640 Cl  0  0  0  0  0  0  0  0  0  0  0  0
   15.6600   36.0990   70.4450 C   0  0  0  0  0  0  0  0  0  0  0  0
   14.4400   35.4890   70.6280 C   0  0  0  0  0  0  0  0  0  0  0  0
   14.4410   34.1840   70.9990 N   0  0  0  0  0  0  0  0  0  0  0  0
   15.5780   33.4940   71.1850 C   0  0  0  0  0  0  0  0  0  0  0  0
   15.5870   32.2000   71.5530 N   0  0  0  0  0  0  0  0  0  0  0  0
   14.4590   31.4970   71.7610 C   0  0  0  0  0  0  0  0  0  0  0  0
   13.2860   32.2070   71.5700 C   0  0  0  0  0  0  0  0  0  0  0  0
   13.2770   33.5310   71.1950 C   0  0  0  0  0  0  0  0  0  0  0  0
   12.1770   34.1440   71.0300 O   0  0  0  0  0  0  0  0  0  0  0  0
   14.4270   30.0850   72.1640 C   0  0  0  0  0  0  0  0  0  0  0  0
   14.8890   29.7920   73.4560 N   0  0  0  0  0  0  0  0  0  0  0  0
   14.1190   28.9470   74.2700 C   0  0  0  0  0  0  0  0  0  0  0  0
   14.5390   27.5150   74.3070 C   0  0  0  0  0  0  0  0  0  0  0  0
   15.9640   27.3550   74.0580 N   0  0  0  0  0  0  0  0  0  0  0  0
   16.6430   26.2090   74.0880 N   0  0  0  0  0  0  0  0  0  0  0  0
   17.9270   26.4520   73.8100 C   0  0  0  0  0  0  0  0  0  0  0  0
   18.0450   27.8020   73.5990 C   0  0  0  0  0  0  0  0  0  0  0  0
   16.7800   28.3780   73.7600 C   0  0  0  0  0  0  0  0  0  0  0  0
   16.2940   29.7770   73.6580 C   0  0  0  0  0  0  0  0  0  0  0  0
   19.0220   25.4340   73.7430 C   0  0  1  0  0  0  0  0  0  0  0  0
   18.9710   24.8350   72.4730 O   0  0  0  0  0  0  0  0  0  0  0  0
   20.3810   26.1250   73.8200 C   0  0  0  0  0  0  0  0  0  0  0  0
   21.4410   25.1530   73.3220 C   0  0  0  0  0  0  0  0  0  0  0  0
   16.8200   34.1090   71.0000 C   0  0  0  0  0  0  0  0  0  0  0  0
   16.8520   35.4290   70.6250 C   0  0  0  0  0  0  0  0  0  0  0  0
   13.5270   36.0170   70.4860 H   0  0  0  0  0  0  0  0  0  0  0  0
   12.3360   31.6850   71.7270 H   0  0  0  0  0  0  0  0  0  0  0  0
   13.3740   29.7150   72.0680 H   0  0  0  0  0  0  0  0  0  0  0  0
   15.0040   29.4570   71.4240 H   0  0  0  0  0  0  0  0  0  0  0  0
   14.1870   29.3270   75.3330 H   0  0  0  0  0  0  0  0  0  0  0  0
   13.0460   29.0680   74.0070 H   0  0  0  0  0  0  0  0  0  0  0  0
   13.9400   26.9450   73.5740 H   0  0  0  0  0  0  0  0  0  0  0  0
   14.3130   27.0380   75.3040 H   0  0  0  0  0  0  0  0  0  0  0  0
   18.9350   28.3570   73.3530 H   0  0  0  0  0  0  0  0  0  0  0  0
   16.5080   30.3280   74.6210 H   0  0  0  0  0  0  0  0  0  0  0  0
   16.7800   30.3250   72.8270 H   0  0  0  0  0  0  0  0  0  0  0  0
   18.9430   24.6730   74.5270 H   0  0  0  0  0  0  0  0  0  0  0  0
   18.8620   25.5290   71.7610 H   0  0  0  0  0  0  0  0  0  0  0  0
   20.5790   26.3290   74.8730 H   0  0  0  0  0  0  0  0  0  0  0  0
   20.4110   27.0560   73.2520 H   0  0  0  0  0  0  0  0  0  0  0  0
   20.9640   24.2390   72.9300 H   0  0  0  0  0  0  0  0  0  0  0  0
   22.1110   25.6260   72.5670 H   0  0  0  0  0  0  0  0  0  0  0  0
   22.1210   24.8330   74.1610 H   0  0  0  0  0  0  0  0  0  0  0  0
   17.7210   33.5250   71.1580 H   0  0  0  0  0  0  0  0  0  0  0  0
   17.8110   35.9080   70.4810 H   0  0  0  0  0  0  0  0  0  0  0  0
  1  2  1  0  0  0  0
  2 26  2  0  0  0  0
  2  3  1  0  0  0  0
  3  4  1  0  0  0  0
  4  5  1  0  0  0  0
  4  9  1  0  0  0  0
  5  6  1  0  0  0  0
  6  7  2  0  0  0  0
  7 11  1  0  0  0  0
  8 28  1  0  0  0  0
  8  7  1  0  0  0  0
  9  8  1  0  0  0  0
 10  9  2  0  0  0  0
 11 12  1  0  0  0  0
 12 20  1  0  0  0  0
 12 13  1  0  0  0  0
 13 14  1  0  0  0  0
 13 31  1  0  0  0  0
 14 34  1  0  0  0  0
 15 16  1  0  0  0  0
 15 14  1  0  0  0  0
 17 16  2  0  0  0  0
 18 19  2  0  0  0  0
 18 17  1  0  0  0  0
 19 15  1  0  0  0  0
 20 19  1  0  0  0  0
 20 36  1  0  0  0  0
 21 17  1  0  0  0  0
 21 23  1  0  0  0  0
 21 38  1  1  0  0  0
 22 21  1  0  0  0  0
 23 40  1  0  0  0  0
 24 23  1  0  0  0  0
 24 44  1  0  0  0  0
 25 45  1  0  0  0  0
 25  5  2  0  0  0  0
 26 25  1  0  0  0  0
 27  3  1  0  0  0  0
 29 11  1  0  0  0  0
 30 11  1  0  0  0  0
 32 13  1  0  0  0  0
 33 14  1  0  0  0  0
 35 18  1  0  0  0  0
 37 20  1  0  0  0  0
 39 22  1  0  0  0  0
 41 23  1  0  0  0  0
 42 24  1  0  0  0  0
 43 24  1  0  0  0  0
 46 26  1  0  0  0  0
M  END
>  <Pose>
1

>  <Score>
-6.05

$$$$
