
 OpenBabel03212208413D

 45 48  0  0  1  0  0  0  0  0999 V2000
   24.4180   35.4670   65.9570 Cl  0  0  0  0  0  0  0  0  0  0  0  0
   23.3140   35.3980   67.3380 C   0  0  0  0  0  0  0  0  0  0  0  0
   22.5710   34.2890   67.5830 C   0  0  0  0  0  0  0  0  0  0  0  0
   21.7090   34.2660   68.6810 C   0  0  0  0  0  0  0  0  0  0  0  0
   21.5520   35.3090   69.5590 C   0  0  0  0  0  0  0  0  0  0  0  0
   22.3440   36.4300   69.2560 C   0  0  0  0  0  0  0  0  0  0  0  0
   23.2020   36.4760   68.1770 C   0  0  0  0  0  0  0  0  0  0  0  0
   20.7160   35.3520   70.7270 C   0  0  0  0  0  0  0  0  0  0  0  0
   20.3050   36.5780   71.0090 O   0  0  0  0  0  0  0  0  0  0  0  0
   20.2710   34.3460   71.6010 N   0  0  0  0  0  0  0  0  0  0  0  0
   20.3180   32.9540   71.3250 C   0  0  0  0  0  0  0  0  0  0  0  0
   19.9550   32.1810   72.6050 C   0  0  1  0  0  0  0  0  0  0  0  0
   18.6390   32.6370   72.9700 N   0  0  0  0  0  0  0  0  0  0  0  0
   18.4810   34.0230   73.2610 C   0  0  0  0  0  0  0  0  0  0  0  0
   19.7150   34.8100   72.8720 C   0  0  0  0  0  0  0  0  0  0  0  0
   17.5560   31.7440   73.0340 C   0  0  0  0  0  0  0  0  0  0  0  0
   16.5550   32.0590   73.7020 O   0  0  0  0  0  0  0  0  0  0  0  0
   17.6440   30.4630   72.3030 C   0  0  1  0  0  0  0  0  0  0  0  0
   18.9290   29.9020   72.6020 N   0  0  0  0  0  0  0  0  0  0  0  0
   20.0640   30.7330   72.4390 C   0  0  0  0  0  0  0  0  0  0  0  0
   21.2040   30.2530   72.1480 O   0  0  0  0  0  0  0  0  0  0  0  0
   16.4930   29.5580   72.5280 C   0  0  0  0  0  0  0  0  0  0  0  0
   15.2570   30.1760   72.0230 C   0  0  0  0  0  0  0  0  0  0  0  0
   14.9930   30.6320   70.7960 N   0  0  0  0  0  0  0  0  0  0  0  0
   13.7210   31.1270   70.7630 C   0  0  0  0  0  0  0  0  0  0  0  0
   13.1780   30.9850   71.9740 N   0  0  0  0  0  0  0  0  0  0  0  0
   14.0940   30.4080   72.7580 C   0  0  0  0  0  0  0  0  0  0  0  0
   22.6620   33.4490   66.9240 H   0  0  0  0  0  0  0  0  0  0  0  0
   21.1370   33.3720   68.8100 H   0  0  0  0  0  0  0  0  0  0  0  0
   22.2700   37.2980   69.9140 H   0  0  0  0  0  0  0  0  0  0  0  0
   23.7740   37.3950   68.0290 H   0  0  0  0  0  0  0  0  0  0  0  0
   21.3170   32.6100   70.9820 H   0  0  0  0  0  0  0  0  0  0  0  0
   19.5820   32.7240   70.5360 H   0  0  0  0  0  0  0  0  0  0  0  0
   20.6720   32.5440   73.3710 H   0  0  0  0  0  0  0  0  0  0  0  0
   18.3180   34.1340   74.3530 H   0  0  0  0  0  0  0  0  0  0  0  0
   17.6170   34.5050   72.7590 H   0  0  0  0  0  0  0  0  0  0  0  0
   19.4710   35.8760   72.7640 H   0  0  0  0  0  0  0  0  0  0  0  0
   20.4730   34.6860   73.6640 H   0  0  0  0  0  0  0  0  0  0  0  0
   17.6630   30.6460   71.1790 H   0  0  0  0  0  0  0  0  0  0  0  0
   19.0520   28.9120   72.9300 H   0  0  0  0  0  0  0  0  0  0  0  0
   16.6900   28.5640   72.0680 H   0  0  0  0  0  0  0  0  0  0  0  0
   16.4160   29.3410   73.6290 H   0  0  0  0  0  0  0  0  0  0  0  0
   13.2850   31.5550   69.8600 H   0  0  0  0  0  0  0  0  0  0  0  0
   12.2340   31.2650   72.2560 H   0  0  0  0  0  0  0  0  0  0  0  0
   14.0250   30.1340   73.8020 H   0  0  0  0  0  0  0  0  0  0  0  0
  1  2  1  0  0  0  0
  2  3  2  0  0  0  0
  2  7  1  0  0  0  0
  3  4  1  0  0  0  0
  4 29  1  0  0  0  0
  4  5  2  0  0  0  0
  5  8  1  0  0  0  0
  6  5  1  0  0  0  0
  6 30  1  0  0  0  0
  7  6  2  0  0  0  0
  8  9  2  0  0  0  0
  8 10  1  0  0  0  0
 10 15  1  0  0  0  0
 11 10  1  0  0  0  0
 11 12  1  0  0  0  0
 12 13  1  0  0  0  0
 12 34  1  1  0  0  0
 13 16  1  0  0  0  0
 13 14  1  0  0  0  0
 14 35  1  0  0  0  0
 15 14  1  0  0  0  0
 15 38  1  0  0  0  0
 16 17  2  0  0  0  0
 18 39  1  6  0  0  0
 18 22  1  0  0  0  0
 18 19  1  0  0  0  0
 18 16  1  0  0  0  0
 19 40  1  0  0  0  0
 20 19  1  0  0  0  0
 20 12  1  0  0  0  0
 21 20  2  0  0  0  0
 22 42  1  0  0  0  0
 23 22  1  0  0  0  0
 23 27  2  0  0  0  0
 24 23  1  0  0  0  0
 25 24  2  0  0  0  0
 25 26  1  0  0  0  0
 26 44  1  0  0  0  0
 26 27  1  0  0  0  0
 27 45  1  0  0  0  0
 28  3  1  0  0  0  0
 31  7  1  0  0  0  0
 32 11  1  0  0  0  0
 33 11  1  0  0  0  0
 36 14  1  0  0  0  0
 37 15  1  0  0  0  0
 41 22  1  0  0  0  0
 43 25  1  0  0  0  0
M  END
>  <Pose>
1

>  <Score>
-6.21

$$$$
