
 OpenBabel03212208413D

 43 46  0  0  0  0  0  0  0  0999 V2000
   16.5920   32.3620   70.6810 Cl  0  0  0  0  0  0  0  0  0  0  0  0
   15.5770   31.1880   71.4880 C   0  0  0  0  0  0  0  0  0  0  0  0
   14.2180   31.3300   71.4790 C   0  0  0  0  0  0  0  0  0  0  0  0
   13.5110   30.3410   72.1680 C   0  0  0  0  0  0  0  0  0  0  0  0
   14.1550   29.3370   72.7820 N   0  0  0  0  0  0  0  0  0  0  0  0
   15.4590   29.1820   72.8030 N   0  0  0  0  0  0  0  0  0  0  0  0
   16.1790   30.1070   72.1550 C   0  0  0  0  0  0  0  0  0  0  0  0
   17.4340   30.0450   72.1170 O   0  0  0  0  0  0  0  0  0  0  0  0
   16.0630   28.0840   73.4810 C   0  0  0  0  0  0  0  0  0  0  0  0
   16.6760   27.0420   72.8140 C   0  0  0  0  0  0  0  0  0  0  0  0
   17.2580   25.9850   73.4800 C   0  0  0  0  0  0  0  0  0  0  0  0
   17.2470   25.9310   74.8590 C   0  0  0  0  0  0  0  0  0  0  0  0
   16.6370   26.9690   75.5310 C   0  0  0  0  0  0  0  0  0  0  0  0
   16.0550   28.0270   74.8590 C   0  0  0  0  0  0  0  0  0  0  0  0
   13.5470   32.3810   70.8090 N   0  0  0  0  0  0  0  0  0  0  0  0
   13.4410   32.4510   69.3620 C   0  0  0  0  0  0  0  0  0  0  0  0
   14.1420   33.6660   68.8110 C   0  0  0  0  0  0  0  0  0  0  0  0
   13.8530   34.7570   69.7090 N   0  0  0  0  0  0  0  0  0  0  0  0
   12.6730   34.6600   70.5300 C   0  0  0  0  0  0  0  0  0  0  0  0
   12.9270   33.4980   71.5140 C   0  0  0  0  0  0  0  0  0  0  0  0
   14.6980   35.8890   69.7860 C   0  0  0  0  0  0  0  0  0  0  0  0
   14.3870   37.1230   70.2770 N   0  0  0  0  0  0  0  0  0  0  0  0
   15.4400   37.9090   70.1770 N   0  0  0  0  0  0  0  0  0  0  0  0
   16.4230   37.2040   69.6300 C   0  0  0  0  0  0  0  0  0  0  0  0
   15.9570   36.0040   69.4060 O   0  0  0  0  0  0  0  0  0  0  0  0
   17.8210   37.6350   69.3030 C   0  0  0  0  0  0  0  0  0  0  0  0
   12.4450   30.4070   72.1840 H   0  0  0  0  0  0  0  0  0  0  0  0
   16.6870   27.0800   71.7250 H   0  0  0  0  0  0  0  0  0  0  0  0
   17.7350   25.1740   72.9210 H   0  0  0  0  0  0  0  0  0  0  0  0
   17.7060   25.0980   75.3760 H   0  0  0  0  0  0  0  0  0  0  0  0
   16.6220   26.9390   76.6000 H   0  0  0  0  0  0  0  0  0  0  0  0
   15.5730   28.8470   75.3880 H   0  0  0  0  0  0  0  0  0  0  0  0
   12.3470   32.5980   69.1270 H   0  0  0  0  0  0  0  0  0  0  0  0
   13.7480   31.5780   68.8140 H   0  0  0  0  0  0  0  0  0  0  0  0
   15.2570   33.5310   68.7930 H   0  0  0  0  0  0  0  0  0  0  0  0
   13.8520   33.8810   67.7680 H   0  0  0  0  0  0  0  0  0  0  0  0
   11.8090   34.4110   69.8890 H   0  0  0  0  0  0  0  0  0  0  0  0
   12.4800   35.5910   71.0890 H   0  0  0  0  0  0  0  0  0  0  0  0
   11.9330   33.2670   71.9210 H   0  0  0  0  0  0  0  0  0  0  0  0
   13.6370   33.9550   72.2490 H   0  0  0  0  0  0  0  0  0  0  0  0
   18.2390   38.2530   70.1210 H   0  0  0  0  0  0  0  0  0  0  0  0
   18.4890   36.7540   69.2100 H   0  0  0  0  0  0  0  0  0  0  0  0
   17.7900   38.1350   68.3310 H   0  0  0  0  0  0  0  0  0  0  0  0
  1  2  1  0  0  0  0
  2  7  1  0  0  0  0
  3  2  2  0  0  0  0
  3  4  1  0  0  0  0
  4 27  1  0  0  0  0
  4  5  2  0  0  0  0
  5  6  1  0  0  0  0
  6  9  1  0  0  0  0
  7  6  1  0  0  0  0
  8  7  2  0  0  0  0
  9 14  1  0  0  0  0
 10 11  1  0  0  0  0
 10  9  2  0  0  0  0
 11 12  2  0  0  0  0
 12 30  1  0  0  0  0
 12 13  1  0  0  0  0
 13 31  1  0  0  0  0
 14 32  1  0  0  0  0
 14 13  2  0  0  0  0
 15  3  1  0  0  0  0
 15 20  1  0  0  0  0
 16 15  1  0  0  0  0
 17 16  1  0  0  0  0
 17 18  1  0  0  0  0
 18 21  1  0  0  0  0
 18 19  1  0  0  0  0
 19 38  1  0  0  0  0
 19 20  1  0  0  0  0
 20 39  1  0  0  0  0
 20 40  1  0  0  0  0
 21 22  2  0  0  0  0
 23 22  1  0  0  0  0
 24 23  2  0  0  0  0
 25 24  1  0  0  0  0
 25 21  1  0  0  0  0
 26 24  1  0  0  0  0
 26 41  1  0  0  0  0
 28 10  1  0  0  0  0
 29 11  1  0  0  0  0
 33 16  1  0  0  0  0
 34 16  1  0  0  0  0
 35 17  1  0  0  0  0
 36 17  1  0  0  0  0
 37 19  1  0  0  0  0
 42 26  1  0  0  0  0
 43 26  1  0  0  0  0
M  END
>  <Pose>
1

>  <Score>
-5.31

$$$$
