
 OpenBabel03212208413D

 49 52  0  0  0  0  0  0  0  0999 V2000
   21.2580   33.7920   71.3090 B   0  0  0  0  0  0  0  0  0  0  0  0
   21.5940   32.1130   72.1020 C   0  0  0  0  0  0  0  0  0  0  0  0
   20.6820   31.5890   73.0050 C   0  0  0  0  0  0  0  0  0  0  0  0
   20.8990   30.3750   73.6010 C   0  0  0  0  0  0  0  0  0  0  0  0
   22.0070   29.6250   73.3430 C   0  0  0  0  0  0  0  0  0  0  0  0
   22.9310   30.1460   72.4320 C   0  0  0  0  0  0  0  0  0  0  0  0
   22.7160   31.3700   71.8280 C   0  0  0  0  0  0  0  0  0  0  0  0
   19.9000   29.7780   74.5560 C   0  0  0  0  0  0  0  0  0  0  0  0
   20.4050   29.4830   75.6960 O   0  0  0  0  0  0  0  0  0  0  0  0
   18.6530   29.6250   74.1420 N   0  0  0  0  0  0  0  0  0  0  0  0
   17.3460   29.4650   73.7070 C   0  0  0  0  0  0  0  0  0  0  0  0
   16.6990   30.7910   73.3990 C   0  0  0  0  0  0  0  0  0  0  0  0
   15.6700   31.0590   74.1140 O   0  0  0  0  0  0  0  0  0  0  0  0
   17.1580   31.6800   72.4180 N   0  0  0  0  0  0  0  0  0  0  0  0
   17.1110   31.3880   71.0210 C   0  0  0  0  0  0  0  0  0  0  0  0
   16.8180   32.6000   70.1840 C   0  0  0  0  0  0  0  0  0  0  0  0
   16.1370   33.7320   70.9210 C   0  0  0  0  0  0  0  0  0  0  0  0
   16.2380   34.8560   69.9990 N   0  0  0  0  0  0  0  0  0  0  0  0
   15.4960   36.0090   70.3400 C   0  0  0  0  0  0  0  0  0  0  0  0
   14.3980   35.8630   71.3290 C   0  0  0  0  0  0  0  0  0  0  0  0
   13.8280   34.4800   71.3240 C   0  0  0  0  0  0  0  0  0  0  0  0
   12.5840   34.0310   71.4860 N   0  0  0  0  0  0  0  0  0  0  0  0
   12.6620   32.6870   71.3830 C   0  0  0  0  0  0  0  0  0  0  0  0
   13.9400   32.3080   71.1600 N   0  0  0  0  0  0  0  0  0  0  0  0
   14.7000   33.4410   71.1200 C   0  0  0  0  0  0  0  0  0  0  0  0
   16.7800   34.0760   72.2400 C   0  0  0  0  0  0  0  0  0  0  0  0
   17.7000   32.9890   72.7650 C   0  0  0  0  0  0  0  0  0  0  0  0
   19.7990   32.1360   73.2400 H   0  0  0  0  0  0  0  0  0  0  0  0
   22.1500   28.6780   73.8230 H   0  0  0  0  0  0  0  0  0  0  0  0
   23.8200   29.5860   72.2030 H   0  0  0  0  0  0  0  0  0  0  0  0
   23.4290   31.7700   71.1230 H   0  0  0  0  0  0  0  0  0  0  0  0
   18.2610   30.7350   74.8680 H   0  0  0  0  0  0  0  0  0  0  0  0
   16.7080   28.9560   74.5100 H   0  0  0  0  0  0  0  0  0  0  0  0
   17.2570   28.7590   72.8460 H   0  0  0  0  0  0  0  0  0  0  0  0
   18.1610   31.0620   70.7450 H   0  0  0  0  0  0  0  0  0  0  0  0
   16.4890   30.5110   70.7650 H   0  0  0  0  0  0  0  0  0  0  0  0
   17.7430   32.9810   69.7360 H   0  0  0  0  0  0  0  0  0  0  0  0
   16.1060   32.2720   69.3970 H   0  0  0  0  0  0  0  0  0  0  0  0
   17.2780   35.0560   69.9580 H   0  0  0  0  0  0  0  0  0  0  0  0
   15.0270   36.3960   69.3850 H   0  0  0  0  0  0  0  0  0  0  0  0
   16.2120   36.8270   70.6500 H   0  0  0  0  0  0  0  0  0  0  0  0
   14.7680   36.1350   72.3450 H   0  0  0  0  0  0  0  0  0  0  0  0
   13.5990   36.6270   71.1120 H   0  0  0  0  0  0  0  0  0  0  0  0
   11.8050   32.0480   71.4720 H   0  0  0  0  0  0  0  0  0  0  0  0
   14.2690   31.3350   71.0450 H   0  0  0  0  0  0  0  0  0  0  0  0
   15.9670   34.1860   73.0210 H   0  0  0  0  0  0  0  0  0  0  0  0
   17.3630   35.0110   72.2210 H   0  0  0  0  0  0  0  0  0  0  0  0
   18.7400   33.1100   72.3830 H   0  0  0  0  0  0  0  0  0  0  0  0
   17.7040   33.0710   73.8680 H   0  0  0  0  0  0  0  0  0  0  0  0
  1  2  1  0  0  0  0
  2  3  1  0  0  0  0
  3 28  1  0  0  0  0
  3  4  2  0  0  0  0
  4  8  1  0  0  0  0
  5  4  1  0  0  0  0
  5 29  1  0  0  0  0
  6  5  2  0  0  0  0
  7  2  2  0  0  0  0
  7  6  1  0  0  0  0
  8  9  2  0  0  0  0
 10  8  1  0  0  0  0
 10 32  1  0  0  0  0
 11 10  1  0  0  0  0
 11 33  1  0  0  0  0
 12 11  1  0  0  0  0
 12 13  2  0  0  0  0
 14 27  1  0  0  0  0
 14 12  1  0  0  0  0
 15 14  1  0  0  0  0
 16 17  1  0  0  0  0
 16 15  1  0  0  0  0
 17 25  1  0  0  0  0
 17 26  1  0  0  0  0
 18 19  1  0  0  0  0
 18 17  1  0  0  0  0
 19 41  1  0  0  0  0
 19 20  1  0  0  0  0
 20 42  1  0  0  0  0
 21 20  1  0  0  0  0
 21 22  1  0  0  0  0
 23 44  1  0  0  0  0
 23 22  2  0  0  0  0
 24 23  1  0  0  0  0
 25 24  1  0  0  0  0
 25 21  2  0  0  0  0
 26 27  1  0  0  0  0
 26 46  1  0  0  0  0
 27 49  1  0  0  0  0
 30  6  1  0  0  0  0
 31  7  1  0  0  0  0
 34 11  1  0  0  0  0
 35 15  1  0  0  0  0
 36 15  1  0  0  0  0
 37 16  1  0  0  0  0
 38 16  1  0  0  0  0
 39 18  1  0  0  0  0
 40 19  1  0  0  0  0
 43 20  1  0  0  0  0
 45 24  1  0  0  0  0
 47 26  1  0  0  0  0
 48 27  1  0  0  0  0
M  END
>  <Pose>
1

>  <Score>
-6.48

$$$$
