
 OpenBabel03212208413D

 45 48  0  0  1  0  0  0  0  0999 V2000
   26.0940   32.7070   71.1150 Cl  0  0  0  0  0  0  0  0  0  0  0  0
   24.9980   33.0020   69.7620 C   0  0  0  0  0  0  0  0  0  0  0  0
   23.6530   33.1560   69.9960 C   0  0  0  0  0  0  0  0  0  0  0  0
   22.7570   33.3900   68.9520 C   0  0  0  0  0  0  0  0  0  0  0  0
   23.2950   33.4580   67.6830 C   0  0  0  0  0  0  0  0  0  0  0  0
   24.6500   33.3010   67.4580 C   0  0  0  0  0  0  0  0  0  0  0  0
   25.5310   33.0700   68.4920 C   0  0  0  0  0  0  0  0  0  0  0  0
   21.3090   33.5530   69.2190 C   0  0  0  0  0  0  0  0  0  0  0  0
   20.8690   32.8060   70.4490 C   0  0  0  0  0  0  0  0  0  0  0  0
   19.4590   32.9370   70.7340 N   0  0  0  0  0  0  0  0  0  0  0  0
   18.7390   33.8760   71.5520 C   0  0  2  0  0  0  0  0  0  0  0  0
   17.5330   33.0550   71.9630 C   0  0  2  0  0  0  0  0  0  0  0  0
   17.2060   32.4310   70.7290 O   0  0  0  0  0  0  0  0  0  0  0  0
   18.4620   32.0750   70.1960 C   0  0  0  0  0  0  0  0  0  0  0  0
   18.6220   31.1240   69.3670 O   0  0  0  0  0  0  0  0  0  0  0  0
   16.6120   34.1510   72.3600 C   0  0  0  0  0  0  0  0  0  0  0  0
   16.6880   35.0270   71.1690 N   0  0  0  0  0  0  0  0  0  0  0  0
   18.0290   34.9300   70.6830 C   0  0  0  0  0  0  0  0  0  0  0  0
   15.5670   35.7430   70.7370 C   0  0  0  0  0  0  0  0  0  0  0  0
   15.6960   36.9800   70.3620 O   0  0  0  0  0  0  0  0  0  0  0  0
   14.2080   35.2420   70.6530 C   0  0  0  0  0  0  0  0  0  0  0  0
   13.2000   35.7340   69.8820 N   0  0  0  0  0  0  0  0  0  0  0  0
   12.1110   34.9960   70.0850 C   0  0  0  0  0  0  0  0  0  0  0  0
   12.3960   34.0380   70.9700 N   0  0  0  0  0  0  0  0  0  0  0  0
   13.6910   34.1770   71.3310 C   0  0  0  0  0  0  0  0  0  0  0  0
   13.3170   36.8670   69.0020 C   0  0  0  0  0  0  0  0  0  0  0  0
   23.2200   33.1040   70.9990 H   0  0  0  0  0  0  0  0  0  0  0  0
   22.5990   33.6390   66.8600 H   0  0  0  0  0  0  0  0  0  0  0  0
   25.0420   33.3610   66.4440 H   0  0  0  0  0  0  0  0  0  0  0  0
   26.5930   32.9460   68.3320 H   0  0  0  0  0  0  0  0  0  0  0  0
   20.7620   33.1090   68.3620 H   0  0  0  0  0  0  0  0  0  0  0  0
   21.0010   34.6290   69.2470 H   0  0  0  0  0  0  0  0  0  0  0  0
   21.4960   33.2120   71.2940 H   0  0  0  0  0  0  0  0  0  0  0  0
   21.1490   31.7340   70.3900 H   0  0  0  0  0  0  0  0  0  0  0  0
   19.2920   34.3100   72.3740 H   0  0  0  0  0  0  0  0  0  0  0  0
   17.7560   32.3270   72.7560 H   0  0  0  0  0  0  0  0  0  0  0  0
   15.5990   33.8580   72.6020 H   0  0  0  0  0  0  0  0  0  0  0  0
   17.1040   34.7370   73.1640 H   0  0  0  0  0  0  0  0  0  0  0  0
   18.6080   35.8590   70.6820 H   0  0  0  0  0  0  0  0  0  0  0  0
   18.0400   34.5340   69.6230 H   0  0  0  0  0  0  0  0  0  0  0  0
   11.1120   35.0940   69.6390 H   0  0  0  0  0  0  0  0  0  0  0  0
   14.1610   33.4960   72.0570 H   0  0  0  0  0  0  0  0  0  0  0  0
   13.9650   36.6670   68.1250 H   0  0  0  0  0  0  0  0  0  0  0  0
   13.7120   37.7640   69.5370 H   0  0  0  0  0  0  0  0  0  0  0  0
   12.3150   37.1550   68.6210 H   0  0  0  0  0  0  0  0  0  0  0  0
  2  3  1  0  0  0  0
  2  1  1  0  0  0  0
  3 27  1  0  0  0  0
  4  8  1  0  0  0  0
  4  3  2  0  0  0  0
  5  4  1  0  0  0  0
  6  5  2  0  0  0  0
  6  7  1  0  0  0  0
  7  2  2  0  0  0  0
  8 32  1  0  0  0  0
  8  9  1  0  0  0  0
  9 10  1  0  0  0  0
  9 33  1  0  0  0  0
 10 11  1  0  0  0  0
 11 12  1  0  0  0  0
 11 35  1  1  0  0  0
 12 16  1  0  0  0  0
 12 36  1  1  0  0  0
 13 12  1  0  0  0  0
 14 13  1  0  0  0  0
 14 10  1  0  0  0  0
 15 14  2  0  0  0  0
 16 37  1  0  0  0  0
 16 38  1  0  0  0  0
 17 16  1  0  0  0  0
 18 17  1  0  0  0  0
 18 11  1  0  0  0  0
 19 17  1  0  0  0  0
 20 19  2  0  0  0  0
 21 19  1  0  0  0  0
 21 25  2  0  0  0  0
 22 23  1  0  0  0  0
 22 21  1  0  0  0  0
 23 24  2  0  0  0  0
 24 25  1  0  0  0  0
 25 42  1  0  0  0  0
 26 44  1  0  0  0  0
 26 22  1  0  0  0  0
 28  5  1  0  0  0  0
 29  6  1  0  0  0  0
 30  7  1  0  0  0  0
 31  8  1  0  0  0  0
 34  9  1  0  0  0  0
 39 18  1  0  0  0  0
 40 18  1  0  0  0  0
 41 23  1  0  0  0  0
 43 26  1  0  0  0  0
 45 26  1  0  0  0  0
M  END
>  <Pose>
1

>  <Score>
-6.14

$$$$
