
 OpenBabel03212208413D

 53 56  0  0  0  0  0  0  0  0999 V2000
   12.6660   36.1800   69.5830 Cl  0  0  0  0  0  0  0  0  0  0  0  0
   14.3510   35.8340   69.9690 C   0  0  0  0  0  0  0  0  0  0  0  0
   14.7270   34.5010   70.0680 C   0  0  0  0  0  0  0  0  0  0  0  0
   16.0260   34.2070   70.3690 C   0  0  0  0  0  0  0  0  0  0  0  0
   16.9360   35.2640   70.5680 C   0  0  0  0  0  0  0  0  0  0  0  0
   16.5390   36.5660   70.4640 C   0  0  0  0  0  0  0  0  0  0  0  0
   15.2260   36.8810   70.1600 C   0  0  0  0  0  0  0  0  0  0  0  0
   16.5210   32.8120   70.4490 C   0  0  0  0  0  0  0  0  0  0  0  0
   16.4430   32.1930   71.7330 N   0  0  0  0  0  0  0  0  0  0  0  0
   15.3370   31.5570   72.1720 C   0  0  0  0  0  0  0  0  0  0  0  0
   15.5990   31.1370   73.4550 C   0  0  0  0  0  0  0  0  0  0  0  0
   16.8250   31.5210   73.7510 N   0  0  0  0  0  0  0  0  0  0  0  0
   17.3680   32.1800   72.6970 C   0  0  0  0  0  0  0  0  0  0  0  0
   18.6680   32.7910   72.7070 N   0  0  0  0  0  0  0  0  0  0  0  0
   19.8060   31.9940   72.2040 C   0  0  0  0  0  0  0  0  0  0  0  0
   20.5260   32.6920   71.0960 C   0  0  0  0  0  0  0  0  0  0  0  0
   20.3160   34.1200   71.1520 N   0  0  0  0  0  0  0  0  0  0  0  0
   20.1530   34.7180   72.4610 C   0  0  0  0  0  0  0  0  0  0  0  0
   18.9470   34.1080   73.1530 C   0  0  0  0  0  0  0  0  0  0  0  0
   20.2800   34.8990   69.9640 C   0  0  0  0  0  0  0  0  0  0  0  0
   20.5530   34.3810   68.8600 O   0  0  0  0  0  0  0  0  0  0  0  0
   19.9200   36.3370   69.9970 C   0  0  0  0  0  0  0  0  0  0  0  0
   21.0160   37.0580   70.7770 C   0  0  0  0  0  0  0  0  0  0  0  0
   14.6170   30.4620   74.1170 N   0  0  0  0  0  0  0  0  0  0  0  0
   13.4320   30.2090   73.5500 C   0  0  0  0  0  0  0  0  0  0  0  0
   12.5550   29.5810   74.2050 O   0  0  0  0  0  0  0  0  0  0  0  0
   13.1360   30.6000   72.3040 N   0  0  0  0  0  0  0  0  0  0  0  0
   14.0930   31.2730   71.6210 C   0  0  0  0  0  0  0  0  0  0  0  0
   13.8210   31.6420   70.4570 O   0  0  0  0  0  0  0  0  0  0  0  0
   14.8730   30.0120   75.4830 C   0  0  0  0  0  0  0  0  0  0  0  0
   13.9650   33.7320   69.9190 H   0  0  0  0  0  0  0  0  0  0  0  0
   17.9790   35.0210   70.8100 H   0  0  0  0  0  0  0  0  0  0  0  0
   17.2060   37.4050   70.6100 H   0  0  0  0  0  0  0  0  0  0  0  0
   14.8880   37.9080   70.0710 H   0  0  0  0  0  0  0  0  0  0  0  0
   17.5990   32.8040   70.1010 H   0  0  0  0  0  0  0  0  0  0  0  0
   15.9890   32.2500   69.6540 H   0  0  0  0  0  0  0  0  0  0  0  0
   20.4570   31.8010   73.0780 H   0  0  0  0  0  0  0  0  0  0  0  0
   19.4080   31.0390   71.7810 H   0  0  0  0  0  0  0  0  0  0  0  0
   21.6300   32.5220   71.2360 H   0  0  0  0  0  0  0  0  0  0  0  0
   20.2380   32.3150   70.0920 H   0  0  0  0  0  0  0  0  0  0  0  0
   21.0700   34.4370   73.0590 H   0  0  0  0  0  0  0  0  0  0  0  0
   20.1150   35.8110   72.4610 H   0  0  0  0  0  0  0  0  0  0  0  0
   18.0700   34.7550   72.9750 H   0  0  0  0  0  0  0  0  0  0  0  0
   19.1460   34.1390   74.2710 H   0  0  0  0  0  0  0  0  0  0  0  0
   19.8980   36.7580   68.9540 H   0  0  0  0  0  0  0  0  0  0  0  0
   18.9170   36.5150   70.4020 H   0  0  0  0  0  0  0  0  0  0  0  0
   21.7680   37.5320   70.1140 H   0  0  0  0  0  0  0  0  0  0  0  0
   21.5680   36.3700   71.4500 H   0  0  0  0  0  0  0  0  0  0  0  0
   20.5530   37.8320   71.4370 H   0  0  0  0  0  0  0  0  0  0  0  0
   12.1980   30.3820   71.9000 H   0  0  0  0  0  0  0  0  0  0  0  0
   14.3550   29.0450   75.6650 H   0  0  0  0  0  0  0  0  0  0  0  0
   14.4290   30.8010   76.1560 H   0  0  0  0  0  0  0  0  0  0  0  0
   15.9500   29.9710   75.6890 H   0  0  0  0  0  0  0  0  0  0  0  0
  1  2  1  0  0  0  0
  2  3  2  0  0  0  0
  2  7  1  0  0  0  0
  3  4  1  0  0  0  0
  4  8  1  0  0  0  0
  4  5  2  0  0  0  0
  5 32  1  0  0  0  0
  6  5  1  0  0  0  0
  6 33  1  0  0  0  0
  7  6  2  0  0  0  0
  8  9  1  0  0  0  0
  9 10  1  0  0  0  0
  9 13  1  0  0  0  0
 10 11  2  0  0  0  0
 11 12  1  0  0  0  0
 11 24  1  0  0  0  0
 13 14  1  0  0  0  0
 13 12  2  0  0  0  0
 14 19  1  0  0  0  0
 15 14  1  0  0  0  0
 15 37  1  0  0  0  0
 16 17  1  0  0  0  0
 16 39  1  0  0  0  0
 16 15  1  0  0  0  0
 17 18  1  0  0  0  0
 18 41  1  0  0  0  0
 18 19  1  0  0  0  0
 19 44  1  0  0  0  0
 20 22  1  0  0  0  0
 20 17  1  0  0  0  0
 21 20  2  0  0  0  0
 22 46  1  0  0  0  0
 22 23  1  0  0  0  0
 23 49  1  0  0  0  0
 23 48  1  0  0  0  0
 24 30  1  0  0  0  0
 25 24  1  0  0  0  0
 25 26  2  0  0  0  0
 27 25  1  0  0  0  0
 28 10  1  0  0  0  0
 28 27  1  0  0  0  0
 29 28  2  0  0  0  0
 30 51  1  0  0  0  0
 30 53  1  0  0  0  0
 30 52  1  0  0  0  0
 31  3  1  0  0  0  0
 34  7  1  0  0  0  0
 35  8  1  0  0  0  0
 36  8  1  0  0  0  0
 38 15  1  0  0  0  0
 40 16  1  0  0  0  0
 42 18  1  0  0  0  0
 43 19  1  0  0  0  0
 45 22  1  0  0  0  0
 47 23  1  0  0  0  0
 50 27  1  0  0  0  0
M  END
>  <Pose>
1

>  <Score>
-6.93

$$$$
