
 OpenBabel03212208413D

 53 56  0  0  1  0  0  0  0  0999 V2000
   13.1030   36.4360   69.1670 Cl  0  0  0  0  0  0  0  0  0  0  0  0
   13.9510   35.3410   70.2230 C   0  0  0  0  0  0  0  0  0  0  0  0
   13.2950   34.3700   70.9210 C   0  0  0  0  0  0  0  0  0  0  0  0
   14.0170   33.5250   71.7500 C   0  0  0  0  0  0  0  0  0  0  0  0
   15.3630   33.6100   71.9120 C   0  0  0  0  0  0  0  0  0  0  0  0
   16.0300   34.6040   71.1960 C   0  0  0  0  0  0  0  0  0  0  0  0
   15.3350   35.4550   70.3680 C   0  0  0  0  0  0  0  0  0  0  0  0
   16.1170   32.7250   72.7910 C   0  0  1  0  0  0  0  0  0  0  0  0
   15.5860   31.3530   72.6890 N   0  0  0  0  0  0  0  0  0  0  0  0
   16.2430   30.7020   71.6090 C   0  0  0  0  0  0  0  0  0  0  0  0
   15.8550   29.7120   70.9850 O   0  0  0  0  0  0  0  0  0  0  0  0
   17.5010   31.4310   71.3590 C   0  0  0  0  0  0  0  0  0  0  0  0
   18.3860   31.1850   70.4780 O   0  0  0  0  0  0  0  0  0  0  0  0
   17.5290   32.5090   72.3340 C   0  0  0  0  0  0  0  0  0  0  0  0
   18.6130   33.1560   72.6850 C   0  0  0  0  0  0  0  0  0  0  0  0
   18.4840   34.1970   73.5990 O   0  0  0  0  0  0  0  0  0  0  0  0
   19.9640   32.8850   72.2070 C   0  0  0  0  0  0  0  0  0  0  0  0
   20.5560   33.8830   71.4420 C   0  0  0  0  0  0  0  0  0  0  0  0
   21.8310   33.7090   70.9820 C   0  0  0  0  0  0  0  0  0  0  0  0
   22.5430   32.5590   71.2610 C   0  0  0  0  0  0  0  0  0  0  0  0
   21.9520   31.5720   72.0210 C   0  0  0  0  0  0  0  0  0  0  0  0
   20.6640   31.7600   72.4810 C   0  0  0  0  0  0  0  0  0  0  0  0
   24.1570   32.3830   70.6550 Cl  0  0  0  0  0  0  0  0  0  0  0  0
   14.5810   30.8670   73.5990 C   0  0  0  0  0  0  0  0  0  0  0  0
   14.6620   29.4290   73.9450 C   0  0  0  0  0  0  0  0  0  0  0  0
   13.4670   28.7260   74.2340 N   0  0  0  0  0  4  0  0  0  0  0  0
   12.3480   29.5790   74.5740 C   0  0  0  0  0  0  0  0  0  0  0  0
   11.7230   29.2560   75.9100 C   0  0  0  0  0  0  0  0  0  0  0  0
   11.4480   27.9290   76.1120 O   0  0  0  0  0  0  0  0  0  0  0  0
   12.4910   27.0880   75.7730 C   0  0  0  0  0  0  0  0  0  0  0  0
   13.7020   27.9070   75.4420 C   0  0  0  0  0  0  0  0  0  0  0  0
   12.2220   34.2860   70.8060 H   0  0  0  0  0  0  0  0  0  0  0  0
   13.4550   32.7770   72.2720 H   0  0  0  0  0  0  0  0  0  0  0  0
   17.1010   34.6840   71.3150 H   0  0  0  0  0  0  0  0  0  0  0  0
   15.8130   36.2330   69.8000 H   0  0  0  0  0  0  0  0  0  0  0  0
   16.0940   33.0430   73.8570 H   0  0  0  0  0  0  0  0  0  0  0  0
   19.9990   34.8060   71.2110 H   0  0  0  0  0  0  0  0  0  0  0  0
   22.2550   34.5180   70.3860 H   0  0  0  0  0  0  0  0  0  0  0  0
   22.5340   30.6830   72.2230 H   0  0  0  0  0  0  0  0  0  0  0  0
   20.2200   30.9720   73.0980 H   0  0  0  0  0  0  0  0  0  0  0  0
   13.5780   31.0250   73.0930 H   0  0  0  0  0  0  0  0  0  0  0  0
   14.4970   31.5250   74.5010 H   0  0  0  0  0  0  0  0  0  0  0  0
   15.2320   28.8690   73.1370 H   0  0  0  0  0  0  0  0  0  0  0  0
   15.3430   29.2590   74.8440 H   0  0  0  0  0  0  0  0  0  0  0  0
   13.2110   28.0310   73.5130 H   0  0  0  0  0  0  0  0  0  0  0  0
   11.5940   29.4960   73.7680 H   0  0  0  0  0  0  0  0  0  0  0  0
   12.6420   30.6480   74.6340 H   0  0  0  0  0  0  0  0  0  0  0  0
   10.7550   29.8250   75.9290 H   0  0  0  0  0  0  0  0  0  0  0  0
   12.3300   29.7050   76.7290 H   0  0  0  0  0  0  0  0  0  0  0  0
   12.7600   26.3940   76.5830 H   0  0  0  0  0  0  0  0  0  0  0  0
   12.2300   26.4950   74.8710 H   0  0  0  0  0  0  0  0  0  0  0  0
   13.9740   28.6050   76.2500 H   0  0  0  0  0  0  0  0  0  0  0  0
   14.5800   27.2380   75.2820 H   0  0  0  0  0  0  0  0  0  0  0  0
  1  2  1  0  0  0  0
  2  7  2  0  0  0  0
  2  3  1  0  0  0  0
  3  4  2  0  0  0  0
  4  5  1  0  0  0  0
  4 33  1  0  0  0  0
  5  8  1  0  0  0  0
  6 34  1  0  0  0  0
  6  5  2  0  0  0  0
  7  6  1  0  0  0  0
  8 36  1  1  0  0  0
  9  8  1  0  0  0  0
  9 24  1  0  0  0  0
 10  9  1  0  0  0  0
 11 10  2  0  0  0  0
 12 10  1  0  0  0  0
 12 14  1  0  0  0  0
 13 12  2  0  0  0  0
 14 15  2  0  0  0  0
 14  8  1  0  0  0  0
 15 16  1  0  0  0  0
 17 22  1  0  0  0  0
 17 15  1  0  0  0  0
 18 17  2  0  0  0  0
 19 20  2  0  0  0  0
 19 18  1  0  0  0  0
 20 21  1  0  0  0  0
 21 39  1  0  0  0  0
 21 22  2  0  0  0  0
 22 40  1  0  0  0  0
 23 20  1  0  0  0  0
 24 25  1  0  0  0  0
 24 42  1  0  0  0  0
 25 26  1  0  0  0  0
 25 44  1  0  0  0  0
 26 27  1  0  0  0  0
 26 31  1  0  0  0  0
 27 47  1  0  0  0  0
 27 28  1  0  0  0  0
 28 48  1  0  0  0  0
 28 29  1  0  0  0  0
 28 49  1  0  0  0  0
 30 29  1  0  0  0  0
 30 50  1  0  0  0  0
 31 30  1  0  0  0  0
 31 52  1  0  0  0  0
 32  3  1  0  0  0  0
 35  7  1  0  0  0  0
 37 18  1  0  0  0  0
 38 19  1  0  0  0  0
 41 24  1  0  0  0  0
 43 25  1  0  0  0  0
 45 26  1  0  0  0  0
 46 27  1  0  0  0  0
 51 30  1  0  0  0  0
 53 31  1  0  0  0  0
M  END
>  <Pose>
1

>  <Score>
-6.87

$$$$
