
 OpenBabel03212208413D

 60 64  0  0  1  0  0  0  0  0999 V2000
   24.1730   27.7600   71.9600 Cl  0  0  0  0  0  0  0  0  0  0  0  0
   23.2580   29.2750   71.9780 C   0  0  0  0  0  0  0  0  0  0  0  0
   23.4780   30.2000   72.9690 C   0  0  0  0  0  0  0  0  0  0  0  0
   22.7620   31.3890   72.9860 C   0  0  0  0  0  0  0  0  0  0  0  0
   21.8190   31.7110   72.0470 C   0  0  0  0  0  0  0  0  0  0  0  0
   21.6150   30.7480   71.0470 C   0  0  0  0  0  0  0  0  0  0  0  0
   22.3200   29.5640   71.0210 C   0  0  0  0  0  0  0  0  0  0  0  0
   21.2570   33.0160   72.3520 C   0  0  1  0  0  0  0  0  0  0  0  0
   21.5790   33.9110   71.2430 N   0  0  0  0  0  0  0  0  0  0  0  0
   20.3340   34.0080   70.5310 C   0  0  1  0  0  0  0  0  0  0  0  0
   19.3400   34.1750   71.6590 C   0  0  2  0  0  0  0  0  0  0  0  0
   19.7860   33.0610   72.5800 C   0  0  1  0  0  0  0  0  0  0  0  0
   19.0110   31.9100   72.1630 C   0  0  0  0  0  0  0  0  0  0  0  0
   19.2340   30.7130   72.4480 O   0  0  0  0  0  0  0  0  0  0  0  0
   17.9250   32.3480   71.3580 N   0  0  0  0  0  0  0  0  0  0  0  0
   17.9720   33.7720   71.2470 C   0  0  0  0  0  0  0  0  0  0  0  0
   17.0830   34.5780   70.8830 O   0  0  0  0  0  0  0  0  0  0  0  0
   16.8910   31.5580   70.7180 C   0  0  0  0  0  0  0  0  0  0  0  0
   15.8840   31.0740   71.6790 C   0  0  0  0  0  0  0  0  0  0  0  0
   14.6090   31.5940   71.5940 C   0  0  0  0  0  0  0  0  0  0  0  0
   13.6660   31.1350   72.5030 C   0  0  0  0  0  0  0  0  0  0  0  0
   13.9800   30.2010   73.4500 C   0  0  0  0  0  0  0  0  0  0  0  0
   15.2610   29.7070   73.5020 C   0  0  0  0  0  0  0  0  0  0  0  0
   16.2430   30.1230   72.6290 C   0  0  0  0  0  0  0  0  0  0  0  0
   14.3160   32.5350   70.6300 O   0  0  0  0  0  0  0  0  0  0  0  0
   13.4300   33.5970   70.7940 C   0  0  0  0  0  0  0  0  0  0  0  0
   20.3260   35.1900   69.5870 C   0  0  0  0  0  0  0  0  0  0  0  0
   19.9970   36.4110   70.4190 C   0  0  0  0  0  0  0  0  0  0  0  0
   21.2210   37.1400   70.8360 C   0  0  0  0  0  0  0  0  0  0  0  0
   22.1710   37.2780   70.0130 O   0  0  0  0  0  0  0  0  0  0  0  0
   21.2570   37.6510   72.1610 N   0  0  0  0  0  0  0  0  0  0  0  0
   21.9650   33.4650   73.5740 C   0  0  0  0  0  0  0  0  0  0  0  0
   21.8110   34.5520   74.2060 O   0  0  0  0  0  0  0  0  0  0  0  0
   22.8710   32.4450   73.9330 N   0  0  0  0  0  0  0  0  0  0  0  0
   24.4940   29.8960   74.0150 C   0  0  0  0  0  0  0  0  0  0  0  0
   20.8880   30.9340   70.2740 H   0  0  0  0  0  0  0  0  0  0  0  0
   22.1360   28.8420   70.2320 H   0  0  0  0  0  0  0  0  0  0  0  0
   22.3660   33.5140   70.6890 H   0  0  0  0  0  0  0  0  0  0  0  0
   20.0470   33.1320   69.9500 H   0  0  0  0  0  0  0  0  0  0  0  0
   19.3790   35.1670   72.1230 H   0  0  0  0  0  0  0  0  0  0  0  0
   19.5070   33.3130   73.6280 H   0  0  0  0  0  0  0  0  0  0  0  0
   16.3830   32.1450   69.9290 H   0  0  0  0  0  0  0  0  0  0  0  0
   17.4120   30.7230   70.1880 H   0  0  0  0  0  0  0  0  0  0  0  0
   12.6660   31.5350   72.4430 H   0  0  0  0  0  0  0  0  0  0  0  0
   13.2000   29.8680   74.1470 H   0  0  0  0  0  0  0  0  0  0  0  0
   15.5190   28.9690   74.2480 H   0  0  0  0  0  0  0  0  0  0  0  0
   17.2650   29.7240   72.6750 H   0  0  0  0  0  0  0  0  0  0  0  0
   13.3630   34.1350   69.8220 H   0  0  0  0  0  0  0  0  0  0  0  0
   13.8820   34.3200   71.5070 H   0  0  0  0  0  0  0  0  0  0  0  0
   12.4360   33.2410   71.1000 H   0  0  0  0  0  0  0  0  0  0  0  0
   19.6270   35.0550   68.7470 H   0  0  0  0  0  0  0  0  0  0  0  0
   21.3810   35.3240   69.2450 H   0  0  0  0  0  0  0  0  0  0  0  0
   19.2720   37.0910   69.9080 H   0  0  0  0  0  0  0  0  0  0  0  0
   19.4880   36.0510   71.3350 H   0  0  0  0  0  0  0  0  0  0  0  0
   20.5030   38.2930   72.4570 H   0  0  0  0  0  0  0  0  0  0  0  0
   22.0580   37.3440   72.7690 H   0  0  0  0  0  0  0  0  0  0  0  0
   23.5150   32.4790   74.7680 H   0  0  0  0  0  0  0  0  0  0  0  0
   24.0130   29.6100   74.9610 H   0  0  0  0  0  0  0  0  0  0  0  0
   25.1630   29.1000   73.6890 H   0  0  0  0  0  0  0  0  0  0  0  0
   25.1160   30.8060   74.2460 H   0  0  0  0  0  0  0  0  0  0  0  0
  1  2  1  0  0  0  0
  2  3  1  0  0  0  0
  3  4  2  0  0  0  0
  3 35  1  0  0  0  0
  4 34  1  0  0  0  0
  5  4  1  0  0  0  0
  6  5  2  0  0  0  0
  7  6  1  0  0  0  0
  7  2  2  0  0  0  0
  8  5  1  6  0  0  0
  8 12  1  0  0  0  0
  8 32  1  0  0  0  0
  9  8  1  0  0  0  0
 10 39  1  6  0  0  0
 10  9  1  0  0  0  0
 10 11  1  0  0  0  0
 11 40  1  1  0  0  0
 11 12  1  0  0  0  0
 12 41  1  1  0  0  0
 13 14  2  0  0  0  0
 13 12  1  0  0  0  0
 15 13  1  0  0  0  0
 16 15  1  0  0  0  0
 16 11  1  0  0  0  0
 17 16  2  0  0  0  0
 18 15  1  0  0  0  0
 18 19  1  0  0  0  0
 19 24  1  0  0  0  0
 20 19  2  0  0  0  0
 20 21  1  0  0  0  0
 21 22  2  0  0  0  0
 22 23  1  0  0  0  0
 22 45  1  0  0  0  0
 23 46  1  0  0  0  0
 24 47  1  0  0  0  0
 24 23  2  0  0  0  0
 25 26  1  0  0  0  0
 25 20  1  0  0  0  0
 26 50  1  0  0  0  0
 26 49  1  0  0  0  0
 27 28  1  0  0  0  0
 27 10  1  0  0  0  0
 28 29  1  0  0  0  0
 28 54  1  0  0  0  0
 29 31  1  0  0  0  0
 30 29  2  0  0  0  0
 31 55  1  0  0  0  0
 31 56  1  0  0  0  0
 32 34  1  0  0  0  0
 32 33  2  0  0  0  0
 34 57  1  0  0  0  0
 35 60  1  0  0  0  0
 35 58  1  0  0  0  0
 36  6  1  0  0  0  0
 37  7  1  0  0  0  0
 38  9  1  0  0  0  0
 42 18  1  0  0  0  0
 43 18  1  0  0  0  0
 44 21  1  0  0  0  0
 48 26  1  0  0  0  0
 51 27  1  0  0  0  0
 52 27  1  0  0  0  0
 53 28  1  0  0  0  0
 59 35  1  0  0  0  0
M  END
>  <Pose>
1

>  <Score>
-5.69

$$$$
