
 OpenBabel03212208413D

 42 45  0  0  1  0  0  0  0  0999 V2000
   14.8340   36.3830   69.7680 Cl  0  0  0  0  0  0  0  0  0  0  0  0
   14.4510   34.8860   70.5890 C   0  0  0  0  0  0  0  0  0  0  0  0
   15.3730   34.2110   71.3530 C   0  0  0  0  0  0  0  0  0  0  0  0
   15.0980   33.0200   72.0140 C   0  0  0  0  0  0  0  0  0  0  0  0
   13.8110   32.5100   71.8760 C   0  0  0  0  0  0  0  0  0  0  0  0
   12.8680   33.1660   71.1170 C   0  0  0  0  0  0  0  0  0  0  0  0
   13.1890   34.3460   70.4790 C   0  0  0  0  0  0  0  0  0  0  0  0
   16.1260   32.3250   72.8280 C   0  0  1  0  0  0  0  0  0  0  0  0
   15.9910   30.8960   72.8360 N   0  0  0  0  0  0  0  0  0  0  0  0
   16.8530   30.3050   71.8680 C   0  0  0  0  0  0  0  0  0  0  0  0
   16.8020   29.1260   71.4120 O   0  0  0  0  0  0  0  0  0  0  0  0
   17.8460   31.3250   71.4730 C   0  0  0  0  0  0  0  0  0  0  0  0
   18.7600   31.1540   70.6350 O   0  0  0  0  0  0  0  0  0  0  0  0
   17.5060   32.5060   72.2570 C   0  0  0  0  0  0  0  0  0  0  0  0
   18.2940   33.5520   72.3870 C   0  0  0  0  0  0  0  0  0  0  0  0
   17.7980   34.6370   73.1380 O   0  0  0  0  0  0  0  0  0  0  0  0
   19.6290   33.6540   71.8140 C   0  0  0  0  0  0  0  0  0  0  0  0
   19.9590   34.7640   71.0220 C   0  0  0  0  0  0  0  0  0  0  0  0
   21.2220   34.9010   70.4910 C   0  0  0  0  0  0  0  0  0  0  0  0
   22.2180   33.9710   70.7070 C   0  0  0  0  0  0  0  0  0  0  0  0
   21.9150   32.8750   71.4830 C   0  0  0  0  0  0  0  0  0  0  0  0
   20.6340   32.7370   72.0190 C   0  0  0  0  0  0  0  0  0  0  0  0
   15.1260   30.1620   73.6750 C   0  0  1  0  0  0  0  0  0  0  0  0
   15.6250   29.8240   74.8940 N   0  0  0  0  0  0  0  0  0  0  0  0
   14.9080   29.1320   75.7780 C   0  0  0  0  0  0  0  0  0  0  0  0
   13.6290   28.7610   75.4290 C   0  0  0  0  0  0  0  0  0  0  0  0
   13.1440   29.1160   74.1870 C   0  0  0  0  0  0  0  0  0  0  0  0
   13.8760   29.8130   73.3010 N   0  0  0  0  0  0  0  0  0  0  0  0
   16.3570   34.6530   71.4210 H   0  0  0  0  0  0  0  0  0  0  0  0
   13.5810   31.5790   72.3840 H   0  0  0  0  0  0  0  0  0  0  0  0
   11.8510   32.7600   71.0090 H   0  0  0  0  0  0  0  0  0  0  0  0
   12.4410   34.8540   69.8870 H   0  0  0  0  0  0  0  0  0  0  0  0
   16.0600   32.7440   73.8550 H   0  0  0  0  0  0  0  0  0  0  0  0
   19.1700   35.4930   70.8570 H   0  0  0  0  0  0  0  0  0  0  0  0
   21.4300   35.7730   69.8860 H   0  0  0  0  0  0  0  0  0  0  0  0
   23.2160   34.0600   70.3030 H   0  0  0  0  0  0  0  0  0  0  0  0
   22.6890   32.1210   71.6670 H   0  0  0  0  0  0  0  0  0  0  0  0
   20.4410   31.8630   72.6480 H   0  0  0  0  0  0  0  0  0  0  0  0
   16.6040   30.1080   75.1730 H   0  0  0  0  0  0  0  0  0  0  0  0
   15.3430   28.8820   76.7370 H   0  0  0  0  0  0  0  0  0  0  0  0
   13.0380   28.1990   76.1390 H   0  0  0  0  0  0  0  0  0  0  0  0
   12.1340   28.8020   73.9610 H   0  0  0  0  0  0  0  0  0  0  0  0
  1  2  1  0  0  0  0
  2  3  1  0  0  0  0
  3 29  1  0  0  0  0
  3  4  2  0  0  0  0
  4  8  1  0  0  0  0
  5  4  1  0  0  0  0
  5 30  1  0  0  0  0
  6  5  2  0  0  0  0
  7  2  2  0  0  0  0
  7  6  1  0  0  0  0
  8  9  1  0  0  0  0
  8 33  1  1  0  0  0
 10  9  1  0  0  0  0
 11 10  2  0  0  0  0
 12 10  1  0  0  0  0
 12 14  1  0  0  0  0
 13 12  2  0  0  0  0
 14 15  2  0  0  0  0
 14  8  1  0  0  0  0
 15 16  1  0  0  0  0
 17 22  1  0  0  0  0
 17 15  1  0  0  0  0
 18 17  2  0  0  0  0
 19 20  2  0  0  0  0
 19 18  1  0  0  0  0
 20 21  1  0  0  0  0
 21 37  1  0  0  0  0
 21 22  2  0  0  0  0
 22 38  1  0  0  0  0
 23  9  1  1  0  0  0
 23 24  1  0  0  0  0
 24 39  1  0  0  0  0
 24 25  1  0  0  0  0
 25 40  1  0  0  0  0
 26 25  2  0  0  0  0
 26 41  1  0  0  0  0
 27 26  1  0  0  0  0
 28 23  1  0  0  0  0
 28 27  2  0  0  0  0
 31  6  1  0  0  0  0
 32  7  1  0  0  0  0
 34 18  1  0  0  0  0
 35 19  1  0  0  0  0
 36 20  1  0  0  0  0
 42 27  1  0  0  0  0
M  END
>  <Pose>
1

>  <Score>
-6.74

$$$$
