
 OpenBabel03212208413D

 44 47  0  0  0  0  0  0  0  0999 V2000
   23.3800   36.0430   68.5940 S   0  0  0  0  0  0  0  0  0  0  0  0
   24.0720   35.4260   67.4840 O   0  0  0  0  0  0  0  0  0  0  0  0
   24.2680   36.9730   69.3640 O   0  0  0  0  0  0  0  0  0  0  0  0
   21.9270   36.9920   68.0800 C   0  0  0  0  0  0  0  0  0  0  0  0
   22.7720   34.8510   69.7590 C   0  0  0  0  0  0  0  0  0  0  0  0
   21.8270   35.2340   70.6240 N   0  0  0  0  0  0  0  0  0  0  0  0
   21.2360   34.4250   71.4980 C   0  0  0  0  0  0  0  0  0  0  0  0
   21.6350   33.0790   71.4930 C   0  0  0  0  0  0  0  0  0  0  0  0
   22.5890   32.6970   70.6180 C   0  0  0  0  0  0  0  0  0  0  0  0
   23.1560   33.5880   69.7560 N   0  0  0  0  0  0  0  0  0  0  0  0
   22.9950   31.3710   70.6190 O   0  0  0  0  0  0  0  0  0  0  0  0
   20.8580   32.2000   72.3710 C   0  0  0  0  0  0  0  0  0  0  0  0
   19.4860   32.4670   72.0660 N   0  0  0  0  0  0  0  0  0  0  0  0
   19.2170   33.7560   72.8460 C   0  0  0  0  0  0  0  0  0  0  0  0
   20.1710   34.8290   72.4540 C   0  0  0  0  0  0  0  0  0  0  0  0
   19.1760   32.9430   70.6700 C   0  0  0  0  0  0  0  0  0  0  0  0
   17.6510   33.0280   70.7800 C   0  0  0  0  0  0  0  0  0  0  0  0
   16.9190   34.1480   70.6950 C   0  0  0  0  0  0  0  0  0  0  0  0
   15.5020   34.1790   70.8010 C   0  0  0  0  0  0  0  0  0  0  0  0
   14.9100   32.9280   70.9980 C   0  0  0  0  0  0  0  0  0  0  0  0
   13.5510   32.8950   71.1070 C   0  0  0  0  0  0  0  0  0  0  0  0
   12.7190   34.0340   71.0340 C   0  0  0  0  0  0  0  0  0  0  0  0
   13.3610   35.2690   70.8280 C   0  0  0  0  0  0  0  0  0  0  0  0
   14.7230   35.2830   70.7240 C   0  0  0  0  0  0  0  0  0  0  0  0
   15.6050   31.8450   71.0690 O   0  0  0  0  0  0  0  0  0  0  0  0
   16.9430   31.8440   70.9700 C   0  0  0  0  0  0  0  0  0  0  0  0
   17.6250   30.7520   71.0550 O   0  0  0  0  0  0  0  0  0  0  0  0
   17.7380   35.6400   70.3800 Cl  0  0  0  0  0  0  0  0  0  0  0  0
   21.2720   37.1170   69.0140 H   0  0  0  0  0  0  0  0  0  0  0  0
   21.3280   36.3450   67.3760 H   0  0  0  0  0  0  0  0  0  0  0  0
   22.1940   37.9480   67.6240 H   0  0  0  0  0  0  0  0  0  0  0  0
   22.3880   30.5880   70.3570 H   0  0  0  0  0  0  0  0  0  0  0  0
   21.1710   31.1310   72.3860 H   0  0  0  0  0  0  0  0  0  0  0  0
   21.0150   32.6030   73.4550 H   0  0  0  0  0  0  0  0  0  0  0  0
   18.1340   33.9990   72.6100 H   0  0  0  0  0  0  0  0  0  0  0  0
   19.3100   33.4490   73.8830 H   0  0  0  0  0  0  0  0  0  0  0  0
   19.5230   35.6300   71.9630 H   0  0  0  0  0  0  0  0  0  0  0  0
   20.5860   35.2970   73.3480 H   0  0  0  0  0  0  0  0  0  0  0  0
   19.5770   33.9160   70.4670 H   0  0  0  0  0  0  0  0  0  0  0  0
   19.4530   32.1140   70.0120 H   0  0  0  0  0  0  0  0  0  0  0  0
   12.9910   31.9680   71.2240 H   0  0  0  0  0  0  0  0  0  0  0  0
   11.6180   33.9680   71.1430 H   0  0  0  0  0  0  0  0  0  0  0  0
   12.7300   36.0990   70.7450 H   0  0  0  0  0  0  0  0  0  0  0  0
   15.2600   36.2420   70.6450 H   0  0  0  0  0  0  0  0  0  0  0  0
  1  3  2  0  0  0  0
  1  5  1  0  0  0  0
  2  1  2  0  0  0  0
  4  1  1  0  0  0  0
  4 29  1  0  0  0  0
  5  6  2  0  0  0  0
  6  7  1  0  0  0  0
  7 15  1  0  0  0  0
  8  7  2  0  0  0  0
  8 12  1  0  0  0  0
  9 11  1  0  0  0  0
  9  8  1  0  0  0  0
 10  5  1  0  0  0  0
 10  9  2  0  0  0  0
 12 33  1  0  0  0  0
 12 34  1  0  0  0  0
 13 12  1  0  0  0  0
 13 14  1  0  0  0  0
 14 36  1  0  0  0  0
 15 14  1  0  0  0  0
 15 38  1  0  0  0  0
 16 17  1  0  0  0  0
 16 13  1  0  0  0  0
 17 26  1  0  0  0  0
 18 17  2  0  0  0  0
 18 19  1  0  0  0  0
 19 20  1  0  0  0  0
 20 25  1  0  0  0  0
 20 21  2  0  0  0  0
 21 41  1  0  0  0  0
 22 21  1  0  0  0  0
 22 42  1  0  0  0  0
 23 22  2  0  0  0  0
 24 19  2  0  0  0  0
 24 23  1  0  0  0  0
 26 27  2  0  0  0  0
 26 25  1  0  0  0  0
 28 18  1  0  0  0  0
 30  4  1  0  0  0  0
 31  4  1  0  0  0  0
 32 11  1  0  0  0  0
 35 14  1  0  0  0  0
 37 15  1  0  0  0  0
 39 16  1  0  0  0  0
 40 16  1  0  0  0  0
 43 23  1  0  0  0  0
 44 24  1  0  0  0  0
M  END
>  <Pose>
1

>  <Score>
-5.95

$$$$
