
 OpenBabel03212208413D

 32 35  0  0  1  0  0  0  0  0999 V2000
   13.5520   30.7780   72.0100 Cl  0  0  0  0  0  0  0  0  0  0  0  0
   14.4290   32.2200   71.4890 C   0  0  0  0  0  0  0  0  0  0  0  0
   15.7670   32.3860   71.7530 C   0  0  0  0  0  0  0  0  0  0  0  0
   16.4410   33.5410   71.3280 C   0  0  0  0  0  0  0  0  0  0  0  0
   15.7960   34.5320   70.6430 C   0  0  0  0  0  0  0  0  0  0  0  0
   14.4260   34.3690   70.3680 C   0  0  0  0  0  0  0  0  0  0  0  0
   13.7970   33.2270   70.7990 C   0  0  0  0  0  0  0  0  0  0  0  0
   16.6620   35.6050   70.3110 N   0  0  0  0  0  0  0  0  0  0  0  0
   17.9380   35.2640   70.8240 C   0  0  0  0  0  0  0  0  0  0  0  0
   18.9620   35.9980   70.7090 O   0  0  0  0  0  0  0  0  0  0  0  0
   17.8590   33.9450   71.4890 C   0  0  1  0  0  0  0  0  0  0  0  0
   18.2110   34.1690   72.9450 C   0  0  0  0  0  0  0  0  0  0  0  0
   19.6850   34.4570   72.9510 C   0  0  0  0  0  0  0  0  0  0  0  0
   20.1800   35.4710   73.4770 O   0  0  0  0  0  0  0  0  0  0  0  0
   20.5200   33.4880   72.3050 N   0  0  0  0  0  0  0  0  0  0  0  0
   19.9980   32.7240   71.2260 C   0  0  0  0  0  0  0  0  0  0  0  0
   20.5300   31.7490   70.4400 N   0  0  0  0  0  0  0  0  0  0  0  0
   19.6110   31.3650   69.5860 N   0  0  0  0  0  0  0  0  0  0  0  0
   18.4700   32.0480   69.7670 C   0  0  0  0  0  0  0  0  0  0  0  0
   18.7030   32.9350   70.8260 C   0  0  0  0  0  0  0  0  0  0  0  0
   16.2890   36.8200   69.5800 C   0  0  0  0  0  0  0  0  0  0  0  0
   16.3060   31.6430   72.2820 H   0  0  0  0  0  0  0  0  0  0  0  0
   13.9190   35.1560   69.8260 H   0  0  0  0  0  0  0  0  0  0  0  0
   12.7330   33.1110   70.5800 H   0  0  0  0  0  0  0  0  0  0  0  0
   17.9660   33.3270   73.5930 H   0  0  0  0  0  0  0  0  0  0  0  0
   17.7180   35.1150   73.2460 H   0  0  0  0  0  0  0  0  0  0  0  0
   21.5050   33.3340   72.6150 H   0  0  0  0  0  0  0  0  0  0  0  0
   21.5120   31.4050   70.5460 H   0  0  0  0  0  0  0  0  0  0  0  0
   17.5320   31.9830   69.2450 H   0  0  0  0  0  0  0  0  0  0  0  0
   17.1650   37.4990   69.6160 H   0  0  0  0  0  0  0  0  0  0  0  0
   15.9500   36.6040   68.5610 H   0  0  0  0  0  0  0  0  0  0  0  0
   15.4320   37.3410   70.0930 H   0  0  0  0  0  0  0  0  0  0  0  0
  2  3  1  0  0  0  0
  2  1  1  0  0  0  0
  3 22  1  0  0  0  0
  4 11  1  0  0  0  0
  4  3  2  0  0  0  0
  5  4  1  0  0  0  0
  6  5  2  0  0  0  0
  6  7  1  0  0  0  0
  7  2  2  0  0  0  0
  8  5  1  0  0  0  0
  8  9  1  0  0  0  0
 10  9  2  0  0  0  0
 11  9  1  6  0  0  0
 11 12  1  0  0  0  0
 12 13  1  0  0  0  0
 12 26  1  0  0  0  0
 12 25  1  0  0  0  0
 13 14  2  0  0  0  0
 15 27  1  0  0  0  0
 15 13  1  0  0  0  0
 16 15  1  0  0  0  0
 17 28  1  0  0  0  0
 17 16  1  0  0  0  0
 18 19  2  0  0  0  0
 18 17  1  0  0  0  0
 19 20  1  0  0  0  0
 20 16  2  0  0  0  0
 20 11  1  0  0  0  0
 21 30  1  0  0  0  0
 21 32  1  0  0  0  0
 21  8  1  0  0  0  0
 23  6  1  0  0  0  0
 24  7  1  0  0  0  0
 29 19  1  0  0  0  0
 31 21  1  0  0  0  0
M  END
>  <Pose>
1

>  <Score>
-4.97

$$$$
