
 OpenBabel03212208413D

 52 55  0  0  0  0  0  0  0  0999 V2000
   22.1140   40.6870   65.3150 Cl  0  0  0  0  0  0  0  0  0  0  0  0
   22.1850   39.1090   66.0310 C   0  0  0  0  0  0  0  0  0  0  0  0
   21.1050   38.4730   66.6010 C   0  0  0  0  0  0  0  0  0  0  0  0
   21.1820   37.2140   67.1620 C   0  0  0  0  0  0  0  0  0  0  0  0
   22.3700   36.5300   67.1740 C   0  0  0  0  0  0  0  0  0  0  0  0
   23.4480   37.1810   66.5980 C   0  0  0  0  0  0  0  0  0  0  0  0
   23.3930   38.4360   66.0330 C   0  0  0  0  0  0  0  0  0  0  0  0
   22.5570   35.2230   67.6930 N   0  0  0  0  0  0  0  0  0  0  0  0
   23.1960   34.2320   67.1330 N   0  0  0  0  0  0  0  0  0  0  0  0
   23.1760   33.1200   67.8760 C   0  0  0  0  0  0  0  0  0  0  0  0
   22.4550   33.4220   69.0240 C   0  0  0  0  0  0  0  0  0  0  0  0
   22.0840   34.7540   68.8700 C   0  0  0  0  0  0  0  0  0  0  0  0
   21.3730   35.2880   69.8660 N   0  0  0  0  0  0  0  0  0  0  0  0
   21.0330   34.5720   70.9600 C   0  0  0  0  0  0  0  0  0  0  0  0
   21.3760   33.2860   71.1360 N   0  0  0  0  0  0  0  0  0  0  0  0
   22.1020   32.7070   70.1450 C   0  0  0  0  0  0  0  0  0  0  0  0
   22.4470   31.5060   70.2660 O   0  0  0  0  0  0  0  0  0  0  0  0
   20.9980   32.5000   72.3150 C   0  0  0  0  0  0  0  0  0  0  0  0
   19.5870   32.0770   72.2680 C   0  0  0  0  0  0  0  0  0  0  0  0
   19.4070   30.8100   72.3340 O   0  0  0  0  0  0  0  0  0  0  0  0
   18.4660   32.8980   72.1650 N   0  0  0  0  0  0  0  0  0  0  0  0
   17.6920   33.2800   73.3570 C   0  0  0  0  0  0  0  0  0  0  0  0
   16.3230   32.6200   73.1410 C   0  0  0  0  0  0  0  0  0  0  0  0
   15.7970   32.9700   71.8480 N   0  0  0  0  0  0  0  0  0  0  0  0
   16.5690   33.8940   71.0390 C   0  0  0  0  0  0  0  0  0  0  0  0
   18.0050   33.4530   70.9120 C   0  0  0  0  0  0  0  0  0  0  0  0
   14.5880   32.4170   71.3710 C   0  0  0  0  0  0  0  0  0  0  0  0
   14.3200   31.2030   71.7040 O   0  0  0  0  0  0  0  0  0  0  0  0
   13.6580   33.0530   70.5800 O   0  0  0  0  0  0  0  0  0  0  0  0
   12.9840   34.2390   71.0420 C   0  0  0  0  0  0  0  0  0  0  0  0
   12.7020   35.0740   69.8060 C   0  0  0  0  0  0  0  0  0  0  0  0
   20.1620   39.0460   66.5720 H   0  0  0  0  0  0  0  0  0  0  0  0
   20.3140   36.7540   67.5990 H   0  0  0  0  0  0  0  0  0  0  0  0
   24.4170   36.6520   66.5980 H   0  0  0  0  0  0  0  0  0  0  0  0
   24.3030   38.8500   65.6080 H   0  0  0  0  0  0  0  0  0  0  0  0
   23.5920   32.1410   67.7170 H   0  0  0  0  0  0  0  0  0  0  0  0
   20.4460   35.0320   71.7650 H   0  0  0  0  0  0  0  0  0  0  0  0
   21.1120   33.1430   73.2420 H   0  0  0  0  0  0  0  0  0  0  0  0
   21.7030   31.6570   72.3810 H   0  0  0  0  0  0  0  0  0  0  0  0
   17.6090   34.3710   73.4480 H   0  0  0  0  0  0  0  0  0  0  0  0
   18.1520   32.7970   74.2170 H   0  0  0  0  0  0  0  0  0  0  0  0
   15.6890   32.8980   73.9960 H   0  0  0  0  0  0  0  0  0  0  0  0
   16.4750   31.5010   73.2070 H   0  0  0  0  0  0  0  0  0  0  0  0
   16.4690   34.8870   71.4980 H   0  0  0  0  0  0  0  0  0  0  0  0
   16.1230   33.8950   70.0070 H   0  0  0  0  0  0  0  0  0  0  0  0
   18.5920   34.4140   70.7790 H   0  0  0  0  0  0  0  0  0  0  0  0
   18.2000   32.7830   70.0600 H   0  0  0  0  0  0  0  0  0  0  0  0
   11.9860   33.9310   71.4890 H   0  0  0  0  0  0  0  0  0  0  0  0
   13.5390   34.8140   71.7630 H   0  0  0  0  0  0  0  0  0  0  0  0
   11.6890   35.4800   69.7550 H   0  0  0  0  0  0  0  0  0  0  0  0
   13.5100   35.8660   69.7760 H   0  0  0  0  0  0  0  0  0  0  0  0
   12.8720   34.4500   68.9200 H   0  0  0  0  0  0  0  0  0  0  0  0
  1  2  1  0  0  0  0
  2  7  2  0  0  0  0
  2  3  1  0  0  0  0
  3  4  2  0  0  0  0
  4  5  1  0  0  0  0
  4 33  1  0  0  0  0
  5  8  1  0  0  0  0
  6 34  1  0  0  0  0
  6  5  2  0  0  0  0
  7  6  1  0  0  0  0
  8 12  1  0  0  0  0
  9  8  1  0  0  0  0
  9 10  2  0  0  0  0
 10 11  1  0  0  0  0
 11 16  1  0  0  0  0
 12 11  2  0  0  0  0
 12 13  1  0  0  0  0
 13 14  2  0  0  0  0
 14 15  1  0  0  0  0
 14 37  1  0  0  0  0
 15 18  1  0  0  0  0
 16 17  2  0  0  0  0
 16 15  1  0  0  0  0
 18 39  1  0  0  0  0
 18 38  1  0  0  0  0
 19 18  1  0  0  0  0
 19 20  2  0  0  0  0
 21 19  1  0  0  0  0
 21 22  1  0  0  0  0
 22 40  1  0  0  0  0
 22 41  1  0  0  0  0
 23 43  1  0  0  0  0
 23 22  1  0  0  0  0
 23 42  1  0  0  0  0
 24 23  1  0  0  0  0
 25 44  1  0  0  0  0
 25 24  1  0  0  0  0
 26 25  1  0  0  0  0
 26 21  1  0  0  0  0
 27 28  2  0  0  0  0
 27 24  1  0  0  0  0
 29 30  1  0  0  0  0
 29 27  1  0  0  0  0
 30 48  1  0  0  0  0
 30 49  1  0  0  0  0
 31 30  1  0  0  0  0
 32  3  1  0  0  0  0
 35  7  1  0  0  0  0
 36 10  1  0  0  0  0
 45 25  1  0  0  0  0
 46 26  1  0  0  0  0
 47 26  1  0  0  0  0
 50 31  1  0  0  0  0
 51 31  1  0  0  0  0
 52 31  1  0  0  0  0
M  END
>  <Pose>
1

>  <Score>
-6.11

$$$$
