
 OpenBabel03212208413D

 54 58  0  0  1  0  0  0  0  0999 V2000
   17.1000   32.1550   72.8130 S   0  0  0  0  0  0  0  0  0  0  0  0
   16.4570   31.2200   73.8300 O   0  0  0  0  0  0  0  0  0  0  0  0
   17.8950   33.1370   73.6740 O   0  0  0  0  0  0  0  0  0  0  0  0
   18.2010   31.2610   71.9140 N   0  0  0  0  0  0  0  0  0  0  0  0
   18.7720   31.9070   70.7610 C   0  0  0  0  0  0  0  0  0  0  0  0
   20.2690   31.7090   70.6950 C   0  0  0  0  0  0  0  0  0  0  0  0
   20.8960   32.1550   71.9640 N   0  0  0  0  0  0  0  0  0  0  0  0
   20.4090   31.2830   73.0230 C   0  0  0  0  0  0  0  0  0  0  0  0
   19.1760   30.4920   72.6240 C   0  0  0  0  0  0  0  0  0  0  0  0
   22.3080   31.9160   71.7510 C   0  0  0  0  0  0  0  0  0  0  0  0
   23.1020   32.9890   71.1370 C   0  0  0  0  0  0  0  0  0  0  0  0
   22.5290   33.8030   70.1200 N   0  0  0  0  0  0  0  0  0  0  0  0
   22.6580   33.7490   68.7040 C   0  0  0  0  0  0  0  0  0  0  0  0
   23.6220   33.2700   68.0900 O   0  0  0  0  0  0  0  0  0  0  0  0
   21.4540   34.3610   68.0910 C   0  0  1  0  0  0  0  0  0  0  0  0
   21.0760   35.3860   69.1840 C   0  0  2  0  0  0  0  0  0  0  0  0
   21.6240   36.6830   68.7200 C   0  0  1  0  0  0  0  0  0  0  0  0
   22.7530   36.2380   67.7750 C   0  0  0  0  0  0  0  0  0  0  0  0
   21.8470   35.2760   66.9870 C   0  0  2  0  0  0  0  0  0  0  0  0
   20.6820   36.1930   66.7520 C   0  0  0  0  0  0  0  0  0  0  0  0
   20.6810   37.1820   67.6450 C   0  0  0  0  0  0  0  0  0  0  0  0
   21.6070   34.8690   70.4370 C   0  0  0  0  0  0  0  0  0  0  0  0
   21.2960   35.2990   71.5760 O   0  0  0  0  0  0  0  0  0  0  0  0
   15.9280   33.0670   71.9500 C   0  0  0  0  0  0  0  0  0  0  0  0
   16.2170   34.3290   71.4910 C   0  0  0  0  0  0  0  0  0  0  0  0
   15.2510   35.0290   70.7910 C   0  0  0  0  0  0  0  0  0  0  0  0
   13.9960   34.5090   70.5330 C   0  0  0  0  0  0  0  0  0  0  0  0
   13.7110   33.2420   70.9960 C   0  0  0  0  0  0  0  0  0  0  0  0
   14.6820   32.5380   71.7000 C   0  0  0  0  0  0  0  0  0  0  0  0
   12.6630   35.4740   69.5700 B   0  0  0  0  0  0  0  0  0  0  0  0
   18.3540   31.4020   69.8590 H   0  0  0  0  0  0  0  0  0  0  0  0
   18.4900   32.9580   70.7170 H   0  0  0  0  0  0  0  0  0  0  0  0
   20.6760   32.3660   69.9060 H   0  0  0  0  0  0  0  0  0  0  0  0
   20.5720   30.6690   70.4750 H   0  0  0  0  0  0  0  0  0  0  0  0
   20.0760   31.9120   73.8640 H   0  0  0  0  0  0  0  0  0  0  0  0
   21.2400   30.6170   73.3160 H   0  0  0  0  0  0  0  0  0  0  0  0
   18.7130   29.9940   73.4750 H   0  0  0  0  0  0  0  0  0  0  0  0
   19.5240   29.6950   71.9290 H   0  0  0  0  0  0  0  0  0  0  0  0
   22.4230   31.0090   71.0740 H   0  0  0  0  0  0  0  0  0  0  0  0
   22.7600   31.5290   72.7190 H   0  0  0  0  0  0  0  0  0  0  0  0
   23.4000   33.6870   71.9890 H   0  0  0  0  0  0  0  0  0  0  0  0
   24.0830   32.5390   70.8120 H   0  0  0  0  0  0  0  0  0  0  0  0
   20.6550   33.6570   67.8820 H   0  0  0  0  0  0  0  0  0  0  0  0
   19.9530   35.4890   69.2090 H   0  0  0  0  0  0  0  0  0  0  0  0
   21.9170   37.4070   69.4410 H   0  0  0  0  0  0  0  0  0  0  0  0
   23.1100   37.0540   67.1370 H   0  0  0  0  0  0  0  0  0  0  0  0
   23.5290   35.6620   68.2710 H   0  0  0  0  0  0  0  0  0  0  0  0
   22.2860   34.8650   66.1110 H   0  0  0  0  0  0  0  0  0  0  0  0
   19.9220   36.1090   65.9820 H   0  0  0  0  0  0  0  0  0  0  0  0
   20.1410   38.1100   67.6100 H   0  0  0  0  0  0  0  0  0  0  0  0
   17.2000   34.7950   71.6640 H   0  0  0  0  0  0  0  0  0  0  0  0
   15.4830   36.0300   70.4270 H   0  0  0  0  0  0  0  0  0  0  0  0
   12.7280   32.8480   70.7890 H   0  0  0  0  0  0  0  0  0  0  0  0
   14.3750   31.5530   72.0230 H   0  0  0  0  0  0  0  0  0  0  0  0
  1  3  2  0  0  0  0
  1  2  2  0  0  0  0
  4  9  1  0  0  0  0
  4  1  1  0  0  0  0
  5  4  1  0  0  0  0
  6  5  1  0  0  0  0
  6  7  1  0  0  0  0
  7  8  1  0  0  0  0
  8 36  1  0  0  0  0
  8 35  1  0  0  0  0
  9  8  1  0  0  0  0
  9 37  1  0  0  0  0
 10  7  1  0  0  0  0
 10 40  1  0  0  0  0
 11 10  1  0  0  0  0
 11 41  1  0  0  0  0
 12 22  1  0  0  0  0
 12 11  1  0  0  0  0
 13 12  1  0  0  0  0
 14 13  2  0  0  0  0
 15 43  1  6  0  0  0
 15 13  1  0  0  0  0
 15 16  1  0  0  0  0
 16 44  1  1  0  0  0
 16 22  1  0  0  0  0
 17 16  1  0  0  0  0
 17 45  1  1  0  0  0
 18 47  1  0  0  0  0
 18 17  1  0  0  0  0
 19 48  1  6  0  0  0
 19 18  1  0  0  0  0
 19 15  1  0  0  0  0
 20 19  1  0  0  0  0
 20 21  1  0  0  0  0
 21 17  1  0  0  0  0
 22 23  2  0  0  0  0
 24  1  1  0  0  0  0
 25 51  1  0  0  0  0
 25 24  2  0  0  0  0
 26 25  1  0  0  0  0
 27 26  2  0  0  0  0
 27 28  1  0  0  0  0
 28 29  2  0  0  0  0
 29 24  1  0  0  0  0
 29 54  1  0  0  0  0
 30 27  1  0  0  0  0
 31  5  1  0  0  0  0
 32  5  1  0  0  0  0
 33  6  1  0  0  0  0
 34  6  1  0  0  0  0
 38  9  1  0  0  0  0
 39 10  1  0  0  0  0
 42 11  1  0  0  0  0
 46 18  1  0  0  0  0
 49 20  1  0  0  0  0
 50 21  1  0  0  0  0
 52 26  1  0  0  0  0
 53 28  1  0  0  0  0
M  END
>  <Pose>
1

>  <Score>
-6.65

$$$$
