
 OpenBabel03212208413D

 37 40  0  0  0  0  0  0  0  0999 V2000
   16.3920   37.2910   70.0070 B   0  0  0  0  0  0  0  0  0  0  0  0
   15.6120   35.6660   70.6450 C   0  0  0  0  0  0  0  0  0  0  0  0
   14.2870   35.3800   70.3970 C   0  0  0  0  0  0  0  0  0  0  0  0
   13.7070   34.2170   70.8470 C   0  0  0  0  0  0  0  0  0  0  0  0
   12.4640   33.6840   70.7560 N   0  0  0  0  0  0  0  0  0  0  0  0
   12.4830   32.5240   71.3870 N   0  0  0  0  0  0  0  0  0  0  0  0
   13.6610   32.2680   71.8840 N   0  0  0  0  0  0  0  0  0  0  0  0
   14.4620   33.3190   71.5610 C   0  0  0  0  0  0  0  0  0  0  0  0
   15.7930   33.6010   71.8150 C   0  0  0  0  0  0  0  0  0  0  0  0
   16.3720   34.7760   71.3580 C   0  0  0  0  0  0  0  0  0  0  0  0
   16.5730   32.6310   72.5750 C   0  0  0  0  0  0  0  0  0  0  0  0
   16.5230   31.4320   72.2410 O   0  0  0  0  0  0  0  0  0  0  0  0
   17.3850   33.0000   73.6780 N   0  0  0  0  0  0  0  0  0  0  0  0
   18.5310   33.8600   73.5110 C   0  0  0  0  0  0  0  0  0  0  0  0
   19.4020   33.3040   72.4180 C   0  0  0  0  0  0  0  0  0  0  0  0
   19.7730   33.9220   71.2850 N   0  0  0  0  0  0  0  0  0  0  0  0
   20.5580   33.1170   70.5380 C   0  0  0  0  0  0  0  0  0  0  0  0
   20.6750   31.9750   71.2260 N   0  0  0  0  0  0  0  0  0  0  0  0
   19.9750   32.0850   72.3650 N   0  0  0  0  0  0  0  0  0  0  0  0
   21.0440   33.6800   69.2480 C   0  0  0  0  0  0  0  0  0  0  0  0
   21.7170   35.0060   69.6320 C   0  0  0  0  0  0  0  0  0  0  0  0
   20.8160   35.9010   70.4180 C   0  0  0  0  0  0  0  0  0  0  0  0
   19.4970   35.2340   70.7440 C   0  0  0  0  0  0  0  0  0  0  0  0
   13.6880   36.0810   69.8360 H   0  0  0  0  0  0  0  0  0  0  0  0
   14.0220   31.4590   72.4290 H   0  0  0  0  0  0  0  0  0  0  0  0
   17.4200   34.9500   71.5830 H   0  0  0  0  0  0  0  0  0  0  0  0
   17.1540   32.6490   74.6220 H   0  0  0  0  0  0  0  0  0  0  0  0
   18.2590   34.9010   73.3420 H   0  0  0  0  0  0  0  0  0  0  0  0
   19.1260   33.7880   74.4620 H   0  0  0  0  0  0  0  0  0  0  0  0
   20.2110   33.8400   68.5530 H   0  0  0  0  0  0  0  0  0  0  0  0
   21.8670   33.0590   68.8150 H   0  0  0  0  0  0  0  0  0  0  0  0
   22.5720   34.7160   70.2740 H   0  0  0  0  0  0  0  0  0  0  0  0
   22.1310   35.5080   68.7370 H   0  0  0  0  0  0  0  0  0  0  0  0
   20.6430   36.8850   69.9190 H   0  0  0  0  0  0  0  0  0  0  0  0
   21.2880   36.1510   71.3890 H   0  0  0  0  0  0  0  0  0  0  0  0
   18.9510   35.0820   69.7850 H   0  0  0  0  0  0  0  0  0  0  0  0
   18.8930   35.8220   71.4430 H   0  0  0  0  0  0  0  0  0  0  0  0
  1  2  1  0  0  0  0
  2 10  1  0  0  0  0
  3  2  2  0  0  0  0
  3  4  1  0  0  0  0
  4  8  2  0  0  0  0
  5  4  1  0  0  0  0
  5  6  2  0  0  0  0
  6  7  1  0  0  0  0
  7 25  1  0  0  0  0
  8  9  1  0  0  0  0
  8  7  1  0  0  0  0
  9 11  1  0  0  0  0
 10 26  1  0  0  0  0
 10  9  2  0  0  0  0
 11 13  1  0  0  0  0
 12 11  2  0  0  0  0
 13 27  1  0  0  0  0
 14 13  1  0  0  0  0
 14 29  1  0  0  0  0
 15 14  1  0  0  0  0
 16 15  1  0  0  0  0
 17 18  2  0  0  0  0
 17 16  1  0  0  0  0
 18 19  1  0  0  0  0
 19 15  2  0  0  0  0
 20 21  1  0  0  0  0
 20 17  1  0  0  0  0
 21 32  1  0  0  0  0
 21 22  1  0  0  0  0
 22 23  1  0  0  0  0
 22 35  1  0  0  0  0
 23 16  1  0  0  0  0
 23 37  1  0  0  0  0
 24  3  1  0  0  0  0
 28 14  1  0  0  0  0
 30 20  1  0  0  0  0
 31 20  1  0  0  0  0
 33 21  1  0  0  0  0
 34 22  1  0  0  0  0
 36 23  1  0  0  0  0
M  END
>  <Pose>
1

>  <Score>
-6.65

$$$$
