
 OpenBabel03212208413D

 40 43  0  0  0  0  0  0  0  0999 V2000
   16.2740   37.8530   70.1090 Cl  0  0  0  0  0  0  0  0  0  0  0  0
   15.6250   36.2490   70.4480 C   0  0  0  0  0  0  0  0  0  0  0  0
   14.2700   36.0110   70.5350 C   0  0  0  0  0  0  0  0  0  0  0  0
   13.8190   34.7340   70.8030 C   0  0  0  0  0  0  0  0  0  0  0  0
   12.5770   34.1960   70.9470 N   0  0  0  0  0  0  0  0  0  0  0  0
   12.6980   32.8820   71.2060 C   0  0  0  0  0  0  0  0  0  0  0  0
   14.0010   32.5330   71.2370 N   0  0  0  0  0  0  0  0  0  0  0  0
   14.6770   33.6690   70.9910 C   0  0  0  0  0  0  0  0  0  0  0  0
   16.0310   33.8970   70.9050 C   0  0  0  0  0  0  0  0  0  0  0  0
   16.4750   35.1760   70.6370 C   0  0  0  0  0  0  0  0  0  0  0  0
   14.5150   31.2030   71.4880 C   0  0  0  0  0  0  0  0  0  0  0  0
   15.3170   31.1430   72.7690 C   0  0  0  0  0  0  0  0  0  0  0  0
   15.2510   29.7780   73.2770 N   0  0  0  0  0  0  0  0  0  0  0  0
   14.3520   29.4370   74.2280 C   0  0  0  0  0  0  0  0  0  0  0  0
   14.2630   28.1570   74.7290 C   0  0  0  0  0  0  0  0  0  0  0  0
   15.1620   27.1250   74.2270 C   0  0  0  0  0  0  0  0  0  0  0  0
   14.8490   26.0010   74.8860 N   0  0  0  0  0  0  0  0  0  0  0  0
   13.8460   26.2310   75.7480 N   0  0  0  0  0  0  0  0  0  0  0  0
   13.4820   27.5200   75.6680 C   0  0  0  0  0  0  0  0  0  0  0  0
   12.5680   28.0350   76.3520 O   0  0  0  0  0  0  0  0  0  0  0  0
   16.0700   27.5080   73.2530 C   0  0  0  0  0  0  0  0  0  0  0  0
   16.0660   28.8100   72.8330 C   0  0  0  0  0  0  0  0  0  0  0  0
   16.9850   26.5030   72.7260 C   0  0  0  0  0  0  0  0  0  0  0  0
   16.6880   25.9030   71.6620 O   0  0  0  0  0  0  0  0  0  0  0  0
   18.1590   26.1940   73.3610 O   0  0  0  0  0  0  0  0  0  0  0  0
   19.1350   25.3610   72.7560 C   0  0  0  0  0  0  0  0  0  0  0  0
   13.5910   36.8380   70.3910 H   0  0  0  0  0  0  0  0  0  0  0  0
   11.8570   32.2380   71.3590 H   0  0  0  0  0  0  0  0  0  0  0  0
   16.7060   33.0520   71.0540 H   0  0  0  0  0  0  0  0  0  0  0  0
   17.5370   35.3650   70.5680 H   0  0  0  0  0  0  0  0  0  0  0  0
   13.7050   30.4480   71.5530 H   0  0  0  0  0  0  0  0  0  0  0  0
   15.1720   30.9040   70.6520 H   0  0  0  0  0  0  0  0  0  0  0  0
   14.9190   31.8000   73.5480 H   0  0  0  0  0  0  0  0  0  0  0  0
   16.3570   31.4350   72.5510 H   0  0  0  0  0  0  0  0  0  0  0  0
   13.6800   30.1890   74.6100 H   0  0  0  0  0  0  0  0  0  0  0  0
   13.4500   25.4760   76.3640 H   0  0  0  0  0  0  0  0  0  0  0  0
   16.7870   29.1080   72.0610 H   0  0  0  0  0  0  0  0  0  0  0  0
   18.7960   25.1280   71.7190 H   0  0  0  0  0  0  0  0  0  0  0  0
   19.2530   24.4130   73.3380 H   0  0  0  0  0  0  0  0  0  0  0  0
   20.1040   25.9000   72.6520 H   0  0  0  0  0  0  0  0  0  0  0  0
  1  2  1  0  0  0  0
  2  3  2  0  0  0  0
  2 10  1  0  0  0  0
  3  4  1  0  0  0  0
  4  5  1  0  0  0  0
  4  8  2  0  0  0  0
  5  6  2  0  0  0  0
  6  7  1  0  0  0  0
  6 28  1  0  0  0  0
  7 11  1  0  0  0  0
  8  7  1  0  0  0  0
  9  8  1  0  0  0  0
  9 29  1  0  0  0  0
 10  9  2  0  0  0  0
 11 31  1  0  0  0  0
 11 12  1  0  0  0  0
 12 13  1  0  0  0  0
 12 33  1  0  0  0  0
 13 14  1  0  0  0  0
 14 35  1  0  0  0  0
 14 15  1  0  0  0  0
 15 19  1  0  0  0  0
 16 15  2  0  0  0  0
 16 17  1  0  0  0  0
 17 18  1  0  0  0  0
 18 36  1  0  0  0  0
 19 18  1  0  0  0  0
 19 20  2  0  0  0  0
 21 16  1  0  0  0  0
 22 21  2  0  0  0  0
 22 13  1  0  0  0  0
 23 21  1  0  0  0  0
 23 25  1  0  0  0  0
 24 23  2  0  0  0  0
 26 39  1  0  0  0  0
 26 25  1  0  0  0  0
 27  3  1  0  0  0  0
 30 10  1  0  0  0  0
 32 11  1  0  0  0  0
 34 12  1  0  0  0  0
 37 22  1  0  0  0  0
 38 26  1  0  0  0  0
 40 26  1  0  0  0  0
M  END
>  <Pose>
1

>  <Score>
-6.20

$$$$
