
 OpenBabel03212208413D

 49 52  0  0  1  0  0  0  0  0999 V2000
    7.0910   29.7930   75.0480 Cl  0  0  0  0  0  0  0  0  0  0  0  0
    8.6940   29.7790   75.7420 C   0  0  0  0  0  0  0  0  0  0  0  0
    9.7660   29.2920   75.0050 C   0  0  0  0  0  0  0  0  0  0  0  0
   11.0430   29.2770   75.5390 C   0  0  0  0  0  0  0  0  0  0  0  0
   12.2470   28.8820   75.0970 N   0  0  0  0  0  0  0  0  0  0  0  0
   13.2100   29.0850   76.0380 C   0  0  0  0  0  0  0  0  0  0  0  0
   12.5440   29.6260   77.0930 N   0  0  0  0  0  0  0  0  0  0  0  0
   11.2400   29.7500   76.8140 C   0  0  0  0  0  0  0  0  0  0  0  0
   10.1720   30.2320   77.5410 C   0  0  0  0  0  0  0  0  0  0  0  0
    8.8860   30.2550   77.0200 C   0  0  0  0  0  0  0  0  0  0  0  0
   14.6430   28.7750   75.8800 C   0  0  0  0  0  0  0  0  0  0  0  0
   14.9320   28.1950   74.5280 C   0  0  0  0  0  0  0  0  0  0  0  0
   16.3230   28.4910   74.1260 C   0  0  0  0  0  0  0  0  0  0  0  0
   17.2560   27.9790   74.7910 O   0  0  0  0  0  0  0  0  0  0  0  0
   16.6530   29.3210   73.0340 N   0  0  0  0  0  0  0  0  0  0  0  0
   15.9760   29.5380   71.7730 C   0  0  0  0  0  0  0  0  0  0  0  0
   16.1200   30.9770   71.5520 C   0  0  2  0  0  0  0  0  0  0  0  0
   17.1400   31.4910   72.5700 C   0  0  1  0  0  0  0  0  0  0  0  0
   17.8180   30.1640   72.9700 C   0  0  0  0  0  0  0  0  0  0  0  0
   18.0510   32.3630   72.0270 O   0  0  0  0  0  0  0  0  0  0  0  0
   14.9990   31.8290   71.4680 N   0  0  0  0  0  0  0  0  0  0  0  0
   15.2150   33.1130   71.0740 C   0  0  0  0  0  0  0  0  0  0  0  0
   14.1870   34.0220   70.9580 C   0  0  0  0  0  0  0  0  0  0  0  0
   12.8950   33.6450   71.2420 C   0  0  0  0  0  0  0  0  0  0  0  0
   11.9300   34.4610   71.1440 O   0  0  0  0  0  0  0  0  0  0  0  0
   12.6820   32.3790   71.6310 N   0  0  0  0  0  0  0  0  0  0  0  0
   13.7190   31.5430   71.7250 C   0  0  0  0  0  0  0  0  0  0  0  0
   13.4620   30.3770   72.0880 O   0  0  0  0  0  0  0  0  0  0  0  0
   14.4410   35.4330   70.5210 C   0  0  0  0  0  0  0  0  0  0  0  0
    9.6310   28.9140   73.9970 H   0  0  0  0  0  0  0  0  0  0  0  0
   12.3720   28.4750   74.1370 H   0  0  0  0  0  0  0  0  0  0  0  0
   10.2880   30.6110   78.5430 H   0  0  0  0  0  0  0  0  0  0  0  0
    8.0750   30.6380   77.6130 H   0  0  0  0  0  0  0  0  0  0  0  0
   14.9200   28.0160   76.6490 H   0  0  0  0  0  0  0  0  0  0  0  0
   15.2580   29.7100   76.0360 H   0  0  0  0  0  0  0  0  0  0  0  0
   14.8840   27.0680   74.6100 H   0  0  0  0  0  0  0  0  0  0  0  0
   14.1760   28.4600   73.7740 H   0  0  0  0  0  0  0  0  0  0  0  0
   14.9880   29.0700   71.7250 H   0  0  0  0  0  0  0  0  0  0  0  0
   16.5930   28.9440   71.0290 H   0  0  0  0  0  0  0  0  0  0  0  0
   16.6680   31.1240   70.5640 H   0  0  0  0  0  0  0  0  0  0  0  0
   16.6690   31.8680   73.4930 H   0  0  0  0  0  0  0  0  0  0  0  0
   18.3450   30.2670   73.9410 H   0  0  0  0  0  0  0  0  0  0  0  0
   18.5040   29.8970   72.1380 H   0  0  0  0  0  0  0  0  0  0  0  0
   18.5980   32.7360   72.7630 H   0  0  0  0  0  0  0  0  0  0  0  0
   16.1950   33.4910   70.8270 H   0  0  0  0  0  0  0  0  0  0  0  0
   11.6890   32.0620   71.8600 H   0  0  0  0  0  0  0  0  0  0  0  0
   15.5460   35.6170   70.4520 H   0  0  0  0  0  0  0  0  0  0  0  0
   13.9250   35.6690   69.5960 H   0  0  0  0  0  0  0  0  0  0  0  0
   14.0630   36.1250   71.3220 H   0  0  0  0  0  0  0  0  0  0  0  0
  1  2  1  0  0  0  0
  2 10  1  0  0  0  0
  3  4  1  0  0  0  0
  3  2  2  0  0  0  0
  4  8  2  0  0  0  0
  5  4  1  0  0  0  0
  5  6  1  0  0  0  0
  6  7  2  0  0  0  0
  8  7  1  0  0  0  0
  8  9  1  0  0  0  0
  9 32  1  0  0  0  0
 10  9  2  0  0  0  0
 10 33  1  0  0  0  0
 11 35  1  0  0  0  0
 11  6  1  0  0  0  0
 11 34  1  0  0  0  0
 12 36  1  0  0  0  0
 12 11  1  0  0  0  0
 13 12  1  0  0  0  0
 13 14  2  0  0  0  0
 15 13  1  0  0  0  0
 16 15  1  0  0  0  0
 17 40  1  6  0  0  0
 17 16  1  0  0  0  0
 17 18  1  0  0  0  0
 18 19  1  0  0  0  0
 18 41  1  1  0  0  0
 19 15  1  0  0  0  0
 19 42  1  0  0  0  0
 20 18  1  0  0  0  0
 20 44  1  0  0  0  0
 21 17  1  0  0  0  0
 21 27  1  0  0  0  0
 22 21  1  0  0  0  0
 23 22  2  0  0  0  0
 23 24  1  0  0  0  0
 24 26  1  0  0  0  0
 25 24  2  0  0  0  0
 26 27  1  0  0  0  0
 26 46  1  0  0  0  0
 27 28  2  0  0  0  0
 29 23  1  0  0  0  0
 29 49  1  0  0  0  0
 30  3  1  0  0  0  0
 31  5  1  0  0  0  0
 37 12  1  0  0  0  0
 38 16  1  0  0  0  0
 39 16  1  0  0  0  0
 43 19  1  0  0  0  0
 45 22  1  0  0  0  0
 47 29  1  0  0  0  0
 48 29  1  0  0  0  0
M  END
>  <Pose>
1

>  <Score>
-7.05

$$$$
