
 OpenBabel03212208413D

 55 59  0  0  1  0  0  0  0  0999 V2000
    5.8880   25.6810   74.1760 Cl  0  0  0  0  0  0  0  0  0  0  0  0
    7.0710   26.8180   74.8120 C   0  0  0  0  0  0  0  0  0  0  0  0
    8.4170   26.6660   74.5770 C   0  0  0  0  0  0  0  0  0  0  0  0
    9.3240   27.5890   75.0990 C   0  0  0  0  0  0  0  0  0  0  0  0
   10.6610   27.7040   75.0400 N   0  0  0  0  0  0  0  0  0  0  0  0
   11.0810   28.7870   75.7170 C   0  0  0  0  0  0  0  0  0  0  0  0
    9.9810   29.3590   76.2080 N   0  0  0  0  0  0  0  0  0  0  0  0
    8.8860   28.6570   75.8510 C   0  0  0  0  0  0  0  0  0  0  0  0
    7.5360   28.8090   76.0870 C   0  0  0  0  0  0  0  0  0  0  0  0
    6.6400   27.8780   75.5590 C   0  0  0  0  0  0  0  0  0  0  0  0
   12.5150   29.2050   75.8510 C   0  0  0  0  0  0  0  0  0  0  0  0
   13.0310   29.6320   74.4950 C   0  0  0  0  0  0  0  0  0  0  0  0
   14.3210   28.9850   74.2080 C   0  0  0  0  0  0  0  0  0  0  0  0
   14.4600   27.7690   74.4390 O   0  0  0  0  0  0  0  0  0  0  0  0
   15.3880   29.7290   73.6790 N   0  0  0  0  0  0  0  0  0  0  0  0
   15.8330   31.0630   73.9290 C   0  0  0  0  0  0  0  0  0  0  0  0
   16.2040   31.6150   72.5320 C   0  0  1  0  0  0  0  0  0  0  0  0
   16.7290   30.3740   71.9030 C   0  0  2  0  0  0  0  0  0  0  0  0
   16.3170   29.1870   72.7070 C   0  0  0  0  0  0  0  0  0  0  0  0
   18.1210   30.3430   71.8190 O   0  0  0  0  0  0  0  0  0  0  0  0
   15.0170   32.1380   71.9160 N   0  0  0  0  0  0  0  0  0  0  0  0
   14.8410   33.3420   71.3470 C   0  0  0  0  0  0  0  0  0  0  0  0
   13.5170   33.4240   70.8700 C   0  0  0  0  0  0  0  0  0  0  0  0
   12.9390   32.2520   71.1770 N   0  0  0  0  0  0  0  0  0  0  0  0
   13.8200   31.4730   71.8010 C   0  0  0  0  0  0  0  0  0  0  0  0
   13.0550   34.5560   70.2360 C   0  0  0  0  0  0  0  0  0  0  0  0
   11.8660   34.6000   69.8210 O   0  0  0  0  0  0  0  0  0  0  0  0
   13.9080   35.5760   70.0860 N   0  0  0  0  0  0  0  0  0  0  0  0
   15.1600   35.4890   70.5400 C   0  0  0  0  0  0  0  0  0  0  0  0
   15.9500   36.4580   70.3910 O   0  0  0  0  0  0  0  0  0  0  0  0
   15.6700   34.3910   71.1760 N   0  0  0  0  0  0  0  0  0  0  0  0
   17.0220   34.3680   71.6380 C   0  0  0  0  0  0  0  0  0  0  0  0
   13.4470   36.7930   69.4150 C   0  0  0  0  0  0  0  0  0  0  0  0
    8.7790   25.8380   73.9910 H   0  0  0  0  0  0  0  0  0  0  0  0
   11.2710   27.0160   74.5230 H   0  0  0  0  0  0  0  0  0  0  0  0
    7.1650   29.6350   76.6730 H   0  0  0  0  0  0  0  0  0  0  0  0
    5.5730   27.9920   75.7420 H   0  0  0  0  0  0  0  0  0  0  0  0
   13.0820   28.3400   76.2410 H   0  0  0  0  0  0  0  0  0  0  0  0
   12.6130   30.0400   76.5740 H   0  0  0  0  0  0  0  0  0  0  0  0
   13.0610   30.7280   74.4220 H   0  0  0  0  0  0  0  0  0  0  0  0
   12.2390   29.3070   73.7580 H   0  0  0  0  0  0  0  0  0  0  0  0
   16.7950   30.9510   74.5190 H   0  0  0  0  0  0  0  0  0  0  0  0
   15.1940   31.7150   74.4980 H   0  0  0  0  0  0  0  0  0  0  0  0
   16.9620   32.3740   72.8120 H   0  0  0  0  0  0  0  0  0  0  0  0
   16.2430   30.2370   70.8920 H   0  0  0  0  0  0  0  0  0  0  0  0
   15.8570   28.3800   72.1000 H   0  0  0  0  0  0  0  0  0  0  0  0
   17.2110   28.7520   73.2430 H   0  0  0  0  0  0  0  0  0  0  0  0
   18.5240   29.8350   72.5780 H   0  0  0  0  0  0  0  0  0  0  0  0
   13.6600   30.4830   72.1720 H   0  0  0  0  0  0  0  0  0  0  0  0
   17.7520   33.9350   70.9250 H   0  0  0  0  0  0  0  0  0  0  0  0
   17.3490   35.4750   71.6130 H   0  0  0  0  0  0  0  0  0  0  0  0
   17.1830   34.1380   72.6940 H   0  0  0  0  0  0  0  0  0  0  0  0
   13.9500   36.9000   68.4280 H   0  0  0  0  0  0  0  0  0  0  0  0
   12.3510   36.7550   69.2780 H   0  0  0  0  0  0  0  0  0  0  0  0
   13.7500   37.6680   70.0210 H   0  0  0  0  0  0  0  0  0  0  0  0
  1  2  1  0  0  0  0
  2 10  1  0  0  0  0
  3  2  2  0  0  0  0
  3  4  1  0  0  0  0
  4  8  2  0  0  0  0
  5  4  1  0  0  0  0
  5  6  1  0  0  0  0
  6 11  1  0  0  0  0
  6  7  2  0  0  0  0
  8  9  1  0  0  0  0
  8  7  1  0  0  0  0
  9 36  1  0  0  0  0
 10 37  1  0  0  0  0
 10  9  2  0  0  0  0
 11 38  1  0  0  0  0
 11 39  1  0  0  0  0
 12 11  1  0  0  0  0
 13 14  2  0  0  0  0
 13 12  1  0  0  0  0
 15 16  1  0  0  0  0
 15 13  1  0  0  0  0
 16 43  1  0  0  0  0
 16 42  1  0  0  0  0
 17 44  1  1  0  0  0
 17 16  1  0  0  0  0
 18 45  1  6  0  0  0
 18 17  1  0  0  0  0
 18 19  1  0  0  0  0
 19 47  1  0  0  0  0
 19 15  1  0  0  0  0
 20 18  1  0  0  0  0
 20 48  1  0  0  0  0
 21 17  1  0  0  0  0
 22 21  1  0  0  0  0
 23 24  1  0  0  0  0
 23 22  2  0  0  0  0
 24 25  2  0  0  0  0
 25 21  1  0  0  0  0
 25 49  1  0  0  0  0
 26 23  1  0  0  0  0
 27 26  2  0  0  0  0
 28 26  1  0  0  0  0
 28 29  1  0  0  0  0
 29 31  1  0  0  0  0
 30 29  2  0  0  0  0
 31 22  1  0  0  0  0
 31 32  1  0  0  0  0
 32 52  1  0  0  0  0
 33 55  1  0  0  0  0
 33 28  1  0  0  0  0
 34  3  1  0  0  0  0
 35  5  1  0  0  0  0
 40 12  1  0  0  0  0
 41 12  1  0  0  0  0
 46 19  1  0  0  0  0
 50 32  1  0  0  0  0
 51 32  1  0  0  0  0
 53 33  1  0  0  0  0
 54 33  1  0  0  0  0
M  END
>  <Pose>
1

>  <Score>
-7.42

$$$$
