
 OpenBabel03212208413D

 50 53  0  0  1  0  0  0  0  0999 V2000
   21.2610   37.2060   71.7580 Cl  0  0  0  0  0  0  0  0  0  0  0  0
   20.6630   35.7550   71.0230 C   0  0  0  0  0  0  0  0  0  0  0  0
   19.4640   35.1900   71.4330 C   0  0  0  0  0  0  0  0  0  0  0  0
   18.9750   34.0360   70.8570 C   0  0  0  0  0  0  0  0  0  0  0  0
   19.7090   33.4550   69.8600 C   0  0  0  0  0  0  0  0  0  0  0  0
   20.9210   33.9930   69.4180 C   0  0  0  0  0  0  0  0  0  0  0  0
   21.3790   35.1470   70.0140 C   0  0  0  0  0  0  0  0  0  0  0  0
   19.0580   32.2740   69.4110 N   0  0  0  0  0  0  0  0  0  0  0  0
   17.8660   32.1130   70.1650 C   0  0  0  0  0  0  0  0  0  0  0  0
   17.1030   31.1090   69.9880 O   0  0  0  0  0  0  0  0  0  0  0  0
   17.7620   33.2480   71.0720 C   0  0  2  0  0  0  0  0  0  0  0  0
   16.5510   34.0370   70.8300 N   0  0  0  0  0  0  0  0  0  0  0  0
   15.5440   33.1910   71.4300 C   0  0  1  0  0  0  0  0  0  0  0  0
   16.1500   32.6370   72.6790 C   0  0  2  0  0  0  0  0  0  0  0  0
   17.6120   32.9240   72.5160 C   0  0  1  0  0  0  0  0  0  0  0  0
   18.3630   31.7250   72.9640 C   0  0  0  0  0  0  0  0  0  0  0  0
   19.6180   31.7350   73.0540 O   0  0  0  0  0  0  0  0  0  0  0  0
   17.4180   30.7010   73.2300 N   0  0  0  0  0  0  0  0  0  0  0  0
   16.1570   31.1390   72.7110 C   0  0  0  0  0  0  0  0  0  0  0  0
   15.2060   30.4440   72.3400 O   0  0  0  0  0  0  0  0  0  0  0  0
   17.6640   29.4750   73.8900 C   0  0  0  0  0  0  0  0  0  0  0  0
   17.1370   28.2230   73.3080 C   0  0  0  0  0  0  0  0  0  0  0  0
   18.0000   27.0210   73.3540 C   0  0  0  0  0  0  0  0  0  0  0  0
   17.8460   26.1190   72.3120 O   0  0  0  0  0  0  0  0  0  0  0  0
   18.8840   25.1630   72.4260 C   0  0  0  0  0  0  0  0  0  0  0  0
   14.2490   33.9210   71.6750 C   0  0  1  0  0  0  0  0  0  0  0  0
   14.5440   35.2710   71.8170 O   0  0  0  0  0  0  0  0  0  0  0  0
   13.2510   33.7220   70.5630 C   0  0  0  0  0  0  0  0  0  0  0  0
   18.8810   35.6630   72.2350 H   0  0  0  0  0  0  0  0  0  0  0  0
   21.4970   33.5240   68.6230 H   0  0  0  0  0  0  0  0  0  0  0  0
   22.3270   35.5440   69.6490 H   0  0  0  0  0  0  0  0  0  0  0  0
   19.3960   31.6230   68.6420 H   0  0  0  0  0  0  0  0  0  0  0  0
   16.6500   34.8850   71.4320 H   0  0  0  0  0  0  0  0  0  0  0  0
   15.2970   32.3560   70.7460 H   0  0  0  0  0  0  0  0  0  0  0  0
   15.7110   33.0110   73.6060 H   0  0  0  0  0  0  0  0  0  0  0  0
   17.9230   33.8240   73.1030 H   0  0  0  0  0  0  0  0  0  0  0  0
   17.4070   29.5200   74.9950 H   0  0  0  0  0  0  0  0  0  0  0  0
   18.7950   29.3450   73.9320 H   0  0  0  0  0  0  0  0  0  0  0  0
   16.7090   28.3560   72.2790 H   0  0  0  0  0  0  0  0  0  0  0  0
   16.2110   27.9640   73.9150 H   0  0  0  0  0  0  0  0  0  0  0  0
   19.1030   27.2770   73.3650 H   0  0  0  0  0  0  0  0  0  0  0  0
   17.8550   26.4880   74.3270 H   0  0  0  0  0  0  0  0  0  0  0  0
   19.8200   25.7550   72.3490 H   0  0  0  0  0  0  0  0  0  0  0  0
   18.8950   24.4660   71.5680 H   0  0  0  0  0  0  0  0  0  0  0  0
   18.8570   24.6460   73.3880 H   0  0  0  0  0  0  0  0  0  0  0  0
   13.8160   33.5600   72.6080 H   0  0  0  0  0  0  0  0  0  0  0  0
   14.1100   35.6770   72.6100 H   0  0  0  0  0  0  0  0  0  0  0  0
   12.8770   32.6870   70.5460 H   0  0  0  0  0  0  0  0  0  0  0  0
   13.6360   34.0610   69.5810 H   0  0  0  0  0  0  0  0  0  0  0  0
   12.3780   34.3700   70.7930 H   0  0  0  0  0  0  0  0  0  0  0  0
  2  3  1  0  0  0  0
  2  1  1  0  0  0  0
  3 29  1  0  0  0  0
  4 11  1  0  0  0  0
  4  3  2  0  0  0  0
  5  4  1  0  0  0  0
  6  5  2  0  0  0  0
  6  7  1  0  0  0  0
  7  2  2  0  0  0  0
  8  5  1  0  0  0  0
  8  9  1  0  0  0  0
 10  9  2  0  0  0  0
 11  9  1  6  0  0  0
 11 15  1  0  0  0  0
 12 11  1  0  0  0  0
 12 13  1  0  0  0  0
 12 33  1  0  0  0  0
 13 34  1  6  0  0  0
 13 26  1  0  0  0  0
 13 14  1  0  0  0  0
 14 19  1  0  0  0  0
 14 35  1  1  0  0  0
 15 14  1  0  0  0  0
 15 16  1  0  0  0  0
 15 36  1  1  0  0  0
 16 17  2  0  0  0  0
 16 18  1  0  0  0  0
 18 21  1  0  0  0  0
 19 18  1  0  0  0  0
 20 19  2  0  0  0  0
 21 38  1  0  0  0  0
 21 37  1  0  0  0  0
 22 23  1  0  0  0  0
 22 21  1  0  0  0  0
 22 40  1  0  0  0  0
 23 41  1  0  0  0  0
 23 42  1  0  0  0  0
 24 25  1  0  0  0  0
 24 23  1  0  0  0  0
 25 45  1  0  0  0  0
 26 27  1  0  0  0  0
 26 46  1  1  0  0  0
 27 47  1  0  0  0  0
 28 50  1  0  0  0  0
 28 26  1  0  0  0  0
 30  6  1  0  0  0  0
 31  7  1  0  0  0  0
 32  8  1  0  0  0  0
 39 22  1  0  0  0  0
 43 25  1  0  0  0  0
 44 25  1  0  0  0  0
 48 28  1  0  0  0  0
 49 28  1  0  0  0  0
M  END
>  <Pose>
1

>  <Score>
-5.96

$$$$
