
 OpenBabel03212208413D

 48 51  0  0  0  0  0  0  0  0999 V2000
   22.0070   32.3670   70.6720 S   0  0  0  0  0  0  0  0  0  0  0  0
   23.2480   31.7180   71.2710 O   0  0  0  0  0  0  0  0  0  0  0  0
   21.1870   31.2140   70.1250 O   0  0  0  0  0  0  0  0  0  0  0  0
   21.1380   33.1000   71.9060 N   0  0  0  0  0  0  0  0  0  0  0  0
   20.0690   33.9520   71.5180 C   0  0  0  0  0  0  0  0  0  0  0  0
   18.7540   33.5950   72.1640 C   0  0  0  0  0  0  0  0  0  0  0  0
   18.6200   32.1810   72.3990 N   0  0  0  0  0  0  0  0  0  0  0  0
   19.6890   31.4700   73.0590 C   0  0  0  0  0  0  0  0  0  0  0  0
   20.9030   32.3460   73.0820 C   0  0  0  0  0  0  0  0  0  0  0  0
   17.4710   31.4550   72.0020 C   0  0  0  0  0  0  0  0  0  0  0  0
   17.5820   30.5910   71.1110 O   0  0  0  0  0  0  0  0  0  0  0  0
   16.1450   31.6920   72.6150 C   0  0  0  0  0  0  0  0  0  0  0  0
   15.4220   32.7120   71.9130 N   0  0  0  0  0  0  0  0  0  0  0  0
   15.7000   34.1000   71.7880 C   0  0  0  0  0  0  0  0  0  0  0  0
   16.6830   34.6700   72.3100 O   0  0  0  0  0  0  0  0  0  0  0  0
   14.6620   34.7040   70.9690 C   0  0  0  0  0  0  0  0  0  0  0  0
   13.7650   33.7320   70.5930 C   0  0  0  0  0  0  0  0  0  0  0  0
   12.6790   34.0770   69.7990 C   0  0  0  0  0  0  0  0  0  0  0  0
   12.4770   35.3630   69.3810 C   0  0  0  0  0  0  0  0  0  0  0  0
   13.3780   36.3590   69.7550 C   0  0  0  0  0  0  0  0  0  0  0  0
   14.4570   35.9930   70.5470 C   0  0  0  0  0  0  0  0  0  0  0  0
   14.2200   32.4740   71.1710 C   0  0  0  0  0  0  0  0  0  0  0  0
   13.6020   31.3910   71.0030 O   0  0  0  0  0  0  0  0  0  0  0  0
   22.4290   33.3810   69.3450 C   0  0  0  0  0  0  0  0  0  0  0  0
   23.6210   33.1740   68.6710 C   0  0  0  0  0  0  0  0  0  0  0  0
   24.0080   33.9560   67.6020 C   0  0  0  0  0  0  0  0  0  0  0  0
   23.1610   34.9750   67.2070 C   0  0  0  0  0  0  0  0  0  0  0  0
   21.9770   35.1710   67.8880 C   0  0  0  0  0  0  0  0  0  0  0  0
   21.5780   34.3960   68.9570 C   0  0  0  0  0  0  0  0  0  0  0  0
   23.6390   36.1050   65.7220 B   0  0  0  0  0  0  0  0  0  0  0  0
   20.3260   34.9920   71.8770 H   0  0  0  0  0  0  0  0  0  0  0  0
   19.9940   34.0280   70.4130 H   0  0  0  0  0  0  0  0  0  0  0  0
   17.9330   33.9590   71.5190 H   0  0  0  0  0  0  0  0  0  0  0  0
   18.6470   34.1560   73.1290 H   0  0  0  0  0  0  0  0  0  0  0  0
   19.4070   31.2840   74.1370 H   0  0  0  0  0  0  0  0  0  0  0  0
   19.8430   30.5030   72.5550 H   0  0  0  0  0  0  0  0  0  0  0  0
   21.8060   31.7780   73.3710 H   0  0  0  0  0  0  0  0  0  0  0  0
   20.7470   33.0830   73.9250 H   0  0  0  0  0  0  0  0  0  0  0  0
   16.3340   32.0360   73.6700 H   0  0  0  0  0  0  0  0  0  0  0  0
   15.5460   30.7530   72.6520 H   0  0  0  0  0  0  0  0  0  0  0  0
   11.9940   33.3010   69.5200 H   0  0  0  0  0  0  0  0  0  0  0  0
   11.6440   35.6300   68.7720 H   0  0  0  0  0  0  0  0  0  0  0  0
   13.2700   37.3770   69.4580 H   0  0  0  0  0  0  0  0  0  0  0  0
   15.1530   36.7720   70.8350 H   0  0  0  0  0  0  0  0  0  0  0  0
   24.3190   32.3770   68.9530 H   0  0  0  0  0  0  0  0  0  0  0  0
   24.9330   33.8160   67.0570 H   0  0  0  0  0  0  0  0  0  0  0  0
   21.2910   35.9770   67.5870 H   0  0  0  0  0  0  0  0  0  0  0  0
   20.6280   34.5930   69.4650 H   0  0  0  0  0  0  0  0  0  0  0  0
  1  2  2  0  0  0  0
  1  4  1  0  0  0  0
  3  1  2  0  0  0  0
  4  9  1  0  0  0  0
  5 31  1  0  0  0  0
  5  4  1  0  0  0  0
  5  6  1  0  0  0  0
  6  7  1  0  0  0  0
  6 34  1  0  0  0  0
  7  8  1  0  0  0  0
  8  9  1  0  0  0  0
  8 35  1  0  0  0  0
  9 37  1  0  0  0  0
  9 38  1  0  0  0  0
 10  7  1  0  0  0  0
 10 12  1  0  0  0  0
 11 10  2  0  0  0  0
 12 40  1  0  0  0  0
 12 39  1  0  0  0  0
 13 12  1  0  0  0  0
 14 13  1  0  0  0  0
 14 15  2  0  0  0  0
 16 14  1  0  0  0  0
 17 16  1  0  0  0  0
 17 22  1  0  0  0  0
 18 17  2  0  0  0  0
 19 20  2  0  0  0  0
 19 18  1  0  0  0  0
 20 21  1  0  0  0  0
 21 44  1  0  0  0  0
 21 16  2  0  0  0  0
 22 13  1  0  0  0  0
 23 22  2  0  0  0  0
 24  1  1  0  0  0  0
 25 45  1  0  0  0  0
 25 24  2  0  0  0  0
 26 25  1  0  0  0  0
 27 26  2  0  0  0  0
 27 28  1  0  0  0  0
 28 29  2  0  0  0  0
 29 24  1  0  0  0  0
 29 48  1  0  0  0  0
 30 27  1  0  0  0  0
 32  5  1  0  0  0  0
 33  6  1  0  0  0  0
 36  8  1  0  0  0  0
 41 18  1  0  0  0  0
 42 19  1  0  0  0  0
 43 20  1  0  0  0  0
 46 26  1  0  0  0  0
 47 28  1  0  0  0  0
M  END
>  <Pose>
1

>  <Score>
-6.78

$$$$
