
 OpenBabel03212208413D

 39 42  0  0  0  0  0  0  0  0999 V2000
   11.5400   30.0790   75.3540 B   0  0  0  0  0  0  0  0  0  0  0  0
   13.3340   29.8240   74.8070 C   0  0  0  0  0  0  0  0  0  0  0  0
   13.7590   30.4470   73.6330 C   0  0  0  0  0  0  0  0  0  0  0  0
   15.0790   30.2160   73.2960 C   0  0  0  0  0  0  0  0  0  0  0  0
   15.9290   29.4210   74.0690 C   0  0  0  0  0  0  0  0  0  0  0  0
   15.4520   28.8350   75.2150 C   0  0  0  0  0  0  0  0  0  0  0  0
   14.1430   29.0360   75.5900 C   0  0  0  0  0  0  0  0  0  0  0  0
   12.8680   31.2420   72.8810 N   0  0  0  0  0  0  0  0  0  0  0  0
   13.1560   32.1560   71.8680 C   0  0  0  0  0  0  0  0  0  0  0  0
   12.4460   33.1600   71.6720 O   0  0  0  0  0  0  0  0  0  0  0  0
   14.3250   31.9790   70.9670 C   0  0  0  0  0  0  0  0  0  0  0  0
   15.4180   32.8880   71.3500 N   0  0  0  0  0  0  0  0  0  0  0  0
   15.6720   33.3700   72.5550 N   0  0  0  0  0  0  0  0  0  0  0  0
   16.7400   34.1590   72.5110 N   0  0  0  0  0  0  0  0  0  0  0  0
   17.1880   34.1870   71.2380 C   0  0  0  0  0  0  0  0  0  0  0  0
   16.3470   33.3920   70.5560 N   0  0  0  0  0  0  0  0  0  0  0  0
   18.3360   34.9230   70.7290 C   0  0  0  0  0  0  0  0  0  0  0  0
   18.1290   36.1970   70.2540 C   0  0  0  0  0  0  0  0  0  0  0  0
   19.2220   36.8960   69.7690 C   0  0  0  0  0  0  0  0  0  0  0  0
   20.4840   36.3590   69.7510 C   0  0  0  0  0  0  0  0  0  0  0  0
   20.6940   35.0810   70.2280 C   0  0  0  0  0  0  0  0  0  0  0  0
   19.6010   34.3830   70.7120 C   0  0  0  0  0  0  0  0  0  0  0  0
   16.8460   36.8220   70.2400 N   0  0  0  0  0  0  0  0  0  0  0  0
   16.5680   37.9590   70.8660 N   0  0  0  0  0  0  0  0  0  0  0  0
   15.3060   38.2600   70.6540 N   0  0  0  0  0  0  0  0  0  0  0  0
   14.7780   37.3070   69.8890 N   0  0  0  0  0  0  0  0  0  0  0  0
   15.7470   36.4050   69.6290 C   0  0  0  0  0  0  0  0  0  0  0  0
   15.5120   30.6390   72.4220 H   0  0  0  0  0  0  0  0  0  0  0  0
   16.9500   29.2590   73.7850 H   0  0  0  0  0  0  0  0  0  0  0  0
   16.0670   28.2140   75.8450 H   0  0  0  0  0  0  0  0  0  0  0  0
   13.8010   28.5610   76.4960 H   0  0  0  0  0  0  0  0  0  0  0  0
   11.8380   31.1290   73.1180 H   0  0  0  0  0  0  0  0  0  0  0  0
   14.0790   32.1120   69.9070 H   0  0  0  0  0  0  0  0  0  0  0  0
   14.7680   30.9530   71.0690 H   0  0  0  0  0  0  0  0  0  0  0  0
   19.0700   37.9010   69.3930 H   0  0  0  0  0  0  0  0  0  0  0  0
   21.3520   36.9000   69.3730 H   0  0  0  0  0  0  0  0  0  0  0  0
   21.6890   34.6390   70.2220 H   0  0  0  0  0  0  0  0  0  0  0  0
   19.7910   33.3840   71.0800 H   0  0  0  0  0  0  0  0  0  0  0  0
   15.6680   35.5040   69.0390 H   0  0  0  0  0  0  0  0  0  0  0  0
  2  1  1  0  0  0  0
  2  7  1  0  0  0  0
  3  2  2  0  0  0  0
  4  3  1  0  0  0  0
  4  5  2  0  0  0  0
  5  6  1  0  0  0  0
  6  7  2  0  0  0  0
  6 30  1  0  0  0  0
  7 31  1  0  0  0  0
  8 32  1  0  0  0  0
  8  3  1  0  0  0  0
  9  8  1  0  0  0  0
 10  9  2  0  0  0  0
 11 34  1  0  0  0  0
 11 12  1  0  0  0  0
 11  9  1  0  0  0  0
 12 13  1  0  0  0  0
 14 13  1  0  0  0  0
 15 14  2  0  0  0  0
 16 15  1  0  0  0  0
 16 12  1  0  0  0  0
 17 15  1  0  0  0  0
 18 17  2  0  0  0  0
 19 18  1  0  0  0  0
 20 19  2  0  0  0  0
 20 21  1  0  0  0  0
 21 22  2  0  0  0  0
 22 17  1  0  0  0  0
 22 38  1  0  0  0  0
 23 18  1  0  0  0  0
 23 24  1  0  0  0  0
 25 24  2  0  0  0  0
 26 25  1  0  0  0  0
 27 26  2  0  0  0  0
 27 23  1  0  0  0  0
 28  4  1  0  0  0  0
 29  5  1  0  0  0  0
 33 11  1  0  0  0  0
 35 19  1  0  0  0  0
 36 20  1  0  0  0  0
 37 21  1  0  0  0  0
 39 27  1  0  0  0  0
M  END
>  <Pose>
1

>  <Score>
-7.24

$$$$
