
 OpenBabel03212208413D

 54 58  0  0  1  0  0  0  0  0999 V2000
   19.9340   30.7200   67.6060 Cl  0  0  0  0  0  0  0  0  0  0  0  0
   20.2500   31.5870   69.1180 C   0  0  0  0  0  0  0  0  0  0  0  0
   19.2410   32.2460   69.7770 C   0  0  0  0  0  0  0  0  0  0  0  0
   19.4940   32.9140   70.9450 C   0  0  0  0  0  0  0  0  0  0  0  0
   20.7680   32.9200   71.4540 C   0  0  0  0  0  0  0  0  0  0  0  0
   21.8130   32.2600   70.8070 C   0  0  0  0  0  0  0  0  0  0  0  0
   21.5270   31.5980   69.6350 C   0  0  0  0  0  0  0  0  0  0  0  0
   20.8350   33.6600   72.6580 N   0  0  0  0  0  0  0  0  0  0  0  0
   19.5230   34.1410   72.9100 C   0  0  0  0  0  0  0  0  0  0  0  0
   19.1800   34.8430   73.8850 O   0  0  0  0  0  0  0  0  0  0  0  0
   18.6090   33.6890   71.8440 C   0  0  1  0  0  0  0  0  0  0  0  0
   17.9640   34.7870   71.1660 N   0  0  0  0  0  0  0  0  0  0  0  0
   16.6310   34.3800   70.8480 C   0  0  1  0  0  0  0  0  0  0  0  0
   16.1840   33.4440   71.9470 C   0  0  2  0  0  0  0  0  0  0  0  0
   17.5010   32.8910   72.4280 C   0  0  1  0  0  0  0  0  0  0  0  0
   17.5150   31.4550   72.0530 C   0  0  0  0  0  0  0  0  0  0  0  0
   18.4960   30.6800   71.9250 O   0  0  0  0  0  0  0  0  0  0  0  0
   16.1350   31.0890   71.8520 N   0  0  0  0  0  0  0  0  0  0  0  0
   15.4210   32.2740   71.4440 C   0  0  0  0  0  0  0  0  0  0  0  0
   14.3490   32.3300   70.7860 O   0  0  0  0  0  0  0  0  0  0  0  0
   15.5500   29.7750   72.0240 C   0  0  0  0  0  0  0  0  0  0  0  0
   14.5760   29.7920   73.1560 C   0  0  0  0  0  0  0  0  0  0  0  0
   14.7470   28.9670   74.2470 C   0  0  0  0  0  0  0  0  0  0  0  0
   13.8310   29.0020   75.2840 C   0  0  0  0  0  0  0  0  0  0  0  0
   12.7370   29.8450   75.2660 C   0  0  0  0  0  0  0  0  0  0  0  0
   12.5570   30.6730   74.1810 C   0  0  0  0  0  0  0  0  0  0  0  0
   13.4750   30.6290   73.1570 C   0  0  0  0  0  0  0  0  0  0  0  0
   15.8550   28.1140   74.2640 O   0  0  0  0  0  0  0  0  0  0  0  0
   15.6850   26.7710   73.7980 C   0  0  0  0  0  0  0  0  0  0  0  0
   15.6980   35.5640   70.7080 C   0  0  2  0  0  0  0  0  0  0  0  0
   14.4760   35.0840   70.2470 O   0  0  0  0  0  0  0  0  0  0  0  0
   16.2670   36.4330   69.5910 C   0  0  0  0  0  0  0  0  0  0  0  0
   18.2650   32.1960   69.3140 H   0  0  0  0  0  0  0  0  0  0  0  0
   22.8190   32.2610   71.2030 H   0  0  0  0  0  0  0  0  0  0  0  0
   22.3020   31.0620   69.0800 H   0  0  0  0  0  0  0  0  0  0  0  0
   21.6730   33.8460   73.2830 H   0  0  0  0  0  0  0  0  0  0  0  0
   18.5010   35.0600   70.3370 H   0  0  0  0  0  0  0  0  0  0  0  0
   16.6210   33.8370   69.9050 H   0  0  0  0  0  0  0  0  0  0  0  0
   15.6150   33.9720   72.7360 H   0  0  0  0  0  0  0  0  0  0  0  0
   17.5060   33.0270   73.5360 H   0  0  0  0  0  0  0  0  0  0  0  0
   15.0100   29.4220   71.1190 H   0  0  0  0  0  0  0  0  0  0  0  0
   16.3210   29.0030   72.2350 H   0  0  0  0  0  0  0  0  0  0  0  0
   13.9560   28.3620   76.1380 H   0  0  0  0  0  0  0  0  0  0  0  0
   12.0110   29.8870   76.0660 H   0  0  0  0  0  0  0  0  0  0  0  0
   11.7180   31.3570   74.1080 H   0  0  0  0  0  0  0  0  0  0  0  0
   13.3270   31.2720   72.3270 H   0  0  0  0  0  0  0  0  0  0  0  0
   14.9160   26.2960   74.4300 H   0  0  0  0  0  0  0  0  0  0  0  0
   16.6640   26.2500   73.8770 H   0  0  0  0  0  0  0  0  0  0  0  0
   15.3570   26.7320   72.7570 H   0  0  0  0  0  0  0  0  0  0  0  0
   15.5650   36.1140   71.6440 H   0  0  0  0  0  0  0  0  0  0  0  0
   14.3170   35.4110   69.3330 H   0  0  0  0  0  0  0  0  0  0  0  0
   15.4540   36.7890   68.9110 H   0  0  0  0  0  0  0  0  0  0  0  0
   16.8670   37.2710   69.9960 H   0  0  0  0  0  0  0  0  0  0  0  0
   16.9510   35.8410   68.9390 H   0  0  0  0  0  0  0  0  0  0  0  0
  1  2  1  0  0  0  0
  2  7  2  0  0  0  0
  2  3  1  0  0  0  0
  3  4  2  0  0  0  0
  4  5  1  0  0  0  0
  5  8  1  0  0  0  0
  6 34  1  0  0  0  0
  6  5  2  0  0  0  0
  7  6  1  0  0  0  0
  8  9  1  0  0  0  0
  8 36  1  0  0  0  0
  9 10  2  0  0  0  0
 11  4  1  6  0  0  0
 11 15  1  0  0  0  0
 11  9  1  0  0  0  0
 12 11  1  0  0  0  0
 13 38  1  6  0  0  0
 13 12  1  0  0  0  0
 13 14  1  0  0  0  0
 14 15  1  0  0  0  0
 14 39  1  1  0  0  0
 15 40  1  1  0  0  0
 16 15  1  0  0  0  0
 17 16  2  0  0  0  0
 18 21  1  0  0  0  0
 18 16  1  0  0  0  0
 19 18  1  0  0  0  0
 19 14  1  0  0  0  0
 20 19  2  0  0  0  0
 21 42  1  0  0  0  0
 21 22  1  0  0  0  0
 22 27  2  0  0  0  0
 22 23  1  0  0  0  0
 23 28  1  0  0  0  0
 23 24  2  0  0  0  0
 24 43  1  0  0  0  0
 25 24  1  0  0  0  0
 25 44  1  0  0  0  0
 26 25  2  0  0  0  0
 27 26  1  0  0  0  0
 29 48  1  0  0  0  0
 29 28  1  0  0  0  0
 29 47  1  0  0  0  0
 30 13  1  0  0  0  0
 30 50  1  1  0  0  0
 31 30  1  0  0  0  0
 32 53  1  0  0  0  0
 32 30  1  0  0  0  0
 33  3  1  0  0  0  0
 35  7  1  0  0  0  0
 37 12  1  0  0  0  0
 41 21  1  0  0  0  0
 45 26  1  0  0  0  0
 46 27  1  0  0  0  0
 49 29  1  0  0  0  0
 51 31  1  0  0  0  0
 52 32  1  0  0  0  0
 54 32  1  0  0  0  0
M  END
>  <Pose>
1

>  <Score>
-5.18

$$$$
