
 OpenBabel03212208413D

 53 56  0  0  0  0  0  0  0  0999 V2000
   11.3990   29.7500   75.2590 B   0  0  0  0  0  0  0  0  0  0  0  0
   13.1090   29.8990   74.4030 C   0  0  0  0  0  0  0  0  0  0  0  0
   14.2200   29.2570   74.9550 C   0  0  0  0  0  0  0  0  0  0  0  0
   15.4500   29.3790   74.3150 C   0  0  0  0  0  0  0  0  0  0  0  0
   15.6010   30.1120   73.1620 C   0  0  0  0  0  0  0  0  0  0  0  0
   16.8980   30.0710   72.7410 N   0  0  0  0  0  0  0  0  0  0  0  0
   17.5420   29.3140   73.6370 C   0  0  0  0  0  0  0  0  0  0  0  0
   16.6900   28.8650   74.6260 C   0  0  0  0  0  0  0  0  0  0  0  0
   17.4160   30.7340   71.5630 C   0  0  0  0  0  0  0  0  0  0  0  0
   18.7130   31.4390   71.8450 C   0  0  0  0  0  0  0  0  0  0  0  0
   19.7760   30.9090   71.4650 O   0  0  0  0  0  0  0  0  0  0  0  0
   18.7340   32.6670   72.5210 N   0  0  0  0  0  0  0  0  0  0  0  0
   19.9540   33.3350   72.9180 C   0  0  0  0  0  0  0  0  0  0  0  0
   19.8740   34.7560   72.3850 C   0  0  0  0  0  0  0  0  0  0  0  0
   18.7580   34.9370   71.5530 N   0  0  0  0  0  0  0  0  0  0  0  0
   17.4680   34.6530   72.0330 C   0  0  0  0  0  0  0  0  0  0  0  0
   17.5020   33.3860   72.8800 C   0  0  0  0  0  0  0  0  0  0  0  0
   18.9440   35.2350   70.1940 C   0  0  0  0  0  0  0  0  0  0  0  0
   19.6930   36.4930   69.9370 C   0  0  0  0  0  0  0  0  0  0  0  0
   19.5140   37.4300   70.7550 O   0  0  0  0  0  0  0  0  0  0  0  0
   20.5640   36.6760   68.8530 N   0  0  0  0  0  0  0  0  0  0  0  0
   21.8850   36.0790   68.8650 C   0  0  0  0  0  0  0  0  0  0  0  0
   22.0200   35.2710   67.5920 C   0  0  0  0  0  0  0  0  0  0  0  0
   21.9920   36.2080   66.5490 O   0  0  0  0  0  0  0  0  0  0  0  0
   20.7600   36.8050   66.4350 C   0  0  0  0  0  0  0  0  0  0  0  0
   20.2360   37.4490   67.6710 C   0  0  0  0  0  0  0  0  0  0  0  0
   14.5110   30.7470   72.6130 C   0  0  0  0  0  0  0  0  0  0  0  0
   13.2780   30.6290   73.2460 C   0  0  0  0  0  0  0  0  0  0  0  0
   14.0800   28.6930   75.8530 H   0  0  0  0  0  0  0  0  0  0  0  0
   18.6020   29.0830   73.5900 H   0  0  0  0  0  0  0  0  0  0  0  0
   16.8910   28.2440   75.4820 H   0  0  0  0  0  0  0  0  0  0  0  0
   17.6110   30.0180   70.7340 H   0  0  0  0  0  0  0  0  0  0  0  0
   16.7260   31.5290   71.2040 H   0  0  0  0  0  0  0  0  0  0  0  0
   20.8550   32.7970   72.6130 H   0  0  0  0  0  0  0  0  0  0  0  0
   20.0130   33.4140   74.0400 H   0  0  0  0  0  0  0  0  0  0  0  0
   20.7970   34.8840   71.7470 H   0  0  0  0  0  0  0  0  0  0  0  0
   19.9990   35.5010   73.2020 H   0  0  0  0  0  0  0  0  0  0  0  0
   16.9490   35.4650   72.5520 H   0  0  0  0  0  0  0  0  0  0  0  0
   16.8090   34.3890   71.1530 H   0  0  0  0  0  0  0  0  0  0  0  0
   17.6390   33.7080   73.9310 H   0  0  0  0  0  0  0  0  0  0  0  0
   16.6410   32.7410   72.7160 H   0  0  0  0  0  0  0  0  0  0  0  0
   19.4290   34.3510   69.6920 H   0  0  0  0  0  0  0  0  0  0  0  0
   17.9300   35.3020   69.7110 H   0  0  0  0  0  0  0  0  0  0  0  0
   22.6390   36.9150   68.7740 H   0  0  0  0  0  0  0  0  0  0  0  0
   22.0780   35.4980   69.7790 H   0  0  0  0  0  0  0  0  0  0  0  0
   23.0320   34.7990   67.5750 H   0  0  0  0  0  0  0  0  0  0  0  0
   21.2090   34.5350   67.5330 H   0  0  0  0  0  0  0  0  0  0  0  0
   20.8430   37.5930   65.6500 H   0  0  0  0  0  0  0  0  0  0  0  0
   20.0750   36.0400   66.0110 H   0  0  0  0  0  0  0  0  0  0  0  0
   20.6670   38.4660   67.7660 H   0  0  0  0  0  0  0  0  0  0  0  0
   19.1450   37.5910   67.5510 H   0  0  0  0  0  0  0  0  0  0  0  0
   14.5890   31.3360   71.7020 H   0  0  0  0  0  0  0  0  0  0  0  0
   12.4340   31.1360   72.7970 H   0  0  0  0  0  0  0  0  0  0  0  0
  2  3  1  0  0  0  0
  2  1  1  0  0  0  0
  3 29  1  0  0  0  0
  4  8  1  0  0  0  0
  4  3  2  0  0  0  0
  5  4  1  0  0  0  0
  6  5  1  0  0  0  0
  6  7  1  0  0  0  0
  7  8  2  0  0  0  0
  8 31  1  0  0  0  0
  9 10  1  0  0  0  0
  9  6  1  0  0  0  0
 10 12  1  0  0  0  0
 11 10  2  0  0  0  0
 12 17  1  0  0  0  0
 12 13  1  0  0  0  0
 13 35  1  0  0  0  0
 14 13  1  0  0  0  0
 14 37  1  0  0  0  0
 15 16  1  0  0  0  0
 15 14  1  0  0  0  0
 16 38  1  0  0  0  0
 16 17  1  0  0  0  0
 17 40  1  0  0  0  0
 18 15  1  0  0  0  0
 19 18  1  0  0  0  0
 19 20  2  0  0  0  0
 21 22  1  0  0  0  0
 21 19  1  0  0  0  0
 22 45  1  0  0  0  0
 23 22  1  0  0  0  0
 24 23  1  0  0  0  0
 25 24  1  0  0  0  0
 25 26  1  0  0  0  0
 26 50  1  0  0  0  0
 26 21  1  0  0  0  0
 27  5  2  0  0  0  0
 27 28  1  0  0  0  0
 28  2  2  0  0  0  0
 30  7  1  0  0  0  0
 32  9  1  0  0  0  0
 33  9  1  0  0  0  0
 34 13  1  0  0  0  0
 36 14  1  0  0  0  0
 39 16  1  0  0  0  0
 41 17  1  0  0  0  0
 42 18  1  0  0  0  0
 43 18  1  0  0  0  0
 44 22  1  0  0  0  0
 46 23  1  0  0  0  0
 47 23  1  0  0  0  0
 48 25  1  0  0  0  0
 49 25  1  0  0  0  0
 51 26  1  0  0  0  0
 52 27  1  0  0  0  0
 53 28  1  0  0  0  0
M  END
>  <Pose>
1

>  <Score>
-5.72

$$$$
