
 OpenBabel03212208413D

 47 50  0  0  1  0  0  0  0  0999 V2000
   16.8730   26.9580   72.9610 Cl  0  0  0  0  0  0  0  0  0  0  0  0
   15.9200   28.3880   73.2550 C   0  0  0  0  0  0  0  0  0  0  0  0
   16.2610   29.5960   72.6970 C   0  0  0  0  0  0  0  0  0  0  0  0
   15.5270   30.7510   72.9040 C   0  0  0  0  0  0  0  0  0  0  0  0
   14.4210   30.6760   73.6940 C   0  0  0  0  0  0  0  0  0  0  0  0
   14.0330   29.4760   74.2830 C   0  0  0  0  0  0  0  0  0  0  0  0
   14.7920   28.3470   74.0530 C   0  0  0  0  0  0  0  0  0  0  0  0
   15.9180   31.9900   72.3230 N   0  0  0  0  0  0  0  0  0  0  0  0
   15.1120   32.4960   71.2590 C   0  0  0  0  0  0  0  0  0  0  0  0
   14.0840   31.9170   70.8310 O   0  0  0  0  0  0  0  0  0  0  0  0
   15.4940   33.7270   70.6510 N   0  0  0  0  0  0  0  0  0  0  0  0
   16.6650   34.4120   71.1210 C   0  0  0  0  0  0  0  0  0  0  0  0
   16.8130   35.6090   70.7030 O   0  0  0  0  0  0  0  0  0  0  0  0
   17.6430   33.7840   72.0280 C   0  0  1  0  0  0  0  0  0  0  0  0
   17.0770   32.6550   72.8060 C   0  0  0  0  0  0  0  0  0  0  0  0
   17.6490   32.3220   73.8740 O   0  0  0  0  0  0  0  0  0  0  0  0
   18.8580   33.3210   71.2590 C   0  0  0  0  0  0  0  0  0  0  0  0
   20.0940   33.3810   71.7220 C   0  0  0  0  0  0  0  0  0  0  0  0
   20.9410   32.8300   70.6410 C   0  0  1  0  0  0  0  0  0  0  0  0
   20.0260   31.9160   69.9800 N   0  0  0  0  0  0  0  0  0  0  0  0
   18.8700   32.7340   69.9580 N   0  0  0  0  0  0  0  0  0  0  0  0
   21.3740   33.9080   69.7080 C   0  0  0  0  0  0  0  0  0  0  0  0
   22.1580   33.7230   68.6060 C   0  0  0  0  0  0  0  0  0  0  0  0
   22.5000   34.7510   67.7500 C   0  0  0  0  0  0  0  0  0  0  0  0
   22.0470   36.0360   67.9880 C   0  0  0  0  0  0  0  0  0  0  0  0
   21.2410   36.2200   69.1230 C   0  0  0  0  0  0  0  0  0  0  0  0
   20.9120   35.1840   69.9650 C   0  0  0  0  0  0  0  0  0  0  0  0
   22.3620   37.0830   67.1560 O   0  0  0  0  0  0  0  0  0  0  0  0
   21.4050   38.0530   66.7820 C   0  0  0  0  0  0  0  0  0  0  0  0
   23.3120   34.5080   66.6290 O   0  0  0  0  0  0  0  0  0  0  0  0
   17.1440   29.6840   72.0550 H   0  0  0  0  0  0  0  0  0  0  0  0
   13.8190   31.5670   73.8790 H   0  0  0  0  0  0  0  0  0  0  0  0
   13.1560   29.4900   74.8940 H   0  0  0  0  0  0  0  0  0  0  0  0
   14.4790   27.4320   74.5160 H   0  0  0  0  0  0  0  0  0  0  0  0
   14.9460   34.1570   69.8610 H   0  0  0  0  0  0  0  0  0  0  0  0
   17.9180   34.5630   72.7770 H   0  0  0  0  0  0  0  0  0  0  0  0
   20.3850   33.7560   72.6880 H   0  0  0  0  0  0  0  0  0  0  0  0
   21.8290   32.2830   71.0160 H   0  0  0  0  0  0  0  0  0  0  0  0
   20.3240   31.5900   69.0570 H   0  0  0  0  0  0  0  0  0  0  0  0
   18.1690   32.9150   69.2390 H   0  0  0  0  0  0  0  0  0  0  0  0
   22.5260   32.7520   68.3860 H   0  0  0  0  0  0  0  0  0  0  0  0
   20.9070   37.2380   69.2780 H   0  0  0  0  0  0  0  0  0  0  0  0
   20.2770   35.4200   70.8270 H   0  0  0  0  0  0  0  0  0  0  0  0
   20.4740   37.5570   66.3950 H   0  0  0  0  0  0  0  0  0  0  0  0
   21.7710   38.6620   65.9070 H   0  0  0  0  0  0  0  0  0  0  0  0
   21.1070   38.7190   67.6060 H   0  0  0  0  0  0  0  0  0  0  0  0
   23.3880   33.5530   66.2930 H   0  0  0  0  0  0  0  0  0  0  0  0
  1  2  1  0  0  0  0
  2  7  1  0  0  0  0
  3  4  1  0  0  0  0
  3  2  2  0  0  0  0
  4  5  2  0  0  0  0
  5 32  1  0  0  0  0
  5  6  1  0  0  0  0
  6 33  1  0  0  0  0
  7  6  2  0  0  0  0
  7 34  1  0  0  0  0
  8 15  1  0  0  0  0
  8  4  1  0  0  0  0
  9  8  1  0  0  0  0
 10  9  2  0  0  0  0
 11 12  1  0  0  0  0
 11  9  1  0  0  0  0
 12 14  1  0  0  0  0
 13 12  2  0  0  0  0
 14 36  1  1  0  0  0
 14 15  1  0  0  0  0
 15 16  2  0  0  0  0
 17 18  2  0  0  0  0
 17 14  1  0  0  0  0
 18 37  1  0  0  0  0
 19 38  1  1  0  0  0
 19 18  1  0  0  0  0
 20 19  1  0  0  0  0
 21 20  1  0  0  0  0
 21 17  1  0  0  0  0
 22 27  1  0  0  0  0
 22 19  1  0  0  0  0
 23 22  2  0  0  0  0
 24 25  2  0  0  0  0
 24 23  1  0  0  0  0
 25 26  1  0  0  0  0
 26 42  1  0  0  0  0
 26 27  2  0  0  0  0
 27 43  1  0  0  0  0
 28 25  1  0  0  0  0
 29 28  1  0  0  0  0
 29 46  1  0  0  0  0
 30 24  1  0  0  0  0
 31  3  1  0  0  0  0
 35 11  1  0  0  0  0
 39 20  1  0  0  0  0
 40 21  1  0  0  0  0
 41 23  1  0  0  0  0
 44 29  1  0  0  0  0
 45 29  1  0  0  0  0
 47 30  1  0  0  0  0
M  END
>  <Pose>
1

>  <Score>
-6.49

$$$$
