
 OpenBabel03212208413D

 47 51  0  0  1  0  0  0  0  0999 V2000
   13.5330   36.7620   69.4180 I   0  0  0  0  0  0  0  0  0  0  0  0
   13.7560   34.9750   70.5070 C   0  0  0  0  0  0  0  0  0  0  0  0
   14.9320   34.6670   71.1620 C   0  0  0  0  0  0  0  0  0  0  0  0
   15.0830   33.4830   71.8850 C   0  0  0  0  0  0  0  0  0  0  0  0
   14.0450   32.6090   71.9470 C   0  0  0  0  0  0  0  0  0  0  0  0
   12.8720   32.9280   71.2860 C   0  0  0  0  0  0  0  0  0  0  0  0
   12.7030   34.0910   70.5680 C   0  0  0  0  0  0  0  0  0  0  0  0
   14.1000   31.3610   72.6660 N   0  0  0  0  0  0  0  0  0  0  0  0
   13.1700   30.8680   73.4630 N   0  0  0  0  0  0  0  0  0  0  0  0
   13.5350   29.6770   73.9810 C   0  0  0  0  0  0  0  0  0  0  0  0
   12.8780   28.8950   74.8040 C   0  0  0  0  0  0  0  0  0  0  0  0
   14.7880   29.3990   73.4720 C   0  0  2  0  0  0  0  0  0  0  0  0
   15.5240   28.3070   73.7320 C   0  0  0  0  0  0  0  0  0  0  0  0
   16.7920   28.2330   73.0930 N   0  0  0  0  0  4  0  0  0  0  0  0
   17.9790   28.0780   73.9180 C   0  0  1  0  0  0  0  0  0  0  0  0
   18.7740   26.8650   73.4600 C   0  0  0  0  0  0  0  0  0  0  0  0
   19.9730   26.7630   74.2460 N   0  0  2  0  0  0  0  0  0  0  0  0
   19.5680   26.5970   75.6380 C   0  0  0  0  0  0  0  0  0  0  0  0
   18.8520   27.7450   76.1200 N   0  0  1  0  0  0  0  0  0  0  0  0
   19.6370   28.9460   75.9430 C   0  0  0  0  0  0  0  0  0  0  0  0
   20.0290   29.1410   74.5730 N   0  0  1  0  0  0  0  0  0  0  0  0
   20.7430   27.9730   74.0680 C   0  0  0  0  0  0  0  0  0  0  0  0
   18.8450   29.3100   73.7630 C   0  0  0  0  0  0  0  0  0  0  0  0
   17.6330   27.8760   75.3620 C   0  0  0  0  0  0  0  0  0  0  0  0
   15.1040   30.4670   72.6620 C   0  0  0  0  0  0  0  0  0  0  0  0
   16.1710   30.5950   72.0100 O   0  0  0  0  0  0  0  0  0  0  0  0
   15.7330   35.3940   71.0850 H   0  0  0  0  0  0  0  0  0  0  0  0
   16.0080   33.2570   72.3920 H   0  0  0  0  0  0  0  0  0  0  0  0
   12.0470   32.2200   71.3430 H   0  0  0  0  0  0  0  0  0  0  0  0
   11.7590   34.3170   70.0540 H   0  0  0  0  0  0  0  0  0  0  0  0
   12.2540   31.3270   73.6800 H   0  0  0  0  0  0  0  0  0  0  0  0
   13.3070   27.9660   75.1310 H   0  0  0  0  0  0  0  0  0  0  0  0
   11.9010   29.1610   75.1700 H   0  0  0  0  0  0  0  0  0  0  0  0
   15.1590   27.5310   74.3940 H   0  0  0  0  0  0  0  0  0  0  0  0
   16.9290   28.2820   72.0650 H   0  0  0  0  0  0  0  0  0  0  0  0
   18.1000   25.9870   73.5960 H   0  0  0  0  0  0  0  0  0  0  0  0
   18.9460   26.9580   72.3790 H   0  0  0  0  0  0  0  0  0  0  0  0
   20.4160   26.3010   76.2850 H   0  0  0  0  0  0  0  0  0  0  0  0
   18.8510   25.7260   75.6390 H   0  0  0  0  0  0  0  0  0  0  0  0
   20.5750   28.8790   76.5530 H   0  0  0  0  0  0  0  0  0  0  0  0
   19.0440   29.8240   76.2640 H   0  0  0  0  0  0  0  0  0  0  0  0
   20.8610   28.1290   72.9680 H   0  0  0  0  0  0  0  0  0  0  0  0
   21.7620   27.8880   74.5000 H   0  0  0  0  0  0  0  0  0  0  0  0
   18.2890   30.1870   74.1630 H   0  0  0  0  0  0  0  0  0  0  0  0
   19.0820   29.4260   72.6900 H   0  0  0  0  0  0  0  0  0  0  0  0
   16.9880   26.9790   75.4460 H   0  0  0  0  0  0  0  0  0  0  0  0
   17.0500   28.7360   75.7720 H   0  0  0  0  0  0  0  0  0  0  0  0
  1  2  1  0  0  0  0
  2  7  2  0  0  0  0
  2  3  1  0  0  0  0
  3  4  2  0  0  0  0
  4  5  1  0  0  0  0
  4 28  1  0  0  0  0
  5  8  1  0  0  0  0
  6 29  1  0  0  0  0
  6  5  2  0  0  0  0
  7  6  1  0  0  0  0
  8  9  1  0  0  0  0
  9 31  1  0  0  0  0
  9 10  1  0  0  0  0
 10 11  2  0  0  0  0
 11 32  1  0  0  0  0
 11 33  1  0  0  0  0
 12 13  1  1  0  0  0
 12 10  1  0  0  0  0
 13 34  1  0  0  0  0
 14 13  2  0  0  0  0
 15 14  1  6  0  0  0
 15 24  1  0  0  0  0
 16 36  1  0  0  0  0
 16 15  1  0  0  0  0
 17 16  1  6  0  0  0
 17 18  1  0  0  0  0
 18 39  1  0  0  0  0
 18 19  1  0  0  0  0
 18 38  1  0  0  0  0
 19 24  1  6  0  0  0
 20 19  1  0  0  0  0
 20 41  1  0  0  0  0
 20 40  1  0  0  0  0
 21 23  1  6  0  0  0
 21 20  1  0  0  0  0
 22 17  1  0  0  0  0
 22 43  1  0  0  0  0
 22 21  1  0  0  0  0
 23 15  1  0  0  0  0
 23 44  1  0  0  0  0
 24 46  1  0  0  0  0
 24 47  1  0  0  0  0
 25  8  1  0  0  0  0
 25 12  1  0  0  0  0
 26 25  2  0  0  0  0
 27  3  1  0  0  0  0
 30  7  1  0  0  0  0
 35 14  1  0  0  0  0
 37 16  1  0  0  0  0
 42 22  1  0  0  0  0
 45 23  1  0  0  0  0
M  END
>  <Pose>
1

>  <Score>
-5.39

$$$$
