
 OpenBabel03212208413D

 61 64  0  0  1  0  0  0  0  0999 V2000
   16.8590   27.1300   73.2430 S   0  0  0  0  0  0  0  0  0  0  0  0
   16.2890   25.9000   73.9460 O   0  0  0  0  0  0  0  0  0  0  0  0
   17.1000   26.6440   71.8120 O   0  0  0  0  0  0  0  0  0  0  0  0
   18.3120   27.6180   73.8810 N   0  0  0  0  0  0  0  0  0  0  0  0
   18.5030   28.1290   75.1500 C   0  0  1  0  0  0  0  0  0  0  0  0
   19.3060   27.0610   75.9060 C   0  0  0  0  0  0  0  0  0  0  0  0
   20.2190   26.5410   74.8170 C   0  0  0  0  0  0  0  0  0  0  0  0
   19.4330   26.7450   73.5450 C   0  0  0  0  0  0  0  0  0  0  0  0
   19.3600   29.3790   75.0410 C   0  0  0  0  0  0  0  0  0  0  0  0
   20.3630   29.4080   75.7660 O   0  0  0  0  0  0  0  0  0  0  0  0
   18.9840   30.4030   74.1540 N   0  0  0  0  0  0  0  0  0  0  0  0
   19.6160   30.5130   72.8620 C   0  0  0  0  0  0  0  0  0  0  0  0
   20.4340   31.7280   72.6470 C   0  0  0  0  0  0  0  0  0  0  0  0
   19.7740   32.8420   72.0640 N   0  0  0  0  0  0  0  0  0  0  0  0
   19.3520   32.6750   70.7110 C   0  0  0  0  0  0  0  0  0  0  0  0
   17.9970   33.3380   70.5630 C   0  0  0  0  0  0  0  0  0  0  0  0
   18.0880   34.7560   71.0890 C   0  0  0  0  0  0  0  0  0  0  0  0
   19.3290   35.3920   70.5250 C   0  0  0  0  0  0  0  0  0  0  0  0
   20.5850   35.0210   71.2210 C   0  0  0  0  0  0  0  0  0  0  0  0
   20.4510   34.0650   72.3460 C   0  0  0  0  0  0  0  0  0  0  0  0
   15.6300   28.3580   73.1630 C   0  0  0  0  0  0  0  0  0  0  0  0
   15.7320   29.3530   72.1760 C   0  0  0  0  0  0  0  0  0  0  0  0
   14.8620   30.3980   72.0580 C   0  0  0  0  0  0  0  0  0  0  0  0
   13.8260   30.4640   72.9730 C   0  0  0  0  0  0  0  0  0  0  0  0
   13.6670   29.5330   73.9550 C   0  0  0  0  0  0  0  0  0  0  0  0
   14.5820   28.4890   74.0290 C   0  0  0  0  0  0  0  0  0  0  0  0
   14.2500   27.2800   75.2490 Cl  0  0  0  0  0  0  0  0  0  0  0  0
   12.9000   31.5550   72.8570 N   0  0  0  0  0  0  0  0  0  0  0  0
   13.0750   32.5170   71.8200 C   0  0  0  0  0  0  0  0  0  0  0  0
   12.6070   33.6630   71.9470 O   0  0  0  0  0  0  0  0  0  0  0  0
   13.8250   32.0880   70.6130 C   0  0  0  0  0  0  0  0  0  0  0  0
   14.9670   31.3770   71.0820 O   0  0  0  0  0  0  0  0  0  0  0  0
   17.6490   28.3340   75.7970 H   0  0  0  0  0  0  0  0  0  0  0  0
   19.8120   27.4480   76.7840 H   0  0  0  0  0  0  0  0  0  0  0  0
   18.5920   26.2770   76.2130 H   0  0  0  0  0  0  0  0  0  0  0  0
   21.1390   27.1730   74.8540 H   0  0  0  0  0  0  0  0  0  0  0  0
   20.4500   25.4750   74.9270 H   0  0  0  0  0  0  0  0  0  0  0  0
   19.0680   25.7790   73.1270 H   0  0  0  0  0  0  0  0  0  0  0  0
   20.0560   27.2810   72.8090 H   0  0  0  0  0  0  0  0  0  0  0  0
   18.2580   31.1110   74.3860 H   0  0  0  0  0  0  0  0  0  0  0  0
   20.3120   29.6280   72.7710 H   0  0  0  0  0  0  0  0  0  0  0  0
   18.8960   30.4020   72.0370 H   0  0  0  0  0  0  0  0  0  0  0  0
   21.3050   31.4710   72.0300 H   0  0  0  0  0  0  0  0  0  0  0  0
   20.8360   32.0640   73.6430 H   0  0  0  0  0  0  0  0  0  0  0  0
   19.3390   31.6230   70.3770 H   0  0  0  0  0  0  0  0  0  0  0  0
   20.0570   33.2110   70.0450 H   0  0  0  0  0  0  0  0  0  0  0  0
   17.7100   33.4320   69.4770 H   0  0  0  0  0  0  0  0  0  0  0  0
   17.1820   32.7600   71.0340 H   0  0  0  0  0  0  0  0  0  0  0  0
   17.2120   35.3590   70.8830 H   0  0  0  0  0  0  0  0  0  0  0  0
   18.2160   34.6980   72.1900 H   0  0  0  0  0  0  0  0  0  0  0  0
   19.1350   36.5040   70.4930 H   0  0  0  0  0  0  0  0  0  0  0  0
   19.4260   35.0960   69.4510 H   0  0  0  0  0  0  0  0  0  0  0  0
   21.3850   34.6910   70.4960 H   0  0  0  0  0  0  0  0  0  0  0  0
   21.0180   35.9710   71.6560 H   0  0  0  0  0  0  0  0  0  0  0  0
   19.9630   34.5450   73.2190 H   0  0  0  0  0  0  0  0  0  0  0  0
   21.4890   33.8240   72.6980 H   0  0  0  0  0  0  0  0  0  0  0  0
   16.5570   29.2840   71.4630 H   0  0  0  0  0  0  0  0  0  0  0  0
   12.8410   29.6190   74.6550 H   0  0  0  0  0  0  0  0  0  0  0  0
   12.1090   31.6170   73.5440 H   0  0  0  0  0  0  0  0  0  0  0  0
   14.1320   32.9090   69.9640 H   0  0  0  0  0  0  0  0  0  0  0  0
   13.2040   31.3330   70.0570 H   0  0  0  0  0  0  0  0  0  0  0  0
  1  4  1  0  0  0  0
  1  2  2  0  0  0  0
  3  1  2  0  0  0  0
  4  5  1  0  0  0  0
  5 33  1  1  0  0  0
  5  6  1  0  0  0  0
  6 35  1  0  0  0  0
  6 34  1  0  0  0  0
  7 36  1  0  0  0  0
  7 37  1  0  0  0  0
  7  6  1  0  0  0  0
  8  4  1  0  0  0  0
  8  7  1  0  0  0  0
  9  5  1  0  0  0  0
  9 10  2  0  0  0  0
 11 40  1  0  0  0  0
 11  9  1  0  0  0  0
 12 11  1  0  0  0  0
 13 12  1  0  0  0  0
 13 44  1  0  0  0  0
 14 20  1  0  0  0  0
 14 13  1  0  0  0  0
 15 14  1  0  0  0  0
 16 15  1  0  0  0  0
 16 48  1  0  0  0  0
 16 17  1  0  0  0  0
 17 50  1  0  0  0  0
 18 17  1  0  0  0  0
 18 19  1  0  0  0  0
 19 54  1  0  0  0  0
 19 20  1  0  0  0  0
 20 56  1  0  0  0  0
 20 55  1  0  0  0  0
 21  1  1  0  0  0  0
 21 26  1  0  0  0  0
 22 21  2  0  0  0  0
 23 22  1  0  0  0  0
 23 24  2  0  0  0  0
 24 25  1  0  0  0  0
 25 26  2  0  0  0  0
 25 58  1  0  0  0  0
 26 27  1  0  0  0  0
 28 24  1  0  0  0  0
 28 59  1  0  0  0  0
 29 30  2  0  0  0  0
 29 28  1  0  0  0  0
 31 32  1  0  0  0  0
 31 29  1  0  0  0  0
 32 23  1  0  0  0  0
 38  8  1  0  0  0  0
 39  8  1  0  0  0  0
 41 12  1  0  0  0  0
 42 12  1  0  0  0  0
 43 13  1  0  0  0  0
 45 15  1  0  0  0  0
 46 15  1  0  0  0  0
 47 16  1  0  0  0  0
 49 17  1  0  0  0  0
 51 18  1  0  0  0  0
 52 18  1  0  0  0  0
 53 19  1  0  0  0  0
 57 22  1  0  0  0  0
 60 31  1  0  0  0  0
 61 31  1  0  0  0  0
M  END
>  <Pose>
1

>  <Score>
-6.88

$$$$
