
 OpenBabel03212208413D

 47 50  0  0  0  0  0  0  0  0999 V2000
   25.4520   32.4470   69.7410 Cl  0  0  0  0  0  0  0  0  0  0  0  0
   23.7540   32.5370   70.1690 C   0  0  0  0  0  0  0  0  0  0  0  0
   23.2260   31.8900   71.2710 C   0  0  0  0  0  0  0  0  0  0  0  0
   21.8840   31.9690   71.6020 C   0  0  0  0  0  0  0  0  0  0  0  0
   21.0050   32.7070   70.8340 C   0  0  0  0  0  0  0  0  0  0  0  0
   21.5200   33.3570   69.7320 C   0  0  0  0  0  0  0  0  0  0  0  0
   22.8700   33.2780   69.4000 C   0  0  0  0  0  0  0  0  0  0  0  0
   19.6290   32.7760   71.1920 N   0  0  0  0  0  0  0  0  0  0  0  0
   18.8880   31.7790   71.5230 N   0  0  0  0  0  0  0  0  0  0  0  0
   17.5950   32.1800   71.8150 C   0  0  0  0  0  0  0  0  0  0  0  0
   17.5740   33.4890   71.6480 N   0  0  0  0  0  0  0  0  0  0  0  0
   18.8420   33.8530   71.2570 C   0  0  0  0  0  0  0  0  0  0  0  0
   19.1690   35.0340   71.0110 O   0  0  0  0  0  0  0  0  0  0  0  0
   16.5230   34.4220   71.9090 C   0  0  0  0  0  0  0  0  0  0  0  0
   16.1180   35.2570   70.7630 C   0  0  0  0  0  0  0  0  0  0  0  0
   17.1150   35.8840   70.2100 O   0  0  0  0  0  0  0  0  0  0  0  0
   14.8860   35.4800   70.1890 N   0  0  0  0  0  0  0  0  0  0  0  0
   14.3280   36.7690   69.8780 C   0  0  0  0  0  0  0  0  0  0  0  0
   12.9540   36.6580   69.1930 C   0  0  0  0  0  0  0  0  0  0  0  0
   12.0750   35.8250   70.0190 N   0  0  0  0  0  0  0  0  0  0  0  0
   12.7060   34.6070   70.4710 C   0  0  0  0  0  0  0  0  0  0  0  0
   12.1390   33.8780   71.3170 O   0  0  0  0  0  0  0  0  0  0  0  0
   14.0280   34.3280   69.8610 C   0  0  0  0  0  0  0  0  0  0  0  0
   16.6000   31.1970   72.2390 C   0  0  0  0  0  0  0  0  0  0  0  0
   15.2460   31.5340   72.1110 C   0  0  0  0  0  0  0  0  0  0  0  0
   14.2170   30.7340   72.5240 C   0  0  0  0  0  0  0  0  0  0  0  0
   14.4750   29.5030   73.1140 C   0  0  0  0  0  0  0  0  0  0  0  0
   15.7920   29.1650   73.2470 C   0  0  0  0  0  0  0  0  0  0  0  0
   16.8400   29.9880   72.8230 C   0  0  0  0  0  0  0  0  0  0  0  0
   23.9110   31.3110   71.8750 H   0  0  0  0  0  0  0  0  0  0  0  0
   21.4720   31.4670   72.4600 H   0  0  0  0  0  0  0  0  0  0  0  0
   20.8350   33.9300   69.1350 H   0  0  0  0  0  0  0  0  0  0  0  0
   23.2660   33.7880   68.5360 H   0  0  0  0  0  0  0  0  0  0  0  0
   16.6550   35.0510   72.7610 H   0  0  0  0  0  0  0  0  0  0  0  0
   15.5940   33.7790   72.1770 H   0  0  0  0  0  0  0  0  0  0  0  0
   15.0010   37.2120   69.0960 H   0  0  0  0  0  0  0  0  0  0  0  0
   14.2430   37.4340   70.7290 H   0  0  0  0  0  0  0  0  0  0  0  0
   13.0540   36.1750   68.2090 H   0  0  0  0  0  0  0  0  0  0  0  0
   12.5410   37.6670   69.0420 H   0  0  0  0  0  0  0  0  0  0  0  0
   11.1110   36.0760   70.2540 H   0  0  0  0  0  0  0  0  0  0  0  0
   14.4810   33.4080   70.3020 H   0  0  0  0  0  0  0  0  0  0  0  0
   13.9730   34.2630   68.7500 H   0  0  0  0  0  0  0  0  0  0  0  0
   15.0290   32.5010   71.6410 H   0  0  0  0  0  0  0  0  0  0  0  0
   13.1820   31.0160   72.4160 H   0  0  0  0  0  0  0  0  0  0  0  0
   13.6800   28.8570   73.4460 H   0  0  0  0  0  0  0  0  0  0  0  0
   16.0330   28.2010   73.7130 H   0  0  0  0  0  0  0  0  0  0  0  0
   17.8230   29.6470   72.9960 H   0  0  0  0  0  0  0  0  0  0  0  0
  1  2  1  0  0  0  0
  2  3  1  0  0  0  0
  3  4  2  0  0  0  0
  3 30  1  0  0  0  0
  4 31  1  0  0  0  0
  5  8  1  0  0  0  0
  5  4  1  0  0  0  0
  6  5  2  0  0  0  0
  7  6  1  0  0  0  0
  7  2  2  0  0  0  0
  8 12  1  0  0  0  0
  8  9  1  0  0  0  0
  9 10  2  0  0  0  0
 10 24  1  0  0  0  0
 11 10  1  0  0  0  0
 11 14  1  0  0  0  0
 12 11  1  0  0  0  0
 13 12  2  0  0  0  0
 14 35  1  0  0  0  0
 14 34  1  0  0  0  0
 15 14  1  0  0  0  0
 16 15  2  0  0  0  0
 17 15  1  0  0  0  0
 18 17  1  0  0  0  0
 18 37  1  0  0  0  0
 19 18  1  0  0  0  0
 19 20  1  0  0  0  0
 20 40  1  0  0  0  0
 20 21  1  0  0  0  0
 21 22  2  0  0  0  0
 23 17  1  0  0  0  0
 23 41  1  0  0  0  0
 23 21  1  0  0  0  0
 24 29  1  0  0  0  0
 25 24  2  0  0  0  0
 25 26  1  0  0  0  0
 26 27  2  0  0  0  0
 27 28  1  0  0  0  0
 27 45  1  0  0  0  0
 28 46  1  0  0  0  0
 29 47  1  0  0  0  0
 29 28  2  0  0  0  0
 32  6  1  0  0  0  0
 33  7  1  0  0  0  0
 36 18  1  0  0  0  0
 38 19  1  0  0  0  0
 39 19  1  0  0  0  0
 42 23  1  0  0  0  0
 43 25  1  0  0  0  0
 44 26  1  0  0  0  0
M  END
>  <Pose>
1

>  <Score>
-6.58

$$$$
