
 OpenBabel03212208413D

 42 45  0  0  0  0  0  0  0  0999 V2000
   15.2600   36.2360   70.0470 Cl  0  0  0  0  0  0  0  0  0  0  0  0
   14.9610   34.6550   70.7740 C   0  0  0  0  0  0  0  0  0  0  0  0
   13.8910   33.8770   70.4330 C   0  0  0  0  0  0  0  0  0  0  0  0
   13.6250   32.6390   70.9790 C   0  0  0  0  0  0  0  0  0  0  0  0
   14.5150   32.1660   71.9380 C   0  0  0  0  0  0  0  0  0  0  0  0
   15.6150   32.9590   72.2930 C   0  0  0  0  0  0  0  0  0  0  0  0
   15.8340   34.1810   71.7220 C   0  0  0  0  0  0  0  0  0  0  0  0
   14.3080   30.9070   72.5410 N   0  0  0  0  0  0  0  0  0  0  0  0
   13.1580   30.4560   72.9830 N   0  0  0  0  0  0  0  0  0  0  0  0
   13.3880   29.2420   73.4740 N   0  0  0  0  0  0  0  0  0  0  0  0
   14.6870   28.9120   73.3480 C   0  0  0  0  0  0  0  0  0  0  0  0
   15.2500   29.9720   72.7590 C   0  0  0  0  0  0  0  0  0  0  0  0
   16.5900   29.6350   72.6260 C   0  0  0  0  0  0  0  0  0  0  0  0
   17.4500   30.3850   72.1120 O   0  0  0  0  0  0  0  0  0  0  0  0
   16.8490   28.4130   73.1150 N   0  0  0  0  0  0  0  0  0  0  0  0
   15.6640   27.9610   73.5650 C   0  0  0  0  0  0  0  0  0  0  0  0
   15.4720   26.8320   74.1070 O   0  0  0  0  0  0  0  0  0  0  0  0
   18.0860   27.7090   73.1680 C   0  0  0  0  0  0  0  0  0  0  0  0
   18.2550   26.4450   72.6370 C   0  0  0  0  0  0  0  0  0  0  0  0
   19.4560   25.7700   72.6910 C   0  0  0  0  0  0  0  0  0  0  0  0
   20.5610   26.3370   73.2920 C   0  0  0  0  0  0  0  0  0  0  0  0
   20.4080   27.5990   73.8280 C   0  0  0  0  0  0  0  0  0  0  0  0
   19.1990   28.2680   73.7670 C   0  0  0  0  0  0  0  0  0  0  0  0
   21.7700   25.6480   73.3430 O   0  0  0  0  0  0  0  0  0  0  0  0
   22.6540   25.5550   72.2690 C   0  0  0  0  0  0  0  0  0  0  0  0
   19.6260   24.4970   72.1560 O   0  0  0  0  0  0  0  0  0  0  0  0
   19.7240   23.4170   73.0660 C   0  0  0  0  0  0  0  0  0  0  0  0
   13.1980   34.2540   69.6810 H   0  0  0  0  0  0  0  0  0  0  0  0
   12.7660   32.0470   70.6860 H   0  0  0  0  0  0  0  0  0  0  0  0
   16.3200   32.5950   73.0460 H   0  0  0  0  0  0  0  0  0  0  0  0
   16.6910   34.8120   71.9890 H   0  0  0  0  0  0  0  0  0  0  0  0
   12.2210   30.9570   72.9580 H   0  0  0  0  0  0  0  0  0  0  0  0
   12.6360   28.6470   73.8970 H   0  0  0  0  0  0  0  0  0  0  0  0
   17.3950   25.9950   72.1650 H   0  0  0  0  0  0  0  0  0  0  0  0
   21.2730   28.0450   74.2990 H   0  0  0  0  0  0  0  0  0  0  0  0
   19.0900   29.2600   74.1910 H   0  0  0  0  0  0  0  0  0  0  0  0
   23.3530   24.6970   72.3460 H   0  0  0  0  0  0  0  0  0  0  0  0
   22.1230   25.4270   71.2890 H   0  0  0  0  0  0  0  0  0  0  0  0
   23.2350   26.4960   72.2070 H   0  0  0  0  0  0  0  0  0  0  0  0
   18.9040   23.4610   73.8030 H   0  0  0  0  0  0  0  0  0  0  0  0
   19.7260   22.4380   72.5530 H   0  0  0  0  0  0  0  0  0  0  0  0
   20.7000   23.5020   73.5860 H   0  0  0  0  0  0  0  0  0  0  0  0
  1  2  1  0  0  0  0
  2  7  1  0  0  0  0
  3  2  2  0  0  0  0
  3  4  1  0  0  0  0
  4  5  2  0  0  0  0
  5  6  1  0  0  0  0
  5  8  1  0  0  0  0
  6 30  1  0  0  0  0
  7 31  1  0  0  0  0
  7  6  2  0  0  0  0
  8 12  1  0  0  0  0
  8  9  1  0  0  0  0
  9 10  1  0  0  0  0
 10 33  1  0  0  0  0
 11 10  1  0  0  0  0
 11 16  1  0  0  0  0
 12 11  2  0  0  0  0
 13 12  1  0  0  0  0
 13 15  1  0  0  0  0
 14 13  2  0  0  0  0
 15 18  1  0  0  0  0
 15 16  1  0  0  0  0
 16 17  2  0  0  0  0
 18 23  1  0  0  0  0
 19 20  1  0  0  0  0
 19 18  2  0  0  0  0
 20 21  2  0  0  0  0
 21 24  1  0  0  0  0
 21 22  1  0  0  0  0
 22 35  1  0  0  0  0
 23 22  2  0  0  0  0
 23 36  1  0  0  0  0
 25 37  1  0  0  0  0
 25 24  1  0  0  0  0
 26 20  1  0  0  0  0
 26 27  1  0  0  0  0
 27 42  1  0  0  0  0
 27 40  1  0  0  0  0
 28  3  1  0  0  0  0
 29  4  1  0  0  0  0
 32  9  1  0  0  0  0
 34 19  1  0  0  0  0
 38 25  1  0  0  0  0
 39 25  1  0  0  0  0
 41 27  1  0  0  0  0
M  END
>  <Pose>
1

>  <Score>
-6.37

$$$$
