
 OpenBabel03212208413D

 42 45  0  0  0  0  0  0  0  0999 V2000
   12.7650   27.4880   76.6030 Cl  0  0  0  0  0  0  0  0  0  0  0  0
   12.9960   28.7530   75.3890 C   0  0  0  0  0  0  0  0  0  0  0  0
   13.9870   28.6220   74.4370 C   0  0  0  0  0  0  0  0  0  0  0  0
   14.2010   29.5770   73.4780 C   0  0  0  0  0  0  0  0  0  0  0  0
   13.4210   30.7230   73.4310 C   0  0  0  0  0  0  0  0  0  0  0  0
   12.4320   30.8370   74.3930 C   0  0  0  0  0  0  0  0  0  0  0  0
   12.2140   29.8780   75.3600 C   0  0  0  0  0  0  0  0  0  0  0  0
   13.6140   31.7320   72.4540 N   0  0  0  0  0  0  0  0  0  0  0  0
   12.6620   32.3270   71.7630 N   0  0  0  0  0  0  0  0  0  0  0  0
   13.2760   33.1970   70.9700 N   0  0  0  0  0  0  0  0  0  0  0  0
   14.6080   33.1680   71.1450 C   0  0  0  0  0  0  0  0  0  0  0  0
   14.8110   32.2340   72.0900 C   0  0  0  0  0  0  0  0  0  0  0  0
   16.1810   32.2060   72.2680 C   0  0  0  0  0  0  0  0  0  0  0  0
   16.7410   31.4280   73.0960 O   0  0  0  0  0  0  0  0  0  0  0  0
   16.8090   33.0840   71.4690 N   0  0  0  0  0  0  0  0  0  0  0  0
   15.8300   33.6840   70.7690 C   0  0  0  0  0  0  0  0  0  0  0  0
   16.0270   34.5850   69.9010 O   0  0  0  0  0  0  0  0  0  0  0  0
   18.2180   33.2930   71.4150 C   0  0  0  0  0  0  0  0  0  0  0  0
   19.0860   32.3390   70.9230 C   0  0  0  0  0  0  0  0  0  0  0  0
   20.4530   32.5180   70.8610 C   0  0  0  0  0  0  0  0  0  0  0  0
   20.9770   33.7100   71.3150 C   0  0  0  0  0  0  0  0  0  0  0  0
   20.1570   34.6990   71.8180 C   0  0  0  0  0  0  0  0  0  0  0  0
   18.7850   34.4720   71.8610 C   0  0  0  0  0  0  0  0  0  0  0  0
   20.7230   35.8850   72.2660 O   0  0  0  0  0  0  0  0  0  0  0  0
   20.8690   37.0000   71.4300 C   0  0  0  0  0  0  0  0  0  0  0  0
   21.2950   31.5120   70.3490 O   0  0  0  0  0  0  0  0  0  0  0  0
   22.2460   30.9180   71.2020 C   0  0  0  0  0  0  0  0  0  0  0  0
   14.6030   27.7140   74.4770 H   0  0  0  0  0  0  0  0  0  0  0  0
   14.9800   29.4670   72.7360 H   0  0  0  0  0  0  0  0  0  0  0  0
   11.8140   31.7470   74.3550 H   0  0  0  0  0  0  0  0  0  0  0  0
   11.4420   30.0020   76.0830 H   0  0  0  0  0  0  0  0  0  0  0  0
   11.6350   32.1340   71.8410 H   0  0  0  0  0  0  0  0  0  0  0  0
   12.7890   33.8260   70.2960 H   0  0  0  0  0  0  0  0  0  0  0  0
   18.6260   31.4090   70.5740 H   0  0  0  0  0  0  0  0  0  0  0  0
   22.0570   33.8530   71.2680 H   0  0  0  0  0  0  0  0  0  0  0  0
   18.1310   35.2610   72.2620 H   0  0  0  0  0  0  0  0  0  0  0  0
   21.7070   36.7740   70.7230 H   0  0  0  0  0  0  0  0  0  0  0  0
   19.9430   37.2790   70.9030 H   0  0  0  0  0  0  0  0  0  0  0  0
   21.1450   37.8730   72.0910 H   0  0  0  0  0  0  0  0  0  0  0  0
   21.8280   30.6280   72.1780 H   0  0  0  0  0  0  0  0  0  0  0  0
   22.6710   30.0160   70.7250 H   0  0  0  0  0  0  0  0  0  0  0  0
   23.1010   31.6070   71.4140 H   0  0  0  0  0  0  0  0  0  0  0  0
  2  1  1  0  0  0  0
  3 28  1  0  0  0  0
  3  2  2  0  0  0  0
  4  3  1  0  0  0  0
  5  4  2  0  0  0  0
  5  6  1  0  0  0  0
  6  7  2  0  0  0  0
  7  2  1  0  0  0  0
  7 31  1  0  0  0  0
  8  5  1  0  0  0  0
  9 32  1  0  0  0  0
  9  8  1  0  0  0  0
 10 11  1  0  0  0  0
 10  9  1  0  0  0  0
 11 12  2  0  0  0  0
 12 13  1  0  0  0  0
 12  8  1  0  0  0  0
 13 14  2  0  0  0  0
 15 13  1  0  0  0  0
 16 11  1  0  0  0  0
 16 15  1  0  0  0  0
 17 16  2  0  0  0  0
 18 15  1  0  0  0  0
 18 23  1  0  0  0  0
 19 18  2  0  0  0  0
 20 19  1  0  0  0  0
 20 21  2  0  0  0  0
 21 22  1  0  0  0  0
 22 23  2  0  0  0  0
 22 24  1  0  0  0  0
 23 36  1  0  0  0  0
 25 39  1  0  0  0  0
 25 24  1  0  0  0  0
 26 20  1  0  0  0  0
 26 27  1  0  0  0  0
 27 42  1  0  0  0  0
 27 40  1  0  0  0  0
 29  4  1  0  0  0  0
 30  6  1  0  0  0  0
 33 10  1  0  0  0  0
 34 19  1  0  0  0  0
 35 21  1  0  0  0  0
 37 25  1  0  0  0  0
 38 25  1  0  0  0  0
 41 27  1  0  0  0  0
M  END
>  <Pose>
1

>  <Score>
-6.34

$$$$
