
 OpenBabel03212208413D

 43 47  0  0  1  0  0  0  0  0999 V2000
   16.0660   28.8770   72.7420 Cl  0  0  0  0  0  0  0  0  0  0  0  0
   15.4490   30.3760   72.0800 C   0  0  0  0  0  0  0  0  0  0  0  0
   16.2570   31.4670   71.8070 C   0  0  0  0  0  0  0  0  0  0  0  0
   15.7600   32.6390   71.2860 C   0  0  2  0  0  0  0  0  0  0  0  0
   14.4080   32.6820   71.0440 C   0  0  0  0  0  0  0  0  0  0  0  0
   13.5600   31.6290   71.2960 C   0  0  0  0  0  0  0  0  0  0  0  0
   14.0960   30.4530   71.8250 C   0  0  0  0  0  0  0  0  0  0  0  0
   13.8390   33.9240   70.4850 C   0  0  0  0  0  0  0  0  0  0  0  0
   12.6380   34.2410   70.1660 N   0  0  0  0  0  0  0  0  0  0  0  0
   12.5510   35.5810   69.6500 C   0  0  0  0  0  0  0  0  0  0  0  0
   13.9560   36.0880   69.6950 C   0  0  0  0  0  0  0  0  0  0  0  0
   14.7240   34.9960   70.2320 N   0  0  0  0  0  0  0  0  0  0  0  0
   16.1360   34.8930   70.5060 C   0  0  0  0  0  0  0  0  0  0  0  0
   17.1530   35.7630   70.3510 N   0  0  0  0  0  0  0  0  0  0  0  0
   18.2790   35.1960   70.7510 N   0  0  0  0  0  0  0  0  0  0  0  0
   17.9370   33.9620   71.1550 C   0  0  0  0  0  0  0  0  0  0  0  0
   18.7770   33.1320   71.6060 O   0  0  0  0  0  0  0  0  0  0  0  0
   16.6110   33.7440   71.0150 N   0  0  0  0  0  0  0  0  0  0  0  0
   19.6270   35.7840   70.7570 C   0  0  0  0  0  0  0  0  0  0  0  0
   20.2690   35.4800   69.4510 C   0  0  0  0  0  0  0  0  0  0  0  0
   20.3090   34.2710   69.1100 O   0  0  0  0  0  0  0  0  0  0  0  0
   20.8130   36.4990   68.6240 N   0  0  0  0  0  0  0  0  0  0  0  0
   20.1370   37.0780   67.4790 C   0  0  0  0  0  0  0  0  0  0  0  0
   21.1440   37.9640   66.7950 C   0  0  0  0  0  0  0  0  0  0  0  0
   22.4550   37.3950   67.2970 C   0  0  0  0  0  0  0  0  0  0  0  0
   22.1030   37.1330   68.7650 C   0  0  0  0  0  0  0  0  0  0  0  0
   17.2960   31.3860   72.0100 H   0  0  0  0  0  0  0  0  0  0  0  0
   12.5130   31.6910   71.0980 H   0  0  0  0  0  0  0  0  0  0  0  0
   13.4120   29.6440   72.0130 H   0  0  0  0  0  0  0  0  0  0  0  0
   11.9200   36.2350   70.3070 H   0  0  0  0  0  0  0  0  0  0  0  0
   12.1560   35.5950   68.6060 H   0  0  0  0  0  0  0  0  0  0  0  0
   14.0490   37.0120   70.3070 H   0  0  0  0  0  0  0  0  0  0  0  0
   14.3140   36.2550   68.6500 H   0  0  0  0  0  0  0  0  0  0  0  0
   20.2110   35.3490   71.5940 H   0  0  0  0  0  0  0  0  0  0  0  0
   19.4990   36.8690   70.8760 H   0  0  0  0  0  0  0  0  0  0  0  0
   19.2820   37.6600   67.8780 H   0  0  0  0  0  0  0  0  0  0  0  0
   19.8080   36.2470   66.8170 H   0  0  0  0  0  0  0  0  0  0  0  0
   21.0740   39.0020   67.1940 H   0  0  0  0  0  0  0  0  0  0  0  0
   21.0750   37.9370   65.6890 H   0  0  0  0  0  0  0  0  0  0  0  0
   23.2760   38.1050   67.1850 H   0  0  0  0  0  0  0  0  0  0  0  0
   22.6530   36.4160   66.7820 H   0  0  0  0  0  0  0  0  0  0  0  0
   22.8530   36.5370   69.2790 H   0  0  0  0  0  0  0  0  0  0  0  0
   21.9210   38.1280   69.2230 H   0  0  0  0  0  0  0  0  0  0  0  0
  2  1  1  0  0  0  0
  3 27  1  0  0  0  0
  3  2  2  0  0  0  0
  4  5  1  6  0  0  0
  4  3  1  0  0  0  0
  5  6  1  0  0  0  0
  6  7  2  0  0  0  0
  7 29  1  0  0  0  0
  7  2  1  0  0  0  0
  8  5  2  0  0  0  0
  9  8  1  0  0  0  0
 10 11  1  0  0  0  0
 10  9  1  0  0  0  0
 10 30  1  0  0  0  0
 11 12  1  0  0  0  0
 11 32  1  0  0  0  0
 12  8  1  0  0  0  0
 12 13  1  0  0  0  0
 13 18  1  0  0  0  0
 14 13  2  0  0  0  0
 14 15  1  0  0  0  0
 15 19  1  0  0  0  0
 15 16  1  0  0  0  0
 16 17  2  0  0  0  0
 18 16  1  0  0  0  0
 18  4  1  0  0  0  0
 19 35  1  0  0  0  0
 19 34  1  0  0  0  0
 20 19  1  0  0  0  0
 21 20  2  0  0  0  0
 22 26  1  0  0  0  0
 22 20  1  0  0  0  0
 23 36  1  0  0  0  0
 23 22  1  0  0  0  0
 24 38  1  0  0  0  0
 24 25  1  0  0  0  0
 24 23  1  0  0  0  0
 25 26  1  0  0  0  0
 26 43  1  0  0  0  0
 26 42  1  0  0  0  0
 28  6  1  0  0  0  0
 31 10  1  0  0  0  0
 33 11  1  0  0  0  0
 37 23  1  0  0  0  0
 39 24  1  0  0  0  0
 40 25  1  0  0  0  0
 41 25  1  0  0  0  0
M  END
>  <Pose>
1

>  <Score>
-6.19

$$$$
