
 OpenBabel03162216083D

 38 42  0  0  1  0  0  0  0  0999 V2000
   24.2860   33.2920   67.7170 B   0  0  0  0  0  0  0  0  0  0  0  0
   22.9370   33.2160   69.0480 C   0  0  0  0  0  0  0  0  0  0  0  0
   23.2330   32.6890   70.2820 C   0  0  0  0  0  0  0  0  0  0  0  0
   22.2350   32.6470   71.2310 C   0  0  0  0  0  0  0  0  0  0  0  0
   20.9640   33.1120   70.9790 C   0  0  0  0  0  0  0  0  0  0  0  0
   20.6630   33.6460   69.7330 C   0  0  0  0  0  0  0  0  0  0  0  0
   21.6780   33.6870   68.7740 C   0  0  0  0  0  0  0  0  0  0  0  0
   19.9350   33.0650   71.9750 N   0  0  0  0  0  0  0  0  0  0  0  0
   19.2930   31.8600   72.3620 C   0  0  0  0  0  0  0  0  0  0  0  0
   19.7620   30.7140   72.1560 O   0  0  0  0  0  0  0  0  0  0  0  0
   18.0080   32.1870   73.0350 C   0  0  2  0  0  0  0  0  0  0  0  0
   16.8490   32.1600   72.0870 C   0  0  1  0  0  0  0  0  0  0  0  0
   16.0230   33.1490   72.6650 O   0  0  0  0  0  0  0  0  0  0  0  0
   16.9430   34.2220   72.5610 C   0  0  1  0  0  0  0  0  0  0  0  0
   18.0980   33.6850   73.3330 C   0  0  2  0  0  0  0  0  0  0  0  0
   19.3800   34.1410   72.7310 C   0  0  0  0  0  0  0  0  0  0  0  0
   19.8630   35.2670   72.8740 O   0  0  0  0  0  0  0  0  0  0  0  0
   17.2600   34.1290   71.1120 C   0  0  0  0  0  0  0  0  0  0  0  0
   17.2610   32.8270   70.8410 C   0  0  0  0  0  0  0  0  0  0  0  0
   16.1760   30.8630   71.9430 C   0  0  0  0  0  0  0  0  0  0  0  0
   15.2910   30.8070   70.9020 O   0  0  0  0  0  0  0  0  0  0  0  0
   14.0170   30.7370   71.4090 C   0  0  0  0  0  0  0  0  0  0  0  0
   14.1530   30.7420   72.8960 C   0  0  0  0  0  0  0  0  0  0  0  0
   15.5070   30.4990   73.0980 O   0  0  0  0  0  0  0  0  0  0  0  0
   24.2260   32.3050   70.5330 H   0  0  0  0  0  0  0  0  0  0  0  0
   22.4390   32.2310   72.2290 H   0  0  0  0  0  0  0  0  0  0  0  0
   19.6660   34.0060   69.5510 H   0  0  0  0  0  0  0  0  0  0  0  0
   21.4440   34.1020   67.8050 H   0  0  0  0  0  0  0  0  0  0  0  0
   17.8730   31.5780   73.9280 H   0  0  0  0  0  0  0  0  0  0  0  0
   16.5390   35.1650   72.8840 H   0  0  0  0  0  0  0  0  0  0  0  0
   18.0660   33.8770   74.4050 H   0  0  0  0  0  0  0  0  0  0  0  0
   17.4400   34.9890   70.4810 H   0  0  0  0  0  0  0  0  0  0  0  0
   17.5320   32.4460   69.8620 H   0  0  0  0  0  0  0  0  0  0  0  0
   16.9680   30.0850   71.7750 H   0  0  0  0  0  0  0  0  0  0  0  0
   13.4610   29.8360   71.0830 H   0  0  0  0  0  0  0  0  0  0  0  0
   13.4780   31.6710   71.1040 H   0  0  0  0  0  0  0  0  0  0  0  0
   13.5260   29.9240   73.3570 H   0  0  0  0  0  0  0  0  0  0  0  0
   13.8880   31.7260   73.3610 H   0  0  0  0  0  0  0  0  0  0  0  0
  1  2  1  0  0  0  0
  2  3  1  0  0  0  0
  3 25  1  0  0  0  0
  3  4  2  0  0  0  0
  4 26  1  0  0  0  0
  5  4  1  0  0  0  0
  5  8  1  0  0  0  0
  6  5  2  0  0  0  0
  7  2  2  0  0  0  0
  7  6  1  0  0  0  0
  8  9  1  0  0  0  0
  8 16  1  0  0  0  0
  9 11  1  0  0  0  0
 10  9  2  0  0  0  0
 11 15  1  0  0  0  0
 11 29  1  1  0  0  0
 12 20  1  6  0  0  0
 12 13  1  0  0  0  0
 12 11  1  0  0  0  0
 14 13  1  0  0  0  0
 14 30  1  1  0  0  0
 14 15  1  0  0  0  0
 15 31  1  1  0  0  0
 16 17  2  0  0  0  0
 16 15  1  0  0  0  0
 18 14  1  0  0  0  0
 19 18  2  0  0  0  0
 19 12  1  0  0  0  0
 20 24  1  0  0  0  0
 21 22  1  0  0  0  0
 21 20  1  0  0  0  0
 22 23  1  0  0  0  0
 23 24  1  0  0  0  0
 23 37  1  0  0  0  0
 23 38  1  0  0  0  0
 27  6  1  0  0  0  0
 28  7  1  0  0  0  0
 32 18  1  0  0  0  0
 33 19  1  0  0  0  0
 34 20  1  0  0  0  0
 35 22  1  0  0  0  0
 36 22  1  0  0  0  0
M  END
>  <Pose>
1

>  <Score>
-4.91

$$$$
