
 OpenBabel03212208413D

 57 60  0  0  1  0  0  0  0  0999 V2000
   21.2140   32.2570   70.7190 S   0  0  0  0  0  0  0  0  0  0  0  0
   22.2040   32.9700   69.8420 O   0  0  0  0  0  0  0  0  0  0  0  0
   20.6200   31.1590   69.8630 O   0  0  0  0  0  0  0  0  0  0  0  0
   19.9140   33.2860   71.1740 N   0  0  0  0  0  0  0  0  0  0  0  0
   19.7350   34.3570   70.2260 C   0  0  0  0  0  0  0  0  0  0  0  0
   18.3890   34.9880   70.4920 C   0  0  0  0  0  0  0  0  0  0  0  0
   17.8770   34.5100   71.7500 N   0  0  0  0  0  0  0  0  0  0  0  0
   18.7360   34.3620   72.9190 C   0  0  0  0  0  0  0  0  0  0  0  0
   20.1210   33.8820   72.4780 C   0  0  0  0  0  0  0  0  0  0  0  0
   16.5190   34.1640   71.8660 C   0  0  0  0  0  0  0  0  0  0  0  0
   15.8980   34.4430   72.9500 O   0  0  0  0  0  0  0  0  0  0  0  0
   15.8140   33.4800   70.7480 C   0  0  1  0  0  0  0  0  0  0  0  0
   15.6750   32.0010   70.9670 C   0  0  0  0  0  0  0  0  0  0  0  0
   14.2860   31.7930   71.3620 N   0  0  0  0  0  0  0  0  0  0  0  0
   13.6260   33.0410   71.4620 C   0  0  0  0  0  0  0  0  0  0  0  0
   12.5960   33.2490   72.1470 O   0  0  0  0  0  0  0  0  0  0  0  0
   14.3990   33.9720   70.6130 C   0  0  0  0  0  0  0  0  0  0  0  0
   13.6890   30.5020   71.6160 C   0  0  0  0  0  0  0  0  0  0  0  0
   13.7500   30.1390   73.0520 C   0  0  0  0  0  0  0  0  0  0  0  0
   14.9140   29.5800   73.5600 C   0  0  0  0  0  0  0  0  0  0  0  0
   15.0450   29.2150   74.8890 C   0  0  0  0  0  0  0  0  0  0  0  0
   13.9570   29.4280   75.7110 C   0  0  0  0  0  0  0  0  0  0  0  0
   12.7810   29.9830   75.2380 C   0  0  0  0  0  0  0  0  0  0  0  0
   12.6780   30.3420   73.8940 C   0  0  0  0  0  0  0  0  0  0  0  0
   16.2520   29.3360   72.4700 Cl  0  0  0  0  0  0  0  0  0  0  0  0
   21.9770   31.5380   72.1040 C   0  0  0  0  0  0  0  0  0  0  0  0
   23.3060   31.4410   72.4520 C   0  0  0  0  0  0  0  0  0  0  0  0
   23.3740   30.7680   73.6410 N   0  0  0  0  0  0  0  0  0  0  0  0
   22.1780   30.4770   73.9910 O   0  0  0  0  0  0  0  0  0  0  0  0
   21.2920   30.9040   73.1230 C   0  0  0  0  0  0  0  0  0  0  0  0
   19.8350   30.7050   73.2770 C   0  0  0  0  0  0  0  0  0  0  0  0
   24.4330   31.9840   71.6690 C   0  0  0  0  0  0  0  0  0  0  0  0
   20.5050   35.1650   70.3650 H   0  0  0  0  0  0  0  0  0  0  0  0
   19.8310   34.0140   69.1750 H   0  0  0  0  0  0  0  0  0  0  0  0
   18.4600   36.1070   70.4830 H   0  0  0  0  0  0  0  0  0  0  0  0
   17.7040   34.6640   69.6900 H   0  0  0  0  0  0  0  0  0  0  0  0
   18.7790   35.3080   73.4910 H   0  0  0  0  0  0  0  0  0  0  0  0
   18.2680   33.6030   73.5720 H   0  0  0  0  0  0  0  0  0  0  0  0
   20.5020   33.1950   73.2310 H   0  0  0  0  0  0  0  0  0  0  0  0
   20.7640   34.7850   72.4490 H   0  0  0  0  0  0  0  0  0  0  0  0
   16.3860   33.6940   69.7950 H   0  0  0  0  0  0  0  0  0  0  0  0
   15.9050   31.4640   70.0120 H   0  0  0  0  0  0  0  0  0  0  0  0
   16.3500   31.6100   71.7870 H   0  0  0  0  0  0  0  0  0  0  0  0
   14.2910   35.0270   70.9480 H   0  0  0  0  0  0  0  0  0  0  0  0
   14.0830   33.8430   69.5530 H   0  0  0  0  0  0  0  0  0  0  0  0
   14.1510   29.6880   71.0200 H   0  0  0  0  0  0  0  0  0  0  0  0
   12.6010   30.5620   71.3540 H   0  0  0  0  0  0  0  0  0  0  0  0
   15.9770   28.7850   75.2220 H   0  0  0  0  0  0  0  0  0  0  0  0
   14.0330   29.1480   76.7670 H   0  0  0  0  0  0  0  0  0  0  0  0
   11.9580   30.1310   75.9160 H   0  0  0  0  0  0  0  0  0  0  0  0
   11.7610   30.7730   73.5240 H   0  0  0  0  0  0  0  0  0  0  0  0
   19.3360   31.0490   72.3470 H   0  0  0  0  0  0  0  0  0  0  0  0
   19.6800   29.5890   73.3540 H   0  0  0  0  0  0  0  0  0  0  0  0
   19.4740   31.1890   74.1870 H   0  0  0  0  0  0  0  0  0  0  0  0
   25.2750   32.1320   72.4100 H   0  0  0  0  0  0  0  0  0  0  0  0
   24.8300   31.2990   70.9140 H   0  0  0  0  0  0  0  0  0  0  0  0
   24.1790   32.9790   71.2060 H   0  0  0  0  0  0  0  0  0  0  0  0
  1  4  1  0  0  0  0
  1 26  1  0  0  0  0
  2  1  2  0  0  0  0
  3  1  2  0  0  0  0
  4  9  1  0  0  0  0
  5 33  1  0  0  0  0
  5  6  1  0  0  0  0
  5  4  1  0  0  0  0
  6  7  1  0  0  0  0
  7 10  1  0  0  0  0
  7  8  1  0  0  0  0
  8 37  1  0  0  0  0
  8 38  1  0  0  0  0
  9  8  1  0  0  0  0
  9 39  1  0  0  0  0
 10 11  2  0  0  0  0
 12 41  1  6  0  0  0
 12 13  1  0  0  0  0
 12 10  1  0  0  0  0
 13 14  1  0  0  0  0
 13 43  1  0  0  0  0
 14 15  1  0  0  0  0
 14 18  1  0  0  0  0
 15 16  2  0  0  0  0
 17 12  1  0  0  0  0
 17 44  1  0  0  0  0
 17 15  1  0  0  0  0
 18 19  1  0  0  0  0
 19 20  2  0  0  0  0
 19 24  1  0  0  0  0
 20 21  1  0  0  0  0
 21 48  1  0  0  0  0
 21 22  2  0  0  0  0
 22 49  1  0  0  0  0
 23 22  1  0  0  0  0
 23 50  1  0  0  0  0
 24 23  2  0  0  0  0
 25 20  1  0  0  0  0
 26 27  1  0  0  0  0
 26 30  2  0  0  0  0
 27 28  2  0  0  0  0
 28 29  1  0  0  0  0
 30 31  1  0  0  0  0
 30 29  1  0  0  0  0
 31 53  1  0  0  0  0
 31 54  1  0  0  0  0
 32 55  1  0  0  0  0
 32 27  1  0  0  0  0
 34  5  1  0  0  0  0
 35  6  1  0  0  0  0
 36  6  1  0  0  0  0
 40  9  1  0  0  0  0
 42 13  1  0  0  0  0
 45 17  1  0  0  0  0
 46 18  1  0  0  0  0
 47 18  1  0  0  0  0
 51 24  1  0  0  0  0
 52 31  1  0  0  0  0
 56 32  1  0  0  0  0
 57 32  1  0  0  0  0
M  END
>  <Pose>
1

>  <Score>
-6.41

$$$$
