
 OpenBabel03212208413D

 35 38  0  0  1  0  0  0  0  0999 V2000
   15.0090   35.7420   70.5610 Cl  0  0  0  0  0  0  0  0  0  0  0  0
   14.7230   34.1430   71.2380 C   0  0  0  0  0  0  0  0  0  0  0  0
   13.4360   33.6540   71.2400 C   0  0  0  0  0  0  0  0  0  0  0  0
   13.2290   32.4330   71.7590 N   0  0  0  0  0  0  0  0  0  0  0  0
   14.2320   31.6730   72.2720 C   0  0  0  0  0  0  0  0  0  0  0  0
   15.4920   32.1400   72.2730 N   0  0  0  0  0  0  0  0  0  0  0  0
   16.2860   31.2250   72.8220 N   0  0  0  0  0  0  0  0  0  0  0  0
   15.5660   30.1460   73.1890 C   0  0  0  0  0  0  0  0  0  0  0  0
   14.2930   30.4530   72.8340 N   0  0  0  0  0  0  0  0  0  0  0  0
   16.0330   28.9520   73.8110 N   0  0  0  0  0  0  0  0  0  0  0  0
   15.9070   28.6250   75.1870 C   0  0  0  0  0  0  0  0  0  0  0  0
   15.1090   29.1070   76.0330 O   0  0  0  0  0  0  0  0  0  0  0  0
   16.9090   27.5610   75.5340 C   0  0  2  0  0  0  0  0  0  0  0  0
   17.4240   27.0570   74.2330 C   0  0  1  0  0  0  0  0  0  0  0  0
   17.0930   25.6040   73.9460 C   0  0  0  0  0  0  0  0  0  0  0  0
   15.6250   25.4460   74.1970 C   0  0  0  0  0  0  0  0  0  0  0  0
   15.2040   25.8780   75.3720 C   0  0  0  0  0  0  0  0  0  0  0  0
   16.2070   26.4590   76.2970 C   0  0  0  0  0  0  0  0  0  0  0  0
   16.7090   27.8540   73.2180 C   0  0  0  0  0  0  0  0  0  0  0  0
   16.6900   27.6030   71.9690 O   0  0  0  0  0  0  0  0  0  0  0  0
   15.7370   33.3700   71.7590 C   0  0  0  0  0  0  0  0  0  0  0  0
   16.9290   33.8140   71.7590 O   0  0  0  0  0  0  0  0  0  0  0  0
   12.3160   34.4800   70.6770 C   0  0  0  0  0  0  0  0  0  0  0  0
   12.2520   32.0550   71.7640 H   0  0  0  0  0  0  0  0  0  0  0  0
   17.7010   28.0120   76.1740 H   0  0  0  0  0  0  0  0  0  0  0  0
   18.5220   27.2290   74.2050 H   0  0  0  0  0  0  0  0  0  0  0  0
   17.3060   25.3910   72.8830 H   0  0  0  0  0  0  0  0  0  0  0  0
   17.6610   24.9580   74.6370 H   0  0  0  0  0  0  0  0  0  0  0  0
   14.9910   25.0050   73.4420 H   0  0  0  0  0  0  0  0  0  0  0  0
   14.1720   25.8110   75.6510 H   0  0  0  0  0  0  0  0  0  0  0  0
   15.7000   26.8620   77.2050 H   0  0  0  0  0  0  0  0  0  0  0  0
   16.9600   25.6860   76.5810 H   0  0  0  0  0  0  0  0  0  0  0  0
   12.2040   35.4240   71.2250 H   0  0  0  0  0  0  0  0  0  0  0  0
   12.4950   34.6790   69.5890 H   0  0  0  0  0  0  0  0  0  0  0  0
   11.3500   33.9410   70.7580 H   0  0  0  0  0  0  0  0  0  0  0  0
  1  2  1  0  0  0  0
  2  3  2  0  0  0  0
  2 21  1  0  0  0  0
  3  4  1  0  0  0  0
  4 24  1  0  0  0  0
  4  5  1  0  0  0  0
  5  6  1  0  0  0  0
  5  9  2  0  0  0  0
  6  7  1  0  0  0  0
  7  8  2  0  0  0  0
  8 10  1  0  0  0  0
  9  8  1  0  0  0  0
 10 11  1  0  0  0  0
 11 13  1  0  0  0  0
 11 12  2  0  0  0  0
 13 25  1  1  0  0  0
 13 18  1  0  0  0  0
 14 26  1  6  0  0  0
 14 13  1  0  0  0  0
 15 16  1  0  0  0  0
 15 14  1  0  0  0  0
 15 28  1  0  0  0  0
 16 17  2  0  0  0  0
 17 30  1  0  0  0  0
 17 18  1  0  0  0  0
 18 32  1  0  0  0  0
 18 31  1  0  0  0  0
 19 10  1  0  0  0  0
 19 14  1  0  0  0  0
 20 19  2  0  0  0  0
 21  6  1  0  0  0  0
 22 21  2  0  0  0  0
 23 35  1  0  0  0  0
 23 33  1  0  0  0  0
 23  3  1  0  0  0  0
 27 15  1  0  0  0  0
 29 16  1  0  0  0  0
 34 23  1  0  0  0  0
M  END
>  <Pose>
1

>  <Score>
-5.43

$$$$
