
 OpenBabel03212208413D

 42 45  0  0  1  0  0  0  0  0999 V2000
   17.8340   31.6600   72.9060 S   0  0  0  0  0  0  0  0  0  0  0  0
   18.7950   30.7600   73.6070 O   0  0  0  0  0  0  0  0  0  0  0  0
   17.1790   32.5570   73.9230 O   0  0  0  0  0  0  0  0  0  0  0  0
   16.5920   30.7320   72.1570 N   0  0  0  0  0  0  0  0  0  0  0  0
   15.5610   31.5460   71.5950 C   0  0  0  0  0  0  0  0  0  0  0  0
   14.2290   30.9960   72.0760 C   0  0  1  0  0  0  0  0  0  0  0  0
   14.6170   30.3570   73.3930 C   0  0  0  0  0  0  0  0  0  0  0  0
   15.9930   29.7810   73.0390 C   0  0  0  0  0  0  0  0  0  0  0  0
   13.3820   32.0990   72.3490 O   0  0  0  0  0  0  0  0  0  0  0  0
   13.4380   33.2700   71.6100 C   0  0  0  0  0  0  0  0  0  0  0  0
   14.6190   33.9520   71.6640 N   0  0  0  0  0  0  0  0  0  0  0  0
   14.7030   35.0910   70.9570 C   0  0  0  0  0  0  0  0  0  0  0  0
   13.6550   35.5740   70.2000 C   0  0  0  0  0  0  0  0  0  0  0  0
   12.4840   34.8410   70.1830 C   0  0  0  0  0  0  0  0  0  0  0  0
   12.4000   33.6960   70.8930 N   0  0  0  0  0  0  0  0  0  0  0  0
   13.7790   37.0610   69.2830 Cl  0  0  0  0  0  0  0  0  0  0  0  0
   18.6890   32.6510   71.7480 C   0  0  0  0  0  0  0  0  0  0  0  0
   19.1820   33.8880   72.1150 C   0  0  0  0  0  0  0  0  0  0  0  0
   19.8650   34.7120   71.2370 C   0  0  0  0  0  0  0  0  0  0  0  0
   20.0770   34.3010   69.9330 C   0  0  0  0  0  0  0  0  0  0  0  0
   19.5850   33.0710   69.5760 C   0  0  0  0  0  0  0  0  0  0  0  0
   18.9050   32.2480   70.4480 C   0  0  0  0  0  0  0  0  0  0  0  0
   20.7670   35.1550   69.0880 O   0  0  0  0  0  0  0  0  0  0  0  0
   20.8210   36.5590   69.2710 C   0  0  0  0  0  0  0  0  0  0  0  0
   20.7270   36.9720   70.7160 C   0  0  0  0  0  0  0  0  0  0  0  0
   20.3600   35.9450   71.5910 O   0  0  0  0  0  0  0  0  0  0  0  0
   15.5740   31.4030   70.4900 H   0  0  0  0  0  0  0  0  0  0  0  0
   15.6670   32.6140   71.7840 H   0  0  0  0  0  0  0  0  0  0  0  0
   13.8010   30.2850   71.3600 H   0  0  0  0  0  0  0  0  0  0  0  0
   14.6810   31.0940   74.1900 H   0  0  0  0  0  0  0  0  0  0  0  0
   13.9520   29.4970   73.6010 H   0  0  0  0  0  0  0  0  0  0  0  0
   16.5660   29.6380   73.9850 H   0  0  0  0  0  0  0  0  0  0  0  0
   15.8360   28.8230   72.5370 H   0  0  0  0  0  0  0  0  0  0  0  0
   15.6080   35.6790   70.9560 H   0  0  0  0  0  0  0  0  0  0  0  0
   11.6320   35.2010   69.5880 H   0  0  0  0  0  0  0  0  0  0  0  0
   19.0190   34.2190   73.1390 H   0  0  0  0  0  0  0  0  0  0  0  0
   19.7640   32.7630   68.5390 H   0  0  0  0  0  0  0  0  0  0  0  0
   18.5290   31.2910   70.1460 H   0  0  0  0  0  0  0  0  0  0  0  0
   21.7480   36.9290   68.8010 H   0  0  0  0  0  0  0  0  0  0  0  0
   19.9600   36.9790   68.6760 H   0  0  0  0  0  0  0  0  0  0  0  0
   21.7110   37.4340   70.9900 H   0  0  0  0  0  0  0  0  0  0  0  0
   19.9620   37.7750   70.7830 H   0  0  0  0  0  0  0  0  0  0  0  0
  1  2  2  0  0  0  0
  1  3  2  0  0  0  0
  4  1  1  0  0  0  0
  4  8  1  0  0  0  0
  5 28  1  0  0  0  0
  5  6  1  0  0  0  0
  5  4  1  0  0  0  0
  6 29  1  6  0  0  0
  6  9  1  0  0  0  0
  6  7  1  0  0  0  0
  7 31  1  0  0  0  0
  7 30  1  0  0  0  0
  8  7  1  0  0  0  0
  8 32  1  0  0  0  0
 10 11  2  0  0  0  0
 10  9  1  0  0  0  0
 12 11  1  0  0  0  0
 13 12  2  0  0  0  0
 14 13  1  0  0  0  0
 14 15  1  0  0  0  0
 15 10  2  0  0  0  0
 16 13  1  0  0  0  0
 17 18  1  0  0  0  0
 17  1  1  0  0  0  0
 18 36  1  0  0  0  0
 19 26  1  0  0  0  0
 19 18  2  0  0  0  0
 20 19  1  0  0  0  0
 21 20  2  0  0  0  0
 21 22  1  0  0  0  0
 22 17  2  0  0  0  0
 23 24  1  0  0  0  0
 23 20  1  0  0  0  0
 24 25  1  0  0  0  0
 25 42  1  0  0  0  0
 25 41  1  0  0  0  0
 25 26  1  0  0  0  0
 27  5  1  0  0  0  0
 33  8  1  0  0  0  0
 34 12  1  0  0  0  0
 35 14  1  0  0  0  0
 37 21  1  0  0  0  0
 38 22  1  0  0  0  0
 39 24  1  0  0  0  0
 40 24  1  0  0  0  0
M  END
>  <Pose>
1

>  <Score>
-6.64

$$$$
