
 OpenBabel03212208413D

 52 55  0  0  0  0  0  0  0  0999 V2000
   19.3420   28.1170   75.1100 Cl  0  0  0  0  0  0  0  0  0  0  0  0
   17.7300   28.5540   74.5510 C   0  0  0  0  0  0  0  0  0  0  0  0
   17.4610   28.9640   73.2750 C   0  0  0  0  0  0  0  0  0  0  0  0
   16.1750   29.3170   72.8400 C   0  0  0  0  0  0  0  0  0  0  0  0
   15.1630   29.2360   73.7470 C   0  0  0  0  0  0  0  0  0  0  0  0
   15.4310   28.8190   75.0430 C   0  0  0  0  0  0  0  0  0  0  0  0
   16.7000   28.4740   75.4630 C   0  0  0  0  0  0  0  0  0  0  0  0
   16.0090   29.7420   71.4240 C   0  0  0  0  0  0  0  0  0  0  0  0
   15.9630   31.1480   71.2030 N   0  0  0  0  0  0  0  0  0  0  0  0
   14.8130   31.8750   71.2610 C   0  0  0  0  0  0  0  0  0  0  0  0
   15.1310   33.1760   70.9690 C   0  0  0  0  0  0  0  0  0  0  0  0
   16.4450   33.1950   70.7480 N   0  0  0  0  0  0  0  0  0  0  0  0
   16.9810   31.9530   70.8880 C   0  0  0  0  0  0  0  0  0  0  0  0
   18.3860   31.6530   70.7550 N   0  0  0  0  0  0  0  0  0  0  0  0
   18.8620   31.5210   69.3970 C   0  0  0  0  0  0  0  0  0  0  0  0
   20.3480   31.2930   69.2950 C   0  0  0  0  0  0  0  0  0  0  0  0
   20.9920   32.2250   70.1470 N   0  0  0  0  0  0  0  0  0  0  0  0
   20.6830   32.0030   71.5200 C   0  0  0  0  0  0  0  0  0  0  0  0
   19.3110   31.4770   71.8210 C   0  0  0  0  0  0  0  0  0  0  0  0
   20.7710   33.5640   69.7010 C   0  0  0  0  0  0  0  0  0  0  0  0
   21.7400   34.5570   70.2510 C   0  0  0  0  0  0  0  0  0  0  0  0
   21.5400   35.7810   70.2910 O   0  0  0  0  0  0  0  0  0  0  0  0
   22.9640   33.9970   70.7490 N   0  0  0  0  0  0  0  0  0  0  0  0
   14.1480   34.0930   70.9810 N   0  0  0  0  0  0  0  0  0  0  0  0
   12.8630   33.7580   71.2750 C   0  0  0  0  0  0  0  0  0  0  0  0
   11.9270   34.6180   71.2880 O   0  0  0  0  0  0  0  0  0  0  0  0
   12.5210   32.4910   71.5660 N   0  0  0  0  0  0  0  0  0  0  0  0
   13.4890   31.5640   71.5580 C   0  0  0  0  0  0  0  0  0  0  0  0
   13.1390   30.3950   71.8350 O   0  0  0  0  0  0  0  0  0  0  0  0
   14.4320   35.4730   70.6860 C   0  0  0  0  0  0  0  0  0  0  0  0
   18.2930   29.0200   72.5860 H   0  0  0  0  0  0  0  0  0  0  0  0
   14.1520   29.4870   73.4650 H   0  0  0  0  0  0  0  0  0  0  0  0
   14.6130   28.7560   75.7640 H   0  0  0  0  0  0  0  0  0  0  0  0
   16.8640   28.1470   76.4980 H   0  0  0  0  0  0  0  0  0  0  0  0
   16.8430   29.2660   70.8680 H   0  0  0  0  0  0  0  0  0  0  0  0
   15.0920   29.2470   71.0190 H   0  0  0  0  0  0  0  0  0  0  0  0
   18.3850   30.5820   68.9650 H   0  0  0  0  0  0  0  0  0  0  0  0
   18.4760   32.3370   68.7660 H   0  0  0  0  0  0  0  0  0  0  0  0
   20.6390   31.4390   68.2450 H   0  0  0  0  0  0  0  0  0  0  0  0
   20.6120   30.2360   69.5380 H   0  0  0  0  0  0  0  0  0  0  0  0
   20.8630   32.9900   72.0430 H   0  0  0  0  0  0  0  0  0  0  0  0
   21.4650   31.2990   71.9160 H   0  0  0  0  0  0  0  0  0  0  0  0
   18.9850   31.9550   72.7730 H   0  0  0  0  0  0  0  0  0  0  0  0
   19.4140   30.3830   72.1120 H   0  0  0  0  0  0  0  0  0  0  0  0
   20.8570   33.6740   68.5840 H   0  0  0  0  0  0  0  0  0  0  0  0
   19.7570   33.8830   70.0630 H   0  0  0  0  0  0  0  0  0  0  0  0
   23.1040   33.7990   71.7660 H   0  0  0  0  0  0  0  0  0  0  0  0
   23.7090   33.7890   70.0890 H   0  0  0  0  0  0  0  0  0  0  0  0
   11.5140   32.2330   71.7940 H   0  0  0  0  0  0  0  0  0  0  0  0
   15.4890   35.6730   70.9740 H   0  0  0  0  0  0  0  0  0  0  0  0
   13.7760   36.1500   71.2540 H   0  0  0  0  0  0  0  0  0  0  0  0
   14.2530   35.6670   69.6040 H   0  0  0  0  0  0  0  0  0  0  0  0
  2  1  1  0  0  0  0
  2  7  1  0  0  0  0
  3  2  2  0  0  0  0
  4  3  1  0  0  0  0
  4  5  2  0  0  0  0
  5  6  1  0  0  0  0
  6  7  2  0  0  0  0
  6 33  1  0  0  0  0
  7 34  1  0  0  0  0
  8  4  1  0  0  0  0
  9 10  1  0  0  0  0
  9  8  1  0  0  0  0
 10 28  1  0  0  0  0
 11 24  1  0  0  0  0
 11 10  2  0  0  0  0
 12 13  2  0  0  0  0
 12 11  1  0  0  0  0
 13  9  1  0  0  0  0
 14 13  1  0  0  0  0
 14 19  1  0  0  0  0
 15 14  1  0  0  0  0
 16 15  1  0  0  0  0
 16 40  1  0  0  0  0
 16 17  1  0  0  0  0
 17 18  1  0  0  0  0
 18 19  1  0  0  0  0
 18 42  1  0  0  0  0
 18 41  1  0  0  0  0
 19 44  1  0  0  0  0
 19 43  1  0  0  0  0
 20 46  1  0  0  0  0
 20 17  1  0  0  0  0
 20 21  1  0  0  0  0
 21 22  2  0  0  0  0
 21 23  1  0  0  0  0
 23 47  1  0  0  0  0
 24 25  1  0  0  0  0
 25 26  2  0  0  0  0
 25 27  1  0  0  0  0
 27 49  1  0  0  0  0
 28 27  1  0  0  0  0
 28 29  2  0  0  0  0
 30 50  1  0  0  0  0
 30 24  1  0  0  0  0
 30 51  1  0  0  0  0
 31  3  1  0  0  0  0
 32  5  1  0  0  0  0
 35  8  1  0  0  0  0
 36  8  1  0  0  0  0
 37 15  1  0  0  0  0
 38 15  1  0  0  0  0
 39 16  1  0  0  0  0
 45 20  1  0  0  0  0
 48 23  1  0  0  0  0
 52 30  1  0  0  0  0
M  END
>  <Pose>
1

>  <Score>
-6.45

$$$$
