
 OpenBabel03212208413D

 41 44  0  0  0  0  0  0  0  0999 V2000
   21.4180   37.2750   69.9880 Cl  0  0  0  0  0  0  0  0  0  0  0  0
   19.8710   36.4760   70.2950 C   0  0  0  0  0  0  0  0  0  0  0  0
   19.7810   35.4260   71.1840 C   0  0  0  0  0  0  0  0  0  0  0  0
   18.5440   34.8410   71.3830 C   0  0  0  0  0  0  0  0  0  0  0  0
   17.4040   35.2640   70.7320 C   0  0  0  0  0  0  0  0  0  0  0  0
   17.5350   36.3180   69.8500 C   0  0  0  0  0  0  0  0  0  0  0  0
   18.7600   36.9370   69.6190 C   0  0  0  0  0  0  0  0  0  0  0  0
   16.1530   34.6500   70.9530 N   0  0  0  0  0  0  0  0  0  0  0  0
   15.9060   33.3240   71.0690 C   0  0  0  0  0  0  0  0  0  0  0  0
   16.7930   32.4350   70.9900 O   0  0  0  0  0  0  0  0  0  0  0  0
   14.5580   33.0880   71.2820 C   0  0  0  0  0  0  0  0  0  0  0  0
   13.9770   34.2770   71.2960 C   0  0  0  0  0  0  0  0  0  0  0  0
   12.6640   34.0420   71.5030 N   0  0  0  0  0  0  0  0  0  0  0  0
   12.4730   32.7200   71.6100 N   0  0  0  0  0  0  0  0  0  0  0  0
   13.6440   32.1200   71.4730 N   0  0  0  0  0  0  0  0  0  0  0  0
   13.9000   30.6960   71.5220 C   0  0  0  0  0  0  0  0  0  0  0  0
   13.8740   30.1480   72.9010 C   0  0  0  0  0  0  0  0  0  0  0  0
   14.7910   29.2460   73.3920 C   0  0  0  0  0  0  0  0  0  0  0  0
   14.7640   28.7390   74.6760 C   0  0  0  0  0  0  0  0  0  0  0  0
   13.7660   29.1490   75.5270 C   0  0  0  0  0  0  0  0  0  0  0  0
   12.8280   30.0490   75.0780 C   0  0  0  0  0  0  0  0  0  0  0  0
   12.8800   30.5420   73.7850 C   0  0  0  0  0  0  0  0  0  0  0  0
   15.7470   27.8240   75.0740 O   0  0  0  0  0  0  0  0  0  0  0  0
   16.0130   26.6550   74.3270 C   0  0  0  0  0  0  0  0  0  0  0  0
   14.9500   35.2340   71.0950 C   0  0  0  0  0  0  0  0  0  0  0  0
   14.7160   36.4620   71.0570 O   0  0  0  0  0  0  0  0  0  0  0  0
   20.6740   35.0970   71.6910 H   0  0  0  0  0  0  0  0  0  0  0  0
   18.4550   34.0200   72.0740 H   0  0  0  0  0  0  0  0  0  0  0  0
   16.6280   36.6350   69.3490 H   0  0  0  0  0  0  0  0  0  0  0  0
   18.8090   37.7670   68.9100 H   0  0  0  0  0  0  0  0  0  0  0  0
   11.9300   34.7710   71.5670 H   0  0  0  0  0  0  0  0  0  0  0  0
   11.5790   32.2090   71.7710 H   0  0  0  0  0  0  0  0  0  0  0  0
   13.1620   30.1530   70.9010 H   0  0  0  0  0  0  0  0  0  0  0  0
   14.9470   30.5410   71.1250 H   0  0  0  0  0  0  0  0  0  0  0  0
   15.6010   28.9010   72.7260 H   0  0  0  0  0  0  0  0  0  0  0  0
   13.7210   28.7610   76.5540 H   0  0  0  0  0  0  0  0  0  0  0  0
   12.0460   30.3690   75.7510 H   0  0  0  0  0  0  0  0  0  0  0  0
   12.1390   31.2490   73.4410 H   0  0  0  0  0  0  0  0  0  0  0  0
   15.2220   25.8820   74.4670 H   0  0  0  0  0  0  0  0  0  0  0  0
   16.9610   26.2070   74.6680 H   0  0  0  0  0  0  0  0  0  0  0  0
   16.0330   26.8970   73.2350 H   0  0  0  0  0  0  0  0  0  0  0  0
  1  2  1  0  0  0  0
  2  3  1  0  0  0  0
  3  4  2  0  0  0  0
  3 27  1  0  0  0  0
  4 28  1  0  0  0  0
  5  8  1  0  0  0  0
  5  4  1  0  0  0  0
  6  5  2  0  0  0  0
  7  6  1  0  0  0  0
  7  2  2  0  0  0  0
  8  9  1  0  0  0  0
  8 25  1  0  0  0  0
  9 11  1  0  0  0  0
 10  9  2  0  0  0  0
 11 12  2  0  0  0  0
 11 15  1  0  0  0  0
 12 13  1  0  0  0  0
 13 31  1  0  0  0  0
 13 14  1  0  0  0  0
 14 32  1  0  0  0  0
 15 16  1  0  0  0  0
 15 14  1  0  0  0  0
 16 17  1  0  0  0  0
 17 18  2  0  0  0  0
 17 22  1  0  0  0  0
 18 19  1  0  0  0  0
 19 23  1  0  0  0  0
 19 20  2  0  0  0  0
 20 36  1  0  0  0  0
 21 20  1  0  0  0  0
 21 37  1  0  0  0  0
 22 21  2  0  0  0  0
 24 39  1  0  0  0  0
 24 40  1  0  0  0  0
 24 23  1  0  0  0  0
 25 12  1  0  0  0  0
 26 25  2  0  0  0  0
 29  6  1  0  0  0  0
 30  7  1  0  0  0  0
 33 16  1  0  0  0  0
 34 16  1  0  0  0  0
 35 18  1  0  0  0  0
 38 22  1  0  0  0  0
 41 24  1  0  0  0  0
M  END
>  <Pose>
1

>  <Score>
-6.33

$$$$
