
 OpenBabel03212208413D

 56 59  0  0  1  0  0  0  0  0999 V2000
   18.3190   32.2720   70.6810 S   0  0  0  0  0  0  0  0  0  0  0  0
   18.6530   32.0120   69.2660 O   0  0  0  0  0  0  0  0  0  0  0  0
   18.5350   31.0020   71.4700 O   0  0  0  0  0  0  0  0  0  0  0  0
   19.2410   33.5100   71.4110 N   0  0  0  0  0  0  0  0  0  0  0  0
   18.6960   34.8060   71.2860 C   0  0  0  0  0  0  0  0  0  0  0  0
   19.5200   35.7400   72.1970 C   0  0  0  0  0  0  0  0  0  0  0  0
   20.7970   35.8080   71.5330 N   0  0  0  0  0  0  0  0  0  0  0  0
   21.5060   34.5090   71.5500 C   0  0  0  0  0  0  0  0  0  0  0  0
   20.6320   33.3410   71.3510 C   0  0  0  0  0  0  0  0  0  0  0  0
   21.4150   36.8900   70.9090 C   0  0  0  0  0  0  0  0  0  0  0  0
   21.9080   37.7630   71.7660 O   0  0  0  0  0  0  0  0  0  0  0  0
   21.6450   37.2750   69.5410 C   0  0  0  0  0  0  0  0  0  0  0  0
   22.4250   36.4100   68.7100 N   0  0  0  0  0  0  0  0  0  0  0  0
   21.9210   35.3170   67.9400 C   0  0  0  0  0  0  0  0  0  0  0  0
   20.6900   34.9740   67.9230 O   0  0  0  0  0  0  0  0  0  0  0  0
   23.0010   34.7320   67.2450 N   0  0  0  0  0  0  0  0  0  0  0  0
   24.1090   35.6760   67.2500 C   0  0  1  0  0  0  0  0  0  0  0  0
   25.4500   35.0430   67.3800 C   0  0  1  0  0  0  0  0  0  0  0  0
   26.4430   35.9000   66.5870 C   0  0  0  0  0  0  0  0  0  0  0  0
   26.1530   35.6280   65.1240 C   0  0  0  0  0  0  0  0  0  0  0  0
   24.6680   35.7430   64.8830 C   0  0  0  0  0  0  0  0  0  0  0  0
   23.9770   36.5140   65.9990 C   0  0  0  0  0  0  0  0  0  0  0  0
   25.9760   34.9950   68.7960 C   0  0  0  0  0  0  0  0  0  0  0  0
   23.8330   36.4840   68.4760 C   0  0  0  0  0  0  0  0  0  0  0  0
   24.6660   37.1060   69.1640 O   0  0  0  0  0  0  0  0  0  0  0  0
   16.6140   32.7330   70.8240 C   0  0  0  0  0  0  0  0  0  0  0  0
   15.8400   34.1920   70.4090 S   0  0  0  0  0  0  0  0  0  0  0  0
   14.2470   33.7960   70.8600 C   0  0  0  0  0  0  0  0  0  0  0  0
   14.3650   32.5140   71.3300 C   0  0  0  0  0  0  0  0  0  0  0  0
   15.5940   31.9690   71.3090 C   0  0  0  0  0  0  0  0  0  0  0  0
   12.7910   34.7960   70.7500 Cl  0  0  0  0  0  0  0  0  0  0  0  0
   18.7310   35.1860   70.2440 H   0  0  0  0  0  0  0  0  0  0  0  0
   17.6380   34.8010   71.5890 H   0  0  0  0  0  0  0  0  0  0  0  0
   19.0040   36.6540   72.4020 H   0  0  0  0  0  0  0  0  0  0  0  0
   19.6510   35.1040   73.1340 H   0  0  0  0  0  0  0  0  0  0  0  0
   21.9790   34.4590   72.5580 H   0  0  0  0  0  0  0  0  0  0  0  0
   22.3460   34.5250   70.8270 H   0  0  0  0  0  0  0  0  0  0  0  0
   20.8850   32.8800   70.3480 H   0  0  0  0  0  0  0  0  0  0  0  0
   20.9150   32.5240   72.0790 H   0  0  0  0  0  0  0  0  0  0  0  0
   20.6590   37.5100   68.9990 H   0  0  0  0  0  0  0  0  0  0  0  0
   22.1380   38.3090   69.4850 H   0  0  0  0  0  0  0  0  0  0  0  0
   23.0260   33.8020   66.8010 H   0  0  0  0  0  0  0  0  0  0  0  0
   25.4510   34.0170   66.9470 H   0  0  0  0  0  0  0  0  0  0  0  0
   26.2150   36.9480   66.8100 H   0  0  0  0  0  0  0  0  0  0  0  0
   27.4900   35.6500   66.8440 H   0  0  0  0  0  0  0  0  0  0  0  0
   26.5210   34.5850   64.9220 H   0  0  0  0  0  0  0  0  0  0  0  0
   26.6920   36.3100   64.4510 H   0  0  0  0  0  0  0  0  0  0  0  0
   24.2440   34.7170   64.8440 H   0  0  0  0  0  0  0  0  0  0  0  0
   24.4720   36.2110   63.8880 H   0  0  0  0  0  0  0  0  0  0  0  0
   22.8900   36.5500   65.6980 H   0  0  0  0  0  0  0  0  0  0  0  0
   24.3920   37.5220   66.0970 H   0  0  0  0  0  0  0  0  0  0  0  0
   25.2020   34.8710   69.5590 H   0  0  0  0  0  0  0  0  0  0  0  0
   26.6770   34.1120   68.8700 H   0  0  0  0  0  0  0  0  0  0  0  0
   26.6430   35.8760   69.0270 H   0  0  0  0  0  0  0  0  0  0  0  0
   13.4480   31.9950   71.7010 H   0  0  0  0  0  0  0  0  0  0  0  0
   15.7890   30.9370   71.6680 H   0  0  0  0  0  0  0  0  0  0  0  0
  1 26  1  0  0  0  0
  1  4  1  0  0  0  0
  1  3  2  0  0  0  0
  2  1  2  0  0  0  0
  5  4  1  0  0  0  0
  5 33  1  0  0  0  0
  5  6  1  0  0  0  0
  6 34  1  0  0  0  0
  6 35  1  0  0  0  0
  7  8  1  0  0  0  0
  7  6  1  0  0  0  0
  8 36  1  0  0  0  0
  9  4  1  0  0  0  0
  9  8  1  0  0  0  0
  9 39  1  0  0  0  0
 10  7  1  0  0  0  0
 10 11  2  0  0  0  0
 12 10  1  0  0  0  0
 13 12  1  0  0  0  0
 14 13  1  0  0  0  0
 15 14  2  0  0  0  0
 16 17  1  0  0  0  0
 16 14  1  0  0  0  0
 17 18  1  0  0  0  0
 17 24  1  1  0  0  0
 18 43  1  6  0  0  0
 18 23  1  0  0  0  0
 19 44  1  0  0  0  0
 19 45  1  0  0  0  0
 19 18  1  0  0  0  0
 20 19  1  0  0  0  0
 21 20  1  0  0  0  0
 21 22  1  0  0  0  0
 22 51  1  0  0  0  0
 22 17  1  0  0  0  0
 23 53  1  0  0  0  0
 23 54  1  0  0  0  0
 23 52  1  0  0  0  0
 24 13  1  0  0  0  0
 24 25  2  0  0  0  0
 26 30  2  0  0  0  0
 27 26  1  0  0  0  0
 27 28  1  0  0  0  0
 28 29  2  0  0  0  0
 29 55  1  0  0  0  0
 30 29  1  0  0  0  0
 30 56  1  0  0  0  0
 31 28  1  0  0  0  0
 32  5  1  0  0  0  0
 37  8  1  0  0  0  0
 38  9  1  0  0  0  0
 40 12  1  0  0  0  0
 41 12  1  0  0  0  0
 42 16  1  0  0  0  0
 46 20  1  0  0  0  0
 47 20  1  0  0  0  0
 48 21  1  0  0  0  0
 49 21  1  0  0  0  0
 50 22  1  0  0  0  0
M  END
>  <Pose>
1

>  <Score>
-7.23

$$$$
