
 OpenBabel03212208413D

 60 63  0  0  1  0  0  0  0  0999 V2000
   21.4200   37.2100   71.0000 Cl  0  0  0  0  0  0  0  0  0  0  0  0
   21.2300   35.4780   70.7230 C   0  0  0  0  0  0  0  0  0  0  0  0
   20.2720   34.7870   71.4130 C   0  0  0  0  0  0  0  0  0  0  0  0
   20.1030   33.4410   71.2180 C   0  0  0  0  0  0  0  0  0  0  0  0
   20.9500   32.8080   70.2870 C   0  0  0  0  0  0  0  0  0  0  0  0
   21.8940   33.5090   69.6120 C   0  0  0  0  0  0  0  0  0  0  0  0
   22.0590   34.8550   69.8090 C   0  0  0  0  0  0  0  0  0  0  0  0
   19.2220   32.6980   71.8210 O   0  0  0  0  0  0  0  0  0  0  0  0
   18.1490   32.5440   72.5630 C   0  0  0  0  0  0  0  0  0  0  0  0
   16.8460   32.0950   71.9650 C   0  0  1  0  0  0  0  0  0  0  0  0
   17.1130   30.8640   71.3470 O   0  0  0  0  0  0  0  0  0  0  0  0
   17.0620   29.7840   72.1840 C   0  0  0  0  0  0  0  0  0  0  0  0
   15.6650   29.4300   72.6540 C   0  0  0  0  0  0  0  0  0  0  0  0
   15.0200   30.7500   72.8760 N   0  0  0  0  0  0  0  0  0  0  0  0
   15.9180   31.8030   73.1580 C   0  0  0  0  0  0  0  0  0  0  0  0
   13.6460   30.8240   72.7900 C   0  0  0  0  0  0  0  0  0  0  0  0
   13.0820   31.3480   71.7420 O   0  0  0  0  0  0  0  0  0  0  0  0
   12.7330   30.3590   73.7900 C   0  0  0  0  0  0  0  0  0  0  0  0
   12.9830   29.3330   74.6030 N   0  0  0  0  0  0  0  0  0  0  0  0
   12.1290   28.8900   75.5460 C   0  0  0  0  0  0  0  0  0  0  0  0
   10.9060   29.5210   75.7060 C   0  0  0  0  0  0  0  0  0  0  0  0
   10.6230   30.5450   74.9170 N   0  0  0  0  0  0  0  0  0  0  0  0
   11.4890   30.9700   73.9830 C   0  0  0  0  0  0  0  0  0  0  0  0
   10.0060   28.9910   76.7590 C   0  0  0  0  0  0  0  0  0  0  0  0
   16.2300   32.9800   70.9810 C   0  0  0  0  0  0  0  0  0  0  0  0
   15.9920   34.3780   71.3480 C   0  0  0  0  0  0  0  0  0  0  0  0
   16.8800   35.0580   71.8940 O   0  0  0  0  0  0  0  0  0  0  0  0
   14.7390   35.0080   71.0950 N   0  0  0  0  0  0  0  0  0  0  0  0
   13.4780   34.3600   71.4380 C   0  0  0  0  0  0  0  0  0  0  0  0
   12.5720   34.4870   70.2310 C   0  0  0  0  0  0  0  0  0  0  0  0
   12.4180   35.8420   69.9220 O   0  0  0  0  0  0  0  0  0  0  0  0
   13.6240   36.3200   69.4110 C   0  0  0  0  0  0  0  0  0  0  0  0
   14.6580   36.3210   70.4900 C   0  0  0  0  0  0  0  0  0  0  0  0
   19.6460   35.2920   72.1340 H   0  0  0  0  0  0  0  0  0  0  0  0
   20.8580   31.7370   70.0920 H   0  0  0  0  0  0  0  0  0  0  0  0
   22.5580   33.0390   68.8880 H   0  0  0  0  0  0  0  0  0  0  0  0
   22.7870   35.4520   69.3040 H   0  0  0  0  0  0  0  0  0  0  0  0
   18.3580   31.8730   73.4890 H   0  0  0  0  0  0  0  0  0  0  0  0
   17.9110   33.5400   73.1050 H   0  0  0  0  0  0  0  0  0  0  0  0
   17.4420   28.9080   71.6330 H   0  0  0  0  0  0  0  0  0  0  0  0
   17.7450   29.9440   73.0380 H   0  0  0  0  0  0  0  0  0  0  0  0
   15.7550   28.8700   73.5860 H   0  0  0  0  0  0  0  0  0  0  0  0
   15.0960   28.9530   71.8560 H   0  0  0  0  0  0  0  0  0  0  0  0
   16.6340   31.3860   73.9500 H   0  0  0  0  0  0  0  0  0  0  0  0
   15.5510   32.7160   73.5860 H   0  0  0  0  0  0  0  0  0  0  0  0
   12.4240   28.0470   76.1590 H   0  0  0  0  0  0  0  0  0  0  0  0
   11.2300   31.8070   73.3540 H   0  0  0  0  0  0  0  0  0  0  0  0
    9.2160   29.7300   77.0310 H   0  0  0  0  0  0  0  0  0  0  0  0
    9.5630   28.0570   76.3590 H   0  0  0  0  0  0  0  0  0  0  0  0
   10.5430   28.7250   77.6900 H   0  0  0  0  0  0  0  0  0  0  0  0
   15.2190   32.5260   70.6420 H   0  0  0  0  0  0  0  0  0  0  0  0
   16.7970   32.9290   70.0040 H   0  0  0  0  0  0  0  0  0  0  0  0
   13.6260   33.2960   71.7020 H   0  0  0  0  0  0  0  0  0  0  0  0
   12.9750   34.9130   72.2720 H   0  0  0  0  0  0  0  0  0  0  0  0
   13.0160   33.9210   69.4010 H   0  0  0  0  0  0  0  0  0  0  0  0
   11.5460   34.1080   70.4480 H   0  0  0  0  0  0  0  0  0  0  0  0
   13.9990   35.7100   68.5690 H   0  0  0  0  0  0  0  0  0  0  0  0
   13.4540   37.3820   69.1110 H   0  0  0  0  0  0  0  0  0  0  0  0
   15.6200   36.6380   70.0420 H   0  0  0  0  0  0  0  0  0  0  0  0
   14.4430   37.0490   71.3010 H   0  0  0  0  0  0  0  0  0  0  0  0
  2  1  1  0  0  0  0
  2  3  1  0  0  0  0
  3 34  1  0  0  0  0
  4  3  2  0  0  0  0
  4  8  1  0  0  0  0
  5  4  1  0  0  0  0
  6  7  1  0  0  0  0
  6  5  2  0  0  0  0
  7  2  2  0  0  0  0
  8  9  1  0  0  0  0
  9 39  1  0  0  0  0
  9 38  1  0  0  0  0
 10 25  1  6  0  0  0
 10  9  1  0  0  0  0
 10 15  1  0  0  0  0
 11 10  1  0  0  0  0
 11 12  1  0  0  0  0
 12 13  1  0  0  0  0
 12 41  1  0  0  0  0
 13 14  1  0  0  0  0
 13 42  1  0  0  0  0
 14 15  1  0  0  0  0
 15 45  1  0  0  0  0
 15 44  1  0  0  0  0
 16 14  1  0  0  0  0
 16 18  1  0  0  0  0
 17 16  2  0  0  0  0
 18 23  2  0  0  0  0
 18 19  1  0  0  0  0
 19 20  2  0  0  0  0
 20 21  1  0  0  0  0
 20 46  1  0  0  0  0
 21 24  1  0  0  0  0
 22 21  2  0  0  0  0
 23 22  1  0  0  0  0
 24 48  1  0  0  0  0
 24 50  1  0  0  0  0
 25 26  1  0  0  0  0
 26 27  2  0  0  0  0
 28 26  1  0  0  0  0
 28 29  1  0  0  0  0
 29 53  1  0  0  0  0
 29 54  1  0  0  0  0
 30 56  1  0  0  0  0
 30 29  1  0  0  0  0
 31 30  1  0  0  0  0
 32 31  1  0  0  0  0
 32 33  1  0  0  0  0
 33 28  1  0  0  0  0
 33 60  1  0  0  0  0
 35  5  1  0  0  0  0
 36  6  1  0  0  0  0
 37  7  1  0  0  0  0
 40 12  1  0  0  0  0
 43 13  1  0  0  0  0
 47 23  1  0  0  0  0
 49 24  1  0  0  0  0
 51 25  1  0  0  0  0
 52 25  1  0  0  0  0
 55 30  1  0  0  0  0
 57 32  1  0  0  0  0
 58 32  1  0  0  0  0
 59 33  1  0  0  0  0
M  END
>  <Pose>
1

>  <Score>
-6.97

$$$$
