
 OpenBabel03212208413D

 51 54  0  0  1  0  0  0  0  0999 V2000
   13.5950   30.6890   71.5590 Cl  0  0  0  0  0  0  0  0  0  0  0  0
   14.4780   32.1500   71.2610 C   0  0  0  0  0  0  0  0  0  0  0  0
   13.8270   33.2710   70.9450 N   0  0  0  0  0  4  0  0  0  0  0  0
   14.4580   34.4230   70.7050 C   0  0  0  0  0  0  0  0  0  0  0  0
   14.0280   35.6380   70.3890 N   0  0  0  0  0  0  0  0  0  0  0  0
   15.1310   36.3900   70.2820 C   0  0  0  0  0  0  0  0  0  0  0  0
   16.2430   35.6850   70.5230 N   0  0  0  0  0  0  0  0  0  0  0  0
   15.8580   34.4280   70.7960 C   0  0  0  0  0  0  0  0  0  0  0  0
   16.5380   33.2840   71.1190 C   0  0  0  0  0  0  0  0  0  0  0  0
   15.8120   32.1510   71.3470 N   0  0  0  0  0  0  0  0  0  0  0  0
   17.9470   33.2810   71.1890 N   0  0  0  0  0  0  0  0  0  0  0  0
   18.5780   34.1790   72.1290 C   0  0  0  0  0  0  0  0  0  0  0  0
   20.0800   34.1850   72.0330 C   0  0  0  0  0  0  0  0  0  0  0  0
   20.5770   32.7840   71.9460 C   0  0  2  0  0  0  0  0  0  0  0  0
   20.0920   32.1530   70.6860 C   0  0  0  0  0  0  0  0  0  0  0  0
   18.6710   32.3930   70.3320 C   0  0  0  0  0  0  0  0  0  0  0  0
   20.3180   32.0120   73.1620 C   0  0  0  0  0  0  0  0  0  0  0  0
   21.2650   31.8220   73.9640 O   0  0  0  0  0  0  0  0  0  0  0  0
   19.0550   31.4700   73.4780 N   0  0  0  0  0  0  0  0  0  0  0  0
   18.3710   30.4960   72.6590 C   0  0  0  0  0  0  0  0  0  0  0  0
   17.0410   30.0700   73.2120 C   0  0  0  0  0  0  0  0  0  0  0  0
   17.0730   28.6830   73.6380 N   0  0  0  0  0  0  0  0  0  0  0  0
   18.2410   28.3540   74.3830 C   0  0  0  0  0  0  0  0  0  0  0  0
   19.1560   27.4610   73.5690 C   0  0  0  0  0  0  0  0  0  0  0  0
   18.4920   26.2830   73.3340 O   0  0  0  0  0  0  0  0  0  0  0  0
   17.2550   26.3900   72.7570 C   0  0  0  0  0  0  0  0  0  0  0  0
   16.7140   27.7710   72.6120 C   0  0  0  0  0  0  0  0  0  0  0  0
   15.1290   37.4380   70.0320 H   0  0  0  0  0  0  0  0  0  0  0  0
   17.2390   36.0080   70.5180 H   0  0  0  0  0  0  0  0  0  0  0  0
   18.2240   34.0760   73.1630 H   0  0  0  0  0  0  0  0  0  0  0  0
   18.2680   35.2360   71.8430 H   0  0  0  0  0  0  0  0  0  0  0  0
   20.4200   34.7560   71.1550 H   0  0  0  0  0  0  0  0  0  0  0  0
   20.4610   34.6770   72.9500 H   0  0  0  0  0  0  0  0  0  0  0  0
   21.7020   32.8550   71.8600 H   0  0  0  0  0  0  0  0  0  0  0  0
   20.7180   32.5800   69.8470 H   0  0  0  0  0  0  0  0  0  0  0  0
   20.3630   31.0760   70.7090 H   0  0  0  0  0  0  0  0  0  0  0  0
   18.1620   31.3880   70.2990 H   0  0  0  0  0  0  0  0  0  0  0  0
   18.5430   32.7840   69.2800 H   0  0  0  0  0  0  0  0  0  0  0  0
   18.5770   31.7920   74.3690 H   0  0  0  0  0  0  0  0  0  0  0  0
   18.3140   30.8130   71.6210 H   0  0  0  0  0  0  0  0  0  0  0  0
   19.0230   29.5770   72.6700 H   0  0  0  0  0  0  0  0  0  0  0  0
   16.8680   30.6720   74.1300 H   0  0  0  0  0  0  0  0  0  0  0  0
   16.2060   30.2380   72.5210 H   0  0  0  0  0  0  0  0  0  0  0  0
   18.0230   27.8470   75.3520 H   0  0  0  0  0  0  0  0  0  0  0  0
   18.7770   29.2910   74.6390 H   0  0  0  0  0  0  0  0  0  0  0  0
   19.4550   27.9830   72.6390 H   0  0  0  0  0  0  0  0  0  0  0  0
   20.0450   27.2370   74.1900 H   0  0  0  0  0  0  0  0  0  0  0  0
   17.2060   25.8220   71.7850 H   0  0  0  0  0  0  0  0  0  0  0  0
   16.5360   25.8280   73.4230 H   0  0  0  0  0  0  0  0  0  0  0  0
   15.6170   27.7720   72.5020 H   0  0  0  0  0  0  0  0  0  0  0  0
   17.1140   28.1800   71.6380 H   0  0  0  0  0  0  0  0  0  0  0  0
  2 10  1  0  0  0  0
  2  1  1  0  0  0  0
  3  2  2  0  0  0  0
  4  8  1  0  0  0  0
  4  3  2  0  0  0  0
  5  4  1  0  0  0  0
  6  5  2  0  0  0  0
  6  7  1  0  0  0  0
  7  8  1  0  0  0  0
  8  9  2  0  0  0  0
  9 11  1  0  0  0  0
  9 10  1  0  0  0  0
 11 12  1  0  0  0  0
 12 30  1  0  0  0  0
 13 12  1  0  0  0  0
 13 33  1  0  0  0  0
 14 34  1  6  0  0  0
 14 13  1  0  0  0  0
 14 17  1  0  0  0  0
 15 36  1  0  0  0  0
 15 14  1  0  0  0  0
 16 15  1  0  0  0  0
 16 11  1  0  0  0  0
 17 19  1  0  0  0  0
 17 18  2  0  0  0  0
 19 39  1  0  0  0  0
 20 41  1  0  0  0  0
 20 21  1  0  0  0  0
 20 19  1  0  0  0  0
 21 22  1  0  0  0  0
 21 42  1  0  0  0  0
 22 23  1  0  0  0  0
 23 45  1  0  0  0  0
 23 44  1  0  0  0  0
 24 47  1  0  0  0  0
 24 23  1  0  0  0  0
 25 24  1  0  0  0  0
 26 25  1  0  0  0  0
 26 49  1  0  0  0  0
 27 26  1  0  0  0  0
 27 22  1  0  0  0  0
 28  6  1  0  0  0  0
 29  7  1  0  0  0  0
 31 12  1  0  0  0  0
 32 13  1  0  0  0  0
 35 15  1  0  0  0  0
 37 16  1  0  0  0  0
 38 16  1  0  0  0  0
 40 20  1  0  0  0  0
 43 21  1  0  0  0  0
 46 24  1  0  0  0  0
 48 26  1  0  0  0  0
 50 27  1  0  0  0  0
 51 27  1  0  0  0  0
M  END
>  <Pose>
1

>  <Score>
-6.34

$$$$
