
 OpenBabel03212208413D

 55 58  0  0  1  0  0  0  0  0999 V2000
    4.9390   30.9090   79.4540 Cl  0  0  0  0  0  0  0  0  0  0  0  0
    6.5170   30.6980   78.6520 C   0  0  0  0  0  0  0  0  0  0  0  0
    7.6520   31.2830   79.1590 C   0  0  0  0  0  0  0  0  0  0  0  0
    8.8870   31.1090   78.5340 C   0  0  0  0  0  0  0  0  0  0  0  0
    9.0310   30.3380   77.3730 C   0  0  0  0  0  0  0  0  0  0  0  0
    7.8740   29.7680   76.8960 C   0  0  0  0  0  0  0  0  0  0  0  0
    6.6450   29.9320   77.5050 C   0  0  0  0  0  0  0  0  0  0  0  0
   10.3680   30.1930   76.8260 C   0  0  2  0  0  0  0  0  0  0  0  0
   10.3160   29.4920   75.4700 C   0  0  0  0  0  0  0  0  0  0  0  0
   11.7060   29.6970   74.9040 C   0  0  0  0  0  0  0  0  0  0  0  0
   12.6590   28.9610   75.6570 N   0  0  0  0  0  0  0  0  0  0  0  0
   12.7170   29.2730   77.1100 C   0  0  0  0  0  0  0  0  0  0  0  0
   11.3910   29.5880   77.7130 C   0  0  0  0  0  0  0  0  0  0  0  0
   13.5150   27.9830   75.1690 C   0  0  0  0  0  0  0  0  0  0  0  0
   13.2080   26.7490   75.4770 O   0  0  0  0  0  0  0  0  0  0  0  0
   14.7370   28.0800   74.3570 C   0  0  0  0  0  0  0  0  0  0  0  0
   15.1490   29.3480   73.9410 N   0  0  0  0  0  0  0  0  0  0  0  0
   15.7560   29.6430   72.6820 C   0  0  0  0  0  0  0  0  0  0  0  0
   16.1970   28.6420   72.0580 O   0  0  0  0  0  0  0  0  0  0  0  0
   15.8360   30.9910   72.1910 C   0  0  0  0  0  0  0  0  0  0  0  0
   14.9130   31.8340   71.8640 C   0  0  0  0  0  0  0  0  0  0  0  0
   13.5170   31.5350   71.9340 N   0  0  0  0  0  0  0  0  0  0  0  0
   12.5290   32.4830   71.5930 N   0  0  0  0  0  0  0  0  0  0  0  0
   12.8830   33.7780   71.1650 C   0  0  0  0  0  0  0  0  0  0  0  0
   11.9650   34.5990   70.8710 O   0  0  0  0  0  0  0  0  0  0  0  0
   14.2890   34.1240   71.0810 C   0  0  0  0  0  0  0  0  0  0  0  0
   15.2580   33.2050   71.4120 C   0  0  0  0  0  0  0  0  0  0  0  0
   16.5580   33.6160   71.3320 C   0  0  0  0  0  0  0  0  0  0  0  0
   16.9240   34.9080   70.9370 C   0  0  0  0  0  0  0  0  0  0  0  0
   15.9230   35.7850   70.6180 C   0  0  0  0  0  0  0  0  0  0  0  0
   14.5830   35.4120   70.6830 C   0  0  0  0  0  0  0  0  0  0  0  0
   10.8360   31.5050   76.4960 O   0  0  0  0  0  0  0  0  0  0  0  0
    7.5550   31.8840   80.0630 H   0  0  0  0  0  0  0  0  0  0  0  0
    9.7330   31.5950   78.9790 H   0  0  0  0  0  0  0  0  0  0  0  0
    7.9740   29.1660   75.9990 H   0  0  0  0  0  0  0  0  0  0  0  0
    5.7510   29.4580   77.0930 H   0  0  0  0  0  0  0  0  0  0  0  0
   10.0250   28.4480   75.5460 H   0  0  0  0  0  0  0  0  0  0  0  0
    9.5780   30.0020   74.8460 H   0  0  0  0  0  0  0  0  0  0  0  0
   11.9400   30.8040   75.1880 H   0  0  0  0  0  0  0  0  0  0  0  0
   11.7040   29.6870   73.8380 H   0  0  0  0  0  0  0  0  0  0  0  0
   13.2540   28.4540   77.6570 H   0  0  0  0  0  0  0  0  0  0  0  0
   13.3740   30.1640   77.1820 H   0  0  0  0  0  0  0  0  0  0  0  0
   11.0470   28.6780   78.2630 H   0  0  0  0  0  0  0  0  0  0  0  0
   11.6050   30.3110   78.5690 H   0  0  0  0  0  0  0  0  0  0  0  0
   15.5360   27.5410   74.9750 H   0  0  0  0  0  0  0  0  0  0  0  0
   14.6560   27.3770   73.4480 H   0  0  0  0  0  0  0  0  0  0  0  0
   14.9630   30.2050   74.5280 H   0  0  0  0  0  0  0  0  0  0  0  0
   16.8890   31.3510   72.0780 H   0  0  0  0  0  0  0  0  0  0  0  0
   13.1830   30.5910   72.2440 H   0  0  0  0  0  0  0  0  0  0  0  0
   11.5150   32.2350   71.6600 H   0  0  0  0  0  0  0  0  0  0  0  0
   17.3580   32.9680   71.5730 H   0  0  0  0  0  0  0  0  0  0  0  0
   17.9760   35.1760   70.8930 H   0  0  0  0  0  0  0  0  0  0  0  0
   16.2260   36.7920   70.3200 H   0  0  0  0  0  0  0  0  0  0  0  0
   13.8360   36.1500   70.4190 H   0  0  0  0  0  0  0  0  0  0  0  0
   10.2910   31.8080   75.7270 H   0  0  0  0  0  0  0  0  0  0  0  0
  2  3  1  0  0  0  0
  2  1  1  0  0  0  0
  3 33  1  0  0  0  0
  4 34  1  0  0  0  0
  4  3  2  0  0  0  0
  5  4  1  0  0  0  0
  6  5  2  0  0  0  0
  6  7  1  0  0  0  0
  7  2  2  0  0  0  0
  8 32  1  6  0  0  0
  8  5  1  0  0  0  0
  8 13  1  0  0  0  0
  9 37  1  0  0  0  0
  9  8  1  0  0  0  0
 10 39  1  0  0  0  0
 10  9  1  0  0  0  0
 10 11  1  0  0  0  0
 11 12  1  0  0  0  0
 12 42  1  0  0  0  0
 12 41  1  0  0  0  0
 12 13  1  0  0  0  0
 13 43  1  0  0  0  0
 13 44  1  0  0  0  0
 14 15  2  0  0  0  0
 14 11  1  0  0  0  0
 16 45  1  0  0  0  0
 16 14  1  0  0  0  0
 17 16  1  0  0  0  0
 17 47  1  0  0  0  0
 18 17  1  0  0  0  0
 19 18  2  0  0  0  0
 20 18  1  0  0  0  0
 21 22  1  0  0  0  0
 21 20  2  0  0  0  0
 22 49  1  0  0  0  0
 23 50  1  0  0  0  0
 23 22  1  0  0  0  0
 24 23  1  0  0  0  0
 25 24  2  0  0  0  0
 26 24  1  0  0  0  0
 26 27  1  0  0  0  0
 27 21  1  0  0  0  0
 28 27  2  0  0  0  0
 28 51  1  0  0  0  0
 29 28  1  0  0  0  0
 30 31  1  0  0  0  0
 30 29  2  0  0  0  0
 31 26  2  0  0  0  0
 35  6  1  0  0  0  0
 36  7  1  0  0  0  0
 38  9  1  0  0  0  0
 40 10  1  0  0  0  0
 46 16  1  0  0  0  0
 48 20  1  0  0  0  0
 52 29  1  0  0  0  0
 53 30  1  0  0  0  0
 54 31  1  0  0  0  0
 55 32  1  0  0  0  0
M  END
>  <Pose>
1

>  <Score>
-7.05

$$$$
