
 OpenBabel03212208413D

 42 45  0  0  0  0  0  0  0  0999 V2000
   11.1070   29.1140   80.1050 Cl  0  0  0  0  0  0  0  0  0  0  0  0
   11.1640   29.5800   78.4070 C   0  0  0  0  0  0  0  0  0  0  0  0
   12.2380   29.2640   77.5930 C   0  0  0  0  0  0  0  0  0  0  0  0
   12.3230   29.6090   76.2610 C   0  0  0  0  0  0  0  0  0  0  0  0
   13.2200   29.4360   75.2740 N   0  0  0  0  0  0  0  0  0  0  0  0
   12.7840   29.9970   74.1310 C   0  0  0  0  0  0  0  0  0  0  0  0
   11.5870   30.5300   74.4240 N   0  0  0  0  0  0  0  0  0  0  0  0
   11.2530   30.3230   75.7130 C   0  0  0  0  0  0  0  0  0  0  0  0
   10.1800   30.6450   76.5100 C   0  0  0  0  0  0  0  0  0  0  0  0
   10.1140   30.2910   77.8340 C   0  0  0  0  0  0  0  0  0  0  0  0
   13.4930   30.0190   72.8060 C   0  0  0  0  0  0  0  0  0  0  0  0
   13.1920   31.2540   72.1050 N   0  0  0  0  0  0  0  0  0  0  0  0
   14.1250   31.9070   71.2770 C   0  0  0  0  0  0  0  0  0  0  0  0
   14.9130   31.1990   70.6260 O   0  0  0  0  0  0  0  0  0  0  0  0
   14.2000   33.3730   71.1560 C   0  0  0  0  0  0  0  0  0  0  0  0
   13.6310   33.9570   69.9220 C   0  0  0  0  0  0  0  0  0  0  0  0
   12.8090   34.0930   71.1420 C   0  0  0  0  0  0  0  0  0  0  0  0
   15.1510   34.1030   71.9390 N   0  0  0  0  0  0  0  0  0  0  0  0
   15.7420   35.2250   71.3240 C   0  0  0  0  0  0  0  0  0  0  0  0
   17.0940   34.7930   70.7710 C   0  0  0  0  0  0  0  0  0  0  0  0
   17.9620   34.5270   71.8040 O   0  0  0  0  0  0  0  0  0  0  0  0
   17.3730   34.0600   72.9520 C   0  0  0  0  0  0  0  0  0  0  0  0
   16.0640   33.3430   72.6890 C   0  0  0  0  0  0  0  0  0  0  0  0
   13.0760   28.7050   78.0280 H   0  0  0  0  0  0  0  0  0  0  0  0
   10.9900   31.0410   73.7340 H   0  0  0  0  0  0  0  0  0  0  0  0
    9.3650   31.1930   76.0750 H   0  0  0  0  0  0  0  0  0  0  0  0
    9.2780   30.5300   78.4900 H   0  0  0  0  0  0  0  0  0  0  0  0
   13.2190   29.1700   72.1900 H   0  0  0  0  0  0  0  0  0  0  0  0
   14.5740   30.0300   73.0260 H   0  0  0  0  0  0  0  0  0  0  0  0
   12.2410   31.6740   72.2260 H   0  0  0  0  0  0  0  0  0  0  0  0
   13.2080   33.3180   69.1210 H   0  0  0  0  0  0  0  0  0  0  0  0
   14.0470   34.8920   69.4780 H   0  0  0  0  0  0  0  0  0  0  0  0
   11.9350   33.4250   71.3250 H   0  0  0  0  0  0  0  0  0  0  0  0
   12.7220   35.0710   71.5940 H   0  0  0  0  0  0  0  0  0  0  0  0
   15.1530   35.7820   70.5980 H   0  0  0  0  0  0  0  0  0  0  0  0
   15.9920   35.9710   72.1370 H   0  0  0  0  0  0  0  0  0  0  0  0
   16.9520   33.8860   70.1550 H   0  0  0  0  0  0  0  0  0  0  0  0
   17.4680   35.6390   70.1320 H   0  0  0  0  0  0  0  0  0  0  0  0
   18.0720   33.2790   73.3770 H   0  0  0  0  0  0  0  0  0  0  0  0
   17.2790   34.8240   73.7530 H   0  0  0  0  0  0  0  0  0  0  0  0
   16.3320   32.3520   72.2780 H   0  0  0  0  0  0  0  0  0  0  0  0
   15.6320   33.1270   73.7090 H   0  0  0  0  0  0  0  0  0  0  0  0
  2  1  1  0  0  0  0
  3 24  1  0  0  0  0
  3  2  2  0  0  0  0
  4  3  1  0  0  0  0
  5  4  1  0  0  0  0
  6  7  1  0  0  0  0
  6  5  2  0  0  0  0
  7  8  1  0  0  0  0
  8  4  2  0  0  0  0
  8  9  1  0  0  0  0
  9 10  2  0  0  0  0
 10  2  1  0  0  0  0
 10 27  1  0  0  0  0
 11 29  1  0  0  0  0
 11  6  1  0  0  0  0
 12 30  1  0  0  0  0
 12 11  1  0  0  0  0
 13 12  1  0  0  0  0
 14 13  2  0  0  0  0
 15 13  1  0  0  0  0
 15 18  1  0  0  0  0
 16 17  1  0  0  0  0
 16 15  1  0  0  0  0
 17 15  1  0  0  0  0
 17 33  1  0  0  0  0
 17 34  1  0  0  0  0
 18 23  1  0  0  0  0
 19 18  1  0  0  0  0
 19 36  1  0  0  0  0
 20 19  1  0  0  0  0
 20 21  1  0  0  0  0
 21 22  1  0  0  0  0
 22 39  1  0  0  0  0
 22 40  1  0  0  0  0
 23 22  1  0  0  0  0
 23 42  1  0  0  0  0
 25  7  1  0  0  0  0
 26  9  1  0  0  0  0
 28 11  1  0  0  0  0
 31 16  1  0  0  0  0
 32 16  1  0  0  0  0
 35 19  1  0  0  0  0
 37 20  1  0  0  0  0
 38 20  1  0  0  0  0
 41 23  1  0  0  0  0
M  END
>  <Pose>
1

>  <Score>
-5.74

$$$$
