
 OpenBabel03212208413D

 45 48  0  0  0  0  0  0  0  0999 V2000
   18.9740   28.1120   76.9550 Cl  0  0  0  0  0  0  0  0  0  0  0  0
   18.1990   28.6620   75.4850 C   0  0  0  0  0  0  0  0  0  0  0  0
   18.9490   29.3190   74.5570 C   0  0  0  0  0  0  0  0  0  0  0  0
   18.3670   29.7750   73.3700 C   0  0  0  0  0  0  0  0  0  0  0  0
   17.0540   29.5910   73.0840 C   0  0  0  0  0  0  0  0  0  0  0  0
   16.3110   28.9100   74.0600 C   0  0  0  0  0  0  0  0  0  0  0  0
   16.8620   28.4550   75.2350 C   0  0  0  0  0  0  0  0  0  0  0  0
   16.4110   29.9990   71.8380 C   0  0  0  0  0  0  0  0  0  0  0  0
   16.2570   31.4130   71.6160 N   0  0  0  0  0  0  0  0  0  0  0  0
   15.0330   32.0090   71.4820 C   0  0  0  0  0  0  0  0  0  0  0  0
   15.1890   33.3530   71.2850 C   0  0  0  0  0  0  0  0  0  0  0  0
   16.5020   33.5410   71.3040 N   0  0  0  0  0  0  0  0  0  0  0  0
   17.1830   32.3670   71.5070 C   0  0  0  0  0  0  0  0  0  0  0  0
   18.5920   32.3100   71.5790 N   0  0  0  0  0  0  0  0  0  0  0  0
   19.3210   31.9990   70.3560 C   0  0  0  0  0  0  0  0  0  0  0  0
   20.5940   32.8570   70.4720 C   0  0  0  0  0  0  0  0  0  0  0  0
   20.3360   34.1010   71.1620 N   0  0  0  0  0  0  0  0  0  0  0  0
   19.9910   33.9380   72.5580 C   0  0  0  0  0  0  0  0  0  0  0  0
   19.4350   32.5280   72.6950 C   0  0  0  0  0  0  0  0  0  0  0  0
   14.1320   34.1730   71.1310 N   0  0  0  0  0  0  0  0  0  0  0  0
   12.8730   33.6630   71.1710 C   0  0  0  0  0  0  0  0  0  0  0  0
   11.9220   34.4620   71.0220 O   0  0  0  0  0  0  0  0  0  0  0  0
   12.6690   32.3490   71.3630 N   0  0  0  0  0  0  0  0  0  0  0  0
   13.7300   31.5420   71.5160 C   0  0  0  0  0  0  0  0  0  0  0  0
   13.4870   30.3280   71.6930 O   0  0  0  0  0  0  0  0  0  0  0  0
   14.3880   35.5870   70.9250 C   0  0  0  0  0  0  0  0  0  0  0  0
   20.0010   29.5060   74.7050 H   0  0  0  0  0  0  0  0  0  0  0  0
   19.0160   30.2960   72.6830 H   0  0  0  0  0  0  0  0  0  0  0  0
   15.2460   28.7490   73.8520 H   0  0  0  0  0  0  0  0  0  0  0  0
   16.2890   27.9300   75.9870 H   0  0  0  0  0  0  0  0  0  0  0  0
   15.4400   29.4440   71.6520 H   0  0  0  0  0  0  0  0  0  0  0  0
   17.0450   29.5770   71.0070 H   0  0  0  0  0  0  0  0  0  0  0  0
   18.7600   32.2450   69.4510 H   0  0  0  0  0  0  0  0  0  0  0  0
   19.6640   30.9540   70.3200 H   0  0  0  0  0  0  0  0  0  0  0  0
   21.4300   32.2710   70.8980 H   0  0  0  0  0  0  0  0  0  0  0  0
   20.8770   33.1430   69.4290 H   0  0  0  0  0  0  0  0  0  0  0  0
   21.2100   34.6520   71.1190 H   0  0  0  0  0  0  0  0  0  0  0  0
   19.2680   34.7000   72.9140 H   0  0  0  0  0  0  0  0  0  0  0  0
   20.8880   34.0260   73.2150 H   0  0  0  0  0  0  0  0  0  0  0  0
   20.3880   31.8860   72.6000 H   0  0  0  0  0  0  0  0  0  0  0  0
   19.0940   32.2620   73.6790 H   0  0  0  0  0  0  0  0  0  0  0  0
   11.6850   32.0090   71.3850 H   0  0  0  0  0  0  0  0  0  0  0  0
   14.8610   35.7560   69.9270 H   0  0  0  0  0  0  0  0  0  0  0  0
   15.0900   35.9990   71.7010 H   0  0  0  0  0  0  0  0  0  0  0  0
   13.4780   36.1950   70.9540 H   0  0  0  0  0  0  0  0  0  0  0  0
  2  1  1  0  0  0  0
  3 27  1  0  0  0  0
  3  2  2  0  0  0  0
  4  3  1  0  0  0  0
  5  4  2  0  0  0  0
  5  6  1  0  0  0  0
  6  7  2  0  0  0  0
  7  2  1  0  0  0  0
  7 30  1  0  0  0  0
  8  5  1  0  0  0  0
  9  8  1  0  0  0  0
 10 24  1  0  0  0  0
 10  9  1  0  0  0  0
 11 12  1  0  0  0  0
 11 10  2  0  0  0  0
 12 13  2  0  0  0  0
 13 14  1  0  0  0  0
 13  9  1  0  0  0  0
 14 19  1  0  0  0  0
 15 16  1  0  0  0  0
 15 14  1  0  0  0  0
 16 35  1  0  0  0  0
 16 17  1  0  0  0  0
 17 18  1  0  0  0  0
 18 19  1  0  0  0  0
 18 38  1  0  0  0  0
 18 39  1  0  0  0  0
 19 41  1  0  0  0  0
 20 21  1  0  0  0  0
 20 11  1  0  0  0  0
 21 23  1  0  0  0  0
 22 21  2  0  0  0  0
 23 42  1  0  0  0  0
 23 24  1  0  0  0  0
 24 25  2  0  0  0  0
 26 45  1  0  0  0  0
 26 20  1  0  0  0  0
 26 44  1  0  0  0  0
 28  4  1  0  0  0  0
 29  6  1  0  0  0  0
 31  8  1  0  0  0  0
 32  8  1  0  0  0  0
 33 15  1  0  0  0  0
 34 15  1  0  0  0  0
 36 16  1  0  0  0  0
 37 17  1  0  0  0  0
 40 19  1  0  0  0  0
 43 26  1  0  0  0  0
M  END
>  <Pose>
1

>  <Score>
-6.56

$$$$
