
 OpenBabel03212208413D

 34 37  0  0  1  0  0  0  0  0999 V2000
   12.6710   36.6630   69.5600 Cl  0  0  0  0  0  0  0  0  0  0  0  0
   14.0850   35.7840   70.1280 C   0  0  0  0  0  0  0  0  0  0  0  0
   13.9640   34.5880   70.7900 C   0  0  0  0  0  0  0  0  0  0  0  0
   15.0760   33.9060   71.2320 C   0  0  0  0  0  0  0  0  0  0  0  0
   16.3590   34.3820   71.0360 C   0  0  0  0  0  0  0  0  0  0  0  0
   16.4600   35.5830   70.3690 C   0  0  0  0  0  0  0  0  0  0  0  0
   15.3620   36.2800   69.9200 C   0  0  0  0  0  0  0  0  0  0  0  0
   17.4750   33.6410   71.5130 N   0  0  0  0  0  0  0  0  0  0  0  0
   18.7430   34.1460   71.9560 C   0  0  0  0  0  0  0  0  0  0  0  0
   19.1990   35.2720   71.5530 O   0  0  0  0  0  0  0  0  0  0  0  0
   19.3560   33.1860   72.8880 C   0  0  1  0  0  0  0  0  0  0  0  0
   18.6320   31.8990   72.5720 C   0  0  2  0  0  0  0  0  0  0  0  0
   19.6270   30.8940   72.0330 C   0  0  2  0  0  0  0  0  0  0  0  0
   20.5490   30.5600   73.2150 C   0  0  0  0  0  0  0  0  0  0  0  0
   21.2620   31.8430   73.5340 C   0  0  0  0  0  0  0  0  0  0  0  0
   22.1210   31.8700   74.3740 O   0  0  0  0  0  0  0  0  0  0  0  0
   20.8340   33.0540   72.7520 C   0  0  1  0  0  0  0  0  0  0  0  0
   21.2140   32.7560   71.2980 C   0  0  0  0  0  0  0  0  0  0  0  0
   20.4910   31.4830   70.9520 C   0  0  0  0  0  0  0  0  0  0  0  0
   20.6230   30.9950   69.8630 O   0  0  0  0  0  0  0  0  0  0  0  0
   17.5480   32.2280   71.6480 C   0  0  0  0  0  0  0  0  0  0  0  0
   16.8060   31.4020   71.0710 O   0  0  0  0  0  0  0  0  0  0  0  0
   12.9770   34.1970   70.9550 H   0  0  0  0  0  0  0  0  0  0  0  0
   14.9880   32.9490   71.7620 H   0  0  0  0  0  0  0  0  0  0  0  0
   17.4360   36.0050   70.1870 H   0  0  0  0  0  0  0  0  0  0  0  0
   15.4450   37.2370   69.3890 H   0  0  0  0  0  0  0  0  0  0  0  0
   19.1490   33.5190   73.9420 H   0  0  0  0  0  0  0  0  0  0  0  0
   18.2420   31.4830   73.5270 H   0  0  0  0  0  0  0  0  0  0  0  0
   19.1240   29.9930   71.6420 H   0  0  0  0  0  0  0  0  0  0  0  0
   19.8590   30.3810   74.0830 H   0  0  0  0  0  0  0  0  0  0  0  0
   21.2240   29.7360   72.9970 H   0  0  0  0  0  0  0  0  0  0  0  0
   21.3390   33.9350   73.1490 H   0  0  0  0  0  0  0  0  0  0  0  0
   22.3260   32.6030   71.3070 H   0  0  0  0  0  0  0  0  0  0  0  0
   20.9380   33.5740   70.6260 H   0  0  0  0  0  0  0  0  0  0  0  0
  1  2  1  0  0  0  0
  2  3  1  0  0  0  0
  3 23  1  0  0  0  0
  3  4  2  0  0  0  0
  4 24  1  0  0  0  0
  5  4  1  0  0  0  0
  5  8  1  0  0  0  0
  6  5  2  0  0  0  0
  7  2  2  0  0  0  0
  7  6  1  0  0  0  0
  8 21  1  0  0  0  0
  8  9  1  0  0  0  0
  9 11  1  0  0  0  0
 10  9  2  0  0  0  0
 11 27  1  1  0  0  0
 12 11  1  0  0  0  0
 12 28  1  1  0  0  0
 13 29  1  6  0  0  0
 13 12  1  0  0  0  0
 13 14  1  0  0  0  0
 14 15  1  0  0  0  0
 14 30  1  0  0  0  0
 15 16  2  0  0  0  0
 17 11  1  0  0  0  0
 17 32  1  1  0  0  0
 17 15  1  0  0  0  0
 18 33  1  0  0  0  0
 18 17  1  0  0  0  0
 19 18  1  0  0  0  0
 19 13  1  0  0  0  0
 20 19  2  0  0  0  0
 21 12  1  0  0  0  0
 22 21  2  0  0  0  0
 25  6  1  0  0  0  0
 26  7  1  0  0  0  0
 31 14  1  0  0  0  0
 34 18  1  0  0  0  0
M  END
>  <Pose>
1

>  <Score>
-5.02

$$$$
