
 OpenBabel03212208413D

 47 51  0  0  1  0  0  0  0  0999 V2000
   23.1220   33.8550   70.5110 Cl  0  0  0  0  0  0  0  0  0  0  0  0
   21.5300   33.3740   71.0690 C   0  0  0  0  0  0  0  0  0  0  0  0
   20.8440   34.1750   71.9510 C   0  0  0  0  0  0  0  0  0  0  0  0
   19.5870   33.7790   72.3920 C   0  0  0  0  0  0  0  0  0  0  0  0
   18.9810   32.6200   71.9930 C   0  0  0  0  0  0  0  0  0  0  0  0
   19.6890   31.8410   71.1100 C   0  0  0  0  0  0  0  0  0  0  0  0
   20.9560   32.2140   70.6490 C   0  0  0  0  0  0  0  0  0  0  0  0
   17.7170   32.2180   72.4390 N   0  0  0  0  0  0  0  0  0  0  0  0
   17.3000   30.9350   72.9540 C   0  0  0  0  0  0  0  0  0  0  0  0
   18.0070   29.9280   73.0520 O   0  0  0  0  0  0  0  0  0  0  0  0
   15.8880   31.0030   73.3540 C   0  0  2  0  0  0  0  0  0  0  0  0
   15.0190   29.8630   72.8780 C   0  0  2  0  0  0  0  0  0  0  0  0
   14.4320   30.2530   71.6190 N   0  0  0  0  0  0  0  0  0  0  0  0
   15.1600   31.4260   71.1770 C   0  0  2  0  0  0  0  0  0  0  0  0
   15.3880   32.1400   72.4940 C   0  0  2  0  0  0  0  0  0  0  0  0
   16.5470   33.0510   72.4800 C   0  0  0  0  0  0  0  0  0  0  0  0
   16.4560   34.2810   72.5040 O   0  0  0  0  0  0  0  0  0  0  0  0
   14.3550   32.2740   70.2280 C   0  0  0  0  0  0  0  0  0  0  0  0
   13.4250   33.1900   70.8820 C   0  0  0  0  0  0  0  0  0  0  0  0
   13.4490   34.4080   70.6240 O   0  0  0  0  0  0  0  0  0  0  0  0
   12.4870   32.6960   71.8180 N   0  0  0  0  0  0  0  0  0  0  0  0
   13.9740   29.7030   73.9490 C   0  0  0  0  0  0  0  0  0  0  0  0
   14.2200   28.5240   74.5920 C   0  0  0  0  0  0  0  0  0  0  0  0
   13.4520   28.1080   75.6910 C   0  0  0  0  0  0  0  0  0  0  0  0
   12.4160   28.8940   76.1490 C   0  0  0  0  0  0  0  0  0  0  0  0
   12.1670   30.0750   75.5030 C   0  0  0  0  0  0  0  0  0  0  0  0
   12.9310   30.4700   74.4250 C   0  0  0  0  0  0  0  0  0  0  0  0
   15.2570   27.8000   73.9490 N   0  0  0  0  0  0  0  0  0  0  0  0
   15.6760   28.5730   72.8350 C   0  0  0  0  0  0  0  0  0  0  0  0
   16.4840   28.1590   71.9780 O   0  0  0  0  0  0  0  0  0  0  0  0
   21.2820   35.1110   72.3010 H   0  0  0  0  0  0  0  0  0  0  0  0
   19.1110   34.4360   73.0720 H   0  0  0  0  0  0  0  0  0  0  0  0
   19.3180   30.9180   70.7290 H   0  0  0  0  0  0  0  0  0  0  0  0
   21.5030   31.5820   69.9490 H   0  0  0  0  0  0  0  0  0  0  0  0
   15.7610   31.2160   74.4360 H   0  0  0  0  0  0  0  0  0  0  0  0
   14.5490   29.4530   70.9520 H   0  0  0  0  0  0  0  0  0  0  0  0
   16.1630   31.1570   70.7820 H   0  0  0  0  0  0  0  0  0  0  0  0
   14.4710   32.6190   72.8740 H   0  0  0  0  0  0  0  0  0  0  0  0
   13.7510   31.5510   69.6010 H   0  0  0  0  0  0  0  0  0  0  0  0
   15.0640   32.7590   69.5240 H   0  0  0  0  0  0  0  0  0  0  0  0
   12.3670   33.0720   72.7900 H   0  0  0  0  0  0  0  0  0  0  0  0
   11.8240   31.8960   71.6000 H   0  0  0  0  0  0  0  0  0  0  0  0
   13.6560   27.1710   76.1970 H   0  0  0  0  0  0  0  0  0  0  0  0
   11.8370   28.5470   77.0080 H   0  0  0  0  0  0  0  0  0  0  0  0
   11.3630   30.7010   75.8400 H   0  0  0  0  0  0  0  0  0  0  0  0
   12.7160   31.4080   73.9230 H   0  0  0  0  0  0  0  0  0  0  0  0
   15.6470   26.8530   74.2460 H   0  0  0  0  0  0  0  0  0  0  0  0
  1  2  1  0  0  0  0
  2  3  1  0  0  0  0
  3 31  1  0  0  0  0
  3  4  2  0  0  0  0
  4 32  1  0  0  0  0
  5  4  1  0  0  0  0
  5  8  1  0  0  0  0
  6  5  2  0  0  0  0
  7  2  2  0  0  0  0
  7  6  1  0  0  0  0
  8 16  1  0  0  0  0
  8  9  1  0  0  0  0
  9 10  2  0  0  0  0
  9 11  1  0  0  0  0
 11 35  1  1  0  0  0
 12 29  1  6  0  0  0
 12 11  1  0  0  0  0
 12 22  1  0  0  0  0
 13 12  1  0  0  0  0
 14 37  1  6  0  0  0
 14 13  1  0  0  0  0
 14 15  1  0  0  0  0
 15 38  1  1  0  0  0
 15 11  1  0  0  0  0
 16 15  1  0  0  0  0
 16 17  2  0  0  0  0
 18 19  1  0  0  0  0
 18 14  1  0  0  0  0
 19 21  1  0  0  0  0
 20 19  2  0  0  0  0
 21 41  1  0  0  0  0
 22 27  2  0  0  0  0
 22 23  1  0  0  0  0
 23 24  2  0  0  0  0
 24 25  1  0  0  0  0
 24 43  1  0  0  0  0
 25 44  1  0  0  0  0
 26 45  1  0  0  0  0
 26 25  2  0  0  0  0
 27 26  1  0  0  0  0
 28 47  1  0  0  0  0
 28 23  1  0  0  0  0
 29 28  1  0  0  0  0
 30 29  2  0  0  0  0
 33  6  1  0  0  0  0
 34  7  1  0  0  0  0
 36 13  1  0  0  0  0
 39 18  1  0  0  0  0
 40 18  1  0  0  0  0
 42 21  1  0  0  0  0
 46 27  1  0  0  0  0
M  END
>  <Pose>
1

>  <Score>
-6.11

$$$$
