
 OpenBabel03212208413D

 63 66  0  0  1  0  0  0  0  0999 V2000
   24.0100   36.8740   65.4830 Cl  0  0  0  0  0  0  0  0  0  0  0  0
   22.9580   36.4340   66.8090 C   0  0  0  0  0  0  0  0  0  0  0  0
   23.4110   36.2430   68.0920 C   0  0  0  0  0  0  0  0  0  0  0  0
   22.5390   35.8960   69.1020 C   0  0  0  0  0  0  0  0  0  0  0  0
   21.1660   35.7190   68.8850 C   0  0  0  0  0  0  0  0  0  0  0  0
   20.7410   35.9180   67.5930 C   0  0  0  0  0  0  0  0  0  0  0  0
   21.6240   36.2700   66.5640 C   0  0  0  0  0  0  0  0  0  0  0  0
   20.3020   35.3990   70.0000 C   0  0  0  0  0  0  0  0  0  0  0  0
   20.1940   34.1800   70.5010 C   0  0  0  0  0  0  0  0  0  0  0  0
   19.3080   33.7850   71.6550 C   0  0  2  0  0  0  0  0  0  0  0  0
   19.7480   32.4780   72.0470 N   0  0  0  0  0  0  0  0  0  0  0  0
   20.6300   31.9330   71.0770 C   0  0  0  0  0  0  0  0  0  0  0  0
   21.0820   30.7790   71.0430 O   0  0  0  0  0  0  0  0  0  0  0  0
   20.9120   33.0110   70.1010 C   0  0  0  0  0  0  0  0  0  0  0  0
   21.6630   32.8840   69.1050 O   0  0  0  0  0  0  0  0  0  0  0  0
   19.3640   31.7960   73.2790 C   0  0  0  0  0  0  0  0  0  0  0  0
   17.8800   31.6800   73.3480 C   0  0  0  0  0  0  0  0  0  0  0  0
   17.4650   30.3460   73.8120 N   0  0  0  0  0  4  0  0  0  0  0  0
   18.3850   29.3880   73.2810 C   0  0  0  0  0  0  0  0  0  0  0  0
   17.8370   27.9650   73.3630 C   0  0  0  0  0  0  0  0  0  0  0  0
   16.6220   27.9730   72.6540 O   0  0  0  0  0  0  0  0  0  0  0  0
   15.7170   28.6980   73.4020 C   0  0  0  0  0  0  0  0  0  0  0  0
   16.1030   30.1630   73.3580 C   0  0  0  0  0  0  0  0  0  0  0  0
   17.9110   33.8180   71.1430 C   0  0  0  0  0  0  0  0  0  0  0  0
   17.0560   34.8020   71.5510 C   0  0  0  0  0  0  0  0  0  0  0  0
   15.7800   34.8320   71.0670 C   0  0  0  0  0  0  0  0  0  0  0  0
   15.3210   33.8920   70.1700 C   0  0  0  0  0  0  0  0  0  0  0  0
   16.1850   32.8940   69.7560 C   0  0  0  0  0  0  0  0  0  0  0  0
   17.4800   32.8690   70.2510 C   0  0  0  0  0  0  0  0  0  0  0  0
   14.0190   33.9290   69.6820 O   0  0  0  0  0  0  0  0  0  0  0  0
   13.0590   34.7360   70.3780 C   0  0  0  0  0  0  0  0  0  0  0  0
   12.7980   35.9990   69.5610 C   0  0  0  0  0  0  0  0  0  0  0  0
   13.9250   36.9720   69.8780 C   0  0  0  0  0  0  0  0  0  0  0  0
   19.5140   36.3970   70.6210 O   0  0  0  0  0  0  0  0  0  0  0  0
   24.4680   36.3760   68.2740 H   0  0  0  0  0  0  0  0  0  0  0  0
   22.9130   35.7500   70.1080 H   0  0  0  0  0  0  0  0  0  0  0  0
   19.6860   35.8260   67.3660 H   0  0  0  0  0  0  0  0  0  0  0  0
   21.2380   36.4150   65.5550 H   0  0  0  0  0  0  0  0  0  0  0  0
   19.4220   34.5290   72.4720 H   0  0  0  0  0  0  0  0  0  0  0  0
   19.7270   32.4070   74.1360 H   0  0  0  0  0  0  0  0  0  0  0  0
   19.8540   30.8100   73.3040 H   0  0  0  0  0  0  0  0  0  0  0  0
   17.4070   31.8230   72.3630 H   0  0  0  0  0  0  0  0  0  0  0  0
   17.4750   32.4100   74.0950 H   0  0  0  0  0  0  0  0  0  0  0  0
   17.4850   30.3000   74.8640 H   0  0  0  0  0  0  0  0  0  0  0  0
   19.3050   29.4270   73.9260 H   0  0  0  0  0  0  0  0  0  0  0  0
   18.6270   29.5790   72.2150 H   0  0  0  0  0  0  0  0  0  0  0  0
   17.6820   27.7580   74.4370 H   0  0  0  0  0  0  0  0  0  0  0  0
   18.5440   27.2940   72.8750 H   0  0  0  0  0  0  0  0  0  0  0  0
   14.7090   28.6220   72.9610 H   0  0  0  0  0  0  0  0  0  0  0  0
   15.6930   28.3980   74.4590 H   0  0  0  0  0  0  0  0  0  0  0  0
   15.4480   30.7190   74.0600 H   0  0  0  0  0  0  0  0  0  0  0  0
   16.0250   30.5790   72.3350 H   0  0  0  0  0  0  0  0  0  0  0  0
   17.3680   35.5650   72.2530 H   0  0  0  0  0  0  0  0  0  0  0  0
   15.0900   35.6080   71.3820 H   0  0  0  0  0  0  0  0  0  0  0  0
   15.8070   32.1660   69.0530 H   0  0  0  0  0  0  0  0  0  0  0  0
   18.1140   32.0560   69.8880 H   0  0  0  0  0  0  0  0  0  0  0  0
   12.1080   34.1900   70.4740 H   0  0  0  0  0  0  0  0  0  0  0  0
   13.4370   34.9870   71.3850 H   0  0  0  0  0  0  0  0  0  0  0  0
   12.8730   35.7270   68.4890 H   0  0  0  0  0  0  0  0  0  0  0  0
   11.8070   36.4260   69.8080 H   0  0  0  0  0  0  0  0  0  0  0  0
   14.1690   37.5730   68.9930 H   0  0  0  0  0  0  0  0  0  0  0  0
   14.8570   36.4360   70.1750 H   0  0  0  0  0  0  0  0  0  0  0  0
   13.5780   37.6300   70.7000 H   0  0  0  0  0  0  0  0  0  0  0  0
  1  2  1  0  0  0  0
  2  3  1  0  0  0  0
  3 35  1  0  0  0  0
  3  4  2  0  0  0  0
  4 36  1  0  0  0  0
  5  4  1  0  0  0  0
  5  8  1  0  0  0  0
  6  5  2  0  0  0  0
  7  2  2  0  0  0  0
  7  6  1  0  0  0  0
  8  9  2  0  0  0  0
  8 34  1  0  0  0  0
  9 10  1  0  0  0  0
 10 11  1  0  0  0  0
 10 39  1  1  0  0  0
 11 16  1  0  0  0  0
 12 11  1  0  0  0  0
 13 12  2  0  0  0  0
 14  9  1  0  0  0  0
 14 12  1  0  0  0  0
 15 14  2  0  0  0  0
 16 41  1  0  0  0  0
 16 17  1  0  0  0  0
 16 40  1  0  0  0  0
 17 18  1  0  0  0  0
 17 43  1  0  0  0  0
 18 44  1  0  0  0  0
 19 20  1  0  0  0  0
 19 18  1  0  0  0  0
 19 45  1  0  0  0  0
 20 47  1  0  0  0  0
 21 20  1  0  0  0  0
 21 22  1  0  0  0  0
 22 50  1  0  0  0  0
 23 22  1  0  0  0  0
 23 18  1  0  0  0  0
 23 51  1  0  0  0  0
 24 25  1  0  0  0  0
 24 10  1  0  0  0  0
 25 53  1  0  0  0  0
 26 54  1  0  0  0  0
 26 25  2  0  0  0  0
 27 26  1  0  0  0  0
 28 27  2  0  0  0  0
 28 29  1  0  0  0  0
 29 24  2  0  0  0  0
 30 27  1  0  0  0  0
 30 31  1  0  0  0  0
 31 57  1  0  0  0  0
 31 58  1  0  0  0  0
 32 60  1  0  0  0  0
 32 33  1  0  0  0  0
 32 31  1  0  0  0  0
 33 62  1  0  0  0  0
 33 63  1  0  0  0  0
 37  6  1  0  0  0  0
 38  7  1  0  0  0  0
 42 17  1  0  0  0  0
 46 19  1  0  0  0  0
 48 20  1  0  0  0  0
 49 22  1  0  0  0  0
 52 23  1  0  0  0  0
 55 28  1  0  0  0  0
 56 29  1  0  0  0  0
 59 32  1  0  0  0  0
 61 33  1  0  0  0  0
M  END
>  <Pose>
1

>  <Score>
-6.32

$$$$
