
 OpenBabel03212208413D

 48 51  0  0  1  0  0  0  0  0999 V2000
   12.7850   35.8460   69.3860 Cl  0  0  0  0  0  0  0  0  0  0  0  0
   13.7530   34.7530   70.3490 C   0  0  0  0  0  0  0  0  0  0  0  0
   15.0590   35.0820   70.6980 C   0  0  0  0  0  0  0  0  0  0  0  0
   15.8110   34.2130   71.4570 C   0  0  0  0  0  0  0  0  0  0  0  0
   15.3180   33.0020   71.8950 C   0  0  0  0  0  0  0  0  0  0  0  0
   14.0260   32.6690   71.5530 C   0  0  0  0  0  0  0  0  0  0  0  0
   13.2720   33.5370   70.7950 C   0  0  0  0  0  0  0  0  0  0  0  0
   16.0940   32.0530   72.7070 C   0  0  0  0  0  0  0  0  0  0  0  0
   17.5070   32.5190   72.8860 C   0  0  0  0  0  0  0  0  0  0  0  0
   17.6900   33.4850   73.7040 O   0  0  0  0  0  0  0  0  0  0  0  0
   18.5700   31.9260   72.1900 N   0  0  0  0  0  0  0  0  0  0  0  0
   19.6010   31.1960   72.8560 C   0  0  0  0  0  0  0  0  0  0  0  0
   20.9170   31.1780   72.1310 C   0  0  0  0  0  0  0  0  0  0  0  0
   21.0240   32.3570   71.2370 C   0  0  2  0  0  0  0  0  0  0  0  0
   19.9230   32.8160   70.5380 C   0  0  0  0  0  0  0  0  0  0  0  0
   20.0100   33.8750   69.7250 N   0  0  0  0  0  0  0  0  0  0  0  0
   21.1590   34.5570   69.5350 C   0  0  2  0  0  0  0  0  0  0  0  0
   22.2410   34.1110   70.2190 N   0  0  0  0  0  0  0  0  0  0  0  0
   22.2030   33.0530   71.0460 C   0  0  0  0  0  0  0  0  0  0  0  0
   23.3300   32.6220   71.7310 O   0  0  0  0  0  0  0  0  0  0  0  0
   21.1970   35.6650   68.6720 N   0  0  0  0  0  0  0  0  0  0  0  0
   21.3540   36.9910   69.1900 C   0  0  0  0  0  0  0  0  0  0  0  0
   21.9250   37.8360   68.0410 C   0  0  0  0  0  0  0  0  0  0  0  0
   21.0510   37.8910   66.9850 O   0  0  0  0  0  0  0  0  0  0  0  0
   20.5130   36.6980   66.5840 C   0  0  0  0  0  0  0  0  0  0  0  0
   21.0760   35.4770   67.2560 C   0  0  0  0  0  0  0  0  0  0  0  0
   18.6390   32.0520   70.7610 C   0  0  0  0  0  0  0  0  0  0  0  0
   15.4520   36.0260   70.3610 H   0  0  0  0  0  0  0  0  0  0  0  0
   16.8330   34.4610   71.7350 H   0  0  0  0  0  0  0  0  0  0  0  0
   13.5740   31.7170   71.8720 H   0  0  0  0  0  0  0  0  0  0  0  0
   12.2390   33.2790   70.5170 H   0  0  0  0  0  0  0  0  0  0  0  0
   16.0570   31.0600   72.1930 H   0  0  0  0  0  0  0  0  0  0  0  0
   15.5710   31.9420   73.6820 H   0  0  0  0  0  0  0  0  0  0  0  0
   19.7100   31.4710   73.9290 H   0  0  0  0  0  0  0  0  0  0  0  0
   19.2780   30.1060   72.8950 H   0  0  0  0  0  0  0  0  0  0  0  0
   21.0450   30.2470   71.5040 H   0  0  0  0  0  0  0  0  0  0  0  0
   21.7860   31.1500   72.8300 H   0  0  0  0  0  0  0  0  0  0  0  0
   23.7880   33.1980   72.4420 H   0  0  0  0  0  0  0  0  0  0  0  0
   22.1150   37.0520   70.0030 H   0  0  0  0  0  0  0  0  0  0  0  0
   20.4040   37.4420   69.5650 H   0  0  0  0  0  0  0  0  0  0  0  0
   22.8440   37.3090   67.7090 H   0  0  0  0  0  0  0  0  0  0  0  0
   22.1930   38.8370   68.3780 H   0  0  0  0  0  0  0  0  0  0  0  0
   19.4070   36.6970   66.7120 H   0  0  0  0  0  0  0  0  0  0  0  0
   20.7170   36.5810   65.4850 H   0  0  0  0  0  0  0  0  0  0  0  0
   22.0570   35.2000   66.7790 H   0  0  0  0  0  0  0  0  0  0  0  0
   20.3560   34.6510   67.0660 H   0  0  0  0  0  0  0  0  0  0  0  0
   17.7790   32.6250   70.3670 H   0  0  0  0  0  0  0  0  0  0  0  0
   18.6910   31.0690   70.2440 H   0  0  0  0  0  0  0  0  0  0  0  0
  1  2  1  0  0  0  0
  2  3  2  0  0  0  0
  2  7  1  0  0  0  0
  3  4  1  0  0  0  0
  4 29  1  0  0  0  0
  4  5  2  0  0  0  0
  5  8  1  0  0  0  0
  6 30  1  0  0  0  0
  6  5  1  0  0  0  0
  7  6  2  0  0  0  0
  8  9  1  0  0  0  0
  8 33  1  0  0  0  0
  9 10  2  0  0  0  0
 11 12  1  0  0  0  0
 11  9  1  0  0  0  0
 12 35  1  0  0  0  0
 12 34  1  0  0  0  0
 13 37  1  0  0  0  0
 13 12  1  0  0  0  0
 14 15  1  6  0  0  0
 14 13  1  0  0  0  0
 15 27  1  0  0  0  0
 16 15  2  0  0  0  0
 17 21  1  1  0  0  0
 17 16  1  0  0  0  0
 17 18  1  0  0  0  0
 18 19  2  0  0  0  0
 19 14  1  0  0  0  0
 19 20  1  0  0  0  0
 20 38  1  0  0  0  0
 21 22  1  0  0  0  0
 22 40  1  0  0  0  0
 22 39  1  0  0  0  0
 23 42  1  0  0  0  0
 23 22  1  0  0  0  0
 24 23  1  0  0  0  0
 25 43  1  0  0  0  0
 25 24  1  0  0  0  0
 25 26  1  0  0  0  0
 26 21  1  0  0  0  0
 27 11  1  0  0  0  0
 28  3  1  0  0  0  0
 31  7  1  0  0  0  0
 32  8  1  0  0  0  0
 36 13  1  0  0  0  0
 41 23  1  0  0  0  0
 44 25  1  0  0  0  0
 45 26  1  0  0  0  0
 46 26  1  0  0  0  0
 47 27  1  0  0  0  0
 48 27  1  0  0  0  0
M  END
>  <Pose>
1

>  <Score>
-6.06

$$$$
