
 OpenBabel03212208413D

 37 40  0  0  0  0  0  0  0  0999 V2000
   15.4820   28.7290   72.7090 F   0  0  0  0  0  0  0  0  0  0  0  0
   14.6760   28.4840   73.7710 C   0  0  0  0  0  0  0  0  0  0  0  0
   14.7610   27.3270   74.4960 N   0  0  0  0  0  0  0  0  0  0  0  0
   13.8210   27.4360   75.4480 C   0  0  0  0  0  0  0  0  0  0  0  0
   13.1850   28.6110   75.3140 N   0  0  0  0  0  0  0  0  0  0  0  0
   13.6920   29.2990   74.2730 C   0  0  0  0  0  0  0  0  0  0  0  0
   13.2590   30.6420   73.8030 C   0  0  0  0  0  0  0  0  0  0  0  0
   12.6390   31.2700   74.7480 O   0  0  0  0  0  0  0  0  0  0  0  0
   13.4790   31.1580   72.5510 N   0  0  0  0  0  0  0  0  0  0  0  0
   13.6970   31.6700   71.3060 C   0  0  0  0  0  0  0  0  0  0  0  0
   13.6230   33.1720   71.1960 C   0  0  0  0  0  0  0  0  0  0  0  0
   14.6430   34.0180   71.3650 N   0  0  0  0  0  0  0  0  0  0  0  0
   14.1830   35.2450   71.1840 N   0  0  0  0  0  0  0  0  0  0  0  0
   12.8990   35.2070   70.9030 N   0  0  0  0  0  0  0  0  0  0  0  0
   12.5590   33.9170   70.9120 N   0  0  0  0  0  0  0  0  0  0  0  0
   15.9680   33.5820   71.6730 C   0  0  0  0  0  0  0  0  0  0  0  0
   16.5570   32.6380   70.8380 C   0  0  0  0  0  0  0  0  0  0  0  0
   17.8360   32.1590   71.0920 C   0  0  0  0  0  0  0  0  0  0  0  0
   18.5620   32.6030   72.1800 C   0  0  0  0  0  0  0  0  0  0  0  0
   17.9710   33.5380   73.0020 C   0  0  0  0  0  0  0  0  0  0  0  0
   16.6980   34.0170   72.7530 C   0  0  0  0  0  0  0  0  0  0  0  0
   13.6930   26.3880   76.3270 C   0  0  0  0  0  0  0  0  0  0  0  0
   14.4940   25.2470   76.2550 C   0  0  0  0  0  0  0  0  0  0  0  0
   15.4420   25.1720   75.2700 C   0  0  0  0  0  0  0  0  0  0  0  0
   15.5510   26.2460   74.3930 C   0  0  0  0  0  0  0  0  0  0  0  0
   16.4930   23.7630   75.1240 Cl  0  0  0  0  0  0  0  0  0  0  0  0
   12.1320   31.2500   72.3370 H   0  0  0  0  0  0  0  0  0  0  0  0
   12.9160   31.3140   70.5390 H   0  0  0  0  0  0  0  0  0  0  0  0
   14.6580   31.3670   70.7750 H   0  0  0  0  0  0  0  0  0  0  0  0
   16.0030   32.2840   69.9840 H   0  0  0  0  0  0  0  0  0  0  0  0
   18.3060   31.4250   70.4530 H   0  0  0  0  0  0  0  0  0  0  0  0
   19.5740   32.2210   72.3850 H   0  0  0  0  0  0  0  0  0  0  0  0
   18.5460   33.8940   73.8710 H   0  0  0  0  0  0  0  0  0  0  0  0
   16.2700   34.7500   73.4250 H   0  0  0  0  0  0  0  0  0  0  0  0
   12.9590   26.4020   77.1210 H   0  0  0  0  0  0  0  0  0  0  0  0
   14.3820   24.4140   76.9620 H   0  0  0  0  0  0  0  0  0  0  0  0
   16.3050   26.1690   73.6270 H   0  0  0  0  0  0  0  0  0  0  0  0
  1  2  1  0  0  0  0
  2  6  2  0  0  0  0
  2  3  1  0  0  0  0
  3  4  1  0  0  0  0
  4 22  1  0  0  0  0
  5  4  2  0  0  0  0
  6  5  1  0  0  0  0
  7  6  1  0  0  0  0
  7  8  2  0  0  0  0
  9  7  1  0  0  0  0
 10  9  1  0  0  0  0
 11 10  1  0  0  0  0
 11 12  1  0  0  0  0
 12 16  1  0  0  0  0
 13 12  1  0  0  0  0
 14 15  1  0  0  0  0
 14 13  2  0  0  0  0
 15 11  2  0  0  0  0
 16 21  1  0  0  0  0
 17 18  1  0  0  0  0
 17 16  2  0  0  0  0
 18 19  2  0  0  0  0
 19 32  1  0  0  0  0
 19 20  1  0  0  0  0
 20 33  1  0  0  0  0
 21 20  2  0  0  0  0
 21 34  1  0  0  0  0
 22 35  1  0  0  0  0
 23 22  2  0  0  0  0
 23 36  1  0  0  0  0
 24 23  1  0  0  0  0
 25  3  1  0  0  0  0
 25 24  2  0  0  0  0
 26 24  1  0  0  0  0
 27  9  1  0  0  0  0
 28 10  1  0  0  0  0
 29 10  1  0  0  0  0
 30 17  1  0  0  0  0
 31 18  1  0  0  0  0
 37 25  1  0  0  0  0
M  END
>  <Pose>
1

>  <Score>
-6.12

$$$$
