
 OpenBabel03212208413D

 42 45  0  0  0  0  0  0  0  0999 V2000
   21.2380   36.0750   67.0070 Cl  0  0  0  0  0  0  0  0  0  0  0  0
   21.0550   36.1870   68.7300 C   0  0  0  0  0  0  0  0  0  0  0  0
   20.3400   35.2770   69.4970 C   0  0  0  0  0  0  0  0  0  0  0  0
   20.2410   35.4110   70.8390 C   0  0  0  0  0  0  0  0  0  0  0  0
   20.8850   36.4950   71.4000 C   0  0  0  0  0  0  0  0  0  0  0  0
   21.5960   37.4140   70.7050 C   0  0  0  0  0  0  0  0  0  0  0  0
   21.7090   37.2930   69.3630 C   0  0  0  0  0  0  0  0  0  0  0  0
   19.5100   34.5160   71.7080 N   0  0  0  0  0  0  0  0  0  0  0  0
   19.5510   34.6610   73.0150 N   0  0  0  0  0  0  0  0  0  0  0  0
   18.8620   33.7970   73.4450 N   0  0  0  0  0  0  0  0  0  0  0  0
   18.2040   32.8920   72.9730 C   0  0  0  0  0  0  0  0  0  0  0  0
   18.7460   33.4800   71.4860 C   0  0  0  0  0  0  0  0  0  0  0  0
   17.4170   31.8100   72.4100 C   0  0  0  0  0  0  0  0  0  0  0  0
   18.4010   30.9400   71.9500 O   0  0  0  0  0  0  0  0  0  0  0  0
   16.1790   31.3190   72.1620 N   0  0  0  0  0  0  0  0  0  0  0  0
   15.5690   30.8200   70.9650 C   0  0  0  0  0  0  0  0  0  0  0  0
   14.0400   30.9960   71.0620 C   0  0  0  0  0  0  0  0  0  0  0  0
   13.8770   32.2230   71.8540 N   0  0  0  0  0  0  0  0  0  0  0  0
   14.1820   32.1860   73.2460 C   0  0  0  0  0  0  0  0  0  0  0  0
   15.3000   31.2010   73.3690 C   0  0  0  0  0  0  0  0  0  0  0  0
   13.5470   33.4120   71.2150 C   0  0  0  0  0  0  0  0  0  0  0  0
   14.5380   34.3160   70.8170 N   0  0  0  0  0  0  0  0  0  0  0  0
   14.3440   35.4270   70.1990 C   0  0  0  0  0  0  0  0  0  0  0  0
   13.0590   35.8580   69.8340 C   0  0  0  0  0  0  0  0  0  0  0  0
   12.0680   34.9710   70.2310 C   0  0  0  0  0  0  0  0  0  0  0  0
   12.3240   33.8800   70.8490 N   0  0  0  0  0  0  0  0  0  0  0  0
   19.8140   34.4740   68.9890 H   0  0  0  0  0  0  0  0  0  0  0  0
   20.7630   36.5720   72.5210 H   0  0  0  0  0  0  0  0  0  0  0  0
   22.0800   38.2390   71.2210 H   0  0  0  0  0  0  0  0  0  0  0  0
   22.2370   37.9430   68.7380 H   0  0  0  0  0  0  0  0  0  0  0  0
   18.4800   33.0370   70.6200 H   0  0  0  0  0  0  0  0  0  0  0  0
   15.6740   29.7080   70.9110 H   0  0  0  0  0  0  0  0  0  0  0  0
   15.8490   31.3320   70.0550 H   0  0  0  0  0  0  0  0  0  0  0  0
   13.5610   31.1130   70.0930 H   0  0  0  0  0  0  0  0  0  0  0  0
   13.6250   30.1200   71.6110 H   0  0  0  0  0  0  0  0  0  0  0  0
   13.3300   31.8150   73.8410 H   0  0  0  0  0  0  0  0  0  0  0  0
   14.4390   33.2340   73.6170 H   0  0  0  0  0  0  0  0  0  0  0  0
   15.0260   30.1360   73.4990 H   0  0  0  0  0  0  0  0  0  0  0  0
   15.9090   31.5100   74.2310 H   0  0  0  0  0  0  0  0  0  0  0  0
   15.1400   36.1450   69.9380 H   0  0  0  0  0  0  0  0  0  0  0  0
   12.8420   36.7730   69.3220 H   0  0  0  0  0  0  0  0  0  0  0  0
   11.0110   35.2580   70.0020 H   0  0  0  0  0  0  0  0  0  0  0  0
  1  2  1  0  0  0  0
  2  7  2  0  0  0  0
  2  3  1  0  0  0  0
  3  4  2  0  0  0  0
  4  5  1  0  0  0  0
  4  8  1  0  0  0  0
  5 28  1  0  0  0  0
  6 29  1  0  0  0  0
  6  5  2  0  0  0  0
  7  6  1  0  0  0  0
  8  9  1  0  0  0  0
  9 10  2  0  0  0  0
 11 10  1  0  0  0  0
 12  8  1  0  0  0  0
 12 11  2  0  0  0  0
 13 11  1  0  0  0  0
 14 13  2  0  0  0  0
 15 13  1  0  0  0  0
 15 20  1  0  0  0  0
 16 17  1  0  0  0  0
 16 15  1  0  0  0  0
 17 35  1  0  0  0  0
 17 18  1  0  0  0  0
 18 19  1  0  0  0  0
 19 20  1  0  0  0  0
 19 37  1  0  0  0  0
 19 36  1  0  0  0  0
 20 38  1  0  0  0  0
 20 39  1  0  0  0  0
 21 18  1  0  0  0  0
 22 21  2  0  0  0  0
 23 22  1  0  0  0  0
 24 23  2  0  0  0  0
 24 25  1  0  0  0  0
 25 26  2  0  0  0  0
 26 21  1  0  0  0  0
 27  3  1  0  0  0  0
 30  7  1  0  0  0  0
 31 12  1  0  0  0  0
 32 16  1  0  0  0  0
 33 16  1  0  0  0  0
 34 17  1  0  0  0  0
 40 23  1  0  0  0  0
 41 24  1  0  0  0  0
 42 25  1  0  0  0  0
M  END
>  <Pose>
1

>  <Score>
-6.65

$$$$
