
 OpenBabel03212208413D

 41 44  0  0  0  0  0  0  0  0999 V2000
   16.9610   32.0440   70.9270 F   0  0  0  0  0  0  0  0  0  0  0  0
   16.8590   33.3850   70.7660 C   0  0  0  0  0  0  0  0  0  0  0  0
   15.5950   33.9550   70.7720 C   0  0  0  0  0  0  0  0  0  0  0  0
   15.4140   35.3120   70.6140 C   0  0  0  0  0  0  0  0  0  0  0  0
   16.5430   36.0950   70.4460 C   0  0  0  0  0  0  0  0  0  0  0  0
   17.7970   35.5310   70.4390 C   0  0  0  0  0  0  0  0  0  0  0  0
   17.9710   34.1750   70.5980 C   0  0  0  0  0  0  0  0  0  0  0  0
   16.3180   37.8230   70.2430 Cl  0  0  0  0  0  0  0  0  0  0  0  0
   14.0090   35.6640   70.6570 C   0  0  0  0  0  0  0  0  0  0  0  0
   13.4860   36.7960   70.5470 O   0  0  0  0  0  0  0  0  0  0  0  0
   13.3010   34.4060   70.8580 C   0  0  0  0  0  0  0  0  0  0  0  0
   12.0400   34.2810   70.9510 O   0  0  0  0  0  0  0  0  0  0  0  0
   14.2800   33.3810   70.9250 N   0  0  0  0  0  0  0  0  0  0  0  0
   14.0440   31.9650   71.1150 C   0  0  0  0  0  0  0  0  0  0  0  0
   14.3760   31.5000   72.4450 N   0  0  0  0  0  0  0  0  0  0  0  0
   13.5110   30.4450   72.8490 C   0  0  0  0  0  0  0  0  0  0  0  0
   14.1730   29.2910   73.5160 C   0  0  0  0  0  0  0  0  0  0  0  0
   15.4460   28.9420   72.9410 N   0  0  0  0  0  0  0  0  0  0  0  0
   16.1110   29.9090   72.1000 C   0  0  0  0  0  0  0  0  0  0  0  0
   15.7660   31.2760   72.6520 C   0  0  0  0  0  0  0  0  0  0  0  0
   16.0650   27.6920   73.1720 C   0  0  0  0  0  0  0  0  0  0  0  0
   16.8930   27.1440   72.2680 N   0  0  0  0  0  0  0  0  0  0  0  0
   17.4950   25.9540   72.4640 C   0  0  0  0  0  0  0  0  0  0  0  0
   17.2750   25.2440   73.6280 C   0  0  0  0  0  0  0  0  0  0  0  0
   16.4490   25.7870   74.5370 N   0  0  0  0  0  0  0  0  0  0  0  0
   15.8470   26.9760   74.3420 C   0  0  0  0  0  0  0  0  0  0  0  0
   18.6740   36.1790   70.3040 H   0  0  0  0  0  0  0  0  0  0  0  0
   18.9840   33.7540   70.5880 H   0  0  0  0  0  0  0  0  0  0  0  0
   13.0020   31.7710   70.8420 H   0  0  0  0  0  0  0  0  0  0  0  0
   14.6800   31.4060   70.3970 H   0  0  0  0  0  0  0  0  0  0  0  0
   12.7580   30.8710   73.5600 H   0  0  0  0  0  0  0  0  0  0  0  0
   12.8980   30.0980   71.9710 H   0  0  0  0  0  0  0  0  0  0  0  0
   14.2260   29.4010   74.6270 H   0  0  0  0  0  0  0  0  0  0  0  0
   13.5060   28.3930   73.3570 H   0  0  0  0  0  0  0  0  0  0  0  0
   15.6150   29.8310   71.0960 H   0  0  0  0  0  0  0  0  0  0  0  0
   17.2000   29.7440   72.0390 H   0  0  0  0  0  0  0  0  0  0  0  0
   16.3630   32.0960   72.2590 H   0  0  0  0  0  0  0  0  0  0  0  0
   15.9470   31.2800   73.7660 H   0  0  0  0  0  0  0  0  0  0  0  0
   18.1620   25.5200   71.7260 H   0  0  0  0  0  0  0  0  0  0  0  0
   17.7730   24.2880   73.7610 H   0  0  0  0  0  0  0  0  0  0  0  0
   15.1790   27.4200   75.0700 H   0  0  0  0  0  0  0  0  0  0  0  0
  2  3  1  0  0  0  0
  2  1  1  0  0  0  0
  3 13  1  0  0  0  0
  4  9  1  0  0  0  0
  4  3  2  0  0  0  0
  5  4  1  0  0  0  0
  6  5  2  0  0  0  0
  6  7  1  0  0  0  0
  7  2  2  0  0  0  0
  8  5  1  0  0  0  0
  9 11  1  0  0  0  0
 10  9  2  0  0  0  0
 11 13  1  0  0  0  0
 11 12  2  0  0  0  0
 13 14  1  0  0  0  0
 14 15  1  0  0  0  0
 15 20  1  0  0  0  0
 15 16  1  0  0  0  0
 16 17  1  0  0  0  0
 16 31  1  0  0  0  0
 17 33  1  0  0  0  0
 18 21  1  0  0  0  0
 18 17  1  0  0  0  0
 19 20  1  0  0  0  0
 19 18  1  0  0  0  0
 20 38  1  0  0  0  0
 21 26  1  0  0  0  0
 22 23  1  0  0  0  0
 22 21  2  0  0  0  0
 23 24  2  0  0  0  0
 24 40  1  0  0  0  0
 24 25  1  0  0  0  0
 26 25  2  0  0  0  0
 26 41  1  0  0  0  0
 27  6  1  0  0  0  0
 28  7  1  0  0  0  0
 29 14  1  0  0  0  0
 30 14  1  0  0  0  0
 32 16  1  0  0  0  0
 34 17  1  0  0  0  0
 35 19  1  0  0  0  0
 36 19  1  0  0  0  0
 37 20  1  0  0  0  0
 39 23  1  0  0  0  0
M  END
>  <Pose>
1

>  <Score>
-6.55

$$$$
