
 OpenBabel03212208413D

 41 44  0  0  0  0  0  0  0  0999 V2000
   16.1440   27.9530   73.9260 Cl  0  0  0  0  0  0  0  0  0  0  0  0
   17.4680   29.0640   73.7040 C   0  0  0  0  0  0  0  0  0  0  0  0
   18.7870   28.6520   73.8150 C   0  0  0  0  0  0  0  0  0  0  0  0
   19.8490   29.5210   73.6430 C   0  0  0  0  0  0  0  0  0  0  0  0
   19.5570   30.8390   73.3480 C   0  0  0  0  0  0  0  0  0  0  0  0
   18.2360   31.2320   73.2410 C   0  0  0  0  0  0  0  0  0  0  0  0
   17.1610   30.3780   73.4100 C   0  0  0  0  0  0  0  0  0  0  0  0
   15.7540   30.8640   73.2760 C   0  0  0  0  0  0  0  0  0  0  0  0
   15.3720   30.9570   71.8300 C   0  0  0  0  0  0  0  0  0  0  0  0
   15.3240   29.8630   71.1670 O   0  0  0  0  0  0  0  0  0  0  0  0
   15.0760   32.2080   71.2290 N   0  0  0  0  0  0  0  0  0  0  0  0
   16.1150   32.9330   70.5870 C   0  0  0  0  0  0  0  0  0  0  0  0
   16.0600   34.3830   71.0850 C   0  0  0  0  0  0  0  0  0  0  0  0
   14.7150   34.8570   70.5760 C   0  0  0  0  0  0  0  0  0  0  0  0
   13.6230   34.0200   70.6710 C   0  0  0  0  0  0  0  0  0  0  0  0
   12.4240   34.4620   70.1950 N   0  0  0  0  0  0  0  0  0  0  0  0
   12.2660   35.6740   69.6400 C   0  0  0  0  0  0  0  0  0  0  0  0
   13.3410   36.4760   69.5540 N   0  0  0  0  0  0  0  0  0  0  0  0
   14.5690   36.0920   70.0130 C   0  0  0  0  0  0  0  0  0  0  0  0
   15.6770   36.9160   69.9260 O   0  0  0  0  0  0  0  0  0  0  0  0
   13.7340   32.6820   71.2850 C   0  0  0  0  0  0  0  0  0  0  0  0
   20.6170   31.7050   73.1760 O   0  0  0  0  0  0  0  0  0  0  0  0
   21.9460   31.3130   72.8980 C   0  0  0  0  0  0  0  0  0  0  0  0
   22.2400   29.8840   73.1920 C   0  0  0  0  0  0  0  0  0  0  0  0
   21.1700   29.1640   73.7430 O   0  0  0  0  0  0  0  0  0  0  0  0
   19.0380   27.6320   74.0440 H   0  0  0  0  0  0  0  0  0  0  0  0
   18.0170   32.2730   73.0090 H   0  0  0  0  0  0  0  0  0  0  0  0
   15.7230   31.8690   73.7510 H   0  0  0  0  0  0  0  0  0  0  0  0
   15.0410   30.2390   73.8140 H   0  0  0  0  0  0  0  0  0  0  0  0
   15.9770   32.9730   69.4670 H   0  0  0  0  0  0  0  0  0  0  0  0
   17.1270   32.5080   70.7330 H   0  0  0  0  0  0  0  0  0  0  0  0
   16.8750   34.9890   70.6880 H   0  0  0  0  0  0  0  0  0  0  0  0
   16.0760   34.3390   72.1900 H   0  0  0  0  0  0  0  0  0  0  0  0
   11.3000   36.0120   69.2640 H   0  0  0  0  0  0  0  0  0  0  0  0
   15.5280   37.8900   69.6900 H   0  0  0  0  0  0  0  0  0  0  0  0
   13.3490   32.6890   72.3420 H   0  0  0  0  0  0  0  0  0  0  0  0
   13.0180   32.0250   70.7330 H   0  0  0  0  0  0  0  0  0  0  0  0
   22.0830   31.4580   71.7860 H   0  0  0  0  0  0  0  0  0  0  0  0
   22.6590   32.0230   73.3590 H   0  0  0  0  0  0  0  0  0  0  0  0
   22.5770   29.3160   72.2890 H   0  0  0  0  0  0  0  0  0  0  0  0
   23.1200   29.8530   73.8950 H   0  0  0  0  0  0  0  0  0  0  0  0
  2  3  1  0  0  0  0
  2  1  1  0  0  0  0
  3 26  1  0  0  0  0
  4 25  1  0  0  0  0
  4  3  2  0  0  0  0
  5  4  1  0  0  0  0
  6  5  2  0  0  0  0
  6  7  1  0  0  0  0
  7  2  2  0  0  0  0
  8  7  1  0  0  0  0
  8 28  1  0  0  0  0
  8 29  1  0  0  0  0
  9  8  1  0  0  0  0
 10  9  2  0  0  0  0
 11 21  1  0  0  0  0
 11  9  1  0  0  0  0
 12 31  1  0  0  0  0
 12 13  1  0  0  0  0
 12 11  1  0  0  0  0
 13 33  1  0  0  0  0
 14 15  2  0  0  0  0
 14 13  1  0  0  0  0
 15 21  1  0  0  0  0
 16 15  1  0  0  0  0
 17 16  2  0  0  0  0
 18 17  1  0  0  0  0
 18 19  2  0  0  0  0
 19 14  1  0  0  0  0
 20 19  1  0  0  0  0
 21 36  1  0  0  0  0
 22  5  1  0  0  0  0
 23 22  1  0  0  0  0
 23 24  1  0  0  0  0
 23 39  1  0  0  0  0
 24 25  1  0  0  0  0
 24 41  1  0  0  0  0
 27  6  1  0  0  0  0
 30 12  1  0  0  0  0
 32 13  1  0  0  0  0
 34 17  1  0  0  0  0
 35 20  1  0  0  0  0
 37 21  1  0  0  0  0
 38 23  1  0  0  0  0
 40 24  1  0  0  0  0
M  END
>  <Pose>
1

>  <Score>
-6.19

$$$$
