
 OpenBabel03212208413D

 36 39  0  0  1  0  0  0  0  0999 V2000
   18.4960   30.3340   73.1990 Cl  0  0  0  0  0  0  0  0  0  0  0  0
   17.1070   31.2390   72.6370 C   0  0  0  0  0  0  0  0  0  0  0  0
   17.2170   32.4760   72.0370 C   0  0  0  0  0  0  0  0  0  0  0  0
   16.1300   33.2010   71.5900 C   0  0  1  0  0  0  0  0  0  0  0  0
   14.8770   32.6440   71.7610 C   0  0  0  0  0  0  0  0  0  0  0  0
   14.7550   31.4080   72.3600 C   0  0  0  0  0  0  0  0  0  0  0  0
   15.8410   30.6840   72.8070 C   0  0  0  0  0  0  0  0  0  0  0  0
   13.6980   33.4030   71.2900 C   0  0  0  0  0  0  0  0  0  0  0  0
   12.4630   33.1250   71.3240 N   0  0  0  0  0  0  0  0  0  0  0  0
   11.6220   34.1540   70.7480 C   0  0  0  0  0  0  0  0  0  0  0  0
   12.5710   35.2180   70.3020 C   0  0  0  0  0  0  0  0  0  0  0  0
   13.8620   34.6740   70.6770 N   0  0  0  0  0  0  0  0  0  0  0  0
   15.1910   35.1770   70.5380 C   0  0  0  0  0  0  0  0  0  0  0  0
   15.6430   36.3280   70.0080 N   0  0  0  0  0  0  0  0  0  0  0  0
   16.9610   36.3970   70.0830 N   0  0  0  0  0  0  0  0  0  0  0  0
   17.3400   35.2420   70.6840 C   0  0  0  0  0  0  0  0  0  0  0  0
   18.5330   34.9560   70.9240 O   0  0  0  0  0  0  0  0  0  0  0  0
   16.2720   34.4790   70.9720 N   0  0  0  0  0  0  0  0  0  0  0  0
   17.8130   37.4760   69.6220 C   0  0  0  0  0  0  0  0  0  0  0  0
   17.1830   38.1200   68.3790 C   0  0  0  0  0  0  0  0  0  0  0  0
   18.2370   38.4500   67.3860 C   0  0  0  0  0  0  0  0  0  0  0  0
   19.3810   37.9310   67.3670 O   0  0  0  0  0  0  0  0  0  0  0  0
   17.9320   39.4150   66.3930 N   0  0  0  0  0  0  0  0  0  0  0  0
   18.2120   32.8800   71.9190 H   0  0  0  0  0  0  0  0  0  0  0  0
   13.7620   31.0010   72.4790 H   0  0  0  0  0  0  0  0  0  0  0  0
   15.7480   29.7110   73.2790 H   0  0  0  0  0  0  0  0  0  0  0  0
   10.8800   34.5330   71.4790 H   0  0  0  0  0  0  0  0  0  0  0  0
   11.0990   33.6760   69.8820 H   0  0  0  0  0  0  0  0  0  0  0  0
   12.3720   36.2070   70.7570 H   0  0  0  0  0  0  0  0  0  0  0  0
   12.5160   35.3250   69.1810 H   0  0  0  0  0  0  0  0  0  0  0  0
   17.8140   38.2800   70.3930 H   0  0  0  0  0  0  0  0  0  0  0  0
   18.8220   37.1390   69.3880 H   0  0  0  0  0  0  0  0  0  0  0  0
   16.6300   39.0370   68.6540 H   0  0  0  0  0  0  0  0  0  0  0  0
   16.4800   37.4090   67.8790 H   0  0  0  0  0  0  0  0  0  0  0  0
   17.3760   39.2080   65.5430 H   0  0  0  0  0  0  0  0  0  0  0  0
   18.2910   40.3830   66.5300 H   0  0  0  0  0  0  0  0  0  0  0  0
  2  7  1  0  0  0  0
  2  1  1  0  0  0  0
  3  2  2  0  0  0  0
  4  5  1  1  0  0  0
  4  3  1  0  0  0  0
  5  6  1  0  0  0  0
  6 25  1  0  0  0  0
  6  7  2  0  0  0  0
  7 26  1  0  0  0  0
  8  9  1  0  0  0  0
  8  5  2  0  0  0  0
 10  9  1  0  0  0  0
 10 27  1  0  0  0  0
 11 12  1  0  0  0  0
 11 10  1  0  0  0  0
 11 29  1  0  0  0  0
 12  8  1  0  0  0  0
 13 12  1  0  0  0  0
 13 18  1  0  0  0  0
 14 15  1  0  0  0  0
 14 13  2  0  0  0  0
 15 16  1  0  0  0  0
 16 17  2  0  0  0  0
 16 18  1  0  0  0  0
 18  4  1  0  0  0  0
 19 15  1  0  0  0  0
 19 31  1  0  0  0  0
 20 33  1  0  0  0  0
 20 19  1  0  0  0  0
 21 20  1  0  0  0  0
 22 21  2  0  0  0  0
 23 36  1  0  0  0  0
 23 21  1  0  0  0  0
 24  3  1  0  0  0  0
 28 10  1  0  0  0  0
 30 11  1  0  0  0  0
 32 19  1  0  0  0  0
 34 20  1  0  0  0  0
 35 23  1  0  0  0  0
M  END
>  <Pose>
1

>  <Score>
-6.42

$$$$
