
 OpenBabel03212208413D

 46 49  0  0  1  0  0  0  0  0999 V2000
   14.8600   36.7230   69.9990 Cl  0  0  0  0  0  0  0  0  0  0  0  0
   15.7200   35.3960   70.7600 C   0  0  0  0  0  0  0  0  0  0  0  0
   17.0230   35.1010   70.4110 C   0  0  0  0  0  0  0  0  0  0  0  0
   17.7100   34.0410   71.0170 C   0  0  0  0  0  0  0  0  0  0  0  0
   17.0240   33.3240   71.9640 C   0  0  0  0  0  0  0  0  0  0  0  0
   15.7010   33.6260   72.3150 C   0  0  0  0  0  0  0  0  0  0  0  0
   15.0340   34.6710   71.7120 C   0  0  0  0  0  0  0  0  0  0  0  0
   17.6850   32.2660   72.5820 O   0  0  0  0  0  0  0  0  0  0  0  0
   18.9900   31.9090   72.2870 C   0  0  0  0  0  0  0  0  0  0  0  0
   19.6810   32.6350   71.3290 C   0  0  0  0  0  0  0  0  0  0  0  0
   19.1000   33.7700   70.6030 C   0  0  2  0  0  0  0  0  0  0  0  0
   19.9280   34.9950   70.8560 C   0  0  0  0  0  0  0  0  0  0  0  0
   20.1770   35.4270   72.1400 C   0  0  0  0  0  0  0  0  0  0  0  0
   20.9280   36.5410   72.3560 N   0  0  0  0  0  0  0  0  0  0  0  0
   21.4400   37.2390   71.3110 C   0  0  0  0  0  0  0  0  0  0  0  0
   22.1320   38.2680   71.5500 O   0  0  0  0  0  0  0  0  0  0  0  0
   21.2140   36.8420   70.0490 N   0  0  0  0  0  0  0  0  0  0  0  0
   20.4720   35.7410   69.8290 C   0  0  0  0  0  0  0  0  0  0  0  0
   20.2730   35.3870   68.6580 O   0  0  0  0  0  0  0  0  0  0  0  0
   21.7790   37.6170   68.9480 C   0  0  0  0  0  0  0  0  0  0  0  0
   21.1570   36.9460   73.7390 C   0  0  0  0  0  0  0  0  0  0  0  0
   19.6640   34.7270   73.1960 O   0  0  0  0  0  0  0  0  0  0  0  0
   20.9790   32.2420   71.0710 C   0  0  0  0  0  0  0  0  0  0  0  0
   21.6630   32.8720   70.2030 O   0  0  0  0  0  0  0  0  0  0  0  0
   21.5960   31.2180   71.6810 N   0  0  0  0  0  0  0  0  0  0  0  0
   20.8810   30.5370   72.6100 C   0  0  0  0  0  0  0  0  0  0  0  0
   21.4790   29.5790   73.1700 O   0  0  0  0  0  0  0  0  0  0  0  0
   19.6130   30.8850   72.8940 N   0  0  0  0  0  0  0  0  0  0  0  0
   18.9150   30.1070   73.8980 C   0  0  0  0  0  0  0  0  0  0  0  0
   22.9760   30.8450   71.3700 C   0  0  0  0  0  0  0  0  0  0  0  0
   17.5490   35.6850   69.6570 H   0  0  0  0  0  0  0  0  0  0  0  0
   15.2230   33.0130   73.0750 H   0  0  0  0  0  0  0  0  0  0  0  0
   14.0140   34.8880   71.9970 H   0  0  0  0  0  0  0  0  0  0  0  0
   19.1790   33.5610   69.5140 H   0  0  0  0  0  0  0  0  0  0  0  0
   21.2860   37.4260   67.9960 H   0  0  0  0  0  0  0  0  0  0  0  0
   22.8580   37.3060   68.8920 H   0  0  0  0  0  0  0  0  0  0  0  0
   21.7920   38.6890   69.2480 H   0  0  0  0  0  0  0  0  0  0  0  0
   20.2800   36.6200   74.3400 H   0  0  0  0  0  0  0  0  0  0  0  0
   22.0630   36.3890   74.1190 H   0  0  0  0  0  0  0  0  0  0  0  0
   21.3270   38.0350   73.8050 H   0  0  0  0  0  0  0  0  0  0  0  0
   19.1990   30.5020   74.9060 H   0  0  0  0  0  0  0  0  0  0  0  0
   17.8210   30.1780   73.7950 H   0  0  0  0  0  0  0  0  0  0  0  0
   19.1890   29.0290   73.8230 H   0  0  0  0  0  0  0  0  0  0  0  0
   23.5800   31.2620   72.2250 H   0  0  0  0  0  0  0  0  0  0  0  0
   23.1070   29.7710   71.2510 H   0  0  0  0  0  0  0  0  0  0  0  0
   23.2990   31.3880   70.4800 H   0  0  0  0  0  0  0  0  0  0  0  0
  1  2  1  0  0  0  0
  2  7  1  0  0  0  0
  3  2  2  0  0  0  0
  3  4  1  0  0  0  0
  4  5  2  0  0  0  0
  5  6  1  0  0  0  0
  5  8  1  0  0  0  0
  6 32  1  0  0  0  0
  7 33  1  0  0  0  0
  7  6  2  0  0  0  0
  9  8  1  0  0  0  0
  9 28  1  0  0  0  0
 10  9  2  0  0  0  0
 11 34  1  6  0  0  0
 11 12  1  0  0  0  0
 11  4  1  0  0  0  0
 11 10  1  0  0  0  0
 12 13  1  0  0  0  0
 13 14  1  0  0  0  0
 13 22  2  0  0  0  0
 14 21  1  0  0  0  0
 15 16  2  0  0  0  0
 15 14  1  0  0  0  0
 17 15  1  0  0  0  0
 18 17  1  0  0  0  0
 18 12  1  0  0  0  0
 19 18  2  0  0  0  0
 20 37  1  0  0  0  0
 20 17  1  0  0  0  0
 21 40  1  0  0  0  0
 21 39  1  0  0  0  0
 21 38  1  0  0  0  0
 23 10  1  0  0  0  0
 23 25  1  0  0  0  0
 24 23  2  0  0  0  0
 25 26  1  0  0  0  0
 26 28  1  0  0  0  0
 26 27  2  0  0  0  0
 28 29  1  0  0  0  0
 29 41  1  0  0  0  0
 30 25  1  0  0  0  0
 30 44  1  0  0  0  0
 31  3  1  0  0  0  0
 35 20  1  0  0  0  0
 36 20  1  0  0  0  0
 42 29  1  0  0  0  0
 43 29  1  0  0  0  0
 45 30  1  0  0  0  0
 46 30  1  0  0  0  0
M  END
>  <Pose>
1

>  <Score>
-5.59

$$$$
