
 OpenBabel03212208413D

 41 44  0  0  0  0  0  0  0  0999 V2000
   22.4530   34.2460   67.8500 B   0  0  0  0  0  0  0  0  0  0  0  0
   21.3630   34.4360   69.4170 C   0  0  0  0  0  0  0  0  0  0  0  0
   20.0680   34.8650   69.3160 C   0  0  0  0  0  0  0  0  0  0  0  0
   19.2870   34.9990   70.4610 C   0  0  0  0  0  0  0  0  0  0  0  0
   19.8830   34.6820   71.6640 C   0  0  0  0  0  0  0  0  0  0  0  0
   21.1750   34.2550   71.7530 C   0  0  0  0  0  0  0  0  0  0  0  0
   21.9630   34.1170   70.6220 C   0  0  0  0  0  0  0  0  0  0  0  0
   19.0690   34.8270   72.8090 O   0  0  0  0  0  0  0  0  0  0  0  0
   18.6430   33.6960   73.5450 C   0  0  0  0  0  0  0  0  0  0  0  0
   17.9310   35.5330   70.3780 C   0  0  0  0  0  0  0  0  0  0  0  0
   16.7280   34.9790   70.4990 N   0  0  0  0  0  0  0  0  0  0  0  0
   15.7610   35.9270   70.3240 C   0  0  0  0  0  0  0  0  0  0  0  0
   16.4320   37.0780   70.0880 N   0  0  0  0  0  0  0  0  0  0  0  0
   17.7190   36.8600   70.1170 N   0  0  0  0  0  0  0  0  0  0  0  0
   14.5390   35.3830   70.4400 N   0  0  0  0  0  0  0  0  0  0  0  0
   14.6680   34.0850   70.6890 C   0  0  0  0  0  0  0  0  0  0  0  0
   16.0480   33.8270   70.7250 C   0  0  0  0  0  0  0  0  0  0  0  0
   16.4800   32.5790   70.9480 N   0  0  0  0  0  0  0  0  0  0  0  0
   15.5500   31.6050   71.1360 C   0  0  0  0  0  0  0  0  0  0  0  0
   15.9880   30.4310   71.3470 O   0  0  0  0  0  0  0  0  0  0  0  0
   14.2340   31.7970   71.1130 N   0  0  0  0  0  0  0  0  0  0  0  0
   13.7990   33.0380   70.8890 C   0  0  0  0  0  0  0  0  0  0  0  0
   12.5640   33.2760   70.8570 O   0  0  0  0  0  0  0  0  0  0  0  0
   13.2910   30.6850   71.3280 C   0  0  0  0  0  0  0  0  0  0  0  0
   17.8730   32.2380   70.9610 C   0  0  0  0  0  0  0  0  0  0  0  0
   13.2720   36.0750   70.3200 C   0  0  0  0  0  0  0  0  0  0  0  0
   19.6210   35.1090   68.3620 H   0  0  0  0  0  0  0  0  0  0  0  0
   21.5950   34.0180   72.7390 H   0  0  0  0  0  0  0  0  0  0  0  0
   22.9870   33.7780   70.6920 H   0  0  0  0  0  0  0  0  0  0  0  0
   17.8350   34.0490   74.2270 H   0  0  0  0  0  0  0  0  0  0  0  0
   18.2350   32.9030   72.8990 H   0  0  0  0  0  0  0  0  0  0  0  0
   19.4300   33.2530   74.1600 H   0  0  0  0  0  0  0  0  0  0  0  0
   13.1980   30.0490   70.4460 H   0  0  0  0  0  0  0  0  0  0  0  0
   13.7090   30.0900   72.1860 H   0  0  0  0  0  0  0  0  0  0  0  0
   12.3530   31.1190   71.6930 H   0  0  0  0  0  0  0  0  0  0  0  0
   17.9150   31.0850   70.9540 H   0  0  0  0  0  0  0  0  0  0  0  0
   18.3920   32.4890   71.8770 H   0  0  0  0  0  0  0  0  0  0  0  0
   18.3330   32.4890   70.0140 H   0  0  0  0  0  0  0  0  0  0  0  0
   12.5400   35.4250   69.7820 H   0  0  0  0  0  0  0  0  0  0  0  0
   12.8930   36.2690   71.3440 H   0  0  0  0  0  0  0  0  0  0  0  0
   13.3550   36.9980   69.7070 H   0  0  0  0  0  0  0  0  0  0  0  0
  1  2  1  0  0  0  0
  2  7  1  0  0  0  0
  3  2  2  0  0  0  0
  3  4  1  0  0  0  0
  4  5  2  0  0  0  0
  5  6  1  0  0  0  0
  5  8  1  0  0  0  0
  6 28  1  0  0  0  0
  7 29  1  0  0  0  0
  7  6  2  0  0  0  0
  8  9  1  0  0  0  0
  9 32  1  0  0  0  0
  9 30  1  0  0  0  0
 10  4  1  0  0  0  0
 10 11  1  0  0  0  0
 11 17  1  0  0  0  0
 12 15  1  0  0  0  0
 12 11  1  0  0  0  0
 13 14  1  0  0  0  0
 13 12  2  0  0  0  0
 14 10  2  0  0  0  0
 15 16  1  0  0  0  0
 16 17  2  0  0  0  0
 16 22  1  0  0  0  0
 17 18  1  0  0  0  0
 18 25  1  0  0  0  0
 18 19  1  0  0  0  0
 19 20  2  0  0  0  0
 21 19  1  0  0  0  0
 21 24  1  0  0  0  0
 22 21  1  0  0  0  0
 23 22  2  0  0  0  0
 24 35  1  0  0  0  0
 24 34  1  0  0  0  0
 25 37  1  0  0  0  0
 26 15  1  0  0  0  0
 26 40  1  0  0  0  0
 27  3  1  0  0  0  0
 31  9  1  0  0  0  0
 33 24  1  0  0  0  0
 36 25  1  0  0  0  0
 38 25  1  0  0  0  0
 39 26  1  0  0  0  0
 41 26  1  0  0  0  0
M  END
>  <Pose>
1

>  <Score>
-6.29

$$$$
