
 OpenBabel03212208413D

 50 53  0  0  1  0  0  0  0  0999 V2000
   11.7250   29.9020   74.9100 Cl  0  0  0  0  0  0  0  0  0  0  0  0
   13.4240   29.8450   74.4500 C   0  0  0  0  0  0  0  0  0  0  0  0
   13.8390   30.6220   73.3530 C   0  0  0  0  0  0  0  0  0  0  0  0
   15.1560   30.5800   73.0040 C   0  0  0  0  0  0  0  0  0  0  0  0
   16.0730   29.7960   73.6920 C   0  0  0  0  0  0  0  0  0  0  0  0
   15.6370   29.0460   74.7590 C   0  0  0  0  0  0  0  0  0  0  0  0
   14.3160   29.0630   75.1490 C   0  0  0  0  0  0  0  0  0  0  0  0
   16.6510   28.2050   75.4870 C   0  0  0  0  0  0  0  0  0  0  0  0
   15.3530   31.5790   71.9080 C   0  0  2  0  0  0  0  0  0  0  0  0
   16.2660   31.1970   70.9070 N   0  0  0  0  0  0  0  0  0  0  0  0
   17.5620   31.6410   71.3360 C   0  0  2  0  0  0  0  0  0  0  0  0
   17.4100   32.5250   72.5060 C   0  0  2  0  0  0  0  0  0  0  0  0
   15.9160   32.8570   72.4470 C   0  0  1  0  0  0  0  0  0  0  0  0
   15.9140   33.9480   71.4900 C   0  0  0  0  0  0  0  0  0  0  0  0
   15.1370   34.2840   70.5690 O   0  0  0  0  0  0  0  0  0  0  0  0
   17.1140   34.7070   71.7930 N   0  0  0  0  0  0  0  0  0  0  0  0
   18.0320   33.8420   72.4460 C   0  0  0  0  0  0  0  0  0  0  0  0
   19.1460   34.1750   72.8750 O   0  0  0  0  0  0  0  0  0  0  0  0
   17.3790   36.0940   71.5170 C   0  0  0  0  0  0  0  0  0  0  0  0
   17.2000   36.5150   70.1060 C   0  0  0  0  0  0  0  0  0  0  0  0
   17.0060   37.8410   69.8570 O   0  0  0  0  0  0  0  0  0  0  0  0
   17.1830   38.2250   68.5440 C   0  0  0  0  0  0  0  0  0  0  0  0
   18.3850   32.2010   70.1910 C   0  0  1  0  0  0  0  0  0  0  0  0
   19.4380   31.4270   69.8010 O   0  0  0  0  0  0  0  0  0  0  0  0
   17.4690   32.6710   69.1090 C   0  0  0  0  0  0  0  0  0  0  0  0
   13.9930   31.8390   71.4420 C   0  0  0  0  0  0  0  0  0  0  0  0
   13.5620   32.3620   70.3670 O   0  0  0  0  0  0  0  0  0  0  0  0
   13.0870   31.3940   72.4240 N   0  0  0  0  0  0  0  0  0  0  0  0
   17.1300   29.7270   73.4350 H   0  0  0  0  0  0  0  0  0  0  0  0
   13.9990   28.4560   76.0040 H   0  0  0  0  0  0  0  0  0  0  0  0
   17.5620   28.8170   75.6430 H   0  0  0  0  0  0  0  0  0  0  0  0
   16.9780   27.3420   74.8360 H   0  0  0  0  0  0  0  0  0  0  0  0
   16.2770   27.8600   76.4530 H   0  0  0  0  0  0  0  0  0  0  0  0
   16.2560   30.1670   70.7110 H   0  0  0  0  0  0  0  0  0  0  0  0
   18.1750   30.7410   71.6630 H   0  0  0  0  0  0  0  0  0  0  0  0
   17.5430   32.0270   73.4970 H   0  0  0  0  0  0  0  0  0  0  0  0
   15.5310   33.1200   73.4500 H   0  0  0  0  0  0  0  0  0  0  0  0
   16.7050   36.7240   72.1420 H   0  0  0  0  0  0  0  0  0  0  0  0
   18.4110   36.3350   71.8720 H   0  0  0  0  0  0  0  0  0  0  0  0
   16.2910   35.9720   69.7170 H   0  0  0  0  0  0  0  0  0  0  0  0
   18.0290   36.1220   69.4690 H   0  0  0  0  0  0  0  0  0  0  0  0
   16.5140   37.7100   67.8520 H   0  0  0  0  0  0  0  0  0  0  0  0
   16.9810   39.3160   68.4850 H   0  0  0  0  0  0  0  0  0  0  0  0
   18.2540   38.0100   68.2820 H   0  0  0  0  0  0  0  0  0  0  0  0
   18.8580   33.1330   70.6480 H   0  0  0  0  0  0  0  0  0  0  0  0
   19.4850   31.2550   68.8260 H   0  0  0  0  0  0  0  0  0  0  0  0
   17.6610   33.7710   68.9150 H   0  0  0  0  0  0  0  0  0  0  0  0
   17.6790   32.1990   68.1240 H   0  0  0  0  0  0  0  0  0  0  0  0
   16.4290   32.5880   69.4470 H   0  0  0  0  0  0  0  0  0  0  0  0
   12.0530   31.5620   72.5110 H   0  0  0  0  0  0  0  0  0  0  0  0
  2  1  1  0  0  0  0
  2  7  1  0  0  0  0
  3  2  2  0  0  0  0
  4  3  1  0  0  0  0
  4  5  2  0  0  0  0
  5  6  1  0  0  0  0
  6  7  2  0  0  0  0
  6  8  1  0  0  0  0
  7 30  1  0  0  0  0
  8 31  1  0  0  0  0
  8 33  1  0  0  0  0
  9 26  1  6  0  0  0
  9 13  1  0  0  0  0
  9  4  1  0  0  0  0
 10 11  1  0  0  0  0
 10  9  1  0  0  0  0
 11 35  1  1  0  0  0
 11 12  1  0  0  0  0
 12 36  1  1  0  0  0
 13 12  1  0  0  0  0
 13 37  1  1  0  0  0
 14 16  1  0  0  0  0
 14 13  1  0  0  0  0
 15 14  2  0  0  0  0
 16 17  1  0  0  0  0
 17 12  1  0  0  0  0
 17 18  2  0  0  0  0
 19 16  1  0  0  0  0
 19 39  1  0  0  0  0
 19 38  1  0  0  0  0
 20 19  1  0  0  0  0
 21 20  1  0  0  0  0
 22 21  1  0  0  0  0
 23 45  1  1  0  0  0
 23 11  1  0  0  0  0
 24 23  1  0  0  0  0
 25 49  1  0  0  0  0
 25 23  1  0  0  0  0
 26 28  1  0  0  0  0
 27 26  2  0  0  0  0
 28 50  1  0  0  0  0
 28  3  1  0  0  0  0
 29  5  1  0  0  0  0
 32  8  1  0  0  0  0
 34 10  1  0  0  0  0
 40 20  1  0  0  0  0
 41 20  1  0  0  0  0
 42 22  1  0  0  0  0
 43 22  1  0  0  0  0
 44 22  1  0  0  0  0
 46 24  1  0  0  0  0
 47 25  1  0  0  0  0
 48 25  1  0  0  0  0
M  END
>  <Pose>
1

>  <Score>
-6.08

$$$$
