
 OpenBabel03212208413D

 44 47  0  0  0  0  0  0  0  0999 V2000
   15.8380   34.9550   70.9370 Cl  0  0  0  0  0  0  0  0  0  0  0  0
   15.7680   33.3040   71.4680 C   0  0  0  0  0  0  0  0  0  0  0  0
   16.8190   32.7280   72.1360 C   0  0  0  0  0  0  0  0  0  0  0  0
   16.7030   31.4140   72.5300 C   0  0  0  0  0  0  0  0  0  0  0  0
   15.5850   30.6450   72.2890 C   0  0  0  0  0  0  0  0  0  0  0  0
   14.5410   31.2390   71.6170 C   0  0  0  0  0  0  0  0  0  0  0  0
   14.6470   32.5540   71.2180 C   0  0  0  0  0  0  0  0  0  0  0  0
   15.4920   29.2630   72.7160 N   0  0  0  0  0  0  0  0  0  0  0  0
   16.6790   28.4880   72.6140 C   0  0  0  0  0  0  0  0  0  0  0  0
   16.5780   27.0390   72.7690 C   0  0  0  0  0  0  0  0  0  0  0  0
   17.1370   26.3910   71.7770 O   0  0  0  0  0  0  0  0  0  0  0  0
   16.0180   26.2520   73.7440 N   0  0  0  0  0  0  0  0  0  0  0  0
   15.4200   26.7050   74.9590 C   0  0  0  0  0  0  0  0  0  0  0  0
   13.9720   26.2240   74.9900 C   0  0  0  0  0  0  0  0  0  0  0  0
   14.0630   24.8150   75.0240 O   0  0  0  0  0  0  0  0  0  0  0  0
   14.5040   24.3810   73.7930 C   0  0  0  0  0  0  0  0  0  0  0  0
   15.9640   24.7850   73.5630 C   0  0  0  0  0  0  0  0  0  0  0  0
   18.0060   33.4240   72.4220 N   0  0  0  0  0  0  0  0  0  0  0  0
   18.2080   34.1440   73.5070 N   0  0  0  0  0  0  0  0  0  0  0  0
   19.4220   34.6620   73.4890 N   0  0  0  0  0  0  0  0  0  0  0  0
   19.9820   34.2550   72.3680 N   0  0  0  0  0  0  0  0  0  0  0  0
   19.1020   33.4690   71.6770 C   0  0  0  0  0  0  0  0  0  0  0  0
   19.4300   32.8730   70.3830 C   0  0  0  0  0  0  0  0  0  0  0  0
   20.6040   33.1810   69.5770 C   0  0  0  0  0  0  0  0  0  0  0  0
   20.6350   31.8870   70.4080 C   0  0  0  0  0  0  0  0  0  0  0  0
   17.5360   30.9280   73.0700 H   0  0  0  0  0  0  0  0  0  0  0  0
   13.6610   30.6300   71.4290 H   0  0  0  0  0  0  0  0  0  0  0  0
   13.7830   32.9770   70.6860 H   0  0  0  0  0  0  0  0  0  0  0  0
   14.6130   28.8740   73.0720 H   0  0  0  0  0  0  0  0  0  0  0  0
   17.3650   28.8440   73.4440 H   0  0  0  0  0  0  0  0  0  0  0  0
   17.2680   28.7530   71.6900 H   0  0  0  0  0  0  0  0  0  0  0  0
   15.9100   26.0400   75.7700 H   0  0  0  0  0  0  0  0  0  0  0  0
   15.5760   27.7260   75.2600 H   0  0  0  0  0  0  0  0  0  0  0  0
   13.4650   26.6340   75.8650 H   0  0  0  0  0  0  0  0  0  0  0  0
   13.4120   26.4650   74.0880 H   0  0  0  0  0  0  0  0  0  0  0  0
   13.8590   24.8070   72.9990 H   0  0  0  0  0  0  0  0  0  0  0  0
   14.4280   23.2890   73.7220 H   0  0  0  0  0  0  0  0  0  0  0  0
   16.2930   24.4760   72.5740 H   0  0  0  0  0  0  0  0  0  0  0  0
   16.5390   24.3650   74.4110 H   0  0  0  0  0  0  0  0  0  0  0  0
   18.5710   32.3840   69.8190 H   0  0  0  0  0  0  0  0  0  0  0  0
   20.5230   33.0570   68.4540 H   0  0  0  0  0  0  0  0  0  0  0  0
   21.4320   33.8360   69.8350 H   0  0  0  0  0  0  0  0  0  0  0  0
   20.5740   30.9770   69.7990 H   0  0  0  0  0  0  0  0  0  0  0  0
   21.2290   31.8370   71.3170 H   0  0  0  0  0  0  0  0  0  0  0  0
  1  2  1  0  0  0  0
  2  3  1  0  0  0  0
  3 18  1  0  0  0  0
  3  4  2  0  0  0  0
  4 26  1  0  0  0  0
  5  4  1  0  0  0  0
  5  8  1  0  0  0  0
  6  5  2  0  0  0  0
  7  2  2  0  0  0  0
  7  6  1  0  0  0  0
  8 29  1  0  0  0  0
  9  8  1  0  0  0  0
  9 10  1  0  0  0  0
  9 30  1  0  0  0  0
 10 12  1  0  0  0  0
 11 10  2  0  0  0  0
 12 13  1  0  0  0  0
 13 14  1  0  0  0  0
 13 33  1  0  0  0  0
 13 32  1  0  0  0  0
 14 15  1  0  0  0  0
 14 34  1  0  0  0  0
 16 15  1  0  0  0  0
 17 12  1  0  0  0  0
 17 16  1  0  0  0  0
 17 39  1  0  0  0  0
 18 19  1  0  0  0  0
 20 19  2  0  0  0  0
 21 20  1  0  0  0  0
 22 21  2  0  0  0  0
 22 18  1  0  0  0  0
 23 25  1  0  0  0  0
 23 22  1  0  0  0  0
 24 42  1  0  0  0  0
 24 23  1  0  0  0  0
 24 25  1  0  0  0  0
 25 44  1  0  0  0  0
 27  6  1  0  0  0  0
 28  7  1  0  0  0  0
 31  9  1  0  0  0  0
 35 14  1  0  0  0  0
 36 16  1  0  0  0  0
 37 16  1  0  0  0  0
 38 17  1  0  0  0  0
 40 23  1  0  0  0  0
 41 24  1  0  0  0  0
 43 25  1  0  0  0  0
M  END
>  <Pose>
1

>  <Score>
-5.63

$$$$
