
 OpenBabel03212208413D

 49 52  0  0  1  0  0  0  0  0999 V2000
   25.3600   37.0730   64.6700 B   0  0  0  0  0  0  0  0  0  0  0  0
   24.0510   36.5540   65.9650 C   0  0  0  0  0  0  0  0  0  0  0  0
   22.7170   36.4530   65.6450 C   0  0  0  0  0  0  0  0  0  0  0  0
   21.7580   36.0780   66.5780 C   0  0  0  0  0  0  0  0  0  0  0  0
   22.1260   35.7900   67.8760 C   0  0  0  0  0  0  0  0  0  0  0  0
   23.4690   35.8910   68.1960 C   0  0  0  0  0  0  0  0  0  0  0  0
   24.4220   36.2640   67.2700 C   0  0  0  0  0  0  0  0  0  0  0  0
   21.1800   35.3930   68.8980 C   0  0  0  0  0  0  0  0  0  0  0  0
   20.3950   36.3260   69.5680 C   0  0  0  0  0  0  0  0  0  0  0  0
   19.5330   35.9870   70.4960 O   0  0  0  0  0  0  0  0  0  0  0  0
   19.3390   34.7440   70.8680 C   0  0  0  0  0  0  0  0  0  0  0  0
   20.0700   33.7500   70.2620 C   0  0  0  0  0  0  0  0  0  0  0  0
   19.8360   32.4630   70.6830 C   0  0  0  0  0  0  0  0  0  0  0  0
   18.9250   32.1420   71.6570 C   0  0  0  0  0  0  0  0  0  0  0  0
   18.1660   33.1460   72.2920 C   0  0  0  0  0  0  0  0  0  0  0  0
   18.4060   34.4300   71.8650 C   0  0  0  0  0  0  0  0  0  0  0  0
   17.2610   32.7810   73.2660 O   0  0  0  0  0  0  0  0  0  0  0  0
   16.1810   31.9620   73.1090 C   0  0  2  0  0  0  0  0  0  0  0  0
   16.5350   30.6040   72.8930 O   0  0  0  0  0  0  0  0  0  0  0  0
   15.4320   29.8720   73.2750 C   0  0  1  0  0  0  0  0  0  0  0  0
   14.2100   30.1080   72.4430 C   0  0  2  0  0  0  0  0  0  0  0  0
   13.9920   31.5710   72.1420 C   0  0  1  0  0  0  0  0  0  0  0  0
   15.2990   32.3040   71.9220 C   0  0  1  0  0  0  0  0  0  0  0  0
   15.0230   33.6650   71.8620 O   0  0  0  0  0  0  0  0  0  0  0  0
   13.1240   31.7000   71.0660 O   0  0  0  0  0  0  0  0  0  0  0  0
   13.1050   29.6860   73.2000 O   0  0  0  0  0  0  0  0  0  0  0  0
   15.7090   28.3920   73.3670 C   0  0  0  0  0  0  0  0  0  0  0  0
   16.2690   27.8910   72.1940 O   0  0  0  0  0  0  0  0  0  0  0  0
   20.9850   34.0710   69.2830 C   0  0  0  0  0  0  0  0  0  0  0  0
   21.6560   33.1610   68.7260 O   0  0  0  0  0  0  0  0  0  0  0  0
   22.4070   36.6770   64.6260 H   0  0  0  0  0  0  0  0  0  0  0  0
   20.7160   35.9990   66.3310 H   0  0  0  0  0  0  0  0  0  0  0  0
   23.7620   35.6640   69.2230 H   0  0  0  0  0  0  0  0  0  0  0  0
   25.4740   36.3440   67.5210 H   0  0  0  0  0  0  0  0  0  0  0  0
   20.5500   37.3650   69.2630 H   0  0  0  0  0  0  0  0  0  0  0  0
   20.4240   31.6850   70.1910 H   0  0  0  0  0  0  0  0  0  0  0  0
   18.7460   31.1250   71.9820 H   0  0  0  0  0  0  0  0  0  0  0  0
   17.8600   35.2410   72.3090 H   0  0  0  0  0  0  0  0  0  0  0  0
   15.5200   31.9850   73.9910 H   0  0  0  0  0  0  0  0  0  0  0  0
   15.1780   30.2020   74.3210 H   0  0  0  0  0  0  0  0  0  0  0  0
   14.2040   29.5010   71.5020 H   0  0  0  0  0  0  0  0  0  0  0  0
   13.5150   32.0370   73.0290 H   0  0  0  0  0  0  0  0  0  0  0  0
   15.8330   31.9580   71.0120 H   0  0  0  0  0  0  0  0  0  0  0  0
   14.4620   33.9440   72.6230 H   0  0  0  0  0  0  0  0  0  0  0  0
   12.1750   31.4750   71.3150 H   0  0  0  0  0  0  0  0  0  0  0  0
   12.2590   29.9470   72.7580 H   0  0  0  0  0  0  0  0  0  0  0  0
   14.8040   27.8250   73.6630 H   0  0  0  0  0  0  0  0  0  0  0  0
   16.4630   28.1840   74.1740 H   0  0  0  0  0  0  0  0  0  0  0  0
   16.2100   28.6460   71.5280 H   0  0  0  0  0  0  0  0  0  0  0  0
  1  2  1  0  0  0  0
  2  7  1  0  0  0  0
  3  2  2  0  0  0  0
  3  4  1  0  0  0  0
  4  5  2  0  0  0  0
  5  6  1  0  0  0  0
  5  8  1  0  0  0  0
  6 33  1  0  0  0  0
  7 34  1  0  0  0  0
  7  6  2  0  0  0  0
  8 29  1  0  0  0  0
  8  9  2  0  0  0  0
  9 10  1  0  0  0  0
 10 11  1  0  0  0  0
 11 16  1  0  0  0  0
 12 13  1  0  0  0  0
 12 11  2  0  0  0  0
 13 14  2  0  0  0  0
 14 37  1  0  0  0  0
 14 15  1  0  0  0  0
 15 17  1  0  0  0  0
 16 15  2  0  0  0  0
 16 38  1  0  0  0  0
 18 17  1  0  0  0  0
 18 39  1  1  0  0  0
 19 18  1  0  0  0  0
 19 20  1  0  0  0  0
 20 27  1  0  0  0  0
 20 40  1  1  0  0  0
 21 41  1  6  0  0  0
 21 26  1  0  0  0  0
 21 20  1  0  0  0  0
 22 21  1  0  0  0  0
 22 42  1  1  0  0  0
 23 43  1  6  0  0  0
 23 22  1  0  0  0  0
 23 18  1  0  0  0  0
 24 23  1  0  0  0  0
 24 44  1  0  0  0  0
 25 45  1  0  0  0  0
 25 22  1  0  0  0  0
 27 47  1  0  0  0  0
 27 48  1  0  0  0  0
 28 27  1  0  0  0  0
 29 12  1  0  0  0  0
 30 29  2  0  0  0  0
 31  3  1  0  0  0  0
 32  4  1  0  0  0  0
 35  9  1  0  0  0  0
 36 13  1  0  0  0  0
 46 26  1  0  0  0  0
 49 28  1  0  0  0  0
M  END
>  <Pose>
1

>  <Score>
-6.55

$$$$
