
 OpenBabel03212208413D

 54 57  0  0  0  0  0  0  0  0999 V2000
   15.9470   28.2480   77.0050 B   0  0  0  0  0  0  0  0  0  0  0  0
   16.1390   28.8700   75.2120 C   0  0  0  0  0  0  0  0  0  0  0  0
   16.5170   28.0150   74.2010 C   0  0  0  0  0  0  0  0  0  0  0  0
   16.6540   28.4870   72.8950 C   0  0  0  0  0  0  0  0  0  0  0  0
   16.4080   29.8040   72.6380 C   0  0  0  0  0  0  0  0  0  0  0  0
   16.0330   30.6640   73.6290 C   0  0  0  0  0  0  0  0  0  0  0  0
   15.8980   30.2010   74.9150 C   0  0  0  0  0  0  0  0  0  0  0  0
   16.6070   30.2790   71.2100 C   0  0  0  0  0  0  0  0  0  0  0  0
   16.3520   31.6920   71.0900 N   0  0  0  0  0  0  0  0  0  0  0  0
   15.0960   32.2480   71.1120 C   0  0  0  0  0  0  0  0  0  0  0  0
   15.1950   33.6140   70.9410 C   0  0  0  0  0  0  0  0  0  0  0  0
   16.5030   33.8610   70.8220 N   0  0  0  0  0  0  0  0  0  0  0  0
   17.2140   32.6930   70.9150 C   0  0  0  0  0  0  0  0  0  0  0  0
   18.6180   32.6830   70.9200 N   0  0  0  0  0  0  0  0  0  0  0  0
   19.5250   31.7250   70.3980 C   0  0  0  0  0  0  0  0  0  0  0  0
   20.8550   31.7100   71.1600 C   0  0  0  0  0  0  0  0  0  0  0  0
   20.8040   32.1830   72.4820 N   0  0  0  0  0  0  0  0  0  0  0  0
   20.1260   33.3970   72.7120 C   0  0  0  0  0  0  0  0  0  0  0  0
   19.2830   33.8590   71.5450 C   0  0  0  0  0  0  0  0  0  0  0  0
   21.0170   31.3050   73.5570 C   0  0  0  0  0  0  0  0  0  0  0  0
   22.3900   30.8260   73.7800 C   0  0  0  0  0  0  0  0  0  0  0  0
   23.0370   30.1850   72.9100 O   0  0  0  0  0  0  0  0  0  0  0  0
   23.0140   31.0770   74.9830 O   0  0  0  0  0  0  0  0  0  0  0  0
   22.4940   30.6440   76.2100 C   0  0  0  0  0  0  0  0  0  0  0  0
   14.0960   34.3940   70.9320 N   0  0  0  0  0  0  0  0  0  0  0  0
   12.9010   33.8070   71.0950 C   0  0  0  0  0  0  0  0  0  0  0  0
   11.8830   34.5440   71.0860 O   0  0  0  0  0  0  0  0  0  0  0  0
   12.7660   32.4880   71.2650 N   0  0  0  0  0  0  0  0  0  0  0  0
   13.8580   31.6660   71.2790 C   0  0  0  0  0  0  0  0  0  0  0  0
   13.6970   30.4320   71.4440 O   0  0  0  0  0  0  0  0  0  0  0  0
   14.2430   35.8250   70.7440 C   0  0  0  0  0  0  0  0  0  0  0  0
   16.7180   26.9560   74.3870 H   0  0  0  0  0  0  0  0  0  0  0  0
   16.9520   27.7640   72.1250 H   0  0  0  0  0  0  0  0  0  0  0  0
   15.8540   31.7030   73.4240 H   0  0  0  0  0  0  0  0  0  0  0  0
   15.6010   30.8870   75.6930 H   0  0  0  0  0  0  0  0  0  0  0  0
   15.9440   29.6270   70.6460 H   0  0  0  0  0  0  0  0  0  0  0  0
   17.6820   30.0670   70.9620 H   0  0  0  0  0  0  0  0  0  0  0  0
   19.1690   30.6640   70.4830 H   0  0  0  0  0  0  0  0  0  0  0  0
   19.8070   32.0100   69.3660 H   0  0  0  0  0  0  0  0  0  0  0  0
   21.3040   30.6820   71.1610 H   0  0  0  0  0  0  0  0  0  0  0  0
   21.6340   32.3330   70.6220 H   0  0  0  0  0  0  0  0  0  0  0  0
   20.8970   34.1950   72.8720 H   0  0  0  0  0  0  0  0  0  0  0  0
   19.5430   33.3430   73.6460 H   0  0  0  0  0  0  0  0  0  0  0  0
   19.8940   34.3000   70.7320 H   0  0  0  0  0  0  0  0  0  0  0  0
   18.5460   34.5800   71.9180 H   0  0  0  0  0  0  0  0  0  0  0  0
   20.2740   30.4700   73.5470 H   0  0  0  0  0  0  0  0  0  0  0  0
   20.7460   31.8720   74.5010 H   0  0  0  0  0  0  0  0  0  0  0  0
   21.9700   31.4750   76.7400 H   0  0  0  0  0  0  0  0  0  0  0  0
   23.3840   30.3820   76.8520 H   0  0  0  0  0  0  0  0  0  0  0  0
   21.7820   29.8000   76.1370 H   0  0  0  0  0  0  0  0  0  0  0  0
   11.8210   32.0450   71.3940 H   0  0  0  0  0  0  0  0  0  0  0  0
   14.8510   36.2040   71.5920 H   0  0  0  0  0  0  0  0  0  0  0  0
   14.8270   36.0490   69.8150 H   0  0  0  0  0  0  0  0  0  0  0  0
   13.2520   36.2850   70.6510 H   0  0  0  0  0  0  0  0  0  0  0  0
  2  1  1  0  0  0  0
  3 32  1  0  0  0  0
  3  2  2  0  0  0  0
  4  3  1  0  0  0  0
  5  4  2  0  0  0  0
  5  6  1  0  0  0  0
  6  7  2  0  0  0  0
  7  2  1  0  0  0  0
  7 35  1  0  0  0  0
  8  5  1  0  0  0  0
  9 10  1  0  0  0  0
  9  8  1  0  0  0  0
 10 29  1  0  0  0  0
 11 10  2  0  0  0  0
 12 13  2  0  0  0  0
 12 11  1  0  0  0  0
 13 14  1  0  0  0  0
 13  9  1  0  0  0  0
 14 19  1  0  0  0  0
 15 38  1  0  0  0  0
 15 14  1  0  0  0  0
 15 16  1  0  0  0  0
 16 40  1  0  0  0  0
 16 17  1  0  0  0  0
 17 18  1  0  0  0  0
 17 20  1  0  0  0  0
 18 42  1  0  0  0  0
 18 43  1  0  0  0  0
 19 45  1  0  0  0  0
 19 18  1  0  0  0  0
 20 21  1  0  0  0  0
 20 47  1  0  0  0  0
 21 23  1  0  0  0  0
 22 21  2  0  0  0  0
 23 24  1  0  0  0  0
 24 48  1  0  0  0  0
 24 49  1  0  0  0  0
 25 11  1  0  0  0  0
 25 26  1  0  0  0  0
 26 28  1  0  0  0  0
 27 26  2  0  0  0  0
 28 29  1  0  0  0  0
 28 51  1  0  0  0  0
 29 30  2  0  0  0  0
 31 25  1  0  0  0  0
 31 52  1  0  0  0  0
 33  4  1  0  0  0  0
 34  6  1  0  0  0  0
 36  8  1  0  0  0  0
 37  8  1  0  0  0  0
 39 15  1  0  0  0  0
 41 16  1  0  0  0  0
 44 19  1  0  0  0  0
 46 20  1  0  0  0  0
 50 24  1  0  0  0  0
 53 31  1  0  0  0  0
 54 31  1  0  0  0  0
M  END
>  <Pose>
1

>  <Score>
-6.54

$$$$
