
 OpenBabel03212208413D

 48 51  0  0  0  0  0  0  0  0999 V2000
   20.4860   35.5730   71.4970 B   0  0  0  0  0  0  0  0  0  0  0  0
   19.3010   34.0800   71.5150 C   0  0  0  0  0  0  0  0  0  0  0  0
   18.2290   34.0040   72.3980 C   0  0  0  0  0  0  0  0  0  0  0  0
   17.4050   32.8800   72.3690 C   0  0  0  0  0  0  0  0  0  0  0  0
   17.5890   31.8370   71.5150 C   0  0  0  0  0  0  0  0  0  0  0  0
   18.6850   31.9590   70.6400 C   0  0  0  0  0  0  0  0  0  0  0  0
   19.5260   33.0480   70.6340 C   0  0  0  0  0  0  0  0  0  0  0  0
   16.8000   30.6220   71.4560 C   0  0  0  0  0  0  0  0  0  0  0  0
   16.1810   30.1570   72.6730 N   0  0  0  0  0  0  0  0  0  0  0  0
   14.9140   30.3680   73.0590 C   0  0  0  0  0  0  0  0  0  0  0  0
   14.7090   29.7520   74.2740 C   0  0  0  0  0  0  0  0  0  0  0  0
   15.8620   29.1840   74.5900 N   0  0  0  0  0  0  0  0  0  0  0  0
   16.7760   29.4130   73.6380 C   0  0  0  0  0  0  0  0  0  0  0  0
   18.1360   28.9600   73.6230 N   0  0  0  0  0  0  0  0  0  0  0  0
   18.3710   27.5330   73.6390 C   0  0  0  0  0  0  0  0  0  0  0  0
   19.0730   27.1920   74.9460 C   0  0  0  0  0  0  0  0  0  0  0  0
   19.7660   28.3010   75.5090 N   0  0  0  0  0  0  0  0  0  0  0  0
   20.2920   29.2490   74.5830 C   0  0  0  0  0  0  0  0  0  0  0  0
   19.2920   29.8170   73.6100 C   0  0  0  0  0  0  0  0  0  0  0  0
   19.3090   28.7980   76.7510 C   0  0  0  0  0  0  0  0  0  0  0  0
   13.5290   29.7850   74.9430 N   0  0  0  0  0  0  0  0  0  0  0  0
   12.5240   30.4650   74.3670 C   0  0  0  0  0  0  0  0  0  0  0  0
   11.4380   30.4840   75.0000 O   0  0  0  0  0  0  0  0  0  0  0  0
   12.6630   31.0900   73.1850 N   0  0  0  0  0  0  0  0  0  0  0  0
   13.8280   31.0630   72.5130 C   0  0  0  0  0  0  0  0  0  0  0  0
   13.9900   31.6300   71.4240 O   0  0  0  0  0  0  0  0  0  0  0  0
   13.4060   29.1040   76.2140 C   0  0  0  0  0  0  0  0  0  0  0  0
   18.0380   34.8110   73.0920 H   0  0  0  0  0  0  0  0  0  0  0  0
   16.6130   32.8840   73.0680 H   0  0  0  0  0  0  0  0  0  0  0  0
   18.9160   31.1760   69.9250 H   0  0  0  0  0  0  0  0  0  0  0  0
   20.3620   33.0810   69.9270 H   0  0  0  0  0  0  0  0  0  0  0  0
   15.9490   30.7860   70.7260 H   0  0  0  0  0  0  0  0  0  0  0  0
   17.4530   29.7960   71.0830 H   0  0  0  0  0  0  0  0  0  0  0  0
   19.0840   27.3080   72.7900 H   0  0  0  0  0  0  0  0  0  0  0  0
   17.4770   26.9200   73.4610 H   0  0  0  0  0  0  0  0  0  0  0  0
   18.2820   26.8680   75.6520 H   0  0  0  0  0  0  0  0  0  0  0  0
   19.7600   26.3380   74.7990 H   0  0  0  0  0  0  0  0  0  0  0  0
   21.1330   28.7610   74.0110 H   0  0  0  0  0  0  0  0  0  0  0  0
   20.7540   30.0850   75.1450 H   0  0  0  0  0  0  0  0  0  0  0  0
   19.7540   29.7800   72.5820 H   0  0  0  0  0  0  0  0  0  0  0  0
   19.0680   30.8660   73.8850 H   0  0  0  0  0  0  0  0  0  0  0  0
   18.2910   28.4820   77.0500 H   0  0  0  0  0  0  0  0  0  0  0  0
   19.2870   29.9140   76.6910 H   0  0  0  0  0  0  0  0  0  0  0  0
   20.0000   28.5640   77.6050 H   0  0  0  0  0  0  0  0  0  0  0  0
   11.8770   31.6190   72.7480 H   0  0  0  0  0  0  0  0  0  0  0  0
   12.6570   29.6000   76.8750 H   0  0  0  0  0  0  0  0  0  0  0  0
   14.3870   28.9570   76.6610 H   0  0  0  0  0  0  0  0  0  0  0  0
   12.9720   28.1000   76.0030 H   0  0  0  0  0  0  0  0  0  0  0  0
  1  2  1  0  0  0  0
  2  3  1  0  0  0  0
  3 28  1  0  0  0  0
  4  3  2  0  0  0  0
  4 29  1  0  0  0  0
  5  4  1  0  0  0  0
  6  5  2  0  0  0  0
  7  6  1  0  0  0  0
  7  2  2  0  0  0  0
  8  5  1  0  0  0  0
  8  9  1  0  0  0  0
  9 10  1  0  0  0  0
  9 13  1  0  0  0  0
 10 11  2  0  0  0  0
 11 12  1  0  0  0  0
 11 21  1  0  0  0  0
 13 12  2  0  0  0  0
 14 13  1  0  0  0  0
 14 15  1  0  0  0  0
 15 16  1  0  0  0  0
 16 17  1  0  0  0  0
 16 36  1  0  0  0  0
 17 20  1  0  0  0  0
 18 39  1  0  0  0  0
 18 17  1  0  0  0  0
 19 14  1  0  0  0  0
 19 41  1  0  0  0  0
 19 18  1  0  0  0  0
 20 42  1  0  0  0  0
 20 44  1  0  0  0  0
 21 27  1  0  0  0  0
 22 21  1  0  0  0  0
 22 23  2  0  0  0  0
 24 22  1  0  0  0  0
 25 10  1  0  0  0  0
 25 24  1  0  0  0  0
 26 25  2  0  0  0  0
 27 47  1  0  0  0  0
 27 46  1  0  0  0  0
 30  6  1  0  0  0  0
 31  7  1  0  0  0  0
 32  8  1  0  0  0  0
 33  8  1  0  0  0  0
 34 15  1  0  0  0  0
 35 15  1  0  0  0  0
 37 16  1  0  0  0  0
 38 18  1  0  0  0  0
 40 19  1  0  0  0  0
 43 20  1  0  0  0  0
 45 24  1  0  0  0  0
 48 27  1  0  0  0  0
M  END
>  <Pose>
1

>  <Score>
-5.79

$$$$
