
 OpenBabel03212208413D

 43 46  0  0  0  0  0  0  0  0999 V2000
   21.1110   35.7140   67.4280 B   0  0  0  0  0  0  0  0  0  0  0  0
   21.5110   34.7820   69.0460 C   0  0  0  0  0  0  0  0  0  0  0  0
   22.7490   34.2640   69.2570 C   0  0  0  0  0  0  0  0  0  0  0  0
   23.0420   33.6110   70.3810 N   0  0  0  0  0  0  0  0  0  0  0  0
   22.1020   33.4590   71.3250 C   0  0  0  0  0  0  0  0  0  0  0  0
   20.8190   33.9690   71.1630 C   0  0  0  0  0  0  0  0  0  0  0  0
   20.5080   34.6450   70.0050 C   0  0  0  0  0  0  0  0  0  0  0  0
   19.8720   33.7650   72.2340 C   0  0  0  0  0  0  0  0  0  0  0  0
   20.1520   33.0370   73.2010 O   0  0  0  0  0  0  0  0  0  0  0  0
   18.5470   34.4180   72.2040 N   0  0  0  0  0  0  0  0  0  0  0  0
   17.7250   34.0640   71.1310 C   0  0  0  0  0  0  0  0  0  0  0  0
   16.2920   33.8680   71.1930 C   0  0  0  0  0  0  0  0  0  0  0  0
   15.9570   32.6760   71.9290 C   0  0  0  0  0  0  0  0  0  0  0  0
   14.6670   32.3230   72.0830 C   0  0  0  0  0  0  0  0  0  0  0  0
   13.6300   33.0990   71.5340 C   0  0  0  0  0  0  0  0  0  0  0  0
   13.9310   34.2400   70.8300 C   0  0  0  0  0  0  0  0  0  0  0  0
   15.2730   34.6200   70.6660 C   0  0  0  0  0  0  0  0  0  0  0  0
   15.6130   35.8990   69.9900 C   0  0  0  0  0  0  0  0  0  0  0  0
   14.4430   36.8740   69.9040 C   0  0  0  0  0  0  0  0  0  0  0  0
   13.2340   36.2210   69.4600 N   0  0  0  0  0  0  0  0  0  0  0  0
   12.8860   35.0530   70.2170 C   0  0  0  0  0  0  0  0  0  0  0  0
   11.6680   34.7920   70.3080 O   0  0  0  0  0  0  0  0  0  0  0  0
   12.4450   36.7040   68.3480 C   0  0  0  0  0  0  0  0  0  0  0  0
   12.3670   32.6780   71.7300 O   0  0  0  0  0  0  0  0  0  0  0  0
   14.6490   31.1370   72.8340 O   0  0  0  0  0  0  0  0  0  0  0  0
   15.9570   30.6140   72.9340 C   0  0  0  0  0  0  0  0  0  0  0  0
   16.7530   31.7250   72.5740 O   0  0  0  0  0  0  0  0  0  0  0  0
   23.5650   34.3530   68.5210 H   0  0  0  0  0  0  0  0  0  0  0  0
   22.3050   32.9340   72.2550 H   0  0  0  0  0  0  0  0  0  0  0  0
   19.5250   35.0550   69.8500 H   0  0  0  0  0  0  0  0  0  0  0  0
   18.4400   35.0820   72.9840 H   0  0  0  0  0  0  0  0  0  0  0  0
   17.9450   34.8450   70.2860 H   0  0  0  0  0  0  0  0  0  0  0  0
   18.2150   33.1460   70.5940 H   0  0  0  0  0  0  0  0  0  0  0  0
   15.9770   35.7760   68.9650 H   0  0  0  0  0  0  0  0  0  0  0  0
   16.3590   36.4740   70.5900 H   0  0  0  0  0  0  0  0  0  0  0  0
   14.7730   37.6630   69.1840 H   0  0  0  0  0  0  0  0  0  0  0  0
   14.3120   37.2960   70.9250 H   0  0  0  0  0  0  0  0  0  0  0  0
   12.9930   36.4060   67.4200 H   0  0  0  0  0  0  0  0  0  0  0  0
   12.3940   37.8080   68.3680 H   0  0  0  0  0  0  0  0  0  0  0  0
   11.4690   36.2020   68.3390 H   0  0  0  0  0  0  0  0  0  0  0  0
   12.0130   31.8300   72.0130 H   0  0  0  0  0  0  0  0  0  0  0  0
   16.1830   30.2540   73.9590 H   0  0  0  0  0  0  0  0  0  0  0  0
   16.0330   29.7820   72.2160 H   0  0  0  0  0  0  0  0  0  0  0  0
  1  2  1  0  0  0  0
  2  3  2  0  0  0  0
  2  7  1  0  0  0  0
  3  4  1  0  0  0  0
  4  5  2  0  0  0  0
  5 29  1  0  0  0  0
  6  5  1  0  0  0  0
  6  8  1  0  0  0  0
  7  6  2  0  0  0  0
  8  9  2  0  0  0  0
 10  8  1  0  0  0  0
 10 31  1  0  0  0  0
 11 12  1  0  0  0  0
 11 10  1  0  0  0  0
 12 13  1  0  0  0  0
 13 14  2  0  0  0  0
 13 27  1  0  0  0  0
 14 25  1  0  0  0  0
 15 24  1  0  0  0  0
 15 14  1  0  0  0  0
 16 15  2  0  0  0  0
 17 16  1  0  0  0  0
 17 12  2  0  0  0  0
 18 35  1  0  0  0  0
 18 17  1  0  0  0  0
 19 18  1  0  0  0  0
 19 37  1  0  0  0  0
 20 19  1  0  0  0  0
 20 21  1  0  0  0  0
 21 22  2  0  0  0  0
 21 16  1  0  0  0  0
 23 39  1  0  0  0  0
 23 20  1  0  0  0  0
 24 41  1  0  0  0  0
 25 26  1  0  0  0  0
 26 42  1  0  0  0  0
 27 26  1  0  0  0  0
 28  3  1  0  0  0  0
 30  7  1  0  0  0  0
 32 11  1  0  0  0  0
 33 11  1  0  0  0  0
 34 18  1  0  0  0  0
 36 19  1  0  0  0  0
 38 23  1  0  0  0  0
 40 23  1  0  0  0  0
 43 26  1  0  0  0  0
M  END
>  <Pose>
1

>  <Score>
-7.06

$$$$
