
 OpenBabel03212208413D

 38 41  0  0  1  0  0  0  0  0999 V2000
   21.0490   32.4300   70.4530 Cl  0  0  0  0  0  0  0  0  0  0  0  0
   19.6430   32.6740   71.4680 C   0  0  0  0  0  0  0  0  0  0  0  0
   18.3600   32.4340   70.9740 C   0  0  0  0  0  0  0  0  0  0  0  0
   17.2400   32.6130   71.7310 C   0  0  0  0  0  0  0  0  0  0  0  0
   17.4370   33.0500   73.0340 C   0  0  0  0  0  0  0  0  0  0  0  0
   18.6950   33.2910   73.5400 C   0  0  0  0  0  0  0  0  0  0  0  0
   19.8140   33.1050   72.7600 C   0  0  0  0  0  0  0  0  0  0  0  0
   16.0530   32.2770   70.9190 C   0  0  2  0  0  0  0  0  0  0  0  0
   15.1790   33.4930   70.7440 C   0  0  0  0  0  0  0  0  0  0  0  0
   13.9190   33.5270   71.0790 C   0  0  0  0  0  0  0  0  0  0  0  0
   13.2620   32.3960   71.6470 N   0  0  0  0  0  0  0  0  0  0  0  0
   14.0100   31.2110   71.8460 C   0  0  0  0  0  0  0  0  0  0  0  0
   15.2800   31.1640   71.5120 C   0  0  0  0  0  0  0  0  0  0  0  0
   16.0120   29.9250   71.7350 C   0  0  0  0  0  0  0  0  0  0  0  0
   16.5920   28.9370   71.8950 N   0  0  0  0  0  0  0  0  0  0  0  0
   13.4200   30.0350   72.4100 N   0  0  0  0  0  0  0  0  0  0  0  0
   13.3780   34.8660   70.7690 C   0  0  0  0  0  0  0  0  0  0  0  0
   14.4260   35.5790   70.2380 O   0  0  0  0  0  0  0  0  0  0  0  0
   15.5520   34.7910   70.1970 C   0  0  0  0  0  0  0  0  0  0  0  0
   16.7170   35.1050   69.7690 O   0  0  0  0  0  0  0  0  0  0  0  0
   12.7940   35.4650   72.0290 C   0  0  0  0  0  0  0  0  0  0  0  0
   12.2670   34.8020   69.7370 C   0  0  0  0  0  0  0  0  0  0  0  0
   16.6060   31.8810   69.6030 C   0  0  0  0  0  0  0  0  0  0  0  0
   15.9370   31.5060   68.5740 O   0  0  0  0  0  0  0  0  0  0  0  0
   18.0100   31.9910   69.6740 N   0  0  0  0  0  0  0  0  0  0  0  0
   16.5890   33.2080   73.6780 H   0  0  0  0  0  0  0  0  0  0  0  0
   18.8590   33.6340   74.5620 H   0  0  0  0  0  0  0  0  0  0  0  0
   20.8140   33.2860   73.1280 H   0  0  0  0  0  0  0  0  0  0  0  0
   12.2550   32.4170   71.9170 H   0  0  0  0  0  0  0  0  0  0  0  0
   13.9930   29.3540   72.9250 H   0  0  0  0  0  0  0  0  0  0  0  0
   12.4110   29.8880   72.2870 H   0  0  0  0  0  0  0  0  0  0  0  0
   12.5140   36.5240   71.8880 H   0  0  0  0  0  0  0  0  0  0  0  0
   13.3990   35.2680   72.9210 H   0  0  0  0  0  0  0  0  0  0  0  0
   11.8170   34.9240   72.1980 H   0  0  0  0  0  0  0  0  0  0  0  0
   12.6540   34.1210   68.9280 H   0  0  0  0  0  0  0  0  0  0  0  0
   12.1500   35.8250   69.3290 H   0  0  0  0  0  0  0  0  0  0  0  0
   11.3120   34.4750   70.1530 H   0  0  0  0  0  0  0  0  0  0  0  0
   18.6630   31.7660   68.8630 H   0  0  0  0  0  0  0  0  0  0  0  0
  1  2  1  0  0  0  0
  2  7  1  0  0  0  0
  3  2  2  0  0  0  0
  3  4  1  0  0  0  0
  4  5  2  0  0  0  0
  5  6  1  0  0  0  0
  5 26  1  0  0  0  0
  6 27  1  0  0  0  0
  7 28  1  0  0  0  0
  7  6  2  0  0  0  0
  8 23  1  6  0  0  0
  8 13  1  0  0  0  0
  8  4  1  0  0  0  0
  9  8  1  0  0  0  0
  9 10  2  0  0  0  0
 10 11  1  0  0  0  0
 11 12  1  0  0  0  0
 11 29  1  0  0  0  0
 12 16  1  0  0  0  0
 13 14  1  0  0  0  0
 13 12  2  0  0  0  0
 14 15  3  0  0  0  0
 16 30  1  0  0  0  0
 17 10  1  0  0  0  0
 17 21  1  0  0  0  0
 18 17  1  0  0  0  0
 19 18  1  0  0  0  0
 19  9  1  0  0  0  0
 20 19  2  0  0  0  0
 21 34  1  0  0  0  0
 21 33  1  0  0  0  0
 22 37  1  0  0  0  0
 22 17  1  0  0  0  0
 23 25  1  0  0  0  0
 24 23  2  0  0  0  0
 25  3  1  0  0  0  0
 31 16  1  0  0  0  0
 32 21  1  0  0  0  0
 35 22  1  0  0  0  0
 36 22  1  0  0  0  0
 38 25  1  0  0  0  0
M  END
>  <Pose>
1

>  <Score>
-5.30

$$$$
