
 OpenBabel03212208413D

 52 55  0  0  0  0  0  0  0  0999 V2000
   16.1590   28.8390   78.9680 B   0  0  0  0  0  0  0  0  0  0  0  0
   14.6640   28.3160   77.9160 C   0  0  0  0  0  0  0  0  0  0  0  0
   13.9830   27.1630   78.2740 C   0  0  0  0  0  0  0  0  0  0  0  0
   12.9030   26.8010   77.4920 C   0  0  0  0  0  0  0  0  0  0  0  0
   12.5270   27.5530   76.4090 C   0  0  0  0  0  0  0  0  0  0  0  0
   13.1950   28.7170   76.0310 C   0  0  0  0  0  0  0  0  0  0  0  0
   14.2690   29.0620   76.8220 C   0  0  0  0  0  0  0  0  0  0  0  0
   12.7330   29.4780   74.8890 C   0  0  0  0  0  0  0  0  0  0  0  0
   13.5010   29.7490   73.8900 N   0  0  0  0  0  0  0  0  0  0  0  0
   13.1050   30.4750   72.7790 N   0  0  0  0  0  0  0  0  0  0  0  0
   14.0250   31.3260   72.1070 C   0  0  0  0  0  0  0  0  0  0  0  0
   13.6410   32.5170   71.6750 N   0  0  0  0  0  4  0  0  0  0  0  0
   14.4490   33.3960   71.0580 C   0  0  0  0  0  0  0  0  0  0  0  0
   15.7330   33.0150   70.8770 N   0  0  0  0  0  0  0  0  0  0  0  0
   16.1870   31.8040   71.2970 C   0  0  0  0  0  0  0  0  0  0  0  0
   15.3120   30.9700   71.9120 N   0  0  0  0  0  0  0  0  0  0  0  0
   17.5320   31.4260   71.1170 N   0  0  0  0  0  0  0  0  0  0  0  0
   18.2420   31.7370   69.9030 C   0  0  0  0  0  0  0  0  0  0  0  0
   19.5230   32.4540   70.3550 C   0  0  0  0  0  0  0  0  0  0  0  0
   20.1690   31.6700   71.2890 O   0  0  0  0  0  0  0  0  0  0  0  0
   19.4470   31.6360   72.4820 C   0  0  0  0  0  0  0  0  0  0  0  0
   18.2350   30.7340   72.1670 C   0  0  0  0  0  0  0  0  0  0  0  0
   13.9870   34.6810   70.6100 N   0  0  0  0  0  0  0  0  0  0  0  0
   14.8840   35.7940   70.4810 C   0  0  0  0  0  0  0  0  0  0  0  0
   14.3650   36.9880   69.7780 C   0  0  0  0  0  0  0  0  0  0  0  0
   12.9840   37.0300   69.6530 O   0  0  0  0  0  0  0  0  0  0  0  0
   12.4650   35.8340   69.1750 C   0  0  0  0  0  0  0  0  0  0  0  0
   12.5970   34.8270   70.2910 C   0  0  0  0  0  0  0  0  0  0  0  0
   11.4340   27.1800   75.6200 O   0  0  0  0  0  0  0  0  0  0  0  0
   14.3570   26.3910   79.3720 O   0  0  0  0  0  0  0  0  0  0  0  0
   12.3790   25.8870   77.7880 H   0  0  0  0  0  0  0  0  0  0  0  0
   14.8080   29.9780   76.5350 H   0  0  0  0  0  0  0  0  0  0  0  0
   11.7160   29.8340   74.8620 H   0  0  0  0  0  0  0  0  0  0  0  0
   12.1400   30.4040   72.4350 H   0  0  0  0  0  0  0  0  0  0  0  0
   18.5160   30.8000   69.3760 H   0  0  0  0  0  0  0  0  0  0  0  0
   17.6500   32.4210   69.2440 H   0  0  0  0  0  0  0  0  0  0  0  0
   20.1360   32.6450   69.4560 H   0  0  0  0  0  0  0  0  0  0  0  0
   19.1870   33.4230   70.7990 H   0  0  0  0  0  0  0  0  0  0  0  0
   19.0110   32.6670   72.6420 H   0  0  0  0  0  0  0  0  0  0  0  0
   20.0310   31.2800   73.3260 H   0  0  0  0  0  0  0  0  0  0  0  0
   18.6840   29.8060   71.7060 H   0  0  0  0  0  0  0  0  0  0  0  0
   17.6360   30.5210   73.0570 H   0  0  0  0  0  0  0  0  0  0  0  0
   15.2290   36.0500   71.5210 H   0  0  0  0  0  0  0  0  0  0  0  0
   15.7880   35.4150   69.9120 H   0  0  0  0  0  0  0  0  0  0  0  0
   14.8430   37.0960   68.7710 H   0  0  0  0  0  0  0  0  0  0  0  0
   14.6650   37.8990   70.3570 H   0  0  0  0  0  0  0  0  0  0  0  0
   11.4320   36.0140   68.8670 H   0  0  0  0  0  0  0  0  0  0  0  0
   13.0650   35.4170   68.3230 H   0  0  0  0  0  0  0  0  0  0  0  0
   12.1630   33.8770   69.8800 H   0  0  0  0  0  0  0  0  0  0  0  0
   11.9890   35.1010   71.1790 H   0  0  0  0  0  0  0  0  0  0  0  0
   11.6040   26.9340   74.6490 H   0  0  0  0  0  0  0  0  0  0  0  0
   14.0950   26.6050   80.3230 H   0  0  0  0  0  0  0  0  0  0  0  0
  2  3  1  0  0  0  0
  2  1  1  0  0  0  0
  3 30  1  0  0  0  0
  4 31  1  0  0  0  0
  4  3  2  0  0  0  0
  5  4  1  0  0  0  0
  6  5  2  0  0  0  0
  6  7  1  0  0  0  0
  7  2  2  0  0  0  0
  8  6  1  0  0  0  0
  9  8  2  0  0  0  0
 10  9  1  0  0  0  0
 11 10  1  0  0  0  0
 12 11  2  0  0  0  0
 13 12  2  0  0  0  0
 14 13  1  0  0  0  0
 14 15  2  0  0  0  0
 15 16  1  0  0  0  0
 16 11  1  0  0  0  0
 17 15  1  0  0  0  0
 17 22  1  0  0  0  0
 18 19  1  0  0  0  0
 18 17  1  0  0  0  0
 19 38  1  0  0  0  0
 19 20  1  0  0  0  0
 20 21  1  0  0  0  0
 21 39  1  0  0  0  0
 21 40  1  0  0  0  0
 22 21  1  0  0  0  0
 22 42  1  0  0  0  0
 23 13  1  0  0  0  0
 24 23  1  0  0  0  0
 24 43  1  0  0  0  0
 25 46  1  0  0  0  0
 25 24  1  0  0  0  0
 26 25  1  0  0  0  0
 27 26  1  0  0  0  0
 27 28  1  0  0  0  0
 28 23  1  0  0  0  0
 28 50  1  0  0  0  0
 29  5  1  0  0  0  0
 30 52  1  0  0  0  0
 32  7  1  0  0  0  0
 33  8  1  0  0  0  0
 34 10  1  0  0  0  0
 35 18  1  0  0  0  0
 36 18  1  0  0  0  0
 37 19  1  0  0  0  0
 41 22  1  0  0  0  0
 44 24  1  0  0  0  0
 45 25  1  0  0  0  0
 47 27  1  0  0  0  0
 48 27  1  0  0  0  0
 49 28  1  0  0  0  0
 51 29  1  0  0  0  0
M  END
>  <Pose>
1

>  <Score>
-6.88

$$$$
