
 OpenBabel03212208413D

 46 49  0  0  0  0  0  0  0  0999 V2000
   16.0660   38.0470   69.8770 Cl  0  0  0  0  0  0  0  0  0  0  0  0
   14.9480   36.7070   70.0740 C   0  0  0  0  0  0  0  0  0  0  0  0
   15.2980   35.6680   70.9320 C   0  0  0  0  0  0  0  0  0  0  0  0
   14.4120   34.6120   71.0850 C   0  0  0  0  0  0  0  0  0  0  0  0
   13.2120   34.6460   70.3690 C   0  0  0  0  0  0  0  0  0  0  0  0
   12.8840   35.6710   69.5310 C   0  0  0  0  0  0  0  0  0  0  0  0
   13.7520   36.7090   69.3790 C   0  0  0  0  0  0  0  0  0  0  0  0
   12.6070   33.5490   70.7090 O   0  0  0  0  0  0  0  0  0  0  0  0
   13.3110   32.8440   71.5570 C   0  0  0  0  0  0  0  0  0  0  0  0
   12.9340   31.7390   72.0320 O   0  0  0  0  0  0  0  0  0  0  0  0
   14.4600   33.4940   71.8150 N   0  0  0  0  0  0  0  0  0  0  0  0
   15.4770   33.0110   72.7040 C   0  0  0  0  0  0  0  0  0  0  0  0
   16.8070   33.0370   72.0360 C   0  0  0  0  0  0  0  0  0  0  0  0
   17.6760   34.0620   72.0720 N   0  0  0  0  0  0  0  0  0  0  0  0
   18.7340   33.7880   71.3640 O   0  0  0  0  0  0  0  0  0  0  0  0
   18.5630   32.5810   70.8610 C   0  0  0  0  0  0  0  0  0  0  0  0
   17.3820   32.1040   71.2650 N   0  0  0  0  0  0  0  0  0  0  0  0
   19.6000   31.9450   69.9810 C   0  0  0  0  0  0  0  0  0  0  0  0
   19.0550   31.1230   69.1670 O   0  0  0  0  0  0  0  0  0  0  0  0
   20.8990   32.2710   70.1140 N   0  0  0  0  0  0  0  0  0  0  0  0
   22.2370   32.5950   70.2360 C   0  0  0  0  0  0  0  0  0  0  0  0
   22.6600   33.7810   69.3620 C   0  0  0  0  0  0  0  0  0  0  0  0
   23.7940   33.5530   68.5570 N   0  0  0  0  0  0  0  0  0  0  0  0
   24.9860   33.7280   69.2890 C   0  0  0  0  0  0  0  0  0  0  0  0
   26.1490   34.1160   68.4390 C   0  0  0  0  0  0  0  0  0  0  0  0
   26.1160   33.3890   67.2780 O   0  0  0  0  0  0  0  0  0  0  0  0
   25.0480   33.6910   66.4550 C   0  0  0  0  0  0  0  0  0  0  0  0
   23.7620   33.9040   67.1970 C   0  0  0  0  0  0  0  0  0  0  0  0
   16.2080   35.6310   71.4870 H   0  0  0  0  0  0  0  0  0  0  0  0
   11.9320   35.6520   68.9980 H   0  0  0  0  0  0  0  0  0  0  0  0
   13.4890   37.5280   68.7080 H   0  0  0  0  0  0  0  0  0  0  0  0
   15.2000   31.9950   73.0360 H   0  0  0  0  0  0  0  0  0  0  0  0
   15.5510   33.6150   73.6350 H   0  0  0  0  0  0  0  0  0  0  0  0
   21.2080   31.4190   69.0850 H   0  0  0  0  0  0  0  0  0  0  0  0
   22.8940   31.7560   69.8550 H   0  0  0  0  0  0  0  0  0  0  0  0
   22.5990   32.8360   71.2490 H   0  0  0  0  0  0  0  0  0  0  0  0
   22.8440   34.6980   69.9610 H   0  0  0  0  0  0  0  0  0  0  0  0
   21.7910   34.0000   68.7140 H   0  0  0  0  0  0  0  0  0  0  0  0
   24.8450   34.4390   70.1320 H   0  0  0  0  0  0  0  0  0  0  0  0
   25.2800   32.7520   69.7840 H   0  0  0  0  0  0  0  0  0  0  0  0
   26.1870   35.2050   68.2380 H   0  0  0  0  0  0  0  0  0  0  0  0
   27.1200   33.8290   68.9500 H   0  0  0  0  0  0  0  0  0  0  0  0
   24.9700   32.8800   65.6890 H   0  0  0  0  0  0  0  0  0  0  0  0
   25.2950   34.6210   65.9080 H   0  0  0  0  0  0  0  0  0  0  0  0
   22.9820   33.3200   66.6200 H   0  0  0  0  0  0  0  0  0  0  0  0
   23.4430   34.9610   67.1170 H   0  0  0  0  0  0  0  0  0  0  0  0
  1  2  1  0  0  0  0
  2  3  1  0  0  0  0
  3  4  2  0  0  0  0
  3 29  1  0  0  0  0
  4 11  1  0  0  0  0
  5  8  1  0  0  0  0
  5  4  1  0  0  0  0
  6  5  2  0  0  0  0
  7  6  1  0  0  0  0
  7  2  2  0  0  0  0
  8  9  1  0  0  0  0
  9 11  1  0  0  0  0
  9 10  2  0  0  0  0
 11 12  1  0  0  0  0
 12 32  1  0  0  0  0
 12 33  1  0  0  0  0
 13 14  2  0  0  0  0
 13 12  1  0  0  0  0
 15 14  1  0  0  0  0
 16 17  2  0  0  0  0
 16 15  1  0  0  0  0
 17 13  1  0  0  0  0
 18 20  1  0  0  0  0
 18 16  1  0  0  0  0
 19 18  2  0  0  0  0
 20 21  1  0  0  0  0
 21 36  1  0  0  0  0
 22 37  1  0  0  0  0
 22 21  1  0  0  0  0
 23 24  1  0  0  0  0
 23 22  1  0  0  0  0
 24 40  1  0  0  0  0
 24 39  1  0  0  0  0
 25 42  1  0  0  0  0
 25 24  1  0  0  0  0
 26 25  1  0  0  0  0
 27 28  1  0  0  0  0
 27 26  1  0  0  0  0
 28 23  1  0  0  0  0
 30  6  1  0  0  0  0
 31  7  1  0  0  0  0
 34 20  1  0  0  0  0
 35 21  1  0  0  0  0
 38 22  1  0  0  0  0
 41 25  1  0  0  0  0
 43 27  1  0  0  0  0
 44 27  1  0  0  0  0
 45 28  1  0  0  0  0
 46 28  1  0  0  0  0
M  END
>  <Pose>
1

>  <Score>
-6.58

$$$$
