
 OpenBabel03212208413D

 53 57  0  0  1  0  0  0  0  0999 V2000
   22.5090   34.6230   67.7580 Cl  0  0  0  0  0  0  0  0  0  0  0  0
   21.3120   35.1890   68.9050 C   0  0  0  0  0  0  0  0  0  0  0  0
   20.4040   34.3460   69.5120 C   0  0  0  0  0  0  0  0  0  0  0  0
   19.4660   34.8290   70.4180 C   0  0  0  0  0  0  0  0  0  0  0  0
   19.4940   36.1720   70.6730 C   0  0  0  0  0  0  0  0  0  0  0  0
   20.3920   37.0270   70.0790 C   0  0  0  0  0  0  0  0  0  0  0  0
   21.3090   36.5500   69.1920 C   0  0  0  0  0  0  0  0  0  0  0  0
   18.6550   33.6960   70.8810 C   0  0  2  0  0  0  0  0  0  0  0  0
   17.2410   33.8760   70.6060 N   0  0  0  0  0  0  0  0  0  0  0  0
   16.6340   32.8570   71.4660 C   0  0  1  0  0  0  0  0  0  0  0  0
   17.4530   32.7950   72.6990 C   0  0  2  0  0  0  0  0  0  0  0  0
   18.6760   33.5950   72.3830 C   0  0  1  0  0  0  0  0  0  0  0  0
   19.8470   32.8790   72.8960 C   0  0  0  0  0  0  0  0  0  0  0  0
   20.9840   33.3980   73.0260 O   0  0  0  0  0  0  0  0  0  0  0  0
   19.4210   31.5550   73.1920 N   0  0  0  0  0  0  0  0  0  0  0  0
   18.0330   31.4180   72.9190 C   0  0  0  0  0  0  0  0  0  0  0  0
   17.3390   30.3670   72.8550 O   0  0  0  0  0  0  0  0  0  0  0  0
   20.2940   30.5000   73.7000 C   0  0  0  0  0  0  0  0  0  0  0  0
   21.4050   30.2820   72.6840 C   0  0  0  0  0  0  0  0  0  0  0  0
   22.0590   29.0820   72.9160 O   0  0  0  0  0  0  0  0  0  0  0  0
   22.4930   28.5540   71.7160 C   0  0  0  0  0  0  0  0  0  0  0  0
   15.2040   33.1870   71.7720 C   0  0  0  0  0  0  0  0  0  0  0  0
   14.6050   34.2010   70.8880 C   0  0  0  0  0  0  0  0  0  0  0  0
   15.1810   35.4700   70.8780 C   0  0  0  0  0  0  0  0  0  0  0  0
   14.6600   36.4290   70.0500 C   0  0  0  0  0  0  0  0  0  0  0  0
   13.5870   36.1990   69.2220 C   0  0  0  0  0  0  0  0  0  0  0  0
   13.0460   34.9320   69.2610 C   0  0  0  0  0  0  0  0  0  0  0  0
   13.5310   33.9300   70.0740 C   0  0  0  0  0  0  0  0  0  0  0  0
   19.1650   32.5020   70.1880 C   0  0  0  0  0  0  0  0  0  0  0  0
   18.7760   31.3290   70.2750 O   0  0  0  0  0  0  0  0  0  0  0  0
   20.2340   32.9440   69.3630 N   0  0  0  0  0  0  0  0  0  0  0  0
   18.7520   36.5590   71.3930 H   0  0  0  0  0  0  0  0  0  0  0  0
   20.3660   38.0660   70.3190 H   0  0  0  0  0  0  0  0  0  0  0  0
   22.0220   37.2030   68.7150 H   0  0  0  0  0  0  0  0  0  0  0  0
   17.0120   33.6980   69.5900 H   0  0  0  0  0  0  0  0  0  0  0  0
   16.6080   31.8820   70.9080 H   0  0  0  0  0  0  0  0  0  0  0  0
   16.9630   33.1350   73.6310 H   0  0  0  0  0  0  0  0  0  0  0  0
   18.6110   34.6440   72.7580 H   0  0  0  0  0  0  0  0  0  0  0  0
   19.7460   29.5580   73.7920 H   0  0  0  0  0  0  0  0  0  0  0  0
   20.7170   30.7630   74.6860 H   0  0  0  0  0  0  0  0  0  0  0  0
   20.9400   30.3250   71.6760 H   0  0  0  0  0  0  0  0  0  0  0  0
   22.1640   31.0850   72.7710 H   0  0  0  0  0  0  0  0  0  0  0  0
   23.1900   29.2370   71.1990 H   0  0  0  0  0  0  0  0  0  0  0  0
   21.6670   28.3310   71.0080 H   0  0  0  0  0  0  0  0  0  0  0  0
   22.9910   27.5830   71.9340 H   0  0  0  0  0  0  0  0  0  0  0  0
   14.6000   32.2560   71.8270 H   0  0  0  0  0  0  0  0  0  0  0  0
   15.2030   33.6030   72.8230 H   0  0  0  0  0  0  0  0  0  0  0  0
   16.0410   35.6730   71.5340 H   0  0  0  0  0  0  0  0  0  0  0  0
   15.1090   37.4130   70.0430 H   0  0  0  0  0  0  0  0  0  0  0  0
   13.1650   36.9440   68.5630 H   0  0  0  0  0  0  0  0  0  0  0  0
   12.2010   34.6920   68.6300 H   0  0  0  0  0  0  0  0  0  0  0  0
   13.0640   32.9310   70.0500 H   0  0  0  0  0  0  0  0  0  0  0  0
   20.8280   32.3460   68.7280 H   0  0  0  0  0  0  0  0  0  0  0  0
  1  2  1  0  0  0  0
  2  7  2  0  0  0  0
  2  3  1  0  0  0  0
  3  4  2  0  0  0  0
  4  5  1  0  0  0  0
  4  8  1  0  0  0  0
  5 32  1  0  0  0  0
  6 33  1  0  0  0  0
  6  5  2  0  0  0  0
  7  6  1  0  0  0  0
  8 29  1  6  0  0  0
  8 12  1  0  0  0  0
  9  8  1  0  0  0  0
  9 10  1  0  0  0  0
 10 36  1  6  0  0  0
 10 22  1  0  0  0  0
 10 11  1  0  0  0  0
 11 16  1  0  0  0  0
 11 37  1  1  0  0  0
 12 11  1  0  0  0  0
 12 38  1  1  0  0  0
 12 13  1  0  0  0  0
 13 14  2  0  0  0  0
 13 15  1  0  0  0  0
 15 18  1  0  0  0  0
 16 15  1  0  0  0  0
 17 16  2  0  0  0  0
 18 39  1  0  0  0  0
 18 40  1  0  0  0  0
 19 42  1  0  0  0  0
 19 20  1  0  0  0  0
 19 18  1  0  0  0  0
 21 45  1  0  0  0  0
 21 20  1  0  0  0  0
 22 46  1  0  0  0  0
 22 47  1  0  0  0  0
 23 22  1  0  0  0  0
 24 23  1  0  0  0  0
 24 48  1  0  0  0  0
 25 24  2  0  0  0  0
 26 27  2  0  0  0  0
 26 25  1  0  0  0  0
 27 28  1  0  0  0  0
 28 23  2  0  0  0  0
 29 30  2  0  0  0  0
 31  3  1  0  0  0  0
 31 29  1  0  0  0  0
 34  7  1  0  0  0  0
 35  9  1  0  0  0  0
 41 19  1  0  0  0  0
 43 21  1  0  0  0  0
 44 21  1  0  0  0  0
 49 25  1  0  0  0  0
 50 26  1  0  0  0  0
 51 27  1  0  0  0  0
 52 28  1  0  0  0  0
 53 31  1  0  0  0  0
M  END
>  <Pose>
1

>  <Score>
-6.67

$$$$
