
 OpenBabel03212208413D

 52 56  0  0  0  0  0  0  0  0999 V2000
   22.2320   34.3580   70.2230 Cl  0  0  0  0  0  0  0  0  0  0  0  0
   20.8970   33.4060   70.8490 C   0  0  0  0  0  0  0  0  0  0  0  0
   20.7030   33.2380   72.2140 C   0  0  0  0  0  0  0  0  0  0  0  0
   19.6460   32.4850   72.6860 C   0  0  0  0  0  0  0  0  0  0  0  0
   18.7470   31.8710   71.8400 C   0  0  0  0  0  0  0  0  0  0  0  0
   18.9550   32.0500   70.4670 C   0  0  0  0  0  0  0  0  0  0  0  0
   20.0070   32.8000   69.9870 C   0  0  0  0  0  0  0  0  0  0  0  0
   17.6310   31.0740   72.3340 C   0  0  0  0  0  0  0  0  0  0  0  0
   17.5120   29.8870   71.9570 O   0  0  0  0  0  0  0  0  0  0  0  0
   16.6850   31.7110   73.2670 C   0  0  0  0  0  0  0  0  0  0  0  0
   15.3210   31.7250   72.7900 N   0  0  0  0  0  0  0  0  0  0  0  0
   14.6890   32.6060   72.0450 N   0  0  0  0  0  0  0  0  0  0  0  0
   13.4170   32.2470   71.8190 C   0  0  0  0  0  0  0  0  0  0  0  0
   12.7910   33.1570   71.0560 N   0  0  0  0  0  0  0  0  0  0  0  0
   13.6580   34.1500   70.7600 C   0  0  0  0  0  0  0  0  0  0  0  0
   14.8530   33.7880   71.3920 C   0  0  0  0  0  0  0  0  0  0  0  0
   15.8980   34.6690   71.2150 C   0  0  0  0  0  0  0  0  0  0  0  0
   17.0030   34.3820   71.7660 O   0  0  0  0  0  0  0  0  0  0  0  0
   15.8040   35.8150   70.4880 N   0  0  0  0  0  0  0  0  0  0  0  0
   14.6220   36.0910   69.9160 C   0  0  0  0  0  0  0  0  0  0  0  0
   14.5550   37.1690   69.2390 O   0  0  0  0  0  0  0  0  0  0  0  0
   13.5620   35.2810   70.0420 N   0  0  0  0  0  0  0  0  0  0  0  0
   12.3240   35.6340   69.4010 C   0  0  0  0  0  0  0  0  0  0  0  0
   16.9480   36.6870   70.3540 C   0  0  0  0  0  0  0  0  0  0  0  0
   13.2630   31.0650   72.4690 N   0  0  0  0  0  0  0  0  0  0  0  0
   14.4170   30.7350   73.0640 C   0  0  0  0  0  0  0  0  0  0  0  0
   14.7080   29.5820   73.8490 N   0  0  0  0  0  0  0  0  0  0  0  0
   15.8850   28.7660   73.6040 C   0  0  0  0  0  0  0  0  0  0  0  0
   15.4900   27.3230   73.7950 C   0  0  0  0  0  0  0  0  0  0  0  0
   14.9350   27.1410   75.0720 O   0  0  0  0  0  0  0  0  0  0  0  0
   13.7080   27.7570   75.1880 C   0  0  0  0  0  0  0  0  0  0  0  0
   13.8180   29.2160   74.9190 C   0  0  0  0  0  0  0  0  0  0  0  0
   21.3870   33.7030   72.8990 H   0  0  0  0  0  0  0  0  0  0  0  0
   19.4930   32.3520   73.7500 H   0  0  0  0  0  0  0  0  0  0  0  0
   18.2860   31.5970   69.7570 H   0  0  0  0  0  0  0  0  0  0  0  0
   20.1760   32.9440   68.9190 H   0  0  0  0  0  0  0  0  0  0  0  0
   16.9940   32.6780   73.6370 H   0  0  0  0  0  0  0  0  0  0  0  0
   16.7070   31.0420   74.1830 H   0  0  0  0  0  0  0  0  0  0  0  0
   12.2920   36.7450   69.2910 H   0  0  0  0  0  0  0  0  0  0  0  0
   11.4670   35.2800   70.0270 H   0  0  0  0  0  0  0  0  0  0  0  0
   12.2200   35.1180   68.4300 H   0  0  0  0  0  0  0  0  0  0  0  0
   17.6860   36.2300   69.6440 H   0  0  0  0  0  0  0  0  0  0  0  0
   17.4830   36.7280   71.3360 H   0  0  0  0  0  0  0  0  0  0  0  0
   16.6820   37.7130   70.0960 H   0  0  0  0  0  0  0  0  0  0  0  0
   16.7010   29.0060   74.3180 H   0  0  0  0  0  0  0  0  0  0  0  0
   16.2520   28.8790   72.5570 H   0  0  0  0  0  0  0  0  0  0  0  0
   14.8520   26.9210   73.0060 H   0  0  0  0  0  0  0  0  0  0  0  0
   16.4350   26.7210   73.8010 H   0  0  0  0  0  0  0  0  0  0  0  0
   12.9520   27.3230   74.4800 H   0  0  0  0  0  0  0  0  0  0  0  0
   13.3770   27.6280   76.2420 H   0  0  0  0  0  0  0  0  0  0  0  0
   14.0890   29.8130   75.8190 H   0  0  0  0  0  0  0  0  0  0  0  0
   12.7890   29.5810   74.6460 H   0  0  0  0  0  0  0  0  0  0  0  0
  1  2  1  0  0  0  0
  2  3  1  0  0  0  0
  3  4  2  0  0  0  0
  3 33  1  0  0  0  0
  4 34  1  0  0  0  0
  5  8  1  0  0  0  0
  5  4  1  0  0  0  0
  6  5  2  0  0  0  0
  7  6  1  0  0  0  0
  7  2  2  0  0  0  0
  8 10  1  0  0  0  0
  9  8  2  0  0  0  0
 10 37  1  0  0  0  0
 10 38  1  0  0  0  0
 11 26  1  0  0  0  0
 11 10  1  0  0  0  0
 12 11  1  0  0  0  0
 13 12  1  0  0  0  0
 13 25  1  0  0  0  0
 14 13  2  0  0  0  0
 15 14  1  0  0  0  0
 15 16  2  0  0  0  0
 16 12  1  0  0  0  0
 17 16  1  0  0  0  0
 17 18  2  0  0  0  0
 19 17  1  0  0  0  0
 20 22  1  0  0  0  0
 20 19  1  0  0  0  0
 21 20  2  0  0  0  0
 22 15  1  0  0  0  0
 23 40  1  0  0  0  0
 23 22  1  0  0  0  0
 24 19  1  0  0  0  0
 24 43  1  0  0  0  0
 25 26  2  0  0  0  0
 26 27  1  0  0  0  0
 27 32  1  0  0  0  0
 28 29  1  0  0  0  0
 28 27  1  0  0  0  0
 28 45  1  0  0  0  0
 29 48  1  0  0  0  0
 29 30  1  0  0  0  0
 30 31  1  0  0  0  0
 31 50  1  0  0  0  0
 32 31  1  0  0  0  0
 32 51  1  0  0  0  0
 35  6  1  0  0  0  0
 36  7  1  0  0  0  0
 39 23  1  0  0  0  0
 41 23  1  0  0  0  0
 42 24  1  0  0  0  0
 44 24  1  0  0  0  0
 46 28  1  0  0  0  0
 47 29  1  0  0  0  0
 49 31  1  0  0  0  0
 52 32  1  0  0  0  0
M  END
>  <Pose>
1

>  <Score>
-7.13

$$$$
