
 OpenBabel03212208413D

 48 52  0  0  1  0  0  0  0  0999 V2000
   24.3220   35.4420   66.0210 Cl  0  0  0  0  0  0  0  0  0  0  0  0
   23.1780   34.8840   67.2460 C   0  0  0  0  0  0  0  0  0  0  0  0
   23.6510   34.3900   68.4420 C   0  0  0  0  0  0  0  0  0  0  0  0
   22.7890   33.9480   69.4160 C   0  0  0  0  0  0  0  0  0  0  0  0
   21.4210   33.9850   69.2300 C   0  0  0  0  0  0  0  0  0  0  0  0
   20.9660   34.4810   68.0270 C   0  0  0  0  0  0  0  0  0  0  0  0
   21.8180   34.9270   67.0420 C   0  0  0  0  0  0  0  0  0  0  0  0
   20.5810   33.5140   70.2720 N   0  0  0  0  0  0  0  0  0  0  0  0
   21.0550   33.0010   71.5130 C   0  0  0  0  0  0  0  0  0  0  0  0
   20.2500   32.5740   72.4590 C   0  0  0  0  0  0  0  0  0  0  0  0
   18.8320   32.5620   72.3790 N   0  0  0  0  0  0  0  0  0  0  0  0
   18.0980   33.4360   73.2640 C   0  0  0  0  0  0  0  0  0  0  0  0
   17.1310   34.2410   72.4340 C   0  0  0  0  0  0  0  0  0  0  0  0
   16.4190   33.4470   71.4530 N   0  0  2  0  0  0  0  0  0  0  0  0
   17.1730   32.5490   70.6010 C   0  0  0  0  0  0  0  0  0  0  0  0
   18.0840   31.7220   71.4710 C   0  0  0  0  0  0  0  0  0  0  0  0
   14.9990   33.5610   71.3380 C   0  0  2  0  0  0  0  0  0  0  0  0
   14.2260   32.5700   71.8240 N   0  0  0  0  0  0  0  0  0  0  0  0
   12.8680   32.6380   71.7360 C   0  0  0  0  0  0  0  0  0  0  0  0
   12.2670   33.7010   71.1580 N   0  0  0  0  0  0  0  0  0  0  0  0
   12.9800   34.7160   70.6580 C   0  0  0  0  0  0  0  0  0  0  0  0
   12.6480   35.8660   70.0450 N   0  0  0  0  0  0  0  0  0  0  0  0
   13.7710   36.5000   69.7590 N   0  0  0  0  0  0  0  0  0  0  0  0
   14.8410   35.7690   70.1820 C   0  0  0  0  0  0  0  0  0  0  0  0
   14.3700   34.6300   70.7560 C   0  0  0  0  0  0  0  0  0  0  0  0
   11.3000   36.3560   69.7370 C   0  0  0  0  0  0  0  0  0  0  0  0
   22.4600   32.9610   71.7140 N   0  0  0  0  0  0  0  0  0  0  0  0
   23.3120   33.4230   70.6930 C   0  0  0  0  0  0  0  0  0  0  0  0
   24.5810   33.4160   70.8020 O   0  0  0  0  0  0  0  0  0  0  0  0
   24.7300   34.3580   68.5990 H   0  0  0  0  0  0  0  0  0  0  0  0
   19.9030   34.5190   67.8580 H   0  0  0  0  0  0  0  0  0  0  0  0
   21.4630   35.3150   66.1040 H   0  0  0  0  0  0  0  0  0  0  0  0
   19.5480   33.5380   70.1410 H   0  0  0  0  0  0  0  0  0  0  0  0
   20.6790   32.1940   73.3830 H   0  0  0  0  0  0  0  0  0  0  0  0
   17.4970   32.8760   74.0100 H   0  0  0  0  0  0  0  0  0  0  0  0
   18.7670   34.1580   73.7750 H   0  0  0  0  0  0  0  0  0  0  0  0
   16.3750   34.6450   73.1740 H   0  0  0  0  0  0  0  0  0  0  0  0
   17.5840   35.1600   71.9990 H   0  0  0  0  0  0  0  0  0  0  0  0
   16.4290   31.8510   70.1160 H   0  0  0  0  0  0  0  0  0  0  0  0
   17.7750   33.0690   69.8370 H   0  0  0  0  0  0  0  0  0  0  0  0
   18.7350   31.0480   70.8860 H   0  0  0  0  0  0  0  0  0  0  0  0
   17.4050   31.0840   72.1090 H   0  0  0  0  0  0  0  0  0  0  0  0
   12.2860   31.8140   72.1420 H   0  0  0  0  0  0  0  0  0  0  0  0
   15.8860   36.0250   70.0880 H   0  0  0  0  0  0  0  0  0  0  0  0
   11.2490   37.4610   69.8500 H   0  0  0  0  0  0  0  0  0  0  0  0
   10.5780   35.9440   70.4870 H   0  0  0  0  0  0  0  0  0  0  0  0
   11.0190   36.1110   68.6960 H   0  0  0  0  0  0  0  0  0  0  0  0
   22.8840   32.5990   72.5970 H   0  0  0  0  0  0  0  0  0  0  0  0
  1  2  1  0  0  0  0
  2  3  1  0  0  0  0
  3 30  1  0  0  0  0
  3  4  2  0  0  0  0
  4 28  1  0  0  0  0
  5  4  1  0  0  0  0
  5  8  1  0  0  0  0
  6  5  2  0  0  0  0
  7  2  2  0  0  0  0
  7  6  1  0  0  0  0
  8  9  1  0  0  0  0
  9 27  1  0  0  0  0
  9 10  2  0  0  0  0
 10 34  1  0  0  0  0
 11 10  1  0  0  0  0
 11 12  1  0  0  0  0
 12 36  1  0  0  0  0
 12 35  1  0  0  0  0
 13 37  1  0  0  0  0
 13 12  1  0  0  0  0
 14 15  1  6  0  0  0
 14 13  1  0  0  0  0
 15 16  1  0  0  0  0
 16 42  1  0  0  0  0
 16 11  1  0  0  0  0
 17 25  1  6  0  0  0
 17 14  1  0  0  0  0
 17 18  1  0  0  0  0
 19 18  2  0  0  0  0
 19 43  1  0  0  0  0
 20 19  1  0  0  0  0
 21 25  2  0  0  0  0
 21 20  1  0  0  0  0
 22 21  1  0  0  0  0
 23 22  1  0  0  0  0
 23 24  2  0  0  0  0
 24 25  1  0  0  0  0
 26 45  1  0  0  0  0
 26 22  1  0  0  0  0
 26 46  1  0  0  0  0
 27 48  1  0  0  0  0
 28 29  2  0  0  0  0
 28 27  1  0  0  0  0
 31  6  1  0  0  0  0
 32  7  1  0  0  0  0
 33  8  1  0  0  0  0
 38 13  1  0  0  0  0
 39 15  1  0  0  0  0
 40 15  1  0  0  0  0
 41 16  1  0  0  0  0
 44 24  1  0  0  0  0
 47 26  1  0  0  0  0
M  END
>  <Pose>
1

>  <Score>
-7.07

$$$$
