
 OpenBabel03212208413D

 49 52  0  0  0  0  0  0  0  0999 V2000
   13.4570   36.8720   69.3670 Cl  0  0  0  0  0  0  0  0  0  0  0  0
   13.8760   35.3630   70.1840 C   0  0  0  0  0  0  0  0  0  0  0  0
   15.1570   35.0100   70.5180 C   0  0  0  0  0  0  0  0  0  0  0  0
   15.4120   33.8650   71.1880 C   0  0  0  0  0  0  0  0  0  0  0  0
   14.4020   33.0200   71.5560 C   0  0  0  0  0  0  0  0  0  0  0  0
   13.0770   33.3810   71.2100 C   0  0  0  0  0  0  0  0  0  0  0  0
   12.8040   34.5330   70.5280 C   0  0  0  0  0  0  0  0  0  0  0  0
   11.4730   34.8520   70.1770 O   0  0  0  0  0  0  0  0  0  0  0  0
   14.6070   31.9210   72.2240 O   0  0  0  0  0  0  0  0  0  0  0  0
   15.8400   31.5790   72.5790 C   0  0  0  0  0  0  0  0  0  0  0  0
   16.0120   30.5310   73.2140 O   0  0  0  0  0  0  0  0  0  0  0  0
   16.9380   32.3950   72.2410 C   0  0  0  0  0  0  0  0  0  0  0  0
   16.7590   33.5400   71.5450 C   0  0  0  0  0  0  0  0  0  0  0  0
   17.7390   34.4890   70.9930 C   0  0  0  0  0  0  0  0  0  0  0  0
   18.9900   34.0860   70.5180 N   0  0  0  0  0  4  0  0  0  0  0  0
   19.4070   32.7790   70.3560 C   0  0  0  0  0  0  0  0  0  0  0  0
   20.8990   32.6170   70.8110 C   0  0  0  0  0  0  0  0  0  0  0  0
   20.6730   32.7630   72.3280 N   0  0  0  0  0  0  0  0  0  0  0  0
   20.3010   34.0480   72.6700 C   0  0  0  0  0  0  0  0  0  0  0  0
   20.0170   34.7870   71.3430 C   0  0  0  0  0  0  0  0  0  0  0  0
   20.8270   31.5400   73.0160 C   0  0  0  0  0  0  0  0  0  0  0  0
   21.9330   31.1150   73.6660 C   0  0  0  0  0  0  0  0  0  0  0  0
   21.9060   29.9860   74.5340 C   0  0  0  0  0  0  0  0  0  0  0  0
   20.7550   29.2760   74.7510 C   0  0  0  0  0  0  0  0  0  0  0  0
   19.6130   29.7010   74.0800 C   0  0  0  0  0  0  0  0  0  0  0  0
   19.6500   30.7990   73.2340 C   0  0  0  0  0  0  0  0  0  0  0  0
   20.7790   28.1810   75.6060 O   0  0  0  0  0  0  0  0  0  0  0  0
   20.3750   28.3060   76.9780 C   0  0  0  0  0  0  0  0  0  0  0  0
   15.9190   35.6810   70.2300 H   0  0  0  0  0  0  0  0  0  0  0  0
   12.2640   32.7220   71.4900 H   0  0  0  0  0  0  0  0  0  0  0  0
   17.9140   32.0350   72.5130 H   0  0  0  0  0  0  0  0  0  0  0  0
   17.5900   35.5600   71.1690 H   0  0  0  0  0  0  0  0  0  0  0  0
   17.2020   34.5560   69.8640 H   0  0  0  0  0  0  0  0  0  0  0  0
   19.1150   34.5790   69.5750 H   0  0  0  0  0  0  0  0  0  0  0  0
   18.9310   31.9820   70.9980 H   0  0  0  0  0  0  0  0  0  0  0  0
   19.3910   32.3290   69.3340 H   0  0  0  0  0  0  0  0  0  0  0  0
   21.5900   33.3010   70.5120 H   0  0  0  0  0  0  0  0  0  0  0  0
   21.0920   31.5610   70.6110 H   0  0  0  0  0  0  0  0  0  0  0  0
   19.3580   34.0200   73.2770 H   0  0  0  0  0  0  0  0  0  0  0  0
   21.0190   34.6960   73.2360 H   0  0  0  0  0  0  0  0  0  0  0  0
   20.9140   34.8610   70.7730 H   0  0  0  0  0  0  0  0  0  0  0  0
   19.6730   35.8280   71.5230 H   0  0  0  0  0  0  0  0  0  0  0  0
   22.8670   31.6640   73.4950 H   0  0  0  0  0  0  0  0  0  0  0  0
   22.8170   29.7160   75.0210 H   0  0  0  0  0  0  0  0  0  0  0  0
   18.6770   29.1700   74.2250 H   0  0  0  0  0  0  0  0  0  0  0  0
   18.7660   31.0680   72.7120 H   0  0  0  0  0  0  0  0  0  0  0  0
   21.3160   28.2130   77.6260 H   0  0  0  0  0  0  0  0  0  0  0  0
   19.5930   27.6190   77.2840 H   0  0  0  0  0  0  0  0  0  0  0  0
   20.0250   29.3270   77.2350 H   0  0  0  0  0  0  0  0  0  0  0  0
  1  2  1  0  0  0  0
  2  3  2  0  0  0  0
  2  7  1  0  0  0  0
  3  4  1  0  0  0  0
  4 13  1  0  0  0  0
  4  5  2  0  0  0  0
  5  9  1  0  0  0  0
  6 30  1  0  0  0  0
  6  5  1  0  0  0  0
  7  6  2  0  0  0  0
  8  7  1  0  0  0  0
  9 10  1  0  0  0  0
 10 11  2  0  0  0  0
 12 31  1  0  0  0  0
 12 10  1  0  0  0  0
 13 12  2  0  0  0  0
 14 32  1  0  0  0  0
 14 13  1  0  0  0  0
 15 14  1  0  0  0  0
 15 20  1  0  0  0  0
 16 15  1  0  0  0  0
 16 17  1  0  0  0  0
 16 35  1  0  0  0  0
 17 18  1  0  0  0  0
 18 19  1  0  0  0  0
 18 21  1  0  0  0  0
 19 40  1  0  0  0  0
 19 39  1  0  0  0  0
 20 42  1  0  0  0  0
 20 19  1  0  0  0  0
 21 26  2  0  0  0  0
 21 22  1  0  0  0  0
 22 23  2  0  0  0  0
 23 24  1  0  0  0  0
 23 44  1  0  0  0  0
 24 27  1  0  0  0  0
 25 45  1  0  0  0  0
 25 24  2  0  0  0  0
 26 25  1  0  0  0  0
 27 28  1  0  0  0  0
 28 49  1  0  0  0  0
 28 48  1  0  0  0  0
 28 47  1  0  0  0  0
 29  3  1  0  0  0  0
 33 14  1  0  0  0  0
 34 15  1  0  0  0  0
 36 16  1  0  0  0  0
 37 17  1  0  0  0  0
 38 17  1  0  0  0  0
 41 20  1  0  0  0  0
 43 22  1  0  0  0  0
 46 26  1  0  0  0  0
M  END
>  <Pose>
1

>  <Score>
-5.99

$$$$
