
 OpenBabel03212208413D

 47 50  0  0  1  0  0  0  0  0999 V2000
   16.5770   29.1550   72.5820 S   0  0  0  0  0  0  0  0  0  0  0  0
   17.5800   29.9350   71.8060 O   0  0  0  0  0  0  0  0  0  0  0  0
   16.4830   27.7370   72.0560 O   0  0  0  0  0  0  0  0  0  0  0  0
   15.0240   29.8330   72.5440 N   0  0  0  0  0  0  0  0  0  0  0  0
   14.6180   30.2850   71.2910 C   0  0  0  0  0  0  0  0  0  0  0  0
   13.4800   31.1960   71.1490 C   0  0  1  0  0  0  0  0  0  0  0  0
   12.6460   31.2270   72.4040 C   0  0  0  0  0  0  0  0  0  0  0  0
   13.5380   31.5100   73.5590 C   0  0  0  0  0  0  0  0  0  0  0  0
   14.5380   30.4010   73.7130 C   0  0  0  0  0  0  0  0  0  0  0  0
   13.8300   32.5950   70.7800 C   0  0  0  0  0  0  0  0  0  0  0  0
   15.0280   33.1320   71.0000 N   0  0  0  0  0  0  0  0  0  0  0  0
   15.3110   34.4020   70.6600 C   0  0  0  0  0  0  0  0  0  0  0  0
   16.4220   35.1810   70.7680 N   0  0  0  0  0  0  0  0  0  0  0  0
   16.1050   36.3530   70.2600 N   0  0  0  0  0  0  0  0  0  0  0  0
   14.8570   36.3730   69.8330 N   0  0  0  0  0  0  0  0  0  0  0  0
   14.3200   35.1690   70.0640 C   0  0  0  0  0  0  0  0  0  0  0  0
   13.0690   34.6240   69.8290 C   0  0  0  0  0  0  0  0  0  0  0  0
   12.8900   33.3500   70.2040 N   0  0  0  0  0  0  0  0  0  0  0  0
   12.0650   35.3750   69.2340 O   0  0  0  0  0  0  0  0  0  0  0  0
   17.6800   34.7910   71.3260 C   0  0  0  0  0  0  0  0  0  0  0  0
   18.8350   35.5260   70.7580 C   0  0  0  0  0  0  0  0  0  0  0  0
   20.0970   35.1880   71.1770 C   0  0  0  0  0  0  0  0  0  0  0  0
   21.2360   35.8280   70.6950 C   0  0  0  0  0  0  0  0  0  0  0  0
   21.1160   36.8380   69.7660 C   0  0  0  0  0  0  0  0  0  0  0  0
   19.8530   37.1840   69.3400 C   0  0  0  0  0  0  0  0  0  0  0  0
   18.7200   36.5360   69.8290 C   0  0  0  0  0  0  0  0  0  0  0  0
   20.3200   33.9130   72.3570 Cl  0  0  0  0  0  0  0  0  0  0  0  0
   17.1680   28.9930   74.2740 C   0  0  0  0  0  0  0  0  0  0  0  0
   14.4690   29.3820   70.6250 H   0  0  0  0  0  0  0  0  0  0  0  0
   15.5120   30.7920   70.8110 H   0  0  0  0  0  0  0  0  0  0  0  0
   12.7770   30.7840   70.3520 H   0  0  0  0  0  0  0  0  0  0  0  0
   11.8170   31.9570   72.2940 H   0  0  0  0  0  0  0  0  0  0  0  0
   12.1760   30.2290   72.5830 H   0  0  0  0  0  0  0  0  0  0  0  0
   12.8700   31.4860   74.4780 H   0  0  0  0  0  0  0  0  0  0  0  0
   14.0050   32.4950   73.5900 H   0  0  0  0  0  0  0  0  0  0  0  0
   15.3500   30.7880   74.3830 H   0  0  0  0  0  0  0  0  0  0  0  0
   14.0400   29.5930   74.3230 H   0  0  0  0  0  0  0  0  0  0  0  0
   11.2590   35.6570   69.7700 H   0  0  0  0  0  0  0  0  0  0  0  0
   17.9020   33.7070   71.1930 H   0  0  0  0  0  0  0  0  0  0  0  0
   17.6680   35.0460   72.4240 H   0  0  0  0  0  0  0  0  0  0  0  0
   22.2360   35.5720   71.0170 H   0  0  0  0  0  0  0  0  0  0  0  0
   22.0100   37.3490   69.3810 H   0  0  0  0  0  0  0  0  0  0  0  0
   19.7570   37.9900   68.5990 H   0  0  0  0  0  0  0  0  0  0  0  0
   17.7370   36.8220   69.4820 H   0  0  0  0  0  0  0  0  0  0  0  0
   17.3730   29.9790   74.7120 H   0  0  0  0  0  0  0  0  0  0  0  0
   16.3850   28.4260   74.8160 H   0  0  0  0  0  0  0  0  0  0  0  0
   18.1330   28.4520   74.2020 H   0  0  0  0  0  0  0  0  0  0  0  0
  1 28  1  0  0  0  0
  2  1  2  0  0  0  0
  3  1  2  0  0  0  0
  4  1  1  0  0  0  0
  4  9  1  0  0  0  0
  5  4  1  0  0  0  0
  6 31  1  6  0  0  0
  6  5  1  0  0  0  0
  6  7  1  0  0  0  0
  7 33  1  0  0  0  0
  7  8  1  0  0  0  0
  8 35  1  0  0  0  0
  8  9  1  0  0  0  0
  8 34  1  0  0  0  0
  9 37  1  0  0  0  0
  9 36  1  0  0  0  0
 10 11  2  0  0  0  0
 10  6  1  0  0  0  0
 12 13  1  0  0  0  0
 12 11  1  0  0  0  0
 13 20  1  0  0  0  0
 14 13  1  0  0  0  0
 15 16  1  0  0  0  0
 15 14  2  0  0  0  0
 16 12  2  0  0  0  0
 17 16  1  0  0  0  0
 17 18  2  0  0  0  0
 18 10  1  0  0  0  0
 19 38  1  0  0  0  0
 19 17  1  0  0  0  0
 20 40  1  0  0  0  0
 21 22  1  0  0  0  0
 21 20  1  0  0  0  0
 22 27  1  0  0  0  0
 23 41  1  0  0  0  0
 23 22  2  0  0  0  0
 24 23  1  0  0  0  0
 25 24  2  0  0  0  0
 25 26  1  0  0  0  0
 26 21  2  0  0  0  0
 28 45  1  0  0  0  0
 28 46  1  0  0  0  0
 29  5  1  0  0  0  0
 30  5  1  0  0  0  0
 32  7  1  0  0  0  0
 39 20  1  0  0  0  0
 42 24  1  0  0  0  0
 43 25  1  0  0  0  0
 44 26  1  0  0  0  0
 47 28  1  0  0  0  0
M  END
>  <Pose>
1

>  <Score>
-6.19

$$$$
