
 OpenBabel03212208413D

 46 49  0  0  1  0  0  0  0  0999 V2000
   16.7910   27.4730   73.3030 Cl  0  0  0  0  0  0  0  0  0  0  0  0
   17.8970   28.8260   73.4030 C   0  0  0  0  0  0  0  0  0  0  0  0
   17.4200   30.0970   73.0490 C   0  0  0  0  0  0  0  0  0  0  0  0
   18.2620   31.1760   73.1160 C   0  0  0  0  0  0  0  0  0  0  0  0
   19.5730   30.9380   73.5440 C   0  0  0  0  0  0  0  0  0  0  0  0
   20.0300   29.6860   73.8880 C   0  0  0  0  0  0  0  0  0  0  0  0
   19.1840   28.5940   73.8210 C   0  0  0  0  0  0  0  0  0  0  0  0
   21.6840   29.4130   74.4220 Cl  0  0  0  0  0  0  0  0  0  0  0  0
   17.8480   32.5430   72.7650 C   0  0  2  0  0  0  0  0  0  0  0  0
   16.4380   32.5780   72.3450 C   0  0  0  0  0  0  0  0  0  0  0  0
   15.6190   31.4940   72.2840 C   0  0  0  0  0  0  0  0  0  0  0  0
   14.3160   31.5810   71.8860 N   0  0  0  0  0  0  0  0  0  0  0  0
   13.8550   32.7830   71.5490 C   0  0  0  0  0  0  0  0  0  0  0  0
   12.6480   32.9140   71.1710 O   0  0  0  0  0  0  0  0  0  0  0  0
   14.6320   33.8850   71.5940 N   0  0  0  0  0  0  0  0  0  0  0  0
   15.9090   33.8110   71.9830 C   0  0  0  0  0  0  0  0  0  0  0  0
   16.6350   34.8380   72.0250 O   0  0  0  0  0  0  0  0  0  0  0  0
   14.0670   35.1720   71.2140 C   0  0  0  0  0  0  0  0  0  0  0  0
   13.4720   30.4070   71.8330 C   0  0  0  0  0  0  0  0  0  0  0  0
   16.1120   30.2670   72.6350 O   0  0  0  0  0  0  0  0  0  0  0  0
   18.7490   33.1360   71.7210 C   0  0  0  0  0  0  0  0  0  0  0  0
   18.7970   32.6450   70.4390 C   0  0  0  0  0  0  0  0  0  0  0  0
   19.5990   33.1470   69.4870 N   0  0  0  0  0  0  0  0  0  0  0  0
   20.3960   34.1840   69.8110 C   0  0  0  0  0  0  0  0  0  0  0  0
   21.1500   34.6490   68.9060 O   0  0  0  0  0  0  0  0  0  0  0  0
   20.3820   34.6950   71.0550 N   0  0  0  0  0  0  0  0  0  0  0  0
   19.5870   34.2090   72.0180 C   0  0  0  0  0  0  0  0  0  0  0  0
   19.5520   34.6650   73.1860 O   0  0  0  0  0  0  0  0  0  0  0  0
   21.2560   35.8060   71.3530 C   0  0  0  0  0  0  0  0  0  0  0  0
   19.6250   32.6090   68.1400 C   0  0  0  0  0  0  0  0  0  0  0  0
   17.9810   31.5830   70.1090 O   0  0  0  0  0  0  0  0  0  0  0  0
   20.2440   31.7890   73.5990 H   0  0  0  0  0  0  0  0  0  0  0  0
   19.5100   27.6010   74.0840 H   0  0  0  0  0  0  0  0  0  0  0  0
   17.9310   33.2240   73.6610 H   0  0  0  0  0  0  0  0  0  0  0  0
   13.0150   35.0280   70.8480 H   0  0  0  0  0  0  0  0  0  0  0  0
   14.6650   35.7000   70.4550 H   0  0  0  0  0  0  0  0  0  0  0  0
   13.9680   35.8610   72.0820 H   0  0  0  0  0  0  0  0  0  0  0  0
   14.0710   29.4790   72.0120 H   0  0  0  0  0  0  0  0  0  0  0  0
   13.0070   30.2710   70.8350 H   0  0  0  0  0  0  0  0  0  0  0  0
   12.7220   30.4780   72.6410 H   0  0  0  0  0  0  0  0  0  0  0  0
   20.7550   36.5080   72.0350 H   0  0  0  0  0  0  0  0  0  0  0  0
   21.5460   36.3660   70.4390 H   0  0  0  0  0  0  0  0  0  0  0  0
   22.2360   35.4420   71.7810 H   0  0  0  0  0  0  0  0  0  0  0  0
   19.3050   33.4560   67.4630 H   0  0  0  0  0  0  0  0  0  0  0  0
   20.6540   32.3520   67.8030 H   0  0  0  0  0  0  0  0  0  0  0  0
   18.8950   31.8110   68.0000 H   0  0  0  0  0  0  0  0  0  0  0  0
  1  2  1  0  0  0  0
  2  7  1  0  0  0  0
  3  4  1  0  0  0  0
  3  2  2  0  0  0  0
  4  5  2  0  0  0  0
  5 32  1  0  0  0  0
  5  6  1  0  0  0  0
  6  8  1  0  0  0  0
  7  6  2  0  0  0  0
  7 33  1  0  0  0  0
  9  4  1  0  0  0  0
  9 34  1  1  0  0  0
 10  9  1  0  0  0  0
 11 10  2  0  0  0  0
 11 20  1  0  0  0  0
 12 11  1  0  0  0  0
 13 15  1  0  0  0  0
 13 12  1  0  0  0  0
 14 13  2  0  0  0  0
 15 16  1  0  0  0  0
 16 17  2  0  0  0  0
 16 10  1  0  0  0  0
 18 15  1  0  0  0  0
 18 37  1  0  0  0  0
 19 12  1  0  0  0  0
 19 38  1  0  0  0  0
 19 40  1  0  0  0  0
 20  3  1  0  0  0  0
 21 27  1  0  0  0  0
 21  9  1  0  0  0  0
 22 21  1  0  0  0  0
 23 24  1  0  0  0  0
 23 22  1  0  0  0  0
 24 26  1  0  0  0  0
 25 24  2  0  0  0  0
 26 29  1  0  0  0  0
 26 27  1  0  0  0  0
 27 28  2  0  0  0  0
 29 43  1  0  0  0  0
 29 41  1  0  0  0  0
 30 23  1  0  0  0  0
 31 22  2  0  0  0  0
 35 18  1  0  0  0  0
 36 18  1  0  0  0  0
 39 19  1  0  0  0  0
 42 29  1  0  0  0  0
 44 30  1  0  0  0  0
 45 30  1  0  0  0  0
 46 30  1  0  0  0  0
M  END
>  <Pose>
1

>  <Score>
-6.02

$$$$
