
 OpenBabel03212208413D

 51 55  0  0  1  0  0  0  0  0999 V2000
   19.7170   36.1680   69.6570 Cl  0  0  0  0  0  0  0  0  0  0  0  0
   19.1530   35.1100   70.9320 C   0  0  0  0  0  0  0  0  0  0  0  0
   17.9350   34.4890   70.8820 C   0  0  0  0  0  0  0  0  0  0  0  0
   17.5240   33.6530   71.9230 C   0  0  0  0  0  0  0  0  0  0  0  0
   18.3710   33.4790   72.9770 C   0  0  0  0  0  0  0  0  0  0  0  0
   19.6220   34.1150   73.0310 C   0  0  0  0  0  0  0  0  0  0  0  0
   20.0240   34.9330   72.0140 C   0  0  0  0  0  0  0  0  0  0  0  0
   17.7580   32.5990   73.9140 N   0  0  0  0  0  0  0  0  0  0  0  0
   16.4930   32.2100   73.4360 C   0  0  0  0  0  0  0  0  0  0  0  0
   15.7080   31.4270   74.0590 O   0  0  0  0  0  0  0  0  0  0  0  0
   16.2970   32.8670   72.1400 C   0  0  1  0  0  0  0  0  0  0  0  0
   15.1990   33.8080   72.1570 N   0  0  0  0  0  0  0  0  0  0  0  0
   14.1670   33.3710   71.2710 C   0  0  2  0  0  0  0  0  0  0  0  0
   14.5480   32.0030   70.8620 C   0  0  1  0  0  0  0  0  0  0  0  0
   16.0380   31.8860   71.0220 C   0  0  2  0  0  0  0  0  0  0  0  0
   16.2070   30.4790   71.4450 C   0  0  0  0  0  0  0  0  0  0  0  0
   17.2430   29.7690   71.4010 O   0  0  0  0  0  0  0  0  0  0  0  0
   14.9570   29.9690   71.9560 N   0  0  0  0  0  0  0  0  0  0  0  0
   14.0240   31.0410   71.8940 C   0  0  0  0  0  0  0  0  0  0  0  0
   12.9800   31.1260   72.5820 O   0  0  0  0  0  0  0  0  0  0  0  0
   14.7230   28.6230   72.4360 C   0  0  0  0  0  0  0  0  0  0  0  0
   15.7170   28.1850   73.4770 C   0  0  1  0  0  0  0  0  0  0  0  0
   15.0440   27.6060   74.5500 O   0  0  0  0  0  0  0  0  0  0  0  0
   14.9680   26.2540   74.3020 C   0  0  0  0  0  0  0  0  0  0  0  0
   16.1500   25.8680   73.4390 C   0  0  0  0  0  0  0  0  0  0  0  0
   16.7240   27.2000   72.9970 C   0  0  0  0  0  0  0  0  0  0  0  0
   13.9370   34.3230   70.1280 C   0  0  0  0  0  0  0  0  0  0  0  0
   12.6230   34.9400   70.1000 C   0  0  0  0  0  0  0  0  0  0  0  0
   11.7420   34.5770   70.9080 O   0  0  0  0  0  0  0  0  0  0  0  0
   12.3150   35.9540   69.1670 N   0  0  0  0  0  0  0  0  0  0  0  0
   17.2780   34.6260   70.0610 H   0  0  0  0  0  0  0  0  0  0  0  0
   20.2420   33.9400   73.8840 H   0  0  0  0  0  0  0  0  0  0  0  0
   20.9880   35.4130   72.0720 H   0  0  0  0  0  0  0  0  0  0  0  0
   18.1730   32.2720   74.8380 H   0  0  0  0  0  0  0  0  0  0  0  0
   15.4810   34.7700   71.8680 H   0  0  0  0  0  0  0  0  0  0  0  0
   13.2300   33.3000   71.8980 H   0  0  0  0  0  0  0  0  0  0  0  0
   14.2040   31.6880   69.8560 H   0  0  0  0  0  0  0  0  0  0  0  0
   16.6000   32.1210   70.1000 H   0  0  0  0  0  0  0  0  0  0  0  0
   13.6990   28.5500   72.8560 H   0  0  0  0  0  0  0  0  0  0  0  0
   14.7450   27.9110   71.5660 H   0  0  0  0  0  0  0  0  0  0  0  0
   16.2440   29.0790   73.8680 H   0  0  0  0  0  0  0  0  0  0  0  0
   15.0440   25.7330   75.2830 H   0  0  0  0  0  0  0  0  0  0  0  0
   14.0030   25.9400   73.8530 H   0  0  0  0  0  0  0  0  0  0  0  0
   16.9040   25.3490   74.0540 H   0  0  0  0  0  0  0  0  0  0  0  0
   15.8330   25.2790   72.5560 H   0  0  0  0  0  0  0  0  0  0  0  0
   16.9200   27.2430   71.9210 H   0  0  0  0  0  0  0  0  0  0  0  0
   17.7290   27.3660   73.4860 H   0  0  0  0  0  0  0  0  0  0  0  0
   14.7030   35.1420   70.2420 H   0  0  0  0  0  0  0  0  0  0  0  0
   14.2200   33.8100   69.1830 H   0  0  0  0  0  0  0  0  0  0  0  0
   11.3820   36.4260   69.2130 H   0  0  0  0  0  0  0  0  0  0  0  0
   12.9580   36.2760   68.4200 H   0  0  0  0  0  0  0  0  0  0  0  0
  1  2  1  0  0  0  0
  2  7  1  0  0  0  0
  3  2  2  0  0  0  0
  3  4  1  0  0  0  0
  4  5  2  0  0  0  0
  5  6  1  0  0  0  0
  5  8  1  0  0  0  0
  6 32  1  0  0  0  0
  7 33  1  0  0  0  0
  7  6  2  0  0  0  0
  8 34  1  0  0  0  0
  9  8  1  0  0  0  0
  9 10  2  0  0  0  0
 11  4  1  6  0  0  0
 11 12  1  0  0  0  0
 11  9  1  0  0  0  0
 13 36  1  1  0  0  0
 13 12  1  0  0  0  0
 14 37  1  6  0  0  0
 14 15  1  0  0  0  0
 14 13  1  0  0  0  0
 14 19  1  0  0  0  0
 15 38  1  6  0  0  0
 15 16  1  0  0  0  0
 15 11  1  0  0  0  0
 16 18  1  0  0  0  0
 17 16  2  0  0  0  0
 18 21  1  0  0  0  0
 19 18  1  0  0  0  0
 19 20  2  0  0  0  0
 21 39  1  0  0  0  0
 21 22  1  0  0  0  0
 22 41  1  1  0  0  0
 22 23  1  0  0  0  0
 24 23  1  0  0  0  0
 24 42  1  0  0  0  0
 25 44  1  0  0  0  0
 25 24  1  0  0  0  0
 26 25  1  0  0  0  0
 26 22  1  0  0  0  0
 26 47  1  0  0  0  0
 27 48  1  0  0  0  0
 27 13  1  0  0  0  0
 28 27  1  0  0  0  0
 28 29  2  0  0  0  0
 30 50  1  0  0  0  0
 30 28  1  0  0  0  0
 31  3  1  0  0  0  0
 35 12  1  0  0  0  0
 40 21  1  0  0  0  0
 43 24  1  0  0  0  0
 45 25  1  0  0  0  0
 46 26  1  0  0  0  0
 49 27  1  0  0  0  0
 51 30  1  0  0  0  0
M  END
>  <Pose>
1

>  <Score>
-7.32

$$$$
