
 OpenBabel03212208413D

 45 49  0  0  0  0  0  0  0  0999 V2000
   13.0710   29.8770   73.6430 Cl  0  0  0  0  0  0  0  0  0  0  0  0
   14.4880   30.6040   72.9520 C   0  0  0  0  0  0  0  0  0  0  0  0
   15.7270   30.3030   73.4590 C   0  0  0  0  0  0  0  0  0  0  0  0
   16.8540   30.8780   72.9150 C   0  0  0  0  0  0  0  0  0  0  0  0
   16.7810   31.7580   71.8610 C   0  0  0  0  0  0  0  0  0  0  0  0
   15.5250   32.0410   71.3730 C   0  0  0  0  0  0  0  0  0  0  0  0
   14.3830   31.4750   71.9060 C   0  0  0  0  0  0  0  0  0  0  0  0
   17.9060   32.3810   71.2580 N   0  0  0  0  0  0  0  0  0  0  0  0
   18.3830   32.1780   70.0430 N   0  0  0  0  0  0  0  0  0  0  0  0
   19.4440   32.9240   69.8040 N   0  0  0  0  0  0  0  0  0  0  0  0
   19.7130   33.6700   70.8890 C   0  0  0  0  0  0  0  0  0  0  0  0
   18.7330   33.3130   71.7940 C   0  0  0  0  0  0  0  0  0  0  0  0
   18.7480   33.9140   73.0060 N   0  0  0  0  0  0  0  0  0  0  0  0
   19.7030   34.8230   73.2800 C   0  0  0  0  0  0  0  0  0  0  0  0
   20.6620   35.1690   72.3860 N   0  0  0  0  0  0  0  0  0  0  0  0
   20.6930   34.6010   71.1670 C   0  0  0  0  0  0  0  0  0  0  0  0
   21.6960   34.9530   70.2130 N   0  0  0  0  0  0  0  0  0  0  0  0
   22.4810   33.8620   69.6690 C   0  0  0  0  0  0  0  0  0  0  0  0
   23.0570   34.2340   68.3040 C   0  0  0  0  0  0  0  0  0  0  0  0
   23.4230   35.6030   68.2510 N   0  0  0  0  0  0  0  0  0  0  0  0
   22.2580   36.5250   68.4260 C   0  0  0  0  0  0  0  0  0  0  0  0
   21.8460   36.3330   69.8730 C   0  0  0  0  0  0  0  0  0  0  0  0
   24.6970   36.1130   68.0700 C   0  0  0  0  0  0  0  0  0  0  0  0
   25.0810   36.9560   69.0140 O   0  0  0  0  0  0  0  0  0  0  0  0
   25.7100   35.9080   67.0460 C   0  0  0  0  0  0  0  0  0  0  0  0
   26.2980   34.5580   66.8860 C   0  0  0  0  0  0  0  0  0  0  0  0
   25.5540   35.2370   65.7600 C   0  0  0  0  0  0  0  0  0  0  0  0
   15.7760   29.6010   74.3010 H   0  0  0  0  0  0  0  0  0  0  0  0
   17.8100   30.6190   73.3390 H   0  0  0  0  0  0  0  0  0  0  0  0
   15.4380   32.7360   70.5360 H   0  0  0  0  0  0  0  0  0  0  0  0
   13.4220   31.7550   71.4560 H   0  0  0  0  0  0  0  0  0  0  0  0
   19.7060   35.3050   74.2670 H   0  0  0  0  0  0  0  0  0  0  0  0
   23.2600   33.5590   70.3900 H   0  0  0  0  0  0  0  0  0  0  0  0
   21.8330   32.9790   69.5030 H   0  0  0  0  0  0  0  0  0  0  0  0
   22.1870   34.1310   67.5630 H   0  0  0  0  0  0  0  0  0  0  0  0
   23.7500   33.4740   68.0140 H   0  0  0  0  0  0  0  0  0  0  0  0
   22.5450   37.5540   68.2250 H   0  0  0  0  0  0  0  0  0  0  0  0
   21.4530   36.1520   67.7920 H   0  0  0  0  0  0  0  0  0  0  0  0
   22.6210   36.8640   70.4820 H   0  0  0  0  0  0  0  0  0  0  0  0
   20.8960   36.8900   70.0140 H   0  0  0  0  0  0  0  0  0  0  0  0
   26.4890   36.7650   67.0130 H   0  0  0  0  0  0  0  0  0  0  0  0
   25.8870   33.6890   67.4190 H   0  0  0  0  0  0  0  0  0  0  0  0
   27.4040   34.4430   66.7390 H   0  0  0  0  0  0  0  0  0  0  0  0
   26.2020   35.6230   64.9020 H   0  0  0  0  0  0  0  0  0  0  0  0
   24.6880   34.7210   65.3730 H   0  0  0  0  0  0  0  0  0  0  0  0
  2  3  1  0  0  0  0
  2  1  1  0  0  0  0
  3 28  1  0  0  0  0
  4 29  1  0  0  0  0
  4  3  2  0  0  0  0
  5  4  1  0  0  0  0
  6  5  2  0  0  0  0
  6  7  1  0  0  0  0
  7  2  2  0  0  0  0
  8 12  1  0  0  0  0
  8  5  1  0  0  0  0
  9  8  1  0  0  0  0
 10  9  2  0  0  0  0
 10 11  1  0  0  0  0
 11 16  1  0  0  0  0
 11 12  2  0  0  0  0
 12 13  1  0  0  0  0
 13 14  2  0  0  0  0
 14 32  1  0  0  0  0
 15 14  1  0  0  0  0
 16 15  2  0  0  0  0
 17 16  1  0  0  0  0
 18 17  1  0  0  0  0
 18 33  1  0  0  0  0
 19 18  1  0  0  0  0
 20 19  1  0  0  0  0
 20 21  1  0  0  0  0
 21 22  1  0  0  0  0
 22 40  1  0  0  0  0
 22 17  1  0  0  0  0
 22 39  1  0  0  0  0
 23 20  1  0  0  0  0
 23 24  2  0  0  0  0
 25 23  1  0  0  0  0
 26 25  1  0  0  0  0
 26 42  1  0  0  0  0
 27 26  1  0  0  0  0
 27 25  1  0  0  0  0
 30  6  1  0  0  0  0
 31  7  1  0  0  0  0
 34 18  1  0  0  0  0
 35 19  1  0  0  0  0
 36 19  1  0  0  0  0
 37 21  1  0  0  0  0
 38 21  1  0  0  0  0
 41 25  1  0  0  0  0
 43 26  1  0  0  0  0
 44 27  1  0  0  0  0
 45 27  1  0  0  0  0
M  END
>  <Pose>
1

>  <Score>
-6.14

$$$$
