
 OpenBabel03212208413D

 41 44  0  0  1  0  0  0  0  0999 V2000
   19.0080   34.1350   71.7640 S   0  0  0  0  0  0  0  0  0  0  0  0
   19.4670   35.5090   71.2970 O   0  0  0  0  0  0  0  0  0  0  0  0
   18.6750   34.3320   73.2400 O   0  0  0  0  0  0  0  0  0  0  0  0
   17.6080   33.6430   70.9820 N   0  0  0  0  0  0  0  0  0  0  0  0
   16.5120   34.5270   70.9670 C   0  0  0  0  0  0  0  0  0  0  0  0
   15.2240   33.9010   70.4710 C   0  0  0  0  0  0  0  0  0  0  0  0
   15.0270   32.6640   71.2850 C   0  0  1  0  0  0  0  0  0  0  0  0
   16.1260   31.8430   71.4350 C   0  0  0  0  0  0  0  0  0  0  0  0
   16.0160   30.7230   72.1500 N   0  0  0  0  0  0  0  0  0  0  0  0
   14.8220   30.4330   72.7060 C   0  0  1  0  0  0  0  0  0  0  0  0
   13.7370   31.2160   72.5750 N   0  0  0  0  0  0  0  0  0  0  0  0
   12.6950   30.6760   73.2340 N   0  0  0  0  0  0  0  0  0  0  0  0
   13.0650   29.5250   73.8150 C   0  0  0  0  0  0  0  0  0  0  0  0
   14.3920   29.3580   73.4960 C   0  0  0  0  0  0  0  0  0  0  0  0
   13.8120   32.3580   71.8570 C   0  0  0  0  0  0  0  0  0  0  0  0
   12.8330   33.1310   71.6990 O   0  0  0  0  0  0  0  0  0  0  0  0
   17.3810   32.2730   70.7740 C   0  0  0  0  0  0  0  0  0  0  0  0
   20.3660   33.0820   71.6540 C   0  0  0  0  0  0  0  0  0  0  0  0
   20.9560   32.8060   70.4230 C   0  0  0  0  0  0  0  0  0  0  0  0
   22.0400   31.9570   70.3710 C   0  0  0  0  0  0  0  0  0  0  0  0
   22.5590   31.3750   71.4810 C   0  0  0  0  0  0  0  0  0  0  0  0
   22.0020   31.6260   72.7030 C   0  0  0  0  0  0  0  0  0  0  0  0
   20.9170   32.4750   72.7570 C   0  0  0  0  0  0  0  0  0  0  0  0
   22.6580   30.8820   74.1660 Cl  0  0  0  0  0  0  0  0  0  0  0  0
   20.4930   33.3540   69.2500 O   0  0  0  0  0  0  0  0  0  0  0  0
   21.3160   34.2530   68.5410 C   0  0  0  0  0  0  0  0  0  0  0  0
   16.7560   35.4070   70.3220 H   0  0  0  0  0  0  0  0  0  0  0  0
   16.3490   34.9430   71.9970 H   0  0  0  0  0  0  0  0  0  0  0  0
   15.3380   33.6720   69.3890 H   0  0  0  0  0  0  0  0  0  0  0  0
   14.4220   34.6400   70.6430 H   0  0  0  0  0  0  0  0  0  0  0  0
   11.7460   31.1130   73.2710 H   0  0  0  0  0  0  0  0  0  0  0  0
   12.4700   28.8410   74.4200 H   0  0  0  0  0  0  0  0  0  0  0  0
   15.0680   28.5370   73.7790 H   0  0  0  0  0  0  0  0  0  0  0  0
   17.2120   32.1060   69.6690 H   0  0  0  0  0  0  0  0  0  0  0  0
   18.2440   31.6650   71.0390 H   0  0  0  0  0  0  0  0  0  0  0  0
   22.5300   31.7170   69.4140 H   0  0  0  0  0  0  0  0  0  0  0  0
   23.4230   30.6980   71.4320 H   0  0  0  0  0  0  0  0  0  0  0  0
   20.5120   32.6390   73.7690 H   0  0  0  0  0  0  0  0  0  0  0  0
   21.6520   35.0920   69.1870 H   0  0  0  0  0  0  0  0  0  0  0  0
   22.2410   33.7520   68.1600 H   0  0  0  0  0  0  0  0  0  0  0  0
   20.7950   34.6290   67.6260 H   0  0  0  0  0  0  0  0  0  0  0  0
  1  3  2  0  0  0  0
  2  1  2  0  0  0  0
  4  1  1  0  0  0  0
  5  4  1  0  0  0  0
  5 28  1  0  0  0  0
  6 30  1  0  0  0  0
  6  5  1  0  0  0  0
  6  7  1  0  0  0  0
  7  8  1  1  0  0  0
  7 15  1  0  0  0  0
  8  9  2  0  0  0  0
 10  9  1  6  0  0  0
 10 14  1  0  0  0  0
 11 10  1  0  0  0  0
 11 12  1  0  0  0  0
 12 31  1  0  0  0  0
 12 13  1  0  0  0  0
 13 32  1  0  0  0  0
 14 33  1  0  0  0  0
 14 13  2  0  0  0  0
 15 11  1  0  0  0  0
 16 15  2  0  0  0  0
 17  4  1  0  0  0  0
 17 35  1  0  0  0  0
 17  8  1  0  0  0  0
 18  1  1  0  0  0  0
 18 23  1  0  0  0  0
 19 18  2  0  0  0  0
 20 19  1  0  0  0  0
 20 21  2  0  0  0  0
 21 22  1  0  0  0  0
 22 23  2  0  0  0  0
 22 24  1  0  0  0  0
 23 38  1  0  0  0  0
 25 19  1  0  0  0  0
 26 39  1  0  0  0  0
 26 25  1  0  0  0  0
 27  5  1  0  0  0  0
 29  6  1  0  0  0  0
 34 17  1  0  0  0  0
 36 20  1  0  0  0  0
 37 21  1  0  0  0  0
 40 26  1  0  0  0  0
 41 26  1  0  0  0  0
M  END
>  <Pose>
1

>  <Score>
-6.60

$$$$
