
 OpenBabel03212208413D

 41 44  0  0  1  0  0  0  0  0999 V2000
   18.5960   32.4360   70.7490 S   0  0  0  0  0  0  0  0  0  0  0  0
   18.1950   31.5560   69.5870 O   0  0  0  0  0  0  0  0  0  0  0  0
   19.0000   33.7590   70.1690 O   0  0  0  0  0  0  0  0  0  0  0  0
   17.3050   32.5980   71.7940 N   0  0  0  0  0  0  0  0  0  0  0  0
   16.3750   31.5650   71.8980 C   0  0  0  0  0  0  0  0  0  0  0  0
   14.9560   32.0430   72.0990 C   0  0  0  0  0  0  0  0  0  0  0  0
   14.6960   33.3840   71.5260 C   0  0  2  0  0  0  0  0  0  0  0  0
   15.7130   34.3040   71.6080 C   0  0  0  0  0  0  0  0  0  0  0  0
   15.5680   35.5410   71.1200 N   0  0  0  0  0  0  0  0  0  0  0  0
   14.3810   35.8950   70.5260 C   0  0  2  0  0  0  0  0  0  0  0  0
   13.3940   34.9780   70.4540 N   0  0  0  0  0  0  0  0  0  0  0  0
   12.3610   35.5630   69.8410 N   0  0  0  0  0  0  0  0  0  0  0  0
   12.6630   36.8160   69.5240 C   0  0  0  0  0  0  0  0  0  0  0  0
   13.9650   37.0760   69.9490 C   0  0  0  0  0  0  0  0  0  0  0  0
   13.4850   33.7280   70.9260 C   0  0  0  0  0  0  0  0  0  0  0  0
   12.5660   32.8760   70.8580 O   0  0  0  0  0  0  0  0  0  0  0  0
   16.9760   33.8980   72.2470 C   0  0  0  0  0  0  0  0  0  0  0  0
   20.0190   31.7090   71.4600 C   0  0  0  0  0  0  0  0  0  0  0  0
   20.0660   31.2800   72.7760 C   0  0  0  0  0  0  0  0  0  0  0  0
   21.2220   30.7100   73.2870 C   0  0  0  0  0  0  0  0  0  0  0  0
   22.3580   30.5440   72.5280 C   0  0  0  0  0  0  0  0  0  0  0  0
   22.3120   30.9710   71.2180 C   0  0  0  0  0  0  0  0  0  0  0  0
   21.1640   31.5370   70.7100 C   0  0  0  0  0  0  0  0  0  0  0  0
   23.5180   29.9640   73.0660 O   0  0  0  0  0  0  0  0  0  0  0  0
   24.3100   30.7000   73.9790 C   0  0  0  0  0  0  0  0  0  0  0  0
   21.2640   30.1730   74.9540 Cl  0  0  0  0  0  0  0  0  0  0  0  0
   16.4360   30.8380   71.0460 H   0  0  0  0  0  0  0  0  0  0  0  0
   16.6190   30.9570   72.8200 H   0  0  0  0  0  0  0  0  0  0  0  0
   14.2150   31.2910   71.7570 H   0  0  0  0  0  0  0  0  0  0  0  0
   14.7500   32.1500   73.2050 H   0  0  0  0  0  0  0  0  0  0  0  0
   11.4410   35.1110   69.6340 H   0  0  0  0  0  0  0  0  0  0  0  0
   12.0440   37.5340   69.0280 H   0  0  0  0  0  0  0  0  0  0  0  0
   14.4850   37.9980   69.8330 H   0  0  0  0  0  0  0  0  0  0  0  0
   17.8100   34.5780   72.0420 H   0  0  0  0  0  0  0  0  0  0  0  0
   16.7610   33.8290   73.3530 H   0  0  0  0  0  0  0  0  0  0  0  0
   19.1660   31.4140   73.3640 H   0  0  0  0  0  0  0  0  0  0  0  0
   23.2130   30.8440   70.6010 H   0  0  0  0  0  0  0  0  0  0  0  0
   21.1500   31.8670   69.6730 H   0  0  0  0  0  0  0  0  0  0  0  0
   23.6030   31.0670   74.7770 H   0  0  0  0  0  0  0  0  0  0  0  0
   25.0030   30.0140   74.5200 H   0  0  0  0  0  0  0  0  0  0  0  0
   24.8410   31.5330   73.4960 H   0  0  0  0  0  0  0  0  0  0  0  0
  1 18  1  0  0  0  0
  1  4  1  0  0  0  0
  2  1  2  0  0  0  0
  3  1  2  0  0  0  0
  4  5  1  0  0  0  0
  4 17  1  0  0  0  0
  5  6  1  0  0  0  0
  5 28  1  0  0  0  0
  6 30  1  0  0  0  0
  7 15  1  1  0  0  0
  7  8  1  0  0  0  0
  7  6  1  0  0  0  0
  8 17  1  0  0  0  0
  9  8  2  0  0  0  0
 10 14  1  6  0  0  0
 10  9  1  0  0  0  0
 11 10  1  0  0  0  0
 11 15  1  0  0  0  0
 12 11  1  0  0  0  0
 13 12  1  0  0  0  0
 13 14  2  0  0  0  0
 16 15  2  0  0  0  0
 17 35  1  0  0  0  0
 18 19  1  0  0  0  0
 19 20  2  0  0  0  0
 19 36  1  0  0  0  0
 20 26  1  0  0  0  0
 21 24  1  0  0  0  0
 21 20  1  0  0  0  0
 22 21  2  0  0  0  0
 23 22  1  0  0  0  0
 23 18  2  0  0  0  0
 24 25  1  0  0  0  0
 25 40  1  0  0  0  0
 25 39  1  0  0  0  0
 27  5  1  0  0  0  0
 29  6  1  0  0  0  0
 31 12  1  0  0  0  0
 32 13  1  0  0  0  0
 33 14  1  0  0  0  0
 34 17  1  0  0  0  0
 37 22  1  0  0  0  0
 38 23  1  0  0  0  0
 41 25  1  0  0  0  0
M  END
>  <Pose>
1

>  <Score>
-6.32

$$$$
