
 OpenBabel03212208413D

 41 43  0  0  1  0  0  0  0  0999 V2000
   12.5140   34.8240   70.3190 Cl  0  0  0  0  0  0  0  0  0  0  0  0
   13.4920   33.5250   70.9970 C   0  0  0  0  0  0  0  0  0  0  0  0
   14.8570   33.5340   70.8020 C   0  0  0  0  0  0  0  0  0  0  0  0
   15.6040   32.5110   71.3400 C   0  0  0  0  0  0  0  0  0  0  0  0
   15.0450   31.4610   72.0760 C   0  0  0  0  0  0  0  0  0  0  0  0
   13.6930   31.4620   72.2650 C   0  0  0  0  0  0  0  0  0  0  0  0
   12.9170   32.4940   71.7260 C   0  0  0  0  0  0  0  0  0  0  0  0
   15.9380   30.4530   72.5880 C   0  0  0  0  0  0  0  0  0  0  0  0
   16.6410   29.7870   71.7760 O   0  0  0  0  0  0  0  0  0  0  0  0
   16.0130   30.2260   73.9960 N   0  0  0  0  0  0  0  0  0  0  0  0
   15.4470   29.0130   74.5100 C   0  0  0  0  0  0  0  0  0  0  0  0
   16.2790   27.7950   74.4360 C   0  0  2  0  0  0  0  0  0  0  0  0
   16.0070   26.8750   73.3750 N   0  0  1  0  0  0  0  0  0  0  0  0
   17.3350   26.3620   72.9600 C   0  0  0  0  0  0  0  0  0  0  0  0
   18.0240   26.0120   74.2840 C   0  0  0  0  0  0  0  0  0  0  0  0
   17.0710   25.7670   75.3470 N   0  0  1  0  0  0  0  0  0  0  0  0
   16.3370   26.9800   75.7180 C   0  0  0  0  0  0  0  0  0  0  0  0
   16.0670   24.8650   74.8100 C   0  0  0  0  0  0  0  0  0  0  0  0
   15.2980   25.6760   73.7730 C   0  0  0  0  0  0  0  0  0  0  0  0
   15.4400   34.5620   70.0750 O   0  0  0  0  0  0  0  0  0  0  0  0
   15.4230   35.8970   70.5430 C   0  0  0  0  0  0  0  0  0  0  0  0
   16.6800   32.5530   71.1630 H   0  0  0  0  0  0  0  0  0  0  0  0
   13.1970   30.6960   72.8170 H   0  0  0  0  0  0  0  0  0  0  0  0
   11.8480   32.4730   71.8880 H   0  0  0  0  0  0  0  0  0  0  0  0
   16.4640   30.9300   74.5790 H   0  0  0  0  0  0  0  0  0  0  0  0
   15.1180   29.1590   75.5490 H   0  0  0  0  0  0  0  0  0  0  0  0
   14.5230   28.8120   73.8930 H   0  0  0  0  0  0  0  0  0  0  0  0
   17.3510   28.1730   74.3230 H   0  0  0  0  0  0  0  0  0  0  0  0
   17.8350   27.2220   72.4780 H   0  0  0  0  0  0  0  0  0  0  0  0
   17.2100   25.4890   72.3160 H   0  0  0  0  0  0  0  0  0  0  0  0
   18.5290   25.0430   74.0900 H   0  0  0  0  0  0  0  0  0  0  0  0
   18.7900   26.7550   74.5310 H   0  0  0  0  0  0  0  0  0  0  0  0
   15.3600   26.6700   76.0880 H   0  0  0  0  0  0  0  0  0  0  0  0
   16.9100   27.5400   76.4890 H   0  0  0  0  0  0  0  0  0  0  0  0
   15.3960   24.6010   75.6510 H   0  0  0  0  0  0  0  0  0  0  0  0
   16.6030   24.0090   74.3860 H   0  0  0  0  0  0  0  0  0  0  0  0
   14.2540   25.8030   74.0300 H   0  0  0  0  0  0  0  0  0  0  0  0
   15.3170   25.0120   72.8510 H   0  0  0  0  0  0  0  0  0  0  0  0
   15.9940   35.9070   71.4950 H   0  0  0  0  0  0  0  0  0  0  0  0
   14.3780   36.2140   70.8020 H   0  0  0  0  0  0  0  0  0  0  0  0
   15.8950   36.5450   69.8050 H   0  0  0  0  0  0  0  0  0  0  0  0
  1  2  1  0  0  0  0
  2  7  1  0  0  0  0
  3  2  2  0  0  0  0
  3  4  1  0  0  0  0
  4  5  2  0  0  0  0
  5  6  1  0  0  0  0
  5  8  1  0  0  0  0
  6 23  1  0  0  0  0
  7 24  1  0  0  0  0
  7  6  2  0  0  0  0
  8 10  1  0  0  0  0
  9  8  2  0  0  0  0
 10 11  1  0  0  0  0
 10 25  1  0  0  0  0
 11 26  1  0  0  0  0
 12 28  1  6  0  0  0
 12 11  1  0  0  0  0
 12 17  1  0  0  0  0
 13 14  1  1  0  0  0
 13 19  1  0  0  0  0
 13 12  1  0  0  0  0
 14 15  1  0  0  0  0
 15 32  1  0  0  0  0
 16 15  1  6  0  0  0
 16 17  1  0  0  0  0
 17 33  1  0  0  0  0
 17 34  1  0  0  0  0
 18 16  1  0  0  0  0
 18 35  1  0  0  0  0
 19 37  1  0  0  0  0
 19 18  1  0  0  0  0
 20 21  1  0  0  0  0
 20  3  1  0  0  0  0
 21 40  1  0  0  0  0
 21 39  1  0  0  0  0
 22  4  1  0  0  0  0
 27 11  1  0  0  0  0
 29 14  1  0  0  0  0
 30 14  1  0  0  0  0
 31 15  1  0  0  0  0
 36 18  1  0  0  0  0
 38 19  1  0  0  0  0
 41 21  1  0  0  0  0
M  END
>  <Pose>
1

>  <Score>
-5.02

$$$$
