
 OpenBabel03212208413D

 47 50  0  0  1  0  0  0  0  0999 V2000
   14.6980   31.0620   71.2840 Cl  0  0  0  0  0  0  0  0  0  0  0  0
   16.2310   31.7490   71.7580 C   0  0  0  0  0  0  0  0  0  0  0  0
   16.3420   32.9640   72.4220 C   0  0  0  0  0  0  0  0  0  0  0  0
   17.5500   33.4840   72.7830 C   0  0  0  0  0  0  0  0  0  0  0  0
   18.7210   32.8090   72.4960 C   0  0  0  0  0  0  0  0  0  0  0  0
   18.6180   31.6080   71.8400 C   0  0  0  0  0  0  0  0  0  0  0  0
   17.3910   31.0830   71.4740 C   0  0  0  0  0  0  0  0  0  0  0  0
   19.9860   33.3790   72.9140 C   0  0  2  0  0  0  0  0  0  0  0  0
   21.1700   33.2090   72.2330 N   0  0  0  0  0  4  0  0  0  0  0  0
   21.5590   31.8380   72.4920 C   0  0  0  0  0  0  0  0  0  0  0  0
   22.0380   30.8610   71.7930 C   0  0  0  0  0  0  0  0  0  0  0  0
   22.3480   29.5280   72.3420 C   0  0  0  0  0  0  0  0  0  0  0  0
   22.0560   29.3430   73.7890 C   0  0  0  0  0  0  0  0  0  0  0  0
   21.9880   30.6070   74.5760 C   0  0  0  0  0  0  0  0  0  0  0  0
   21.2960   31.6670   73.8730 N   0  0  0  0  0  0  0  0  0  0  0  0
   20.3200   32.6800   74.2630 C   0  0  0  0  0  0  0  0  0  0  0  0
   21.3830   33.5950   70.9190 C   0  0  0  0  0  0  0  0  0  0  0  0
   20.5120   34.2360   70.1040 C   0  0  0  0  0  0  0  0  0  0  0  0
   20.8780   34.5710   68.8020 C   0  0  0  0  0  0  0  0  0  0  0  0
   22.1260   34.2750   68.2810 C   0  0  0  0  0  0  0  0  0  0  0  0
   22.9920   33.6230   69.1340 C   0  0  0  0  0  0  0  0  0  0  0  0
   22.6620   33.2800   70.4180 C   0  0  0  0  0  0  0  0  0  0  0  0
   22.4490   34.6260   66.9800 O   0  0  0  0  0  0  0  0  0  0  0  0
   22.4430   35.9810   66.6100 C   0  0  0  0  0  0  0  0  0  0  0  0
   19.7920   34.7320   73.3110 O   0  0  0  0  0  0  0  0  0  0  0  0
   15.3970   33.4790   72.6380 H   0  0  0  0  0  0  0  0  0  0  0  0
   17.5420   34.4470   73.3040 H   0  0  0  0  0  0  0  0  0  0  0  0
   19.4640   30.9920   71.5780 H   0  0  0  0  0  0  0  0  0  0  0  0
   17.3170   30.1200   70.9490 H   0  0  0  0  0  0  0  0  0  0  0  0
   21.9230   33.7430   72.8040 H   0  0  0  0  0  0  0  0  0  0  0  0
   22.2280   30.9730   70.7320 H   0  0  0  0  0  0  0  0  0  0  0  0
   23.3800   29.2010   72.0580 H   0  0  0  0  0  0  0  0  0  0  0  0
   21.6870   28.8140   71.7650 H   0  0  0  0  0  0  0  0  0  0  0  0
   22.8820   28.7020   74.2130 H   0  0  0  0  0  0  0  0  0  0  0  0
   21.0850   28.7990   73.9610 H   0  0  0  0  0  0  0  0  0  0  0  0
   23.0350   30.9300   74.8440 H   0  0  0  0  0  0  0  0  0  0  0  0
   21.4700   30.4470   75.5420 H   0  0  0  0  0  0  0  0  0  0  0  0
   20.8510   33.3980   74.9210 H   0  0  0  0  0  0  0  0  0  0  0  0
   19.4260   32.2500   74.7210 H   0  0  0  0  0  0  0  0  0  0  0  0
   19.5340   34.4850   70.4840 H   0  0  0  0  0  0  0  0  0  0  0  0
   20.1290   35.0860   68.2000 H   0  0  0  0  0  0  0  0  0  0  0  0
   23.9740   33.4000   68.7020 H   0  0  0  0  0  0  0  0  0  0  0  0
   23.4080   32.7740   71.0450 H   0  0  0  0  0  0  0  0  0  0  0  0
   21.4100   36.3820   66.6010 H   0  0  0  0  0  0  0  0  0  0  0  0
   22.9700   36.1490   65.6460 H   0  0  0  0  0  0  0  0  0  0  0  0
   23.0100   36.6200   67.3460 H   0  0  0  0  0  0  0  0  0  0  0  0
   19.7410   34.7130   74.3010 H   0  0  0  0  0  0  0  0  0  0  0  0
  1  2  1  0  0  0  0
  2  3  1  0  0  0  0
  3 26  1  0  0  0  0
  3  4  2  0  0  0  0
  4 27  1  0  0  0  0
  5  4  1  0  0  0  0
  5  8  1  0  0  0  0
  6  5  2  0  0  0  0
  7  2  2  0  0  0  0
  7  6  1  0  0  0  0
  8 25  1  1  0  0  0
  8 16  1  0  0  0  0
  9 10  1  0  0  0  0
  9 30  1  0  0  0  0
  9  8  1  0  0  0  0
 10 15  1  0  0  0  0
 11 12  1  0  0  0  0
 11 10  2  0  0  0  0
 12 13  1  0  0  0  0
 13 35  1  0  0  0  0
 13 34  1  0  0  0  0
 13 14  1  0  0  0  0
 14 36  1  0  0  0  0
 14 37  1  0  0  0  0
 15 16  1  0  0  0  0
 15 14  1  0  0  0  0
 16 39  1  0  0  0  0
 16 38  1  0  0  0  0
 17  9  1  0  0  0  0
 18 40  1  0  0  0  0
 18 17  2  0  0  0  0
 19 18  1  0  0  0  0
 20 19  2  0  0  0  0
 20 21  1  0  0  0  0
 21 22  2  0  0  0  0
 22 17  1  0  0  0  0
 22 43  1  0  0  0  0
 23 20  1  0  0  0  0
 24 23  1  0  0  0  0
 24 46  1  0  0  0  0
 25 47  1  0  0  0  0
 28  6  1  0  0  0  0
 29  7  1  0  0  0  0
 31 11  1  0  0  0  0
 32 12  1  0  0  0  0
 33 12  1  0  0  0  0
 41 19  1  0  0  0  0
 42 21  1  0  0  0  0
 44 24  1  0  0  0  0
 45 24  1  0  0  0  0
M  END
>  <Pose>
1

>  <Score>
-4.96

$$$$
