
 OpenBabel03212208413D

 51 54  0  0  0  0  0  0  0  0999 V2000
    9.1810   29.8130   76.1550 Cl  0  0  0  0  0  0  0  0  0  0  0  0
   10.8390   29.5510   75.6710 C   0  0  0  0  0  0  0  0  0  0  0  0
   11.5450   28.4870   76.1610 C   0  0  0  0  0  0  0  0  0  0  0  0
   12.8690   28.2940   75.7460 C   0  0  0  0  0  0  0  0  0  0  0  0
   13.4890   29.1410   74.8580 C   0  0  0  0  0  0  0  0  0  0  0  0
   12.7730   30.2370   74.3450 C   0  0  0  0  0  0  0  0  0  0  0  0
   11.4670   30.3970   74.7770 C   0  0  0  0  0  0  0  0  0  0  0  0
   14.7310   28.7290   74.6200 N   0  0  0  0  0  0  0  0  0  0  0  0
   14.8840   27.5960   75.3860 C   0  0  0  0  0  0  0  0  0  0  0  0
   15.9350   26.8960   75.4490 O   0  0  0  0  0  0  0  0  0  0  0  0
   13.7620   27.3820   76.0280 O   0  0  0  0  0  0  0  0  0  0  0  0
   15.8060   29.3030   73.8300 C   0  0  0  0  0  0  0  0  0  0  0  0
   15.6090   30.6520   73.3070 C   0  0  0  0  0  0  0  0  0  0  0  0
   16.0410   31.0350   71.9850 C   0  0  0  0  0  0  0  0  0  0  0  0
   15.8160   30.1570   71.0680 O   0  0  0  0  0  0  0  0  0  0  0  0
   16.6420   32.2190   71.5530 N   0  0  0  0  0  0  0  0  0  0  0  0
   16.2890   33.5640   72.0450 C   0  0  0  0  0  0  0  0  0  0  0  0
   17.5870   33.8600   72.8610 C   0  0  0  0  0  0  0  0  0  0  0  0
   18.6830   33.9830   71.9100 N   0  0  0  0  0  0  0  0  0  0  0  0
   18.6270   33.3760   70.6960 C   0  0  0  0  0  0  0  0  0  0  0  0
   17.6470   32.2490   70.5260 C   0  0  0  0  0  0  0  0  0  0  0  0
   19.8110   34.3830   72.6090 C   0  0  0  0  0  0  0  0  0  0  0  0
   20.9430   33.3600   72.4990 C   0  0  0  0  0  0  0  0  0  0  0  0
   20.9330   32.4810   73.4440 O   0  0  0  0  0  0  0  0  0  0  0  0
   21.8320   33.4160   71.5150 N   0  0  0  0  0  0  0  0  0  0  0  0
   22.7780   33.4760   70.4660 C   0  0  0  0  0  0  0  0  0  0  0  0
   22.5710   34.6740   69.4630 C   0  0  0  0  0  0  0  0  0  0  0  0
   22.2770   33.3160   69.0460 C   0  0  0  0  0  0  0  0  0  0  0  0
   11.0910   27.7990   76.8680 H   0  0  0  0  0  0  0  0  0  0  0  0
   13.2750   30.8740   73.6690 H   0  0  0  0  0  0  0  0  0  0  0  0
   10.9240   31.2420   74.3850 H   0  0  0  0  0  0  0  0  0  0  0  0
   15.9880   28.5800   72.9770 H   0  0  0  0  0  0  0  0  0  0  0  0
   16.7020   29.2290   74.5300 H   0  0  0  0  0  0  0  0  0  0  0  0
   16.0990   31.4210   74.0180 H   0  0  0  0  0  0  0  0  0  0  0  0
   14.4820   30.8710   73.3440 H   0  0  0  0  0  0  0  0  0  0  0  0
   15.4110   33.6110   72.6450 H   0  0  0  0  0  0  0  0  0  0  0  0
   16.2320   34.2960   71.2190 H   0  0  0  0  0  0  0  0  0  0  0  0
   17.4720   34.7870   73.4190 H   0  0  0  0  0  0  0  0  0  0  0  0
   17.8300   33.0620   73.5620 H   0  0  0  0  0  0  0  0  0  0  0  0
   19.6460   32.9930   70.3740 H   0  0  0  0  0  0  0  0  0  0  0  0
   18.4150   34.1720   69.8760 H   0  0  0  0  0  0  0  0  0  0  0  0
   18.1440   31.2970   70.3710 H   0  0  0  0  0  0  0  0  0  0  0  0
   17.1300   32.4700   69.5200 H   0  0  0  0  0  0  0  0  0  0  0  0
   19.5660   34.4940   73.6920 H   0  0  0  0  0  0  0  0  0  0  0  0
   20.2290   35.3890   72.3050 H   0  0  0  0  0  0  0  0  0  0  0  0
   22.8630   33.4760   72.3970 H   0  0  0  0  0  0  0  0  0  0  0  0
   23.8660   33.4690   70.7020 H   0  0  0  0  0  0  0  0  0  0  0  0
   21.9040   35.4190   69.8610 H   0  0  0  0  0  0  0  0  0  0  0  0
   23.5250   35.1180   69.0460 H   0  0  0  0  0  0  0  0  0  0  0  0
   21.2240   32.9510   68.8860 H   0  0  0  0  0  0  0  0  0  0  0  0
   22.9550   32.8530   68.2740 H   0  0  0  0  0  0  0  0  0  0  0  0
  2  1  1  0  0  0  0
  2  3  1  0  0  0  0
  3 29  1  0  0  0  0
  4 11  1  0  0  0  0
  4  3  2  0  0  0  0
  5  4  1  0  0  0  0
  6  7  1  0  0  0  0
  6  5  2  0  0  0  0
  7  2  2  0  0  0  0
  8  5  1  0  0  0  0
  8  9  1  0  0  0  0
  9 10  2  0  0  0  0
  9 11  1  0  0  0  0
 12 33  1  0  0  0  0
 12  8  1  0  0  0  0
 13 35  1  0  0  0  0
 13 12  1  0  0  0  0
 13 34  1  0  0  0  0
 14 13  1  0  0  0  0
 15 14  2  0  0  0  0
 16 14  1  0  0  0  0
 16 17  1  0  0  0  0
 17 36  1  0  0  0  0
 17 18  1  0  0  0  0
 18 38  1  0  0  0  0
 18 39  1  0  0  0  0
 19 22  1  0  0  0  0
 19 18  1  0  0  0  0
 20 19  1  0  0  0  0
 21 20  1  0  0  0  0
 21 16  1  0  0  0  0
 22 44  1  0  0  0  0
 23 22  1  0  0  0  0
 23 24  2  0  0  0  0
 25 46  1  0  0  0  0
 25 23  1  0  0  0  0
 26 47  1  0  0  0  0
 26 25  1  0  0  0  0
 27 48  1  0  0  0  0
 27 26  1  0  0  0  0
 28 27  1  0  0  0  0
 28 26  1  0  0  0  0
 30  6  1  0  0  0  0
 31  7  1  0  0  0  0
 32 12  1  0  0  0  0
 37 17  1  0  0  0  0
 40 20  1  0  0  0  0
 41 20  1  0  0  0  0
 42 21  1  0  0  0  0
 43 21  1  0  0  0  0
 45 22  1  0  0  0  0
 49 27  1  0  0  0  0
 50 28  1  0  0  0  0
 51 28  1  0  0  0  0
M  END
>  <Pose>
1

>  <Score>
-5.63

$$$$
