
 OpenBabel03212208413D

 59 62  0  0  1  0  0  0  0  0999 V2000
   13.3100   32.4010   71.2610 Cl  0  0  0  0  0  0  0  0  0  0  0  0
   14.9090   31.6570   71.6630 C   0  0  2  0  0  0  0  0  0  0  0  0
   15.9840   32.4210   71.5310 C   0  0  2  0  0  0  0  0  0  0  0  0
   17.2700   31.7440   71.8240 C   0  0  0  0  0  0  0  0  0  0  0  0
   17.2270   30.5200   72.1970 N   0  0  0  0  0  0  0  0  0  0  0  0
   16.0990   29.7760   72.3360 N   0  0  0  0  0  0  0  0  0  0  0  0
   14.9440   30.3240   72.0730 C   0  0  0  0  0  0  0  0  0  0  0  0
   13.8250   29.7170   72.1840 O   0  0  0  0  0  0  0  0  0  0  0  0
   16.2370   28.4960   73.0290 C   0  0  0  0  0  0  0  0  0  0  0  0
   17.0270   27.4930   72.5690 C   0  0  0  0  0  0  0  0  0  0  0  0
   17.2320   26.3460   73.3050 C   0  0  0  0  0  0  0  0  0  0  0  0
   16.6300   26.1840   74.5520 C   0  0  0  0  0  0  0  0  0  0  0  0
   15.8170   27.2270   74.9940 C   0  0  0  0  0  0  0  0  0  0  0  0
   15.6310   28.3350   74.2620 C   0  0  0  0  0  0  0  0  0  0  0  0
   16.0250   33.8060   71.4730 N   0  0  0  0  0  0  0  0  0  0  0  0
   15.5400   34.7770   70.5860 C   0  0  0  0  0  0  0  0  0  0  0  0
   16.7820   35.5990   70.0800 C   0  0  0  0  0  0  0  0  0  0  0  0
   18.0320   35.0970   70.3680 N   0  0  0  0  0  0  0  0  0  0  0  0
   18.2110   34.2670   71.5280 C   0  0  0  0  0  0  0  0  0  0  0  0
   16.9840   34.4210   72.4860 C   0  0  0  0  0  0  0  0  0  0  0  0
   19.1050   36.1300   70.5550 C   0  0  0  0  0  0  0  0  0  0  0  0
   20.0670   36.0400   69.4670 C   0  0  0  0  0  0  0  0  0  0  0  0
   20.2370   36.5800   68.5030 O   0  0  0  0  0  0  0  0  0  0  0  0
   21.1950   34.7990   69.7930 N   0  0  0  0  0  0  0  0  0  0  0  0
   21.8420   34.8660   68.4350 C   0  0  0  0  0  0  0  0  0  0  0  0
   22.0400   35.8670   67.8030 O   0  0  0  0  0  0  0  0  0  0  0  0
   22.2130   33.5410   67.9940 N   0  0  0  0  0  0  0  0  0  0  0  0
   23.4970   33.0860   67.6150 C   0  0  0  0  0  0  0  0  0  0  0  0
   24.2710   33.8350   66.6090 C   0  0  0  0  0  0  0  0  0  0  0  0
   25.1460   34.8440   67.3600 C   0  0  0  0  0  0  0  0  0  0  0  0
   25.4580   34.0760   68.6240 C   0  0  0  0  0  0  0  0  0  0  0  0
   24.3420   33.1690   68.9030 C   0  0  0  0  0  0  0  0  0  0  0  0
   18.0820   32.4180   71.6650 H   0  0  0  0  0  0  0  0  0  0  0  0
   17.4920   27.5830   71.5870 H   0  0  0  0  0  0  0  0  0  0  0  0
   17.8680   25.5810   72.9810 H   0  0  0  0  0  0  0  0  0  0  0  0
   16.8270   25.2870   75.0940 H   0  0  0  0  0  0  0  0  0  0  0  0
   15.3830   27.0780   75.9840 H   0  0  0  0  0  0  0  0  0  0  0  0
   14.9970   29.1260   74.6410 H   0  0  0  0  0  0  0  0  0  0  0  0
   14.9100   34.4750   69.7600 H   0  0  0  0  0  0  0  0  0  0  0  0
   14.8960   35.4750   71.1940 H   0  0  0  0  0  0  0  0  0  0  0  0
   16.5910   36.6290   70.5130 H   0  0  0  0  0  0  0  0  0  0  0  0
   16.5580   35.7740   68.9830 H   0  0  0  0  0  0  0  0  0  0  0  0
   18.2050   33.1680   71.3240 H   0  0  0  0  0  0  0  0  0  0  0  0
   19.0360   34.6270   72.1380 H   0  0  0  0  0  0  0  0  0  0  0  0
   17.0740   33.8760   73.3760 H   0  0  0  0  0  0  0  0  0  0  0  0
   16.7920   35.5220   72.5230 H   0  0  0  0  0  0  0  0  0  0  0  0
   18.5430   37.0530   70.6060 H   0  0  0  0  0  0  0  0  0  0  0  0
   19.5870   35.9170   71.5130 H   0  0  0  0  0  0  0  0  0  0  0  0
   20.8580   34.7670   70.4880 H   0  0  0  0  0  0  0  0  0  0  0  0
   21.4040   32.8370   67.9360 H   0  0  0  0  0  0  0  0  0  0  0  0
   23.4310   31.9970   67.2340 H   0  0  0  0  0  0  0  0  0  0  0  0
   24.9880   33.1260   66.1290 H   0  0  0  0  0  0  0  0  0  0  0  0
   23.6730   34.3380   65.8210 H   0  0  0  0  0  0  0  0  0  0  0  0
   24.5730   35.7650   67.6020 H   0  0  0  0  0  0  0  0  0  0  0  0
   26.0800   35.0800   66.7860 H   0  0  0  0  0  0  0  0  0  0  0  0
   25.4800   34.8710   69.4540 H   0  0  0  0  0  0  0  0  0  0  0  0
   26.4480   33.5780   68.6150 H   0  0  0  0  0  0  0  0  0  0  0  0
   24.5850   32.1720   69.3230 H   0  0  0  0  0  0  0  0  0  0  0  0
   23.6720   33.7160   69.6800 H   0  0  0  0  0  0  0  0  0  0  0  0
  2  1  1  6  0  0  0
  2  7  1  0  0  0  0
  3 15  1  1  0  0  0
  3  2  1  0  0  0  0
  3  4  1  0  0  0  0
  4  5  2  0  0  0  0
  5  6  1  0  0  0  0
  6  9  1  0  0  0  0
  7  8  2  0  0  0  0
  7  6  1  0  0  0  0
  9 14  1  0  0  0  0
 10  9  2  0  0  0  0
 10 11  1  0  0  0  0
 11 12  2  0  0  0  0
 12 13  1  0  0  0  0
 12 36  1  0  0  0  0
 13 37  1  0  0  0  0
 14 38  1  0  0  0  0
 14 13  2  0  0  0  0
 15 20  1  0  0  0  0
 16 40  1  0  0  0  0
 16 15  1  0  0  0  0
 17 18  1  0  0  0  0
 17 41  1  0  0  0  0
 17 16  1  0  0  0  0
 18 21  1  0  0  0  0
 18 19  1  0  0  0  0
 19 44  1  0  0  0  0
 19 20  1  0  0  0  0
 20 46  1  0  0  0  0
 20 45  1  0  0  0  0
 21 47  1  0  0  0  0
 21 48  1  0  0  0  0
 22 24  1  0  0  0  0
 22 21  1  0  0  0  0
 23 22  2  0  0  0  0
 24 49  1  0  0  0  0
 25 24  1  0  0  0  0
 26 25  2  0  0  0  0
 27 25  1  0  0  0  0
 28 27  1  0  0  0  0
 28 32  1  0  0  0  0
 29 30  1  0  0  0  0
 29 28  1  0  0  0  0
 30 54  1  0  0  0  0
 30 31  1  0  0  0  0
 31 32  1  0  0  0  0
 31 56  1  0  0  0  0
 32 58  1  0  0  0  0
 32 59  1  0  0  0  0
 33  4  1  0  0  0  0
 34 10  1  0  0  0  0
 35 11  1  0  0  0  0
 39 16  1  0  0  0  0
 42 17  1  0  0  0  0
 43 19  1  0  0  0  0
 50 27  1  0  0  0  0
 51 28  1  0  0  0  0
 52 29  1  0  0  0  0
 53 29  1  0  0  0  0
 55 30  1  0  0  0  0
 57 31  1  0  0  0  0
M  END
>  <Pose>
1

>  <Score>
-6.21

$$$$
