
 OpenBabel03212208413D

 56 59  0  0  1  0  0  0  0  0999 V2000
   19.4560   32.0680   70.7370 Cl  0  0  0  0  0  0  0  0  0  0  0  0
   20.0840   33.6480   70.3190 C   0  0  0  0  0  0  0  0  0  0  0  0
   19.3590   34.7540   70.7540 C   0  0  0  0  0  0  0  0  0  0  0  0
   19.8830   35.9810   70.4080 C   0  0  0  0  0  0  0  0  0  0  0  0
   21.0210   36.0630   69.6960 N   0  0  0  0  0  0  0  0  0  0  0  0
   21.7230   35.0260   69.2750 N   0  0  0  0  0  0  0  0  0  0  0  0
   21.2470   33.8070   69.5910 C   0  0  0  0  0  0  0  0  0  0  0  0
   21.9010   32.7990   69.2000 O   0  0  0  0  0  0  0  0  0  0  0  0
   22.9280   35.1900   68.5160 C   0  0  0  0  0  0  0  0  0  0  0  0
   23.8630   36.1240   68.8990 C   0  0  0  0  0  0  0  0  0  0  0  0
   25.0430   36.2930   68.1670 C   0  0  0  0  0  0  0  0  0  0  0  0
   25.3050   35.5360   67.0480 C   0  0  0  0  0  0  0  0  0  0  0  0
   24.3740   34.5980   66.6570 C   0  0  0  0  0  0  0  0  0  0  0  0
   23.2050   34.4400   67.3930 C   0  0  0  0  0  0  0  0  0  0  0  0
   18.1580   34.6190   71.4970 N   0  0  0  0  0  0  0  0  0  0  0  0
   18.1010   33.9350   72.7670 C   0  0  0  0  0  0  0  0  0  0  0  0
   16.9110   33.0290   72.8050 C   0  0  0  0  0  0  0  0  0  0  0  0
   16.3900   32.9470   71.4630 N   0  0  0  0  0  0  0  0  0  0  0  0
   15.8050   34.1930   71.1220 C   0  0  0  0  0  0  0  0  0  0  0  0
   16.9520   35.1950   70.9580 C   0  0  0  0  0  0  0  0  0  0  0  0
   15.7040   31.7630   71.1280 C   0  0  0  0  0  0  0  0  0  0  0  0
   14.3950   31.6070   71.7700 C   0  0  0  0  0  0  0  0  0  0  0  0
   13.3780   31.8120   71.0250 O   0  0  0  0  0  0  0  0  0  0  0  0
   14.1610   31.2530   73.1210 N   0  0  0  0  0  0  0  0  0  0  0  0
   13.0640   30.4310   73.5660 C   0  0  0  0  0  0  0  0  0  0  0  0
   13.3790   29.8640   74.9150 C   0  0  1  0  0  0  0  0  0  0  0  0
   12.2290   29.7790   75.6540 O   0  0  0  0  0  0  0  0  0  0  0  0
   12.0050   28.4950   76.0670 C   0  0  0  0  0  0  0  0  0  0  0  0
   13.3980   27.9060   76.1480 C   0  0  0  0  0  0  0  0  0  0  0  0
   13.9450   28.4540   74.8180 C   0  0  0  0  0  0  0  0  0  0  0  0
   19.3350   36.8630   70.7360 H   0  0  0  0  0  0  0  0  0  0  0  0
   23.6600   36.7290   69.7890 H   0  0  0  0  0  0  0  0  0  0  0  0
   25.7790   37.0220   68.4620 H   0  0  0  0  0  0  0  0  0  0  0  0
   26.2170   35.6380   66.4490 H   0  0  0  0  0  0  0  0  0  0  0  0
   24.5830   34.0030   65.7750 H   0  0  0  0  0  0  0  0  0  0  0  0
   22.4680   33.7050   67.0940 H   0  0  0  0  0  0  0  0  0  0  0  0
   18.1540   34.6260   73.6330 H   0  0  0  0  0  0  0  0  0  0  0  0
   19.0030   33.2650   72.8970 H   0  0  0  0  0  0  0  0  0  0  0  0
   16.1040   33.5380   73.4130 H   0  0  0  0  0  0  0  0  0  0  0  0
   17.1110   32.0220   73.1770 H   0  0  0  0  0  0  0  0  0  0  0  0
   15.1360   34.1730   70.2540 H   0  0  0  0  0  0  0  0  0  0  0  0
   15.2080   34.5450   71.9980 H   0  0  0  0  0  0  0  0  0  0  0  0
   16.7060   36.1790   71.4290 H   0  0  0  0  0  0  0  0  0  0  0  0
   17.0410   35.3460   69.8540 H   0  0  0  0  0  0  0  0  0  0  0  0
   16.3220   30.8400   71.3170 H   0  0  0  0  0  0  0  0  0  0  0  0
   15.5370   31.7820   70.0080 H   0  0  0  0  0  0  0  0  0  0  0  0
   14.8330   31.6040   73.8330 H   0  0  0  0  0  0  0  0  0  0  0  0
   12.8770   29.5860   72.8510 H   0  0  0  0  0  0  0  0  0  0  0  0
   12.1550   31.0490   73.6130 H   0  0  0  0  0  0  0  0  0  0  0  0
   14.1330   30.4630   75.4490 H   0  0  0  0  0  0  0  0  0  0  0  0
   11.4730   27.9470   75.2660 H   0  0  0  0  0  0  0  0  0  0  0  0
   11.4780   28.4590   77.0360 H   0  0  0  0  0  0  0  0  0  0  0  0
   13.4210   26.8210   76.1960 H   0  0  0  0  0  0  0  0  0  0  0  0
   13.9540   28.4230   76.9560 H   0  0  0  0  0  0  0  0  0  0  0  0
   13.4160   27.8710   74.0290 H   0  0  0  0  0  0  0  0  0  0  0  0
   15.0280   28.4060   74.7710 H   0  0  0  0  0  0  0  0  0  0  0  0
  2  1  1  0  0  0  0
  2  3  2  0  0  0  0
  3 15  1  0  0  0  0
  4 31  1  0  0  0  0
  4  3  1  0  0  0  0
  5  4  2  0  0  0  0
  6  7  1  0  0  0  0
  6  5  1  0  0  0  0
  7  2  1  0  0  0  0
  8  7  2  0  0  0  0
  9 10  1  0  0  0  0
  9  6  1  0  0  0  0
 10 32  1  0  0  0  0
 11 33  1  0  0  0  0
 11 10  2  0  0  0  0
 12 11  1  0  0  0  0
 13 12  2  0  0  0  0
 13 14  1  0  0  0  0
 14  9  2  0  0  0  0
 15 16  1  0  0  0  0
 16 17  1  0  0  0  0
 16 38  1  0  0  0  0
 16 37  1  0  0  0  0
 17 40  1  0  0  0  0
 17 39  1  0  0  0  0
 18 17  1  0  0  0  0
 19 18  1  0  0  0  0
 19 42  1  0  0  0  0
 20 19  1  0  0  0  0
 20 43  1  0  0  0  0
 20 15  1  0  0  0  0
 21 45  1  0  0  0  0
 21 18  1  0  0  0  0
 21 22  1  0  0  0  0
 22 24  1  0  0  0  0
 23 22  2  0  0  0  0
 24 25  1  0  0  0  0
 24 47  1  0  0  0  0
 25 49  1  0  0  0  0
 25 26  1  0  0  0  0
 26 50  1  1  0  0  0
 26 27  1  0  0  0  0
 27 28  1  0  0  0  0
 28 29  1  0  0  0  0
 28 52  1  0  0  0  0
 29 53  1  0  0  0  0
 29 54  1  0  0  0  0
 30 26  1  0  0  0  0
 30 29  1  0  0  0  0
 34 12  1  0  0  0  0
 35 13  1  0  0  0  0
 36 14  1  0  0  0  0
 41 19  1  0  0  0  0
 44 20  1  0  0  0  0
 46 21  1  0  0  0  0
 48 25  1  0  0  0  0
 51 28  1  0  0  0  0
 55 30  1  0  0  0  0
 56 30  1  0  0  0  0
M  END
>  <Pose>
1

>  <Score>
-5.59

$$$$
