
 OpenBabel03212208413D

 55 58  0  0  0  0  0  0  0  0999 V2000
   15.1530   30.2130   71.8980 S   0  0  0  0  0  0  0  0  0  0  0  0
   14.1310   30.0780   70.7850 O   0  0  0  0  0  0  0  0  0  0  0  0
   16.2790   29.2700   71.6620 O   0  0  0  0  0  0  0  0  0  0  0  0
   15.7830   31.8750   71.8230 N   0  0  0  0  0  0  0  0  0  0  0  0
   16.5760   32.0370   73.0050 C   0  0  0  0  0  0  0  0  0  0  0  0
   17.6510   33.1330   72.8950 C   0  0  0  0  0  0  0  0  0  0  0  0
   18.4440   32.8110   71.7490 N   0  0  0  0  0  0  0  0  0  0  0  0
   17.6240   32.9860   70.5830 C   0  0  0  0  0  0  0  0  0  0  0  0
   16.6790   31.8160   70.6150 C   0  0  0  0  0  0  0  0  0  0  0  0
   19.8020   33.0760   71.7650 C   0  0  0  0  0  0  0  0  0  0  0  0
   20.6710   32.2170   70.9590 C   0  0  0  0  0  0  0  0  0  0  0  0
   20.8520   31.0370   71.4970 O   0  0  0  0  0  0  0  0  0  0  0  0
   21.3070   32.4150   69.7670 N   0  0  0  0  0  0  0  0  0  0  0  0
   22.4860   33.2620   69.5760 C   0  0  0  0  0  0  0  0  0  0  0  0
   22.1430   34.3640   68.6560 C   0  0  0  0  0  0  0  0  0  0  0  0
   22.9240   34.6220   67.5060 C   0  0  0  0  0  0  0  0  0  0  0  0
   22.7320   35.6920   66.7190 C   0  0  0  0  0  0  0  0  0  0  0  0
   21.7010   36.6360   67.0200 C   0  0  0  0  0  0  0  0  0  0  0  0
   20.9590   36.4120   68.1090 C   0  0  0  0  0  0  0  0  0  0  0  0
   21.1410   35.3070   68.9490 C   0  0  0  0  0  0  0  0  0  0  0  0
   24.2010   33.4520   67.0870 Cl  0  0  0  0  0  0  0  0  0  0  0  0
   14.3870   29.8790   73.4000 C   0  0  0  0  0  0  0  0  0  0  0  0
   13.1470   30.5070   73.5880 C   0  0  0  0  0  0  0  0  0  0  0  0
   12.3320   30.2830   74.7010 C   0  0  0  0  0  0  0  0  0  0  0  0
   12.7780   29.3890   75.6700 C   0  0  0  0  0  0  0  0  0  0  0  0
   14.0060   28.7830   75.4740 C   0  0  0  0  0  0  0  0  0  0  0  0
   14.8060   29.0110   74.3610 C   0  0  0  0  0  0  0  0  0  0  0  0
   11.9210   29.2110   76.7400 O   0  0  0  0  0  0  0  0  0  0  0  0
   10.4960   29.1730   76.4530 C   0  0  0  0  0  0  0  0  0  0  0  0
   10.0710   30.2120   75.4690 C   0  0  0  0  0  0  0  0  0  0  0  0
   11.1160   30.9250   74.8540 O   0  0  0  0  0  0  0  0  0  0  0  0
   15.8550   32.4400   73.7980 H   0  0  0  0  0  0  0  0  0  0  0  0
   17.0180   31.1460   73.4720 H   0  0  0  0  0  0  0  0  0  0  0  0
   17.1540   34.0940   72.7580 H   0  0  0  0  0  0  0  0  0  0  0  0
   18.2930   33.1710   73.7640 H   0  0  0  0  0  0  0  0  0  0  0  0
   17.0400   33.8990   70.6400 H   0  0  0  0  0  0  0  0  0  0  0  0
   18.2410   32.8530   69.6550 H   0  0  0  0  0  0  0  0  0  0  0  0
   17.3000   30.8780   70.8010 H   0  0  0  0  0  0  0  0  0  0  0  0
   16.0410   31.8090   69.7550 H   0  0  0  0  0  0  0  0  0  0  0  0
   20.0990   32.9200   72.8910 H   0  0  0  0  0  0  0  0  0  0  0  0
   20.0840   34.1570   71.6470 H   0  0  0  0  0  0  0  0  0  0  0  0
   21.0300   31.9390   68.8450 H   0  0  0  0  0  0  0  0  0  0  0  0
   22.5910   33.7590   70.6090 H   0  0  0  0  0  0  0  0  0  0  0  0
   23.3360   32.6760   69.3050 H   0  0  0  0  0  0  0  0  0  0  0  0
   23.3350   35.8500   65.8660 H   0  0  0  0  0  0  0  0  0  0  0  0
   21.5650   37.4750   66.3820 H   0  0  0  0  0  0  0  0  0  0  0  0
   20.1640   37.1080   68.3950 H   0  0  0  0  0  0  0  0  0  0  0  0
   20.5350   35.2050   69.8170 H   0  0  0  0  0  0  0  0  0  0  0  0
   12.8240   31.2280   72.8120 H   0  0  0  0  0  0  0  0  0  0  0  0
   14.3140   28.1280   76.2440 H   0  0  0  0  0  0  0  0  0  0  0  0
   15.7400   28.5000   74.2550 H   0  0  0  0  0  0  0  0  0  0  0  0
   10.3140   28.1120   76.0770 H   0  0  0  0  0  0  0  0  0  0  0  0
    9.9490   29.3080   77.3860 H   0  0  0  0  0  0  0  0  0  0  0  0
    9.4080   30.9410   75.9470 H   0  0  0  0  0  0  0  0  0  0  0  0
    9.4820   29.6660   74.6790 H   0  0  0  0  0  0  0  0  0  0  0  0
  1 22  1  0  0  0  0
  2  1  2  0  0  0  0
  3  1  2  0  0  0  0
  4  1  1  0  0  0  0
  4  5  1  0  0  0  0
  5 33  1  0  0  0  0
  5 32  1  0  0  0  0
  6  5  1  0  0  0  0
  6 35  1  0  0  0  0
  7 10  1  0  0  0  0
  7  6  1  0  0  0  0
  8  9  1  0  0  0  0
  8 36  1  0  0  0  0
  8  7  1  0  0  0  0
  9 38  1  0  0  0  0
  9  4  1  0  0  0  0
 10 40  1  0  0  0  0
 11 12  2  0  0  0  0
 11 10  1  0  0  0  0
 13 11  1  0  0  0  0
 14 13  1  0  0  0  0
 14 43  1  0  0  0  0
 15 20  1  0  0  0  0
 15 14  1  0  0  0  0
 16 15  2  0  0  0  0
 17 18  2  0  0  0  0
 17 16  1  0  0  0  0
 18 19  1  0  0  0  0
 19 47  1  0  0  0  0
 19 20  2  0  0  0  0
 20 48  1  0  0  0  0
 21 16  1  0  0  0  0
 22 23  2  0  0  0  0
 22 27  1  0  0  0  0
 23 24  1  0  0  0  0
 24 31  1  0  0  0  0
 24 25  2  0  0  0  0
 25 28  1  0  0  0  0
 26 25  1  0  0  0  0
 26 50  1  0  0  0  0
 27 26  2  0  0  0  0
 29 28  1  0  0  0  0
 29 53  1  0  0  0  0
 30 54  1  0  0  0  0
 30 29  1  0  0  0  0
 31 30  1  0  0  0  0
 34  6  1  0  0  0  0
 37  8  1  0  0  0  0
 39  9  1  0  0  0  0
 41 10  1  0  0  0  0
 42 13  1  0  0  0  0
 44 14  1  0  0  0  0
 45 17  1  0  0  0  0
 46 18  1  0  0  0  0
 49 23  1  0  0  0  0
 51 27  1  0  0  0  0
 52 29  1  0  0  0  0
 55 30  1  0  0  0  0
M  END
>  <Pose>
1

>  <Score>
-7.16

$$$$
