
 OpenBabel03212208413D

 56 59  0  0  0  0  0  0  0  0999 V2000
   17.9660   32.5860   71.0980 S   0  0  0  0  0  0  0  0  0  0  0  0
   18.2670   31.4540   70.1630 O   0  0  0  0  0  0  0  0  0  0  0  0
   18.7860   33.7690   70.6770 O   0  0  0  0  0  0  0  0  0  0  0  0
   18.3350   32.1080   72.6990 N   0  0  0  0  0  0  0  0  0  0  0  0
   17.2080   31.8760   73.5280 C   0  0  0  0  0  0  0  0  0  0  0  0
   16.6620   30.4750   73.4500 C   0  0  0  0  0  0  0  0  0  0  0  0
   17.7130   29.4830   73.3600 N   0  0  0  0  0  0  0  0  0  0  0  0
   19.0600   29.9530   73.6230 C   0  0  0  0  0  0  0  0  0  0  0  0
   19.3960   31.1700   72.7980 C   0  0  0  0  0  0  0  0  0  0  0  0
   17.3930   28.1590   73.0350 C   0  0  0  0  0  0  0  0  0  0  0  0
   16.7830   27.9240   71.9650 O   0  0  0  0  0  0  0  0  0  0  0  0
   17.7500   27.0150   73.9130 C   0  0  0  0  0  0  0  0  0  0  0  0
   19.1670   26.7790   73.9460 N   0  0  0  0  0  0  0  0  0  0  0  0
   20.0060   27.0820   75.0510 C   0  0  0  0  0  0  0  0  0  0  0  0
   19.6050   27.6000   76.1470 O   0  0  0  0  0  0  0  0  0  0  0  0
   21.3610   26.7380   74.7900 N   0  0  0  0  0  0  0  0  0  0  0  0
   21.4430   26.4030   73.3800 C   0  0  0  0  0  0  0  0  0  0  0  0
   22.1610   25.1060   73.1440 C   0  0  0  0  0  0  0  0  0  0  0  0
   23.6540   25.2430   73.0780 C   0  0  0  0  0  0  0  0  0  0  0  0
   24.1210   26.3240   72.1480 C   0  0  0  0  0  0  0  0  0  0  0  0
   22.9730   27.1070   71.5490 C   0  0  0  0  0  0  0  0  0  0  0  0
   22.0910   27.5760   72.6840 C   0  0  0  0  0  0  0  0  0  0  0  0
   20.0300   26.2260   72.9620 C   0  0  0  0  0  0  0  0  0  0  0  0
   19.6200   25.6790   71.9100 O   0  0  0  0  0  0  0  0  0  0  0  0
   22.4430   26.7300   75.7730 C   0  0  0  0  0  0  0  0  0  0  0  0
   16.2680   33.0660   70.9370 C   0  0  0  0  0  0  0  0  0  0  0  0
   15.6300   34.5340   70.3670 S   0  0  0  0  0  0  0  0  0  0  0  0
   13.9710   34.1960   70.5290 C   0  0  0  0  0  0  0  0  0  0  0  0
   13.9550   32.9230   71.0340 C   0  0  0  0  0  0  0  0  0  0  0  0
   15.1540   32.3340   71.2460 C   0  0  0  0  0  0  0  0  0  0  0  0
   12.5700   35.2200   70.1490 Cl  0  0  0  0  0  0  0  0  0  0  0  0
   16.3850   32.5560   73.1910 H   0  0  0  0  0  0  0  0  0  0  0  0
   17.4540   32.1130   74.5810 H   0  0  0  0  0  0  0  0  0  0  0  0
   15.9180   30.3540   72.6360 H   0  0  0  0  0  0  0  0  0  0  0  0
   16.1290   30.2850   74.4170 H   0  0  0  0  0  0  0  0  0  0  0  0
   19.7980   29.1600   73.3630 H   0  0  0  0  0  0  0  0  0  0  0  0
   19.2020   30.1910   74.6870 H   0  0  0  0  0  0  0  0  0  0  0  0
   19.8340   30.8840   71.8010 H   0  0  0  0  0  0  0  0  0  0  0  0
   20.2510   31.6770   73.3340 H   0  0  0  0  0  0  0  0  0  0  0  0
   17.2580   26.0950   73.5760 H   0  0  0  0  0  0  0  0  0  0  0  0
   17.3330   27.2500   74.9160 H   0  0  0  0  0  0  0  0  0  0  0  0
   21.9240   24.3820   73.9460 H   0  0  0  0  0  0  0  0  0  0  0  0
   21.7960   24.6900   72.1740 H   0  0  0  0  0  0  0  0  0  0  0  0
   24.0500   24.2590   72.7150 H   0  0  0  0  0  0  0  0  0  0  0  0
   24.0590   25.3800   74.0990 H   0  0  0  0  0  0  0  0  0  0  0  0
   24.8160   26.9840   72.7080 H   0  0  0  0  0  0  0  0  0  0  0  0
   24.6930   25.8880   71.2810 H   0  0  0  0  0  0  0  0  0  0  0  0
   23.3810   27.9760   71.0150 H   0  0  0  0  0  0  0  0  0  0  0  0
   22.3920   26.4420   70.9020 H   0  0  0  0  0  0  0  0  0  0  0  0
   21.3520   28.2940   72.2780 H   0  0  0  0  0  0  0  0  0  0  0  0
   22.7240   28.1380   73.4030 H   0  0  0  0  0  0  0  0  0  0  0  0
   23.3360   27.2660   75.3940 H   0  0  0  0  0  0  0  0  0  0  0  0
   22.0890   27.2090   76.6910 H   0  0  0  0  0  0  0  0  0  0  0  0
   22.6410   25.6650   76.0150 H   0  0  0  0  0  0  0  0  0  0  0  0
   12.9830   32.4100   71.2540 H   0  0  0  0  0  0  0  0  0  0  0  0
   15.2140   31.2900   71.6580 H   0  0  0  0  0  0  0  0  0  0  0  0
  1  4  1  0  0  0  0
  2  1  2  0  0  0  0
  3  1  2  0  0  0  0
  4  9  1  0  0  0  0
  4  5  1  0  0  0  0
  5 33  1  0  0  0  0
  6  5  1  0  0  0  0
  6 35  1  0  0  0  0
  7  6  1  0  0  0  0
  7  8  1  0  0  0  0
  8 37  1  0  0  0  0
  9 39  1  0  0  0  0
  9  8  1  0  0  0  0
 10  7  1  0  0  0  0
 10 12  1  0  0  0  0
 11 10  2  0  0  0  0
 12 13  1  0  0  0  0
 12 41  1  0  0  0  0
 13 14  1  0  0  0  0
 14 15  2  0  0  0  0
 16 14  1  0  0  0  0
 16 25  1  0  0  0  0
 17 16  1  0  0  0  0
 18 17  1  0  0  0  0
 18 42  1  0  0  0  0
 19 18  1  0  0  0  0
 19 45  1  0  0  0  0
 20 46  1  0  0  0  0
 20 19  1  0  0  0  0
 21 20  1  0  0  0  0
 21 22  1  0  0  0  0
 22 17  1  0  0  0  0
 22 51  1  0  0  0  0
 23 17  1  0  0  0  0
 23 13  1  0  0  0  0
 24 23  2  0  0  0  0
 25 54  1  0  0  0  0
 25 53  1  0  0  0  0
 26  1  1  0  0  0  0
 26 30  2  0  0  0  0
 27 28  1  0  0  0  0
 27 26  1  0  0  0  0
 28 29  2  0  0  0  0
 29 30  1  0  0  0  0
 29 55  1  0  0  0  0
 30 56  1  0  0  0  0
 31 28  1  0  0  0  0
 32  5  1  0  0  0  0
 34  6  1  0  0  0  0
 36  8  1  0  0  0  0
 38  9  1  0  0  0  0
 40 12  1  0  0  0  0
 43 18  1  0  0  0  0
 44 19  1  0  0  0  0
 47 20  1  0  0  0  0
 48 21  1  0  0  0  0
 49 21  1  0  0  0  0
 50 22  1  0  0  0  0
 52 25  1  0  0  0  0
M  END
>  <Pose>
1

>  <Score>
-6.17

$$$$
