
 OpenBabel03212208413D

 38 41  0  0  0  0  0  0  0  0999 V2000
   24.8280   33.3270   67.3270 Cl  0  0  0  0  0  0  0  0  0  0  0  0
   23.6230   33.2800   68.5970 C   0  0  0  0  0  0  0  0  0  0  0  0
   23.8880   32.7390   69.8480 C   0  0  0  0  0  0  0  0  0  0  0  0
   22.9700   32.6770   70.8600 C   0  0  0  0  0  0  0  0  0  0  0  0
   21.7130   33.1680   70.6580 C   0  0  0  0  0  0  0  0  0  0  0  0
   21.4160   33.7200   69.4130 C   0  0  0  0  0  0  0  0  0  0  0  0
   22.3560   33.7720   68.4030 C   0  0  0  0  0  0  0  0  0  0  0  0
   20.6220   33.1730   71.6470 C   0  0  0  0  0  0  0  0  0  0  0  0
   19.6480   32.0890   71.3230 C   0  0  0  0  0  0  0  0  0  0  0  0
   18.7250   32.5200   70.1700 C   0  0  0  0  0  0  0  0  0  0  0  0
   17.9770   33.6410   70.7580 N   0  0  0  0  0  0  0  0  0  0  0  0
   18.7690   34.7920   71.0550 C   0  0  0  0  0  0  0  0  0  0  0  0
   19.9840   34.4900   71.8840 C   0  0  0  0  0  0  0  0  0  0  0  0
   16.5860   33.4930   70.9750 C   0  0  0  0  0  0  0  0  0  0  0  0
   15.7250   34.3070   70.3400 N   0  0  0  0  0  0  0  0  0  0  0  0
   14.4120   34.2610   70.4500 N   0  0  0  0  0  0  0  0  0  0  0  0
   13.3950   34.9490   69.9240 N   0  0  0  0  0  0  0  0  0  0  0  0
   12.2470   34.4900   70.3710 N   0  0  0  0  0  0  0  0  0  0  0  0
   12.5100   33.5050   71.1840 N   0  0  0  0  0  0  0  0  0  0  0  0
   13.8550   33.3500   71.2450 C   0  0  0  0  0  0  0  0  0  0  0  0
   14.6780   32.4740   71.9320 C   0  0  0  0  0  0  0  0  0  0  0  0
   16.0500   32.5370   71.8060 C   0  0  0  0  0  0  0  0  0  0  0  0
   21.2390   32.7810   72.8630 O   0  0  0  0  0  0  0  0  0  0  0  0
   24.8700   32.3390   70.0320 H   0  0  0  0  0  0  0  0  0  0  0  0
   23.1810   32.2600   71.8370 H   0  0  0  0  0  0  0  0  0  0  0  0
   20.4520   34.1280   69.1670 H   0  0  0  0  0  0  0  0  0  0  0  0
   22.1040   34.2080   67.4160 H   0  0  0  0  0  0  0  0  0  0  0  0
   20.1590   31.1620   70.9900 H   0  0  0  0  0  0  0  0  0  0  0  0
   18.9890   31.8200   72.1650 H   0  0  0  0  0  0  0  0  0  0  0  0
   18.0580   31.6940   69.8880 H   0  0  0  0  0  0  0  0  0  0  0  0
   19.2850   32.9340   69.3200 H   0  0  0  0  0  0  0  0  0  0  0  0
   19.1400   35.1930   70.0630 H   0  0  0  0  0  0  0  0  0  0  0  0
   18.1900   35.6060   71.5310 H   0  0  0  0  0  0  0  0  0  0  0  0
   19.6160   34.4970   72.9570 H   0  0  0  0  0  0  0  0  0  0  0  0
   20.6900   35.3300   71.8350 H   0  0  0  0  0  0  0  0  0  0  0  0
   14.1920   31.7510   72.5650 H   0  0  0  0  0  0  0  0  0  0  0  0
   16.6900   31.8580   72.3400 H   0  0  0  0  0  0  0  0  0  0  0  0
   22.0700   33.3420   72.9570 H   0  0  0  0  0  0  0  0  0  0  0  0
  1  2  1  0  0  0  0
  2  3  1  0  0  0  0
  3 24  1  0  0  0  0
  3  4  2  0  0  0  0
  4 25  1  0  0  0  0
  5  4  1  0  0  0  0
  5  8  1  0  0  0  0
  6  5  2  0  0  0  0
  7  2  2  0  0  0  0
  7  6  1  0  0  0  0
  8 13  1  0  0  0  0
  8 23  1  0  0  0  0
  9  8  1  0  0  0  0
  9 29  1  0  0  0  0
 10 11  1  0  0  0  0
 10  9  1  0  0  0  0
 11 14  1  0  0  0  0
 11 12  1  0  0  0  0
 12 33  1  0  0  0  0
 12 13  1  0  0  0  0
 13 34  1  0  0  0  0
 14 22  1  0  0  0  0
 15 16  1  0  0  0  0
 15 14  2  0  0  0  0
 16 20  1  0  0  0  0
 17 18  2  0  0  0  0
 17 16  1  0  0  0  0
 18 19  1  0  0  0  0
 19 20  2  0  0  0  0
 20 21  1  0  0  0  0
 21 36  1  0  0  0  0
 22 21  2  0  0  0  0
 22 37  1  0  0  0  0
 23 38  1  0  0  0  0
 26  6  1  0  0  0  0
 27  7  1  0  0  0  0
 28  9  1  0  0  0  0
 30 10  1  0  0  0  0
 31 10  1  0  0  0  0
 32 12  1  0  0  0  0
 35 13  1  0  0  0  0
M  END
>  <Pose>
1

>  <Score>
-5.64

$$$$
