
 OpenBabel03212208413D

 50 53  0  0  1  0  0  0  0  0999 V2000
   17.7710   32.2760   72.1650 S   0  0  0  0  0  0  0  0  0  0  0  0
   17.8690   30.9210   71.5390 O   0  0  0  0  0  0  0  0  0  0  0  0
   17.4340   32.0580   73.6200 O   0  0  0  0  0  0  0  0  0  0  0  0
   19.2530   33.0960   72.0770 N   0  0  0  0  0  0  0  0  0  0  0  0
   19.1940   34.4250   71.5990 C   0  0  0  0  0  0  0  0  0  0  0  0
   20.4680   34.9360   70.9790 C   0  0  0  0  0  0  0  0  0  0  0  0
   21.1070   33.9720   70.1280 N   0  0  0  0  0  0  0  0  0  0  0  0
   20.6210   32.6170   70.1950 C   0  0  0  0  0  0  0  0  0  0  0  0
   20.3670   32.3140   71.6690 C   0  0  0  0  0  0  0  0  0  0  0  0
   22.1590   34.3650   69.2830 C   0  0  0  0  0  0  0  0  0  0  0  0
   23.1840   34.8620   69.8300 O   0  0  0  0  0  0  0  0  0  0  0  0
   22.1370   34.2320   67.8010 C   0  0  2  0  0  0  0  0  0  0  0  0
   23.4020   34.5130   67.2280 N   0  0  0  0  0  0  0  0  0  0  0  0
   23.6520   35.8700   66.8670 C   0  0  2  0  0  0  0  0  0  0  0  0
   22.0090   36.4730   66.4250 S   0  0  0  0  0  0  0  0  0  0  0  0
   21.0740   35.0770   67.1650 C   0  0  0  0  0  0  0  0  0  0  0  0
   24.4390   35.7340   65.5780 C   0  0  0  0  0  0  0  0  0  0  0  0
   25.4420   34.6620   66.0240 C   0  0  0  0  0  0  0  0  0  0  0  0
   24.6140   33.8070   66.8700 C   0  0  0  0  0  0  0  0  0  0  0  0
   24.9420   32.6330   67.2160 O   0  0  0  0  0  0  0  0  0  0  0  0
   24.3490   36.6990   67.8700 C   0  0  0  0  0  0  0  0  0  0  0  0
   16.4350   33.1930   71.4740 C   0  0  0  0  0  0  0  0  0  0  0  0
   15.1530   32.6910   71.5060 C   0  0  0  0  0  0  0  0  0  0  0  0
   14.0880   33.3800   70.9740 C   0  0  0  0  0  0  0  0  0  0  0  0
   14.2580   34.6180   70.3790 C   0  0  0  0  0  0  0  0  0  0  0  0
   15.5580   35.0950   70.3630 C   0  0  0  0  0  0  0  0  0  0  0  0
   16.6300   34.4180   70.8900 C   0  0  0  0  0  0  0  0  0  0  0  0
   12.9250   35.5220   69.6920 Cl  0  0  0  0  0  0  0  0  0  0  0  0
   18.8290   35.1060   72.3950 H   0  0  0  0  0  0  0  0  0  0  0  0
   18.4150   34.4640   70.7880 H   0  0  0  0  0  0  0  0  0  0  0  0
   21.1170   35.2930   71.8090 H   0  0  0  0  0  0  0  0  0  0  0  0
   20.2280   35.8710   70.3930 H   0  0  0  0  0  0  0  0  0  0  0  0
   21.3210   31.8830   69.7550 H   0  0  0  0  0  0  0  0  0  0  0  0
   19.6410   32.5970   69.6640 H   0  0  0  0  0  0  0  0  0  0  0  0
   21.2680   32.4770   72.2640 H   0  0  0  0  0  0  0  0  0  0  0  0
   20.0950   31.2340   71.7890 H   0  0  0  0  0  0  0  0  0  0  0  0
   21.8370   33.1820   67.5940 H   0  0  0  0  0  0  0  0  0  0  0  0
   20.5350   34.5840   66.3400 H   0  0  0  0  0  0  0  0  0  0  0  0
   20.3130   35.4610   67.8750 H   0  0  0  0  0  0  0  0  0  0  0  0
   23.7310   35.3270   64.8210 H   0  0  0  0  0  0  0  0  0  0  0  0
   24.9320   36.6570   65.2770 H   0  0  0  0  0  0  0  0  0  0  0  0
   25.8030   34.1300   65.1080 H   0  0  0  0  0  0  0  0  0  0  0  0
   26.2380   35.1570   66.5870 H   0  0  0  0  0  0  0  0  0  0  0  0
   24.9090   37.5130   67.3200 H   0  0  0  0  0  0  0  0  0  0  0  0
   23.6500   37.2670   68.5410 H   0  0  0  0  0  0  0  0  0  0  0  0
   25.1270   36.1560   68.4380 H   0  0  0  0  0  0  0  0  0  0  0  0
   15.0000   31.7120   71.9740 H   0  0  0  0  0  0  0  0  0  0  0  0
   13.0770   32.9710   71.0070 H   0  0  0  0  0  0  0  0  0  0  0  0
   15.6650   36.0750   69.8860 H   0  0  0  0  0  0  0  0  0  0  0  0
   17.6060   34.8540   70.8390 H   0  0  0  0  0  0  0  0  0  0  0  0
  1  3  2  0  0  0  0
  2  1  2  0  0  0  0
  4  1  1  0  0  0  0
  5  4  1  0  0  0  0
  5 29  1  0  0  0  0
  6  5  1  0  0  0  0
  6 31  1  0  0  0  0
  7  8  1  0  0  0  0
  7  6  1  0  0  0  0
  8  9  1  0  0  0  0
  9 36  1  0  0  0  0
  9  4  1  0  0  0  0
  9 35  1  0  0  0  0
 10 11  2  0  0  0  0
 10  7  1  0  0  0  0
 12 37  1  6  0  0  0
 12 10  1  0  0  0  0
 13 12  1  0  0  0  0
 14 13  1  0  0  0  0
 14 21  1  1  0  0  0
 15 14  1  0  0  0  0
 15 16  1  0  0  0  0
 16 12  1  0  0  0  0
 16 39  1  0  0  0  0
 17 18  1  0  0  0  0
 17 14  1  0  0  0  0
 18 43  1  0  0  0  0
 18 19  1  0  0  0  0
 19 20  2  0  0  0  0
 19 13  1  0  0  0  0
 21 46  1  0  0  0  0
 21 45  1  0  0  0  0
 22 23  1  0  0  0  0
 22  1  1  0  0  0  0
 23 47  1  0  0  0  0
 24 48  1  0  0  0  0
 24 23  2  0  0  0  0
 25 24  1  0  0  0  0
 26 25  2  0  0  0  0
 26 27  1  0  0  0  0
 27 22  2  0  0  0  0
 28 25  1  0  0  0  0
 30  5  1  0  0  0  0
 32  6  1  0  0  0  0
 33  8  1  0  0  0  0
 34  8  1  0  0  0  0
 38 16  1  0  0  0  0
 40 17  1  0  0  0  0
 41 17  1  0  0  0  0
 42 18  1  0  0  0  0
 44 21  1  0  0  0  0
 49 26  1  0  0  0  0
 50 27  1  0  0  0  0
M  END
>  <Pose>
1

>  <Score>
-6.27

$$$$
