
 OpenBabel03212208413D

 39 42  0  0  0  0  0  0  0  0999 V2000
   16.8050   30.7390   72.9530 Cl  0  0  0  0  0  0  0  0  0  0  0  0
   15.8900   32.0240   72.1790 C   0  0  0  0  0  0  0  0  0  0  0  0
   14.5580   31.7870   71.9100 C   0  0  0  0  0  0  0  0  0  0  0  0
   13.8590   32.8090   71.3040 C   0  0  0  0  0  0  0  0  0  0  0  0
   14.4020   34.0190   70.9600 C   0  0  0  0  0  0  0  0  0  0  0  0
   15.7560   34.2110   71.2530 C   0  0  0  0  0  0  0  0  0  0  0  0
   16.5030   33.2330   71.8550 C   0  0  0  0  0  0  0  0  0  0  0  0
   13.6440   35.0850   70.3200 C   0  0  0  0  0  0  0  0  0  0  0  0
   12.3210   35.2420   70.2150 N   0  0  0  0  0  0  0  0  0  0  0  0
   12.0690   36.3760   69.5410 N   0  0  0  0  0  0  0  0  0  0  0  0
   13.2240   36.9310   69.2200 N   0  0  0  0  0  0  0  0  0  0  0  0
   14.1890   36.1420   69.6980 N   0  0  0  0  0  0  0  0  0  0  0  0
   13.9080   30.5090   72.2530 C   0  0  0  0  0  0  0  0  0  0  0  0
   14.3260   29.4810   71.6720 O   0  0  0  0  0  0  0  0  0  0  0  0
   12.8700   30.3970   73.1800 N   0  0  0  0  0  0  0  0  0  0  0  0
   12.8230   29.8030   74.4520 C   0  0  0  0  0  0  0  0  0  0  0  0
   12.0620   30.4160   75.5490 C   0  0  0  0  0  0  0  0  0  0  0  0
   10.6230   30.1860   75.6460 C   0  0  0  0  0  0  0  0  0  0  0  0
    9.8410   30.3330   76.7210 N   0  0  0  0  0  0  0  0  0  0  0  0
    8.5940   30.0630   76.3690 C   0  0  0  0  0  0  0  0  0  0  0  0
    8.5980   29.7460   75.0680 N   0  0  0  0  0  0  0  0  0  0  0  0
    9.8270   29.8210   74.6340 N   0  0  0  0  0  0  0  0  0  0  0  0
    7.5430   30.1260   77.2590 C   0  0  0  0  0  0  0  0  0  0  0  0
    7.8350   30.4870   78.5620 C   0  0  0  0  0  0  0  0  0  0  0  0
    9.1270   30.7640   78.9160 C   0  0  0  0  0  0  0  0  0  0  0  0
   10.1250   30.6860   77.9900 C   0  0  0  0  0  0  0  0  0  0  0  0
   12.8150   32.6260   71.0930 H   0  0  0  0  0  0  0  0  0  0  0  0
   16.1740   35.1790   70.9730 H   0  0  0  0  0  0  0  0  0  0  0  0
   17.5490   33.4020   72.0730 H   0  0  0  0  0  0  0  0  0  0  0  0
   11.1300   36.7690   69.3000 H   0  0  0  0  0  0  0  0  0  0  0  0
   11.9460   30.8510   72.8450 H   0  0  0  0  0  0  0  0  0  0  0  0
   12.4470   28.7240   74.3390 H   0  0  0  0  0  0  0  0  0  0  0  0
   13.8760   29.6030   74.8350 H   0  0  0  0  0  0  0  0  0  0  0  0
   12.2900   31.5340   75.5930 H   0  0  0  0  0  0  0  0  0  0  0  0
   12.5020   30.0800   76.5460 H   0  0  0  0  0  0  0  0  0  0  0  0
    6.5510   29.9020   76.9390 H   0  0  0  0  0  0  0  0  0  0  0  0
    7.0620   30.5530   79.2960 H   0  0  0  0  0  0  0  0  0  0  0  0
    9.3860   31.0480   79.9220 H   0  0  0  0  0  0  0  0  0  0  0  0
   11.1620   30.8980   78.2380 H   0  0  0  0  0  0  0  0  0  0  0  0
  2  1  1  0  0  0  0
  3  2  1  0  0  0  0
  3 13  1  0  0  0  0
  4  3  2  0  0  0  0
  5  6  2  0  0  0  0
  5  4  1  0  0  0  0
  6  7  1  0  0  0  0
  7 29  1  0  0  0  0
  7  2  2  0  0  0  0
  8  5  1  0  0  0  0
  9  8  2  0  0  0  0
 10  9  1  0  0  0  0
 11 10  1  0  0  0  0
 11 12  2  0  0  0  0
 12  8  1  0  0  0  0
 13 15  1  0  0  0  0
 14 13  2  0  0  0  0
 15 16  1  0  0  0  0
 16 33  1  0  0  0  0
 16 17  1  0  0  0  0
 17 34  1  0  0  0  0
 17 18  1  0  0  0  0
 17 35  1  0  0  0  0
 18 19  1  0  0  0  0
 19 26  1  0  0  0  0
 20 19  1  0  0  0  0
 20 23  1  0  0  0  0
 21 20  2  0  0  0  0
 22 21  1  0  0  0  0
 22 18  2  0  0  0  0
 23 24  2  0  0  0  0
 24 25  1  0  0  0  0
 24 37  1  0  0  0  0
 25 38  1  0  0  0  0
 26 39  1  0  0  0  0
 26 25  2  0  0  0  0
 27  4  1  0  0  0  0
 28  6  1  0  0  0  0
 30 10  1  0  0  0  0
 31 15  1  0  0  0  0
 32 16  1  0  0  0  0
 36 23  1  0  0  0  0
M  END
>  <Pose>
1

>  <Score>
-7.63

$$$$
