
 OpenBabel03212208413D

 53 55  0  0  1  0  0  0  0  0999 V2000
   20.0950   36.4160   70.4810 S   0  0  0  0  0  0  0  0  0  0  0  0
   19.2950   37.3840   69.6060 O   0  0  0  0  0  0  0  0  0  0  0  0
   20.7600   37.3230   71.5230 O   0  0  0  0  0  0  0  0  0  0  0  0
   18.9660   35.3990   71.2310 N   0  0  0  0  0  0  0  0  0  0  0  0
   18.3160   34.4460   70.4040 C   0  0  0  0  0  0  0  0  0  0  0  0
   17.3520   33.5600   71.1570 C   0  0  1  0  0  0  0  0  0  0  0  0
   18.0440   32.8820   72.2900 C   0  0  0  0  0  0  0  0  0  0  0  0
   18.8270   33.8670   73.1410 C   0  0  0  0  0  0  0  0  0  0  0  0
   19.7280   34.6570   72.2570 C   0  0  0  0  0  0  0  0  0  0  0  0
   16.0750   34.2150   71.5060 C   0  0  0  0  0  0  0  0  0  0  0  0
   15.7780   34.1950   72.7580 O   0  0  0  0  0  0  0  0  0  0  0  0
   15.1810   34.8390   70.6480 N   0  0  0  0  0  0  0  0  0  0  0  0
   13.9440   34.2300   70.2740 C   0  0  0  0  0  0  0  0  0  0  0  0
   12.8110   35.2060   70.1190 C   0  0  0  0  0  0  0  0  0  0  0  0
   13.1740   36.4870   69.8440 O   0  0  0  0  0  0  0  0  0  0  0  0
   14.2630   36.9860   70.5280 C   0  0  0  0  0  0  0  0  0  0  0  0
   15.4570   36.1320   70.0700 C   0  0  0  0  0  0  0  0  0  0  0  0
   21.3330   35.6790   69.5550 C   0  0  0  0  0  0  0  0  0  0  0  0
   21.2620   34.3770   69.1240 C   0  0  0  0  0  0  0  0  0  0  0  0
   22.2670   33.8570   68.3210 C   0  0  0  0  0  0  0  0  0  0  0  0
   23.3650   34.6320   67.9380 C   0  0  0  0  0  0  0  0  0  0  0  0
   23.4500   35.9370   68.3660 C   0  0  0  0  0  0  0  0  0  0  0  0
   22.4440   36.4340   69.1600 C   0  0  0  0  0  0  0  0  0  0  0  0
   24.5850   36.7660   67.9820 C   0  0  0  0  0  0  0  0  0  0  0  0
   25.6140   37.1160   68.7720 N   0  0  0  0  0  0  0  0  0  0  0  0
   26.4520   37.8620   68.1060 O   0  0  0  0  0  0  0  0  0  0  0  0
   26.0050   38.0200   66.8880 C   0  0  0  0  0  0  0  0  0  0  0  0
   24.8450   37.3430   66.7970 N   0  0  0  0  0  0  0  0  0  0  0  0
   26.6550   38.8080   65.7840 C   0  0  0  0  0  0  0  0  0  0  0  0
   19.9890   33.2730   69.5970 Cl  0  0  0  0  0  0  0  0  0  0  0  0
   17.7540   34.9360   69.5620 H   0  0  0  0  0  0  0  0  0  0  0  0
   19.0710   33.7910   69.9370 H   0  0  0  0  0  0  0  0  0  0  0  0
   17.0930   32.7380   70.4210 H   0  0  0  0  0  0  0  0  0  0  0  0
   18.7950   32.1810   71.8610 H   0  0  0  0  0  0  0  0  0  0  0  0
   17.3380   32.3230   72.9260 H   0  0  0  0  0  0  0  0  0  0  0  0
   18.1090   34.5510   73.6260 H   0  0  0  0  0  0  0  0  0  0  0  0
   19.4340   33.2750   73.8330 H   0  0  0  0  0  0  0  0  0  0  0  0
   20.4150   33.9620   71.6970 H   0  0  0  0  0  0  0  0  0  0  0  0
   20.3160   35.3580   72.8740 H   0  0  0  0  0  0  0  0  0  0  0  0
   13.6110   33.4400   70.9810 H   0  0  0  0  0  0  0  0  0  0  0  0
   14.1210   33.7000   69.2960 H   0  0  0  0  0  0  0  0  0  0  0  0
   12.1380   35.2050   71.0270 H   0  0  0  0  0  0  0  0  0  0  0  0
   12.1710   34.8360   69.2870 H   0  0  0  0  0  0  0  0  0  0  0  0
   14.0960   36.7840   71.6190 H   0  0  0  0  0  0  0  0  0  0  0  0
   14.3910   38.0380   70.2960 H   0  0  0  0  0  0  0  0  0  0  0  0
   16.4190   36.5690   70.2850 H   0  0  0  0  0  0  0  0  0  0  0  0
   15.3030   35.9820   68.9530 H   0  0  0  0  0  0  0  0  0  0  0  0
   22.1960   32.8350   67.9880 H   0  0  0  0  0  0  0  0  0  0  0  0
   24.1440   34.2180   67.3130 H   0  0  0  0  0  0  0  0  0  0  0  0
   22.5360   37.4600   69.4810 H   0  0  0  0  0  0  0  0  0  0  0  0
   27.6300   39.1680   66.1460 H   0  0  0  0  0  0  0  0  0  0  0  0
   26.7210   38.1350   64.9090 H   0  0  0  0  0  0  0  0  0  0  0  0
   25.9540   39.6400   65.5480 H   0  0  0  0  0  0  0  0  0  0  0  0
  1  4  1  0  0  0  0
  1  3  2  0  0  0  0
  2  1  2  0  0  0  0
  4  9  1  0  0  0  0
  5  6  1  0  0  0  0
  5  4  1  0  0  0  0
  6 33  1  6  0  0  0
  6 10  1  0  0  0  0
  6  7  1  0  0  0  0
  7 35  1  0  0  0  0
  7  8  1  0  0  0  0
  8 36  1  0  0  0  0
  8 37  1  0  0  0  0
  9 39  1  0  0  0  0
  9  8  1  0  0  0  0
 10 11  2  0  0  0  0
 12 10  1  0  0  0  0
 13 12  1  0  0  0  0
 13 40  1  0  0  0  0
 14 13  1  0  0  0  0
 14 42  1  0  0  0  0
 15 14  1  0  0  0  0
 15 16  1  0  0  0  0
 16 44  1  0  0  0  0
 17 46  1  0  0  0  0
 17 16  1  0  0  0  0
 17 12  1  0  0  0  0
 18  1  1  0  0  0  0
 19 18  2  0  0  0  0
 20 19  1  0  0  0  0
 21 20  2  0  0  0  0
 21 22  1  0  0  0  0
 22 23  2  0  0  0  0
 23 50  1  0  0  0  0
 23 18  1  0  0  0  0
 24 22  1  0  0  0  0
 24 25  2  0  0  0  0
 26 25  1  0  0  0  0
 27 26  1  0  0  0  0
 28 27  2  0  0  0  0
 28 24  1  0  0  0  0
 29 51  1  0  0  0  0
 29 27  1  0  0  0  0
 31  5  1  0  0  0  0
 32  5  1  0  0  0  0
 34  7  1  0  0  0  0
 38  9  1  0  0  0  0
 41 13  1  0  0  0  0
 43 14  1  0  0  0  0
 45 16  1  0  0  0  0
 47 17  1  0  0  0  0
 48 20  1  0  0  0  0
 49 21  1  0  0  0  0
 52 29  1  0  0  0  0
 53 29  1  0  0  0  0
M  END
>  <Pose>
1

>  <Score>
-6.73

$$$$
