
 OpenBabel03212208413D

 67 70  0  0  1  0  0  0  0  0999 V2000
   16.7770   32.2380   73.1560 S   0  0  0  0  0  0  0  0  0  0  0  0
   16.5130   32.6590   74.6010 O   0  0  0  0  0  0  0  0  0  0  0  0
   16.5110   30.7380   73.1690 O   0  0  0  0  0  0  0  0  0  0  0  0
   18.3850   32.4840   72.8170 N   0  0  0  0  0  0  0  0  0  0  0  0
   18.9020   33.7940   72.7630 C   0  0  0  0  0  0  0  0  0  0  0  0
   19.5380   34.1410   71.4340 C   0  0  2  0  0  0  0  0  0  0  0  0
   20.0830   32.9760   70.7000 C   0  0  0  0  0  0  0  0  0  0  0  0
   20.2890   31.7250   71.4730 C   0  0  0  0  0  0  0  0  0  0  0  0
   19.2460   31.4260   72.5200 C   0  0  0  0  0  0  0  0  0  0  0  0
   20.5890   35.1760   71.6040 C   0  0  0  0  0  0  0  0  0  0  0  0
   20.7440   35.6770   72.7450 O   0  0  0  0  0  0  0  0  0  0  0  0
   21.4030   35.5840   70.4810 N   0  0  0  0  0  0  0  0  0  0  0  0
   20.8400   36.5130   69.5710 C   0  0  0  0  0  0  0  0  0  0  0  0
   21.7420   37.3940   68.7930 C   0  0  0  0  0  0  0  0  0  0  0  0
   22.7630   36.8130   68.0020 N   0  0  0  0  0  0  0  0  0  0  0  0
   22.4120   35.8180   67.0970 C   0  0  0  0  0  0  0  0  0  0  0  0
   22.9530   34.4430   67.3650 C   0  0  0  0  0  0  0  0  0  0  0  0
   24.2600   34.4650   67.8260 O   0  0  0  0  0  0  0  0  0  0  0  0
   24.2360   35.1310   69.0510 C   0  0  0  0  0  0  0  0  0  0  0  0
   23.9770   36.5900   68.7510 C   0  0  0  0  0  0  0  0  0  0  0  0
   15.6340   32.9810   72.0980 C   0  0  0  0  0  0  0  0  0  0  0  0
   15.7120   34.3390   71.8300 C   0  0  0  0  0  0  0  0  0  0  0  0
   14.8350   34.9760   70.9850 C   0  0  0  0  0  0  0  0  0  0  0  0
   13.8240   34.2260   70.3720 C   0  0  0  0  0  0  0  0  0  0  0  0
   13.7560   32.8990   70.6410 C   0  0  0  0  0  0  0  0  0  0  0  0
   14.6410   32.2580   71.4930 C   0  0  0  0  0  0  0  0  0  0  0  0
   14.4430   30.3640   71.8030 B   0  0  0  0  0  0  0  0  0  0  0  0
   12.9880   35.0990   69.5030 C   0  0  0  0  0  0  0  0  0  0  0  0
   13.2670   36.4680   70.0890 C   0  0  0  0  0  0  0  0  0  0  0  0
   14.6620   36.3040   70.5140 N   0  0  0  0  0  0  0  0  0  0  0  0
   15.6090   37.3230   70.4380 C   0  0  0  0  0  0  0  0  0  0  0  0
   15.4240   38.4100   71.0870 O   0  0  0  0  0  0  0  0  0  0  0  0
   16.8360   37.2430   69.6470 C   0  0  0  0  0  0  0  0  0  0  0  0
   16.8800   38.3050   68.5510 C   0  0  0  0  0  0  0  0  0  0  0  0
   19.7250   33.8820   73.5310 H   0  0  0  0  0  0  0  0  0  0  0  0
   18.1260   34.5150   73.0670 H   0  0  0  0  0  0  0  0  0  0  0  0
   18.7010   34.6070   70.8330 H   0  0  0  0  0  0  0  0  0  0  0  0
   21.0960   33.2540   70.2740 H   0  0  0  0  0  0  0  0  0  0  0  0
   19.4200   32.7320   69.8330 H   0  0  0  0  0  0  0  0  0  0  0  0
   20.2580   30.8610   70.7570 H   0  0  0  0  0  0  0  0  0  0  0  0
   21.3330   31.6980   71.8790 H   0  0  0  0  0  0  0  0  0  0  0  0
   18.6860   30.4910   72.3400 H   0  0  0  0  0  0  0  0  0  0  0  0
   19.8390   31.1950   73.4620 H   0  0  0  0  0  0  0  0  0  0  0  0
   22.3300   35.1520   70.4340 H   0  0  0  0  0  0  0  0  0  0  0  0
   20.1800   37.1950   70.1810 H   0  0  0  0  0  0  0  0  0  0  0  0
   20.1600   35.9090   68.8870 H   0  0  0  0  0  0  0  0  0  0  0  0
   21.1100   38.0860   68.1300 H   0  0  0  0  0  0  0  0  0  0  0  0
   22.1860   38.1620   69.5160 H   0  0  0  0  0  0  0  0  0  0  0  0
   22.9320   36.1070   66.1010 H   0  0  0  0  0  0  0  0  0  0  0  0
   21.3530   35.8400   66.8050 H   0  0  0  0  0  0  0  0  0  0  0  0
   22.3420   33.9610   68.1470 H   0  0  0  0  0  0  0  0  0  0  0  0
   22.9140   33.7960   66.4680 H   0  0  0  0  0  0  0  0  0  0  0  0
   23.5290   34.6790   69.7470 H   0  0  0  0  0  0  0  0  0  0  0  0
   25.2420   35.0910   69.5470 H   0  0  0  0  0  0  0  0  0  0  0  0
   24.8160   36.9130   68.0650 H   0  0  0  0  0  0  0  0  0  0  0  0
   24.0630   37.2410   69.6330 H   0  0  0  0  0  0  0  0  0  0  0  0
   16.4720   34.9640   72.2760 H   0  0  0  0  0  0  0  0  0  0  0  0
   12.9770   32.2850   70.1770 H   0  0  0  0  0  0  0  0  0  0  0  0
   13.2440   35.0400   68.4430 H   0  0  0  0  0  0  0  0  0  0  0  0
   11.9190   34.8690   69.6530 H   0  0  0  0  0  0  0  0  0  0  0  0
   13.1660   37.2720   69.3330 H   0  0  0  0  0  0  0  0  0  0  0  0
   12.5870   36.6880   70.9120 H   0  0  0  0  0  0  0  0  0  0  0  0
   17.6800   37.4760   70.3710 H   0  0  0  0  0  0  0  0  0  0  0  0
   17.0430   36.2740   69.1870 H   0  0  0  0  0  0  0  0  0  0  0  0
   17.8900   38.7390   68.5080 H   0  0  0  0  0  0  0  0  0  0  0  0
   16.1020   39.0640   68.7850 H   0  0  0  0  0  0  0  0  0  0  0  0
   16.6100   37.8210   67.5920 H   0  0  0  0  0  0  0  0  0  0  0  0
  1  3  2  0  0  0  0
  1  2  2  0  0  0  0
  4  1  1  0  0  0  0
  5  4  1  0  0  0  0
  5 36  1  0  0  0  0
  5 35  1  0  0  0  0
  6 37  1  6  0  0  0
  6 10  1  0  0  0  0
  6  5  1  0  0  0  0
  7  6  1  0  0  0  0
  7  8  1  0  0  0  0
  8 41  1  0  0  0  0
  8  9  1  0  0  0  0
  9  4  1  0  0  0  0
  9 43  1  0  0  0  0
 10 11  2  0  0  0  0
 12 10  1  0  0  0  0
 13 45  1  0  0  0  0
 13 12  1  0  0  0  0
 14 48  1  0  0  0  0
 14 13  1  0  0  0  0
 15 20  1  0  0  0  0
 15 14  1  0  0  0  0
 16 17  1  0  0  0  0
 16 15  1  0  0  0  0
 17 18  1  0  0  0  0
 17 51  1  0  0  0  0
 18 19  1  0  0  0  0
 19 54  1  0  0  0  0
 19 53  1  0  0  0  0
 20 19  1  0  0  0  0
 20 56  1  0  0  0  0
 21  1  1  0  0  0  0
 22 21  1  0  0  0  0
 22 57  1  0  0  0  0
 23 22  2  0  0  0  0
 24 25  2  0  0  0  0
 24 23  1  0  0  0  0
 25 26  1  0  0  0  0
 26 27  1  0  0  0  0
 26 21  2  0  0  0  0
 28 60  1  0  0  0  0
 28 29  1  0  0  0  0
 28 24  1  0  0  0  0
 29 30  1  0  0  0  0
 29 62  1  0  0  0  0
 30 23  1  0  0  0  0
 31 30  1  0  0  0  0
 31 32  2  0  0  0  0
 33 63  1  0  0  0  0
 33 31  1  0  0  0  0
 34 66  1  0  0  0  0
 34 33  1  0  0  0  0
 38  7  1  0  0  0  0
 39  7  1  0  0  0  0
 40  8  1  0  0  0  0
 42  9  1  0  0  0  0
 44 12  1  0  0  0  0
 46 13  1  0  0  0  0
 47 14  1  0  0  0  0
 49 16  1  0  0  0  0
 50 16  1  0  0  0  0
 52 17  1  0  0  0  0
 55 20  1  0  0  0  0
 58 25  1  0  0  0  0
 59 28  1  0  0  0  0
 61 29  1  0  0  0  0
 64 33  1  0  0  0  0
 65 34  1  0  0  0  0
 67 34  1  0  0  0  0
M  END
>  <Pose>
1

>  <Score>
-6.68

$$$$
