
 OpenBabel03212208413D

 49 52  0  0  1  0  0  0  0  0999 V2000
   27.0620   31.5740   67.4510 Cl  0  0  0  0  0  0  0  0  0  0  0  0
   25.8140   32.7730   67.7870 C   0  0  0  0  0  0  0  0  0  0  0  0
   25.3990   33.0120   69.0700 C   0  0  0  0  0  0  0  0  0  0  0  0
   24.4190   33.9550   69.3200 C   0  0  0  0  0  0  0  0  0  0  0  0
   23.8240   34.6870   68.3150 C   0  0  0  0  0  0  0  0  0  0  0  0
   24.2530   34.4370   67.0290 C   0  0  0  0  0  0  0  0  0  0  0  0
   25.2460   33.4820   66.7650 C   0  0  0  0  0  0  0  0  0  0  0  0
   22.8180   35.6600   68.5760 N   0  0  0  0  0  0  0  0  0  0  0  0
   21.4330   35.6700   68.1220 C   0  0  0  0  0  0  0  0  0  0  0  0
   20.6620   36.4780   69.1270 C   0  0  2  0  0  0  0  0  0  0  0  0
   21.6550   37.2750   69.9050 C   0  0  0  0  0  0  0  0  0  0  0  0
   22.9700   36.8640   69.3590 C   0  0  0  0  0  0  0  0  0  0  0  0
   24.1120   37.4110   69.4970 O   0  0  0  0  0  0  0  0  0  0  0  0
   19.6910   35.7180   69.9230 C   0  0  0  0  0  0  0  0  0  0  0  0
   18.4630   36.1010   69.8610 O   0  0  0  0  0  0  0  0  0  0  0  0
   19.9530   34.6170   70.7460 N   0  0  0  0  0  0  0  0  0  0  0  0
   20.4730   33.3850   70.1770 C   0  0  0  0  0  0  0  0  0  0  0  0
   19.5520   32.2130   70.5050 C   0  0  0  0  0  0  0  0  0  0  0  0
   18.9900   32.4130   71.8080 N   0  0  0  0  0  0  0  0  0  0  0  0
   19.7130   33.2060   72.7550 C   0  0  0  0  0  0  0  0  0  0  0  0
   19.7330   34.6330   72.1730 C   0  0  0  0  0  0  0  0  0  0  0  0
   17.7440   31.8490   72.1550 C   0  0  0  0  0  0  0  0  0  0  0  0
   16.6360   32.5190   72.5770 N   0  0  0  0  0  0  0  0  0  0  0  0
   15.6530   31.6370   72.8000 C   0  0  0  0  0  0  0  0  0  0  0  0
   16.1320   30.3790   72.5200 C   0  0  0  0  0  0  0  0  0  0  0  0
   17.3850   30.5500   72.1380 N   0  0  0  0  0  0  0  0  0  0  0  0
   16.5390   33.9740   72.7600 C   0  0  0  0  0  0  0  0  0  0  0  0
   25.8650   32.4350   69.8640 H   0  0  0  0  0  0  0  0  0  0  0  0
   24.1310   34.0980   70.3560 H   0  0  0  0  0  0  0  0  0  0  0  0
   23.8260   34.9730   66.2200 H   0  0  0  0  0  0  0  0  0  0  0  0
   25.5750   33.2940   65.7510 H   0  0  0  0  0  0  0  0  0  0  0  0
   21.0860   34.6460   67.9970 H   0  0  0  0  0  0  0  0  0  0  0  0
   21.4500   36.1530   67.1060 H   0  0  0  0  0  0  0  0  0  0  0  0
   20.0970   37.2420   68.5050 H   0  0  0  0  0  0  0  0  0  0  0  0
   21.6000   38.3890   69.7040 H   0  0  0  0  0  0  0  0  0  0  0  0
   21.5590   37.1650   70.9930 H   0  0  0  0  0  0  0  0  0  0  0  0
   21.4600   33.1940   70.6620 H   0  0  0  0  0  0  0  0  0  0  0  0
   20.6640   33.4590   69.0980 H   0  0  0  0  0  0  0  0  0  0  0  0
   20.1930   31.3010   70.5690 H   0  0  0  0  0  0  0  0  0  0  0  0
   18.7880   32.1290   69.7040 H   0  0  0  0  0  0  0  0  0  0  0  0
   19.1960   33.2900   73.7370 H   0  0  0  0  0  0  0  0  0  0  0  0
   20.7520   32.8340   72.8530 H   0  0  0  0  0  0  0  0  0  0  0  0
   20.5100   35.1880   72.7370 H   0  0  0  0  0  0  0  0  0  0  0  0
   18.7080   34.9930   72.3490 H   0  0  0  0  0  0  0  0  0  0  0  0
   14.6530   31.8730   73.1440 H   0  0  0  0  0  0  0  0  0  0  0  0
   15.6030   29.4220   72.5920 H   0  0  0  0  0  0  0  0  0  0  0  0
   16.3360   34.1850   73.8390 H   0  0  0  0  0  0  0  0  0  0  0  0
   17.5020   34.4280   72.4830 H   0  0  0  0  0  0  0  0  0  0  0  0
   15.6880   34.3570   72.1940 H   0  0  0  0  0  0  0  0  0  0  0  0
  1  2  1  0  0  0  0
  2  3  1  0  0  0  0
  3  4  2  0  0  0  0
  3 28  1  0  0  0  0
  4 29  1  0  0  0  0
  5  8  1  0  0  0  0
  5  4  1  0  0  0  0
  6  5  2  0  0  0  0
  7  6  1  0  0  0  0
  7  2  2  0  0  0  0
  8 12  1  0  0  0  0
  9  8  1  0  0  0  0
  9 10  1  0  0  0  0
 10 34  1  6  0  0  0
 10 11  1  0  0  0  0
 10 14  1  0  0  0  0
 11 36  1  0  0  0  0
 12 13  2  0  0  0  0
 12 11  1  0  0  0  0
 14 16  1  0  0  0  0
 15 14  2  0  0  0  0
 16 21  1  0  0  0  0
 17 18  1  0  0  0  0
 17 37  1  0  0  0  0
 17 16  1  0  0  0  0
 18 39  1  0  0  0  0
 18 19  1  0  0  0  0
 19 22  1  0  0  0  0
 19 20  1  0  0  0  0
 20 42  1  0  0  0  0
 20 41  1  0  0  0  0
 21 44  1  0  0  0  0
 21 43  1  0  0  0  0
 21 20  1  0  0  0  0
 22 23  1  0  0  0  0
 23 27  1  0  0  0  0
 23 24  1  0  0  0  0
 24 45  1  0  0  0  0
 25 46  1  0  0  0  0
 25 24  2  0  0  0  0
 26 22  2  0  0  0  0
 26 25  1  0  0  0  0
 27 47  1  0  0  0  0
 30  6  1  0  0  0  0
 31  7  1  0  0  0  0
 32  9  1  0  0  0  0
 33  9  1  0  0  0  0
 35 11  1  0  0  0  0
 38 17  1  0  0  0  0
 40 18  1  0  0  0  0
 48 27  1  0  0  0  0
 49 27  1  0  0  0  0
M  END
>  <Pose>
1

>  <Score>
-5.62

$$$$
