
 OpenBabel03212208413D

 51 54  0  0  1  0  0  0  0  0999 V2000
   12.8730   33.2220   71.4160 Cl  0  0  0  0  0  0  0  0  0  0  0  0
   14.6250   32.9790   71.4050 C   0  0  0  0  0  0  0  0  0  0  0  0
   15.4850   34.0480   71.4380 C   0  0  0  0  0  0  0  0  0  0  0  0
   16.8500   33.8390   71.4290 C   0  0  0  0  0  0  0  0  0  0  0  0
   17.3900   32.5800   71.3870 C   0  0  0  0  0  0  0  0  0  0  0  0
   16.5320   31.5160   71.3530 C   0  0  0  0  0  0  0  0  0  0  0  0
   15.1440   31.7070   71.3620 C   0  0  0  0  0  0  0  0  0  0  0  0
   18.7990   32.3990   71.3750 N   0  0  0  0  0  0  0  0  0  0  0  0
   19.4430   31.9130   70.2060 C   0  0  0  0  0  0  0  0  0  0  0  0
   18.6990   31.6570   69.1950 O   0  0  0  0  0  0  0  0  0  0  0  0
   20.8290   31.7280   70.1740 N   0  0  0  0  0  0  0  0  0  0  0  0
   21.6230   32.0200   71.3060 C   0  0  0  0  0  0  0  0  0  0  0  0
   22.8560   32.1630   71.1980 O   0  0  0  0  0  0  0  0  0  0  0  0
   20.9880   32.1570   72.6360 C   0  0  1  0  0  0  0  0  0  0  0  0
   19.6100   32.6870   72.5040 C   0  0  0  0  0  0  0  0  0  0  0  0
   19.1580   33.4060   73.4120 O   0  0  0  0  0  0  0  0  0  0  0  0
   20.9040   30.8190   73.3160 C   0  0  0  0  0  0  0  0  0  0  0  0
   19.9580   30.3770   74.1220 C   0  0  0  0  0  0  0  0  0  0  0  0
   20.2720   28.9970   74.5670 C   0  0  2  0  0  0  0  0  0  0  0  0
   21.6810   28.8940   74.3060 N   0  0  0  0  0  0  0  0  0  0  0  0
   21.8560   29.7640   73.2190 N   0  0  0  0  0  0  0  0  0  0  0  0
   19.4420   28.0620   73.8160 C   0  0  0  0  0  0  0  0  0  0  0  0
   18.1190   28.3840   73.6030 C   0  0  0  0  0  0  0  0  0  0  0  0
   17.2530   27.5690   72.9030 C   0  0  0  0  0  0  0  0  0  0  0  0
   17.7590   26.3650   72.3950 C   0  0  0  0  0  0  0  0  0  0  0  0
   19.0740   26.0000   72.5820 C   0  0  0  0  0  0  0  0  0  0  0  0
   19.8810   26.8660   73.2930 C   0  0  0  0  0  0  0  0  0  0  0  0
   19.5150   24.8170   72.0680 O   0  0  0  0  0  0  0  0  0  0  0  0
   20.2560   23.8390   72.7380 C   0  0  0  0  0  0  0  0  0  0  0  0
   16.9350   25.5180   71.6890 O   0  0  0  0  0  0  0  0  0  0  0  0
   15.9180   27.8840   72.6830 O   0  0  0  0  0  0  0  0  0  0  0  0
   15.3170   28.7830   73.5920 C   0  0  0  0  0  0  0  0  0  0  0  0
   15.0610   35.0370   71.4720 H   0  0  0  0  0  0  0  0  0  0  0  0
   17.5060   34.6980   71.4560 H   0  0  0  0  0  0  0  0  0  0  0  0
   16.9370   30.5200   71.3190 H   0  0  0  0  0  0  0  0  0  0  0  0
   14.4760   30.8650   71.3350 H   0  0  0  0  0  0  0  0  0  0  0  0
   21.2570   31.3640   69.2740 H   0  0  0  0  0  0  0  0  0  0  0  0
   21.6340   32.8160   73.2510 H   0  0  0  0  0  0  0  0  0  0  0  0
   19.0810   30.9770   74.3960 H   0  0  0  0  0  0  0  0  0  0  0  0
   20.0640   28.9390   75.6610 H   0  0  0  0  0  0  0  0  0  0  0  0
   22.0280   27.9500   74.1460 H   0  0  0  0  0  0  0  0  0  0  0  0
   22.5710   29.6430   72.4750 H   0  0  0  0  0  0  0  0  0  0  0  0
   17.6920   29.3090   73.9830 H   0  0  0  0  0  0  0  0  0  0  0  0
   20.9120   26.6160   73.4610 H   0  0  0  0  0  0  0  0  0  0  0  0
   21.0610   24.2650   73.3780 H   0  0  0  0  0  0  0  0  0  0  0  0
   20.7200   23.0960   72.0960 H   0  0  0  0  0  0  0  0  0  0  0  0
   19.5730   23.3060   73.4360 H   0  0  0  0  0  0  0  0  0  0  0  0
   17.0630   25.4050   70.6930 H   0  0  0  0  0  0  0  0  0  0  0  0
   14.2310   28.8560   73.4160 H   0  0  0  0  0  0  0  0  0  0  0  0
   15.8110   29.7650   73.6100 H   0  0  0  0  0  0  0  0  0  0  0  0
   15.4310   28.3490   74.6190 H   0  0  0  0  0  0  0  0  0  0  0  0
  2  1  1  0  0  0  0
  2  3  1  0  0  0  0
  3 33  1  0  0  0  0
  4  3  2  0  0  0  0
  4 34  1  0  0  0  0
  5  4  1  0  0  0  0
  6  7  1  0  0  0  0
  6  5  2  0  0  0  0
  7  2  2  0  0  0  0
  8  5  1  0  0  0  0
  8 15  1  0  0  0  0
  9  8  1  0  0  0  0
 10  9  2  0  0  0  0
 11  9  1  0  0  0  0
 11 12  1  0  0  0  0
 12 14  1  0  0  0  0
 13 12  2  0  0  0  0
 14 38  1  1  0  0  0
 14 17  1  0  0  0  0
 15 14  1  0  0  0  0
 15 16  2  0  0  0  0
 17 18  2  0  0  0  0
 18 39  1  0  0  0  0
 18 19  1  0  0  0  0
 19 40  1  1  0  0  0
 20 19  1  0  0  0  0
 21 17  1  0  0  0  0
 21 20  1  0  0  0  0
 22 19  1  0  0  0  0
 23 22  1  0  0  0  0
 23 43  1  0  0  0  0
 24 23  2  0  0  0  0
 25 26  2  0  0  0  0
 25 24  1  0  0  0  0
 26 27  1  0  0  0  0
 27 44  1  0  0  0  0
 27 22  2  0  0  0  0
 28 26  1  0  0  0  0
 28 29  1  0  0  0  0
 29 45  1  0  0  0  0
 29 47  1  0  0  0  0
 30 25  1  0  0  0  0
 31 24  1  0  0  0  0
 31 32  1  0  0  0  0
 32 50  1  0  0  0  0
 32 51  1  0  0  0  0
 35  6  1  0  0  0  0
 36  7  1  0  0  0  0
 37 11  1  0  0  0  0
 41 20  1  0  0  0  0
 42 21  1  0  0  0  0
 46 29  1  0  0  0  0
 48 30  1  0  0  0  0
 49 32  1  0  0  0  0
M  END
>  <Pose>
1

>  <Score>
-6.32

$$$$
