
 OpenBabel03212208413D

 41 44  0  0  1  0  0  0  0  0999 V2000
   22.4510   28.4860   76.1270 Cl  0  0  0  0  0  0  0  0  0  0  0  0
   21.8000   29.5620   74.9030 C   0  0  0  0  0  0  0  0  0  0  0  0
   20.5090   29.4220   74.4410 C   0  0  0  0  0  0  0  0  0  0  0  0
   19.9970   30.2760   73.4710 C   0  0  0  0  0  0  0  0  0  0  0  0
   20.7600   31.2920   72.9360 C   0  0  0  0  0  0  0  0  0  0  0  0
   22.0490   31.4290   73.4000 C   0  0  0  0  0  0  0  0  0  0  0  0
   22.5590   30.5800   74.3650 C   0  0  0  0  0  0  0  0  0  0  0  0
   20.2410   32.1900   71.9250 N   0  0  0  0  0  0  0  0  0  0  0  0
   20.3610   31.8770   70.5500 C   0  0  0  0  0  0  0  0  0  0  0  0
   20.9170   30.8090   70.1900 O   0  0  0  0  0  0  0  0  0  0  0  0
   19.8370   32.8000   69.5790 N   0  0  0  0  0  0  0  0  0  0  0  0
   19.2090   34.0090   69.9840 C   0  0  0  0  0  0  0  0  0  0  0  0
   19.0660   34.9400   69.1520 O   0  0  0  0  0  0  0  0  0  0  0  0
   18.7350   34.1480   71.3700 C   0  0  2  0  0  0  0  0  0  0  0  0
   19.6100   33.4040   72.2930 C   0  0  0  0  0  0  0  0  0  0  0  0
   19.8150   33.8550   73.4730 O   0  0  0  0  0  0  0  0  0  0  0  0
   17.3190   33.6690   71.5030 C   0  0  0  0  0  0  0  0  0  0  0  0
   16.5550   33.1290   70.5890 C   0  0  0  0  0  0  0  0  0  0  0  0
   15.2420   32.8200   71.1770 C   0  0  1  0  0  0  0  0  0  0  0  0
   15.4640   32.9120   72.5920 N   0  0  0  0  0  0  0  0  0  0  0  0
   16.5890   33.7420   72.7170 N   0  0  0  0  0  0  0  0  0  0  0  0
   14.3060   33.8850   70.7340 C   0  0  0  0  0  0  0  0  0  0  0  0
   12.9480   33.6830   70.7960 C   0  0  0  0  0  0  0  0  0  0  0  0
   12.0840   34.6550   70.3910 N   0  0  0  0  0  0  0  0  0  0  0  0
   12.5020   35.8410   69.9200 C   0  0  0  0  0  0  0  0  0  0  0  0
   13.8560   36.0770   69.8450 C   0  0  0  0  0  0  0  0  0  0  0  0
   14.7590   35.0860   70.2570 C   0  0  0  0  0  0  0  0  0  0  0  0
   19.8970   28.6330   74.8490 H   0  0  0  0  0  0  0  0  0  0  0  0
   18.9890   30.1820   73.1010 H   0  0  0  0  0  0  0  0  0  0  0  0
   22.6670   32.2320   72.9820 H   0  0  0  0  0  0  0  0  0  0  0  0
   23.5810   30.6790   74.7380 H   0  0  0  0  0  0  0  0  0  0  0  0
   19.9040   32.6100   68.5560 H   0  0  0  0  0  0  0  0  0  0  0  0
   18.7080   35.2100   71.7040 H   0  0  0  0  0  0  0  0  0  0  0  0
   16.8680   32.9480   69.5690 H   0  0  0  0  0  0  0  0  0  0  0  0
   14.8680   31.8120   70.8750 H   0  0  0  0  0  0  0  0  0  0  0  0
   15.6150   31.9980   73.0280 H   0  0  0  0  0  0  0  0  0  0  0  0
   16.7870   34.2870   73.5870 H   0  0  0  0  0  0  0  0  0  0  0  0
   12.5820   32.7250   71.1770 H   0  0  0  0  0  0  0  0  0  0  0  0
   11.7880   36.6140   69.5980 H   0  0  0  0  0  0  0  0  0  0  0  0
   14.2030   37.0260   69.4680 H   0  0  0  0  0  0  0  0  0  0  0  0
   15.8020   35.2780   70.1950 H   0  0  0  0  0  0  0  0  0  0  0  0
  2  1  1  0  0  0  0
  3 28  1  0  0  0  0
  3  2  1  0  0  0  0
  4  3  2  0  0  0  0
  5  6  2  0  0  0  0
  5  4  1  0  0  0  0
  6  7  1  0  0  0  0
  7 31  1  0  0  0  0
  7  2  2  0  0  0  0
  8 15  1  0  0  0  0
  8  5  1  0  0  0  0
  9  8  1  0  0  0  0
 10  9  2  0  0  0  0
 11 12  1  0  0  0  0
 11  9  1  0  0  0  0
 12 14  1  0  0  0  0
 13 12  2  0  0  0  0
 14 17  1  0  0  0  0
 14 33  1  1  0  0  0
 14 15  1  0  0  0  0
 15 16  2  0  0  0  0
 17 21  1  0  0  0  0
 18 19  1  0  0  0  0
 18 17  2  0  0  0  0
 19 35  1  6  0  0  0
 19 20  1  0  0  0  0
 20 21  1  0  0  0  0
 20 36  1  0  0  0  0
 21 37  1  0  0  0  0
 22 23  1  0  0  0  0
 22 19  1  0  0  0  0
 23 38  1  0  0  0  0
 24 23  2  0  0  0  0
 25 24  1  0  0  0  0
 26 25  2  0  0  0  0
 26 27  1  0  0  0  0
 27 22  2  0  0  0  0
 29  4  1  0  0  0  0
 30  6  1  0  0  0  0
 32 11  1  0  0  0  0
 34 18  1  0  0  0  0
 39 25  1  0  0  0  0
 40 26  1  0  0  0  0
 41 27  1  0  0  0  0
M  END
>  <Pose>
1

>  <Score>
-6.06

$$$$
