
 OpenBabel03212208413D

 53 56  0  0  1  0  0  0  0  0999 V2000
   19.7510   28.3760   75.9590 Cl  0  0  0  0  0  0  0  0  0  0  0  0
   19.9410   29.5740   74.6740 C   0  0  0  0  0  0  0  0  0  0  0  0
   21.1700   30.1660   74.4860 C   0  0  0  0  0  0  0  0  0  0  0  0
   21.3270   31.1100   73.4760 C   0  0  0  0  0  0  0  0  0  0  0  0
   20.2770   31.4570   72.6680 C   0  0  0  0  0  0  0  0  0  0  0  0
   19.0590   30.8480   72.8790 C   0  0  0  0  0  0  0  0  0  0  0  0
   18.8690   29.9060   73.8740 C   0  0  0  0  0  0  0  0  0  0  0  0
   20.4270   32.4520   71.5970 N   0  0  0  0  0  0  0  0  0  0  0  0
   20.1800   33.8220   71.8770 C   0  0  2  0  0  0  0  0  0  0  0  0
   20.2460   34.7000   70.7180 C   0  0  0  0  0  0  0  0  0  0  0  0
   20.6130   34.2630   69.4810 C   0  0  0  0  0  0  0  0  0  0  0  0
   20.6770   35.1740   68.4110 C   0  0  0  0  0  0  0  0  0  0  0  0
   20.3840   36.5070   68.5490 C   0  0  0  0  0  0  0  0  0  0  0  0
   20.0130   36.9340   69.8140 C   0  0  0  0  0  0  0  0  0  0  0  0
   19.9490   36.0610   70.8510 C   0  0  0  0  0  0  0  0  0  0  0  0
   20.9160   32.8840   69.2180 N   0  0  0  0  0  0  0  0  0  0  0  0
   20.8090   32.0080   70.3220 C   0  0  0  0  0  0  0  0  0  0  0  0
   21.0640   30.7690   70.1720 O   0  0  0  0  0  0  0  0  0  0  0  0
   21.2570   34.2040   72.7530 O   0  0  0  0  0  0  0  0  0  0  0  0
   18.9420   34.0220   72.6730 C   0  0  0  0  0  0  0  0  0  0  0  0
   18.9900   34.6160   73.7520 O   0  0  0  0  0  0  0  0  0  0  0  0
   17.7350   33.5170   72.1550 N   0  0  0  0  0  0  0  0  0  0  0  0
   17.1960   33.9400   70.8610 C   0  0  0  0  0  0  0  0  0  0  0  0
   16.5600   35.2760   70.9170 C   0  0  0  0  0  0  0  0  0  0  0  0
   15.1760   35.3500   70.6540 N   0  0  0  0  0  0  0  0  0  0  0  0
   14.6940   36.3910   69.8420 C   0  0  0  0  0  0  0  0  0  0  0  0
   13.2340   36.0970   69.4860 C   0  0  0  0  0  0  0  0  0  0  0  0
   12.5940   35.4470   70.5560 O   0  0  0  0  0  0  0  0  0  0  0  0
   13.0470   34.1370   70.6970 C   0  0  0  0  0  0  0  0  0  0  0  0
   14.5220   34.1120   70.3980 C   0  0  0  0  0  0  0  0  0  0  0  0
   21.9780   29.8780   75.1330 H   0  0  0  0  0  0  0  0  0  0  0  0
   22.2900   31.5550   73.3500 H   0  0  0  0  0  0  0  0  0  0  0  0
   18.2220   31.1040   72.2580 H   0  0  0  0  0  0  0  0  0  0  0  0
   17.9320   29.4180   74.0580 H   0  0  0  0  0  0  0  0  0  0  0  0
   20.9710   34.7850   67.4530 H   0  0  0  0  0  0  0  0  0  0  0  0
   20.4270   37.2190   67.7440 H   0  0  0  0  0  0  0  0  0  0  0  0
   19.7710   38.0030   69.9480 H   0  0  0  0  0  0  0  0  0  0  0  0
   19.6610   36.4010   71.8240 H   0  0  0  0  0  0  0  0  0  0  0  0
   21.1940   32.5890   68.2650 H   0  0  0  0  0  0  0  0  0  0  0  0
   22.1020   33.7910   72.4350 H   0  0  0  0  0  0  0  0  0  0  0  0
   17.1500   32.8040   72.6710 H   0  0  0  0  0  0  0  0  0  0  0  0
   18.0070   33.8260   70.1380 H   0  0  0  0  0  0  0  0  0  0  0  0
   16.4180   33.1910   70.6040 H   0  0  0  0  0  0  0  0  0  0  0  0
   17.0840   35.9280   70.1650 H   0  0  0  0  0  0  0  0  0  0  0  0
   16.7620   35.7550   71.8970 H   0  0  0  0  0  0  0  0  0  0  0  0
   14.8150   37.4130   70.2440 H   0  0  0  0  0  0  0  0  0  0  0  0
   15.2450   36.3810   68.8750 H   0  0  0  0  0  0  0  0  0  0  0  0
   12.6820   37.0000   69.2180 H   0  0  0  0  0  0  0  0  0  0  0  0
   13.1630   35.3890   68.6260 H   0  0  0  0  0  0  0  0  0  0  0  0
   12.4970   33.4200   70.0570 H   0  0  0  0  0  0  0  0  0  0  0  0
   12.8960   33.8130   71.7400 H   0  0  0  0  0  0  0  0  0  0  0  0
   15.0410   33.2770   70.9130 H   0  0  0  0  0  0  0  0  0  0  0  0
   14.6110   33.8980   69.2960 H   0  0  0  0  0  0  0  0  0  0  0  0
  2  1  1  0  0  0  0
  3  2  1  0  0  0  0
  3 31  1  0  0  0  0
  4  3  2  0  0  0  0
  5  6  2  0  0  0  0
  5  4  1  0  0  0  0
  6  7  1  0  0  0  0
  7 34  1  0  0  0  0
  7  2  2  0  0  0  0
  8  9  1  0  0  0  0
  8  5  1  0  0  0  0
  9 20  1  1  0  0  0
  9 19  1  0  0  0  0
 10 15  1  0  0  0  0
 10  9  1  0  0  0  0
 11 10  2  0  0  0  0
 12 13  2  0  0  0  0
 12 11  1  0  0  0  0
 13 14  1  0  0  0  0
 14 37  1  0  0  0  0
 14 15  2  0  0  0  0
 15 38  1  0  0  0  0
 16 11  1  0  0  0  0
 16 17  1  0  0  0  0
 17  8  1  0  0  0  0
 18 17  2  0  0  0  0
 20 21  2  0  0  0  0
 22 41  1  0  0  0  0
 22 20  1  0  0  0  0
 23 24  1  0  0  0  0
 23 22  1  0  0  0  0
 24 45  1  0  0  0  0
 25 24  1  0  0  0  0
 26 46  1  0  0  0  0
 26 25  1  0  0  0  0
 27 26  1  0  0  0  0
 27 28  1  0  0  0  0
 28 29  1  0  0  0  0
 29 51  1  0  0  0  0
 30 25  1  0  0  0  0
 30 29  1  0  0  0  0
 30 52  1  0  0  0  0
 32  4  1  0  0  0  0
 33  6  1  0  0  0  0
 35 12  1  0  0  0  0
 36 13  1  0  0  0  0
 39 16  1  0  0  0  0
 40 19  1  0  0  0  0
 42 23  1  0  0  0  0
 43 23  1  0  0  0  0
 44 24  1  0  0  0  0
 47 26  1  0  0  0  0
 48 27  1  0  0  0  0
 49 27  1  0  0  0  0
 50 29  1  0  0  0  0
 53 30  1  0  0  0  0
M  END
>  <Pose>
1

>  <Score>
-6.32

$$$$
