
 OpenBabel03212208413D

 55 59  0  0  1  0  0  0  0  0999 V2000
   13.0210   34.2910   70.4060 B   0  0  0  0  0  0  0  0  0  0  0  0
   14.2140   32.9370   71.0170 C   0  0  0  0  0  0  0  0  0  0  0  0
   15.5830   32.9930   71.1920 C   0  0  0  0  0  0  0  0  0  0  0  0
   16.0320   31.7940   71.6440 N   0  0  0  0  0  0  0  0  0  0  0  0
   14.9930   31.0110   71.7510 N   0  0  0  0  0  0  0  0  0  0  0  0
   13.8590   31.6370   71.3870 C   0  0  0  0  0  0  0  0  0  0  0  0
   17.3900   31.4150   71.9590 C   0  0  0  0  0  0  0  0  0  0  0  0
   18.3960   32.4660   71.5500 C   0  0  2  0  0  0  0  0  0  0  0  0
   17.8230   33.8400   71.6250 C   0  0  0  0  0  0  0  0  0  0  0  0
   18.9190   32.1390   70.1910 C   0  0  0  0  0  0  0  0  0  0  0  0
   18.1440   31.5130   69.4250 O   0  0  0  0  0  0  0  0  0  0  0  0
   20.2200   32.5080   69.7750 N   0  0  0  0  0  0  0  0  0  0  0  0
   20.7710   33.7600   69.9350 N   0  0  0  0  0  0  0  0  0  0  0  0
   21.3820   34.4330   68.8660 C   0  0  0  0  0  0  0  0  0  0  0  0
   20.6650   35.1930   68.1460 O   0  0  0  0  0  0  0  0  0  0  0  0
   22.8170   34.3170   68.5150 C   0  0  1  0  0  0  0  0  0  0  0  0
   23.0930   34.9650   67.1740 C   0  0  0  0  0  0  0  0  0  0  0  0
   24.5450   34.8390   66.8080 C   0  0  1  0  0  0  0  0  0  0  0  0
   25.3420   35.6090   67.8630 C   0  0  0  0  0  0  0  0  0  0  0  0
   25.0900   35.0160   69.2120 C   0  0  1  0  0  0  0  0  0  0  0  0
   23.6180   35.0740   69.5520 C   0  0  0  0  0  0  0  0  0  0  0  0
   25.5480   33.5760   69.2120 C   0  0  0  0  0  0  0  0  0  0  0  0
   24.7450   32.8340   68.1680 C   0  0  2  0  0  0  0  0  0  0  0  0
   25.0300   33.4230   66.8110 C   0  0  0  0  0  0  0  0  0  0  0  0
   23.2790   32.8770   68.5080 C   0  0  0  0  0  0  0  0  0  0  0  0
   24.7210   35.4830   65.5210 N   0  0  2  0  0  0  0  0  0  0  0  0
   24.7020   34.9680   64.3040 N   0  0  0  0  0  0  0  0  0  0  0  0
   24.9010   35.8700   63.3900 N   0  0  0  0  0  0  0  0  0  0  0  0
   25.0620   37.0330   63.9960 C   0  0  0  0  0  0  0  0  0  0  0  0
   24.9500   36.7930   65.3330 N   0  0  0  0  0  0  0  0  0  0  0  0
   16.2000   33.8460   71.0030 H   0  0  0  0  0  0  0  0  0  0  0  0
   12.8430   31.2710   71.3630 H   0  0  0  0  0  0  0  0  0  0  0  0
   17.6290   30.4950   71.4000 H   0  0  0  0  0  0  0  0  0  0  0  0
   17.5270   31.1930   73.0390 H   0  0  0  0  0  0  0  0  0  0  0  0
   19.2640   32.4130   72.2400 H   0  0  0  0  0  0  0  0  0  0  0  0
   17.3710   33.9450   72.6510 H   0  0  0  0  0  0  0  0  0  0  0  0
   18.6360   34.6010   71.6040 H   0  0  0  0  0  0  0  0  0  0  0  0
   17.0160   34.0340   70.9090 H   0  0  0  0  0  0  0  0  0  0  0  0
   20.8010   31.7550   69.3090 H   0  0  0  0  0  0  0  0  0  0  0  0
   20.7320   34.2230   70.8750 H   0  0  0  0  0  0  0  0  0  0  0  0
   22.4240   34.5350   66.3850 H   0  0  0  0  0  0  0  0  0  0  0  0
   22.9030   36.0610   67.3150 H   0  0  0  0  0  0  0  0  0  0  0  0
   26.4110   35.6130   67.6360 H   0  0  0  0  0  0  0  0  0  0  0  0
   24.8970   36.6360   67.8610 H   0  0  0  0  0  0  0  0  0  0  0  0
   25.6300   35.5900   69.9820 H   0  0  0  0  0  0  0  0  0  0  0  0
   23.4660   34.6780   70.5780 H   0  0  0  0  0  0  0  0  0  0  0  0
   23.3050   36.1410   69.4940 H   0  0  0  0  0  0  0  0  0  0  0  0
   26.6240   33.5800   68.9020 H   0  0  0  0  0  0  0  0  0  0  0  0
   25.4080   33.1640   70.2160 H   0  0  0  0  0  0  0  0  0  0  0  0
   25.0810   31.7580   68.2180 H   0  0  0  0  0  0  0  0  0  0  0  0
   24.5560   32.8150   66.0230 H   0  0  0  0  0  0  0  0  0  0  0  0
   26.1330   33.4590   66.6820 H   0  0  0  0  0  0  0  0  0  0  0  0
   23.1200   32.4780   69.5130 H   0  0  0  0  0  0  0  0  0  0  0  0
   22.7320   32.3320   67.7170 H   0  0  0  0  0  0  0  0  0  0  0  0
   25.2470   37.9780   63.5080 H   0  0  0  0  0  0  0  0  0  0  0  0
  1  2  1  0  0  0  0
  2  3  2  0  0  0  0
  2  6  1  0  0  0  0
  3  4  1  0  0  0  0
  4  5  1  0  0  0  0
  4  7  1  0  0  0  0
  6  5  2  0  0  0  0
  7 34  1  0  0  0  0
  8  9  1  0  0  0  0
  8  7  1  0  0  0  0
  8 35  1  1  0  0  0
  9 36  1  0  0  0  0
 10  8  1  0  0  0  0
 11 10  2  0  0  0  0
 12 13  1  0  0  0  0
 12 10  1  0  0  0  0
 13 40  1  0  0  0  0
 14 13  1  0  0  0  0
 15 14  2  0  0  0  0
 16 14  1  1  0  0  0
 16 21  1  0  0  0  0
 17 42  1  0  0  0  0
 17 16  1  0  0  0  0
 18 24  1  6  0  0  0
 18 17  1  0  0  0  0
 18 19  1  0  0  0  0
 19 20  1  0  0  0  0
 20 21  1  0  0  0  0
 20 45  1  1  0  0  0
 21 46  1  0  0  0  0
 22 20  1  0  0  0  0
 22 49  1  0  0  0  0
 23 50  1  6  0  0  0
 23 25  1  0  0  0  0
 23 22  1  0  0  0  0
 24 23  1  0  0  0  0
 25 16  1  0  0  0  0
 25 53  1  0  0  0  0
 26 27  1  1  0  0  0
 26 18  1  0  0  0  0
 28 29  2  0  0  0  0
 28 27  1  0  0  0  0
 29 30  1  0  0  0  0
 30 26  1  0  0  0  0
 31  3  1  0  0  0  0
 32  6  1  0  0  0  0
 33  7  1  0  0  0  0
 37  9  1  0  0  0  0
 38  9  1  0  0  0  0
 39 12  1  0  0  0  0
 41 17  1  0  0  0  0
 43 19  1  0  0  0  0
 44 19  1  0  0  0  0
 47 21  1  0  0  0  0
 48 22  1  0  0  0  0
 51 24  1  0  0  0  0
 52 24  1  0  0  0  0
 54 25  1  0  0  0  0
 55 29  1  0  0  0  0
M  END
>  <Pose>
1

>  <Score>
-6.29

$$$$
