
 OpenBabel03212208413D

 58 61  0  0  1  0  0  0  0  0999 V2000
   26.9960   25.1850   69.0290 Cl  0  0  0  0  0  0  0  0  0  0  0  0
   26.1310   26.4850   69.8840 C   0  0  0  0  0  0  0  0  0  0  0  0
   24.9140   26.2410   70.4780 C   0  0  0  0  0  0  0  0  0  0  0  0
   24.2370   27.2790   71.1350 C   0  0  0  0  0  0  0  0  0  0  0  0
   24.7610   28.5610   71.2110 C   0  0  0  0  0  0  0  0  0  0  0  0
   25.9640   28.7730   70.6200 C   0  0  0  0  0  0  0  0  0  0  0  0
   26.6540   27.7640   69.9590 C   0  0  0  0  0  0  0  0  0  0  0  0
   23.9280   29.5690   71.9050 C   0  0  1  0  0  0  0  0  0  0  0  0
   24.4440   30.9430   71.8160 C   0  0  0  0  0  0  0  0  0  0  0  0
   23.4360   32.0610   71.7290 C   0  0  0  0  0  0  0  0  0  0  0  0
   22.0730   31.6810   71.9080 N   0  0  0  0  0  0  0  0  0  0  0  0
   21.6770   30.4840   71.1390 C   0  0  0  0  0  0  0  0  0  0  0  0
   22.5290   29.3390   71.3890 C   0  0  0  0  0  0  0  0  0  0  0  0
   21.0480   32.4630   72.4930 C   0  0  0  0  0  0  0  0  0  0  0  0
   21.0210   32.6740   73.7030 O   0  0  0  0  0  0  0  0  0  0  0  0
   19.9540   33.0650   71.6210 C   0  0  1  0  0  0  0  0  0  0  0  0
   18.8560   32.1330   71.5150 N   0  0  0  0  0  0  0  0  0  0  0  0
   17.6840   32.1860   72.2670 C   0  0  0  0  0  0  0  0  0  0  0  0
   18.0040   32.2250   73.6100 O   0  0  0  0  0  0  0  0  0  0  0  0
   16.3100   32.2370   72.0850 C   0  0  0  0  0  0  0  0  0  0  0  0
   15.2610   32.8470   71.6200 C   0  0  0  0  0  0  0  0  0  0  0  0
   13.9380   32.2330   71.8000 N   0  0  0  0  0  0  0  0  0  0  0  0
   12.7600   32.8470   71.4230 N   0  0  0  0  0  0  0  0  0  0  0  0
   12.7370   34.1030   70.8380 C   0  0  0  0  0  0  0  0  0  0  0  0
   11.6900   34.6950   70.4740 O   0  0  0  0  0  0  0  0  0  0  0  0
   14.0250   34.8030   70.6150 C   0  0  0  0  0  0  0  0  0  0  0  0
   15.1730   34.1580   71.0080 C   0  0  0  0  0  0  0  0  0  0  0  0
   16.3520   34.8990   70.8700 C   0  0  0  0  0  0  0  0  0  0  0  0
   16.3380   36.1880   70.3580 C   0  0  0  0  0  0  0  0  0  0  0  0
   15.1680   36.7880   69.9700 C   0  0  0  0  0  0  0  0  0  0  0  0
   13.9940   36.0790   70.1060 C   0  0  0  0  0  0  0  0  0  0  0  0
   19.7610   34.4840   71.6600 C   0  0  0  0  0  0  0  0  0  0  0  0
   23.9300   29.2130   73.2880 O   0  0  0  0  0  0  0  0  0  0  0  0
   24.4950   25.2370   70.4300 H   0  0  0  0  0  0  0  0  0  0  0  0
   23.2920   27.0350   71.5970 H   0  0  0  0  0  0  0  0  0  0  0  0
   26.4540   29.7400   70.6370 H   0  0  0  0  0  0  0  0  0  0  0  0
   27.6010   27.9210   69.4850 H   0  0  0  0  0  0  0  0  0  0  0  0
   25.1850   31.1120   70.9890 H   0  0  0  0  0  0  0  0  0  0  0  0
   25.0430   31.1470   72.7610 H   0  0  0  0  0  0  0  0  0  0  0  0
   23.4650   32.4400   70.6360 H   0  0  0  0  0  0  0  0  0  0  0  0
   23.7220   32.9760   72.2810 H   0  0  0  0  0  0  0  0  0  0  0  0
   21.9020   30.8450   70.0500 H   0  0  0  0  0  0  0  0  0  0  0  0
   20.6140   30.2810   71.1760 H   0  0  0  0  0  0  0  0  0  0  0  0
   22.0220   28.6090   72.0500 H   0  0  0  0  0  0  0  0  0  0  0  0
   22.5860   28.7550   70.3970 H   0  0  0  0  0  0  0  0  0  0  0  0
   20.4660   32.8710   70.5470 H   0  0  0  0  0  0  0  0  0  0  0  0
   19.0950   31.3510   70.8170 H   0  0  0  0  0  0  0  0  0  0  0  0
   15.8500   31.2390   72.6010 H   0  0  0  0  0  0  0  0  0  0  0  0
   13.9390   31.2760   72.2470 H   0  0  0  0  0  0  0  0  0  0  0  0
   11.8430   32.3450   71.5830 H   0  0  0  0  0  0  0  0  0  0  0  0
   17.2420   34.4840   71.2050 H   0  0  0  0  0  0  0  0  0  0  0  0
   17.2880   36.7410   70.2550 H   0  0  0  0  0  0  0  0  0  0  0  0
   15.2230   37.7920   69.5880 H   0  0  0  0  0  0  0  0  0  0  0  0
   13.0430   36.5070   69.8200 H   0  0  0  0  0  0  0  0  0  0  0  0
   18.7640   34.8480   72.0010 H   0  0  0  0  0  0  0  0  0  0  0  0
   19.8770   34.9850   70.6360 H   0  0  0  0  0  0  0  0  0  0  0  0
   20.5700   35.0130   72.2420 H   0  0  0  0  0  0  0  0  0  0  0  0
   24.3410   29.9050   73.8320 H   0  0  0  0  0  0  0  0  0  0  0  0
  1  2  1  0  0  0  0
  2  7  2  0  0  0  0
  2  3  1  0  0  0  0
  3  4  2  0  0  0  0
  4  5  1  0  0  0  0
  4 35  1  0  0  0  0
  5  8  1  0  0  0  0
  6 36  1  0  0  0  0
  6  5  2  0  0  0  0
  7  6  1  0  0  0  0
  8 33  1  1  0  0  0
  9  8  1  0  0  0  0
  9 39  1  0  0  0  0
 10  9  1  0  0  0  0
 10 11  1  0  0  0  0
 10 41  1  0  0  0  0
 11 14  1  0  0  0  0
 12 43  1  0  0  0  0
 12 13  1  0  0  0  0
 12 11  1  0  0  0  0
 13  8  1  0  0  0  0
 13 44  1  0  0  0  0
 14 15  2  0  0  0  0
 16 46  1  6  0  0  0
 16 32  1  0  0  0  0
 16 14  1  0  0  0  0
 17 16  1  0  0  0  0
 17 18  1  0  0  0  0
 18 19  2  0  0  0  0
 20 18  1  0  0  0  0
 20 48  1  0  0  0  0
 21 22  1  0  0  0  0
 21 20  2  0  0  0  0
 22 49  1  0  0  0  0
 23 50  1  0  0  0  0
 23 22  1  0  0  0  0
 24 23  1  0  0  0  0
 25 24  2  0  0  0  0
 26 24  1  0  0  0  0
 26 27  1  0  0  0  0
 27 21  1  0  0  0  0
 28 27  2  0  0  0  0
 28 51  1  0  0  0  0
 29 28  1  0  0  0  0
 30 31  1  0  0  0  0
 30 29  2  0  0  0  0
 31 26  2  0  0  0  0
 32 55  1  0  0  0  0
 32 57  1  0  0  0  0
 33 58  1  0  0  0  0
 34  3  1  0  0  0  0
 37  7  1  0  0  0  0
 38  9  1  0  0  0  0
 40 10  1  0  0  0  0
 42 12  1  0  0  0  0
 45 13  1  0  0  0  0
 47 17  1  0  0  0  0
 52 29  1  0  0  0  0
 53 30  1  0  0  0  0
 54 31  1  0  0  0  0
 56 32  1  0  0  0  0
M  END
>  <Pose>
1

>  <Score>
-7.31

$$$$
