
 OpenBabel03212208413D

 48 51  0  0  1  0  0  0  0  0999 V2000
   16.2030   31.2990   71.0000 Cl  0  0  0  0  0  0  0  0  0  0  0  0
   17.3750   30.5220   72.0590 C   0  0  0  0  0  0  0  0  0  0  0  0
   18.4250   31.2820   72.5160 C   0  0  0  0  0  0  0  0  0  0  0  0
   19.3300   30.6410   73.3470 C   0  0  0  0  0  0  0  0  0  0  0  0
   19.1550   29.3460   73.6630 N   0  0  0  0  0  0  0  0  0  0  0  0
   18.1490   28.6040   73.2300 N   0  0  0  0  0  0  0  0  0  0  0  0
   17.2520   29.1950   72.4210 C   0  0  0  0  0  0  0  0  0  0  0  0
   16.2650   28.5490   71.9690 O   0  0  0  0  0  0  0  0  0  0  0  0
   18.0170   27.2240   73.6040 C   0  0  0  0  0  0  0  0  0  0  0  0
   17.0240   26.8330   74.4790 C   0  0  0  0  0  0  0  0  0  0  0  0
   16.8830   25.4930   74.8510 C   0  0  0  0  0  0  0  0  0  0  0  0
   17.7350   24.5420   74.3510 C   0  0  0  0  0  0  0  0  0  0  0  0
   18.7280   24.9170   73.4810 C   0  0  0  0  0  0  0  0  0  0  0  0
   18.8520   26.2370   73.1240 C   0  0  0  0  0  0  0  0  0  0  0  0
   18.5330   32.6360   72.1330 N   0  0  0  0  0  0  0  0  0  0  0  0
   18.3880   33.7200   73.0990 C   0  0  0  0  0  0  0  0  0  0  0  0
   17.0790   34.4300   72.7020 C   0  0  0  0  0  0  0  0  0  0  0  0
   17.1050   34.7830   71.3170 N   0  0  0  0  0  0  0  0  0  0  0  0
   18.3570   34.5130   70.5790 C   0  0  0  0  0  0  0  0  0  0  0  0
   18.7930   33.0740   70.7740 C   0  0  0  0  0  0  0  0  0  0  0  0
   16.0080   35.3700   70.6340 C   0  0  0  0  0  0  0  0  0  0  0  0
   16.1840   36.2120   69.7030 O   0  0  0  0  0  0  0  0  0  0  0  0
   14.6050   35.0500   70.9520 C   0  0  1  0  0  0  0  0  0  0  0  0
   13.7600   35.9860   70.4400 O   0  0  0  0  0  0  0  0  0  0  0  0
   12.5630   35.3610   70.1130 C   0  0  0  0  0  0  0  0  0  0  0  0
   13.0690   34.0800   69.4650 C   0  0  0  0  0  0  0  0  0  0  0  0
   14.1880   33.7010   70.4120 C   0  0  0  0  0  0  0  0  0  0  0  0
   20.1610   31.2310   73.7130 H   0  0  0  0  0  0  0  0  0  0  0  0
   16.3200   27.5230   74.9090 H   0  0  0  0  0  0  0  0  0  0  0  0
   16.1100   25.1640   75.5370 H   0  0  0  0  0  0  0  0  0  0  0  0
   17.6490   23.4990   74.6230 H   0  0  0  0  0  0  0  0  0  0  0  0
   19.4170   24.2090   73.0650 H   0  0  0  0  0  0  0  0  0  0  0  0
   19.6310   26.5250   72.4440 H   0  0  0  0  0  0  0  0  0  0  0  0
   19.2170   34.4340   72.9660 H   0  0  0  0  0  0  0  0  0  0  0  0
   18.2500   33.3700   74.1180 H   0  0  0  0  0  0  0  0  0  0  0  0
   16.3020   33.6480   72.8590 H   0  0  0  0  0  0  0  0  0  0  0  0
   16.9160   35.2750   73.4010 H   0  0  0  0  0  0  0  0  0  0  0  0
   19.1220   35.1550   71.0560 H   0  0  0  0  0  0  0  0  0  0  0  0
   18.2360   34.7760   69.5290 H   0  0  0  0  0  0  0  0  0  0  0  0
   19.8820   33.0070   70.5500 H   0  0  0  0  0  0  0  0  0  0  0  0
   18.2770   32.4420   70.0250 H   0  0  0  0  0  0  0  0  0  0  0  0
   14.5600   34.9680   72.0640 H   0  0  0  0  0  0  0  0  0  0  0  0
   11.9390   35.1480   71.0000 H   0  0  0  0  0  0  0  0  0  0  0  0
   11.9840   35.9380   69.3820 H   0  0  0  0  0  0  0  0  0  0  0  0
   13.5090   34.3160   68.4880 H   0  0  0  0  0  0  0  0  0  0  0  0
   12.2760   33.3110   69.4330 H   0  0  0  0  0  0  0  0  0  0  0  0
   15.0100   33.1700   69.8940 H   0  0  0  0  0  0  0  0  0  0  0  0
   13.7240   33.0790   71.2030 H   0  0  0  0  0  0  0  0  0  0  0  0
  1  2  1  0  0  0  0
  2  7  1  0  0  0  0
  2  3  2  0  0  0  0
  3  4  1  0  0  0  0
  4  5  2  0  0  0  0
  4 28  1  0  0  0  0
  6  9  1  0  0  0  0
  6  5  1  0  0  0  0
  7  6  1  0  0  0  0
  8  7  2  0  0  0  0
  9 10  1  0  0  0  0
 10 11  2  0  0  0  0
 10 29  1  0  0  0  0
 11 30  1  0  0  0  0
 12 31  1  0  0  0  0
 12 11  1  0  0  0  0
 13 12  2  0  0  0  0
 14 13  1  0  0  0  0
 14  9  2  0  0  0  0
 15  3  1  0  0  0  0
 15 16  1  0  0  0  0
 16 35  1  0  0  0  0
 17 36  1  0  0  0  0
 17 16  1  0  0  0  0
 17 37  1  0  0  0  0
 18 17  1  0  0  0  0
 19 20  1  0  0  0  0
 19 38  1  0  0  0  0
 19 18  1  0  0  0  0
 20 15  1  0  0  0  0
 21 23  1  0  0  0  0
 21 18  1  0  0  0  0
 22 21  2  0  0  0  0
 23 42  1  1  0  0  0
 24 23  1  0  0  0  0
 25 24  1  0  0  0  0
 25 43  1  0  0  0  0
 26 25  1  0  0  0  0
 26 27  1  0  0  0  0
 27 23  1  0  0  0  0
 27 48  1  0  0  0  0
 32 13  1  0  0  0  0
 33 14  1  0  0  0  0
 34 16  1  0  0  0  0
 39 19  1  0  0  0  0
 40 20  1  0  0  0  0
 41 20  1  0  0  0  0
 44 25  1  0  0  0  0
 45 26  1  0  0  0  0
 46 26  1  0  0  0  0
 47 27  1  0  0  0  0
M  END
>  <Pose>
1

>  <Score>
-5.13

$$$$
