
 OpenBabel03212208413D

 50 53  0  0  0  0  0  0  0  0999 V2000
   20.2660   34.3180   70.1970 Cl  0  0  0  0  0  0  0  0  0  0  0  0
   20.9090   32.9310   71.0470 C   0  0  0  0  0  0  0  0  0  0  0  0
   20.0420   32.1100   71.7400 C   0  0  0  0  0  0  0  0  0  0  0  0
   20.6150   31.0330   72.3920 C   0  0  0  0  0  0  0  0  0  0  0  0
   21.9400   30.7980   72.3530 N   0  0  0  0  0  0  0  0  0  0  0  0
   22.7850   31.5740   71.6930 N   0  0  0  0  0  0  0  0  0  0  0  0
   22.2620   32.6320   71.0470 C   0  0  0  0  0  0  0  0  0  0  0  0
   23.0520   33.3690   70.4210 O   0  0  0  0  0  0  0  0  0  0  0  0
   24.1910   31.3160   71.6560 C   0  0  0  0  0  0  0  0  0  0  0  0
   25.0930   32.2440   72.1350 C   0  0  0  0  0  0  0  0  0  0  0  0
   26.4520   32.0040   72.1030 C   0  0  0  0  0  0  0  0  0  0  0  0
   26.9720   30.8310   71.5940 C   0  0  0  0  0  0  0  0  0  0  0  0
   26.0750   29.8990   71.1150 C   0  0  0  0  0  0  0  0  0  0  0  0
   24.7210   30.1450   71.1490 C   0  0  0  0  0  0  0  0  0  0  0  0
   18.6340   32.3490   71.7880 N   0  0  0  0  0  0  0  0  0  0  0  0
   18.0160   32.5370   73.0710 C   0  0  0  0  0  0  0  0  0  0  0  0
   16.6510   31.8880   73.1290 C   0  0  0  0  0  0  0  0  0  0  0  0
   15.9730   31.9450   71.8590 N   0  0  0  0  0  0  0  0  0  0  0  0
   16.4910   32.8180   70.8340 C   0  0  0  0  0  0  0  0  0  0  0  0
   17.9040   32.3870   70.5360 C   0  0  0  0  0  0  0  0  0  0  0  0
   14.8190   31.1530   71.6300 C   0  0  0  0  0  0  0  0  0  0  0  0
   14.7020   29.9900   72.1360 O   0  0  0  0  0  0  0  0  0  0  0  0
   13.6830   31.6230   70.7950 C   0  0  0  0  0  0  0  0  0  0  0  0
   13.0060   32.6990   71.3880 O   0  0  0  0  0  0  0  0  0  0  0  0
   12.9580   33.9300   70.7630 C   0  0  0  0  0  0  0  0  0  0  0  0
   11.9100   34.6030   70.2760 N   0  0  0  0  0  0  0  0  0  0  0  0
   12.2960   35.7270   69.7660 O   0  0  0  0  0  0  0  0  0  0  0  0
   13.6000   35.8810   69.8730 C   0  0  0  0  0  0  0  0  0  0  0  0
   14.0530   34.7440   70.5090 C   0  0  0  0  0  0  0  0  0  0  0  0
   14.3270   37.0660   69.3820 C   0  0  0  0  0  0  0  0  0  0  0  0
   19.9340   30.3720   72.9490 H   0  0  0  0  0  0  0  0  0  0  0  0
   24.7160   33.1730   72.5400 H   0  0  0  0  0  0  0  0  0  0  0  0
   27.1600   32.7310   72.4780 H   0  0  0  0  0  0  0  0  0  0  0  0
   28.0430   30.6530   71.5750 H   0  0  0  0  0  0  0  0  0  0  0  0
   26.5090   28.9850   70.7200 H   0  0  0  0  0  0  0  0  0  0  0  0
   24.0570   29.3910   70.7640 H   0  0  0  0  0  0  0  0  0  0  0  0
   18.6250   32.1130   73.8920 H   0  0  0  0  0  0  0  0  0  0  0  0
   17.9610   33.6410   73.2480 H   0  0  0  0  0  0  0  0  0  0  0  0
   16.7160   30.8850   73.5540 H   0  0  0  0  0  0  0  0  0  0  0  0
   16.0370   32.4950   73.8460 H   0  0  0  0  0  0  0  0  0  0  0  0
   16.5690   33.8430   71.2900 H   0  0  0  0  0  0  0  0  0  0  0  0
   15.8530   32.8540   69.9350 H   0  0  0  0  0  0  0  0  0  0  0  0
   17.9310   31.3960   70.0300 H   0  0  0  0  0  0  0  0  0  0  0  0
   18.3580   33.1800   69.8750 H   0  0  0  0  0  0  0  0  0  0  0  0
   12.9900   30.8010   70.5330 H   0  0  0  0  0  0  0  0  0  0  0  0
   14.0840   32.0070   69.8110 H   0  0  0  0  0  0  0  0  0  0  0  0
   15.0870   34.5550   70.7500 H   0  0  0  0  0  0  0  0  0  0  0  0
   15.4190   36.9130   69.3580 H   0  0  0  0  0  0  0  0  0  0  0  0
   14.1230   37.9700   70.0270 H   0  0  0  0  0  0  0  0  0  0  0  0
   13.9450   37.3270   68.3510 H   0  0  0  0  0  0  0  0  0  0  0  0
  1  2  1  0  0  0  0
  2  7  1  0  0  0  0
  2  3  2  0  0  0  0
  3 15  1  0  0  0  0
  3  4  1  0  0  0  0
  4 31  1  0  0  0  0
  5  4  2  0  0  0  0
  6  5  1  0  0  0  0
  7  6  1  0  0  0  0
  8  7  2  0  0  0  0
  9  6  1  0  0  0  0
  9 10  1  0  0  0  0
 10 32  1  0  0  0  0
 11 10  2  0  0  0  0
 11 33  1  0  0  0  0
 12 11  1  0  0  0  0
 13 14  1  0  0  0  0
 13 12  2  0  0  0  0
 14  9  2  0  0  0  0
 15 16  1  0  0  0  0
 16 17  1  0  0  0  0
 16 38  1  0  0  0  0
 16 37  1  0  0  0  0
 17 39  1  0  0  0  0
 17 40  1  0  0  0  0
 18 17  1  0  0  0  0
 19 41  1  0  0  0  0
 19 18  1  0  0  0  0
 20 19  1  0  0  0  0
 20 15  1  0  0  0  0
 21 18  1  0  0  0  0
 21 22  2  0  0  0  0
 23 24  1  0  0  0  0
 23 21  1  0  0  0  0
 25 24  1  0  0  0  0
 26 25  2  0  0  0  0
 27 28  1  0  0  0  0
 27 26  1  0  0  0  0
 28 29  2  0  0  0  0
 29 47  1  0  0  0  0
 29 25  1  0  0  0  0
 30 28  1  0  0  0  0
 30 49  1  0  0  0  0
 34 12  1  0  0  0  0
 35 13  1  0  0  0  0
 36 14  1  0  0  0  0
 42 19  1  0  0  0  0
 43 20  1  0  0  0  0
 44 20  1  0  0  0  0
 45 23  1  0  0  0  0
 46 23  1  0  0  0  0
 48 30  1  0  0  0  0
 50 30  1  0  0  0  0
M  END
>  <Pose>
1

>  <Score>
-6.36

$$$$
