
 OpenBabel03212208413D

 55 58  0  0  1  0  0  0  0  0999 V2000
   24.4470   31.4610   71.8250 B   0  0  0  0  0  0  0  0  0  0  0  0
   22.5940   31.2980   72.2680 C   0  0  0  0  0  0  0  0  0  0  0  0
   22.2540   31.2620   73.5890 C   0  0  0  0  0  0  0  0  0  0  0  0
   20.9420   31.1450   73.9430 C   0  0  0  0  0  0  0  0  0  0  0  0
   19.9030   31.0580   73.0360 C   0  0  0  0  0  0  0  0  0  0  0  0
   20.2750   31.0970   71.7090 C   0  0  0  0  0  0  0  0  0  0  0  0
   21.6070   31.2150   71.3160 C   0  0  0  0  0  0  0  0  0  0  0  0
   18.5390   30.9310   73.5220 C   0  0  2  0  0  0  0  0  0  0  0  0
   18.0040   29.6020   73.5000 N   0  0  0  0  0  0  0  0  0  0  0  0
   16.9900   29.4870   72.5140 C   0  0  0  0  0  0  0  0  0  0  0  0
   16.4070   28.4740   72.0570 O   0  0  0  0  0  0  0  0  0  0  0  0
   16.6600   30.8470   72.0300 C   0  0  0  0  0  0  0  0  0  0  0  0
   15.8090   31.1510   71.1570 O   0  0  0  0  0  0  0  0  0  0  0  0
   17.5280   31.7340   72.7810 C   0  0  0  0  0  0  0  0  0  0  0  0
   17.4030   33.0670   72.7540 C   0  0  0  0  0  0  0  0  0  0  0  0
   18.3560   33.7510   73.5200 O   0  0  0  0  0  0  0  0  0  0  0  0
   16.3670   33.7630   72.0010 C   0  0  0  0  0  0  0  0  0  0  0  0
   16.3100   34.9740   71.5640 O   0  0  0  0  0  0  0  0  0  0  0  0
   15.2180   35.2690   70.9230 C   0  0  0  0  0  0  0  0  0  0  0  0
   14.4190   34.1360   70.9100 C   0  0  0  0  0  0  0  0  0  0  0  0
   15.1750   33.1890   71.6050 C   0  0  0  0  0  0  0  0  0  0  0  0
   13.1930   34.1720   70.2910 C   0  0  0  0  0  0  0  0  0  0  0  0
   12.7450   35.3210   69.6810 C   0  0  0  0  0  0  0  0  0  0  0  0
   13.5380   36.4610   69.6890 C   0  0  0  0  0  0  0  0  0  0  0  0
   14.7500   36.4140   70.3030 C   0  0  0  0  0  0  0  0  0  0  0  0
   15.5620   37.5280   70.3280 O   0  0  0  0  0  0  0  0  0  0  0  0
   16.7800   37.6560   69.6060 C   0  0  0  0  0  0  0  0  0  0  0  0
   18.4130   28.5120   74.3420 C   0  0  0  0  0  0  0  0  0  0  0  0
   17.4790   28.3410   75.5260 C   0  0  0  0  0  0  0  0  0  0  0  0
   18.0770   28.6640   76.7760 N   0  0  0  0  0  4  0  0  0  0  0  0
   17.4610   28.0880   77.9320 C   0  0  0  0  0  0  0  0  0  0  0  0
   19.5050   28.3790   76.7600 C   0  0  0  0  0  0  0  0  0  0  0  0
   23.0170   31.3250   74.3740 H   0  0  0  0  0  0  0  0  0  0  0  0
   20.7180   31.1180   75.0190 H   0  0  0  0  0  0  0  0  0  0  0  0
   19.5160   31.0320   70.9690 H   0  0  0  0  0  0  0  0  0  0  0  0
   21.8640   31.2440   70.2800 H   0  0  0  0  0  0  0  0  0  0  0  0
   18.5360   31.2170   74.6190 H   0  0  0  0  0  0  0  0  0  0  0  0
   14.8340   32.1780   71.7770 H   0  0  0  0  0  0  0  0  0  0  0  0
   12.5670   33.2960   70.2790 H   0  0  0  0  0  0  0  0  0  0  0  0
   11.7920   35.3930   69.1880 H   0  0  0  0  0  0  0  0  0  0  0  0
   13.1530   37.3640   69.1920 H   0  0  0  0  0  0  0  0  0  0  0  0
   16.9350   38.7500   69.4010 H   0  0  0  0  0  0  0  0  0  0  0  0
   17.5750   37.2570   70.2500 H   0  0  0  0  0  0  0  0  0  0  0  0
   16.7750   37.1500   68.6380 H   0  0  0  0  0  0  0  0  0  0  0  0
   19.4620   28.6140   74.6840 H   0  0  0  0  0  0  0  0  0  0  0  0
   18.3740   27.5610   73.7680 H   0  0  0  0  0  0  0  0  0  0  0  0
   17.0900   27.2890   75.5220 H   0  0  0  0  0  0  0  0  0  0  0  0
   16.5590   28.9690   75.4090 H   0  0  0  0  0  0  0  0  0  0  0  0
   18.0010   29.7180   76.8970 H   0  0  0  0  0  0  0  0  0  0  0  0
   16.4640   28.5540   78.0890 H   0  0  0  0  0  0  0  0  0  0  0  0
   17.4330   26.9910   77.9380 H   0  0  0  0  0  0  0  0  0  0  0  0
   18.0870   28.3930   78.8100 H   0  0  0  0  0  0  0  0  0  0  0  0
   19.6710   27.3160   76.9790 H   0  0  0  0  0  0  0  0  0  0  0  0
   19.9210   28.5650   75.7500 H   0  0  0  0  0  0  0  0  0  0  0  0
   19.9920   29.0290   77.5100 H   0  0  0  0  0  0  0  0  0  0  0  0
  1  2  1  0  0  0  0
  2  3  1  0  0  0  0
  3  4  2  0  0  0  0
  3 33  1  0  0  0  0
  4 34  1  0  0  0  0
  5  8  1  0  0  0  0
  5  4  1  0  0  0  0
  6  5  2  0  0  0  0
  7  6  1  0  0  0  0
  7  2  2  0  0  0  0
  8 37  1  1  0  0  0
  9  8  1  0  0  0  0
  9 28  1  0  0  0  0
 10  9  1  0  0  0  0
 11 10  2  0  0  0  0
 12 10  1  0  0  0  0
 12 14  1  0  0  0  0
 13 12  2  0  0  0  0
 14  8  1  0  0  0  0
 15 14  2  0  0  0  0
 15 16  1  0  0  0  0
 17 15  1  0  0  0  0
 18 17  1  0  0  0  0
 19 18  1  0  0  0  0
 20 19  1  0  0  0  0
 20 21  1  0  0  0  0
 21 38  1  0  0  0  0
 21 17  2  0  0  0  0
 22 20  2  0  0  0  0
 23 24  2  0  0  0  0
 23 22  1  0  0  0  0
 24 25  1  0  0  0  0
 25 26  1  0  0  0  0
 25 19  2  0  0  0  0
 27 43  1  0  0  0  0
 27 26  1  0  0  0  0
 28 45  1  0  0  0  0
 28 29  1  0  0  0  0
 29 30  1  0  0  0  0
 30 49  1  0  0  0  0
 30 31  1  0  0  0  0
 31 51  1  0  0  0  0
 31 50  1  0  0  0  0
 31 52  1  0  0  0  0
 32 30  1  0  0  0  0
 32 53  1  0  0  0  0
 32 55  1  0  0  0  0
 35  6  1  0  0  0  0
 36  7  1  0  0  0  0
 39 22  1  0  0  0  0
 40 23  1  0  0  0  0
 41 24  1  0  0  0  0
 42 27  1  0  0  0  0
 44 27  1  0  0  0  0
 46 28  1  0  0  0  0
 47 29  1  0  0  0  0
 48 29  1  0  0  0  0
 54 32  1  0  0  0  0
M  END
>  <Pose>
1

>  <Score>
-6.43

$$$$
