
 OpenBabel03212208413D

 39 42  0  0  0  0  0  0  0  0999 V2000
   12.5820   35.2510   69.9610 B   0  0  0  0  0  0  0  0  0  0  0  0
   14.4030   35.8100   69.9980 C   0  0  0  0  0  0  0  0  0  0  0  0
   15.3400   34.9250   70.4560 C   0  0  0  0  0  0  0  0  0  0  0  0
   16.6360   35.3010   70.4910 N   0  0  0  0  0  0  0  0  0  0  0  0
   17.0100   36.5230   70.0830 C   0  0  0  0  0  0  0  0  0  0  0  0
   18.3210   36.9020   70.1180 N   0  0  0  0  0  0  0  0  0  0  0  0
   19.2740   36.0630   70.5610 C   0  0  0  0  0  0  0  0  0  0  0  0
   18.8700   34.8180   70.9730 C   0  0  0  0  0  0  0  0  0  0  0  0
   17.5560   34.4040   70.9510 C   0  0  0  0  0  0  0  0  0  0  0  0
   17.1680   33.2850   71.3180 O   0  0  0  0  0  0  0  0  0  0  0  0
   20.7010   36.5300   70.5690 C   0  0  0  0  0  0  0  0  0  0  0  0
   21.5760   35.6350   69.8370 N   0  0  0  0  0  0  0  0  0  0  0  0
   22.1340   35.7670   68.6250 C   0  0  0  0  0  0  0  0  0  0  0  0
   22.8880   34.6440   68.3020 C   0  0  0  0  0  0  0  0  0  0  0  0
   22.7660   33.8190   69.3690 N   0  0  0  0  0  0  0  0  0  0  0  0
   21.9880   34.4050   70.2830 C   0  0  0  0  0  0  0  0  0  0  0  0
   23.5640   34.5080   67.1430 N   0  0  0  0  0  0  0  0  0  0  0  0
   23.4810   35.5380   66.2800 C   0  0  0  0  0  0  0  0  0  0  0  0
   24.1060   35.4290   65.1900 O   0  0  0  0  0  0  0  0  0  0  0  0
   22.7680   36.6440   66.5430 N   0  0  0  0  0  0  0  0  0  0  0  0
   22.0900   36.7820   67.7020 C   0  0  0  0  0  0  0  0  0  0  0  0
   21.4250   37.8020   67.9650 O   0  0  0  0  0  0  0  0  0  0  0  0
   22.6810   37.7530   65.6090 C   0  0  0  0  0  0  0  0  0  0  0  0
   24.3320   33.3090   66.8660 C   0  0  0  0  0  0  0  0  0  0  0  0
   16.0670   37.4260   69.6170 C   0  0  0  0  0  0  0  0  0  0  0  0
   14.7420   37.0740   69.5710 C   0  0  0  0  0  0  0  0  0  0  0  0
   15.0640   33.9130   70.7980 H   0  0  0  0  0  0  0  0  0  0  0  0
   19.6140   34.1200   71.3280 H   0  0  0  0  0  0  0  0  0  0  0  0
   20.7450   37.5610   70.1820 H   0  0  0  0  0  0  0  0  0  0  0  0
   21.0300   36.5400   71.6260 H   0  0  0  0  0  0  0  0  0  0  0  0
   21.6930   34.0120   71.2510 H   0  0  0  0  0  0  0  0  0  0  0  0
   21.7470   38.3310   65.7520 H   0  0  0  0  0  0  0  0  0  0  0  0
   23.5930   38.3740   65.7610 H   0  0  0  0  0  0  0  0  0  0  0  0
   22.7190   37.3600   64.5580 H   0  0  0  0  0  0  0  0  0  0  0  0
   25.4140   33.4800   67.0520 H   0  0  0  0  0  0  0  0  0  0  0  0
   24.1300   33.0180   65.8040 H   0  0  0  0  0  0  0  0  0  0  0  0
   23.9450   32.4660   67.4820 H   0  0  0  0  0  0  0  0  0  0  0  0
   16.4040   38.4130   69.2930 H   0  0  0  0  0  0  0  0  0  0  0  0
   13.9890   37.7830   69.2030 H   0  0  0  0  0  0  0  0  0  0  0  0
  1  2  1  0  0  0  0
  2  3  1  0  0  0  0
  3  4  1  0  0  0  0
  3 27  1  0  0  0  0
  4  9  1  0  0  0  0
  5  6  1  0  0  0  0
  5  4  1  0  0  0  0
  6  7  2  0  0  0  0
  7 11  1  0  0  0  0
  7  8  1  0  0  0  0
  8 28  1  0  0  0  0
  9  8  1  0  0  0  0
  9 10  2  0  0  0  0
 11 30  1  0  0  0  0
 12 16  1  0  0  0  0
 12 11  1  0  0  0  0
 13 12  1  0  0  0  0
 14 13  2  0  0  0  0
 14 15  1  0  0  0  0
 15 16  2  0  0  0  0
 16 31  1  0  0  0  0
 17 14  1  0  0  0  0
 18 20  1  0  0  0  0
 18 17  1  0  0  0  0
 19 18  2  0  0  0  0
 20 21  1  0  0  0  0
 21 22  2  0  0  0  0
 21 13  1  0  0  0  0
 23 32  1  0  0  0  0
 23 33  1  0  0  0  0
 23 20  1  0  0  0  0
 24 35  1  0  0  0  0
 24 17  1  0  0  0  0
 24 37  1  0  0  0  0
 25  5  2  0  0  0  0
 26 25  1  0  0  0  0
 26  2  2  0  0  0  0
 29 11  1  0  0  0  0
 34 23  1  0  0  0  0
 36 24  1  0  0  0  0
 38 25  1  0  0  0  0
 39 26  1  0  0  0  0
M  END
>  <Pose>
1

>  <Score>
-5.99

$$$$
