
 OpenBabel03212208413D

 53 56  0  0  1  0  0  0  0  0999 V2000
   19.8440   34.4560   71.8610 S   0  0  0  0  0  0  0  0  0  0  0  0
   20.9020   33.5060   71.3310 O   0  0  0  0  0  0  0  0  0  0  0  0
   20.1720   34.6470   73.3280 O   0  0  0  0  0  0  0  0  0  0  0  0
   19.8860   35.8540   70.9700 N   0  0  0  0  0  0  0  0  0  0  0  0
   18.9510   36.1310   69.9770 C   0  0  0  0  0  0  0  0  0  0  0  0
   19.3950   37.3840   69.2110 C   0  0  0  0  0  0  0  0  0  0  0  0
   20.8430   37.3400   69.0030 N   0  0  0  0  0  0  0  0  0  0  0  0
   21.6570   37.2410   70.1990 C   0  0  0  0  0  0  0  0  0  0  0  0
   20.6900   36.9380   71.3530 C   0  0  0  0  0  0  0  0  0  0  0  0
   21.3820   37.3760   67.6870 C   0  0  0  0  0  0  0  0  0  0  0  0
   21.6030   38.5030   67.1830 O   0  0  0  0  0  0  0  0  0  0  0  0
   21.6610   36.1390   66.9580 C   0  0  0  0  0  0  0  0  0  0  0  0
   23.1390   35.7880   66.8720 C   0  0  2  0  0  0  0  0  0  0  0  0
   23.9320   36.3760   67.9190 N   0  0  0  0  0  0  0  0  0  0  0  0
   24.9190   37.3980   67.9140 C   0  0  0  0  0  0  0  0  0  0  0  0
   25.7520   37.4750   68.8550 O   0  0  0  0  0  0  0  0  0  0  0  0
   25.1110   38.4450   66.8880 C   0  0  0  0  0  0  0  0  0  0  0  0
   24.7280   38.3820   65.5430 C   0  0  0  0  0  0  0  0  0  0  0  0
   24.9720   39.4470   64.7230 C   0  0  0  0  0  0  0  0  0  0  0  0
   25.5930   40.6150   65.1700 C   0  0  0  0  0  0  0  0  0  0  0  0
   25.9610   40.6480   66.5160 C   0  0  0  0  0  0  0  0  0  0  0  0
   25.7220   39.5810   67.3530 C   0  0  0  0  0  0  0  0  0  0  0  0
   24.0860   37.2850   64.9110 N   0  0  0  0  0  0  0  0  0  0  0  0
   23.6280   36.0650   65.5040 C   0  0  0  0  0  0  0  0  0  0  0  0
   23.6650   35.0820   64.6830 O   0  0  0  0  0  0  0  0  0  0  0  0
   18.3070   33.5900   71.7670 C   0  0  0  0  0  0  0  0  0  0  0  0
   17.1730   34.0660   72.3830 C   0  0  0  0  0  0  0  0  0  0  0  0
   15.9980   33.3530   72.2850 C   0  0  0  0  0  0  0  0  0  0  0  0
   15.8890   32.1640   71.5880 C   0  0  0  0  0  0  0  0  0  0  0  0
   17.0360   31.6860   70.9660 C   0  0  0  0  0  0  0  0  0  0  0  0
   18.2070   32.4020   71.0680 C   0  0  0  0  0  0  0  0  0  0  0  0
   14.4160   31.2610   71.4580 Cl  0  0  0  0  0  0  0  0  0  0  0  0
   17.9080   36.3480   70.3560 H   0  0  0  0  0  0  0  0  0  0  0  0
   18.8470   35.3530   69.1830 H   0  0  0  0  0  0  0  0  0  0  0  0
   19.1750   38.2960   69.7880 H   0  0  0  0  0  0  0  0  0  0  0  0
   18.8620   37.4720   68.2460 H   0  0  0  0  0  0  0  0  0  0  0  0
   22.3300   36.3540   70.1580 H   0  0  0  0  0  0  0  0  0  0  0  0
   22.1800   38.1700   70.4140 H   0  0  0  0  0  0  0  0  0  0  0  0
   20.0970   37.8860   71.5150 H   0  0  0  0  0  0  0  0  0  0  0  0
   21.2670   36.7750   72.2960 H   0  0  0  0  0  0  0  0  0  0  0  0
   21.1970   35.2540   67.5000 H   0  0  0  0  0  0  0  0  0  0  0  0
   21.2010   36.1270   65.9510 H   0  0  0  0  0  0  0  0  0  0  0  0
   23.1870   34.6640   67.0140 H   0  0  0  0  0  0  0  0  0  0  0  0
   23.7840   36.0020   68.9090 H   0  0  0  0  0  0  0  0  0  0  0  0
   24.6800   39.3940   63.6930 H   0  0  0  0  0  0  0  0  0  0  0  0
   25.7780   41.4440   64.5190 H   0  0  0  0  0  0  0  0  0  0  0  0
   26.4390   41.5560   66.8560 H   0  0  0  0  0  0  0  0  0  0  0  0
   26.0060   39.6050   68.3910 H   0  0  0  0  0  0  0  0  0  0  0  0
   23.9350   37.3930   63.9090 H   0  0  0  0  0  0  0  0  0  0  0  0
   17.1710   34.9800   72.9410 H   0  0  0  0  0  0  0  0  0  0  0  0
   15.0840   33.7290   72.7750 H   0  0  0  0  0  0  0  0  0  0  0  0
   16.9650   30.7600   70.4230 H   0  0  0  0  0  0  0  0  0  0  0  0
   19.0750   32.0000   70.5750 H   0  0  0  0  0  0  0  0  0  0  0  0
  1  3  2  0  0  0  0
  2  1  2  0  0  0  0
  4  9  1  0  0  0  0
  4  1  1  0  0  0  0
  5 33  1  0  0  0  0
  5  4  1  0  0  0  0
  6 35  1  0  0  0  0
  6  5  1  0  0  0  0
  7  6  1  0  0  0  0
  7  8  1  0  0  0  0
  8 38  1  0  0  0  0
  8  9  1  0  0  0  0
  9 39  1  0  0  0  0
  9 40  1  0  0  0  0
 10  7  1  0  0  0  0
 11 10  2  0  0  0  0
 12 41  1  0  0  0  0
 12 10  1  0  0  0  0
 13 12  1  0  0  0  0
 13 43  1  1  0  0  0
 13 14  1  0  0  0  0
 14 44  1  0  0  0  0
 15 14  1  0  0  0  0
 15 16  2  0  0  0  0
 17 22  1  0  0  0  0
 17 15  1  0  0  0  0
 18 17  2  0  0  0  0
 19 20  2  0  0  0  0
 19 18  1  0  0  0  0
 20 21  1  0  0  0  0
 21 47  1  0  0  0  0
 21 22  2  0  0  0  0
 22 48  1  0  0  0  0
 23 24  1  0  0  0  0
 23 18  1  0  0  0  0
 24 13  1  0  0  0  0
 25 24  2  0  0  0  0
 26  1  1  0  0  0  0
 26 27  1  0  0  0  0
 27 50  1  0  0  0  0
 28 27  2  0  0  0  0
 28 51  1  0  0  0  0
 29 28  1  0  0  0  0
 30 31  1  0  0  0  0
 30 29  2  0  0  0  0
 31 26  2  0  0  0  0
 32 29  1  0  0  0  0
 34  5  1  0  0  0  0
 36  6  1  0  0  0  0
 37  8  1  0  0  0  0
 42 12  1  0  0  0  0
 45 19  1  0  0  0  0
 46 20  1  0  0  0  0
 49 23  1  0  0  0  0
 52 30  1  0  0  0  0
 53 31  1  0  0  0  0
M  END
>  <Pose>
1

>  <Score>
-7.58

$$$$
