
 OpenBabel03212208413D

 58 62  0  0  1  0  0  0  0  0999 V2000
   20.4470   32.7690   70.4760 B   0  0  0  0  0  0  0  0  0  0  0  0
   18.7920   32.1580   71.2490 C   0  0  0  0  0  0  0  0  0  0  0  0
   18.6500   31.9920   72.5920 C   0  0  0  0  0  0  0  0  0  0  0  0
   17.4750   31.5590   73.1350 C   0  0  0  0  0  0  0  0  0  0  0  0
   16.3730   31.2650   72.3570 C   0  0  0  0  0  0  0  0  0  0  0  0
   16.5120   31.4290   71.0210 C   0  0  0  0  0  0  0  0  0  0  0  0
   17.7250   31.8780   70.4430 C   0  0  0  0  0  0  0  0  0  0  0  0
   15.1680   30.8000   73.0100 C   0  0  0  0  0  0  0  0  0  0  0  0
   15.1870   30.0490   74.1970 C   0  0  0  0  0  0  0  0  0  0  0  0
   13.9210   29.8110   74.5170 N   0  0  0  0  0  0  0  0  0  0  0  0
   13.2010   29.1810   75.4960 C   0  0  0  0  0  0  0  0  0  0  0  0
   11.8860   29.3690   75.1540 C   0  0  0  0  0  0  0  0  0  0  0  0
   11.8650   30.0740   74.0330 N   0  0  0  0  0  0  0  0  0  0  0  0
   13.1340   30.3580   73.6220 C   0  0  1  0  0  0  0  0  0  0  0  0
   13.8870   30.9820   72.6680 N   0  0  0  0  0  0  0  0  0  0  0  0
   13.2780   31.6760   71.5750 C   0  0  0  0  0  0  0  0  0  0  0  0
   13.5570   33.1190   71.4470 C   0  0  0  0  0  0  0  0  0  0  0  0
   13.5720   33.7290   70.0920 C   0  0  0  0  0  0  0  0  0  0  0  0
   13.3650   35.1600   70.1400 N   0  0  0  0  0  4  0  0  0  0  0  0
   14.5780   35.9120   70.0100 C   0  0  0  0  0  0  0  0  0  0  0  0
   14.5490   37.2790   70.6340 C   0  0  0  0  0  0  0  0  0  0  0  0
   15.6920   38.0700   69.9810 C   0  0  0  0  0  0  0  0  0  0  0  0
   16.9800   37.3990   70.3100 C   0  0  0  0  0  0  0  0  0  0  0  0
   17.0050   35.9270   69.9720 C   0  0  0  0  0  0  0  0  0  0  0  0
   15.7990   35.2120   70.5910 C   0  0  0  0  0  0  0  0  0  0  0  0
   10.8490   28.8540   75.9390 C   0  0  0  0  0  0  0  0  0  0  0  0
   11.1470   28.1420   77.0800 C   0  0  0  0  0  0  0  0  0  0  0  0
   12.4750   27.9670   77.4000 C   0  0  0  0  0  0  0  0  0  0  0  0
   13.5110   28.4760   76.6260 C   0  0  0  0  0  0  0  0  0  0  0  0
   19.5020   32.2140   73.2550 H   0  0  0  0  0  0  0  0  0  0  0  0
   17.4250   31.4480   74.2380 H   0  0  0  0  0  0  0  0  0  0  0  0
   15.7680   31.2420   70.3000 H   0  0  0  0  0  0  0  0  0  0  0  0
   17.8270   32.0050   69.3800 H   0  0  0  0  0  0  0  0  0  0  0  0
   16.0640   29.7220   74.7480 H   0  0  0  0  0  0  0  0  0  0  0  0
   10.9850   30.3630   73.5660 H   0  0  0  0  0  0  0  0  0  0  0  0
   12.2230   31.4440   71.4690 H   0  0  0  0  0  0  0  0  0  0  0  0
   13.7540   31.2210   70.6130 H   0  0  0  0  0  0  0  0  0  0  0  0
   12.6930   33.6350   71.9880 H   0  0  0  0  0  0  0  0  0  0  0  0
   14.4350   33.4800   72.0670 H   0  0  0  0  0  0  0  0  0  0  0  0
   12.8060   33.3140   69.4060 H   0  0  0  0  0  0  0  0  0  0  0  0
   14.6140   33.5840   69.6890 H   0  0  0  0  0  0  0  0  0  0  0  0
   12.6160   35.5300   69.5600 H   0  0  0  0  0  0  0  0  0  0  0  0
   13.0240   35.3600   71.1500 H   0  0  0  0  0  0  0  0  0  0  0  0
   14.8460   36.0670   68.9210 H   0  0  0  0  0  0  0  0  0  0  0  0
   13.5990   37.8040   70.5340 H   0  0  0  0  0  0  0  0  0  0  0  0
   14.8530   37.1840   71.7160 H   0  0  0  0  0  0  0  0  0  0  0  0
   15.5170   38.1040   68.8760 H   0  0  0  0  0  0  0  0  0  0  0  0
   15.7140   39.0870   70.4080 H   0  0  0  0  0  0  0  0  0  0  0  0
   17.7820   37.8800   69.7140 H   0  0  0  0  0  0  0  0  0  0  0  0
   17.2040   37.5470   71.3830 H   0  0  0  0  0  0  0  0  0  0  0  0
   17.9240   35.5060   70.4120 H   0  0  0  0  0  0  0  0  0  0  0  0
   16.9630   35.8190   68.8870 H   0  0  0  0  0  0  0  0  0  0  0  0
   15.8350   35.3580   71.7000 H   0  0  0  0  0  0  0  0  0  0  0  0
   15.8010   34.1730   70.2650 H   0  0  0  0  0  0  0  0  0  0  0  0
    9.8150   28.9960   75.6790 H   0  0  0  0  0  0  0  0  0  0  0  0
   10.3600   27.7220   77.7220 H   0  0  0  0  0  0  0  0  0  0  0  0
   12.7070   27.4120   78.2900 H   0  0  0  0  0  0  0  0  0  0  0  0
   14.5430   28.3400   76.8770 H   0  0  0  0  0  0  0  0  0  0  0  0
  1  2  1  0  0  0  0
  2  3  1  0  0  0  0
  3  4  2  0  0  0  0
  3 30  1  0  0  0  0
  4 31  1  0  0  0  0
  5  8  1  0  0  0  0
  5  4  1  0  0  0  0
  6  5  2  0  0  0  0
  7  6  1  0  0  0  0
  7  2  2  0  0  0  0
  8  9  2  0  0  0  0
  9 10  1  0  0  0  0
  9 34  1  0  0  0  0
 10 11  1  0  0  0  0
 11 29  1  0  0  0  0
 12 11  2  0  0  0  0
 12 26  1  0  0  0  0
 13 12  1  0  0  0  0
 14 15  1  1  0  0  0
 14 13  1  0  0  0  0
 14 10  1  0  0  0  0
 15  8  1  0  0  0  0
 16 15  1  0  0  0  0
 17 16  1  0  0  0  0
 17 38  1  0  0  0  0
 17 39  1  0  0  0  0
 18 19  1  0  0  0  0
 18 17  1  0  0  0  0
 19 43  1  0  0  0  0
 20 19  1  0  0  0  0
 20 25  1  0  0  0  0
 20 21  1  0  0  0  0
 21 46  1  0  0  0  0
 22 23  1  0  0  0  0
 22 48  1  0  0  0  0
 22 21  1  0  0  0  0
 23 50  1  0  0  0  0
 24 23  1  0  0  0  0
 24 51  1  0  0  0  0
 24 25  1  0  0  0  0
 25 53  1  0  0  0  0
 26 27  2  0  0  0  0
 27 28  1  0  0  0  0
 27 56  1  0  0  0  0
 28 57  1  0  0  0  0
 29 58  1  0  0  0  0
 29 28  2  0  0  0  0
 32  6  1  0  0  0  0
 33  7  1  0  0  0  0
 35 13  1  0  0  0  0
 36 16  1  0  0  0  0
 37 16  1  0  0  0  0
 40 18  1  0  0  0  0
 41 18  1  0  0  0  0
 42 19  1  0  0  0  0
 44 20  1  0  0  0  0
 45 21  1  0  0  0  0
 47 22  1  0  0  0  0
 49 23  1  0  0  0  0
 52 24  1  0  0  0  0
 54 25  1  0  0  0  0
 55 26  1  0  0  0  0
M  END
>  <Pose>
1

>  <Score>
-6.68

$$$$
