
 OpenBabel03212208413D

 49 52  0  0  1  0  0  0  0  0999 V2000
   11.8620   28.6150   76.7600 B   0  0  0  0  0  0  0  0  0  0  0  0
   13.0070   29.2870   75.3960 C   0  0  0  0  0  0  0  0  0  0  0  0
   12.4870   29.8940   74.2740 C   0  0  0  0  0  0  0  0  0  0  0  0
   13.2920   30.3810   73.2880 C   0  0  0  0  0  0  0  0  0  0  0  0
   13.0860   31.0120   72.0970 N   0  0  0  0  0  0  0  0  0  0  0  0
   14.2530   31.2700   71.5270 N   0  0  0  0  0  0  0  0  0  0  0  0
   15.2580   30.8300   72.2960 C   0  0  0  0  0  0  0  0  0  0  0  0
   14.6540   30.2660   73.4130 C   0  0  0  0  0  0  0  0  0  0  0  0
   15.2060   29.6590   74.5350 C   0  0  0  0  0  0  0  0  0  0  0  0
   14.3910   29.1670   75.5300 C   0  0  0  0  0  0  0  0  0  0  0  0
   16.6610   30.8880   72.0970 N   0  0  0  0  0  0  0  0  0  0  0  0
   17.3740   31.5630   71.0140 C   0  0  0  0  0  0  0  0  0  0  0  0
   18.5770   32.1530   71.7160 C   0  0  2  0  0  0  0  0  0  0  0  0
   19.0020   31.0150   72.6360 C   0  0  0  0  0  0  0  0  0  0  0  0
   17.6980   30.3070   72.8930 C   0  0  0  0  0  0  0  0  0  0  0  0
   17.5320   29.3400   73.6950 O   0  0  0  0  0  0  0  0  0  0  0  0
   18.2190   33.3510   72.5130 C   0  0  0  0  0  0  0  0  0  0  0  0
   17.9170   33.1910   73.7210 O   0  0  0  0  0  0  0  0  0  0  0  0
   18.2060   34.6540   71.9650 N   0  0  0  0  0  0  0  0  0  0  0  0
   17.4170   35.0110   70.8140 C   0  0  0  0  0  0  0  0  0  0  0  0
   15.9560   34.7400   71.0990 C   0  0  0  0  0  0  0  0  0  0  0  0
   15.0950   35.0710   69.9900 N   0  0  0  0  0  0  0  0  0  0  0  0
   14.0050   34.1020   69.9800 C   0  0  0  0  0  0  0  0  0  0  0  0
   12.9020   34.5350   70.9420 C   0  0  0  0  0  0  0  0  0  0  0  0
   12.2520   35.6730   70.5240 O   0  0  0  0  0  0  0  0  0  0  0  0
   13.0640   36.3770   69.6660 C   0  0  0  0  0  0  0  0  0  0  0  0
   14.5100   36.3850   70.1210 C   0  0  0  0  0  0  0  0  0  0  0  0
   11.4160   29.9930   74.1600 H   0  0  0  0  0  0  0  0  0  0  0  0
   12.1080   31.2170   71.7740 H   0  0  0  0  0  0  0  0  0  0  0  0
   16.3000   29.5740   74.6200 H   0  0  0  0  0  0  0  0  0  0  0  0
   14.8420   28.6920   76.4050 H   0  0  0  0  0  0  0  0  0  0  0  0
   16.7590   32.3010   70.4870 H   0  0  0  0  0  0  0  0  0  0  0  0
   17.7420   30.8180   70.2810 H   0  0  0  0  0  0  0  0  0  0  0  0
   19.3970   32.3380   71.0030 H   0  0  0  0  0  0  0  0  0  0  0  0
   19.2820   31.4620   73.6120 H   0  0  0  0  0  0  0  0  0  0  0  0
   19.7540   30.3660   72.1960 H   0  0  0  0  0  0  0  0  0  0  0  0
   18.8080   35.3770   72.4350 H   0  0  0  0  0  0  0  0  0  0  0  0
   17.7020   34.2800   70.0050 H   0  0  0  0  0  0  0  0  0  0  0  0
   17.5990   36.0120   70.4290 H   0  0  0  0  0  0  0  0  0  0  0  0
   15.6340   35.3930   71.9510 H   0  0  0  0  0  0  0  0  0  0  0  0
   15.7880   33.6950   71.4280 H   0  0  0  0  0  0  0  0  0  0  0  0
   13.5640   33.9440   68.9980 H   0  0  0  0  0  0  0  0  0  0  0  0
   14.4210   33.1480   70.3740 H   0  0  0  0  0  0  0  0  0  0  0  0
   12.1780   33.6710   70.9600 H   0  0  0  0  0  0  0  0  0  0  0  0
   13.2930   34.7020   71.9650 H   0  0  0  0  0  0  0  0  0  0  0  0
   13.0210   36.0190   68.6200 H   0  0  0  0  0  0  0  0  0  0  0  0
   12.6940   37.4310   69.6650 H   0  0  0  0  0  0  0  0  0  0  0  0
   15.0260   37.1350   69.4700 H   0  0  0  0  0  0  0  0  0  0  0  0
   14.5720   36.7740   71.1630 H   0  0  0  0  0  0  0  0  0  0  0  0
  2 10  1  0  0  0  0
  2  1  1  0  0  0  0
  3  2  2  0  0  0  0
  4  8  2  0  0  0  0
  4  3  1  0  0  0  0
  5  4  1  0  0  0  0
  6  5  1  0  0  0  0
  6  7  2  0  0  0  0
  7  8  1  0  0  0  0
  8  9  1  0  0  0  0
  9 30  1  0  0  0  0
  9 10  2  0  0  0  0
 10 31  1  0  0  0  0
 11  7  1  0  0  0  0
 11 15  1  0  0  0  0
 12 13  1  0  0  0  0
 12 11  1  0  0  0  0
 13 34  1  6  0  0  0
 13 17  1  0  0  0  0
 13 14  1  0  0  0  0
 14 15  1  0  0  0  0
 14 35  1  0  0  0  0
 15 16  2  0  0  0  0
 17 18  2  0  0  0  0
 19 37  1  0  0  0  0
 19 17  1  0  0  0  0
 20 21  1  0  0  0  0
 20 19  1  0  0  0  0
 21 41  1  0  0  0  0
 21 40  1  0  0  0  0
 22 27  1  0  0  0  0
 22 21  1  0  0  0  0
 23 22  1  0  0  0  0
 23 43  1  0  0  0  0
 23 24  1  0  0  0  0
 24 44  1  0  0  0  0
 24 45  1  0  0  0  0
 25 24  1  0  0  0  0
 26 27  1  0  0  0  0
 26 25  1  0  0  0  0
 27 49  1  0  0  0  0
 28  3  1  0  0  0  0
 29  5  1  0  0  0  0
 32 12  1  0  0  0  0
 33 12  1  0  0  0  0
 36 14  1  0  0  0  0
 38 20  1  0  0  0  0
 39 20  1  0  0  0  0
 42 23  1  0  0  0  0
 46 26  1  0  0  0  0
 47 26  1  0  0  0  0
 48 27  1  0  0  0  0
M  END
>  <Pose>
1

>  <Score>
-6.60

$$$$
