
 OpenBabel03212208413D

 40 43  0  0  1  0  0  0  0  0999 V2000
   23.4620   33.3110   67.2750 Cl  0  0  0  0  0  0  0  0  0  0  0  0
   22.3390   34.0560   68.3920 C   0  0  0  0  0  0  0  0  0  0  0  0
   21.1450   33.5760   68.8360 N   0  0  0  0  0  0  0  0  0  0  0  0
   20.5550   34.4200   69.6850 C   0  0  0  0  0  0  0  0  0  0  0  0
   21.4520   35.4930   69.7690 C   0  0  0  0  0  0  0  0  0  0  0  0
   22.5530   35.2760   68.9750 C   0  0  0  0  0  0  0  0  0  0  0  0
   23.9400   36.3180   68.7430 Cl  0  0  0  0  0  0  0  0  0  0  0  0
   19.2960   34.3390   70.3790 C   0  0  0  0  0  0  0  0  0  0  0  0
   18.5560   35.4160   70.1970 O   0  0  0  0  0  0  0  0  0  0  0  0
   18.7650   33.3390   71.1780 N   0  0  0  0  0  0  0  0  0  0  0  0
   18.3660   32.0700   70.5230 C   0  0  0  0  0  0  0  0  0  0  0  0
   16.8870   31.9260   70.7670 C   0  0  0  0  0  0  0  0  0  0  0  0
   16.3260   32.9080   71.6400 N   0  0  0  0  0  0  0  0  0  0  0  0
   17.0440   33.5260   72.7450 C   0  0  0  0  0  0  0  0  0  0  0  0
   18.5420   33.3250   72.5760 C   0  0  0  0  0  0  0  0  0  0  0  0
   14.9850   33.3390   71.4500 C   0  0  2  0  0  0  0  0  0  0  0  0
   13.9470   32.5410   71.7610 N   0  0  0  0  0  0  0  0  0  0  0  0
   12.6630   32.9340   71.5850 C   0  0  0  0  0  0  0  0  0  0  0  0
   12.3880   34.1510   71.0870 N   0  0  0  0  0  0  0  0  0  0  0  0
   13.3670   35.0070   70.7520 C   0  0  0  0  0  0  0  0  0  0  0  0
   13.3590   36.2540   70.2460 N   0  0  0  0  0  0  0  0  0  0  0  0
   14.6170   36.6250   70.1110 N   0  0  0  0  0  0  0  0  0  0  0  0
   15.4520   35.6420   70.5210 C   0  0  0  0  0  0  0  0  0  0  0  0
   14.6870   34.5850   70.9400 C   0  0  0  0  0  0  0  0  0  0  0  0
   12.1980   37.0740   69.8980 C   0  0  0  0  0  0  0  0  0  0  0  0
   20.8280   32.6450   68.4990 H   0  0  0  0  0  0  0  0  0  0  0  0
   21.3570   36.4100   70.3620 H   0  0  0  0  0  0  0  0  0  0  0  0
   18.6330   32.1030   69.4580 H   0  0  0  0  0  0  0  0  0  0  0  0
   18.9270   31.2490   71.0370 H   0  0  0  0  0  0  0  0  0  0  0  0
   16.3980   31.8890   69.7720 H   0  0  0  0  0  0  0  0  0  0  0  0
   16.7060   30.9030   71.2100 H   0  0  0  0  0  0  0  0  0  0  0  0
   16.7010   33.1060   73.6950 H   0  0  0  0  0  0  0  0  0  0  0  0
   16.8300   34.6060   72.7120 H   0  0  0  0  0  0  0  0  0  0  0  0
   18.6880   32.2410   72.9570 H   0  0  0  0  0  0  0  0  0  0  0  0
   19.1180   33.9520   73.2250 H   0  0  0  0  0  0  0  0  0  0  0  0
   11.8490   32.2740   71.8430 H   0  0  0  0  0  0  0  0  0  0  0  0
   16.5140   35.6830   70.5190 H   0  0  0  0  0  0  0  0  0  0  0  0
   12.1720   37.1480   68.7800 H   0  0  0  0  0  0  0  0  0  0  0  0
   12.2470   38.0720   70.3550 H   0  0  0  0  0  0  0  0  0  0  0  0
   11.2700   36.5910   70.2210 H   0  0  0  0  0  0  0  0  0  0  0  0
  1  2  1  0  0  0  0
  2  3  1  0  0  0  0
  2  6  2  0  0  0  0
  3  4  1  0  0  0  0
  4  5  2  0  0  0  0
  4  8  1  0  0  0  0
  5 27  1  0  0  0  0
  6  5  1  0  0  0  0
  7  6  1  0  0  0  0
  8 10  1  0  0  0  0
  9  8  2  0  0  0  0
 10 15  1  0  0  0  0
 11 12  1  0  0  0  0
 11 29  1  0  0  0  0
 11 10  1  0  0  0  0
 12 31  1  0  0  0  0
 12 13  1  0  0  0  0
 13 14  1  0  0  0  0
 14 32  1  0  0  0  0
 15 14  1  0  0  0  0
 15 34  1  0  0  0  0
 15 35  1  0  0  0  0
 16 13  1  6  0  0  0
 16 17  1  0  0  0  0
 18 17  2  0  0  0  0
 18 36  1  0  0  0  0
 19 18  1  0  0  0  0
 20 24  2  0  0  0  0
 20 19  1  0  0  0  0
 21 20  1  0  0  0  0
 22 21  1  0  0  0  0
 22 23  2  0  0  0  0
 23 24  1  0  0  0  0
 24 16  1  0  0  0  0
 25 40  1  0  0  0  0
 25 21  1  0  0  0  0
 25 39  1  0  0  0  0
 26  3  1  0  0  0  0
 28 11  1  0  0  0  0
 30 12  1  0  0  0  0
 33 14  1  0  0  0  0
 37 23  1  0  0  0  0
 38 25  1  0  0  0  0
M  END
>  <Pose>
1

>  <Score>
-7.00

$$$$
