
 OpenBabel03212208413D

 55 59  0  0  1  0  0  0  0  0999 V2000
   13.0970   36.3910   69.5330 B   0  0  0  0  0  0  0  0  0  0  0  0
   13.9700   34.8690   70.2530 C   0  0  0  0  0  0  0  0  0  0  0  0
   13.2820   33.7420   70.5980 C   0  0  0  0  0  0  0  0  0  0  0  0
   13.9510   32.6520   71.1200 C   0  0  0  0  0  0  0  0  0  0  0  0
   15.3290   32.6170   71.3280 C   0  0  0  0  0  0  0  0  0  0  0  0
   16.0040   33.7460   70.9800 C   0  0  0  0  0  0  0  0  0  0  0  0
   15.3240   34.8670   70.4450 C   0  0  0  0  0  0  0  0  0  0  0  0
   15.9150   31.4010   71.9020 C   0  0  0  0  0  0  0  0  0  0  0  0
   15.1170   30.3940   72.4740 C   0  0  0  0  0  0  0  0  0  0  0  0
   15.9010   29.4040   72.8930 N   0  0  0  0  0  0  0  0  0  0  0  0
   15.8720   28.1850   73.4930 C   0  0  0  0  0  0  0  0  0  0  0  0
   17.1540   27.7640   73.5800 C   0  0  0  0  0  0  0  0  0  0  0  0
   17.9230   28.7210   73.0400 N   0  0  0  0  0  0  0  0  0  0  0  0
   17.1580   29.7490   72.6090 C   0  0  1  0  0  0  0  0  0  0  0  0
   17.1840   30.9780   71.9980 N   0  0  0  0  0  0  0  0  0  0  0  0
   18.3760   31.6170   71.5470 C   0  0  0  0  0  0  0  0  0  0  0  0
   18.8840   32.7370   72.4190 C   0  0  0  0  0  0  0  0  0  0  0  0
   20.2740   32.6520   72.8700 C   0  0  0  0  0  0  0  0  0  0  0  0
   21.2620   33.5150   72.2930 N   0  0  0  0  0  4  0  0  0  0  0  0
   22.0340   32.8600   71.2530 C   0  0  0  0  0  0  0  0  0  0  0  0
   21.4830   32.9290   69.8920 C   0  0  0  0  0  0  0  0  0  0  0  0
   20.3580   33.8700   69.6720 C   0  0  0  0  0  0  0  0  0  0  0  0
   20.4880   35.0760   70.5330 C   0  0  0  0  0  0  0  0  0  0  0  0
   20.8070   34.8180   71.9580 C   0  0  0  0  0  0  0  0  0  0  0  0
   17.4560   26.5400   74.1510 C   0  0  0  0  0  0  0  0  0  0  0  0
   16.4520   25.7230   74.6440 C   0  0  0  0  0  0  0  0  0  0  0  0
   15.1360   26.1560   74.5550 C   0  0  0  0  0  0  0  0  0  0  0  0
   14.8730   27.3790   73.9810 C   0  0  0  0  0  0  0  0  0  0  0  0
   12.2120   33.7340   70.4500 H   0  0  0  0  0  0  0  0  0  0  0  0
   13.3490   31.7830   71.3730 H   0  0  0  0  0  0  0  0  0  0  0  0
   17.0470   33.8270   71.1010 H   0  0  0  0  0  0  0  0  0  0  0  0
   15.8990   35.7370   70.1840 H   0  0  0  0  0  0  0  0  0  0  0  0
   14.0470   30.3640   72.5870 H   0  0  0  0  0  0  0  0  0  0  0  0
   18.9720   28.6830   72.9500 H   0  0  0  0  0  0  0  0  0  0  0  0
   18.3670   31.8880   70.4830 H   0  0  0  0  0  0  0  0  0  0  0  0
   19.1650   30.7740   71.5510 H   0  0  0  0  0  0  0  0  0  0  0  0
   18.2460   32.6800   73.3620 H   0  0  0  0  0  0  0  0  0  0  0  0
   18.5830   33.7380   72.0180 H   0  0  0  0  0  0  0  0  0  0  0  0
   20.6330   31.6000   72.6480 H   0  0  0  0  0  0  0  0  0  0  0  0
   20.3150   32.6820   74.0000 H   0  0  0  0  0  0  0  0  0  0  0  0
   21.9750   33.6340   73.0480 H   0  0  0  0  0  0  0  0  0  0  0  0
   23.0930   33.1970   71.2240 H   0  0  0  0  0  0  0  0  0  0  0  0
   22.1060   31.7810   71.5900 H   0  0  0  0  0  0  0  0  0  0  0  0
   21.1220   31.9060   69.5700 H   0  0  0  0  0  0  0  0  0  0  0  0
   22.2810   33.1630   69.1250 H   0  0  0  0  0  0  0  0  0  0  0  0
   20.3510   34.1900   68.6090 H   0  0  0  0  0  0  0  0  0  0  0  0
   19.3630   33.3490   69.8080 H   0  0  0  0  0  0  0  0  0  0  0  0
   19.5320   35.6560   70.4480 H   0  0  0  0  0  0  0  0  0  0  0  0
   21.2570   35.7490   70.0600 H   0  0  0  0  0  0  0  0  0  0  0  0
   19.8820   35.0090   72.5760 H   0  0  0  0  0  0  0  0  0  0  0  0
   21.5150   35.6270   72.2900 H   0  0  0  0  0  0  0  0  0  0  0  0
   18.4790   26.2010   74.2220 H   0  0  0  0  0  0  0  0  0  0  0  0
   16.6600   24.7600   75.0970 H   0  0  0  0  0  0  0  0  0  0  0  0
   14.3760   25.5000   74.9460 H   0  0  0  0  0  0  0  0  0  0  0  0
   13.8600   27.7040   73.9150 H   0  0  0  0  0  0  0  0  0  0  0  0
  1  2  1  0  0  0  0
  2  7  2  0  0  0  0
  2  3  1  0  0  0  0
  3  4  2  0  0  0  0
  4  5  1  0  0  0  0
  4 30  1  0  0  0  0
  5  8  1  0  0  0  0
  6 31  1  0  0  0  0
  6  5  2  0  0  0  0
  7  6  1  0  0  0  0
  8 15  1  0  0  0  0
  8  9  2  0  0  0  0
  9 33  1  0  0  0  0
  9 10  1  0  0  0  0
 10 11  1  0  0  0  0
 11 12  2  0  0  0  0
 11 28  1  0  0  0  0
 12 25  1  0  0  0  0
 13 12  1  0  0  0  0
 14 15  1  6  0  0  0
 14 10  1  0  0  0  0
 14 13  1  0  0  0  0
 16 36  1  0  0  0  0
 16 15  1  0  0  0  0
 16 17  1  0  0  0  0
 17 18  1  0  0  0  0
 17 37  1  0  0  0  0
 18 40  1  0  0  0  0
 19 18  1  0  0  0  0
 19 41  1  0  0  0  0
 20 43  1  0  0  0  0
 20 19  1  0  0  0  0
 21 20  1  0  0  0  0
 22 47  1  0  0  0  0
 22 21  1  0  0  0  0
 22 23  1  0  0  0  0
 23 24  1  0  0  0  0
 24 51  1  0  0  0  0
 24 19  1  0  0  0  0
 24 50  1  0  0  0  0
 25 52  1  0  0  0  0
 25 26  2  0  0  0  0
 26 53  1  0  0  0  0
 27 26  1  0  0  0  0
 27 54  1  0  0  0  0
 28 27  2  0  0  0  0
 29  3  1  0  0  0  0
 32  7  1  0  0  0  0
 34 13  1  0  0  0  0
 35 16  1  0  0  0  0
 38 17  1  0  0  0  0
 39 18  1  0  0  0  0
 42 20  1  0  0  0  0
 44 21  1  0  0  0  0
 45 21  1  0  0  0  0
 46 22  1  0  0  0  0
 48 23  1  0  0  0  0
 49 23  1  0  0  0  0
 55 28  1  0  0  0  0
M  END
>  <Pose>
1

>  <Score>
-6.36

$$$$
