
 OpenBabel03212208413D

 52 55  0  0  1  0  0  0  0  0999 V2000
   22.8080   34.6420   67.7590 Cl  0  0  0  0  0  0  0  0  0  0  0  0
   21.5970   35.2400   68.8880 C   0  0  0  0  0  0  0  0  0  0  0  0
   20.6890   34.3060   69.4090 C   0  0  0  0  0  0  0  0  0  0  0  0
   19.7500   34.7750   70.2860 C   0  0  0  0  0  0  0  0  0  0  0  0
   19.6960   36.1380   70.6480 C   0  0  0  0  0  0  0  0  0  0  0  0
   20.5890   37.0420   70.1310 C   0  0  0  0  0  0  0  0  0  0  0  0
   21.5330   36.5640   69.2490 C   0  0  0  0  0  0  0  0  0  0  0  0
   18.9230   33.6380   70.7110 C   0  0  2  0  0  0  0  0  0  0  0  0
   17.5250   33.8340   70.5630 N   0  0  0  0  0  0  0  0  0  0  0  0
   16.7990   33.1040   71.5060 C   0  0  1  0  0  0  0  0  0  0  0  0
   17.8020   32.7450   72.5810 C   0  0  2  0  0  0  0  0  0  0  0  0
   19.1070   33.3670   72.2030 C   0  0  1  0  0  0  0  0  0  0  0  0
   20.1750   32.3660   72.4640 C   0  0  0  0  0  0  0  0  0  0  0  0
   21.4000   32.6040   72.3520 O   0  0  0  0  0  0  0  0  0  0  0  0
   19.5450   31.1430   72.8490 N   0  0  0  0  0  0  0  0  0  0  0  0
   18.1420   31.3050   72.5960 C   0  0  0  0  0  0  0  0  0  0  0  0
   17.3490   30.3660   72.4190 O   0  0  0  0  0  0  0  0  0  0  0  0
   20.1570   29.9690   73.3900 C   0  0  0  0  0  0  0  0  0  0  0  0
   19.4310   29.3110   74.5080 C   0  0  0  0  0  0  0  0  0  0  0  0
   18.5150   28.1970   74.1440 C   0  0  0  0  0  0  0  0  0  0  0  0
   19.2540   27.0580   73.4520 C   0  0  0  0  0  0  0  0  0  0  0  0
   15.5410   33.6650   72.0450 C   0  0  0  0  0  0  0  0  0  0  0  0
   14.5050   34.1090   71.0910 C   0  0  0  0  0  0  0  0  0  0  0  0
   13.1470   33.5870   71.2720 C   0  0  0  0  0  0  0  0  0  0  0  0
   12.1570   34.2730   70.9550 O   0  0  0  0  0  0  0  0  0  0  0  0
   12.8800   32.2930   71.8070 N   0  0  0  0  0  0  0  0  0  0  0  0
   19.4410   32.4820   69.9730 C   0  0  0  0  0  0  0  0  0  0  0  0
   19.0320   31.2800   69.9830 O   0  0  0  0  0  0  0  0  0  0  0  0
   20.5390   32.9090   69.1890 N   0  0  0  0  0  0  0  0  0  0  0  0
   18.9350   36.4730   71.3470 H   0  0  0  0  0  0  0  0  0  0  0  0
   20.5770   38.0930   70.3880 H   0  0  0  0  0  0  0  0  0  0  0  0
   22.2470   37.2600   68.8300 H   0  0  0  0  0  0  0  0  0  0  0  0
   17.1700   33.8590   69.5930 H   0  0  0  0  0  0  0  0  0  0  0  0
   16.5230   32.1160   71.0230 H   0  0  0  0  0  0  0  0  0  0  0  0
   17.4580   33.0120   73.5930 H   0  0  0  0  0  0  0  0  0  0  0  0
   19.3560   34.2760   72.7500 H   0  0  0  0  0  0  0  0  0  0  0  0
   21.1670   30.2640   73.8030 H   0  0  0  0  0  0  0  0  0  0  0  0
   20.4040   29.2230   72.5950 H   0  0  0  0  0  0  0  0  0  0  0  0
   20.2130   28.8620   75.1910 H   0  0  0  0  0  0  0  0  0  0  0  0
   18.9380   30.0760   75.1600 H   0  0  0  0  0  0  0  0  0  0  0  0
   17.6730   28.4440   73.4940 H   0  0  0  0  0  0  0  0  0  0  0  0
   18.0860   27.8050   75.1100 H   0  0  0  0  0  0  0  0  0  0  0  0
   20.0490   27.4270   72.7720 H   0  0  0  0  0  0  0  0  0  0  0  0
   18.5530   26.4230   72.8620 H   0  0  0  0  0  0  0  0  0  0  0  0
   19.7610   26.4040   74.1900 H   0  0  0  0  0  0  0  0  0  0  0  0
   15.1560   32.9430   72.8140 H   0  0  0  0  0  0  0  0  0  0  0  0
   15.8150   34.5650   72.6730 H   0  0  0  0  0  0  0  0  0  0  0  0
   14.3930   35.2400   71.1070 H   0  0  0  0  0  0  0  0  0  0  0  0
   14.7780   33.9080   70.0250 H   0  0  0  0  0  0  0  0  0  0  0  0
   11.9510   31.8390   71.7690 H   0  0  0  0  0  0  0  0  0  0  0  0
   13.6530   31.7760   72.2590 H   0  0  0  0  0  0  0  0  0  0  0  0
   21.1530   32.3440   68.5560 H   0  0  0  0  0  0  0  0  0  0  0  0
  1  2  1  0  0  0  0
  2  7  2  0  0  0  0
  2  3  1  0  0  0  0
  3  4  2  0  0  0  0
  4  5  1  0  0  0  0
  4  8  1  0  0  0  0
  5 30  1  0  0  0  0
  6 31  1  0  0  0  0
  6  5  2  0  0  0  0
  7  6  1  0  0  0  0
  8 27  1  6  0  0  0
  8 12  1  0  0  0  0
  9  8  1  0  0  0  0
  9 10  1  0  0  0  0
 10 34  1  6  0  0  0
 10 22  1  0  0  0  0
 10 11  1  0  0  0  0
 11 16  1  0  0  0  0
 11 35  1  1  0  0  0
 12 13  1  0  0  0  0
 12 11  1  0  0  0  0
 12 36  1  1  0  0  0
 13 15  1  0  0  0  0
 14 13  2  0  0  0  0
 15 18  1  0  0  0  0
 16 15  1  0  0  0  0
 17 16  2  0  0  0  0
 18 37  1  0  0  0  0
 18 19  1  0  0  0  0
 19 40  1  0  0  0  0
 19 39  1  0  0  0  0
 20 19  1  0  0  0  0
 20 42  1  0  0  0  0
 21 20  1  0  0  0  0
 21 45  1  0  0  0  0
 22 47  1  0  0  0  0
 22 46  1  0  0  0  0
 23 48  1  0  0  0  0
 23 24  1  0  0  0  0
 23 22  1  0  0  0  0
 24 26  1  0  0  0  0
 25 24  2  0  0  0  0
 26 51  1  0  0  0  0
 27 28  2  0  0  0  0
 29  3  1  0  0  0  0
 29 27  1  0  0  0  0
 32  7  1  0  0  0  0
 33  9  1  0  0  0  0
 38 18  1  0  0  0  0
 41 20  1  0  0  0  0
 43 21  1  0  0  0  0
 44 21  1  0  0  0  0
 49 23  1  0  0  0  0
 50 26  1  0  0  0  0
 52 29  1  0  0  0  0
M  END
>  <Pose>
1

>  <Score>
-7.59

$$$$
