
 OpenBabel03212208413D

 62 65  0  0  1  0  0  0  0  0999 V2000
   22.4750   30.4890   78.0980 S   0  0  0  0  0  0  0  0  0  0  0  0
   22.8380   31.9580   78.0600 O   0  0  0  0  0  0  0  0  0  0  0  0
   21.0750   30.4220   78.6920 O   0  0  0  0  0  0  0  0  0  0  0  0
   22.4280   29.7680   76.5600 N   0  0  0  0  0  0  0  0  0  0  0  0
   23.6540   29.8230   75.8370 C   0  0  0  0  0  0  0  0  0  0  0  0
   23.6100   31.0120   74.8970 C   0  0  0  0  0  0  0  0  0  0  0  0
   22.6510   30.7050   73.8640 N   0  0  0  0  0  0  0  0  0  0  0  0
   21.5670   29.8880   74.2650 C   0  0  0  0  0  0  0  0  0  0  0  0
   21.3110   30.1390   75.7520 C   0  0  0  0  0  0  0  0  0  0  0  0
   23.2010   30.4870   72.5720 C   0  0  0  0  0  0  0  0  0  0  0  0
   23.0230   31.7170   71.7540 C   0  0  1  0  0  0  0  0  0  0  0  0
   24.0620   31.8770   70.6970 C   0  0  0  0  0  0  0  0  0  0  0  0
   25.0720   31.1360   70.6230 O   0  0  0  0  0  0  0  0  0  0  0  0
   23.8050   32.9190   69.8100 O   0  0  0  0  0  0  0  0  0  0  0  0
   22.5470   33.3800   69.4830 C   0  0  0  0  0  0  0  0  0  0  0  0
   21.4850   32.7780   70.0630 C   0  0  0  0  0  0  0  0  0  0  0  0
   21.7260   31.6900   70.9860 C   0  0  0  0  0  0  0  0  0  0  0  0
   20.9160   30.7630   71.1530 O   0  0  0  0  0  0  0  0  0  0  0  0
   20.1120   33.1990   69.7530 C   0  0  0  0  0  0  0  0  0  0  0  0
   19.4790   33.9700   70.7420 N   0  0  0  0  0  0  0  0  0  0  0  0
   19.0170   33.3870   71.9290 C   0  0  0  0  0  0  0  0  0  0  0  0
   17.9270   34.2720   72.5750 C   0  0  0  0  0  0  0  0  0  0  0  0
   17.0200   34.5860   71.5000 N   0  0  0  0  0  0  0  0  0  0  0  0
   17.5690   35.4890   70.4980 C   0  0  0  0  0  0  0  0  0  0  0  0
   19.0760   35.2900   70.4180 C   0  0  0  0  0  0  0  0  0  0  0  0
   15.7190   34.0540   71.4190 C   0  0  0  0  0  0  0  0  0  0  0  0
   15.4420   32.7050   71.4120 C   0  0  0  0  0  0  0  0  0  0  0  0
   14.1500   32.2400   71.3350 C   0  0  0  0  0  0  0  0  0  0  0  0
   13.0680   33.0860   71.2610 C   0  0  0  0  0  0  0  0  0  0  0  0
   13.3120   34.4350   71.2670 C   0  0  0  0  0  0  0  0  0  0  0  0
   14.6140   34.9080   71.3440 C   0  0  0  0  0  0  0  0  0  0  0  0
   13.8630   30.5210   71.3280 Cl  0  0  0  0  0  0  0  0  0  0  0  0
   23.5540   29.6870   79.2240 C   0  0  0  0  0  0  0  0  0  0  0  0
   23.6640   28.9180   75.1590 H   0  0  0  0  0  0  0  0  0  0  0  0
   24.5470   29.7630   76.4500 H   0  0  0  0  0  0  0  0  0  0  0  0
   23.2250   31.8840   75.4640 H   0  0  0  0  0  0  0  0  0  0  0  0
   24.5940   31.2710   74.5040 H   0  0  0  0  0  0  0  0  0  0  0  0
   21.6730   28.8140   74.0380 H   0  0  0  0  0  0  0  0  0  0  0  0
   20.6420   30.2360   73.7310 H   0  0  0  0  0  0  0  0  0  0  0  0
   21.0830   31.2330   75.8450 H   0  0  0  0  0  0  0  0  0  0  0  0
   20.3810   29.6190   76.0810 H   0  0  0  0  0  0  0  0  0  0  0  0
   24.2980   30.2750   72.6200 H   0  0  0  0  0  0  0  0  0  0  0  0
   22.6940   29.5930   72.1420 H   0  0  0  0  0  0  0  0  0  0  0  0
   23.0330   32.6050   72.3860 H   0  0  0  0  0  0  0  0  0  0  0  0
   22.3540   34.1860   68.7970 H   0  0  0  0  0  0  0  0  0  0  0  0
   19.5420   32.2680   69.4700 H   0  0  0  0  0  0  0  0  0  0  0  0
   20.1580   33.8190   68.8070 H   0  0  0  0  0  0  0  0  0  0  0  0
   19.7730   33.2540   72.7180 H   0  0  0  0  0  0  0  0  0  0  0  0
   18.4360   32.4470   71.7000 H   0  0  0  0  0  0  0  0  0  0  0  0
   17.4890   33.8220   73.4580 H   0  0  0  0  0  0  0  0  0  0  0  0
   18.4840   35.1740   72.9140 H   0  0  0  0  0  0  0  0  0  0  0  0
   17.1610   35.3170   69.5000 H   0  0  0  0  0  0  0  0  0  0  0  0
   17.4170   36.5190   70.8790 H   0  0  0  0  0  0  0  0  0  0  0  0
   19.3810   35.5250   69.3810 H   0  0  0  0  0  0  0  0  0  0  0  0
   19.6070   36.0150   71.0690 H   0  0  0  0  0  0  0  0  0  0  0  0
   16.2950   32.0150   71.4680 H   0  0  0  0  0  0  0  0  0  0  0  0
   12.0420   32.6980   71.2010 H   0  0  0  0  0  0  0  0  0  0  0  0
   12.4950   35.1600   71.2110 H   0  0  0  0  0  0  0  0  0  0  0  0
   14.8230   35.9740   71.3520 H   0  0  0  0  0  0  0  0  0  0  0  0
   24.5780   30.1060   79.2460 H   0  0  0  0  0  0  0  0  0  0  0  0
   23.1720   29.7880   80.2820 H   0  0  0  0  0  0  0  0  0  0  0  0
   23.6590   28.5970   79.0540 H   0  0  0  0  0  0  0  0  0  0  0  0
  1  3  2  0  0  0  0
  1 33  1  0  0  0  0
  2  1  2  0  0  0  0
  4  1  1  0  0  0  0
  5 35  1  0  0  0  0
  5  4  1  0  0  0  0
  6 36  1  0  0  0  0
  6  5  1  0  0  0  0
  7  8  1  0  0  0  0
  7  6  1  0  0  0  0
  8  9  1  0  0  0  0
  9 40  1  0  0  0  0
  9 41  1  0  0  0  0
  9  4  1  0  0  0  0
 10 42  1  0  0  0  0
 10  7  1  0  0  0  0
 11 44  1  1  0  0  0
 11 10  1  0  0  0  0
 12 11  1  0  0  0  0
 13 12  2  0  0  0  0
 14 12  1  0  0  0  0
 15 14  1  0  0  0  0
 15 16  2  0  0  0  0
 16 17  1  0  0  0  0
 17 18  2  0  0  0  0
 17 11  1  0  0  0  0
 19 16  1  0  0  0  0
 19 20  1  0  0  0  0
 20 21  1  0  0  0  0
 21 22  1  0  0  0  0
 21 48  1  0  0  0  0
 22 51  1  0  0  0  0
 22 50  1  0  0  0  0
 23 22  1  0  0  0  0
 24 53  1  0  0  0  0
 24 23  1  0  0  0  0
 25 24  1  0  0  0  0
 25 20  1  0  0  0  0
 25 55  1  0  0  0  0
 26 23  1  0  0  0  0
 27 26  1  0  0  0  0
 27 56  1  0  0  0  0
 28 27  2  0  0  0  0
 29 30  2  0  0  0  0
 29 28  1  0  0  0  0
 30 31  1  0  0  0  0
 31 59  1  0  0  0  0
 31 26  2  0  0  0  0
 32 28  1  0  0  0  0
 33 60  1  0  0  0  0
 33 61  1  0  0  0  0
 34  5  1  0  0  0  0
 37  6  1  0  0  0  0
 38  8  1  0  0  0  0
 39  8  1  0  0  0  0
 43 10  1  0  0  0  0
 45 15  1  0  0  0  0
 46 19  1  0  0  0  0
 47 19  1  0  0  0  0
 49 21  1  0  0  0  0
 52 24  1  0  0  0  0
 54 25  1  0  0  0  0
 57 29  1  0  0  0  0
 58 30  1  0  0  0  0
 62 33  1  0  0  0  0
M  END
>  <Pose>
1

>  <Score>
-5.89

$$$$
