/Users/jonathanwahrer/Desktop/Msc/3_Semester/Drug_Design_Praktikum/waehrer_HTS_screening/HTS_experiment/out/docking_results/vina_output/4agl/0002_docked.pdbqt
 OpenBabel03202222553D

 38 41  0  0  0  0  0  0  0  0999 V2000
   88.6840  100.2330  -43.2090 C   0  0  0  0  0  0  0  0  0  0  0  0
   87.3500  100.5410  -43.0420 N   0  0  0  0  0  0  0  0  0  0  0  0
   86.6590   99.7010  -43.7430 N   0  0  0  0  0  0  0  0  0  0  0  0
   87.5030   98.8390  -44.3750 N   0  0  0  0  0  0  0  0  0  0  0  0
   88.7620   99.1420  -44.0650 C   0  0  0  0  0  0  0  0  0  0  0  0
   89.7390  100.9710  -42.5580 C   0  0  0  0  0  0  0  0  0  0  0  0
   90.3350  100.7860  -41.3050 N   0  0  0  0  0  0  0  0  0  0  0  0
   90.1000  100.0630  -40.6450 H   0  0  0  0  0  0  0  0  0  0  0  0
   90.2070  101.9660  -43.2610 O   0  0  0  0  0  0  0  0  0  0  0  0
   91.3760  101.7110  -40.9490 N   0  0  0  0  0  0  0  0  0  0  0  0
   92.4520  101.2950  -40.3950 C   0  0  0  0  0  3  0  0  0  0  0  0
   93.5440  102.2000  -40.0140 C   0  0  0  0  0  0  0  0  0  0  0  0
   93.8360  102.4960  -38.6980 C   0  0  0  0  0  3  0  0  0  0  0  0
   94.8670  103.3510  -38.3470 C   0  0  0  0  0  0  0  0  0  0  0  0
   95.6480  103.9430  -39.3160 C   0  0  0  0  0  0  0  0  0  0  0  0
   95.2700  103.7590  -36.5230 Br  0  0  0  0  0  0  0  0  0  0  0  0
   95.3590  103.6500  -40.6350 C   0  0  0  0  0  0  0  0  0  0  0  0
   96.6950  104.8090  -38.9990 O   0  0  0  0  0  1  0  0  0  0  0  0
   96.4290  104.4600  -42.0080 Br  0  0  0  0  0  0  0  0  0  0  0  0
   94.3290  102.7970  -40.9780 C   0  0  0  0  0  0  0  0  0  0  0  0
   94.0290  102.4930  -42.3190 O   0  0  0  0  0  0  0  0  0  0  0  0
   93.3880  103.0820  -42.8270 H   0  0  0  0  0  0  0  0  0  0  0  0
   89.9990   98.4940  -44.4990 C   0  0  0  0  0  2  0  0  0  0  0  0
   90.9200   98.0210  -43.5350 N   0  0  0  0  0  4  0  0  0  0  0  0
   92.2200   98.6700  -43.6100 C   0  0  0  0  0  2  0  0  0  0  0  0
   92.7620   98.6300  -44.9820 C   0  0  0  0  0  2  0  0  0  0  0  0
   92.5020   97.5980  -45.7870 O   0  0  0  0  0  0  0  0  0  0  0  0
   91.6860   96.6010  -45.3610 C   0  0  0  0  0  2  0  0  0  0  0  0
   91.2750   96.6230  -43.9450 C   0  0  0  0  0  2  0  0  0  0  0  0
   90.5420   97.9910  -42.6000 H   0  0  0  0  0  0  0  0  0  0  0  0
   86.9640   97.8200  -45.2210 C   0  0  0  0  0  0  0  0  0  0  0  0
   87.3650   97.3330  -46.3880 N   0  0  0  0  0  0  0  0  0  0  0  0
   86.5450   96.3910  -46.7210 O   0  0  0  0  0  0  0  0  0  0  0  0
   85.6160   96.2250  -45.8330 N   0  0  0  0  0  0  0  0  0  0  0  0
   85.8180   97.0960  -44.8530 C   0  0  0  0  0  0  0  0  0  0  0  0
   85.0750   97.3040  -43.6630 N   0  0  0  0  0  0  0  0  0  0  0  0
   84.7560   96.4830  -43.1090 H   0  0  0  0  0  0  0  0  0  0  0  0
   84.8250   98.2720  -43.3090 H   0  0  0  0  0  0  0  0  0  0  0  0
  1  2  1  0  0  0  0
  1  6  1  0  0  0  0
  3  2  2  0  0  0  0
  4  5  1  0  0  0  0
  4  3  1  0  0  0  0
  5  1  2  0  0  0  0
  6  7  1  0  0  0  0
  7 10  1  0  0  0  0
  7  8  1  0  0  0  0
  9  6  2  0  0  0  0
 10 11  2  0  0  0  0
 11 12  1  0  0  0  0
 12 13  1  0  0  0  0
 13 14  2  0  0  0  0
 14 16  1  0  0  0  0
 15 18  1  0  0  0  0
 15 14  1  0  0  0  0
 17 15  2  0  0  0  0
 19 17  1  0  0  0  0
 20 17  1  0  0  0  0
 20 12  2  0  0  0  0
 21 20  1  0  0  0  0
 22 21  1  0  0  0  0
 23  5  1  0  0  0  0
 23 24  1  0  0  0  0
 24 30  1  0  0  0  0
 25 24  1  0  0  0  0
 26 25  1  0  0  0  0
 27 28  1  0  0  0  0
 27 26  1  0  0  0  0
 28 29  1  0  0  0  0
 29 24  1  0  0  0  0
 31 35  1  0  0  0  0
 31  4  1  0  0  0  0
 32 31  2  0  0  0  0
 33 32  1  0  0  0  0
 33 34  1  0  0  0  0
 34 35  2  0  0  0  0
 35 36  1  0  0  0  0
 36 38  1  0  0  0  0
 36 37  1  0  0  0  0
M  END
>  <Pose>
1

>  <Score>
-6.067

$$$$
