/Users/jonathanwahrer/Desktop/Msc/3_Semester/Drug_Design_Praktikum/waehrer_HTS_screening/HTS_experiment/out/docking_results/vina_output/4agl/0003_docked.pdbqt
 OpenBabel03202222553D

 38 41  0  0  0  0  0  0  0  0999 V2000
   90.8370   97.7070  -44.8850 C   0  0  0  0  0  0  0  0  0  0  0  0
   91.3360   96.5960  -45.5180 N   0  0  0  0  0  0  0  0  0  0  0  0
   90.4170   96.0900  -46.2930 N   0  0  0  0  0  0  0  0  0  0  0  0
   89.2980   96.7920  -46.2370 N   0  0  0  0  0  0  0  0  0  0  0  0
   89.5290   97.7960  -45.3740 C   0  0  0  0  0  0  0  0  0  0  0  0
   91.5690   98.5320  -43.9420 C   0  0  0  0  0  0  0  0  0  0  0  0
   91.3980   98.6500  -42.5690 N   0  0  0  0  0  0  0  0  0  0  0  0
   90.6940   98.1540  -41.9710 H   0  0  0  0  0  0  0  0  0  0  0  0
   92.5010   99.2470  -44.4700 O   0  0  0  0  0  0  0  0  0  0  0  0
   92.2750   99.5510  -41.8750 N   0  0  0  0  0  0  0  0  0  0  0  0
   91.8500  100.7240  -41.5650 C   0  0  0  0  0  3  0  0  0  0  0  0
   92.6550  101.7120  -40.8620 C   0  0  0  0  0  0  0  0  0  0  0  0
   92.3300  102.1200  -39.5960 C   0  0  0  0  0  3  0  0  0  0  0  0
   93.0870  103.0630  -38.9080 C   0  0  0  0  0  0  0  0  0  0  0  0
   94.2120  103.6170  -39.5120 C   0  0  0  0  0  0  0  0  0  0  0  0
   92.6000  103.6000  -37.1560 Br  0  0  0  0  0  0  0  0  0  0  0  0
   94.5420  103.2160  -40.7740 C   0  0  0  0  0  0  0  0  0  0  0  0
   96.0660  103.9440  -41.6320 Br  0  0  0  0  0  0  0  0  0  0  0  0
   93.7700  102.2680  -41.4480 C   0  0  0  0  0  0  0  0  0  0  0  0
   94.9520  104.5560  -38.8090 O   0  0  0  0  0  0  0  0  0  0  0  0
   94.7960  104.7110  -37.8270 H   0  0  0  0  0  0  0  0  0  0  0  0
   94.0890  101.8470  -42.7290 O   0  0  0  0  0  0  0  0  0  0  0  0
   94.1070  100.8600  -42.9520 H   0  0  0  0  0  0  0  0  0  0  0  0
   88.6010   98.8670  -45.0000 C   0  0  0  0  0  2  0  0  0  0  0  0
   87.9730   98.6910  -43.6880 N   0  0  0  0  0  0  0  0  0  0  0  0
   86.5250   98.4870  -43.8860 C   0  0  0  0  0  2  0  0  0  0  0  0
   85.9970   99.5040  -44.8370 C   0  0  0  0  0  2  0  0  0  0  0  0
   86.3290  100.7620  -44.3980 O   0  0  0  0  0  0  0  0  0  0  0  0
   86.8610  100.7990  -43.1350 C   0  0  0  0  0  2  0  0  0  0  0  0
   88.1020   99.9660  -42.9440 C   0  0  0  0  0  2  0  0  0  0  0  0
   88.1390   96.4980  -46.9970 C   0  0  0  0  0  0  0  0  0  0  0  0
   86.8640   96.3320  -46.5860 N   0  0  0  0  0  0  0  0  0  0  0  0
   86.0960   96.0830  -47.6140 O   0  0  0  0  0  0  0  0  0  0  0  0
   86.8010   96.0720  -48.7170 N   0  0  0  0  0  0  0  0  0  0  0  0
   88.0740   96.3270  -48.3710 C   0  0  0  0  0  0  0  0  0  0  0  0
   89.1450   96.4000  -49.2870 N   0  0  0  0  0  0  0  0  0  0  0  0
   89.5770   97.3220  -49.4790 H   0  0  0  0  0  0  0  0  0  0  0  0
   89.5200   95.5680  -49.7770 H   0  0  0  0  0  0  0  0  0  0  0  0
  1  6  1  0  0  0  0
  2  1  1  0  0  0  0
  3  4  1  0  0  0  0
  3  2  2  0  0  0  0
  4  5  1  0  0  0  0
  5 24  1  0  0  0  0
  5  1  2  0  0  0  0
  6  7  1  0  0  0  0
  7  8  1  0  0  0  0
  7 10  1  0  0  0  0
  9  6  2  0  0  0  0
 10 11  2  0  0  0  0
 11 12  1  0  0  0  0
 12 13  1  0  0  0  0
 13 14  2  0  0  0  0
 14 16  1  0  0  0  0
 15 14  1  0  0  0  0
 15 20  1  0  0  0  0
 17 15  2  0  0  0  0
 18 17  1  0  0  0  0
 19 12  2  0  0  0  0
 19 17  1  0  0  0  0
 20 21  1  0  0  0  0
 22 19  1  0  0  0  0
 23 22  1  0  0  0  0
 24 25  1  0  0  0  0
 25 30  1  0  0  0  0
 26 25  1  0  0  0  0
 27 28  1  0  0  0  0
 27 26  1  0  0  0  0
 28 29  1  0  0  0  0
 29 30  1  0  0  0  0
 31 32  2  0  0  0  0
 31  4  1  0  0  0  0
 33 32  1  0  0  0  0
 34 35  2  0  0  0  0
 34 33  1  0  0  0  0
 35 31  1  0  0  0  0
 36 35  1  0  0  0  0
 37 36  1  0  0  0  0
 38 36  1  0  0  0  0
M  END
>  <Pose>
1

>  <Score>
-5.526

$$$$
