/Users/jonathanwahrer/Desktop/Msc/3_Semester/Drug_Design_Praktikum/waehrer_HTS_screening/HTS_experiment/out/docking_results/vina_output/4agl/0004_docked.pdbqt
 OpenBabel03202222563D

 34 37  0  0  0  0  0  0  0  0999 V2000
   91.0760   90.6500  -48.9030 C   0  0  0  0  0  0  0  0  0  0  0  0
   90.4810   89.4610  -48.8590 N   0  0  0  0  0  4  0  0  0  0  0  0
   89.3850   89.1580  -49.6120 C   0  0  0  0  0  0  0  0  0  0  0  0
   88.9330   90.1260  -50.4060 N   0  0  0  0  0  0  0  0  0  0  0  0
   89.4770   91.3600  -50.5120 C   0  0  0  0  0  0  0  0  0  0  0  0
   90.5710   91.5790  -49.7230 N   0  0  0  0  0  2  0  0  0  0  0  0
   92.2180   90.9270  -48.1020 N   0  0  0  0  0  0  0  0  0  0  0  0
   93.0650   90.3490  -48.0830 H   0  0  0  0  0  0  0  0  0  0  0  0
   92.2130   92.0640  -47.2700 N   0  0  0  0  0  0  0  0  0  0  0  0
   91.5430   92.1330  -46.1880 C   0  0  0  0  0  3  0  0  0  0  0  0
   91.5220   93.2940  -45.3140 C   0  0  0  0  0  0  0  0  0  0  0  0
   91.9790   93.1880  -44.0220 C   0  0  0  0  0  3  0  0  0  0  0  0
   91.9690   94.2780  -43.1700 C   0  0  0  0  0  0  0  0  0  0  0  0
   91.5020   95.5070  -43.5800 C   0  0  0  0  0  0  0  0  0  0  0  0
   92.6130   94.1040  -41.3750 Br  0  0  0  0  0  0  0  0  0  0  0  0
   91.0400   95.6240  -44.8770 C   0  0  0  0  0  0  0  0  0  0  0  0
   90.3930   97.3320  -45.4380 Br  0  0  0  0  0  0  0  0  0  0  0  0
   91.0540   94.5260  -45.7230 C   0  0  0  0  0  0  0  0  0  0  0  0
   91.4850   96.6160  -42.7360 O   0  0  0  0  0  0  0  0  0  0  0  0
   91.5900   96.4850  -41.7440 H   0  0  0  0  0  0  0  0  0  0  0  0
   90.5910   94.6550  -47.0110 O   0  0  0  0  0  0  0  0  0  0  0  0
   89.8180   95.2920  -47.2280 H   0  0  0  0  0  0  0  0  0  0  0  0
   88.7690   87.8900  -49.5510 N   0  0  0  0  0  0  0  0  0  0  0  0
   87.3380   87.7750  -49.5980 C   0  0  0  0  0  2  0  0  0  0  0  0
   86.9240   86.8240  -48.4870 C   0  0  0  0  0  2  0  0  0  0  0  0
   87.7050   85.6750  -48.4670 O   0  0  0  0  0  0  0  0  0  0  0  0
   89.0390   85.9220  -48.2370 C   0  0  0  0  0  2  0  0  0  0  0  0
   89.5760   86.7080  -49.4400 C   0  0  0  0  0  2  0  0  0  0  0  0
   88.9640   92.3540  -51.3660 N   0  0  0  0  0  0  0  0  0  0  0  0
   89.7680   92.9080  -52.4100 C   0  0  0  0  0  2  0  0  0  0  0  0
   89.6980   94.4310  -52.2740 C   0  0  0  0  0  2  0  0  0  0  0  0
   88.9700   94.8180  -51.1700 O   0  0  0  0  0  0  0  0  0  0  0  0
   87.6810   94.3470  -51.1450 C   0  0  0  0  0  2  0  0  0  0  0  0
   87.6240   92.8240  -51.1990 C   0  0  0  0  0  2  0  0  0  0  0  0
  1  2  2  0  0  0  0
  1  7  1  0  0  0  0
  3 23  1  0  0  0  0
  3  2  2  0  0  0  0
  4  3  1  0  0  0  0
  5  4  2  0  0  0  0
  5  6  1  0  0  0  0
  6  1  1  0  0  0  0
  7  8  1  0  0  0  0
  7  9  1  0  0  0  0
  9 10  2  0  0  0  0
 10 11  1  0  0  0  0
 11 12  1  0  0  0  0
 12 13  2  0  0  0  0
 13 15  1  0  0  0  0
 14 13  1  0  0  0  0
 14 19  1  0  0  0  0
 16 14  2  0  0  0  0
 17 16  1  0  0  0  0
 18 11  2  0  0  0  0
 18 16  1  0  0  0  0
 19 20  1  0  0  0  0
 21 18  1  0  0  0  0
 22 21  1  0  0  0  0
 23 28  1  0  0  0  0
 24 23  1  0  0  0  0
 24 25  1  0  0  0  0
 25 26  1  0  0  0  0
 26 27  1  0  0  0  0
 28 27  1  0  0  0  0
 29 34  1  0  0  0  0
 29  5  1  0  0  0  0
 30 31  1  0  0  0  0
 30 29  1  0  0  0  0
 31 32  1  0  0  0  0
 32 33  1  0  0  0  0
 34 33  1  0  0  0  0
M  END
>  <Pose>
1

>  <Score>
-6.349

$$$$
