/Users/jonathanwahrer/Desktop/Msc/3_Semester/Drug_Design_Praktikum/waehrer_HTS_screening/HTS_experiment/out/docking_results/vina_output/4agl/0005_docked.pdbqt
 OpenBabel03202222573D

 38 41  0  0  1  0  0  0  0  0999 V2000
   88.9040   99.9050  -43.6060 N   0  0  0  0  0  0  0  0  0  0  0  0
   87.5500   99.7860  -43.6590 C   0  0  0  0  0  0  0  0  0  0  0  0
   86.9730  100.8290  -42.9840 C   0  0  0  0  0  0  0  0  0  0  0  0
   87.9790  101.5560  -42.5420 N   0  0  0  0  0  0  0  0  0  0  0  0
   89.1770  101.0220  -42.9060 C   0  0  0  0  0  0  0  0  0  0  0  0
   85.6230  101.0150  -42.8600 N   0  0  0  0  0  0  0  0  0  0  0  0
   84.8370  100.1060  -43.4500 C   0  0  0  0  0  0  0  0  0  0  0  0
   83.5910  100.2810  -43.3320 O   0  0  0  0  0  0  0  0  0  0  0  0
   85.3550   99.0640  -44.1280 N   0  0  0  0  0  2  0  0  0  0  0  0
   86.6770   98.8690  -44.2580 C   0  0  0  0  0  0  0  0  0  0  0  0
   87.1800   97.7990  -44.9620 O   0  0  0  0  0  0  0  0  0  0  0  0
   85.1210  102.1580  -42.1090 C   0  0  0  0  0  1  0  0  0  0  0  0
   89.8380   99.0120  -44.1920 C   0  0  0  0  0  2  0  0  0  0  0  0
   90.4850   97.9500  -43.4390 C   0  0  1  0  0  3  0  0  0  0  0  0
   91.4720   97.0010  -43.9720 C   0  0  0  0  0  2  0  0  0  0  0  0
   91.0300   95.6590  -43.7810 O   0  0  0  0  0  0  0  0  0  0  0  0
   91.2060   94.6260  -44.6330 C   0  0  0  0  0  0  0  0  0  0  0  0
   91.9410   93.5080  -44.2090 C   0  0  0  0  0  0  0  0  0  0  0  0
   92.6440   93.5320  -42.4290 Br  0  0  0  0  0  0  0  0  0  0  0  0
   92.1520   92.4320  -45.0320 C   0  0  0  0  0  3  0  0  0  0  0  0
   91.6430   92.4190  -46.3130 C   0  0  0  0  0  0  0  0  0  0  0  0
   90.9190   93.5040  -46.7520 C   0  0  0  0  0  3  0  0  0  0  0  0
   91.9870   90.8820  -47.3850 Br  0  0  0  0  0  0  0  0  0  0  0  0
   90.7140   94.5940  -45.8980 C   0  0  0  0  0  0  0  0  0  0  0  0
   89.7300   96.0410  -46.5930 Br  0  0  0  0  0  0  0  0  0  0  0  0
   90.8610   98.2000  -42.1070 O   0  0  0  0  0  0  0  0  0  0  0  0
   90.9590   99.1520  -41.9260 H   0  0  0  0  0  0  0  0  0  0  0  0
   90.4230  101.6920  -42.6460 N   0  0  0  0  0  0  0  0  0  0  0  0
   91.1070  102.5980  -43.4860 C   0  0  0  0  0  2  0  0  0  0  0  0
   92.3530  103.1100  -42.7110 C   0  0  0  0  0  2  0  0  0  0  0  0
   93.1580  101.9250  -42.4880 N   0  0  0  0  0  4  0  0  0  0  0  0
   92.5050  101.2910  -41.3280 C   0  0  0  0  0  2  0  0  0  0  0  0
   93.0990  101.2260  -43.2590 H   0  0  0  0  0  0  0  0  0  0  0  0
   91.0360  101.4370  -41.3350 C   0  0  0  0  0  2  0  0  0  0  0  0
   94.5270  102.2640  -42.1520 C   0  0  0  0  0  2  0  0  0  0  0  0
   94.7110  102.1180  -40.6570 C   0  0  0  0  0  2  0  0  0  0  0  0
   95.8920  101.4080  -40.4090 O   0  0  0  0  0  0  0  0  0  0  0  0
   95.9640  101.1680  -39.4440 H   0  0  0  0  0  0  0  0  0  0  0  0
  1  5  1  0  0  0  0
  2  1  1  0  0  0  0
  2  3  2  0  0  0  0
  3  6  1  0  0  0  0
  3  4  1  0  0  0  0
  5 28  1  0  0  0  0
  5  4  2  0  0  0  0
  6 12  1  0  0  0  0
  7  8  2  0  0  0  0
  7  6  1  0  0  0  0
  9  7  1  0  0  0  0
 10  9  1  0  0  0  0
 10  2  1  0  0  0  0
 11 10  2  0  0  0  0
 13  1  1  0  0  0  0
 14 13  1  6  0  0  0
 14 26  1  0  0  0  0
 15 16  1  0  0  0  0
 15 14  1  0  0  0  0
 17 18  1  0  0  0  0
 17 16  1  0  0  0  0
 18 19  1  0  0  0  0
 20 18  2  0  0  0  0
 21 20  1  0  0  0  0
 22 21  2  0  0  0  0
 22 24  1  0  0  0  0
 23 21  1  0  0  0  0
 24 17  2  0  0  0  0
 25 24  1  0  0  0  0
 26 27  1  0  0  0  0
 28 34  1  0  0  0  0
 29 30  1  0  0  0  0
 29 28  1  0  0  0  0
 30 31  1  0  0  0  0
 31 35  1  0  0  0  0
 31 32  1  0  0  0  0
 33 31  1  0  0  0  0
 34 32  1  0  0  0  0
 35 36  1  0  0  0  0
 36 37  1  0  0  0  0
 37 38  1  0  0  0  0
M  END
>  <Pose>
1

>  <Score>
-6.467

$$$$
