/Users/jonathanwahrer/Desktop/Msc/3_Semester/Drug_Design_Praktikum/waehrer_HTS_screening/HTS_experiment/out/docking_results/vina_output/4agl/0006_docked.pdbqt
 OpenBabel03202222573D

 34 37  0  0  0  0  0  0  0  0999 V2000
   91.2190   97.4110  -43.9290 N   0  0  0  0  0  0  0  0  0  0  0  0
   91.4500   96.1180  -43.5790 C   0  0  0  0  0  0  0  0  0  0  0  0
   91.6950   96.0310  -42.2370 C   0  0  0  0  0  0  0  0  0  0  0  0
   91.6090   97.2900  -41.7790 N   0  0  0  0  0  0  0  0  0  0  0  0
   91.3170   98.1390  -42.8140 C   0  0  0  0  0  0  0  0  0  0  0  0
   91.9540   94.7930  -41.6880 C   0  0  0  0  0  3  0  0  0  0  0  0
   91.9720   93.6400  -42.4560 C   0  0  0  0  0  3  0  0  0  0  0  0
   91.7210   93.7580  -43.8110 C   0  0  0  0  0  3  0  0  0  0  0  0
   91.4620   94.9970  -44.3630 C   0  0  0  0  0  3  0  0  0  0  0  0
   90.9240   97.9230  -45.2300 C   0  0  0  0  0  2  0  0  0  0  0  0
   92.0400   98.4390  -45.9840 C   0  0  0  0  0  0  0  0  0  0  0  0
   91.9050   99.3950  -47.0200 N   0  0  0  0  0  0  0  0  0  0  0  0
   90.9430   99.7320  -47.2390 H   0  0  0  0  0  0  0  0  0  0  0  0
   93.2020   98.0420  -45.7310 O   0  0  0  0  0  0  0  0  0  0  0  0
   92.9580   99.9090  -47.7590 N   0  0  0  0  0  0  0  0  0  0  0  0
   92.8380  100.3710  -48.9450 C   0  0  0  0  0  3  0  0  0  0  0  0
   94.0100  100.8840  -49.6250 C   0  0  0  0  0  0  0  0  0  0  0  0
   94.6810  100.1000  -50.5120 C   0  0  0  0  0  0  0  0  0  0  0  0
   95.7950  100.5970  -51.1540 C   0  0  0  0  0  0  0  0  0  0  0  0
   94.2560   98.8100  -50.7760 O   0  0  0  0  0  1  0  0  0  0  0  0
   96.7150   99.4870  -52.3870 Br  0  0  0  0  0  0  0  0  0  0  0  0
   96.2300  101.8860  -50.8980 C   0  0  0  0  0  3  0  0  0  0  0  0
   95.5400  102.6610  -49.9990 C   0  0  0  0  0  0  0  0  0  0  0  0
   94.4260  102.1910  -49.3460 C   0  0  0  0  0  3  0  0  0  0  0  0
   96.1520  104.4410  -49.6560 Br  0  0  0  0  0  0  0  0  0  0  0  0
   91.1520   99.5790  -42.6600 C   0  0  0  0  0  0  0  0  0  0  0  0
   90.0620  100.1920  -42.1810 N   0  0  0  0  0  0  0  0  0  0  0  0
   90.2690  101.4960  -42.1860 O   0  0  0  0  0  0  0  0  0  0  0  0
   91.4500  101.7610  -42.6490 N   0  0  0  0  0  0  0  0  0  0  0  0
   92.0410  100.5860  -42.9610 C   0  0  0  0  0  0  0  0  0  0  0  0
   93.3400  100.4160  -43.4980 N   0  0  0  0  0  4  0  0  0  0  0  0
   93.3330  100.2390  -44.5120 H   0  0  0  0  0  0  0  0  0  0  0  0
   93.7300   99.5440  -43.0460 H   0  0  0  0  0  0  0  0  0  0  0  0
   93.9910  101.2050  -43.2480 H   0  0  0  0  0  0  0  0  0  0  0  0
  1  2  1  0  0  0  0
  1  5  1  0  0  0  0
  2  3  1  0  0  0  0
  3  4  1  0  0  0  0
  3  6  2  0  0  0  0
  5 26  1  0  0  0  0
  5  4  2  0  0  0  0
  7  6  1  0  0  0  0
  8  7  2  0  0  0  0
  9  8  1  0  0  0  0
  9  2  2  0  0  0  0
 10  1  1  0  0  0  0
 11 14  2  0  0  0  0
 11 10  1  0  0  0  0
 12 11  1  0  0  0  0
 13 12  1  0  0  0  0
 15 12  1  0  0  0  0
 16 15  2  0  0  0  0
 17 24  1  0  0  0  0
 17 16  1  0  0  0  0
 18 17  2  0  0  0  0
 19 22  2  0  0  0  0
 19 18  1  0  0  0  0
 20 18  1  0  0  0  0
 21 19  1  0  0  0  0
 22 23  1  0  0  0  0
 23 25  1  0  0  0  0
 23 24  2  0  0  0  0
 26 27  2  0  0  0  0
 28 27  1  0  0  0  0
 29 28  1  0  0  0  0
 30 26  1  0  0  0  0
 30 29  2  0  0  0  0
 31 34  1  0  0  0  0
 31 33  1  0  0  0  0
 31 30  1  0  0  0  0
 32 31  1  0  0  0  0
M  END
>  <Pose>
1

>  <Score>
-6.438

$$$$
