/Users/jonathanwahrer/Desktop/Msc/3_Semester/Drug_Design_Praktikum/waehrer_HTS_screening/HTS_experiment/out/docking_results/vina_output/4agl/0011_docked.pdbqt
 OpenBabel03202222583D

 36 39  0  0  0  0  0  0  0  0999 V2000
   89.4360   89.5440  -50.4160 N   0  0  0  0  0  0  0  0  0  0  0  0
   88.1130   89.9510  -50.3400 C   0  0  0  0  0  0  0  0  0  0  0  0
   87.4940   89.1260  -49.4770 C   0  0  0  0  0  0  0  0  0  0  0  0
   88.4010   88.2620  -49.0490 N   0  0  0  0  0  0  0  0  0  0  0  0
   89.6320   88.5150  -49.6360 C   0  0  0  0  0  0  0  0  0  0  0  0
   86.1510   89.2470  -49.1560 C   0  0  0  0  0  3  0  0  0  0  0  0
   85.4640   90.2660  -49.7710 C   0  0  0  0  0  3  0  0  0  0  0  0
   86.0490   91.1400  -50.6680 C   0  0  0  0  0  3  0  0  0  0  0  0
   87.4030   90.9730  -50.9520 C   0  0  0  0  0  3  0  0  0  0  0  0
   90.3360   90.2470  -51.2330 C   0  0  0  0  0  2  0  0  0  0  0  0
   90.6020   91.6760  -50.7100 C   0  0  0  0  0  0  0  0  0  0  0  0
   90.8400   91.6690  -49.3750 N   0  0  0  0  0  0  0  0  0  0  0  0
   91.0250   93.0610  -49.4470 H   0  0  0  0  0  0  0  0  0  0  0  0
   90.5440   92.5250  -51.5980 O   0  0  0  0  0  0  0  0  0  0  0  0
   91.0580   91.6660  -48.1620 N   0  0  0  0  0  2  0  0  0  0  0  0
   91.2390   91.7470  -46.9970 C   0  0  0  0  0  2  0  0  0  0  0  0
   91.3440   92.8250  -46.0750 C   0  0  0  0  0  0  0  0  0  0  0  0
   90.9320   94.1130  -46.4470 C   0  0  0  0  0  3  0  0  0  0  0  0
   90.9710   95.2140  -45.6420 C   0  0  0  0  0  0  0  0  0  0  0  0
   91.4670   95.0440  -44.3260 C   0  0  0  0  0  0  0  0  0  0  0  0
   91.8840   93.7960  -43.9200 C   0  0  0  0  0  0  0  0  0  0  0  0
   91.5000   96.1470  -43.5230 O   0  0  0  0  0  1  0  0  0  0  0  0
   92.5270   93.5300  -42.1540 Br  0  0  0  0  0  0  0  0  0  0  0  0
   91.8180   92.7220  -44.7860 C   0  0  0  0  0  3  0  0  0  0  0  0
   90.5580   96.4770  -46.0210 O   0  0  0  0  0  0  0  0  0  0  0  0
   89.2410   96.7790  -46.3340 C   0  0  0  0  0  2  0  0  0  0  0  0
   88.5390   97.7280  -45.4050 C   0  0  0  0  0  1  0  0  0  0  0  0
   90.7240   87.6450  -49.2370 C   0  0  0  0  0  0  0  0  0  0  0  0
   90.6180   86.2560  -49.2660 N   0  0  0  0  0  0  0  0  0  0  0  0
   91.7090   85.7180  -48.8960 O   0  0  0  0  0  0  0  0  0  0  0  0
   92.5700   86.6090  -48.6080 N   0  0  0  0  0  0  0  0  0  0  0  0
   91.9880   87.8390  -48.8110 C   0  0  0  0  0  0  0  0  0  0  0  0
   92.6950   89.0420  -48.6020 N   0  0  0  0  0  4  0  0  0  0  0  0
   92.1970   89.8290  -49.1660 H   0  0  0  0  0  0  0  0  0  0  0  0
   93.6220   88.9880  -49.0410 H   0  0  0  0  0  0  0  0  0  0  0  0
   92.6070   89.3710  -47.6440 H   0  0  0  0  0  0  0  0  0  0  0  0
  1  2  1  0  0  0  0
  1  5  1  0  0  0  0
  2  3  1  0  0  0  0
  3  6  2  0  0  0  0
  3  4  1  0  0  0  0
  5 28  1  0  0  0  0
  5  4  2  0  0  0  0
  7  6  1  0  0  0  0
  8  7  2  0  0  0  0
  9  8  1  0  0  0  0
  9  2  2  0  0  0  0
 10 11  1  0  0  0  0
 10  1  1  0  0  0  0
 11 12  1  0  0  0  0
 12 15  1  0  0  0  0
 13 12  1  0  0  0  0
 14 11  2  0  0  0  0
 15 16  1  0  0  0  0
 16 17  1  0  0  0  0
 17 24  1  0  0  0  0
 18 17  2  0  0  0  0
 18 19  1  0  0  0  0
 19 20  2  0  0  0  0
 20 21  1  0  0  0  0
 20 22  1  0  0  0  0
 21 23  1  0  0  0  0
 24 21  2  0  0  0  0
 25 19  1  0  0  0  0
 26 25  1  0  0  0  0
 26 27  1  0  0  0  0
 28 32  1  0  0  0  0
 29 28  2  0  0  0  0
 29 30  1  0  0  0  0
 30 31  1  0  0  0  0
 32 31  2  0  0  0  0
 32 33  1  0  0  0  0
 33 36  1  0  0  0  0
 34 33  1  0  0  0  0
 35 33  1  0  0  0  0
M  END
>  <Pose>
1

>  <Score>
-7.064

$$$$
