/Users/jonathanwahrer/Desktop/Msc/3_Semester/Drug_Design_Praktikum/waehrer_HTS_screening/HTS_experiment/out/docking_results/vina_output/4agl/0018_docked.pdbqt
 OpenBabel03202222593D

 37 40  0  0  0  0  0  0  0  0999 V2000
   91.5520   97.9640  -42.4880 C   0  0  0  0  0  0  0  0  0  0  0  0
   92.0990   97.0950  -41.7120 N   0  0  0  0  0  0  0  0  0  0  0  0
   92.0380   95.8950  -42.2630 N   0  0  0  0  0  0  0  0  0  0  0  0
   91.4230   95.9940  -43.4330 N   0  0  0  0  0  0  0  0  0  0  0  0
   91.0490   97.2400  -43.6900 C   0  0  0  0  0  0  0  0  0  0  0  0
   91.6570   99.3930  -42.6800 C   0  0  0  0  0  0  0  0  0  0  0  0
   90.7180  100.2860  -42.0380 N   0  0  0  0  0  0  0  0  0  0  0  0
   89.8730  100.3700  -41.6550 H   0  0  0  0  0  0  0  0  0  0  0  0
   92.5980   99.8470  -43.3290 O   0  0  0  0  0  0  0  0  0  0  0  0
   91.5440  101.6500  -41.9730 N   0  0  0  0  0  2  0  0  0  0  0  0
   91.7280  101.6200  -40.6390 C   0  0  0  0  0  2  0  0  0  0  0  0
   92.2780  102.2580  -39.5640 C   0  0  0  0  0  0  0  0  0  0  0  0
   93.6110  102.4180  -39.2320 C   0  0  0  0  0  3  0  0  0  0  0  0
   94.0600  103.0860  -38.1160 C   0  0  0  0  0  0  0  0  0  0  0  0
   93.1270  103.6320  -37.2780 C   0  0  0  0  0  0  0  0  0  0  0  0
   91.7840  103.4990  -37.5620 C   0  0  0  0  0  0  0  0  0  0  0  0
   90.4980  104.2570  -36.3400 Br  0  0  0  0  0  0  0  0  0  0  0  0
   91.3450  102.8540  -38.6370 C   0  0  0  0  0  3  0  0  0  0  0  0
   95.4310  103.1850  -37.8530 O   0  0  0  0  0  0  0  0  0  0  0  0
   96.1940  104.2050  -38.5290 C   0  0  0  0  0  1  0  0  0  0  0  0
   93.5240  104.3260  -36.1320 O   0  0  0  0  0  0  0  0  0  0  0  0
   94.1360  105.1610  -36.2540 H   0  0  0  0  0  0  0  0  0  0  0  0
   90.4990   97.9240  -44.8240 C   0  0  0  0  0  2  0  0  0  0  0  0
   89.1280   97.5980  -45.2250 N   0  0  0  0  0  0  0  0  0  0  0  0
   88.7970   98.1240  -46.5100 C   0  0  0  0  0  2  0  0  0  0  0  0
   88.7030   99.6210  -46.5740 C   0  0  0  0  0  2  0  0  0  0  0  0
   87.5390  100.0390  -45.9500 O   0  0  0  0  0  0  0  0  0  0  0  0
   87.1140   99.0920  -45.0120 C   0  0  0  0  0  2  0  0  0  0  0  0
   88.2980   98.5050  -44.3200 C   0  0  0  0  0  2  0  0  0  0  0  0
   91.5840   94.9550  -44.4300 C   0  0  0  0  0  0  0  0  0  0  0  0
   91.7200   94.9520  -45.6900 N   0  0  0  0  0  0  0  0  0  0  0  0
   91.7820   93.7190  -46.1930 O   0  0  0  0  0  0  0  0  0  0  0  0
   91.6830   92.9170  -45.1950 N   0  0  0  0  0  0  0  0  0  0  0  0
   91.5530   93.5800  -44.0450 C   0  0  0  0  0  0  0  0  0  0  0  0
   91.4010   93.0560  -42.7500 N   0  0  0  0  0  0  0  0  0  0  0  0
   92.2030   92.8150  -42.1420 H   0  0  0  0  0  0  0  0  0  0  0  0
   90.4330   92.8890  -42.3120 H   0  0  0  0  0  0  0  0  0  0  0  0
  1  2  1  0  0  0  0
  3  2  2  0  0  0  0
  4  3  1  0  0  0  0
  5  4  1  0  0  0  0
  5  1  2  0  0  0  0
  6  1  1  0  0  0  0
  6  7  1  0  0  0  0
  7 10  1  0  0  0  0
  7  8  1  0  0  0  0
  9  6  2  0  0  0  0
 10 11  1  0  0  0  0
 11 12  1  0  0  0  0
 12 13  2  0  0  0  0
 12 18  1  0  0  0  0
 13 14  1  0  0  0  0
 14 19  1  0  0  0  0
 14 15  2  0  0  0  0
 15 21  1  0  0  0  0
 16 15  1  0  0  0  0
 16 17  1  0  0  0  0
 18 16  2  0  0  0  0
 20 19  1  0  0  0  0
 22 21  1  0  0  0  0
 23  5  1  0  0  0  0
 24 23  1  0  0  0  0
 24 29  1  0  0  0  0
 25 24  1  0  0  0  0
 26 25  1  0  0  0  0
 26 27  1  0  0  0  0
 27 28  1  0  0  0  0
 28 29  1  0  0  0  0
 30 34  1  0  0  0  0
 30  4  1  0  0  0  0
 31 30  2  0  0  0  0
 32 31  1  0  0  0  0
 32 33  1  0  0  0  0
 33 34  2  0  0  0  0
 34 35  1  0  0  0  0
 35 37  1  0  0  0  0
 35 36  1  0  0  0  0
M  END
>  <Pose>
1

>  <Score>
-6.346

$$$$
