/Users/jonathanwahrer/Desktop/Msc/3_Semester/Drug_Design_Praktikum/waehrer_HTS_screening/HTS_experiment/out/docking_results/vina_output/4agl/0020_docked.pdbqt
 OpenBabel03202223003D

 34 37  0  0  0  0  0  0  0  0999 V2000
   92.2500  100.0460  -44.5270 C   0  0  0  0  0  0  0  0  0  0  0  0
   92.9300  100.7060  -43.6090 N   0  0  0  0  0  4  0  0  0  0  0  0
   92.2920  101.3620  -42.5980 C   0  0  0  0  0  0  0  0  0  0  0  0
   90.9400  101.2840  -42.6060 N   0  0  0  0  0  0  0  0  0  0  0  0
   90.1930  100.6280  -43.5150 C   0  0  0  0  0  0  0  0  0  0  0  0
   90.8900  100.0040  -44.4910 N   0  0  0  0  0  2  0  0  0  0  0  0
   92.8590   99.1390  -45.5270 N   0  0  0  0  0  0  0  0  0  0  0  0
   93.7380   99.4400  -45.9000 H   0  0  0  0  0  0  0  0  0  0  0  0
   92.0960   98.0900  -45.7030 N   0  0  0  0  0  2  0  0  0  0  0  0
   91.4060   97.1670  -45.8460 C   0  0  0  0  0  2  0  0  0  0  0  0
   91.3920   95.8690  -45.1410 C   0  0  0  0  0  0  0  0  0  0  0  0
   91.4690   94.6500  -45.7500 C   0  0  0  0  0  3  0  0  0  0  0  0
   91.6700   93.4930  -45.0100 C   0  0  0  0  0  0  0  0  0  0  0  0
   91.7910   93.5610  -43.6230 C   0  0  0  0  0  0  0  0  0  0  0  0
   91.7060   94.7760  -43.0020 C   0  0  0  0  0  0  0  0  0  0  0  0
   91.8940   94.8760  -41.0950 Br  0  0  0  0  0  0  0  0  0  0  0  0
   91.5100   95.9030  -43.7700 C   0  0  0  0  0  3  0  0  0  0  0  0
   91.7600   92.2460  -45.5440 O   0  0  0  0  0  0  0  0  0  0  0  0
   91.2830   91.7640  -46.7500 C   0  0  0  0  0  2  0  0  0  0  0  0
   92.2860   90.8720  -47.4670 C   0  0  0  0  0  1  0  0  0  0  0  0
   91.9960   92.4410  -42.8470 O   0  0  0  0  0  0  0  0  0  0  0  0
   91.2700   91.9100  -42.4310 H   0  0  0  0  0  0  0  0  0  0  0  0
   92.9860  102.0070  -41.5480 N   0  0  0  0  0  0  0  0  0  0  0  0
   94.3200  102.5740  -41.8010 C   0  0  0  0  0  2  0  0  0  0  0  0
   95.1870  102.0960  -40.6080 C   0  0  0  0  0  2  0  0  0  0  0  0
   94.6760  102.7570  -39.5280 O   0  0  0  0  0  0  0  0  0  0  0  0
   93.4330  102.3320  -39.1530 C   0  0  0  0  0  2  0  0  0  0  0  0
   92.4440  102.0920  -40.2460 C   0  0  0  0  0  2  0  0  0  0  0  0
   88.8260  100.4670  -43.3740 N   0  0  0  0  0  0  0  0  0  0  0  0
   88.0940   99.4510  -42.7220 C   0  0  0  0  0  2  0  0  0  0  0  0
   87.2450   98.7660  -43.7960 C   0  0  0  0  0  2  0  0  0  0  0  0
   86.4920   99.7390  -44.4170 O   0  0  0  0  0  0  0  0  0  0  0  0
   87.2050  100.7220  -45.0630 C   0  0  0  0  0  2  0  0  0  0  0  0
   88.0000  101.5400  -44.0040 C   0  0  0  0  0  2  0  0  0  0  0  0
  1  6  1  0  0  0  0
  1  2  2  0  0  0  0
  2  3  2  0  0  0  0
  3 23  1  0  0  0  0
  4  3  1  0  0  0  0
  5 29  1  0  0  0  0
  5  4  2  0  0  0  0
  6  5  1  0  0  0  0
  7  1  1  0  0  0  0
  8  7  1  0  0  0  0
  9  7  1  0  0  0  0
 10  9  1  0  0  0  0
 10 11  1  0  0  0  0
 11 17  1  0  0  0  0
 12 11  2  0  0  0  0
 12 13  1  0  0  0  0
 13 14  2  0  0  0  0
 14 15  1  0  0  0  0
 14 21  1  0  0  0  0
 15 16  1  0  0  0  0
 17 15  2  0  0  0  0
 18 13  1  0  0  0  0
 19 18  1  0  0  0  0
 20 19  1  0  0  0  0
 21 22  1  0  0  0  0
 23 28  1  0  0  0  0
 24 23  1  0  0  0  0
 24 25  1  0  0  0  0
 25 26  1  0  0  0  0
 26 27  1  0  0  0  0
 28 27  1  0  0  0  0
 29 30  1  0  0  0  0
 31 30  1  0  0  0  0
 32 31  1  0  0  0  0
 33 32  1  0  0  0  0
 33 34  1  0  0  0  0
 34 29  1  0  0  0  0
M  END
>  <Pose>
1

>  <Score>
-6.439

$$$$
