/Users/jonathanwahrer/Desktop/Msc/3_Semester/Drug_Design_Praktikum/waehrer_HTS_screening/HTS_experiment/out/docking_results/vina_output/4agl/0026_docked.pdbqt
 OpenBabel03202223013D

 29 32  0  0  1  0  0  0  0  0999 V2000
   91.0380   97.6960  -45.4280 C   0  0  2  0  0  3  0  0  0  0  0  0
   92.0070   98.5220  -44.8360 N   0  0  0  0  0  4  0  0  0  0  0  0
   91.6260   99.7740  -44.3030 C   0  0  1  0  0  3  0  0  0  0  0  0
   90.3290  100.3310  -44.8240 C   0  0  0  0  0  2  0  0  0  0  0  0
   89.2620   99.3040  -44.8700 C   0  0  0  0  0  0  0  0  0  0  0  0
   87.9090   99.3660  -44.6680 C   0  0  0  0  0  0  0  0  0  0  0  0
   87.4600   98.0700  -44.8510 C   0  0  0  0  0  0  0  0  0  0  0  0
   88.5180   97.2720  -45.1530 N   0  0  0  0  0  0  0  0  0  0  0  0
   89.6260   98.0250  -45.1650 C   0  0  0  0  0  0  0  0  0  0  0  0
   86.1060   97.8550  -44.7020 C   0  0  0  0  0  3  0  0  0  0  0  0
   85.2400   98.8800  -44.3850 C   0  0  0  0  0  3  0  0  0  0  0  0
   85.6900  100.1710  -44.2020 C   0  0  0  0  0  3  0  0  0  0  0  0
   87.0470  100.4050  -44.3490 C   0  0  0  0  0  3  0  0  0  0  0  0
   92.5640   98.0070  -44.0950 H   0  0  0  0  0  0  0  0  0  0  0  0
   92.7640   98.7070  -45.5700 H   0  0  0  0  0  0  0  0  0  0  0  0
   88.3900   96.2520  -45.3300 H   0  0  0  0  0  0  0  0  0  0  0  0
   91.2380   96.2930  -44.9690 C   0  0  0  0  0  0  0  0  0  0  0  0
   91.2160   95.2230  -45.8390 C   0  0  0  0  0  3  0  0  0  0  0  0
   91.4080   93.9700  -45.2990 C   0  0  0  0  0  0  0  0  0  0  0  0
   91.6200   93.7370  -43.9570 C   0  0  0  0  0  0  0  0  0  0  0  0
   91.3830   92.4690  -46.4740 Br  0  0  0  0  0  0  0  0  0  0  0  0
   91.6410   94.8080  -43.0960 C   0  0  0  0  0  0  0  0  0  0  0  0
   91.9300   94.5280  -41.2380 Br  0  0  0  0  0  0  0  0  0  0  0  0
   91.4480   96.0880  -43.6230 C   0  0  0  0  0  3  0  0  0  0  0  0
   91.8090   92.4220  -43.4840 O   0  0  0  0  0  0  0  0  0  0  0  0
   92.7490   92.1410  -43.2430 H   0  0  0  0  0  0  0  0  0  0  0  0
   91.5370   99.7660  -42.8170 C   0  0  0  0  0  0  0  0  0  0  0  0
   92.1400   98.8510  -42.1590 O   0  0  0  0  0  1  0  0  0  0  0  0
   90.8020  100.7450  -42.1680 O   0  0  0  0  0  0  0  0  0  0  0  0
  1  9  1  0  0  0  0
  1 17  1  1  0  0  0
  1  2  1  0  0  0  0
  2  3  1  0  0  0  0
  2 14  1  0  0  0  0
  3 27  1  1  0  0  0
  4  3  1  0  0  0  0
  5  4  1  0  0  0  0
  5  6  1  0  0  0  0
  6 13  1  0  0  0  0
  7 10  1  0  0  0  0
  7  6  2  0  0  0  0
  8  7  1  0  0  0  0
  9  8  1  0  0  0  0
  9  5  2  0  0  0  0
 10 11  2  0  0  0  0
 11 12  1  0  0  0  0
 13 12  2  0  0  0  0
 15  2  1  0  0  0  0
 16  8  1  0  0  0  0
 17 24  1  0  0  0  0
 18 19  1  0  0  0  0
 18 17  2  0  0  0  0
 19 20  2  0  0  0  0
 20 25  1  0  0  0  0
 20 22  1  0  0  0  0
 21 19  1  0  0  0  0
 22 23  1  0  0  0  0
 24 22  2  0  0  0  0
 25 26  1  0  0  0  0
 27 29  2  0  0  0  0
 27 28  1  0  0  0  0
M  END
>  <Pose>
1

>  <Score>
-6.546

$$$$
