/Users/jonathanwahrer/Desktop/Msc/3_Semester/Drug_Design_Praktikum/waehrer_HTS_screening/HTS_experiment/out/docking_results/vina_output/4agl/0031_docked.pdbqt
 OpenBabel03202223013D

 24 27  0  0  1  0  0  0  0  0999 V2000
   91.7900   92.9510  -44.8800 Br  0  0  0  0  0  0  0  0  0  0  0  0
   91.7080   94.3890  -43.6100 C   0  0  0  0  0  0  0  0  0  0  0  0
   91.5540   95.6690  -44.0080 C   0  0  0  0  0  0  0  0  0  0  0  0
   91.5580   96.7330  -43.0600 C   0  0  0  0  0  0  0  0  0  0  0  0
   91.7300   96.4140  -41.7580 C   0  0  0  0  0  3  0  0  0  0  0  0
   91.8980   95.0980  -41.3710 C   0  0  0  0  0  3  0  0  0  0  0  0
   91.8870   94.0830  -42.2780 C   0  0  0  0  0  3  0  0  0  0  0  0
   91.7860   98.0560  -43.6750 C   0  0  0  0  0  2  0  0  0  0  0  0
   90.9140   99.1340  -43.4480 N   0  0  2  0  0  4  0  0  0  0  0  0
   89.6820   98.9700  -42.8580 C   0  0  0  0  0  2  0  0  0  0  0  0
   89.0180  100.2460  -42.6040 N   0  0  2  0  0  0  0  0  0  0  0  0
   88.8790  100.9280  -43.8810 C   0  0  0  0  0  2  0  0  0  0  0  0
   89.7680  101.1220  -41.7390 C   0  0  0  0  0  2  0  0  0  0  0  0
   90.1510  101.0890  -44.5550 N   0  0  2  0  0  0  0  0  0  0  0  0
   90.8460   99.8790  -44.7510 C   0  0  0  0  0  2  0  0  0  0  0  0
   90.9570  102.0060  -43.7750 C   0  0  0  0  0  2  0  0  0  0  0  0
   91.1130  101.3780  -42.4130 C   0  0  2  0  0  3  0  0  0  0  0  0
   91.7510  100.0510  -42.5980 C   0  0  0  0  0  2  0  0  0  0  0  0
   91.3910   95.9830  -45.3100 O   0  0  0  0  0  0  0  0  0  0  0  0
   90.1610   95.7830  -46.0360 C   0  0  0  0  0  2  0  0  0  0  0  0
   89.3880   96.9720  -46.3830 C   0  0  0  0  0  0  0  0  0  0  0  0
   89.5680   97.6680  -47.3720 O   0  0  0  0  0  0  0  0  0  0  0  0
   88.3340   97.3220  -45.5310 O   0  0  0  0  0  0  0  0  0  0  0  0
   87.3560   98.2690  -45.8710 C   0  0  0  0  0  1  0  0  0  0  0  0
  1  2  1  0  0  0  0
  2  7  1  0  0  0  0
  3  2  2  0  0  0  0
  3  4  1  0  0  0  0
  4  5  2  0  0  0  0
  5  6  1  0  0  0  0
  7  6  2  0  0  0  0
  8  4  1  0  0  0  0
  9  8  1  6  0  0  0
  9 10  1  0  0  0  0
  9 18  1  0  0  0  0
 10 11  1  0  0  0  0
 11 12  1  6  0  0  0
 11 13  1  0  0  0  0
 14 15  1  1  0  0  0
 14 12  1  0  0  0  0
 14 16  1  0  0  0  0
 15  9  1  0  0  0  0
 17 16  1  6  0  0  0
 17 13  1  0  0  0  0
 18 17  1  0  0  0  0
 19  3  1  0  0  0  0
 20 19  1  0  0  0  0
 21 20  1  0  0  0  0
 21 23  1  0  0  0  0
 22 21  2  0  0  0  0
 24 23  1  0  0  0  0
M  END
>  <Pose>
1

>  <Score>
-5.565

$$$$
