/Users/jonathanwahrer/Desktop/Msc/3_Semester/Drug_Design_Praktikum/waehrer_HTS_screening/HTS_experiment/out/docking_results/vina_output/4agl/0035_docked.pdbqt
 OpenBabel03202223023D

 33 36  0  0  0  0  0  0  0  0999 V2000
   90.4040   99.4100  -45.1500 C   0  0  0  0  0  0  0  0  0  0  0  0
   89.0710   99.5020  -45.1990 N   0  0  0  0  0  4  0  0  0  0  0  0
   88.3670  100.2910  -44.3440 C   0  0  0  0  0  0  0  0  0  0  0  0
   89.0350  101.0000  -43.4200 N   0  0  0  0  0  0  0  0  0  0  0  0
   90.3730  100.9290  -43.3450 C   0  0  0  0  0  0  0  0  0  0  0  0
   91.0450  100.1250  -44.2210 N   0  0  0  0  0  2  0  0  0  0  0  0
   91.0740   98.5790  -46.0710 N   0  0  0  0  0  0  0  0  0  0  0  0
   91.2410   98.9480  -47.0300 H   0  0  0  0  0  0  0  0  0  0  0  0
   91.5210   97.2750  -45.7200 N   0  0  0  0  0  0  0  0  0  0  0  0
   91.0690   96.6900  -44.6600 C   0  0  0  0  0  3  0  0  0  0  0  0
   91.4590   95.3720  -44.2230 C   0  0  0  0  0  0  0  0  0  0  0  0
   91.8670   95.1150  -42.9350 C   0  0  0  0  0  0  0  0  0  0  0  0
   91.8930   96.5800  -41.7160 Br  0  0  0  0  0  0  0  0  0  0  0  0
   92.2480   93.8510  -42.5230 C   0  0  0  0  0  0  0  0  0  0  0  0
   92.2190   92.8030  -43.4300 C   0  0  0  0  0  3  0  0  0  0  0  0
   91.8160   93.0340  -44.7260 C   0  0  0  0  0  0  0  0  0  0  0  0
   91.4420   94.3160  -45.1010 C   0  0  0  0  0  3  0  0  0  0  0  0
   92.6530   93.6240  -41.2200 O   0  0  0  0  0  0  0  0  0  0  0  0
   91.9790   93.2430  -40.5690 H   0  0  0  0  0  0  0  0  0  0  0  0
   91.8040   91.9590  -45.6000 O   0  0  0  0  0  0  0  0  0  0  0  0
   90.9680   91.5790  -46.0230 H   0  0  0  0  0  0  0  0  0  0  0  0
   86.9640  100.3120  -44.4790 N   0  0  0  0  0  0  0  0  0  0  0  0
   86.2920   99.1650  -45.0280 C   0  0  0  0  0  2  0  0  0  0  0  0
   85.2620   98.7540  -43.9630 C   0  0  0  0  0  2  0  0  0  0  0  0
   84.3930   99.8400  -43.8500 O   0  0  0  0  0  0  0  0  0  0  0  0
   85.0070  100.9430  -43.2650 C   0  0  0  0  0  2  0  0  0  0  0  0
   86.1730  101.4530  -44.0880 C   0  0  0  0  0  2  0  0  0  0  0  0
   91.0900  101.6780  -42.3640 N   0  0  0  0  0  0  0  0  0  0  0  0
   92.5300  101.6950  -42.2710 C   0  0  0  0  0  2  0  0  0  0  0  0
   92.9780  101.5260  -40.8340 C   0  0  0  0  0  2  0  0  0  0  0  0
   91.9120  101.3750  -39.9600 O   0  0  0  0  0  0  0  0  0  0  0  0
   91.0660  102.4950  -40.0730 C   0  0  0  0  0  2  0  0  0  0  0  0
   90.3410  102.4630  -41.4040 C   0  0  0  0  0  2  0  0  0  0  0  0
  1  6  1  0  0  0  0
  2  1  2  0  0  0  0
  2  3  2  0  0  0  0
  3  4  1  0  0  0  0
  4  5  2  0  0  0  0
  5 28  1  0  0  0  0
  6  5  1  0  0  0  0
  7  9  1  0  0  0  0
  7  1  1  0  0  0  0
  8  7  1  0  0  0  0
  9 10  2  0  0  0  0
 10 11  1  0  0  0  0
 11 12  1  0  0  0  0
 12 14  2  0  0  0  0
 12 13  1  0  0  0  0
 14 18  1  0  0  0  0
 15 14  1  0  0  0  0
 16 15  2  0  0  0  0
 17 16  1  0  0  0  0
 17 11  2  0  0  0  0
 18 19  1  0  0  0  0
 20 16  1  0  0  0  0
 21 20  1  0  0  0  0
 22  3  1  0  0  0  0
 22 27  1  0  0  0  0
 23 22  1  0  0  0  0
 23 24  1  0  0  0  0
 24 25  1  0  0  0  0
 25 26  1  0  0  0  0
 27 26  1  0  0  0  0
 28 29  1  0  0  0  0
 28 33  1  0  0  0  0
 29 30  1  0  0  0  0
 30 31  1  0  0  0  0
 32 31  1  0  0  0  0
 33 32  1  0  0  0  0
M  END
>  <Pose>
1

>  <Score>
-6.196

$$$$
