/Users/jonathanwahrer/Desktop/Msc/3_Semester/Drug_Design_Praktikum/waehrer_HTS_screening/HTS_experiment/out/docking_results/vina_output/4agl/0037_docked.pdbqt
 OpenBabel03202223023D

 27 30  0  0  1  0  0  0  0  0999 V2000
   91.1120   98.2340  -43.7740 N   0  0  0  0  0  0  0  0  0  0  0  0
   92.2270   99.1180  -43.5320 C   0  0  0  0  0  2  0  0  0  0  0  0
   91.6660  100.4530  -43.9710 C   0  0  1  0  0  3  0  0  0  0  0  0
   90.2960  100.4250  -43.3170 C   0  0  0  0  0  2  0  0  0  0  0  0
   89.9410   99.0010  -43.5580 C   0  0  0  0  0  0  0  0  0  0  0  0
   88.7720   98.5580  -43.5660 O   0  0  0  0  0  0  0  0  0  0  0  0
   92.4830  101.5870  -43.4900 C   0  0  0  0  0  0  0  0  0  0  0  0
   92.1430  102.7740  -43.7090 O   0  0  0  0  0  0  0  0  0  0  0  0
   93.6670  101.3200  -42.7710 N   0  0  0  0  0  0  0  0  0  0  0  0
   93.9560  100.3430  -42.5860 H   0  0  0  0  0  0  0  0  0  0  0  0
   94.4930  102.3950  -42.2800 C   0  0  0  0  0  2  0  0  0  0  0  0
   94.4010  102.5120  -40.7980 C   0  0  0  0  0  0  0  0  0  0  0  0
   93.3260  102.8850  -40.0590 N   0  0  0  0  0  0  0  0  0  0  0  0
   93.6500  102.8610  -38.7550 C   0  0  0  0  0  0  0  0  0  0  0  0
   91.9490  103.2990  -40.2580 C   0  0  0  0  0  2  0  0  0  0  0  0
   94.9480  102.4650  -38.7170 N   0  0  0  0  0  0  0  0  0  0  0  0
   92.4830  103.2690  -37.9070 C   0  0  0  0  0  2  0  0  0  0  0  0
   95.3990  102.2560  -39.9370 N   0  0  0  0  0  0  0  0  0  0  0  0
   91.5540  103.8960  -38.9230 C   0  0  0  0  0  2  0  0  0  0  0  0
   91.2460   96.8690  -44.1470 C   0  0  0  0  0  0  0  0  0  0  0  0
   91.5980   95.8610  -43.2760 C   0  0  0  0  0  3  0  0  0  0  0  0
   91.7300   94.5420  -43.6170 C   0  0  0  0  0  0  0  0  0  0  0  0
   91.4910   94.1970  -44.9420 C   0  0  0  0  0  0  0  0  0  0  0  0
   92.1100   93.4780  -42.6490 C   0  0  0  0  0  1  0  0  0  0  0  0
   91.6690   92.3690  -45.4520 Br  0  0  0  0  0  0  0  0  0  0  0  0
   91.1350   95.1620  -45.8620 C   0  0  0  0  0  3  0  0  0  0  0  0
   91.0150   96.4800  -45.4680 C   0  0  0  0  0  3  0  0  0  0  0  0
  1  5  1  0  0  0  0
  1  2  1  0  0  0  0
  3  2  1  0  0  0  0
  3  7  1  1  0  0  0
  3  4  1  0  0  0  0
  5  4  1  0  0  0  0
  6  5  2  0  0  0  0
  7  9  1  0  0  0  0
  8  7  2  0  0  0  0
  9 10  1  0  0  0  0
  9 11  1  0  0  0  0
 11 12  1  0  0  0  0
 12 13  1  0  0  0  0
 12 18  2  0  0  0  0
 13 14  1  0  0  0  0
 14 16  2  0  0  0  0
 14 17  1  0  0  0  0
 15 13  1  0  0  0  0
 15 19  1  0  0  0  0
 18 16  1  0  0  0  0
 19 17  1  0  0  0  0
 20  1  1  0  0  0  0
 20 21  1  0  0  0  0
 22 21  2  0  0  0  0
 22 24  1  0  0  0  0
 23 22  1  0  0  0  0
 25 23  1  0  0  0  0
 26 27  1  0  0  0  0
 26 23  2  0  0  0  0
 27 20  2  0  0  0  0
M  END
>  <Pose>
1

>  <Score>
-6.510

$$$$
