/Users/jonathanwahrer/Desktop/Msc/3_Semester/Drug_Design_Praktikum/waehrer_HTS_screening/HTS_experiment/out/docking_results/vina_output/4agl/0039_docked.pdbqt
 OpenBabel03202223023D

 21 23  0  0  1  0  0  0  0  0999 V2000
   91.4570   96.4210  -43.8350 N   0  0  0  0  0  0  0  0  0  0  0  0
   91.8580   97.6790  -44.2850 C   0  0  0  0  0  0  0  0  0  0  0  0
   92.2680   97.8520  -45.4420 O   0  0  0  0  0  0  0  0  0  0  0  0
   91.1200   96.3740  -42.8270 H   0  0  0  0  0  0  0  0  0  0  0  0
   91.7900   98.8250  -43.3570 C   0  0  0  0  0  2  0  0  0  0  0  0
   90.5870   99.5920  -43.3990 N   0  0  1  0  0  4  0  0  0  0  0  0
   90.4810  100.3180  -42.1240 C   0  0  0  0  0  2  0  0  0  0  0  0
   89.6070  101.5230  -42.3710 C   0  0  0  0  0  2  0  0  0  0  0  0
   88.5450  101.0720  -43.2700 N   0  0  1  0  0  0  0  0  0  0  0  0
   89.1320  101.0900  -44.6060 C   0  0  0  0  0  2  0  0  0  0  0  0
   88.2260   99.6850  -42.9710 C   0  0  0  0  0  2  0  0  0  0  0  0
   90.5510  100.5490  -44.5010 C   0  0  0  0  0  2  0  0  0  0  0  0
   89.3750   98.8030  -43.4870 C   0  0  0  0  0  2  0  0  0  0  0  0
   91.4380   95.1960  -44.5420 C   0  0  0  0  0  0  0  0  0  0  0  0
   91.8080   94.0020  -43.9070 C   0  0  0  0  0  0  0  0  0  0  0  0
   92.3270   94.1540  -42.0620 Br  0  0  0  0  0  0  0  0  0  0  0  0
   91.8100   92.7840  -44.5410 C   0  0  0  0  0  3  0  0  0  0  0  0
   91.4410   92.6600  -45.8590 C   0  0  0  0  0  0  0  0  0  0  0  0
   91.0740   93.8160  -46.5030 C   0  0  0  0  0  3  0  0  0  0  0  0
   91.4390   91.3400  -46.5600 C   0  0  0  0  0  1  0  0  0  0  0  0
   91.0710   95.0590  -45.8640 C   0  0  0  0  0  3  0  0  0  0  0  0
  1  4  1  0  0  0  0
  2  1  1  0  0  0  0
  2  5  1  0  0  0  0
  3  2  2  0  0  0  0
  6  5  1  6  0  0  0
  6  7  1  0  0  0  0
  8  7  1  0  0  0  0
  9 10  1  6  0  0  0
  9 11  1  0  0  0  0
  9  8  1  0  0  0  0
 10 12  1  0  0  0  0
 12  6  1  0  0  0  0
 13  6  1  0  0  0  0
 13 11  1  0  0  0  0
 14 15  1  0  0  0  0
 14  1  1  0  0  0  0
 15 16  1  0  0  0  0
 17 15  2  0  0  0  0
 18 17  1  0  0  0  0
 19 21  1  0  0  0  0
 19 18  2  0  0  0  0
 20 18  1  0  0  0  0
 21 14  2  0  0  0  0
M  END
>  <Pose>
1

>  <Score>
-5.859

$$$$
