/Users/jonathanwahrer/Desktop/Msc/3_Semester/Drug_Design_Praktikum/waehrer_HTS_screening/HTS_experiment/out/docking_results/vina_output/4agl/0056_docked.pdbqt
 OpenBabel03202223023D

 24 27  0  0  1  0  0  0  0  0999 V2000
   90.3810   97.3980  -44.7770 C   0  0  1  0  0  3  0  0  0  0  0  0
   90.0390   98.6930  -44.3830 C   0  0  1  0  0  0  0  0  0  0  0  0
   90.7430   99.9600  -44.0470 C   0  0  0  0  0  0  0  0  0  0  0  0
   90.6040  100.5310  -45.4110 N   0  0  0  0  0  2  0  0  0  0  0  0
   90.7980   99.5730  -46.2620 C   0  0  1  0  0  3  0  0  0  0  0  0
   91.0700   98.3870  -45.5120 C   0  0  2  0  0  0  0  0  0  0  0  0
   92.5170   98.4140  -45.1430 C   0  0  0  0  0  0  0  0  0  0  0  0
   93.6660   98.4090  -44.8600 N   0  0  0  0  0  0  0  0  0  0  0  0
   89.9350  100.6860  -43.1650 O   0  0  0  0  0  0  0  0  0  0  0  0
   90.7310  101.0540  -42.0980 C   0  0  0  0  0  2  0  0  0  0  0  0
   92.1200  101.0490  -42.7130 C   0  0  0  0  0  2  0  0  0  0  0  0
   91.9870   99.9210  -43.5600 O   0  0  0  0  0  0  0  0  0  0  0  0
   88.6710   99.0950  -44.8690 C   0  0  0  0  0  0  0  0  0  0  0  0
   87.5970   99.3930  -45.2620 N   0  0  0  0  0  0  0  0  0  0  0  0
   91.0540   96.5390  -43.7690 C   0  0  0  0  0  0  0  0  0  0  0  0
   91.4600   95.2600  -44.0540 C   0  0  0  0  0  0  0  0  0  0  0  0
   91.2070   94.4860  -45.7800 Br  0  0  0  0  0  0  0  0  0  0  0  0
   92.0760   94.5200  -43.0540 C   0  0  0  0  0  3  0  0  0  0  0  0
   92.2890   95.0470  -41.7750 C   0  0  0  0  0  3  0  0  0  0  0  0
   91.8740   96.3300  -41.5110 C   0  0  0  0  0  3  0  0  0  0  0  0
   91.2590   97.0660  -42.5150 C   0  0  0  0  0  3  0  0  0  0  0  0
   90.7440   99.7010  -47.7010 N   0  0  0  0  0  0  0  0  0  0  0  0
   91.3280  100.3990  -48.2000 H   0  0  0  0  0  0  0  0  0  0  0  0
   90.1180   99.0950  -48.2630 H   0  0  0  0  0  0  0  0  0  0  0  0
  1  2  1  0  0  0  0
  1 15  1  1  0  0  0
  2 13  1  6  0  0  0
  2  3  1  0  0  0  0
  3 12  1  0  0  0  0
  3  9  1  0  0  0  0
  4  3  1  0  0  0  0
  5 22  1  1  0  0  0
  5  6  1  0  0  0  0
  5  4  1  0  0  0  0
  6  7  1  1  0  0  0
  6  1  1  0  0  0  0
  6  2  1  0  0  0  0
  7  8  3  0  0  0  0
  9 10  1  0  0  0  0
 11 10  1  0  0  0  0
 12 11  1  0  0  0  0
 14 13  3  0  0  0  0
 15 21  1  0  0  0  0
 16 15  2  0  0  0  0
 16 18  1  0  0  0  0
 17 16  1  0  0  0  0
 18 19  2  0  0  0  0
 19 20  1  0  0  0  0
 21 20  2  0  0  0  0
 23 22  1  0  0  0  0
 24 22  1  0  0  0  0
M  END
>  <Pose>
1

>  <Score>
-5.465

$$$$
