/Users/jonathanwahrer/Desktop/Msc/3_Semester/Drug_Design_Praktikum/waehrer_HTS_screening/HTS_experiment/out/docking_results/vina_output/4agl/0067_docked.pdbqt
 OpenBabel03202223023D

 22 25  0  0  1  0  0  0  0  0999 V2000
   91.5630   97.5700  -44.3020 N   0  0  0  0  0  0  0  0  0  0  0  0
   92.6130   98.1040  -45.1910 C   0  0  0  0  0  2  0  0  0  0  0  0
   92.2650   99.5180  -45.2380 C   0  0  2  0  0  0  0  0  0  0  0  0
   92.7690  100.3120  -44.1930 O   0  0  0  0  0  0  0  0  0  0  0  0
   92.0390  101.4810  -44.5360 C   0  0  2  0  0  3  0  0  0  0  0  0
   90.6320  100.9090  -44.3130 C   0  0  1  0  0  3  0  0  0  0  0  0
   90.7380   99.6390  -45.0990 C   0  0  2  0  0  3  0  0  0  0  0  0
   90.4170   98.4060  -44.4000 C   0  0  0  0  0  0  0  0  0  0  0  0
   89.2970   98.1000  -43.9400 O   0  0  0  0  0  0  0  0  0  0  0  0
   92.3700  101.5930  -45.9870 C   0  0  0  0  0  2  0  0  0  0  0  0
   92.6370  100.3310  -46.3910 C   0  0  0  0  0  2  0  0  0  0  0  0
   91.6450   96.4220  -43.4700 C   0  0  0  0  0  0  0  0  0  0  0  0
   91.5510   95.1340  -43.9680 C   0  0  0  0  0  0  0  0  0  0  0  0
   91.3050   94.7970  -45.8070 Br  0  0  0  0  0  0  0  0  0  0  0  0
   91.6360   94.0270  -43.1210 C   0  0  0  0  0  3  0  0  0  0  0  0
   91.8150   94.1770  -41.7720 C   0  0  0  0  0  3  0  0  0  0  0  0
   91.9090   95.4330  -41.2630 C   0  0  0  0  0  3  0  0  0  0  0  0
   91.8270   96.5200  -42.0960 C   0  0  0  0  0  3  0  0  0  0  0  0
   90.5700  100.6090  -42.8470 C   0  0  0  0  0  0  0  0  0  0  0  0
   91.5610  100.2630  -42.1880 O   0  0  0  0  0  0  0  0  0  0  0  0
   89.3450  100.7220  -42.2010 O   0  0  0  0  0  0  0  0  0  0  0  0
   88.2730  101.3870  -42.8800 C   0  0  0  0  0  1  0  0  0  0  0  0
  1 12  1  0  0  0  0
  2  1  1  0  0  0  0
  3 11  1  6  0  0  0
  3  2  1  0  0  0  0
  3  7  1  0  0  0  0
  3  4  1  0  0  0  0
  5 10  1  6  0  0  0
  5  6  1  0  0  0  0
  5  4  1  0  0  0  0
  6 19  1  1  0  0  0
  7  8  1  1  0  0  0
  7  6  1  0  0  0  0
  8  1  1  0  0  0  0
  8  9  2  0  0  0  0
 11 10  1  0  0  0  0
 12 18  1  0  0  0  0
 13 12  2  0  0  0  0
 13 15  1  0  0  0  0
 14 13  1  0  0  0  0
 15 16  2  0  0  0  0
 16 17  1  0  0  0  0
 18 17  2  0  0  0  0
 19 21  1  0  0  0  0
 19 20  2  0  0  0  0
 22 21  1  0  0  0  0
M  END
>  <Pose>
1

>  <Score>
-5.774

$$$$
