/Users/jonathanwahrer/Desktop/Msc/3_Semester/Drug_Design_Praktikum/waehrer_HTS_screening/HTS_experiment/out/docking_results/vina_output/4agl/0111_docked.pdbqt
 OpenBabel03202223033D

 29 32  0  0  0  0  0  0  0  0999 V2000
   90.3260   96.8780  -45.4380 C   0  0  0  0  0  0  0  0  0  0  0  0
   90.8950   95.9310  -44.7250 N   0  0  0  0  0  0  0  0  0  0  0  0
   90.9470   94.7600  -45.4350 C   0  0  0  0  0  0  0  0  0  0  0  0
   90.3750   95.0160  -46.6340 N   0  0  0  0  0  0  0  0  0  0  0  0
   90.0050   96.2520  -46.6510 N   0  0  0  0  0  0  0  0  0  0  0  0
   91.5260   93.8110  -44.6970 N   0  0  0  0  0  0  0  0  0  0  0  0
   91.8390   94.3680  -43.5160 C   0  0  0  0  0  0  0  0  0  0  0  0
   91.4480   95.7020  -43.5060 C   0  0  0  0  0  0  0  0  0  0  0  0
   91.6130   96.4870  -42.4590 N   0  0  0  0  0  0  0  0  0  0  0  0
   92.2060   95.9270  -41.3570 C   0  0  0  0  0  0  0  0  0  0  0  0
   92.4140   96.5840  -40.3060 O   0  0  0  0  0  0  0  0  0  0  0  0
   92.6020   94.6370  -41.3320 N   0  0  0  0  0  0  0  0  0  0  0  0
   92.4320   93.8440  -42.3830 C   0  0  0  0  0  0  0  0  0  0  0  0
   92.7790   92.6370  -42.4210 O   0  0  0  0  0  0  0  0  0  0  0  0
   91.1950   97.8430  -42.2730 C   0  0  0  0  0  1  0  0  0  0  0  0
   93.0520   94.2270  -40.4870 H   0  0  0  0  0  0  0  0  0  0  0  0
   89.9730   98.2650  -45.3220 C   0  0  0  0  0  0  0  0  0  0  0  0
   88.7730   98.8200  -44.9980 C   0  0  0  0  0  3  0  0  0  0  0  0
   88.4920  100.1530  -44.9170 C   0  0  0  0  0  0  0  0  0  0  0  0
   86.7340  100.7220  -44.4450 Br  0  0  0  0  0  0  0  0  0  0  0  0
   89.4780  101.0580  -45.1780 C   0  0  0  0  0  3  0  0  0  0  0  0
   90.7350  100.5820  -45.5160 C   0  0  0  0  0  3  0  0  0  0  0  0
   90.9730   99.2300  -45.5850 C   0  0  0  0  0  0  0  0  0  0  0  0
   92.2420   98.7960  -45.9270 O   0  0  0  0  0  0  0  0  0  0  0  0
   93.3310   98.7820  -45.0570 C   0  0  0  0  0  1  0  0  0  0  0  0
   91.7780   92.4490  -45.0670 C   0  0  0  0  0  2  0  0  0  0  0  0
   91.4630   92.2600  -46.5370 C   0  0  0  0  0  2  0  0  0  0  0  0
   91.5130   90.9090  -46.8190 O   0  0  0  0  0  0  0  0  0  0  0  0
   92.6580   90.5770  -47.5630 C   0  0  0  0  0  1  0  0  0  0  0  0
  1 17  1  0  0  0  0
  1  2  1  0  0  0  0
  2  8  1  0  0  0  0
  3  2  1  0  0  0  0
  3  6  1  0  0  0  0
  4  3  2  0  0  0  0
  5  4  1  0  0  0  0
  5  1  2  0  0  0  0
  6  7  1  0  0  0  0
  7  8  2  0  0  0  0
  7 13  1  0  0  0  0
  8  9  1  0  0  0  0
  9 15  1  0  0  0  0
  9 10  1  0  0  0  0
 10 12  1  0  0  0  0
 10 11  2  0  0  0  0
 12 16  1  0  0  0  0
 13 12  1  0  0  0  0
 14 13  2  0  0  0  0
 17 18  1  0  0  0  0
 18 19  2  0  0  0  0
 19 20  1  0  0  0  0
 21 19  1  0  0  0  0
 22 21  2  0  0  0  0
 23 22  1  0  0  0  0
 23 17  2  0  0  0  0
 24 23  1  0  0  0  0
 24 25  1  0  0  0  0
 26  6  1  0  0  0  0
 27 26  1  0  0  0  0
 28 27  1  0  0  0  0
 29 28  1  0  0  0  0
M  END
>  <Pose>
1

>  <Score>
-7.096

$$$$
