/Users/jonathanwahrer/Desktop/Msc/3_Semester/Drug_Design_Praktikum/waehrer_HTS_screening/HTS_experiment/out/docking_results/vina_output/4agl/0127_docked.pdbqt
 OpenBabel03202223043D

 29 32  0  0  0  0  0  0  0  0999 V2000
   90.4860  101.3000  -43.1930 N   0  0  0  0  0  0  0  0  0  0  0  0
   89.6800  100.4460  -42.4010 C   0  0  0  0  0  2  0  0  0  0  0  0
   89.6870   99.0140  -42.7740 C   0  0  0  0  0  2  0  0  0  0  0  0
   91.0190   98.5110  -42.8690 N   0  0  0  0  0  0  0  0  0  0  0  0
   92.0900   99.4430  -43.0780 C   0  0  0  0  0  2  0  0  0  0  0  0
   91.6620  100.7280  -43.7490 C   0  0  0  0  0  2  0  0  0  0  0  0
   91.3150   97.1240  -42.7910 C   0  0  0  0  0  0  0  0  0  0  0  0
   91.2750   96.4130  -43.9160 C   0  0  0  0  0  0  0  0  0  0  0  0
   90.9920   96.6970  -45.2750 N   0  0  0  0  0  0  0  0  0  0  0  0
   91.5910   94.9730  -43.7910 C   0  0  0  0  0  0  0  0  0  0  0  0
   91.1340   95.4620  -45.9480 N   0  0  0  0  0  0  0  0  0  0  0  0
   90.6350   97.9740  -45.8430 C   0  0  0  0  0  1  0  0  0  0  0  0
   91.4930   94.4660  -45.0110 C   0  0  0  0  0  0  0  0  0  0  0  0
   90.9820   95.3770  -46.9750 H   0  0  0  0  0  0  0  0  0  0  0  0
   91.7420   93.0270  -45.2930 C   0  0  0  0  0  1  0  0  0  0  0  0
   91.9140   94.4240  -42.5180 N   0  0  0  0  0  0  0  0  0  0  0  0
   91.9400   95.1560  -41.4600 C   0  0  0  0  0  3  0  0  0  0  0  0
   91.6480   96.5320  -41.5180 N   0  0  0  0  0  0  0  0  0  0  0  0
   91.6550   97.1610  -40.6970 H   0  0  0  0  0  0  0  0  0  0  0  0
   90.5730  102.6470  -42.7860 C   0  0  0  0  0  2  0  0  0  0  0  0
   91.0280  102.8290  -41.4060 C   0  0  0  0  0  0  0  0  0  0  0  0
   90.1940  103.1690  -40.5280 O   0  0  0  0  0  0  0  0  0  0  0  0
   92.4360  102.6120  -41.0900 C   0  0  0  0  0  0  0  0  0  0  0  0
   93.4160  103.3050  -41.7500 C   0  0  0  0  0  3  0  0  0  0  0  0
   94.7650  103.1220  -41.4740 C   0  0  0  0  0  0  0  0  0  0  0  0
   96.1240  104.0870  -42.3920 Br  0  0  0  0  0  0  0  0  0  0  0  0
   95.1330  102.2140  -40.5060 C   0  0  0  0  0  3  0  0  0  0  0  0
   94.1290  101.5190  -39.8440 C   0  0  0  0  0  3  0  0  0  0  0  0
   92.7980  101.7040  -40.1210 C   0  0  0  0  0  3  0  0  0  0  0  0
  1 20  1  0  0  0  0
  1  2  1  0  0  0  0
  3  2  1  0  0  0  0
  4  7  1  0  0  0  0
  4  3  1  0  0  0  0
  5  4  1  0  0  0  0
  6  1  1  0  0  0  0
  6  5  1  0  0  0  0
  7 18  1  0  0  0  0
  8 10  1  0  0  0  0
  8  7  2  0  0  0  0
  9  8  1  0  0  0  0
 10 16  1  0  0  0  0
 11  9  1  0  0  0  0
 11 13  1  0  0  0  0
 12  9  1  0  0  0  0
 13 10  2  0  0  0  0
 14 11  1  0  0  0  0
 15 13  1  0  0  0  0
 16 17  2  0  0  0  0
 18 17  1  0  0  0  0
 18 19  1  0  0  0  0
 20 21  1  0  0  0  0
 21 23  1  0  0  0  0
 21 22  2  0  0  0  0
 23 29  1  0  0  0  0
 24 25  1  0  0  0  0
 24 23  2  0  0  0  0
 25 27  2  0  0  0  0
 26 25  1  0  0  0  0
 27 28  1  0  0  0  0
 29 28  2  0  0  0  0
M  END
>  <Pose>
1

>  <Score>
-6.606

$$$$
