/Users/jonathanwahrer/Desktop/Msc/3_Semester/Drug_Design_Praktikum/waehrer_HTS_screening/HTS_experiment/out/docking_results/vina_output/4agl/0138_docked.pdbqt
 OpenBabel03202223053D

 25 28  0  0  1  0  0  0  0  0999 V2000
   91.8270   91.5340  -47.4290 C   0  0  2  0  0  3  0  0  0  0  0  0
   90.3950   91.2330  -47.7230 C   0  0  0  0  0  2  0  0  0  0  0  0
   90.4840   90.2630  -48.8270 N   0  0  0  0  0  0  0  0  0  0  0  0
   91.8550   89.7860  -48.9360 C   0  0  1  0  0  3  0  0  0  0  0  0
   92.4540   90.1440  -47.6100 C   0  0  0  0  0  2  0  0  0  0  0  0
   91.8130   88.3530  -49.2110 C   0  0  0  0  0  0  0  0  0  0  0  0
   92.6600   87.5860  -48.7400 O   0  0  0  0  0  0  0  0  0  0  0  0
   90.7710   87.8220  -50.0430 N   0  0  0  0  0  0  0  0  0  0  0  0
   89.9800   88.7890  -50.7640 C   0  0  1  0  0  3  0  0  0  0  0  0
   88.8910   88.1190  -51.4960 C   0  0  0  0  0  2  0  0  0  0  0  0
   89.3500   86.6750  -51.5120 C   0  0  0  0  0  2  0  0  0  0  0  0
   90.2860   86.5150  -50.3630 C   0  0  0  0  0  2  0  0  0  0  0  0
   89.4980   89.7660  -49.7280 C   0  0  0  0  0  0  0  0  0  0  0  0
   88.2990   90.1200  -49.6620 O   0  0  0  0  0  0  0  0  0  0  0  0
   92.0810   92.0880  -46.1510 N   0  0  0  0  0  0  0  0  0  0  0  0
   91.4610   93.2950  -45.7610 C   0  0  0  0  0  0  0  0  0  0  0  0
   90.6670   93.8840  -46.5750 O   0  0  0  0  0  0  0  0  0  0  0  0
   92.7220   91.6140  -45.4900 H   0  0  0  0  0  0  0  0  0  0  0  0
   91.6430   93.9550  -44.4800 C   0  0  0  0  0  0  0  0  0  0  0  0
   91.4350   95.2990  -44.2960 C   0  0  0  0  0  3  0  0  0  0  0  0
   91.6040   95.9360  -43.0930 C   0  0  0  0  0  0  0  0  0  0  0  0
   91.3070   97.8010  -42.8770 Br  0  0  0  0  0  0  0  0  0  0  0  0
   92.0040   95.2050  -41.9960 C   0  0  0  0  0  3  0  0  0  0  0  0
   92.2250   93.8440  -42.1330 C   0  0  0  0  0  3  0  0  0  0  0  0
   92.0410   93.2320  -43.3820 C   0  0  0  0  0  3  0  0  0  0  0  0
  1 15  1  1  0  0  0
  2  1  1  0  0  0  0
  3  2  1  0  0  0  0
  4  3  1  0  0  0  0
  4  5  1  1  0  0  0
  5  1  1  0  0  0  0
  6  4  1  0  0  0  0
  6  7  2  0  0  0  0
  8  6  1  0  0  0  0
  9 10  1  1  0  0  0
  9  8  1  0  0  0  0
  9 13  1  0  0  0  0
 11 10  1  0  0  0  0
 11 12  1  0  0  0  0
 12  8  1  0  0  0  0
 13 14  2  0  0  0  0
 13  3  1  0  0  0  0
 15 16  1  0  0  0  0
 15 18  1  0  0  0  0
 16 19  1  0  0  0  0
 17 16  2  0  0  0  0
 19 20  2  0  0  0  0
 19 25  1  0  0  0  0
 20 21  1  0  0  0  0
 21 22  1  0  0  0  0
 21 23  2  0  0  0  0
 24 23  1  0  0  0  0
 25 24  2  0  0  0  0
M  END
>  <Pose>
1

>  <Score>
-7.261

$$$$
