/Users/jonathanwahrer/Desktop/Msc/3_Semester/Drug_Design_Praktikum/waehrer_HTS_screening/HTS_experiment/out/docking_results/vina_output/4agl/0152_docked.pdbqt
 OpenBabel03202223053D

 27 30  0  0  0  0  0  0  0  0999 V2000
   91.7280   98.5530  -42.2500 C   0  0  0  0  0  3  0  0  0  0  0  0
   91.6960   97.2900  -42.6910 C   0  0  0  0  0  0  0  0  0  0  0  0
   91.4000   96.8940  -43.9280 O   0  0  0  0  0  0  0  0  0  0  0  0
   91.5030   95.4830  -44.0200 C   0  0  0  0  0  0  0  0  0  0  0  0
   91.8730   94.9460  -42.8340 C   0  0  0  0  0  0  0  0  0  0  0  0
   92.0920   93.5720  -42.7770 C   0  0  0  0  0  3  0  0  0  0  0  0
   91.9140   92.7970  -43.8800 C   0  0  0  0  0  3  0  0  0  0  0  0
   91.5050   93.3700  -45.0670 C   0  0  0  0  0  0  0  0  0  0  0  0
   91.2770   94.7190  -45.1990 C   0  0  0  0  0  0  0  0  0  0  0  0
   91.3240   92.5320  -46.1700 O   0  0  0  0  0  1  0  0  0  0  0  0
   92.0080   96.0910  -41.9020 C   0  0  0  0  0  0  0  0  0  0  0  0
   92.3180   96.0400  -40.6980 O   0  0  0  0  0  0  0  0  0  0  0  0
   91.4250   99.6740  -43.1800 C   0  0  0  0  0  0  0  0  0  0  0  0
   90.0870   99.9530  -43.4980 C   0  0  0  0  0  3  0  0  0  0  0  0
   89.7420  100.7260  -44.6140 C   0  0  0  0  0  0  0  0  0  0  0  0
   87.8870  101.0150  -44.9570 Br  0  0  0  0  0  0  0  0  0  0  0  0
   90.6920  101.2350  -45.4210 C   0  0  0  0  0  3  0  0  0  0  0  0
   92.0590  100.9810  -45.1340 C   0  0  0  0  0  3  0  0  0  0  0  0
   92.3800  100.1990  -44.0030 C   0  0  0  0  0  3  0  0  0  0  0  0
   90.4370   95.3940  -46.1680 C   0  0  0  0  0  2  0  0  0  0  0  0
   89.2450   96.0110  -46.2920 N   0  0  0  0  0  4  0  0  0  0  0  0
   88.9740   97.3710  -46.1290 C   0  0  0  0  0  2  0  0  0  0  0  0
   88.9670   98.1710  -47.4510 C   0  0  0  0  0  2  0  0  0  0  0  0
   87.9500   97.8100  -48.3020 O   0  0  0  0  0  0  0  0  0  0  0  0
   87.7730   96.4220  -48.2590 C   0  0  0  0  0  2  0  0  0  0  0  0
   88.9310   95.7150  -47.7860 C   0  0  0  0  0  2  0  0  0  0  0  0
   88.4830   95.4320  -45.7730 H   0  0  0  0  0  0  0  0  0  0  0  0
  2  1  2  0  0  0  0
  2 11  1  0  0  0  0
  3  2  1  0  0  0  0
  4  3  1  0  0  0  0
  4  5  1  0  0  0  0
  5  6  2  0  0  0  0
  5 11  1  0  0  0  0
  7  6  1  0  0  0  0
  8  7  2  0  0  0  0
  9  8  1  0  0  0  0
  9  4  2  0  0  0  0
 10  8  1  0  0  0  0
 11 12  2  0  0  0  0
 13  1  1  0  0  0  0
 14 13  1  0  0  0  0
 15 14  2  0  0  0  0
 16 15  1  0  0  0  0
 17 18  2  0  0  0  0
 17 15  1  0  0  0  0
 18 19  1  0  0  0  0
 19 13  2  0  0  0  0
 20  9  1  0  0  0  0
 21 20  1  0  0  0  0
 21 22  1  0  0  0  0
 21 27  1  0  0  0  0
 23 22  1  0  0  0  0
 24 25  1  0  0  0  0
 24 23  1  0  0  0  0
 25 26  1  0  0  0  0
 26 21  1  0  0  0  0
M  END
>  <Pose>
1

>  <Score>
-6.358

$$$$
