/Users/jonathanwahrer/Desktop/Msc/3_Semester/Drug_Design_Praktikum/waehrer_HTS_screening/HTS_experiment/out/docking_results/vina_output/4agl/0156_docked.pdbqt
 OpenBabel03202223063D

 29 32  0  0  0  0  0  0  0  0999 V2000
   90.8700   95.0300  -45.8950 C   0  0  0  0  0  0  0  0  0  0  0  0
   90.8530   93.9990  -46.7460 N   0  0  0  0  0  4  0  0  0  0  0  0
   91.2120   92.7340  -46.3890 C   0  0  0  0  0  0  0  0  0  0  0  0
   91.5930   92.5780  -45.1030 N   0  0  0  0  0  0  0  0  0  0  0  0
   91.6310   93.5740  -44.2010 C   0  0  0  0  0  0  0  0  0  0  0  0
   91.2570   94.8000  -44.6420 N   0  0  0  0  0  2  0  0  0  0  0  0
   90.4810   96.3260  -46.3350 N   0  0  0  0  0  0  0  0  0  0  0  0
   90.2240   96.4890  -47.3300 H   0  0  0  0  0  0  0  0  0  0  0  0
   90.4340   97.4110  -45.4550 N   0  0  0  0  0  0  0  0  0  0  0  0
   89.4380   97.7070  -44.7170 C   0  0  0  0  0  3  0  0  0  0  0  0
   89.4160   98.8470  -43.8100 C   0  0  0  0  0  0  0  0  0  0  0  0
   90.5590   99.3060  -43.1790 C   0  0  0  0  0  3  0  0  0  0  0  0
   90.5710  100.3760  -42.3180 C   0  0  0  0  0  0  0  0  0  0  0  0
   92.1890  100.9610  -41.4770 Br  0  0  0  0  0  0  0  0  0  0  0  0
   89.3850  101.0350  -42.0630 C   0  0  0  0  0  3  0  0  0  0  0  0
   88.2190  100.6150  -42.6670 C   0  0  0  0  0  3  0  0  0  0  0  0
   88.2490   99.5250  -43.5340 C   0  0  0  0  0  3  0  0  0  0  0  0
   91.1870   91.6610  -47.3060 N   0  0  0  0  0  0  0  0  0  0  0  0
   90.3130   91.6900  -48.4460 C   0  0  0  0  0  2  0  0  0  0  0  0
   91.1820   91.4500  -49.6760 C   0  0  0  0  0  2  0  0  0  0  0  0
   91.7720   90.2020  -49.4980 O   0  0  0  0  0  0  0  0  0  0  0  0
   92.6910   90.1970  -48.4650 C   0  0  0  0  0  2  0  0  0  0  0  0
   92.0310   90.5120  -47.1260 C   0  0  0  0  0  2  0  0  0  0  0  0
   92.0320   93.3850  -42.8680 N   0  0  0  0  0  0  0  0  0  0  0  0
   93.2670   92.7310  -42.5260 C   0  0  0  0  0  2  0  0  0  0  0  0
   93.8150   93.4830  -41.3060 C   0  0  0  0  0  2  0  0  0  0  0  0
   93.3550   94.7970  -41.3010 O   0  0  0  0  0  0  0  0  0  0  0  0
   92.0110   94.9210  -41.0530 C   0  0  0  0  0  2  0  0  0  0  0  0
   91.2000   93.8490  -41.7940 C   0  0  0  0  0  2  0  0  0  0  0  0
  1  6  1  0  0  0  0
  2  3  2  0  0  0  0
  2  1  2  0  0  0  0
  3  4  1  0  0  0  0
  4  5  2  0  0  0  0
  5 24  1  0  0  0  0
  6  5  1  0  0  0  0
  7  1  1  0  0  0  0
  7  9  1  0  0  0  0
  8  7  1  0  0  0  0
  9 10  2  0  0  0  0
 10 11  1  0  0  0  0
 11 17  2  0  0  0  0
 11 12  1  0  0  0  0
 12 13  2  0  0  0  0
 13 15  1  0  0  0  0
 13 14  1  0  0  0  0
 16 15  2  0  0  0  0
 17 16  1  0  0  0  0
 18 23  1  0  0  0  0
 18  3  1  0  0  0  0
 19 18  1  0  0  0  0
 20 21  1  0  0  0  0
 20 19  1  0  0  0  0
 21 22  1  0  0  0  0
 22 23  1  0  0  0  0
 24 25  1  0  0  0  0
 24 29  1  0  0  0  0
 25 26  1  0  0  0  0
 26 27  1  0  0  0  0
 27 28  1  0  0  0  0
 29 28  1  0  0  0  0
M  END
>  <Pose>
1

>  <Score>
-6.811

$$$$
