/Users/jonathanwahrer/Desktop/Msc/3_Semester/Drug_Design_Praktikum/waehrer_HTS_screening/HTS_experiment/out/docking_results/vina_output/4agl/0170_docked.pdbqt
 OpenBabel03202223073D

 35 38  0  0  1  0  0  0  0  0999 V2000
   91.2010  100.5910  -44.1510 C   0  0  1  0  0  3  0  0  0  0  0  0
   91.5750  101.1900  -45.4180 N   0  0  0  0  0  0  0  0  0  0  0  0
   92.4600  100.3500  -46.1260 C   0  0  0  0  0  0  0  0  0  0  0  0
   93.2450  100.5910  -47.0780 O   0  0  0  0  0  0  0  0  0  0  0  0
   92.3100   99.0040  -45.5160 C   0  0  0  0  0  0  0  0  0  0  0  0
   92.9440   98.0000  -45.8970 O   0  0  0  0  0  0  0  0  0  0  0  0
   91.3260   99.1240  -44.4560 C   0  0  0  0  0  0  0  0  0  0  0  0
   90.6520   98.1380  -43.9210 C   0  0  0  0  0  0  0  0  0  0  0  0
   89.6780   98.4230  -42.9470 O   0  0  0  0  0  1  0  0  0  0  0  0
   92.0770  100.9950  -43.0380 C   0  0  0  0  0  0  0  0  0  0  0  0
   93.1190  101.8770  -43.2110 C   0  0  0  0  0  3  0  0  0  0  0  0
   93.9340  102.2450  -42.1460 C   0  0  0  0  0  0  0  0  0  0  0  0
   95.3730  103.4660  -42.4090 Br  0  0  0  0  0  0  0  0  0  0  0  0
   93.7000  101.7220  -40.8850 C   0  0  0  0  0  3  0  0  0  0  0  0
   92.6530  100.8400  -40.7210 C   0  0  0  0  0  3  0  0  0  0  0  0
   91.8470  100.4780  -41.7820 C   0  0  0  0  0  3  0  0  0  0  0  0
   90.8740   96.7650  -44.2860 C   0  0  0  0  0  0  0  0  0  0  0  0
   91.4870   95.9480  -43.3250 C   0  0  0  0  0  3  0  0  0  0  0  0
   91.7730   94.6390  -43.6010 C   0  0  0  0  0  0  0  0  0  0  0  0
   91.4740   94.0650  -44.8310 C   0  0  0  0  0  0  0  0  0  0  0  0
   92.4290   93.7810  -42.5640 C   0  0  0  0  0  1  0  0  0  0  0  0
   90.8800   94.8760  -45.7470 C   0  0  0  0  0  3  0  0  0  0  0  0
   90.5850   96.1990  -45.4850 C   0  0  0  0  0  3  0  0  0  0  0  0
   91.7940   92.7380  -45.0300 O   0  0  0  0  0  0  0  0  0  0  0  0
   91.4490   92.0790  -46.2390 C   0  0  0  0  0  1  0  0  0  0  0  0
   91.1070  102.4880  -45.9300 C   0  0  0  0  0  2  0  0  0  0  0  0
   89.6210  102.6080  -45.7360 C   0  0  0  0  0  2  0  0  0  0  0  0
   88.8010  101.6470  -46.5290 C   0  0  0  0  0  2  0  0  0  0  0  0
   88.1530  100.6350  -45.7250 N   0  0  0  0  0  4  0  0  0  0  0  0
   86.7680  100.9670  -45.4550 C   0  0  0  0  0  2  0  0  0  0  0  0
   85.8430   99.9660  -46.0940 C   0  0  0  0  0  2  0  0  0  0  0  0
   86.1200   98.7050  -45.5270 O   0  0  0  0  0  0  0  0  0  0  0  0
   87.4130   98.2980  -45.8490 C   0  0  0  0  0  2  0  0  0  0  0  0
   88.2500   99.3730  -46.4640 C   0  0  0  0  0  2  0  0  0  0  0  0
   88.6340  100.4540  -44.8190 H   0  0  0  0  0  0  0  0  0  0  0  0
  1 10  1  1  0  0  0
  2  1  1  0  0  0  0
  3  5  1  0  0  0  0
  3  2  1  0  0  0  0
  4  3  2  0  0  0  0
  5  7  1  0  0  0  0
  6  5  2  0  0  0  0
  7  1  1  0  0  0  0
  7  8  2  0  0  0  0
  8  9  1  0  0  0  0
 10 16  1  0  0  0  0
 11 10  2  0  0  0  0
 11 12  1  0  0  0  0
 12 14  2  0  0  0  0
 13 12  1  0  0  0  0
 14 15  1  0  0  0  0
 16 15  2  0  0  0  0
 17  8  1  0  0  0  0
 17 18  1  0  0  0  0
 19 18  2  0  0  0  0
 19 21  1  0  0  0  0
 20 19  1  0  0  0  0
 22 23  1  0  0  0  0
 22 20  2  0  0  0  0
 23 17  2  0  0  0  0
 24 20  1  0  0  0  0
 25 24  1  0  0  0  0
 26 27  1  0  0  0  0
 26  2  1  0  0  0  0
 28 27  1  0  0  0  0
 28 29  1  0  0  0  0
 29 30  1  0  0  0  0
 29 35  1  0  0  0  0
 31 32  1  0  0  0  0
 31 30  1  0  0  0  0
 33 32  1  0  0  0  0
 34 33  1  0  0  0  0
 34 29  1  0  0  0  0
M  END
>  <Pose>
1

>  <Score>
-6.453

$$$$
