/Users/jonathanwahrer/Desktop/Msc/3_Semester/Drug_Design_Praktikum/waehrer_HTS_screening/HTS_experiment/out/docking_results/vina_output/4agl/0188_docked.pdbqt
 OpenBabel03202223093D

 31 34  0  0  1  0  0  0  0  0999 V2000
   90.6700   98.5850  -44.7560 C   0  0  2  0  0  3  0  0  0  0  0  0
   90.6910   99.8630  -44.0610 N   0  0  0  0  0  0  0  0  0  0  0  0
   89.5320   99.7870  -43.1980 C   0  0  0  0  0  0  0  0  0  0  0  0
   89.3540  100.4140  -42.1320 O   0  0  0  0  0  0  0  0  0  0  0  0
   88.5820   98.8440  -43.7750 C   0  0  0  0  0  0  0  0  0  0  0  0
   87.4510   98.4620  -43.3770 O   0  0  0  0  0  0  0  0  0  0  0  0
   89.2000   98.3580  -45.0070 C   0  0  0  0  0  0  0  0  0  0  0  0
   88.6460   97.8310  -46.0610 C   0  0  0  0  0  0  0  0  0  0  0  0
   89.4870   97.4070  -47.1110 O   0  0  0  0  0  1  0  0  0  0  0  0
   91.6050  100.9720  -44.1310 C   0  0  0  0  0  2  0  0  0  0  0  0
   92.9770  100.6720  -43.5730 C   0  0  0  0  0  2  0  0  0  0  0  0
   93.4050  101.7740  -42.6870 C   0  0  0  0  0  2  0  0  0  0  0  0
   93.6880  101.3900  -41.3230 N   0  0  0  0  0  4  0  0  0  0  0  0
   94.3580  102.4330  -40.5820 C   0  0  0  0  0  2  0  0  0  0  0  0
   93.4630  103.2930  -39.7630 C   0  0  0  0  0  2  0  0  0  0  0  0
   92.4580  102.6330  -39.0870 O   0  0  0  0  0  0  0  0  0  0  0  0
   91.7260  101.7640  -39.8850 C   0  0  0  0  0  2  0  0  0  0  0  0
   92.6090  100.7870  -40.6170 C   0  0  0  0  0  2  0  0  0  0  0  0
   94.4290  100.6250  -41.4220 H   0  0  0  0  0  0  0  0  0  0  0  0
   91.1060   97.4730  -43.8600 C   0  0  0  0  0  0  0  0  0  0  0  0
   91.2230   96.1890  -44.3440 C   0  0  0  0  0  3  0  0  0  0  0  0
   91.6230   95.1210  -43.5570 C   0  0  0  0  0  0  0  0  0  0  0  0
   91.7730   93.3490  -44.2750 Br  0  0  0  0  0  0  0  0  0  0  0  0
   91.9230   95.3340  -42.2270 C   0  0  0  0  0  3  0  0  0  0  0  0
   91.8130   96.6160  -41.7200 C   0  0  0  0  0  3  0  0  0  0  0  0
   91.4080   97.6810  -42.5280 C   0  0  0  0  0  3  0  0  0  0  0  0
   87.2040   97.6910  -46.1480 C   0  0  0  0  0  0  0  0  0  0  0  0
   86.4050   98.6670  -46.4880 O   0  0  0  0  0  0  0  0  0  0  0  0
   85.1590   98.2810  -46.4870 C   0  0  0  0  0  3  0  0  0  0  0  0
   85.1220   96.9690  -46.1250 C   0  0  0  0  0  3  0  0  0  0  0  0
   86.4470   96.5780  -45.9010 C   0  0  0  0  0  3  0  0  0  0  0  0
  1  2  1  0  0  0  0
  1 20  1  1  0  0  0
  2  3  1  0  0  0  0
  3  4  2  0  0  0  0
  5  6  2  0  0  0  0
  5  3  1  0  0  0  0
  7  1  1  0  0  0  0
  7  5  1  0  0  0  0
  8  7  2  0  0  0  0
  9  8  1  0  0  0  0
 10  2  1  0  0  0  0
 10 11  1  0  0  0  0
 11 12  1  0  0  0  0
 12 13  1  0  0  0  0
 13 18  1  0  0  0  0
 13 14  1  0  0  0  0
 14 15  1  0  0  0  0
 15 16  1  0  0  0  0
 17 16  1  0  0  0  0
 18 17  1  0  0  0  0
 19 13  1  0  0  0  0
 20 26  1  0  0  0  0
 21 20  2  0  0  0  0
 21 22  1  0  0  0  0
 22 24  2  0  0  0  0
 23 22  1  0  0  0  0
 24 25  1  0  0  0  0
 26 25  2  0  0  0  0
 27  8  1  0  0  0  0
 27 31  2  0  0  0  0
 28 29  1  0  0  0  0
 28 27  1  0  0  0  0
 29 30  2  0  0  0  0
 30 31  1  0  0  0  0
M  END
>  <Pose>
1

>  <Score>
-6.269

$$$$
