/Users/jonathanwahrer/Desktop/Msc/3_Semester/Drug_Design_Praktikum/waehrer_HTS_screening/HTS_experiment/out/docking_results/vina_output/4agl/0191_docked.pdbqt
 OpenBabel03202223103D

 34 37  0  0  1  0  0  0  0  0999 V2000
   90.8630   98.1670  -44.1920 C   0  0  2  0  0  3  0  0  0  0  0  0
   89.4710   98.5400  -44.0410 N   0  0  0  0  0  0  0  0  0  0  0  0
   88.9440   98.6340  -45.3820 C   0  0  0  0  0  0  0  0  0  0  0  0
   87.7330   98.5370  -45.6970 O   0  0  0  0  0  0  0  0  0  0  0  0
   90.0900   98.8590  -46.2680 C   0  0  0  0  0  0  0  0  0  0  0  0
   90.0960   99.0020  -47.5180 O   0  0  0  0  0  0  0  0  0  0  0  0
   91.2920   98.8970  -45.4430 C   0  0  0  0  0  0  0  0  0  0  0  0
   92.4630   99.4310  -45.7430 C   0  0  0  0  0  0  0  0  0  0  0  0
   93.4900   99.3500  -44.8370 O   0  0  0  0  0  1  0  0  0  0  0  0
   91.0690   96.7040  -44.3420 C   0  0  0  0  0  0  0  0  0  0  0  0
   91.5640   95.9280  -43.2920 C   0  0  0  0  0  3  0  0  0  0  0  0
   91.7720   94.5820  -43.3870 C   0  0  0  0  0  0  0  0  0  0  0  0
   92.4570   93.5940  -41.8830 Br  0  0  0  0  0  0  0  0  0  0  0  0
   91.4930   93.9310  -44.5520 C   0  0  0  0  0  3  0  0  0  0  0  0
   91.0070   94.6420  -45.6120 C   0  0  0  0  0  3  0  0  0  0  0  0
   90.7990   96.0150  -45.5030 C   0  0  0  0  0  3  0  0  0  0  0  0
   92.6880  100.1160  -47.0300 C   0  0  0  0  0  0  0  0  0  0  0  0
   93.2520   99.5860  -48.0820 O   0  0  0  0  0  0  0  0  0  0  0  0
   93.3330  100.3930  -49.0870 C   0  0  0  0  0  0  0  0  0  0  0  0
   92.7740  101.5820  -48.6870 C   0  0  0  0  0  0  0  0  0  0  0  0
   93.8580  100.2060  -50.3590 C   0  0  0  0  0  0  0  0  0  0  0  0
   92.3660  101.4050  -47.3820 C   0  0  0  0  0  3  0  0  0  0  0  0
   92.7390  102.6220  -49.5900 C   0  0  0  0  0  3  0  0  0  0  0  0
   93.2470  102.4930  -50.8670 C   0  0  0  0  0  3  0  0  0  0  0  0
   93.8060  101.2640  -51.2310 C   0  0  0  0  0  3  0  0  0  0  0  0
   94.4140   99.0170  -50.7570 O   0  0  0  0  0  0  0  0  0  0  0  0
   94.1240   98.3070  -51.9180 C   0  0  0  0  0  1  0  0  0  0  0  0
   88.7250   98.7570  -42.8250 C   0  0  0  0  0  2  0  0  0  0  0  0
   88.6680  100.2220  -42.4640 C   0  0  0  0  0  2  0  0  0  0  0  0
   89.9630  100.9450  -42.5520 C   0  0  0  0  0  2  0  0  0  0  0  0
   90.7750  100.8790  -41.3770 N   0  0  0  0  0  4  0  0  0  0  0  0
   90.7280  102.1460  -40.6430 C   0  0  0  0  0  1  0  0  0  0  0  0
   92.1360  100.5420  -41.6600 C   0  0  0  0  0  1  0  0  0  0  0  0
   90.4170  100.1660  -40.6790 H   0  0  0  0  0  0  0  0  0  0  0  0
  1 10  1  6  0  0  0
  1  2  1  0  0  0  0
  2 28  1  0  0  0  0
  3  2  1  0  0  0  0
  4  3  2  0  0  0  0
  5  7  1  0  0  0  0
  5  3  1  0  0  0  0
  6  5  2  0  0  0  0
  7  1  1  0  0  0  0
  8  7  2  0  0  0  0
  8  9  1  0  0  0  0
 10 11  1  0  0  0  0
 12 11  2  0  0  0  0
 12 13  1  0  0  0  0
 14 12  1  0  0  0  0
 15 16  1  0  0  0  0
 15 14  2  0  0  0  0
 16 10  2  0  0  0  0
 17  8  1  0  0  0  0
 18 17  1  0  0  0  0
 19 20  1  0  0  0  0
 19 18  1  0  0  0  0
 20 22  1  0  0  0  0
 21 19  2  0  0  0  0
 22 17  2  0  0  0  0
 23 20  2  0  0  0  0
 24 23  1  0  0  0  0
 25 24  2  0  0  0  0
 25 21  1  0  0  0  0
 26 21  1  0  0  0  0
 27 26  1  0  0  0  0
 28 29  1  0  0  0  0
 30 29  1  0  0  0  0
 30 31  1  0  0  0  0
 31 34  1  0  0  0  0
 31 32  1  0  0  0  0
 33 31  1  0  0  0  0
M  END
>  <Pose>
1

>  <Score>
-6.409

$$$$
