/Users/jonathanwahrer/Desktop/Msc/3_Semester/Drug_Design_Praktikum/waehrer_HTS_screening/HTS_experiment/out/docking_results/vina_output/4agl/0200_docked.pdbqt
 OpenBabel03202223103D

 21 24  0  0  1  0  0  0  0  0999 V2000
   91.3390   96.7490  -44.1910 C   0  0  1  0  0  3  0  0  0  0  0  0
   91.2310   96.0040  -45.2860 N   0  0  0  0  0  0  0  0  0  0  0  0
   91.3710   94.6690  -45.3310 C   0  0  0  0  0  0  0  0  0  0  0  0
   91.3110   93.7150  -46.2770 N   0  0  0  0  0  2  0  0  0  0  0  0
   91.5290   92.5400  -45.7760 O   0  0  0  0  0  0  0  0  0  0  0  0
   91.7330   92.6890  -44.5150 N   0  0  0  0  0  0  0  0  0  0  0  0
   91.6520   93.9810  -44.1580 C   0  0  0  0  0  0  0  0  0  0  0  0
   91.7720   94.6910  -43.0270 N   0  0  0  0  0  0  0  0  0  0  0  0
   92.0350   94.2660  -41.7940 N   0  0  0  0  0  0  0  0  0  0  0  0
   92.0550   95.3470  -40.9990 N   0  0  0  0  0  0  0  0  0  0  0  0
   91.8030   96.4180  -41.7540 N   0  0  0  0  0  0  0  0  0  0  0  0
   91.6250   96.0250  -43.0180 C   0  0  0  0  0  0  0  0  0  0  0  0
   91.2010   98.1540  -44.0960 N   0  0  0  0  0  0  0  0  0  0  0  0
   92.0130   98.7800  -44.3650 H   0  0  0  0  0  0  0  0  0  0  0  0
   90.0350   98.8180  -43.6590 C   0  0  0  0  0  0  0  0  0  0  0  0
   88.7460   98.5350  -44.0220 C   0  0  0  0  0  3  0  0  0  0  0  0
   87.6270   99.2140  -43.5690 C   0  0  0  0  0  0  0  0  0  0  0  0
   85.8700   98.7400  -44.1380 Br  0  0  0  0  0  0  0  0  0  0  0  0
   87.7990  100.2510  -42.6900 C   0  0  0  0  0  3  0  0  0  0  0  0
   89.0710  100.5870  -42.2840 C   0  0  0  0  0  3  0  0  0  0  0  0
   90.1580   99.8930  -42.7530 C   0  0  0  0  0  3  0  0  0  0  0  0
  1 13  1  6  0  0  0
  1 12  1  0  0  0  0
  2  1  1  0  0  0  0
  3  2  2  0  0  0  0
  3  7  1  0  0  0  0
  4  5  1  0  0  0  0
  4  3  1  0  0  0  0
  5  6  1  0  0  0  0
  6  7  2  0  0  0  0
  7  8  1  0  0  0  0
  8 12  1  0  0  0  0
  8  9  1  0  0  0  0
  9 10  2  0  0  0  0
 11 10  1  0  0  0  0
 12 11  2  0  0  0  0
 13 15  1  0  0  0  0
 14 13  1  0  0  0  0
 15 21  1  0  0  0  0
 16 15  2  0  0  0  0
 16 17  1  0  0  0  0
 17 19  2  0  0  0  0
 18 17  1  0  0  0  0
 19 20  1  0  0  0  0
 21 20  2  0  0  0  0
M  END
>  <Pose>
1

>  <Score>
-6.317

$$$$
