/Users/jonathanwahrer/Desktop/Msc/3_Semester/Drug_Design_Praktikum/waehrer_HTS_screening/HTS_experiment/out/docking_results/vina_output/4agl/0201_docked.pdbqt
 OpenBabel03202223103D

 25 28  0  0  0  0  0  0  0  0999 V2000
   92.2630  101.1490  -42.4210 C   0  0  0  0  0  0  0  0  0  0  0  0
   91.6680  102.1950  -42.7780 O   0  0  0  0  0  0  0  0  0  0  0  0
   93.5280  101.2610  -41.8090 N   0  0  0  0  0  0  0  0  0  0  0  0
   94.0090  100.3790  -41.5190 H   0  0  0  0  0  0  0  0  0  0  0  0
   91.6090   99.8680  -42.6590 C   0  0  0  0  0  0  0  0  0  0  0  0
   90.3250   99.6460  -43.0290 N   0  0  0  0  0  0  0  0  0  0  0  0
   90.1450   98.3390  -43.1340 N   0  0  0  0  0  0  0  0  0  0  0  0
   91.2470   97.6970  -42.8530 N   0  0  0  0  0  0  0  0  0  0  0  0
   92.1770   98.6190  -42.5530 C   0  0  0  0  0  3  0  0  0  0  0  0
   91.5010   96.2860  -42.8420 C   0  0  0  0  0  0  0  0  0  0  0  0
   91.4580   95.5100  -43.9750 C   0  0  0  0  0  3  0  0  0  0  0  0
   91.7140   94.1370  -43.9130 C   0  0  0  0  0  0  0  0  0  0  0  0
   91.6540   93.0580  -45.4830 Br  0  0  0  0  0  0  0  0  0  0  0  0
   92.0150   93.5290  -42.7140 C   0  0  0  0  0  3  0  0  0  0  0  0
   92.0620   94.2960  -41.5720 C   0  0  0  0  0  3  0  0  0  0  0  0
   91.8050   95.6690  -41.6480 C   0  0  0  0  0  3  0  0  0  0  0  0
   94.2080  102.5110  -41.5570 C   0  0  0  0  0  2  0  0  0  0  0  0
   94.3570  102.7580  -40.0810 C   0  0  0  0  0  0  0  0  0  0  0  0
   93.3820  102.8870  -39.1490 N   0  0  0  0  0  0  0  0  0  0  0  0
   93.9350  103.0960  -37.9500 C   0  0  0  0  0  0  0  0  0  0  0  0
   91.9320  102.8710  -39.0660 C   0  0  0  0  0  2  0  0  0  0  0  0
   95.2750  103.0960  -38.1530 N   0  0  0  0  0  0  0  0  0  0  0  0
   92.8790  103.2460  -36.8840 C   0  0  0  0  0  2  0  0  0  0  0  0
   95.5270  102.8920  -39.4310 N   0  0  0  0  0  0  0  0  0  0  0  0
   91.6590  103.5400  -37.7320 C   0  0  0  0  0  2  0  0  0  0  0  0
  1  3  1  0  0  0  0
  2  1  2  0  0  0  0
  3 17  1  0  0  0  0
  3  4  1  0  0  0  0
  5  9  2  0  0  0  0
  5  1  1  0  0  0  0
  6  5  1  0  0  0  0
  7  6  2  0  0  0  0
  7  8  1  0  0  0  0
  8 10  1  0  0  0  0
  8  9  1  0  0  0  0
 10 16  1  0  0  0  0
 11 12  1  0  0  0  0
 11 10  2  0  0  0  0
 12 14  2  0  0  0  0
 13 12  1  0  0  0  0
 14 15  1  0  0  0  0
 16 15  2  0  0  0  0
 17 18  1  0  0  0  0
 18 24  2  0  0  0  0
 18 19  1  0  0  0  0
 19 21  1  0  0  0  0
 19 20  1  0  0  0  0
 20 23  1  0  0  0  0
 21 25  1  0  0  0  0
 22 20  2  0  0  0  0
 24 22  1  0  0  0  0
 25 23  1  0  0  0  0
M  END
>  <Pose>
1

>  <Score>
-6.512

$$$$
