/Users/jonathanwahrer/Desktop/Msc/3_Semester/Drug_Design_Praktikum/waehrer_HTS_screening/HTS_experiment/out/docking_results/vina_output/4agl/0213_docked.pdbqt
 OpenBabel03202223113D

 25 28  0  0  1  0  0  0  0  0999 V2000
   91.1720   99.2360  -43.6150 N   0  0  0  0  0  0  0  0  0  0  0  0
   90.8530   99.2740  -45.0240 C   0  0  0  0  0  0  0  0  0  0  0  0
   91.1400  100.1500  -45.8470 O   0  0  0  0  0  0  0  0  0  0  0  0
   90.0910   98.0320  -45.3450 C   0  0  1  0  0  3  0  0  0  0  0  0
   90.3580   97.5070  -46.5960 O   0  0  0  0  0  0  0  0  0  0  0  0
   90.1700   96.1630  -46.3770 N   0  0  0  0  0  0  0  0  0  0  0  0
   90.8380   95.9080  -45.1290 C   0  0  0  0  0  0  0  0  0  0  0  0
   90.8130   97.0360  -44.4600 C   0  0  0  0  0  0  0  0  0  0  0  0
   91.1430   97.8320  -43.2720 C   0  0  0  0  0  0  0  0  0  0  0  0
   91.3570   97.3230  -42.1670 O   0  0  0  0  0  0  0  0  0  0  0  0
   89.6740   95.4750  -46.9530 H   0  0  0  0  0  0  0  0  0  0  0  0
   91.4420  100.3540  -42.7940 C   0  0  0  0  0  0  0  0  0  0  0  0
   92.6750  100.9640  -42.8400 C   0  0  0  0  0  3  0  0  0  0  0  0
   92.9710  102.0680  -42.0340 C   0  0  0  0  0  0  0  0  0  0  0  0
   94.6850  102.8910  -42.1170 Br  0  0  0  0  0  0  0  0  0  0  0  0
   92.0390  102.5850  -41.1650 C   0  0  0  0  0  3  0  0  0  0  0  0
   90.8030  101.9760  -41.1180 C   0  0  0  0  0  3  0  0  0  0  0  0
   90.5110  100.8690  -41.9270 C   0  0  0  0  0  3  0  0  0  0  0  0
   91.4390   94.6860  -44.6650 C   0  0  0  0  0  0  0  0  0  0  0  0
   92.0180   94.5680  -43.4040 C   0  0  0  0  0  3  0  0  0  0  0  0
   92.4830   93.3170  -43.2380 N   0  0  0  0  0  0  0  0  0  0  0  0
   92.2020   92.6780  -44.3610 N   0  0  0  0  0  0  0  0  0  0  0  0
   93.1640   92.7840  -42.0470 C   0  0  0  0  0  1  0  0  0  0  0  0
   91.5780   93.4480  -45.2490 C   0  0  0  0  0  0  0  0  0  0  0  0
   91.0950   93.0780  -46.6220 C   0  0  0  0  0  1  0  0  0  0  0  0
  1  9  1  0  0  0  0
  1 12  1  0  0  0  0
  2  1  1  0  0  0  0
  3  2  2  0  0  0  0
  4  5  1  6  0  0  0
  4  2  1  0  0  0  0
  4  8  1  0  0  0  0
  5  6  1  0  0  0  0
  6  7  1  0  0  0  0
  7 19  1  0  0  0  0
  7  8  2  0  0  0  0
  8  9  1  0  0  0  0
  9 10  2  0  0  0  0
 11  6  1  0  0  0  0
 12 18  1  0  0  0  0
 13 12  2  0  0  0  0
 13 14  1  0  0  0  0
 14 16  2  0  0  0  0
 15 14  1  0  0  0  0
 16 17  1  0  0  0  0
 18 17  2  0  0  0  0
 19 20  2  0  0  0  0
 20 21  1  0  0  0  0
 21 23  1  0  0  0  0
 22 21  1  0  0  0  0
 24 19  1  0  0  0  0
 24 22  2  0  0  0  0
 25 24  1  0  0  0  0
M  END
>  <Pose>
1

>  <Score>
-6.800

$$$$
