/Users/jonathanwahrer/Desktop/Msc/3_Semester/Drug_Design_Praktikum/waehrer_HTS_screening/HTS_experiment/out/docking_results/vina_output/4agl/0216_docked.pdbqt
 OpenBabel03202223113D

 28 31  0  0  1  0  0  0  0  0999 V2000
   88.4000   99.1590  -44.9860 C   0  0  0  0  0  0  0  0  0  0  0  0
   88.8840   99.7830  -45.9630 O   0  0  0  0  0  0  0  0  0  0  0  0
   87.0070   99.0520  -44.7880 N   0  0  0  0  0  0  0  0  0  0  0  0
   86.4110   98.3350  -43.6690 C   0  0  0  0  0  2  0  0  0  0  0  0
   85.0370   97.8260  -44.0890 C   0  0  0  0  0  2  0  0  0  0  0  0
   84.9350   97.6000  -45.5170 N   0  0  0  0  0  0  0  0  0  0  0  0
   84.9830   98.8490  -46.1930 C   0  0  0  0  0  2  0  0  0  0  0  0
   86.1310   99.7020  -45.7710 C   0  0  0  0  0  2  0  0  0  0  0  0
   89.3130   98.5350  -44.0490 C   0  0  1  0  0  3  0  0  0  0  0  0
   90.3530   97.6370  -44.7520 C   0  0  0  0  0  2  0  0  0  0  0  0
   91.0930   97.2610  -43.5560 N   0  0  0  0  0  0  0  0  0  0  0  0
   91.2780   98.5030  -42.8870 C   0  0  0  0  0  0  0  0  0  0  0  0
   90.3090   99.5070  -43.4060 C   0  0  0  0  0  2  0  0  0  0  0  0
   92.1310   98.7190  -41.9950 O   0  0  0  0  0  0  0  0  0  0  0  0
   91.4780   95.9410  -43.2300 C   0  0  0  0  0  0  0  0  0  0  0  0
   91.4930   94.9660  -44.2100 C   0  0  0  0  0  3  0  0  0  0  0  0
   91.8550   93.6490  -43.9500 C   0  0  0  0  0  0  0  0  0  0  0  0
   91.8420   92.3930  -45.3610 Br  0  0  0  0  0  0  0  0  0  0  0  0
   92.2160   93.3020  -42.6490 C   0  0  0  0  0  3  0  0  0  0  0  0
   92.2150   94.2410  -41.6400 C   0  0  0  0  0  3  0  0  0  0  0  0
   91.8460   95.5290  -41.9680 C   0  0  0  0  0  3  0  0  0  0  0  0
   85.8110   96.5800  -45.9710 C   0  0  0  0  0  2  0  0  0  0  0  0
   85.7840   96.3640  -47.4630 C   0  0  0  0  0  2  0  0  0  0  0  0
   87.0730   96.1160  -48.0420 N   0  0  0  0  0  0  0  0  0  0  0  0
   88.2550   96.6240  -47.6870 C   0  0  0  0  0  3  0  0  0  0  0  0
   89.2180   96.1350  -48.4980 N   0  0  0  0  0  0  0  0  0  0  0  0
   88.6420   95.3060  -49.3760 C   0  0  0  0  0  3  0  0  0  0  0  0
   87.2990   95.3020  -49.0820 C   0  0  0  0  0  3  0  0  0  0  0  0
  1  3  1  0  0  0  0
  2  1  2  0  0  0  0
  3  4  1  0  0  0  0
  5  4  1  0  0  0  0
  6  5  1  0  0  0  0
  7  8  1  0  0  0  0
  7  6  1  0  0  0  0
  8  3  1  0  0  0  0
  9  1  1  6  0  0  0
  9 13  1  0  0  0  0
 10  9  1  0  0  0  0
 10 11  1  0  0  0  0
 11 15  1  0  0  0  0
 11 12  1  0  0  0  0
 12 14  2  0  0  0  0
 13 12  1  0  0  0  0
 15 21  1  0  0  0  0
 16 17  1  0  0  0  0
 16 15  2  0  0  0  0
 17 19  2  0  0  0  0
 18 17  1  0  0  0  0
 19 20  1  0  0  0  0
 21 20  2  0  0  0  0
 22  6  1  0  0  0  0
 23 22  1  0  0  0  0
 24 25  1  0  0  0  0
 24 23  1  0  0  0  0
 26 25  2  0  0  0  0
 27 28  2  0  0  0  0
 27 26  1  0  0  0  0
 28 24  1  0  0  0  0
M  END
>  <Pose>
1

>  <Score>
-6.205

$$$$
