/Users/jonathanwahrer/Desktop/Msc/3_Semester/Drug_Design_Praktikum/waehrer_HTS_screening/HTS_experiment/out/docking_results/vina_output/4agl/0219_docked.pdbqt
 OpenBabel03202223113D

 27 30  0  0  1  0  0  0  0  0999 V2000
   91.1570   91.2160  -47.6820 N   0  0  0  0  0  0  0  0  0  0  0  0
   91.8160   90.3060  -48.5550 C   0  0  0  0  0  0  0  0  0  0  0  0
   92.9110   89.8200  -48.1040 O   0  0  0  0  0  0  0  0  0  0  0  0
   90.2590   91.6380  -47.9970 H   0  0  0  0  0  0  0  0  0  0  0  0
   91.3280   89.9110  -49.8930 C   0  0  0  0  0  2  0  0  0  0  0  0
   90.3350   88.8720  -49.8870 N   0  0  0  0  0  0  0  0  0  0  0  0
   88.9310   89.1580  -50.0030 C   0  0  0  0  0  0  0  0  0  0  0  0
   88.3530   90.2600  -49.8260 O   0  0  0  0  0  0  0  0  0  0  0  0
   88.2540   87.9150  -50.3720 C   0  0  1  0  0  3  0  0  0  0  0  0
   89.3420   86.8290  -50.4860 C   0  0  2  0  0  3  0  0  0  0  0  0
   87.3910   87.3190  -49.2950 C   0  0  1  0  0  3  0  0  0  0  0  0
   88.8610   85.6740  -49.6810 C   0  0  2  0  0  3  0  0  0  0  0  0
   90.5010   87.4510  -49.7940 C   0  0  0  0  0  0  0  0  0  0  0  0
   87.3330   85.8610  -49.7930 C   0  0  0  0  0  2  0  0  0  0  0  0
   89.0120   86.0360  -48.2490 C   0  0  0  0  0  2  0  0  0  0  0  0
   88.2420   87.1050  -48.0760 C   0  0  0  0  0  2  0  0  0  0  0  0
   91.4500   86.8780  -49.2300 O   0  0  0  0  0  0  0  0  0  0  0  0
   91.6790   91.5700  -46.3970 C   0  0  0  0  0  2  0  0  0  0  0  0
   91.3430   93.0330  -46.0670 C   0  0  0  0  0  2  0  0  0  0  0  0
   91.7650   93.3720  -44.8920 O   0  0  0  0  0  0  0  0  0  0  0  0
   92.1220   93.6450  -43.6920 C   0  0  0  0  0  0  0  0  0  0  0  0
   93.1930   92.9520  -43.0980 C   0  0  0  0  0  3  0  0  0  0  0  0
   93.6250   93.1920  -41.8230 C   0  0  0  0  0  0  0  0  0  0  0  0
   95.0840   92.2310  -41.0510 Br  0  0  0  0  0  0  0  0  0  0  0  0
   93.0090   94.1450  -41.0580 C   0  0  0  0  0  3  0  0  0  0  0  0
   91.9500   94.8580  -41.5860 C   0  0  0  0  0  3  0  0  0  0  0  0
   91.5190   94.6150  -42.8670 C   0  0  0  0  0  3  0  0  0  0  0  0
  1 18  1  0  0  0  0
  2  3  2  0  0  0  0
  2  1  1  0  0  0  0
  4  1  1  0  0  0  0
  5  6  1  0  0  0  0
  5  2  1  0  0  0  0
  6 13  1  0  0  0  0
  7  6  1  0  0  0  0
  7  8  2  0  0  0  0
  9  7  1  1  0  0  0
  9 11  1  0  0  0  0
 10  9  1  0  0  0  0
 10 13  1  1  0  0  0
 10 12  1  0  0  0  0
 11 14  1  6  0  0  0
 11 16  1  0  0  0  0
 12 14  1  1  0  0  0
 12 15  1  0  0  0  0
 13 17  2  0  0  0  0
 15 16  1  0  0  0  0
 18 19  1  0  0  0  0
 19 20  1  0  0  0  0
 20 21  1  0  0  0  0
 21 22  2  0  0  0  0
 21 27  1  0  0  0  0
 22 23  1  0  0  0  0
 23 25  2  0  0  0  0
 23 24  1  0  0  0  0
 26 25  1  0  0  0  0
 27 26  2  0  0  0  0
M  END
>  <Pose>
1

>  <Score>
-6.833

$$$$
