/Users/jonathanwahrer/Desktop/Msc/3_Semester/Drug_Design_Praktikum/waehrer_HTS_screening/HTS_experiment/out/docking_results/vina_output/4agl/0231_docked.pdbqt
 OpenBabel03202223123D

 34 37  0  0  1  0  0  0  0  0999 V2000
   90.9110   99.5310  -44.5390 C   0  0  2  0  0  3  0  0  0  0  0  0
   90.0200   98.4310  -44.0160 C   0  0  1  0  0  3  0  0  0  0  0  0
   89.2040   98.1270  -45.1690 N   0  0  0  0  0  0  0  0  0  0  0  0
   90.0360   98.3130  -46.3090 C   0  0  0  0  0  0  0  0  0  0  0  0
   89.7360   98.0100  -47.5050 O   0  0  0  0  0  0  0  0  0  0  0  0
   91.3060   98.9150  -45.8580 C   0  0  0  0  0  0  0  0  0  0  0  0
   92.4000   98.8980  -46.4450 O   0  0  0  0  0  0  0  0  0  0  0  0
   92.0620   99.8410  -43.7100 C   0  0  0  0  0  0  0  0  0  0  0  0
   93.2040   99.4360  -44.0110 O   0  0  0  0  0  0  0  0  0  0  0  0
   91.8980  100.6360  -42.5070 C   0  0  0  0  0  0  0  0  0  0  0  0
   92.6820  100.3900  -41.3740 C   0  0  0  0  0  3  0  0  0  0  0  0
   92.5420  101.1230  -40.2250 C   0  0  0  0  0  3  0  0  0  0  0  0
   91.6090  102.1310  -40.1750 C   0  0  0  0  0  0  0  0  0  0  0  0
   91.4290  103.1350  -38.5750 Br  0  0  0  0  0  0  0  0  0  0  0  0
   90.8110  102.4220  -41.2500 C   0  0  0  0  0  3  0  0  0  0  0  0
   90.9810  101.6610  -42.3920 C   0  0  0  0  0  3  0  0  0  0  0  0
   90.7330   97.2880  -43.4660 C   0  0  0  0  0  0  0  0  0  0  0  0
   91.0670   96.1730  -44.2490 C   0  0  0  0  0  3  0  0  0  0  0  0
   91.7470   95.0950  -43.7220 C   0  0  0  0  0  0  0  0  0  0  0  0
   92.1300   95.0730  -42.3930 C   0  0  0  0  0  0  0  0  0  0  0  0
   91.8130   96.1600  -41.6060 C   0  0  0  0  0  3  0  0  0  0  0  0
   92.8150   94.0000  -41.8370 O   0  0  0  0  0  1  0  0  0  0  0  0
   91.1290   97.2350  -42.1500 C   0  0  0  0  0  3  0  0  0  0  0  0
   92.0780   93.9910  -44.4880 O   0  0  0  0  0  0  0  0  0  0  0  0
   91.3990   93.6270  -45.6630 C   0  0  0  0  0  1  0  0  0  0  0  0
   87.8250   97.7140  -45.2430 C   0  0  0  0  0  2  0  0  0  0  0  0
   86.8520   98.8400  -45.0640 C   0  0  0  0  0  2  0  0  0  0  0  0
   86.1940   98.8850  -43.8160 N   0  0  0  0  0  4  0  0  0  0  0  0
   85.3500   97.6900  -43.7030 C   0  0  0  0  0  2  0  0  0  0  0  0
   84.1700   97.7350  -44.6170 C   0  0  0  0  0  2  0  0  0  0  0  0
   83.9050   98.9690  -45.1560 O   0  0  0  0  0  0  0  0  0  0  0  0
   84.0160   99.9610  -44.2120 C   0  0  0  0  0  2  0  0  0  0  0  0
   85.3730  100.0160  -43.5650 C   0  0  0  0  0  2  0  0  0  0  0  0
   86.8840   98.7980  -43.0180 H   0  0  0  0  0  0  0  0  0  0  0  0
  1  2  1  0  0  0  0
  1  8  1  1  0  0  0
  2 17  1  6  0  0  0
  3  2  1  0  0  0  0
  4  6  1  0  0  0  0
  4  3  1  0  0  0  0
  5  4  2  0  0  0  0
  6  1  1  0  0  0  0
  7  6  2  0  0  0  0
  8 10  1  0  0  0  0
  9  8  2  0  0  0  0
 10 16  2  0  0  0  0
 10 11  1  0  0  0  0
 11 12  2  0  0  0  0
 12 13  1  0  0  0  0
 13 14  1  0  0  0  0
 15 13  2  0  0  0  0
 16 15  1  0  0  0  0
 17 23  1  0  0  0  0
 18 19  1  0  0  0  0
 18 17  2  0  0  0  0
 19 20  2  0  0  0  0
 20 22  1  0  0  0  0
 20 21  1  0  0  0  0
 23 21  2  0  0  0  0
 24 19  1  0  0  0  0
 25 24  1  0  0  0  0
 26  3  1  0  0  0  0
 26 27  1  0  0  0  0
 27 28  1  0  0  0  0
 28 29  1  0  0  0  0
 28 33  1  0  0  0  0
 28 34  1  0  0  0  0
 30 29  1  0  0  0  0
 31 30  1  0  0  0  0
 31 32  1  0  0  0  0
 32 33  1  0  0  0  0
M  END
>  <Pose>
1

>  <Score>
-6.029

$$$$
