/Users/jonathanwahrer/Desktop/Msc/3_Semester/Drug_Design_Praktikum/waehrer_HTS_screening/HTS_experiment/out/docking_results/vina_output/4agl/0235_docked.pdbqt
 OpenBabel03202223123D

 25 28  0  0  1  0  0  0  0  0999 V2000
   89.9550   98.0110  -44.5670 C   0  0  1  0  0  3  0  0  0  0  0  0
   89.9960   99.1560  -43.6710 N   0  0  0  0  0  0  0  0  0  0  0  0
   90.6540   99.5080  -42.5110 N   0  0  0  0  0  2  0  0  0  0  0  0
   90.5790  100.6760  -41.9760 C   0  0  0  0  0  3  0  0  0  0  0  0
   89.7600  101.6930  -42.5930 C   0  0  0  0  0  3  0  0  0  0  0  0
   89.0810  101.4260  -43.6850 C   0  0  0  0  0  3  0  0  0  0  0  0
   89.1040  100.1180  -44.3130 C   0  0  0  0  0  0  0  0  0  0  0  0
   89.5890  100.0690  -45.7180 C   0  0  2  0  0  3  0  0  0  0  0  0
   90.2310   98.6880  -45.8920 C   0  0  1  0  0  3  0  0  0  0  0  0
   91.6470   98.9810  -46.1000 C   0  0  0  0  0  0  0  0  0  0  0  0
   92.5880   98.1430  -46.0260 O   0  0  0  0  0  0  0  0  0  0  0  0
   91.7920  100.3560  -46.3980 N   0  0  0  0  0  0  0  0  0  0  0  0
   90.6180  101.0690  -46.0280 C   0  0  0  0  0  0  0  0  0  0  0  0
   90.4790  102.3150  -45.9740 O   0  0  0  0  0  0  0  0  0  0  0  0
   90.9740   97.0140  -44.2110 C   0  0  0  0  0  0  0  0  0  0  0  0
   91.8060   97.3510  -43.3070 O   0  0  0  0  0  0  0  0  0  0  0  0
   91.1030   95.6990  -44.7980 C   0  0  0  0  0  0  0  0  0  0  0  0
   90.5350   95.3700  -46.0020 C   0  0  0  0  0  3  0  0  0  0  0  0
   90.6940   94.1030  -46.5160 C   0  0  0  0  0  3  0  0  0  0  0  0
   91.4090   93.1130  -45.8790 C   0  0  0  0  0  0  0  0  0  0  0  0
   91.5920   91.3750  -46.6480 Br  0  0  0  0  0  0  0  0  0  0  0  0
   91.9780   93.4470  -44.6700 C   0  0  0  0  0  3  0  0  0  0  0  0
   91.8250   94.7110  -44.1480 C   0  0  0  0  0  3  0  0  0  0  0  0
   92.9540  100.9740  -46.9920 C   0  0  0  0  0  2  0  0  0  0  0  0
   93.1080  100.6770  -48.4530 C   0  0  0  0  0  1  0  0  0  0  0  0
  1 15  1  1  0  0  0
  1  2  1  0  0  0  0
  2  3  1  0  0  0  0
  3  4  1  0  0  0  0
  5  4  2  0  0  0  0
  6  5  1  0  0  0  0
  7  6  2  0  0  0  0
  7  2  1  0  0  0  0
  8 13  1  1  0  0  0
  8  7  1  0  0  0  0
  9 10  1  1  0  0  0
  9  8  1  0  0  0  0
  9  1  1  0  0  0  0
 10 11  2  0  0  0  0
 12 10  1  0  0  0  0
 12 13  1  0  0  0  0
 13 14  2  0  0  0  0
 15 16  2  0  0  0  0
 17 15  1  0  0  0  0
 17 23  1  0  0  0  0
 18 17  2  0  0  0  0
 19 18  1  0  0  0  0
 19 20  2  0  0  0  0
 20 22  1  0  0  0  0
 21 20  1  0  0  0  0
 22 23  2  0  0  0  0
 24 12  1  0  0  0  0
 25 24  1  0  0  0  0
M  END
>  <Pose>
1

>  <Score>
-6.014

$$$$
