/Users/jonathanwahrer/Desktop/Msc/3_Semester/Drug_Design_Praktikum/waehrer_HTS_screening/HTS_experiment/out/docking_results/vina_output/4agl/0244_docked.pdbqt
 OpenBabel03202223123D

 25 28  0  0  1  0  0  0  0  0999 V2000
   90.9730   98.7460  -42.8660 C   0  0  2  0  0  3  0  0  0  0  0  0
   89.7610   99.6220  -43.0840 C   0  0  0  0  0  2  0  0  0  0  0  0
   90.1540  100.4470  -44.2130 N   0  0  0  0  0  0  0  0  0  0  0  0
   91.5990  100.5530  -44.2420 C   0  0  1  0  0  3  0  0  0  0  0  0
   92.1550   99.6130  -43.2260 C   0  0  0  0  0  2  0  0  0  0  0  0
   92.0200  100.2270  -45.6290 C   0  0  0  0  0  0  0  0  0  0  0  0
   92.9690   99.4560  -45.9030 O   0  0  0  0  0  0  0  0  0  0  0  0
   91.3300  100.8030  -46.7220 N   0  0  0  0  0  0  0  0  0  0  0  0
   89.9470  101.2230  -46.6340 C   0  0  2  0  0  3  0  0  0  0  0  0
   90.0390  102.6140  -47.1750 C   0  0  0  0  0  2  0  0  0  0  0  0
   91.0110  102.4220  -48.3450 C   0  0  0  0  0  2  0  0  0  0  0  0
   91.7440  101.1070  -48.0630 C   0  0  0  0  0  2  0  0  0  0  0  0
   89.4480  101.1340  -45.2380 C   0  0  0  0  0  0  0  0  0  0  0  0
   88.3410  101.6910  -44.9230 O   0  0  0  0  0  0  0  0  0  0  0  0
   90.9950   97.5940  -43.7060 N   0  0  0  0  0  0  0  0  0  0  0  0
   91.4490   96.3550  -43.1860 C   0  0  0  0  0  0  0  0  0  0  0  0
   91.8250   96.2830  -41.9970 O   0  0  0  0  0  0  0  0  0  0  0  0
   90.6710   97.6990  -44.7000 H   0  0  0  0  0  0  0  0  0  0  0  0
   91.4880   95.1400  -44.0230 C   0  0  0  0  0  0  0  0  0  0  0  0
   91.1220   95.2270  -45.3480 C   0  0  0  0  0  3  0  0  0  0  0  0
   91.1470   94.1120  -46.1570 C   0  0  0  0  0  3  0  0  0  0  0  0
   91.5360   92.8700  -45.6840 C   0  0  0  0  0  0  0  0  0  0  0  0
   91.5460   91.3770  -46.8570 Br  0  0  0  0  0  0  0  0  0  0  0  0
   91.9030   92.7820  -44.3540 C   0  0  0  0  0  3  0  0  0  0  0  0
   91.8710   93.9210  -43.5520 C   0  0  0  0  0  3  0  0  0  0  0  0
  1 15  1  6  0  0  0
  2  1  1  0  0  0  0
  3  2  1  0  0  0  0
  4  3  1  0  0  0  0
  4  5  1  1  0  0  0
  5  1  1  0  0  0  0
  6  4  1  0  0  0  0
  7  6  2  0  0  0  0
  8  9  1  0  0  0  0
  8  6  1  0  0  0  0
  9 10  1  1  0  0  0
  9 13  1  0  0  0  0
 11 12  1  0  0  0  0
 11 10  1  0  0  0  0
 12  8  1  0  0  0  0
 13 14  2  0  0  0  0
 13  3  1  0  0  0  0
 15 16  1  0  0  0  0
 16 17  2  0  0  0  0
 18 15  1  0  0  0  0
 19 25  1  0  0  0  0
 19 16  1  0  0  0  0
 20 19  2  0  0  0  0
 21 22  2  0  0  0  0
 21 20  1  0  0  0  0
 22 24  1  0  0  0  0
 23 22  1  0  0  0  0
 24 25  2  0  0  0  0
M  END
>  <Pose>
1

>  <Score>
-6.046

$$$$
