/Users/jonathanwahrer/Desktop/Msc/3_Semester/Drug_Design_Praktikum/waehrer_HTS_screening/HTS_experiment/out/docking_results/vina_output/4agl/0247_docked.pdbqt
 OpenBabel03202223123D

 23 26  0  0  1  0  0  0  0  0999 V2000
   90.7550   99.1890  -43.5840 N   0  0  0  0  0  0  0  0  0  0  0  0
   91.7590  100.1910  -43.4650 C   0  0  0  0  0  0  0  0  0  0  0  0
   92.9650   99.9740  -43.8270 O   0  0  0  0  0  0  0  0  0  0  0  0
   91.1880  101.4350  -42.8880 C   0  0  2  0  0  3  0  0  0  0  0  0
   89.7080  101.1080  -42.8360 C   0  0  1  0  0  3  0  0  0  0  0  0
   89.2220  101.8050  -44.0890 C   0  0  1  0  0  3  0  0  0  0  0  0
   89.8770  103.1750  -43.8160 C   0  0  0  0  0  2  0  0  0  0  0  0
   91.2990  102.5840  -43.8500 C   0  0  2  0  0  3  0  0  0  0  0  0
   91.2310  101.9780  -45.2260 C   0  0  0  0  0  2  0  0  0  0  0  0
   90.0330  101.4080  -45.2740 C   0  0  0  0  0  2  0  0  0  0  0  0
   89.5890   99.6420  -42.9270 C   0  0  0  0  0  0  0  0  0  0  0  0
   88.6340   98.9600  -42.4980 O   0  0  0  0  0  0  0  0  0  0  0  0
   90.8240   97.9270  -44.2310 N   0  0  0  0  0  0  0  0  0  0  0  0
   91.3440   96.7910  -43.5750 C   0  0  0  0  0  0  0  0  0  0  0  0
   91.7700   96.8470  -42.3750 O   0  0  0  0  0  0  0  0  0  0  0  0
   90.4760   97.8500  -45.2040 H   0  0  0  0  0  0  0  0  0  0  0  0
   91.4070   95.5170  -44.2490 C   0  0  0  0  0  0  0  0  0  0  0  0
   91.0410   95.4450  -45.5900 C   0  0  0  0  0  3  0  0  0  0  0  0
   91.0740   94.2470  -46.2720 C   0  0  0  0  0  3  0  0  0  0  0  0
   91.4690   93.1020  -45.6440 C   0  0  0  0  0  0  0  0  0  0  0  0
   91.5030   91.4520  -46.6110 Br  0  0  0  0  0  0  0  0  0  0  0  0
   91.8390   93.1570  -44.3000 C   0  0  0  0  0  3  0  0  0  0  0  0
   91.8020   94.3530  -43.6320 C   0  0  0  0  0  3  0  0  0  0  0  0
  1  2  1  0  0  0  0
  1 11  1  0  0  0  0
  3  2  2  0  0  0  0
  4  2  1  6  0  0  0
  4  5  1  0  0  0  0
  5 11  1  6  0  0  0
  6 10  1  6  0  0  0
  6  7  1  0  0  0  0
  6  5  1  0  0  0  0
  8  9  1  6  0  0  0
  8  7  1  0  0  0  0
  8  4  1  0  0  0  0
 10  9  1  0  0  0  0
 11 12  2  0  0  0  0
 13  1  1  0  0  0  0
 13 14  1  0  0  0  0
 14 15  2  0  0  0  0
 16 13  1  0  0  0  0
 17 23  1  0  0  0  0
 17 14  1  0  0  0  0
 18 17  2  0  0  0  0
 19 20  2  0  0  0  0
 19 18  1  0  0  0  0
 20 22  1  0  0  0  0
 21 20  1  0  0  0  0
 22 23  2  0  0  0  0
M  END
>  <Pose>
1

>  <Score>
-5.973

$$$$
