/Users/jonathanwahrer/Desktop/Msc/3_Semester/Drug_Design_Praktikum/waehrer_HTS_screening/HTS_experiment/out/docking_results/vina_output/4agl/0263_docked.pdbqt
 OpenBabel03202223133D

 34 37  0  0  1  0  0  0  0  0999 V2000
   92.6140  101.2710  -43.5990 C   0  0  0  0  0  0  0  0  0  0  0  0
   91.3340  101.5260  -43.5440 C   0  0  0  0  0  0  0  0  0  0  0  0
   90.2040  100.6000  -43.9140 C   0  0  2  0  0  3  0  0  0  0  0  0
   89.1620  100.9830  -43.0250 N   0  0  0  0  0  0  0  0  0  0  0  0
   89.3450  102.3900  -42.7350 C   0  0  0  0  0  0  0  0  0  0  0  0
   88.4920  103.1930  -42.2850 O   0  0  0  0  0  0  0  0  0  0  0  0
   90.7220  102.7430  -43.0610 C   0  0  0  0  0  0  0  0  0  0  0  0
   91.2380  103.9040  -42.9270 O   0  0  0  0  0  0  0  0  0  0  0  0
   93.0200   99.9920  -44.0420 O   0  0  0  0  0  1  0  0  0  0  0  0
   93.5980  102.2690  -43.2140 C   0  0  0  0  0  0  0  0  0  0  0  0
   94.1050  102.1510  -41.9210 C   0  0  0  0  0  3  0  0  0  0  0  0
   95.0690  103.0070  -41.4670 C   0  0  0  0  0  3  0  0  0  0  0  0
   95.5330  103.9910  -42.3100 C   0  0  0  0  0  0  0  0  0  0  0  0
   96.8890  105.1780  -41.6370 Br  0  0  0  0  0  0  0  0  0  0  0  0
   95.0360  104.1130  -43.5900 C   0  0  0  0  0  3  0  0  0  0  0  0
   94.0630  103.2430  -44.0360 C   0  0  0  0  0  3  0  0  0  0  0  0
   90.6330   99.2080  -43.9090 C   0  0  0  0  0  0  0  0  0  0  0  0
   91.0770   98.5080  -42.8200 C   0  0  0  0  0  3  0  0  0  0  0  0
   91.4550   97.1920  -42.8970 C   0  0  0  0  0  0  0  0  0  0  0  0
   91.3910   96.5420  -44.0990 C   0  0  0  0  0  3  0  0  0  0  0  0
   90.9470   97.2010  -45.2420 C   0  0  0  0  0  3  0  0  0  0  0  0
   90.5780   98.5160  -45.1300 C   0  0  0  0  0  3  0  0  0  0  0  0
   91.9020   96.5330  -41.7350 N   0  0  0  0  0  0  0  0  0  0  0  0
   91.5160   95.3760  -41.4270 O   0  0  0  0  0  0  0  0  0  0  0  0
   92.7930   97.1850  -40.9130 O   0  0  0  0  0  0  0  0  0  0  0  0
   88.0260  100.2820  -42.4540 C   0  0  0  0  0  2  0  0  0  0  0  0
   86.7420  100.4170  -43.2060 C   0  0  0  0  0  2  0  0  0  0  0  0
   86.1470   99.1340  -43.5440 N   0  0  0  0  0  4  0  0  0  0  0  0
   86.7630   98.5780  -44.7540 C   0  0  0  0  0  2  0  0  0  0  0  0
   86.1600   97.1740  -44.8940 C   0  0  0  0  0  2  0  0  0  0  0  0
   84.7940   97.2040  -45.0260 O   0  0  0  0  0  0  0  0  0  0  0  0
   84.1420   97.9260  -44.0390 C   0  0  0  0  0  2  0  0  0  0  0  0
   84.7470   99.2940  -43.8430 C   0  0  0  0  0  2  0  0  0  0  0  0
   86.2550   98.4160  -42.8230 H   0  0  0  0  0  0  0  0  0  0  0  0
  1  2  2  0  0  0  0
  1 10  1  0  0  0  0
  2  7  1  0  0  0  0
  3 17  1  1  0  0  0
  3  2  1  0  0  0  0
  3  4  1  0  0  0  0
  4  5  1  0  0  0  0
  4 26  1  0  0  0  0
  5  6  2  0  0  0  0
  7  8  2  0  0  0  0
  7  5  1  0  0  0  0
  9  1  1  0  0  0  0
 10 11  1  0  0  0  0
 11 12  2  0  0  0  0
 13 14  1  0  0  0  0
 13 12  1  0  0  0  0
 15 13  2  0  0  0  0
 16 15  1  0  0  0  0
 16 10  2  0  0  0  0
 17 18  1  0  0  0  0
 19 18  2  0  0  0  0
 19 23  1  0  0  0  0
 20 19  1  0  0  0  0
 21 22  1  0  0  0  0
 21 20  2  0  0  0  0
 22 17  2  0  0  0  0
 23 24  2  0  0  0  0
 23 25  2  0  0  0  0
 27 26  1  0  0  0  0
 28 27  1  0  0  0  0
 28 34  1  0  0  0  0
 29 28  1  0  0  0  0
 30 29  1  0  0  0  0
 31 30  1  0  0  0  0
 31 32  1  0  0  0  0
 32 33  1  0  0  0  0
 33 28  1  0  0  0  0
M  END
>  <Pose>
1

>  <Score>
-6.037

$$$$
