/Users/jonathanwahrer/Desktop/Msc/3_Semester/Drug_Design_Praktikum/waehrer_HTS_screening/HTS_experiment/out/docking_results/vina_output/4agl/0265_docked.pdbqt
 OpenBabel03202223143D

 35 38  0  0  1  0  0  0  0  0999 V2000
   88.3220   98.5080  -44.7670 C   0  0  0  0  0  0  0  0  0  0  0  0
   89.4960   98.9330  -45.1810 C   0  0  0  0  0  0  0  0  0  0  0  0
   90.6740   99.2670  -44.3030 C   0  0  2  0  0  3  0  0  0  0  0  0
   91.6860   99.7590  -45.1720 N   0  0  0  0  0  0  0  0  0  0  0  0
   91.2920   99.6340  -46.5540 C   0  0  0  0  0  0  0  0  0  0  0  0
   91.9450   99.8980  -47.5730 O   0  0  0  0  0  0  0  0  0  0  0  0
   89.9070   99.1090  -46.5550 C   0  0  0  0  0  0  0  0  0  0  0  0
   89.2230   98.8630  -47.6000 O   0  0  0  0  0  0  0  0  0  0  0  0
   88.1850   98.3560  -43.3680 O   0  0  0  0  0  1  0  0  0  0  0  0
   91.0640   97.9610  -43.6880 C   0  0  0  0  0  0  0  0  0  0  0  0
   91.0680   96.8550  -44.4770 C   0  0  0  0  0  3  0  0  0  0  0  0
   91.4150   95.6230  -43.9600 C   0  0  0  0  0  3  0  0  0  0  0  0
   91.7580   95.5090  -42.6410 C   0  0  0  0  0  0  0  0  0  0  0  0
   91.7540   96.6260  -41.8470 C   0  0  0  0  0  3  0  0  0  0  0  0
   91.4080   97.8660  -42.3600 C   0  0  0  0  0  3  0  0  0  0  0  0
   92.1250   94.2060  -42.0800 C   0  0  0  0  0  0  0  0  0  0  0  0
   91.3440   93.2310  -42.2210 O   0  0  0  0  0  0  0  0  0  0  0  0
   93.2890   93.9880  -41.3960 O   0  0  0  0  0  0  0  0  0  0  0  0
   93.9800   92.7590  -41.4280 C   0  0  0  0  0  1  0  0  0  0  0  0
   92.9650  100.3140  -44.8170 C   0  0  0  0  0  2  0  0  0  0  0  0
   92.9150  101.5350  -43.9640 C   0  0  0  0  0  2  0  0  0  0  0  0
   93.3590  101.3600  -42.6140 N   0  0  0  0  0  4  0  0  0  0  0  0
   92.2920  101.3770  -41.6350 C   0  0  0  0  0  2  0  0  0  0  0  0
   92.9010  100.9870  -40.3040 C   0  0  0  0  0  2  0  0  0  0  0  0
   93.7580  102.0550  -39.9470 O   0  0  0  0  0  0  0  0  0  0  0  0
   94.8210  102.0060  -40.8540 C   0  0  0  0  0  2  0  0  0  0  0  0
   94.2860  102.4360  -42.2110 C   0  0  0  0  0  2  0  0  0  0  0  0
   93.9480  100.4920  -42.5010 H   0  0  0  0  0  0  0  0  0  0  0  0
   87.2110   98.2030  -45.6570 C   0  0  0  0  0  0  0  0  0  0  0  0
   87.0190   96.8960  -46.1230 C   0  0  0  0  0  3  0  0  0  0  0  0
   85.9670   96.5400  -46.9390 C   0  0  0  0  0  3  0  0  0  0  0  0
   85.0400   97.4790  -47.3380 C   0  0  0  0  0  0  0  0  0  0  0  0
   83.5910   96.9590  -48.4730 Br  0  0  0  0  0  0  0  0  0  0  0  0
   85.2060   98.7690  -46.8930 C   0  0  0  0  0  3  0  0  0  0  0  0
   86.2770   99.1260  -46.0640 C   0  0  0  0  0  3  0  0  0  0  0  0
  1  9  1  0  0  0  0
  2  1  2  0  0  0  0
  2  3  1  0  0  0  0
  3 10  1  6  0  0  0
  4 20  1  0  0  0  0
  4  3  1  0  0  0  0
  5  4  1  0  0  0  0
  6  5  2  0  0  0  0
  7  5  1  0  0  0  0
  7  2  1  0  0  0  0
  8  7  2  0  0  0  0
 10 15  1  0  0  0  0
 11 12  1  0  0  0  0
 11 10  2  0  0  0  0
 12 13  2  0  0  0  0
 13 16  1  0  0  0  0
 13 14  1  0  0  0  0
 15 14  2  0  0  0  0
 16 18  1  0  0  0  0
 17 16  2  0  0  0  0
 19 18  1  0  0  0  0
 20 21  1  0  0  0  0
 21 22  1  0  0  0  0
 22 28  1  0  0  0  0
 22 27  1  0  0  0  0
 22 23  1  0  0  0  0
 23 24  1  0  0  0  0
 24 25  1  0  0  0  0
 26 25  1  0  0  0  0
 27 26  1  0  0  0  0
 29  1  1  0  0  0  0
 30 29  2  0  0  0  0
 31 30  1  0  0  0  0
 32 31  2  0  0  0  0
 32 34  1  0  0  0  0
 33 32  1  0  0  0  0
 34 35  2  0  0  0  0
 35 29  1  0  0  0  0
M  END
>  <Pose>
1

>  <Score>
-6.327

$$$$
