/Users/jonathanwahrer/Desktop/Msc/3_Semester/Drug_Design_Praktikum/waehrer_HTS_screening/HTS_experiment/out/docking_results/vina_output/4agl/0278_docked.pdbqt
 OpenBabel03202223143D

 30 33  0  0  1  0  0  0  0  0999 V2000
   91.6140  100.2030  -43.1350 N   0  0  0  0  0  0  0  0  0  0  0  0
   90.2740  100.0140  -43.0690 C   0  0  0  0  0  0  0  0  0  0  0  0
   89.9940   98.9460  -43.9060 C   0  0  0  0  0  0  0  0  0  0  0  0
   88.6810   98.5340  -44.0390 C   0  0  0  0  0  3  0  0  0  0  0  0
   87.6350   99.1640  -43.3540 C   0  0  0  0  0  3  0  0  0  0  0  0
   87.9660  100.2300  -42.5270 C   0  0  0  0  0  3  0  0  0  0  0  0
   89.2610  100.6590  -42.3770 C   0  0  0  0  0  3  0  0  0  0  0  0
   91.1470   98.4850  -44.4750 N   0  0  0  0  0  0  0  0  0  0  0  0
   92.1260   99.2860  -43.9770 C   0  0  2  0  0  3  0  0  0  0  0  0
   92.2740  101.2340  -42.3870 C   0  0  0  0  0  2  0  0  0  0  0  0
   92.9640  100.7290  -41.1570 C   0  0  1  0  0  3  0  0  0  0  0  0
   92.7490  101.6750  -39.9980 C   0  0  0  0  0  0  0  0  0  0  0  0
   93.8120  102.0710  -39.2250 C   0  0  0  0  0  3  0  0  0  0  0  0
   93.6200  102.9320  -38.1770 C   0  0  0  0  0  3  0  0  0  0  0  0
   92.3490  103.3900  -37.9140 C   0  0  0  0  0  0  0  0  0  0  0  0
   92.0710  104.5940  -36.4520 Br  0  0  0  0  0  0  0  0  0  0  0  0
   91.2510  103.0260  -38.6570 C   0  0  0  0  0  3  0  0  0  0  0  0
   91.4950  102.1540  -39.7070 C   0  0  0  0  0  3  0  0  0  0  0  0
   92.5440   99.4800  -40.7420 O   0  0  0  0  0  0  0  0  0  0  0  0
   91.5740   99.3990  -40.6640 H   0  0  0  0  0  0  0  0  0  0  0  0
   93.3720   99.1580  -44.2900 N   0  0  0  0  0  0  0  0  0  0  0  0
   93.9060   98.3100  -43.9330 H   0  0  0  0  0  0  0  0  0  0  0  0
   93.9270   99.8020  -44.8580 H   0  0  0  0  0  0  0  0  0  0  0  0
   91.2080   97.3770  -45.3810 C   0  0  0  0  0  2  0  0  0  0  0  0
   91.3970   96.0510  -44.6980 C   0  0  0  0  0  0  0  0  0  0  0  0
   91.4150   94.8980  -45.4650 C   0  0  0  0  0  3  0  0  0  0  0  0
   91.5850   93.6440  -44.9120 C   0  0  0  0  0  3  0  0  0  0  0  0
   91.7410   93.5680  -43.5500 C   0  0  0  0  0  3  0  0  0  0  0  0
   91.7260   94.6930  -42.7680 C   0  0  0  0  0  3  0  0  0  0  0  0
   91.5550   95.9220  -43.3470 C   0  0  0  0  0  3  0  0  0  0  0  0
  1  2  1  0  0  0  0
  1 10  1  0  0  0  0
  2  7  1  0  0  0  0
  3  2  2  0  0  0  0
  4  3  1  0  0  0  0
  4  5  2  0  0  0  0
  5  6  1  0  0  0  0
  6  7  2  0  0  0  0
  8  9  1  0  0  0  0
  8  3  1  0  0  0  0
  9 21  1  1  0  0  0
  9  1  1  0  0  0  0
 11 10  1  6  0  0  0
 11 19  1  0  0  0  0
 11 12  1  0  0  0  0
 12 18  2  0  0  0  0
 12 13  1  0  0  0  0
 13 14  2  0  0  0  0
 14 15  1  0  0  0  0
 15 16  1  0  0  0  0
 17 15  2  0  0  0  0
 18 17  1  0  0  0  0
 19 20  1  0  0  0  0
 21 22  1  0  0  0  0
 23 21  1  0  0  0  0
 24 25  1  0  0  0  0
 24  8  1  0  0  0  0
 25 30  1  0  0  0  0
 26 27  1  0  0  0  0
 26 25  2  0  0  0  0
 27 28  2  0  0  0  0
 28 29  1  0  0  0  0
 30 29  2  0  0  0  0
M  END
>  <Pose>
1

>  <Score>
-6.865

$$$$
