/Users/jonathanwahrer/Desktop/Msc/3_Semester/Drug_Design_Praktikum/waehrer_HTS_screening/HTS_experiment/out/docking_results/vina_output/4agl/0289_docked.pdbqt
 OpenBabel03202223153D

 31 34  0  0  0  0  0  0  0  0999 V2000
   90.9050   98.6310  -43.7540 C   0  0  0  0  0  0  0  0  0  0  0  0
   90.7620   97.8350  -44.8260 N   0  0  0  0  0  0  0  0  0  0  0  0
   91.0790   96.5640  -44.4830 C   0  0  0  0  0  0  0  0  0  0  0  0
   91.4370   96.5450  -43.1520 C   0  0  0  0  0  0  0  0  0  0  0  0
   91.3250   97.8060  -42.7370 N   0  0  0  0  0  0  0  0  0  0  0  0
   91.7950   95.3810  -42.5790 N   0  0  0  0  0  0  0  0  0  0  0  0
   91.8140   94.2310  -43.2650 C   0  0  0  0  0  0  0  0  0  0  0  0
   92.1570   93.1500  -42.6870 O   0  0  0  0  0  0  0  0  0  0  0  0
   91.4680   94.2280  -44.5630 N   0  0  0  0  0  0  0  0  0  0  0  0
   91.1070   95.3690  -45.1660 C   0  0  0  0  0  0  0  0  0  0  0  0
   90.7830   95.3630  -46.3790 O   0  0  0  0  0  0  0  0  0  0  0  0
   92.1650   95.3990  -41.1590 C   0  0  0  0  0  1  0  0  0  0  0  0
   91.4810   93.3200  -45.1130 H   0  0  0  0  0  0  0  0  0  0  0  0
   90.6420  100.0090  -43.6530 N   0  0  0  0  0  0  0  0  0  0  0  0
   91.5160  101.0160  -44.1460 C   0  0  0  0  0  2  0  0  0  0  0  0
   91.9580  101.8520  -42.9490 C   0  0  0  0  0  2  0  0  0  0  0  0
   91.3050  101.4840  -41.7650 N   0  0  0  0  0  0  0  0  0  0  0  0
   89.9300  101.1970  -41.7480 C   0  0  0  0  0  2  0  0  0  0  0  0
   89.4380  100.4650  -43.0020 C   0  0  0  0  0  2  0  0  0  0  0  0
   92.1210  100.9010  -40.7520 C   0  0  0  0  0  2  0  0  0  0  0  0
   92.5780  101.8430  -39.7130 C   0  0  0  0  0  0  0  0  0  0  0  0
   91.6370  102.6160  -39.0800 C   0  0  0  0  0  3  0  0  0  0  0  0
   92.0190  103.5060  -38.0890 C   0  0  0  0  0  3  0  0  0  0  0  0
   93.3430  103.6310  -37.7230 C   0  0  0  0  0  0  0  0  0  0  0  0
   93.8670  104.8650  -36.3460 Br  0  0  0  0  0  0  0  0  0  0  0  0
   94.2710  102.8480  -38.3720 C   0  0  0  0  0  3  0  0  0  0  0  0
   93.9070  101.9570  -39.3610 C   0  0  0  0  0  3  0  0  0  0  0  0
   90.3870   98.1960  -46.1670 C   0  0  0  0  0  2  0  0  0  0  0  0
   88.9050   98.4650  -46.2920 C   0  0  0  0  0  2  0  0  0  0  0  0
   88.1080   97.4510  -45.8020 O   0  0  0  0  0  0  0  0  0  0  0  0
   87.1940   98.0720  -44.9190 C   0  0  0  0  0  1  0  0  0  0  0  0
  1 14  1  0  0  0  0
  1  5  2  0  0  0  0
  2  3  1  0  0  0  0
  2  1  1  0  0  0  0
  3  4  2  0  0  0  0
  4  5  1  0  0  0  0
  4  6  1  0  0  0  0
  6 12  1  0  0  0  0
  7  8  2  0  0  0  0
  7  6  1  0  0  0  0
  9  7  1  0  0  0  0
 10  9  1  0  0  0  0
 10  3  1  0  0  0  0
 11 10  2  0  0  0  0
 13  9  1  0  0  0  0
 14 19  1  0  0  0  0
 15 14  1  0  0  0  0
 15 16  1  0  0  0  0
 16 17  1  0  0  0  0
 17 18  1  0  0  0  0
 17 20  1  0  0  0  0
 19 18  1  0  0  0  0
 20 21  1  0  0  0  0
 21 27  2  0  0  0  0
 21 22  1  0  0  0  0
 22 23  2  0  0  0  0
 23 24  1  0  0  0  0
 24 25  1  0  0  0  0
 26 24  2  0  0  0  0
 27 26  1  0  0  0  0
 28  2  1  0  0  0  0
 29 28  1  0  0  0  0
 29 30  1  0  0  0  0
 30 31  1  0  0  0  0
M  END
>  <Pose>
1

>  <Score>
-6.280

$$$$
