/Users/jonathanwahrer/Desktop/Msc/3_Semester/Drug_Design_Praktikum/waehrer_HTS_screening/HTS_experiment/out/docking_results/vina_output/4agl/0294_docked.pdbqt
 OpenBabel03202223153D

 35 38  0  0  0  0  0  0  0  0999 V2000
   91.4070  101.3490  -41.9050 N   0  0  0  0  0  0  0  0  0  0  0  0
   91.9800  101.5380  -40.6780 N   0  0  0  0  0  0  0  0  0  0  0  0
   93.1570  102.1570  -40.8410 C   0  0  0  0  0  0  0  0  0  0  0  0
   93.2890  102.3380  -42.1540 N   0  0  0  0  0  0  0  0  0  0  0  0
   92.1910  101.8310  -42.8330 C   0  0  0  0  0  0  0  0  0  0  0  0
   90.1090  100.7110  -42.0000 C   0  0  0  0  0  2  0  0  0  0  0  0
   90.1650   99.4940  -42.8510 C   0  0  0  0  0  0  0  0  0  0  0  0
   91.1780   98.5220  -42.6670 N   0  0  0  0  0  0  0  0  0  0  0  0
   91.9220   98.6430  -41.9140 H   0  0  0  0  0  0  0  0  0  0  0  0
   89.3070   99.3190  -43.7450 O   0  0  0  0  0  0  0  0  0  0  0  0
   91.2010   97.4050  -43.4720 N   0  0  0  0  0  0  0  0  0  0  0  0
   91.5230   96.2280  -43.1020 C   0  0  0  0  0  3  0  0  0  0  0  0
   91.5290   95.0780  -44.0000 C   0  0  0  0  0  0  0  0  0  0  0  0
   91.1140   95.1840  -45.3110 C   0  0  0  0  0  3  0  0  0  0  0  0
   91.1290   94.0800  -46.1450 C   0  0  0  0  0  3  0  0  0  0  0  0
   91.5550   92.8350  -45.7070 C   0  0  0  0  0  0  0  0  0  0  0  0
   91.5640   91.3310  -46.8820 Br  0  0  0  0  0  0  0  0  0  0  0  0
   91.9690   92.7280  -44.3960 C   0  0  0  0  0  3  0  0  0  0  0  0
   91.9500   93.8370  -43.5740 C   0  0  0  0  0  3  0  0  0  0  0  0
   92.0770  101.8940  -44.2750 C   0  0  0  0  0  0  0  0  0  0  0  0
   91.5520  103.0090  -44.9230 N   0  0  0  0  0  0  0  0  0  0  0  0
   91.5740  102.8240  -46.1840 O   0  0  0  0  0  0  0  0  0  0  0  0
   92.0700  101.6800  -46.4490 N   0  0  0  0  0  0  0  0  0  0  0  0
   92.3970  101.0660  -45.2720 C   0  0  0  0  0  0  0  0  0  0  0  0
   92.9770   99.7920  -45.2720 N   0  0  0  0  0  0  0  0  0  0  0  0
   94.0200   99.7040  -45.2690 H   0  0  0  0  0  0  0  0  0  0  0  0
   92.4390   98.9000  -45.2650 H   0  0  0  0  0  0  0  0  0  0  0  0
   94.1030  102.5550  -39.8050 C   0  0  0  0  0  0  0  0  0  0  0  0
   93.9400  102.4560  -38.4820 N   0  0  0  0  0  0  0  0  0  0  0  0
   95.0190  102.9210  -37.8760 O   0  0  0  0  0  0  0  0  0  0  0  0
   95.8930  103.3250  -38.7540 N   0  0  0  0  0  0  0  0  0  0  0  0
   95.3450  103.1080  -39.9880 C   0  0  0  0  0  0  0  0  0  0  0  0
   95.9990  103.4220  -41.2070 N   0  0  0  0  0  0  0  0  0  0  0  0
   96.2790  102.6440  -41.8680 H   0  0  0  0  0  0  0  0  0  0  0  0
   96.2310  104.3880  -41.5070 H   0  0  0  0  0  0  0  0  0  0  0  0
  1  2  1  0  0  0  0
  3  2  2  0  0  0  0
  3 28  1  0  0  0  0
  4  3  1  0  0  0  0
  5  4  2  0  0  0  0
  5  1  1  0  0  0  0
  6  1  1  0  0  0  0
  7  8  1  0  0  0  0
  7  6  1  0  0  0  0
  8  9  1  0  0  0  0
 10  7  2  0  0  0  0
 11 12  2  0  0  0  0
 11  8  1  0  0  0  0
 13 19  1  0  0  0  0
 13 12  1  0  0  0  0
 14 13  2  0  0  0  0
 15 16  2  0  0  0  0
 15 14  1  0  0  0  0
 16 18  1  0  0  0  0
 17 16  1  0  0  0  0
 18 19  2  0  0  0  0
 20  5  1  0  0  0  0
 21 20  2  0  0  0  0
 22 21  1  0  0  0  0
 23 22  1  0  0  0  0
 23 24  2  0  0  0  0
 24 20  1  0  0  0  0
 25 24  1  0  0  0  0
 25 26  1  0  0  0  0
 25 27  1  0  0  0  0
 28 29  2  0  0  0  0
 29 30  1  0  0  0  0
 31 30  1  0  0  0  0
 32 28  1  0  0  0  0
 32 31  2  0  0  0  0
 33 32  1  0  0  0  0
 34 33  1  0  0  0  0
 35 33  1  0  0  0  0
M  END
>  <Pose>
1

>  <Score>
-6.467

$$$$
