/Users/jonathanwahrer/Desktop/Msc/3_Semester/Drug_Design_Praktikum/waehrer_HTS_screening/HTS_experiment/out/docking_results/vina_output/4agl/0302_docked.pdbqt
 OpenBabel03202223163D

 29 33  0  0  1  0  0  0  0  0999 V2000
   91.0900   97.2160  -43.7480 C   0  0  0  0  0  0  0  0  0  0  0  0
   90.1140   98.1200  -43.9710 N   0  0  0  0  0  0  0  0  0  0  0  0
   90.3160   99.2210  -43.2060 C   0  0  1  0  0  3  0  0  0  0  0  0
   91.4330   99.0320  -42.4820 N   0  0  0  0  0  0  0  0  0  0  0  0
   91.9090   97.8080  -42.8090 C   0  0  0  0  0  3  0  0  0  0  0  0
   91.5900  100.1470  -41.7440 C   0  0  0  0  0  0  0  0  0  0  0  0
   90.5710  101.0380  -42.0050 C   0  0  0  0  0  0  0  0  0  0  0  0
   90.4900  102.2750  -41.3760 C   0  0  0  0  0  3  0  0  0  0  0  0
   91.4510  102.6360  -40.4600 C   0  0  0  0  0  3  0  0  0  0  0  0
   92.4660  101.7390  -40.2050 C   0  0  0  0  0  3  0  0  0  0  0  0
   92.5710  100.5070  -40.8140 C   0  0  0  0  0  3  0  0  0  0  0  0
   89.7860  100.4240  -42.9300 N   0  0  0  0  0  0  0  0  0  0  0  0
   89.3130   98.0110  -44.6260 H   0  0  0  0  0  0  0  0  0  0  0  0
   88.5940  101.0430  -43.4710 C   0  0  0  0  0  2  0  0  0  0  0  0
   87.3360  100.4400  -42.8870 C   0  0  0  0  0  2  0  0  0  0  0  0
   86.5340   99.8540  -43.9230 N   0  0  0  0  0  4  0  0  0  0  0  0
   86.5200   98.4120  -43.7970 C   0  0  0  0  0  2  0  0  0  0  0  0
   86.7240   97.7100  -45.1170 C   0  0  0  0  0  2  0  0  0  0  0  0
   85.8210   98.2280  -46.0480 O   0  0  0  0  0  0  0  0  0  0  0  0
   85.9760   99.5860  -46.2260 C   0  0  0  0  0  2  0  0  0  0  0  0
   86.9610  100.1780  -45.2520 C   0  0  0  0  0  2  0  0  0  0  0  0
   85.5350  100.1670  -43.8350 H   0  0  0  0  0  0  0  0  0  0  0  0
   91.2260   95.9060  -44.3770 C   0  0  0  0  0  0  0  0  0  0  0  0
   91.8390   94.8540  -43.7350 C   0  0  0  0  0  3  0  0  0  0  0  0
   91.9680   93.6030  -44.3350 C   0  0  0  0  0  3  0  0  0  0  0  0
   91.4750   93.3880  -45.6070 C   0  0  0  0  0  0  0  0  0  0  0  0
   91.6490   91.6860  -46.4290 Br  0  0  0  0  0  0  0  0  0  0  0  0
   90.8580   94.4350  -46.2620 C   0  0  0  0  0  3  0  0  0  0  0  0
   90.7380   95.6830  -45.6450 C   0  0  0  0  0  3  0  0  0  0  0  0
  1  5  2  0  0  0  0
  2  1  1  0  0  0  0
  3  2  1  6  0  0  0
  3 12  1  0  0  0  0
  3  4  1  0  0  0  0
  4  6  1  0  0  0  0
  5  4  1  0  0  0  0
  6 11  1  0  0  0  0
  7  6  2  0  0  0  0
  7  8  1  0  0  0  0
  8  9  2  0  0  0  0
  9 10  1  0  0  0  0
 11 10  2  0  0  0  0
 12  7  1  0  0  0  0
 13  2  1  0  0  0  0
 14 12  1  0  0  0  0
 14 15  1  0  0  0  0
 16 22  1  0  0  0  0
 16 17  1  0  0  0  0
 16 15  1  0  0  0  0
 18 17  1  0  0  0  0
 19 18  1  0  0  0  0
 20 19  1  0  0  0  0
 20 21  1  0  0  0  0
 21 16  1  0  0  0  0
 23  1  1  0  0  0  0
 23 24  1  0  0  0  0
 25 24  2  0  0  0  0
 26 25  1  0  0  0  0
 27 26  1  0  0  0  0
 28 29  1  0  0  0  0
 28 26  2  0  0  0  0
 29 23  2  0  0  0  0
M  END
>  <Pose>
1

>  <Score>
-6.607

$$$$
