/Users/jonathanwahrer/Desktop/Msc/3_Semester/Drug_Design_Praktikum/waehrer_HTS_screening/HTS_experiment/out/docking_results/vina_output/4agl/0309_docked.pdbqt
 OpenBabel03202223163D

 33 36  0  0  0  0  0  0  0  0999 V2000
   91.3690   99.8640  -42.8230 C   0  0  0  0  0  0  0  0  0  0  0  0
   90.5750  100.3080  -43.8530 C   0  0  0  0  0  0  0  0  0  0  0  0
   90.1320   99.5150  -44.8100 O   0  0  0  0  0  0  0  0  0  0  0  0
   90.4240   98.2400  -44.8330 C   0  0  0  0  0  0  0  0  0  0  0  0
   91.2010   97.7420  -43.8480 C   0  0  0  0  0  0  0  0  0  0  0  0
   91.5230   96.4030  -43.8440 C   0  0  0  0  0  3  0  0  0  0  0  0
   91.0380   95.6110  -44.8530 C   0  0  0  0  0  3  0  0  0  0  0  0
   90.2270   96.1400  -45.8750 C   0  0  0  0  0  0  0  0  0  0  0  0
   89.8960   97.4620  -45.9010 C   0  0  0  0  0  0  0  0  0  0  0  0
   89.8310   95.1930  -46.8040 O   0  0  0  0  0  1  0  0  0  0  0  0
   91.7040   98.5090  -42.8150 C   0  0  0  0  0  0  0  0  0  0  0  0
   92.4150   98.0510  -41.9150 O   0  0  0  0  0  0  0  0  0  0  0  0
   89.0990   98.1510  -46.8860 C   0  0  0  0  0  2  0  0  0  0  0  0
   87.7640   98.5350  -46.6730 N   0  0  0  0  0  4  0  0  0  0  0  0
   87.5800   99.9390  -46.7650 C   0  0  0  0  0  2  0  0  0  0  0  0
   86.4800  100.5730  -46.0090 C   0  0  0  0  0  2  0  0  0  0  0  0
   85.9930   99.7910  -44.9570 N   0  0  0  0  0  0  0  0  0  0  0  0
   85.7700   98.4290  -45.1810 C   0  0  0  0  0  2  0  0  0  0  0  0
   85.7430  100.3610  -43.7000 C   0  0  0  0  0  1  0  0  0  0  0  0
   86.9800   97.7740  -45.7680 C   0  0  0  0  0  2  0  0  0  0  0  0
   87.2990   98.2070  -47.6580 H   0  0  0  0  0  0  0  0  0  0  0  0
   90.2120  101.7340  -43.8830 C   0  0  0  0  0  0  0  0  0  0  0  0
   89.0550  102.0540  -43.5110 O   0  0  0  0  0  0  0  0  0  0  0  0
   91.0570  102.7200  -44.2880 O   0  0  0  0  0  0  0  0  0  0  0  0
   90.7720  104.0690  -44.0050 C   0  0  0  0  0  2  0  0  0  0  0  0
   91.5550  104.4930  -42.7940 C   0  0  0  0  0  1  0  0  0  0  0  0
   91.8020  100.7640  -41.7880 C   0  0  0  0  0  0  0  0  0  0  0  0
   90.9850  101.1650  -40.7350 C   0  0  0  0  0  3  0  0  0  0  0  0
   91.4020  102.0160  -39.7350 C   0  0  0  0  0  3  0  0  0  0  0  0
   92.6770  102.5000  -39.7620 C   0  0  0  0  0  0  0  0  0  0  0  0
   93.2410  103.6760  -38.3640 Br  0  0  0  0  0  0  0  0  0  0  0  0
   93.5270  102.1330  -40.7850 C   0  0  0  0  0  3  0  0  0  0  0  0
   93.0780  101.2640  -41.7920 C   0  0  0  0  0  3  0  0  0  0  0  0
  1 11  1  0  0  0  0
  1 27  1  0  0  0  0
  2  1  2  0  0  0  0
  3  2  1  0  0  0  0
  4  3  1  0  0  0  0
  4  5  1  0  0  0  0
  5  6  2  0  0  0  0
  5 11  1  0  0  0  0
  7  6  1  0  0  0  0
  8  7  2  0  0  0  0
  9  8  1  0  0  0  0
  9  4  2  0  0  0  0
 10  8  1  0  0  0  0
 11 12  2  0  0  0  0
 13 14  1  0  0  0  0
 13  9  1  0  0  0  0
 14 20  1  0  0  0  0
 15 14  1  0  0  0  0
 15 16  1  0  0  0  0
 16 17  1  0  0  0  0
 17 19  1  0  0  0  0
 18 17  1  0  0  0  0
 20 18  1  0  0  0  0
 21 14  1  0  0  0  0
 22  2  1  0  0  0  0
 22 23  2  0  0  0  0
 24 25  1  0  0  0  0
 24 22  1  0  0  0  0
 25 26  1  0  0  0  0
 27 28  1  0  0  0  0
 28 29  2  0  0  0  0
 30 29  1  0  0  0  0
 30 31  1  0  0  0  0
 32 30  2  0  0  0  0
 33 27  2  0  0  0  0
 33 32  1  0  0  0  0
M  END
>  <Pose>
1

>  <Score>
-5.082

$$$$
