/Users/jonathanwahrer/Desktop/Msc/3_Semester/Drug_Design_Praktikum/waehrer_HTS_screening/HTS_experiment/out/docking_results/vina_output/4agl/0320_docked.pdbqt
 OpenBabel03202223173D

 32 36  0  0  1  0  0  0  0  0999 V2000
   91.1410   98.5810  -43.2420 C   0  0  0  0  0  0  0  0  0  0  0  0
   91.4510   97.2810  -42.8090 C   0  0  0  0  0  3  0  0  0  0  0  0
   91.3690   96.4940  -43.8750 N   0  0  0  0  0  0  0  0  0  0  0  0
   91.5200   95.1740  -44.2020 C   0  0  0  0  0  0  0  0  0  0  0  0
   91.2540   95.1020  -45.5460 C   0  0  0  0  0  0  0  0  0  0  0  0
   90.9650   96.3270  -45.9580 N   0  0  0  0  0  0  0  0  0  0  0  0
   91.0340   97.2110  -44.9210 C   0  0  1  0  0  3  0  0  0  0  0  0
   90.8860   98.5180  -44.5540 N   0  0  0  0  0  0  0  0  0  0  0  0
   91.3110   93.8870  -46.2350 C   0  0  0  0  0  3  0  0  0  0  0  0
   91.6440   92.7340  -45.5580 C   0  0  0  0  0  3  0  0  0  0  0  0
   91.9070   92.8340  -44.2110 C   0  0  0  0  0  3  0  0  0  0  0  0
   91.8510   94.0370  -43.5180 C   0  0  0  0  0  3  0  0  0  0  0  0
   90.7130   96.5460  -46.9400 H   0  0  0  0  0  0  0  0  0  0  0  0
   90.5060   99.5190  -45.5030 C   0  0  0  0  0  2  0  0  0  0  0  0
   91.5830  100.1730  -46.2690 C   0  0  0  0  0  2  0  0  0  0  0  0
   92.0020  101.5470  -45.8880 C   0  0  0  0  0  2  0  0  0  0  0  0
   92.9600  101.5410  -44.8040 N   0  0  0  0  0  4  0  0  0  0  0  0
   93.0890  100.6570  -44.3180 H   0  0  0  0  0  0  0  0  0  0  0  0
   93.9210  101.7120  -45.2780 H   0  0  0  0  0  0  0  0  0  0  0  0
   92.7990  102.6410  -43.9000 C   0  0  0  0  0  3  0  0  0  0  0  0
   94.0740  103.3280  -43.5010 C   0  0  0  0  0  2  0  0  0  0  0  0
   93.7560  104.1020  -42.2130 C   0  0  0  0  0  2  0  0  0  0  0  0
   92.7150  105.1220  -42.5180 C   0  0  0  0  0  2  0  0  0  0  0  0
   91.4870  104.5570  -43.1920 C   0  0  0  0  0  2  0  0  0  0  0  0
   91.8800  103.7360  -44.4260 C   0  0  0  0  0  2  0  0  0  0  0  0
   91.1120   99.7180  -42.3490 C   0  0  0  0  0  0  0  0  0  0  0  0
   92.2030   99.9480  -41.5350 C   0  0  0  0  0  3  0  0  0  0  0  0
   92.2550  101.0060  -40.6740 C   0  0  0  0  0  3  0  0  0  0  0  0
   91.2250  101.8910  -40.5750 C   0  0  0  0  0  0  0  0  0  0  0  0
   91.2910  103.3850  -39.3610 Br  0  0  0  0  0  0  0  0  0  0  0  0
   90.1260  101.6990  -41.3640 C   0  0  0  0  0  3  0  0  0  0  0  0
   90.0880  100.5970  -42.2520 C   0  0  0  0  0  3  0  0  0  0  0  0
  1  2  2  0  0  0  0
  1 26  1  0  0  0  0
  3  2  1  0  0  0  0
  4  3  1  0  0  0  0
  4 12  1  0  0  0  0
  5  4  2  0  0  0  0
  6  5  1  0  0  0  0
  7  6  1  1  0  0  0
  7  8  1  0  0  0  0
  7  3  1  0  0  0  0
  8  1  1  0  0  0  0
  9 10  2  0  0  0  0
  9  5  1  0  0  0  0
 10 11  1  0  0  0  0
 11 12  2  0  0  0  0
 13  6  1  0  0  0  0
 14  8  1  0  0  0  0
 15 16  1  0  0  0  0
 15 14  1  0  0  0  0
 16 17  1  0  0  0  0
 17 18  1  0  0  0  0
 17 20  1  0  0  0  0
 19 17  1  0  0  0  0
 20 21  1  0  0  0  0
 21 22  1  0  0  0  0
 23 22  1  0  0  0  0
 24 23  1  0  0  0  0
 25 20  1  0  0  0  0
 25 24  1  0  0  0  0
 26 32  2  0  0  0  0
 26 27  1  0  0  0  0
 27 28  2  0  0  0  0
 28 29  1  0  0  0  0
 29 30  1  0  0  0  0
 31 29  2  0  0  0  0
 32 31  1  0  0  0  0
M  END
>  <Pose>
1

>  <Score>
-6.118

$$$$
