/Users/jonathanwahrer/Desktop/Msc/3_Semester/Drug_Design_Praktikum/waehrer_HTS_screening/HTS_experiment/out/docking_results/vina_output/4agl/0324_docked.pdbqt
 OpenBabel03202223173D

 34 38  0  0  1  0  0  0  0  0999 V2000
   91.2290   98.7840  -43.1630 C   0  0  0  0  0  0  0  0  0  0  0  0
   91.4390   97.4800  -42.6760 C   0  0  0  0  0  3  0  0  0  0  0  0
   91.4340   96.5920  -43.6760 N   0  0  0  0  0  0  0  0  0  0  0  0
   91.5560   95.2750  -43.9760 C   0  0  0  0  0  0  0  0  0  0  0  0
   91.4160   95.1780  -45.3390 C   0  0  0  0  0  0  0  0  0  0  0  0
   91.2130   96.4320  -45.8300 N   0  0  0  0  0  0  0  0  0  0  0  0
   91.2280   97.2880  -44.7910 C   0  0  1  0  0  3  0  0  0  0  0  0
   91.1010   98.6280  -44.4830 N   0  0  0  0  0  0  0  0  0  0  0  0
   91.4990   93.9270  -45.9120 C   0  0  0  0  0  3  0  0  0  0  0  0
   91.7180   92.7860  -45.1490 C   0  0  0  0  0  3  0  0  0  0  0  0
   91.8580   92.8850  -43.7880 C   0  0  0  0  0  3  0  0  0  0  0  0
   91.7730   94.1560  -43.2080 C   0  0  0  0  0  3  0  0  0  0  0  0
   91.0740   96.6560  -46.8400 H   0  0  0  0  0  0  0  0  0  0  0  0
   90.8470   99.6390  -45.4860 C   0  0  0  0  0  2  0  0  0  0  0  0
   89.3870   99.8030  -45.8380 C   0  0  0  0  0  2  0  0  0  0  0  0
   89.0600   99.1180  -47.1410 C   0  0  0  0  0  2  0  0  0  0  0  0
   87.6820   99.2060  -47.5410 N   0  0  0  0  0  0  0  0  0  0  0  0
   87.0510  100.1140  -46.5960 C   0  0  0  0  0  2  0  0  0  0  0  0
   85.7450   99.6520  -46.0690 C   0  0  0  0  0  2  0  0  0  0  0  0
   85.6790   98.2750  -45.6620 N   0  0  0  0  0  4  0  0  0  0  0  0
   86.6970   97.4430  -46.2670 C   0  0  0  0  0  2  0  0  0  0  0  0
   84.7620   97.9010  -46.0630 H   0  0  0  0  0  0  0  0  0  0  0  0
   86.9790   97.9720  -47.6590 C   0  0  0  0  0  2  0  0  0  0  0  0
   85.5550   98.1380  -44.2460 C   0  0  0  0  0  2  0  0  0  0  0  0
   84.1640   98.0720  -43.7130 C   0  0  0  0  0  2  0  0  0  0  0  0
   84.0040   98.7060  -42.4820 O   0  0  0  0  0  0  0  0  0  0  0  0
   84.3580   98.1420  -41.7720 H   0  0  0  0  0  0  0  0  0  0  0  0
   91.1470   99.9640  -42.3030 C   0  0  0  0  0  0  0  0  0  0  0  0
   90.0930  100.8140  -42.2070 C   0  0  0  0  0  3  0  0  0  0  0  0
   90.0700  101.9050  -41.3220 C   0  0  0  0  0  3  0  0  0  0  0  0
   91.1350  102.1640  -40.4990 C   0  0  0  0  0  0  0  0  0  0  0  0
   91.1060  103.6530  -39.2890 Br  0  0  0  0  0  0  0  0  0  0  0  0
   92.2070  101.3210  -40.5810 C   0  0  0  0  0  3  0  0  0  0  0  0
   92.2200  100.2470  -41.4570 C   0  0  0  0  0  3  0  0  0  0  0  0
  1  2  2  0  0  0  0
  1 28  1  0  0  0  0
  3  2  1  0  0  0  0
  4  3  1  0  0  0  0
  4 12  1  0  0  0  0
  5  4  2  0  0  0  0
  6  5  1  0  0  0  0
  7  6  1  1  0  0  0
  7  8  1  0  0  0  0
  7  3  1  0  0  0  0
  8  1  1  0  0  0  0
  9  5  1  0  0  0  0
  9 10  2  0  0  0  0
 10 11  1  0  0  0  0
 11 12  2  0  0  0  0
 13  6  1  0  0  0  0
 14  8  1  0  0  0  0
 15 14  1  0  0  0  0
 16 15  1  0  0  0  0
 17 16  1  0  0  0  0
 17 18  1  0  0  0  0
 18 19  1  0  0  0  0
 19 20  1  0  0  0  0
 20 24  1  0  0  0  0
 21 20  1  0  0  0  0
 22 20  1  0  0  0  0
 23 17  1  0  0  0  0
 23 21  1  0  0  0  0
 24 25  1  0  0  0  0
 25 26  1  0  0  0  0
 26 27  1  0  0  0  0
 28 29  2  0  0  0  0
 28 34  1  0  0  0  0
 29 30  1  0  0  0  0
 30 31  2  0  0  0  0
 31 32  1  0  0  0  0
 33 31  1  0  0  0  0
 34 33  2  0  0  0  0
M  END
>  <Pose>
1

>  <Score>
-6.739

$$$$
