/Users/jonathanwahrer/Desktop/Msc/3_Semester/Drug_Design_Praktikum/waehrer_HTS_screening/HTS_experiment/out/docking_results/vina_output/4agl/0346_docked.pdbqt
 OpenBabel03202223183D

 35 38  0  0  1  0  0  0  0  0999 V2000
   90.1210   99.2130  -44.1910 C   0  0  2  0  0  3  0  0  0  0  0  0
   90.7600  100.5000  -44.1500 N   0  0  0  0  0  0  0  0  0  0  0  0
   91.8170  100.5740  -45.0870 C   0  0  0  0  0  0  0  0  0  0  0  0
   92.6060  101.5450  -45.3070 O   0  0  0  0  0  0  0  0  0  0  0  0
   91.8920   99.2960  -45.8300 C   0  0  0  0  0  0  0  0  0  0  0  0
   92.7210   99.0330  -46.7300 O   0  0  0  0  0  0  0  0  0  0  0  0
   90.8330   98.4730  -45.2850 C   0  0  1  0  0  3  0  0  0  0  0  0
   90.6030   97.2450  -45.6920 C   0  0  1  0  0  3  0  0  0  0  0  0
   89.8910   97.0770  -46.8990 O   0  0  0  0  0  1  0  0  0  0  0  0
   91.0170   96.0360  -45.0260 C   0  0  0  0  0  0  0  0  0  0  0  0
   91.1470   94.8110  -45.5800 C   0  0  0  0  0  3  0  0  0  0  0  0
   91.5890   93.7390  -44.8320 C   0  0  0  0  0  0  0  0  0  0  0  0
   91.9240   93.8370  -43.4980 C   0  0  0  0  0  0  0  0  0  0  0  0
   91.7180   92.3990  -45.4930 C   0  0  0  0  0  1  0  0  0  0  0  0
   91.7820   95.0990  -42.9560 C   0  0  0  0  0  3  0  0  0  0  0  0
   91.3460   96.1810  -43.6690 C   0  0  0  0  0  3  0  0  0  0  0  0
   92.3680   92.7530  -42.7510 O   0  0  0  0  0  0  0  0  0  0  0  0
   93.5240   92.8790  -41.9340 C   0  0  0  0  0  1  0  0  0  0  0  0
   88.6760   99.2890  -44.4240 C   0  0  0  0  0  0  0  0  0  0  0  0
   88.1720   99.9140  -45.5440 C   0  0  0  0  0  3  0  0  0  0  0  0
   86.7940   99.9900  -45.7680 C   0  0  0  0  0  3  0  0  0  0  0  0
   85.9040   99.4410  -44.8710 C   0  0  0  0  0  0  0  0  0  0  0  0
   84.0180   99.5670  -45.2100 Br  0  0  0  0  0  0  0  0  0  0  0  0
   86.3970   98.8190  -43.7570 C   0  0  0  0  0  3  0  0  0  0  0  0
   87.7550   98.7540  -43.5520 C   0  0  0  0  0  3  0  0  0  0  0  0
   90.3590  101.5650  -43.2490 C   0  0  0  0  0  2  0  0  0  0  0  0
   90.7860  101.3340  -41.8250 C   0  0  0  0  0  2  0  0  0  0  0  0
   91.9760  100.4280  -41.7410 C   0  0  0  0  0  2  0  0  0  0  0  0
   93.0960  101.0240  -41.0720 N   0  0  0  0  0  4  0  0  0  0  0  0
   92.7330  101.7180  -39.8530 C   0  0  0  0  0  2  0  0  0  0  0  0
   94.0430  102.0740  -39.1430 C   0  0  0  0  0  2  0  0  0  0  0  0
   95.1290  101.8590  -39.9790 O   0  0  0  0  0  0  0  0  0  0  0  0
   94.9420  102.5320  -41.2060 C   0  0  0  0  0  2  0  0  0  0  0  0
   93.8120  101.8680  -41.9850 C   0  0  0  0  0  2  0  0  0  0  0  0
   93.7620  100.2480  -40.7780 H   0  0  0  0  0  0  0  0  0  0  0  0
  1 19  1  6  0  0  0
  1  2  1  0  0  0  0
  2 26  1  0  0  0  0
  3  2  1  0  0  0  0
  4  3  2  0  0  0  0
  5  7  1  0  0  0  0
  5  3  1  0  0  0  0
  6  5  2  0  0  0  0
  7  8  1  1  0  0  0
  7  1  1  0  0  0  0
  8  9  1  6  0  0  0
  8 10  1  0  0  0  0
 10 16  1  0  0  0  0
 11 10  2  0  0  0  0
 11 12  1  0  0  0  0
 12 13  2  0  0  0  0
 13 15  1  0  0  0  0
 13 17  1  0  0  0  0
 14 12  1  0  0  0  0
 16 15  2  0  0  0  0
 17 18  1  0  0  0  0
 19 25  1  0  0  0  0
 20 19  2  0  0  0  0
 21 20  1  0  0  0  0
 21 22  2  0  0  0  0
 22 24  1  0  0  0  0
 23 22  1  0  0  0  0
 24 25  2  0  0  0  0
 26 27  1  0  0  0  0
 27 28  1  0  0  0  0
 28 29  1  0  0  0  0
 29 35  1  0  0  0  0
 29 30  1  0  0  0  0
 30 31  1  0  0  0  0
 32 31  1  0  0  0  0
 33 32  1  0  0  0  0
 34 33  1  0  0  0  0
 34 29  1  0  0  0  0
M  END
>  <Pose>
1

>  <Score>
-7.144

$$$$
