/Users/jonathanwahrer/Desktop/Msc/3_Semester/Drug_Design_Praktikum/waehrer_HTS_screening/HTS_experiment/out/docking_results/vina_output/4agl/0347_docked.pdbqt
 OpenBabel03202223183D

 34 37  0  0  1  0  0  0  0  0999 V2000
   90.3240   98.5900  -44.4040 C   0  0  2  0  0  3  0  0  0  0  0  0
   90.6860   98.8900  -45.7740 N   0  0  0  0  0  0  0  0  0  0  0  0
   92.0380   99.3540  -45.7400 C   0  0  0  0  0  0  0  0  0  0  0  0
   92.8760   99.3030  -46.6740 O   0  0  0  0  0  0  0  0  0  0  0  0
   92.2380   99.8970  -44.4010 C   0  0  0  0  0  0  0  0  0  0  0  0
   93.2640  100.4180  -43.8960 O   0  0  0  0  0  0  0  0  0  0  0  0
   90.9830   99.7350  -43.6740 C   0  0  0  0  0  0  0  0  0  0  0  0
   90.5830  100.4110  -42.6250 C   0  0  0  0  0  0  0  0  0  0  0  0
   89.3490  100.0230  -42.0730 O   0  0  0  0  0  1  0  0  0  0  0  0
   89.8480   98.7530  -46.9780 C   0  0  0  0  0  2  0  0  0  0  0  0
   88.5420   99.5450  -46.8100 C   0  0  0  0  0  2  0  0  0  0  0  0
   87.3870   98.5870  -46.7700 C   0  0  0  0  0  2  0  0  0  0  0  0
   86.2940   99.1960  -46.0500 N   0  0  0  0  0  4  0  0  0  0  0  0
   86.6070   99.5470  -44.7010 C   0  0  0  0  0  2  0  0  0  0  0  0
   86.7230   98.3670  -43.7980 C   0  0  0  0  0  2  0  0  0  0  0  0
   85.5700   97.6020  -43.8330 O   0  0  0  0  0  0  0  0  0  0  0  0
   85.4070   97.1430  -45.1410 C   0  0  0  0  0  2  0  0  0  0  0  0
   85.1190   98.3450  -46.0190 C   0  0  0  0  0  2  0  0  0  0  0  0
   86.0110  100.0630  -46.5630 H   0  0  0  0  0  0  0  0  0  0  0  0
   90.8610   97.3040  -43.9830 C   0  0  0  0  0  0  0  0  0  0  0  0
   90.9370   96.2540  -44.8660 C   0  0  0  0  0  3  0  0  0  0  0  0
   91.4380   95.0110  -44.4720 C   0  0  0  0  0  3  0  0  0  0  0  0
   91.8680   94.8150  -43.1810 C   0  0  0  0  0  0  0  0  0  0  0  0
   92.5500   93.1150  -42.6480 Br  0  0  0  0  0  0  0  0  0  0  0  0
   91.7980   95.8540  -42.2910 C   0  0  0  0  0  3  0  0  0  0  0  0
   91.2990   97.0780  -42.6980 C   0  0  0  0  0  3  0  0  0  0  0  0
   91.3420  101.5120  -42.0400 C   0  0  0  0  0  0  0  0  0  0  0  0
   92.1850  101.3810  -40.9600 C   0  0  0  0  0  3  0  0  0  0  0  0
   92.8910  102.4230  -40.3870 C   0  0  0  0  0  0  0  0  0  0  0  0
   92.7520  103.6720  -40.9200 C   0  0  0  0  0  3  0  0  0  0  0  0
   91.9110  103.8520  -42.0150 C   0  0  0  0  0  3  0  0  0  0  0  0
   91.2220  102.7890  -42.5590 C   0  0  0  0  0  3  0  0  0  0  0  0
   93.6890  102.1100  -39.3090 O   0  0  0  0  0  0  0  0  0  0  0  0
   93.8190  102.8050  -38.1170 C   0  0  0  0  0  1  0  0  0  0  0  0
  1 20  1  1  0  0  0
  1  7  1  0  0  0  0
  2  3  1  0  0  0  0
  2  1  1  0  0  0  0
  3  5  1  0  0  0  0
  4  3  2  0  0  0  0
  5  6  2  0  0  0  0
  5  7  1  0  0  0  0
  7  8  2  0  0  0  0
  8  9  1  0  0  0  0
  8 27  1  0  0  0  0
 10 11  1  0  0  0  0
 10  2  1  0  0  0  0
 11 12  1  0  0  0  0
 12 13  1  0  0  0  0
 13 18  1  0  0  0  0
 13 14  1  0  0  0  0
 14 15  1  0  0  0  0
 16 15  1  0  0  0  0
 17 16  1  0  0  0  0
 18 17  1  0  0  0  0
 19 13  1  0  0  0  0
 20 26  1  0  0  0  0
 21 22  1  0  0  0  0
 21 20  2  0  0  0  0
 22 23  2  0  0  0  0
 23 24  1  0  0  0  0
 23 25  1  0  0  0  0
 26 25  2  0  0  0  0
 27 28  1  0  0  0  0
 28 29  2  0  0  0  0
 29 33  1  0  0  0  0
 30 29  1  0  0  0  0
 31 30  2  0  0  0  0
 32 27  2  0  0  0  0
 32 31  1  0  0  0  0
 33 34  1  0  0  0  0
M  END
>  <Pose>
1

>  <Score>
-5.964

$$$$
