/Users/jonathanwahrer/Desktop/Msc/3_Semester/Drug_Design_Praktikum/waehrer_HTS_screening/HTS_experiment/out/docking_results/vina_output/4agl/0349_docked.pdbqt
 OpenBabel03202223183D

 32 35  0  0  1  0  0  0  0  0999 V2000
   89.5690  100.9890  -44.8660 C   0  0  1  0  0  3  0  0  0  0  0  0
   90.7410  101.5820  -44.3840 N   0  0  0  0  0  0  0  0  0  0  0  0
   91.7740  101.1300  -45.3390 C   0  0  0  0  0  0  0  0  0  0  0  0
   92.8210  101.7480  -45.6770 O   0  0  0  0  0  0  0  0  0  0  0  0
   91.3010   99.8180  -45.7920 C   0  0  0  0  0  0  0  0  0  0  0  0
   91.8540   99.0230  -46.6120 O   0  0  0  0  0  0  0  0  0  0  0  0
   90.0260   99.5880  -45.0860 C   0  0  0  0  0  0  0  0  0  0  0  0
   89.5030   98.4380  -44.7230 C   0  0  0  0  0  0  0  0  0  0  0  0
   88.3190   98.4010  -43.9970 O   0  0  0  0  0  1  0  0  0  0  0  0
   91.1480  102.4740  -43.3080 C   0  0  0  0  0  2  0  0  0  0  0  0
   91.3940  101.7790  -41.9950 C   0  0  0  0  0  2  0  0  0  0  0  0
   92.5640  102.2270  -41.3140 N   0  0  0  0  0  4  0  0  0  0  0  0
   93.7320  102.0570  -42.1580 C   0  0  0  0  0  2  0  0  0  0  0  0
   94.9380  102.5790  -41.4230 C   0  0  0  0  0  2  0  0  0  0  0  0
   95.1710  101.6870  -40.3640 O   0  0  0  0  0  0  0  0  0  0  0  0
   94.0960  101.7600  -39.5090 C   0  0  0  0  0  2  0  0  0  0  0  0
   92.8010  101.3400  -40.1570 C   0  0  0  0  0  2  0  0  0  0  0  0
   92.4920  103.1950  -40.9700 H   0  0  0  0  0  0  0  0  0  0  0  0
   88.2370  101.2250  -44.4610 C   0  0  0  0  0  0  0  0  0  0  0  0
   87.2590  101.2850  -45.4650 C   0  0  0  0  0  3  0  0  0  0  0  0
   85.9420  101.5190  -45.1890 C   0  0  0  0  0  3  0  0  0  0  0  0
   85.5170  101.7080  -43.8920 C   0  0  0  0  0  0  0  0  0  0  0  0
   83.6780  102.0370  -43.4720 Br  0  0  0  0  0  0  0  0  0  0  0  0
   86.4710  101.6510  -42.9050 C   0  0  0  0  0  3  0  0  0  0  0  0
   87.8150  101.4120  -43.1920 C   0  0  0  0  0  3  0  0  0  0  0  0
   90.1030   97.1550  -45.0540 C   0  0  0  0  0  0  0  0  0  0  0  0
   91.1110   96.5430  -44.3780 C   0  0  0  0  0  3  0  0  0  0  0  0
   91.5640   95.2920  -44.7730 C   0  0  0  0  0  3  0  0  0  0  0  0
   90.9980   94.6540  -45.8540 C   0  0  0  0  0  0  0  0  0  0  0  0
   89.9760   95.2390  -46.5640 C   0  0  0  0  0  3  0  0  0  0  0  0
   91.4580   93.3080  -46.3080 C   0  0  0  0  0  1  0  0  0  0  0  0
   89.5400   96.4900  -46.1500 C   0  0  0  0  0  3  0  0  0  0  0  0
  1 19  1  1  0  0  0
  1  2  1  0  0  0  0
  2 10  1  0  0  0  0
  3  2  1  0  0  0  0
  4  3  2  0  0  0  0
  5  3  1  0  0  0  0
  5  7  1  0  0  0  0
  6  5  2  0  0  0  0
  7  1  1  0  0  0  0
  7  8  2  0  0  0  0
  8  9  1  0  0  0  0
 10 11  1  0  0  0  0
 11 12  1  0  0  0  0
 12 18  1  0  0  0  0
 12 17  1  0  0  0  0
 13 14  1  0  0  0  0
 13 12  1  0  0  0  0
 14 15  1  0  0  0  0
 15 16  1  0  0  0  0
 17 16  1  0  0  0  0
 19 25  1  0  0  0  0
 20 21  1  0  0  0  0
 20 19  2  0  0  0  0
 21 22  2  0  0  0  0
 22 23  1  0  0  0  0
 22 24  1  0  0  0  0
 25 24  2  0  0  0  0
 26  8  1  0  0  0  0
 26 27  1  0  0  0  0
 28 27  2  0  0  0  0
 29 28  1  0  0  0  0
 30 32  1  0  0  0  0
 30 29  2  0  0  0  0
 31 29  1  0  0  0  0
 32 26  2  0  0  0  0
M  END
>  <Pose>
1

>  <Score>
-5.849

$$$$
