/Users/jonathanwahrer/Desktop/Msc/3_Semester/Drug_Design_Praktikum/waehrer_HTS_screening/HTS_experiment/out/docking_results/vina_output/4agl/0351_docked.pdbqt
 OpenBabel03202223193D

 32 35  0  0  1  0  0  0  0  0999 V2000
   89.4180  100.7940  -45.5380 C   0  0  1  0  0  3  0  0  0  0  0  0
   90.4890  101.6250  -45.1250 N   0  0  0  0  0  0  0  0  0  0  0  0
   91.6380  101.0700  -45.8350 C   0  0  0  0  0  0  0  0  0  0  0  0
   92.6650  101.7070  -46.1980 O   0  0  0  0  0  0  0  0  0  0  0  0
   91.3410   99.6510  -46.0250 C   0  0  0  0  0  0  0  0  0  0  0  0
   92.0500   98.7740  -46.5830 O   0  0  0  0  0  0  0  0  0  0  0  0
   90.0250   99.4350  -45.4210 C   0  0  0  0  0  0  0  0  0  0  0  0
   89.5560   98.3240  -44.8820 C   0  0  0  0  0  0  0  0  0  0  0  0
   88.3020   98.3070  -44.2920 O   0  0  0  0  0  1  0  0  0  0  0  0
   90.5850  102.8080  -44.2660 C   0  0  0  0  0  2  0  0  0  0  0  0
   91.4050  102.6110  -43.0290 C   0  0  0  0  0  2  0  0  0  0  0  0
   91.0400  101.4180  -42.2990 N   0  0  0  0  0  4  0  0  0  0  0  0
   90.4160  101.7030  -41.0370 C   0  0  0  0  0  2  0  0  0  0  0  0
   91.3510  102.2750  -40.0110 C   0  0  0  0  0  2  0  0  0  0  0  0
   92.4990  101.4970  -39.8530 O   0  0  0  0  0  0  0  0  0  0  0  0
   93.1340  101.4790  -41.1040 C   0  0  0  0  0  2  0  0  0  0  0  0
   92.2550  100.6690  -42.0310 C   0  0  0  0  0  2  0  0  0  0  0  0
   90.4110  100.7940  -42.8410 H   0  0  0  0  0  0  0  0  0  0  0  0
   88.0980  100.9440  -45.0580 C   0  0  0  0  0  0  0  0  0  0  0  0
   87.8030  101.2450  -43.7580 C   0  0  0  0  0  3  0  0  0  0  0  0
   86.4740  101.3980  -43.3370 C   0  0  0  0  0  3  0  0  0  0  0  0
   85.4210  101.2510  -44.2110 C   0  0  0  0  0  0  0  0  0  0  0  0
   83.6020  101.4470  -43.6910 Br  0  0  0  0  0  0  0  0  0  0  0  0
   85.7130  100.9480  -45.5140 C   0  0  0  0  0  3  0  0  0  0  0  0
   87.0220  100.8020  -45.9100 C   0  0  0  0  0  3  0  0  0  0  0  0
   90.2860   97.0640  -44.8690 C   0  0  0  0  0  0  0  0  0  0  0  0
   91.0790   96.8610  -43.7310 C   0  0  0  0  0  3  0  0  0  0  0  0
   91.8020   95.7060  -43.5420 C   0  0  0  0  0  3  0  0  0  0  0  0
   91.7310   94.7200  -44.5200 C   0  0  0  0  0  0  0  0  0  0  0  0
   90.9500   94.9260  -45.6350 C   0  0  0  0  0  3  0  0  0  0  0  0
   92.6550   93.2560  -44.2700 Cl  0  0  0  0  0  0  0  0  0  0  0  0
   90.2290   96.0880  -45.8150 C   0  0  0  0  0  3  0  0  0  0  0  0
  1  7  1  0  0  0  0
  1  2  1  0  0  0  0
  1 19  1  1  0  0  0
  2 10  1  0  0  0  0
  3  2  1  0  0  0  0
  4  3  2  0  0  0  0
  5  3  1  0  0  0  0
  5  7  1  0  0  0  0
  6  5  2  0  0  0  0
  7  8  2  0  0  0  0
  8 26  1  0  0  0  0
  8  9  1  0  0  0  0
 10 11  1  0  0  0  0
 11 12  1  0  0  0  0
 12 17  1  0  0  0  0
 12 13  1  0  0  0  0
 13 14  1  0  0  0  0
 14 15  1  0  0  0  0
 16 15  1  0  0  0  0
 17 16  1  0  0  0  0
 18 12  1  0  0  0  0
 19 20  1  0  0  0  0
 20 21  2  0  0  0  0
 22 23  1  0  0  0  0
 22 21  1  0  0  0  0
 24 22  2  0  0  0  0
 25 24  1  0  0  0  0
 25 19  2  0  0  0  0
 26 27  1  0  0  0  0
 27 28  2  0  0  0  0
 29 31  1  0  0  0  0
 29 28  1  0  0  0  0
 30 29  2  0  0  0  0
 32 30  1  0  0  0  0
 32 26  2  0  0  0  0
M  END
>  <Pose>
1

>  <Score>
-5.473

$$$$
