/Users/jonathanwahrer/Desktop/Msc/3_Semester/Drug_Design_Praktikum/waehrer_HTS_screening/HTS_experiment/out/docking_results/vina_output/4agl/0354_docked.pdbqt
 OpenBabel03202223193D

 32 35  0  0  1  0  0  0  0  0999 V2000
   90.1020   98.2990  -45.5420 C   0  0  1  0  0  3  0  0  0  0  0  0
   90.4350   96.9400  -45.8250 N   0  0  0  0  0  0  0  0  0  0  0  0
   89.3560   96.4400  -46.6560 C   0  0  0  0  0  0  0  0  0  0  0  0
   89.4390   95.4310  -47.4050 O   0  0  0  0  0  0  0  0  0  0  0  0
   88.2060   97.3020  -46.4590 C   0  0  0  0  0  0  0  0  0  0  0  0
   87.0620   97.2050  -46.9980 O   0  0  0  0  0  0  0  0  0  0  0  0
   88.6160   98.3150  -45.5080 C   0  0  0  0  0  0  0  0  0  0  0  0
   87.8100   99.0530  -44.7650 C   0  0  0  0  0  0  0  0  0  0  0  0
   88.4380   99.9510  -43.8680 O   0  0  0  0  0  1  0  0  0  0  0  0
   91.6070   96.1270  -45.4930 C   0  0  0  0  0  2  0  0  0  0  0  0
   91.4670   95.2810  -44.2740 C   0  0  0  0  0  2  0  0  0  0  0  0
   91.6500   93.8030  -44.5830 C   0  0  0  0  0  2  0  0  0  0  0  0
   92.0880   93.0730  -43.4150 N   0  0  0  0  0  4  0  0  0  0  0  0
   93.5280   92.9840  -43.3240 C   0  0  0  0  0  2  0  0  0  0  0  0
   93.8520   92.5910  -41.8810 C   0  0  0  0  0  2  0  0  0  0  0  0
   93.6810   93.7120  -41.0700 O   0  0  0  0  0  0  0  0  0  0  0  0
   92.5570   94.4480  -41.4420 C   0  0  0  0  0  2  0  0  0  0  0  0
   91.5570   93.5930  -42.1930 C   0  0  0  0  0  2  0  0  0  0  0  0
   91.7300   92.0940  -43.5260 H   0  0  0  0  0  0  0  0  0  0  0  0
   90.7150   98.9360  -44.3930 C   0  0  0  0  0  0  0  0  0  0  0  0
   90.7710   98.4640  -43.1260 C   0  0  0  0  0  3  0  0  0  0  0  0
   91.4060   99.1500  -42.1070 C   0  0  0  0  0  3  0  0  0  0  0  0
   92.0210  100.3630  -42.3300 C   0  0  0  0  0  0  0  0  0  0  0  0
   92.9030  101.3270  -40.9380 Br  0  0  0  0  0  0  0  0  0  0  0  0
   91.9820  100.8740  -43.6090 C   0  0  0  0  0  3  0  0  0  0  0  0
   91.3450  100.1730  -44.6070 C   0  0  0  0  0  3  0  0  0  0  0  0
   86.3630   99.0000  -44.8220 C   0  0  0  0  0  0  0  0  0  0  0  0
   85.7460   98.0750  -43.9700 C   0  0  0  0  0  3  0  0  0  0  0  0
   84.3750   97.9490  -43.8890 C   0  0  0  0  0  3  0  0  0  0  0  0
   83.5910   98.7330  -44.6510 N   0  0  0  0  0  0  0  0  0  0  0  0
   84.1580   99.6330  -45.4810 C   0  0  0  0  0  3  0  0  0  0  0  0
   85.5410   99.7710  -45.5710 C   0  0  0  0  0  3  0  0  0  0  0  0
  1  7  1  0  0  0  0
  1 20  1  1  0  0  0
  2  1  1  0  0  0  0
  2 10  1  0  0  0  0
  3  5  1  0  0  0  0
  3  2  1  0  0  0  0
  4  3  2  0  0  0  0
  5  7  1  0  0  0  0
  6  5  2  0  0  0  0
  7  8  2  0  0  0  0
  8  9  1  0  0  0  0
 10 11  1  0  0  0  0
 12 11  1  0  0  0  0
 12 13  1  0  0  0  0
 13 14  1  0  0  0  0
 13 18  1  0  0  0  0
 14 15  1  0  0  0  0
 15 16  1  0  0  0  0
 17 16  1  0  0  0  0
 18 17  1  0  0  0  0
 19 13  1  0  0  0  0
 20 21  1  0  0  0  0
 21 22  2  0  0  0  0
 23 22  1  0  0  0  0
 23 24  1  0  0  0  0
 25 23  2  0  0  0  0
 26 20  2  0  0  0  0
 26 25  1  0  0  0  0
 27  8  1  0  0  0  0
 27 28  1  0  0  0  0
 28 29  2  0  0  0  0
 30 29  1  0  0  0  0
 31 30  2  0  0  0  0
 32 31  1  0  0  0  0
 32 27  2  0  0  0  0
M  END
>  <Pose>
1

>  <Score>
13.168

$$$$
