/Users/jonathanwahrer/Desktop/Msc/3_Semester/Drug_Design_Praktikum/waehrer_HTS_screening/HTS_experiment/out/docking_results/vina_output/4agl/0361_docked.pdbqt
 OpenBabel03202223203D

 33 36  0  0  1  0  0  0  0  0999 V2000
   90.4870   98.0980  -45.6810 C   0  0  1  0  0  3  0  0  0  0  0  0
   89.0920   97.9330  -46.1300 N   0  0  0  0  0  0  0  0  0  0  0  0
   88.3150   98.1300  -44.9540 C   0  0  0  0  0  0  0  0  0  0  0  0
   87.1560   97.6550  -44.7800 O   0  0  0  0  0  0  0  0  0  0  0  0
   89.0750   98.9550  -44.0210 C   0  0  0  0  0  0  0  0  0  0  0  0
   88.7120   99.3380  -42.8900 O   0  0  0  0  0  0  0  0  0  0  0  0
   90.3310   99.2290  -44.6950 C   0  0  0  0  0  0  0  0  0  0  0  0
   91.1360  100.2460  -44.5240 C   0  0  0  0  0  0  0  0  0  0  0  0
   92.2830  100.3860  -45.2930 O   0  0  0  0  0  1  0  0  0  0  0  0
   90.9330   96.9160  -44.9100 C   0  0  0  0  0  0  0  0  0  0  0  0
   90.9780   95.6650  -45.4800 C   0  0  0  0  0  3  0  0  0  0  0  0
   91.4070   94.5420  -44.7740 C   0  0  0  0  0  3  0  0  0  0  0  0
   91.8070   94.6640  -43.4560 C   0  0  0  0  0  0  0  0  0  0  0  0
   92.4020   93.1290  -42.4650 Br  0  0  0  0  0  0  0  0  0  0  0  0
   91.7610   95.9130  -42.8900 C   0  0  0  0  0  3  0  0  0  0  0  0
   91.3350   97.0140  -43.5960 C   0  0  0  0  0  3  0  0  0  0  0  0
   90.8760  101.2680  -43.5290 C   0  0  0  0  0  0  0  0  0  0  0  0
   91.3000  101.4060  -42.2560 N   0  0  0  0  0  0  0  0  0  0  0  0
   90.7710  102.5020  -41.6930 C   0  0  0  0  0  0  0  0  0  0  0  0
   92.1500  100.6670  -41.4970 C   0  0  0  0  0  3  0  0  0  0  0  0
   89.9910  103.0680  -42.6390 N   0  0  0  0  0  0  0  0  0  0  0  0
   91.0530  102.8980  -40.3850 C   0  0  0  0  0  3  0  0  0  0  0  0
   90.0210  102.3680  -43.7560 C   0  0  0  0  0  0  0  0  0  0  0  0
   89.3220  102.6160  -45.0580 C   0  0  0  0  0  1  0  0  0  0  0  0
   91.9120  102.1520  -39.6110 C   0  0  0  0  0  3  0  0  0  0  0  0
   92.4480  101.0330  -40.2060 C   0  0  0  0  0  3  0  0  0  0  0  0
   88.6560   97.6240  -47.4670 C   0  0  0  0  0  2  0  0  0  0  0  0
   88.0880   96.2900  -47.7550 C   0  0  0  0  0  2  0  0  0  0  0  0
   86.6540   96.1340  -48.0740 C   0  0  0  0  0  2  0  0  0  0  0  0
   85.6990   96.4740  -47.0640 N   0  0  0  0  0  4  0  0  0  0  0  0
   84.9230   97.6350  -47.5860 C   0  0  0  0  0  1  0  0  0  0  0  0
   84.7140   95.4190  -46.9410 C   0  0  0  0  0  1  0  0  0  0  0  0
   86.0650   96.7210  -46.1450 H   0  0  0  0  0  0  0  0  0  0  0  0
  1 10  1  1  0  0  0
  1  7  1  0  0  0  0
  2  1  1  0  0  0  0
  2  3  1  0  0  0  0
  3  4  2  0  0  0  0
  3  5  1  0  0  0  0
  5  6  2  0  0  0  0
  7  8  2  0  0  0  0
  7  5  1  0  0  0  0
  8 17  1  0  0  0  0
  9  8  1  0  0  0  0
 10 16  1  0  0  0  0
 11 10  2  0  0  0  0
 11 12  1  0  0  0  0
 12 13  2  0  0  0  0
 13 15  1  0  0  0  0
 13 14  1  0  0  0  0
 16 15  2  0  0  0  0
 17 18  1  0  0  0  0
 18 19  1  0  0  0  0
 18 20  1  0  0  0  0
 19 22  1  0  0  0  0
 20 26  2  0  0  0  0
 21 19  2  0  0  0  0
 22 25  2  0  0  0  0
 23 17  2  0  0  0  0
 23 21  1  0  0  0  0
 24 23  1  0  0  0  0
 26 25  1  0  0  0  0
 27  2  1  0  0  0  0
 28 27  1  0  0  0  0
 29 28  1  0  0  0  0
 29 30  1  0  0  0  0
 30 32  1  0  0  0  0
 30 33  1  0  0  0  0
 31 30  1  0  0  0  0
M  END
>  <Pose>
1

>  <Score>
-5.867

$$$$
