/Users/jonathanwahrer/Desktop/Msc/3_Semester/Drug_Design_Praktikum/waehrer_HTS_screening/HTS_experiment/out/docking_results/vina_output/4agl/0364_docked.pdbqt
 OpenBabel03202223203D

 32 35  0  0  1  0  0  0  0  0999 V2000
   90.6660   98.9510  -43.9890 C   0  0  1  0  0  3  0  0  0  0  0  0
   91.5460   99.5430  -44.9580 N   0  0  0  0  0  0  0  0  0  0  0  0
   90.8540   99.5820  -46.1940 C   0  0  0  0  0  0  0  0  0  0  0  0
   91.3670   99.8480  -47.3180 O   0  0  0  0  0  0  0  0  0  0  0  0
   89.4420   99.2630  -45.9630 C   0  0  0  0  0  0  0  0  0  0  0  0
   88.5210   99.2040  -46.8150 O   0  0  0  0  0  0  0  0  0  0  0  0
   89.2960   99.0240  -44.5390 C   0  0  0  0  0  0  0  0  0  0  0  0
   88.1490   98.9510  -43.8820 C   0  0  0  0  0  0  0  0  0  0  0  0
   88.2180   98.7900  -42.4850 O   0  0  0  0  0  1  0  0  0  0  0  0
   91.0560   97.5540  -43.6560 C   0  0  0  0  0  0  0  0  0  0  0  0
   91.4200   97.1670  -42.3860 C   0  0  0  0  0  3  0  0  0  0  0  0
   91.7860   95.8860  -42.0440 C   0  0  0  0  0  3  0  0  0  0  0  0
   91.7980   94.9130  -43.0020 C   0  0  0  0  0  0  0  0  0  0  0  0
   92.3080   93.1390  -42.5070 Br  0  0  0  0  0  0  0  0  0  0  0  0
   91.4420   95.2510  -44.2860 C   0  0  0  0  0  3  0  0  0  0  0  0
   91.0790   96.5370  -44.6110 C   0  0  0  0  0  3  0  0  0  0  0  0
   86.8290   99.0100  -44.4590 C   0  0  0  0  0  0  0  0  0  0  0  0
   86.0640   98.1090  -45.0880 N   0  0  0  0  0  0  0  0  0  0  0  0
   84.9040   98.6600  -45.4870 C   0  0  0  0  0  0  0  0  0  0  0  0
   86.2650   96.8000  -45.3500 C   0  0  0  0  0  3  0  0  0  0  0  0
   84.9280   99.9460  -45.1000 N   0  0  0  0  0  0  0  0  0  0  0  0
   83.9070   97.9540  -46.1520 C   0  0  0  0  0  3  0  0  0  0  0  0
   86.0790  100.1940  -44.4740 C   0  0  0  0  0  0  0  0  0  0  0  0
   86.4780  101.5080  -43.8970 C   0  0  0  0  0  1  0  0  0  0  0  0
   84.1170   96.6290  -46.4140 C   0  0  0  0  0  3  0  0  0  0  0  0
   85.3090   96.0590  -46.0050 C   0  0  0  0  0  3  0  0  0  0  0  0
   92.9240  100.0290  -44.7210 C   0  0  0  0  0  2  0  0  0  0  0  0
   92.8860  101.3320  -43.9510 C   0  0  0  0  0  2  0  0  0  0  0  0
   93.4440  101.2350  -42.6480 N   0  0  0  0  0  4  0  0  0  0  0  0
   94.1820  102.4710  -42.3880 C   0  0  0  0  0  1  0  0  0  0  0  0
   92.5010  101.0340  -41.5920 C   0  0  0  0  0  1  0  0  0  0  0  0
   94.1580  100.4560  -42.5800 H   0  0  0  0  0  0  0  0  0  0  0  0
  1 10  1  6  0  0  0
  2 27  1  0  0  0  0
  2  1  1  0  0  0  0
  3  5  1  0  0  0  0
  3  2  1  0  0  0  0
  4  3  2  0  0  0  0
  5  7  1  0  0  0  0
  6  5  2  0  0  0  0
  7  1  1  0  0  0  0
  7  8  2  0  0  0  0
  8  9  1  0  0  0  0
 10 11  1  0  0  0  0
 11 12  2  0  0  0  0
 13 14  1  0  0  0  0
 13 12  1  0  0  0  0
 15 13  2  0  0  0  0
 16 15  1  0  0  0  0
 16 10  2  0  0  0  0
 17  8  1  0  0  0  0
 18 17  1  0  0  0  0
 19 21  2  0  0  0  0
 19 18  1  0  0  0  0
 20 18  1  0  0  0  0
 21 23  1  0  0  0  0
 22 19  1  0  0  0  0
 23 17  2  0  0  0  0
 23 24  1  0  0  0  0
 25 22  2  0  0  0  0
 25 26  1  0  0  0  0
 26 20  2  0  0  0  0
 27 28  1  0  0  0  0
 28 29  1  0  0  0  0
 29 32  1  0  0  0  0
 29 30  1  0  0  0  0
 29 31  1  0  0  0  0
M  END
>  <Pose>
1

>  <Score>
-6.167

$$$$
