/Users/jonathanwahrer/Desktop/Msc/3_Semester/Drug_Design_Praktikum/waehrer_HTS_screening/HTS_experiment/out/docking_results/vina_output/4agl/0385_docked.pdbqt
 OpenBabel03202223213D

 32 35  0  0  1  0  0  0  0  0999 V2000
   90.6730   98.9670  -43.7800 C   0  0  2  0  0  3  0  0  0  0  0  0
   89.2050   98.6600  -43.7890 C   0  0  0  0  0  2  0  0  0  0  0  0
   88.6940   98.1570  -45.0700 C   0  0  0  0  0  0  0  0  0  0  0  0
   87.7190   97.3580  -45.0440 O   0  0  0  0  0  0  0  0  0  0  0  0
   89.2940   98.5650  -46.2870 N   0  0  0  0  0  0  0  0  0  0  0  0
   90.5650   99.1780  -46.2770 C   0  0  0  0  0  0  0  0  0  0  0  0
   91.1200   99.5760  -47.4640 N   0  0  0  0  0  0  0  0  0  0  0  0
   92.3110  100.1740  -47.5270 C   0  0  0  0  0  0  0  0  0  0  0  0
   92.9660  100.3770  -46.3770 N   0  0  0  0  0  0  0  0  0  0  0  0
   92.4600   99.9980  -45.1670 C   0  0  0  0  0  0  0  0  0  0  0  0
   91.2290   99.3790  -45.0750 C   0  0  0  0  0  0  0  0  0  0  0  0
   88.8110   98.4230  -47.2210 H   0  0  0  0  0  0  0  0  0  0  0  0
   91.3500   97.6860  -43.2460 C   0  0  0  0  0  0  0  0  0  0  0  0
   91.3520   96.5880  -43.9830 N   0  0  0  0  0  0  0  0  0  0  0  0
   91.8730   95.8840  -42.9400 H   0  0  0  0  0  0  0  0  0  0  0  0
   91.8410   97.9150  -42.0700 O   0  0  0  0  0  0  0  0  0  0  0  0
   91.3550   95.4480  -44.7470 C   0  0  0  0  0  0  0  0  0  0  0  0
   91.9760   94.2960  -44.1670 C   0  0  0  0  0  3  0  0  0  0  0  0
   91.9750   93.1030  -44.7930 C   0  0  0  0  0  3  0  0  0  0  0  0
   91.3800   92.9350  -46.0190 C   0  0  0  0  0  0  0  0  0  0  0  0
   91.3830   91.2260  -46.8930 Br  0  0  0  0  0  0  0  0  0  0  0  0
   90.7730   94.0190  -46.6130 C   0  0  0  0  0  3  0  0  0  0  0  0
   90.7710   95.2360  -45.9760 C   0  0  0  0  0  3  0  0  0  0  0  0
   93.2010  100.2260  -43.9730 N   0  0  0  0  0  0  0  0  0  0  0  0
   94.2020  100.0270  -43.8870 H   0  0  0  0  0  0  0  0  0  0  0  0
   92.6940  100.6110  -43.1360 H   0  0  0  0  0  0  0  0  0  0  0  0
   92.8770  100.5840  -48.7940 N   0  0  0  0  0  0  0  0  0  0  0  0
   94.0730  101.3510  -48.7500 C   0  0  0  0  0  2  0  0  0  0  0  0
   94.8450  101.3650  -50.0380 C   0  0  0  0  0  2  0  0  0  0  0  0
   94.2810  100.5410  -51.0060 O   0  0  0  0  0  0  0  0  0  0  0  0
   92.9270  100.7940  -51.1750 C   0  0  0  0  0  2  0  0  0  0  0  0
   92.1960  100.1830  -50.0070 C   0  0  0  0  0  2  0  0  0  0  0  0
  1 13  1  6  0  0  0
  2  1  1  0  0  0  0
  3  4  2  0  0  0  0
  3  2  1  0  0  0  0
  5  6  1  0  0  0  0
  5  3  1  0  0  0  0
  6 11  2  0  0  0  0
  7  6  1  0  0  0  0
  8  7  2  0  0  0  0
  8  9  1  0  0  0  0
  9 10  2  0  0  0  0
 10 11  1  0  0  0  0
 10 24  1  0  0  0  0
 11  1  1  0  0  0  0
 12  5  1  0  0  0  0
 13 16  2  0  0  0  0
 14 13  1  0  0  0  0
 14 15  1  0  0  0  0
 17 18  1  0  0  0  0
 17 14  1  0  0  0  0
 19 18  2  0  0  0  0
 20 19  1  0  0  0  0
 21 20  1  0  0  0  0
 22 20  2  0  0  0  0
 22 23  1  0  0  0  0
 23 17  2  0  0  0  0
 24 25  1  0  0  0  0
 24 26  1  0  0  0  0
 27 28  1  0  0  0  0
 27  8  1  0  0  0  0
 29 28  1  0  0  0  0
 30 29  1  0  0  0  0
 31 30  1  0  0  0  0
 31 32  1  0  0  0  0
 32 27  1  0  0  0  0
M  END
>  <Pose>
1

>  <Score>
-6.710

$$$$
