/Users/jonathanwahrer/Desktop/Msc/3_Semester/Drug_Design_Praktikum/waehrer_HTS_screening/HTS_experiment/out/docking_results/vina_output/4agl/0395_docked.pdbqt
 OpenBabel03202223223D

 28 31  0  0  1  0  0  0  0  0999 V2000
   91.7460   93.3040  -44.7400 N   0  0  0  0  0  0  0  0  0  0  0  0
   92.2100   92.8040  -43.6080 N   0  0  0  0  0  0  0  0  0  0  0  0
   92.2370   93.7160  -42.6510 N   0  0  0  0  0  0  0  0  0  0  0  0
   91.7710   94.8900  -43.1570 C   0  0  0  0  0  0  0  0  0  0  0  0
   91.4710   94.5940  -44.4750 C   0  0  0  0  0  0  0  0  0  0  0  0
   90.9840   95.5890  -45.2250 N   0  0  0  0  0  0  0  0  0  0  0  0
   90.7980   96.8150  -44.7070 C   0  0  0  0  0  3  0  0  0  0  0  0
   91.0890   97.1130  -43.4200 N   0  0  0  0  0  0  0  0  0  0  0  0
   91.5800   96.1470  -42.6350 C   0  0  0  0  0  0  0  0  0  0  0  0
   91.8500   96.4180  -41.4440 O   0  0  0  0  0  0  0  0  0  0  0  0
   90.8560   98.4670  -42.9530 C   0  0  0  0  0  2  0  0  0  0  0  0
   91.9950   99.3630  -43.3690 C   0  0  0  0  0  0  0  0  0  0  0  0
   92.8060   98.9970  -44.2620 O   0  0  0  0  0  0  0  0  0  0  0  0
   92.1780  100.6300  -42.7670 N   0  0  0  0  0  0  0  0  0  0  0  0
   93.2660  101.4960  -43.1560 C   0  0  0  0  0  2  0  0  0  0  0  0
   91.2710  101.0840  -41.7380 C   0  0  0  0  0  2  0  0  0  0  0  0
   93.8770  102.0380  -41.8750 C   0  0  2  0  0  3  0  0  0  0  0  0
   92.9720  102.6610  -41.0560 O   0  0  0  0  0  0  0  0  0  0  0  0
   94.8960  103.0970  -42.3070 C   0  0  0  0  0  1  0  0  0  0  0  0
   91.6580  102.5160  -41.4280 C   0  0  2  0  0  3  0  0  0  0  0  0
   90.6890  103.0970  -40.4420 C   0  0  0  0  0  1  0  0  0  0  0  0
   91.5660   92.6390  -45.9920 C   0  0  0  0  0  0  0  0  0  0  0  0
   92.2340   91.4620  -46.2560 C   0  0  0  0  0  3  0  0  0  0  0  0
   92.0650   90.8110  -47.4680 C   0  0  0  0  0  3  0  0  0  0  0  0
   91.2320   91.3020  -48.4520 C   0  0  0  0  0  0  0  0  0  0  0  0
   91.0150   90.3840  -50.1190 Br  0  0  0  0  0  0  0  0  0  0  0  0
   90.5640   92.4790  -48.1890 C   0  0  0  0  0  3  0  0  0  0  0  0
   90.7350   93.1250  -46.9820 C   0  0  0  0  0  3  0  0  0  0  0  0
  1  5  1  0  0  0  0
  1  2  1  0  0  0  0
  2  3  2  0  0  0  0
  4  3  1  0  0  0  0
  4  9  1  0  0  0  0
  5  4  2  0  0  0  0
  6  7  2  0  0  0  0
  6  5  1  0  0  0  0
  7  8  1  0  0  0  0
  8 11  1  0  0  0  0
  8  9  1  0  0  0  0
  9 10  2  0  0  0  0
 12 11  1  0  0  0  0
 12 14  1  0  0  0  0
 13 12  2  0  0  0  0
 14 16  1  0  0  0  0
 15 14  1  0  0  0  0
 15 17  1  0  0  0  0
 16 20  1  0  0  0  0
 17 19  1  6  0  0  0
 17 18  1  0  0  0  0
 20 18  1  0  0  0  0
 20 21  1  1  0  0  0
 22  1  1  0  0  0  0
 23 22  1  0  0  0  0
 24 23  2  0  0  0  0
 25 27  2  0  0  0  0
 25 24  1  0  0  0  0
 26 25  1  0  0  0  0
 27 28  1  0  0  0  0
 28 22  2  0  0  0  0
M  END
>  <Pose>
1

>  <Score>
-7.032

$$$$
