/Users/jonathanwahrer/Desktop/Msc/3_Semester/Drug_Design_Praktikum/waehrer_HTS_screening/HTS_experiment/out/docking_results/vina_output/4agl/0399_docked.pdbqt
 OpenBabel03202223223D

 28 31  0  0  1  0  0  0  0  0999 V2000
   90.6500   98.6550  -44.6210 N   0  0  0  0  0  0  0  0  0  0  0  0
   89.3730   99.0820  -45.0820 C   0  0  0  0  0  0  0  0  0  0  0  0
   88.3790   98.3390  -45.2290 O   0  0  0  0  0  0  0  0  0  0  0  0
   89.3650  100.5240  -45.3690 C   0  0  2  0  0  3  0  0  0  0  0  0
   90.8410  100.8070  -45.6220 C   0  0  0  0  0  2  0  0  0  0  0  0
   91.5170   99.7990  -44.7450 C   0  0  0  0  0  0  0  0  0  0  0  0
   92.6420  100.0210  -44.2590 O   0  0  0  0  0  0  0  0  0  0  0  0
   88.8690  101.3620  -44.3010 N   0  0  1  0  0  4  0  0  0  0  0  0
   88.3770  100.5950  -43.1820 C   0  0  0  0  0  2  0  0  0  0  0  0
   89.3650  100.4420  -42.0470 C   0  0  0  0  0  2  0  0  0  0  0  0
   90.0800  101.6690  -41.8040 N   0  0  0  0  0  0  0  0  0  0  0  0
   89.5510  102.8170  -42.5020 C   0  0  0  0  0  2  0  0  0  0  0  0
   89.7160  102.4570  -43.9910 C   0  0  0  0  0  2  0  0  0  0  0  0
   87.9770  101.7960  -44.7180 H   0  0  0  0  0  0  0  0  0  0  0  0
   91.2080  101.7660  -40.9830 C   0  0  0  0  0  0  0  0  0  0  0  0
   92.3030  100.9270  -41.0240 C   0  0  0  0  0  3  0  0  0  0  0  0
   93.3860  101.0530  -40.1690 C   0  0  0  0  0  3  0  0  0  0  0  0
   93.4030  102.0450  -39.2260 C   0  0  0  0  0  0  0  0  0  0  0  0
   92.3330  102.9120  -39.1390 C   0  0  0  0  0  3  0  0  0  0  0  0
   94.4620  102.2270  -38.3350 O   0  0  0  0  0  1  0  0  0  0  0  0
   91.2640  102.7660  -40.0050 C   0  0  0  0  0  3  0  0  0  0  0  0
   91.0460   97.3750  -44.1240 C   0  0  0  0  0  0  0  0  0  0  0  0
   91.3550   97.1820  -42.8080 C   0  0  0  0  0  3  0  0  0  0  0  0
   91.7440   95.9280  -42.3260 C   0  0  0  0  0  3  0  0  0  0  0  0
   91.8290   94.8420  -43.1530 C   0  0  0  0  0  0  0  0  0  0  0  0
   92.3590   93.1210  -42.5020 Br  0  0  0  0  0  0  0  0  0  0  0  0
   91.5170   95.0300  -44.4800 C   0  0  0  0  0  3  0  0  0  0  0  0
   91.1300   96.2940  -44.9530 C   0  0  0  0  0  3  0  0  0  0  0  0
  1 22  1  0  0  0  0
  2  1  1  0  0  0  0
  3  2  2  0  0  0  0
  4  5  1  1  0  0  0
  4  2  1  0  0  0  0
  4  8  1  0  0  0  0
  5  6  1  0  0  0  0
  6  1  1  0  0  0  0
  6  7  2  0  0  0  0
  8 14  1  6  0  0  0
  8 13  1  0  0  0  0
  8  9  1  0  0  0  0
  9 10  1  0  0  0  0
 10 11  1  0  0  0  0
 11 15  1  0  0  0  0
 12 11  1  0  0  0  0
 13 12  1  0  0  0  0
 15 21  1  0  0  0  0
 16 15  2  0  0  0  0
 16 17  1  0  0  0  0
 17 18  2  0  0  0  0
 18 19  1  0  0  0  0
 18 20  1  0  0  0  0
 21 19  2  0  0  0  0
 22 23  1  0  0  0  0
 23 24  2  0  0  0  0
 25 26  1  0  0  0  0
 25 24  1  0  0  0  0
 27 25  2  0  0  0  0
 28 27  1  0  0  0  0
 28 22  2  0  0  0  0
M  END
>  <Pose>
1

>  <Score>
-6.252

$$$$
