/Users/jonathanwahrer/Desktop/Msc/3_Semester/Drug_Design_Praktikum/waehrer_HTS_screening/HTS_experiment/out/docking_results/vina_output/4agl/0400_docked.pdbqt
 OpenBabel03202223223D

 31 34  0  0  1  0  0  0  0  0999 V2000
   90.1640   99.4930  -44.9210 N   0  0  2  0  0  0  0  0  0  0  0  0
   89.2330  100.3510  -44.3070 C   0  0  0  0  0  2  0  0  0  0  0  0
   88.1270  100.6770  -45.3200 C   0  0  0  0  0  2  0  0  0  0  0  0
   87.3000   99.4520  -45.6410 C   0  0  1  0  0  0  0  0  0  0  0  0
   88.1850   98.2780  -45.7720 C   0  0  0  0  0  2  0  0  0  0  0  0
   89.6300   98.6730  -45.9420 C   0  0  0  0  0  2  0  0  0  0  0  0
   91.2140   98.9530  -44.1560 C   0  0  2  0  0  3  0  0  0  0  0  0
   91.8780   97.8630  -44.9170 C   0  0  0  0  0  0  0  0  0  0  0  0
   91.5830   96.6290  -44.2550 N   0  0  0  0  0  0  0  0  0  0  0  0
   92.5670   98.0320  -45.9520 O   0  0  0  0  0  0  0  0  0  0  0  0
   91.3440   96.9830  -42.8990 C   0  0  0  0  0  0  0  0  0  0  0  0
   90.7780   98.3570  -42.8370 C   0  0  0  0  0  2  0  0  0  0  0  0
   91.5850   96.2180  -41.8990 O   0  0  0  0  0  0  0  0  0  0  0  0
   91.5440   95.3280  -44.8470 C   0  0  0  0  0  0  0  0  0  0  0  0
   90.7870   95.1090  -45.9670 C   0  0  0  0  0  3  0  0  0  0  0  0
   90.7380   93.8420  -46.5610 C   0  0  0  0  0  3  0  0  0  0  0  0
   91.4400   92.7740  -46.0520 C   0  0  0  0  0  0  0  0  0  0  0  0
   91.3790   91.0400  -46.8550 Br  0  0  0  0  0  0  0  0  0  0  0  0
   92.2010   92.9940  -44.9250 C   0  0  0  0  0  3  0  0  0  0  0  0
   92.2430   94.2530  -44.3460 C   0  0  0  0  0  3  0  0  0  0  0  0
   86.2590   99.3610  -44.7030 N   0  0  0  0  0  0  0  0  0  0  0  0
   86.0960   98.1670  -43.9870 C   0  0  0  0  0  2  0  0  0  0  0  0
   84.6450   97.7070  -44.2140 C   0  0  0  0  0  2  0  0  0  0  0  0
   83.7740   98.7600  -43.5600 C   0  0  0  0  0  2  0  0  0  0  0  0
   84.4930  100.0380  -43.2810 C   0  0  0  0  0  2  0  0  0  0  0  0
   85.4500  100.4430  -44.4130 C   0  0  0  0  0  2  0  0  0  0  0  0
   86.6820   99.7300  -46.9860 C   0  0  0  0  0  0  0  0  0  0  0  0
   87.0470  100.7460  -47.6510 O   0  0  0  0  0  0  0  0  0  0  0  0
   85.6920   98.8990  -47.5630 N   0  0  0  0  0  0  0  0  0  0  0  0
   84.7560   99.2780  -47.7500 H   0  0  0  0  0  0  0  0  0  0  0  0
   85.8980   97.9100  -47.8020 H   0  0  0  0  0  0  0  0  0  0  0  0
  1  6  1  1  0  0  0
  1  2  1  0  0  0  0
  1  7  1  0  0  0  0
  3  2  1  0  0  0  0
  4 27  1  6  0  0  0
  4  3  1  0  0  0  0
  4 21  1  0  0  0  0
  5  4  1  0  0  0  0
  6  5  1  0  0  0  0
  7 12  1  1  0  0  0
  8  9  1  0  0  0  0
  8  7  1  0  0  0  0
  9 11  1  0  0  0  0
 10  8  2  0  0  0  0
 11 12  1  0  0  0  0
 11 13  2  0  0  0  0
 14 20  1  0  0  0  0
 14  9  1  0  0  0  0
 15 14  2  0  0  0  0
 16 17  2  0  0  0  0
 16 15  1  0  0  0  0
 17 19  1  0  0  0  0
 18 17  1  0  0  0  0
 19 20  2  0  0  0  0
 21 26  1  0  0  0  0
 21 22  1  0  0  0  0
 23 22  1  0  0  0  0
 23 24  1  0  0  0  0
 24 25  1  0  0  0  0
 26 25  1  0  0  0  0
 28 27  2  0  0  0  0
 29 27  1  0  0  0  0
 30 29  1  0  0  0  0
 31 29  1  0  0  0  0
M  END
>  <Pose>
1

>  <Score>
-6.747

$$$$
