/Users/jonathanwahrer/Desktop/Msc/3_Semester/Drug_Design_Praktikum/waehrer_HTS_screening/HTS_experiment/out/docking_results/vina_output/4agl/0408_docked.pdbqt
 OpenBabel03202223233D

 31 34  0  0  0  0  0  0  0  0999 V2000
   91.9790  101.3670  -42.7400 N   0  0  0  0  0  0  0  0  0  0  0  0
   91.3710  100.2610  -43.2030 C   0  0  0  0  0  0  0  0  0  0  0  0
   90.5860   99.5460  -42.5080 O   0  0  0  0  0  0  0  0  0  0  0  0
   91.7210  100.0160  -44.5310 C   0  0  0  0  0  0  0  0  0  0  0  0
   92.5540  100.9970  -44.8640 C   0  0  0  0  0  0  0  0  0  0  0  0
   92.8780  100.7410  -46.1440 N   0  0  0  0  0  0  0  0  0  0  0  0
   92.2630   99.6480  -46.5640 N   0  0  0  0  0  0  0  0  0  0  0  0
   91.5420   99.1900  -45.5700 N   0  0  0  0  0  0  0  0  0  0  0  0
   92.7180  101.8290  -43.7740 C   0  0  0  0  0  0  0  0  0  0  0  0
   93.4270  102.8570  -43.7090 O   0  0  0  0  0  0  0  0  0  0  0  0
   93.5350  101.3670  -46.6770 H   0  0  0  0  0  0  0  0  0  0  0  0
   92.3730   99.2670  -47.5320 H   0  0  0  0  0  0  0  0  0  0  0  0
   90.7030   98.0190  -45.5660 C   0  0  0  0  0  2  0  0  0  0  0  0
   91.4290   96.8130  -45.0440 C   0  0  0  0  0  0  0  0  0  0  0  0
   92.3650   96.4140  -45.7770 O   0  0  0  0  0  0  0  0  0  0  0  0
   91.0860   96.1900  -43.8410 N   0  0  0  0  0  0  0  0  0  0  0  0
   90.2610   96.6480  -43.3250 H   0  0  0  0  0  0  0  0  0  0  0  0
   91.6920   95.0670  -43.2650 C   0  0  0  0  0  0  0  0  0  0  0  0
   92.1930   95.2080  -41.9610 C   0  0  0  0  0  0  0  0  0  0  0  0
   92.7950   94.1330  -41.3570 C   0  0  0  0  0  3  0  0  0  0  0  0
   92.0880   96.4850  -41.2290 C   0  0  0  0  0  1  0  0  0  0  0  0
   92.9310   92.9070  -41.9730 C   0  0  0  0  0  3  0  0  0  0  0  0
   92.4470   92.7630  -43.2400 C   0  0  0  0  0  3  0  0  0  0  0  0
   91.8410   93.8370  -43.8570 C   0  0  0  0  0  3  0  0  0  0  0  0
   91.8700  101.9350  -41.4380 C   0  0  0  0  0  0  0  0  0  0  0  0
   92.8240  101.6650  -40.4710 C   0  0  0  0  0  3  0  0  0  0  0  0
   92.7390  102.2050  -39.2020 C   0  0  0  0  0  3  0  0  0  0  0  0
   91.6960  103.0340  -38.8480 C   0  0  0  0  0  0  0  0  0  0  0  0
   91.5810  103.7830  -37.0830 Br  0  0  0  0  0  0  0  0  0  0  0  0
   90.7420  103.3090  -39.8010 C   0  0  0  0  0  3  0  0  0  0  0  0
   90.8350  102.7680  -41.0630 C   0  0  0  0  0  3  0  0  0  0  0  0
  1 25  1  0  0  0  0
  2  1  1  0  0  0  0
  2  3  2  0  0  0  0
  4  2  1  0  0  0  0
  5  4  2  0  0  0  0
  5  9  1  0  0  0  0
  6  5  1  0  0  0  0
  7  6  1  0  0  0  0
  7  8  1  0  0  0  0
  8 13  1  0  0  0  0
  8  4  1  0  0  0  0
  9 10  2  0  0  0  0
  9  1  1  0  0  0  0
 11  6  1  0  0  0  0
 12  7  1  0  0  0  0
 13 14  1  0  0  0  0
 14 16  1  0  0  0  0
 15 14  2  0  0  0  0
 16 17  1  0  0  0  0
 16 18  1  0  0  0  0
 18 19  1  0  0  0  0
 19 20  2  0  0  0  0
 19 21  1  0  0  0  0
 22 20  1  0  0  0  0
 23 22  2  0  0  0  0
 24 18  2  0  0  0  0
 24 23  1  0  0  0  0
 25 31  2  0  0  0  0
 25 26  1  0  0  0  0
 26 27  2  0  0  0  0
 27 28  1  0  0  0  0
 28 29  1  0  0  0  0
 30 28  2  0  0  0  0
 31 30  1  0  0  0  0
M  END
>  <Pose>
1

>  <Score>
-6.826

$$$$
