/Users/jonathanwahrer/Desktop/Msc/3_Semester/Drug_Design_Praktikum/waehrer_HTS_screening/HTS_experiment/out/docking_results/vina_output/4agl/0412_docked.pdbqt
 OpenBabel03202223243D

 34 37  0  0  0  0  0  0  0  0999 V2000
   91.6050  101.3120  -43.1550 N   0  0  0  0  0  0  0  0  0  0  0  0
   90.8160  100.4690  -43.8280 C   0  0  0  0  0  0  0  0  0  0  0  0
   89.7510   99.9530  -43.3510 O   0  0  0  0  0  0  0  0  0  0  0  0
   91.2620  100.1990  -45.1010 C   0  0  0  0  0  0  0  0  0  0  0  0
   92.3920  100.9240  -45.2110 C   0  0  0  0  0  0  0  0  0  0  0  0
   92.8540  100.6760  -46.4610 N   0  0  0  0  0  0  0  0  0  0  0  0
   92.0440   99.8410  -47.0870 N   0  0  0  0  0  0  0  0  0  0  0  0
   91.0650   99.5460  -46.2560 N   0  0  0  0  0  0  0  0  0  0  0  0
   92.6120  101.6040  -44.0360 C   0  0  0  0  0  0  0  0  0  0  0  0
   93.5540  102.3790  -43.7470 O   0  0  0  0  0  0  0  0  0  0  0  0
   93.7300  101.0970  -46.8490 H   0  0  0  0  0  0  0  0  0  0  0  0
   92.2110   99.5080  -48.0740 H   0  0  0  0  0  0  0  0  0  0  0  0
   89.9730   98.6670  -46.5600 C   0  0  0  0  0  2  0  0  0  0  0  0
   90.0780   97.3540  -45.9290 C   0  0  0  0  0  0  0  0  0  0  0  0
   89.0660   96.6380  -45.6730 O   0  0  0  0  0  0  0  0  0  0  0  0
   91.3650   96.8780  -45.5900 N   0  0  0  0  0  0  0  0  0  0  0  0
   92.2310   97.4670  -45.7910 H   0  0  0  0  0  0  0  0  0  0  0  0
   91.4860   95.6060  -44.9770 C   0  0  0  0  0  0  0  0  0  0  0  0
   91.5940   95.5920  -43.6080 C   0  0  0  0  0  3  0  0  0  0  0  0
   91.7480   94.3780  -42.9290 C   0  0  0  0  0  0  0  0  0  0  0  0
   91.7920   93.2040  -43.6330 C   0  0  0  0  0  3  0  0  0  0  0  0
   91.6850   93.2010  -45.0220 C   0  0  0  0  0  0  0  0  0  0  0  0
   91.5320   94.4200  -45.6640 C   0  0  0  0  0  3  0  0  0  0  0  0
   91.8420   94.4830  -41.5610 O   0  0  0  0  0  0  0  0  0  0  0  0
   92.1140   95.6530  -40.8820 C   0  0  0  0  0  1  0  0  0  0  0  0
   91.7430   91.9820  -45.6630 O   0  0  0  0  0  0  0  0  0  0  0  0
   91.2250   91.6660  -46.9180 C   0  0  0  0  0  1  0  0  0  0  0  0
   91.4770  101.8280  -41.8280 C   0  0  0  0  0  0  0  0  0  0  0  0
   92.1850  101.2790  -40.7870 C   0  0  0  0  0  3  0  0  0  0  0  0
   92.0560  101.7920  -39.4870 C   0  0  0  0  0  3  0  0  0  0  0  0
   91.2230  102.8530  -39.2240 C   0  0  0  0  0  0  0  0  0  0  0  0
   91.0470  103.5640  -37.4400 Br  0  0  0  0  0  0  0  0  0  0  0  0
   90.5160  103.4020  -40.2680 C   0  0  0  0  0  3  0  0  0  0  0  0
   90.6480  102.8910  -41.5380 C   0  0  0  0  0  3  0  0  0  0  0  0
  1 28  1  0  0  0  0
  2  3  2  0  0  0  0
  2  1  1  0  0  0  0
  4  2  1  0  0  0  0
  5  4  2  0  0  0  0
  5  9  1  0  0  0  0
  6  5  1  0  0  0  0
  7  6  1  0  0  0  0
  7  8  1  0  0  0  0
  8  4  1  0  0  0  0
  9 10  2  0  0  0  0
  9  1  1  0  0  0  0
 11  6  1  0  0  0  0
 12  7  1  0  0  0  0
 13  8  1  0  0  0  0
 13 14  1  0  0  0  0
 14 15  2  0  0  0  0
 14 16  1  0  0  0  0
 16 18  1  0  0  0  0
 17 16  1  0  0  0  0
 18 19  1  0  0  0  0
 19 20  2  0  0  0  0
 20 24  1  0  0  0  0
 21 20  1  0  0  0  0
 22 21  2  0  0  0  0
 23 22  1  0  0  0  0
 23 18  2  0  0  0  0
 24 25  1  0  0  0  0
 26 22  1  0  0  0  0
 27 26  1  0  0  0  0
 28 34  2  0  0  0  0
 28 29  1  0  0  0  0
 29 30  2  0  0  0  0
 30 31  1  0  0  0  0
 31 32  1  0  0  0  0
 33 31  2  0  0  0  0
 34 33  1  0  0  0  0
M  END
>  <Pose>
1

>  <Score>
-6.861

$$$$
