/Users/jonathanwahrer/Desktop/Msc/3_Semester/Drug_Design_Praktikum/waehrer_HTS_screening/HTS_experiment/out/docking_results/vina_output/4agl/0416_docked.pdbqt
 OpenBabel03202223253D

 33 36  0  0  0  0  0  0  0  0999 V2000
   91.3620   96.6700  -43.5020 N   0  0  0  0  0  0  0  0  0  0  0  0
   91.2570   96.0430  -44.7070 C   0  0  0  0  0  0  0  0  0  0  0  0
   91.0070   96.6380  -45.7830 O   0  0  0  0  0  0  0  0  0  0  0  0
   91.4610   94.6860  -44.5760 C   0  0  0  0  0  0  0  0  0  0  0  0
   91.6910   94.4790  -43.2870 C   0  0  0  0  0  0  0  0  0  0  0  0
   91.8930   93.1580  -43.1270 N   0  0  0  0  0  0  0  0  0  0  0  0
   91.7830   92.5800  -44.3150 N   0  0  0  0  0  0  0  0  0  0  0  0
   91.5170   93.4930  -45.2300 N   0  0  0  0  0  0  0  0  0  0  0  0
   91.6320   95.6870  -42.6320 C   0  0  0  0  0  0  0  0  0  0  0  0
   91.8020   95.8850  -41.3870 O   0  0  0  0  0  0  0  0  0  0  0  0
   92.1020   92.6490  -42.2510 H   0  0  0  0  0  0  0  0  0  0  0  0
   91.8950   91.5390  -44.4910 H   0  0  0  0  0  0  0  0  0  0  0  0
   91.3080   93.3040  -46.6360 C   0  0  0  0  0  2  0  0  0  0  0  0
   91.2140   91.8510  -47.0390 C   0  0  0  0  0  0  0  0  0  0  0  0
   91.6050   91.0270  -46.1840 O   0  0  0  0  0  0  0  0  0  0  0  0
   90.7200   91.4620  -48.2820 N   0  0  0  0  0  0  0  0  0  0  0  0
   90.4220   92.2720  -48.9310 H   0  0  0  0  0  0  0  0  0  0  0  0
   90.5480   90.1790  -48.8270 C   0  0  0  0  0  0  0  0  0  0  0  0
   89.2760   89.7380  -49.1920 C   0  0  0  0  0  3  0  0  0  0  0  0
   89.0610   88.4900  -49.7100 C   0  0  0  0  0  3  0  0  0  0  0  0
   90.1280   87.6080  -49.8890 C   0  0  0  0  0  0  0  0  0  0  0  0
   91.3680   88.0710  -49.5210 C   0  0  0  0  0  3  0  0  0  0  0  0
   91.5900   89.3250  -49.0020 C   0  0  0  0  0  3  0  0  0  0  0  0
   89.8670   86.3610  -50.4080 O   0  0  0  0  0  0  0  0  0  0  0  0
   89.9270   85.9860  -51.7460 C   0  0  0  0  0  2  0  0  0  0  0  0
   88.7310   86.3700  -52.5480 C   0  0  0  0  0  1  0  0  0  0  0  0
   91.2130   98.0600  -43.2250 C   0  0  0  0  0  0  0  0  0  0  0  0
   92.2630   98.9550  -43.2130 C   0  0  0  0  0  3  0  0  0  0  0  0
   92.0780  100.3000  -42.9330 C   0  0  0  0  0  3  0  0  0  0  0  0
   90.8280  100.8110  -42.6530 C   0  0  0  0  0  0  0  0  0  0  0  0
   90.5490  102.6580  -42.2610 Br  0  0  0  0  0  0  0  0  0  0  0  0
   89.7720   99.9080  -42.6680 C   0  0  0  0  0  3  0  0  0  0  0  0
   89.9580   98.5690  -42.9460 C   0  0  0  0  0  3  0  0  0  0  0  0
  1 27  1  0  0  0  0
  1  9  1  0  0  0  0
  2  4  1  0  0  0  0
  2  1  1  0  0  0  0
  3  2  2  0  0  0  0
  4  5  2  0  0  0  0
  5  6  1  0  0  0  0
  5  9  1  0  0  0  0
  6 11  1  0  0  0  0
  7  6  1  0  0  0  0
  8  4  1  0  0  0  0
  8  7  1  0  0  0  0
  9 10  2  0  0  0  0
 12  7  1  0  0  0  0
 13  8  1  0  0  0  0
 14 13  1  0  0  0  0
 14 15  2  0  0  0  0
 16 14  1  0  0  0  0
 17 16  1  0  0  0  0
 18 16  1  0  0  0  0
 19 18  2  0  0  0  0
 20 19  1  0  0  0  0
 21 20  2  0  0  0  0
 21 22  1  0  0  0  0
 22 23  2  0  0  0  0
 23 18  1  0  0  0  0
 24 21  1  0  0  0  0
 25 24  1  0  0  0  0
 26 25  1  0  0  0  0
 27 28  2  0  0  0  0
 27 33  1  0  0  0  0
 28 29  1  0  0  0  0
 29 30  2  0  0  0  0
 30 31  1  0  0  0  0
 32 30  1  0  0  0  0
 33 32  2  0  0  0  0
M  END
>  <Pose>
1

>  <Score>
-7.231

$$$$
