/Users/jonathanwahrer/Desktop/Msc/3_Semester/Drug_Design_Praktikum/waehrer_HTS_screening/HTS_experiment/out/docking_results/vina_output/4agl/0421_docked.pdbqt
 OpenBabel03202223253D

 28 31  0  0  0  0  0  0  0  0999 V2000
   91.5230   96.4850  -43.9360 N   0  0  0  0  0  0  0  0  0  0  0  0
   91.4740   95.5610  -44.9210 C   0  0  0  0  0  0  0  0  0  0  0  0
   91.3330   95.7640  -46.1690 O   0  0  0  0  0  0  0  0  0  0  0  0
   91.6010   94.2840  -44.4040 C   0  0  0  0  0  0  0  0  0  0  0  0
   91.7280   94.4550  -43.0860 C   0  0  0  0  0  0  0  0  0  0  0  0
   91.8530   93.2060  -42.5760 N   0  0  0  0  0  0  0  0  0  0  0  0
   91.8000   92.3380  -43.5730 N   0  0  0  0  0  0  0  0  0  0  0  0
   91.6440   92.9780  -44.7200 N   0  0  0  0  0  0  0  0  0  0  0  0
   91.6810   95.8010  -42.7900 C   0  0  0  0  0  0  0  0  0  0  0  0
   91.7670   96.3520  -41.6640 O   0  0  0  0  0  0  0  0  0  0  0  0
   91.9720   92.9920  -41.5520 H   0  0  0  0  0  0  0  0  0  0  0  0
   91.8660   91.2890  -43.5110 H   0  0  0  0  0  0  0  0  0  0  0  0
   91.5420   92.3910  -46.0230 C   0  0  0  0  0  0  0  0  0  0  0  0
   92.3200   91.3090  -46.3790 C   0  0  0  0  0  3  0  0  0  0  0  0
   92.2440   90.7180  -47.6340 C   0  0  0  0  0  3  0  0  0  0  0  0
   91.3680   91.2120  -48.5770 C   0  0  0  0  0  0  0  0  0  0  0  0
   90.5890   92.2940  -48.2240 C   0  0  0  0  0  3  0  0  0  0  0  0
   90.6680   92.8800  -46.9700 C   0  0  0  0  0  3  0  0  0  0  0  0
   91.2670   90.6280  -49.8730 N   0  0  0  0  0  0  0  0  0  0  0  0
   91.4590   91.2850  -50.9130 O   0  0  0  0  0  0  0  0  0  0  0  0
   90.9500   89.3120  -49.9850 O   0  0  0  0  0  0  0  0  0  0  0  0
   91.4240   97.9050  -44.1070 C   0  0  0  0  0  0  0  0  0  0  0  0
   92.5240   98.7010  -44.3490 C   0  0  0  0  0  3  0  0  0  0  0  0
   92.3950  100.0770  -44.5100 C   0  0  0  0  0  3  0  0  0  0  0  0
   91.1610  100.6890  -44.4330 C   0  0  0  0  0  0  0  0  0  0  0  0
   90.9610  102.5810  -44.6530 Br  0  0  0  0  0  0  0  0  0  0  0  0
   90.0580   99.8960  -44.1930 C   0  0  0  0  0  3  0  0  0  0  0  0
   90.1960   98.5300  -44.0330 C   0  0  0  0  0  3  0  0  0  0  0  0
  1  9  1  0  0  0  0
  2  4  1  0  0  0  0
  2  1  1  0  0  0  0
  3  2  2  0  0  0  0
  4  5  2  0  0  0  0
  5  9  1  0  0  0  0
  5  6  1  0  0  0  0
  6 11  1  0  0  0  0
  7 12  1  0  0  0  0
  7  6  1  0  0  0  0
  8  4  1  0  0  0  0
  8  7  1  0  0  0  0
  9 10  2  0  0  0  0
 13  8  1  0  0  0  0
 14 13  1  0  0  0  0
 15 14  2  0  0  0  0
 16 17  2  0  0  0  0
 16 15  1  0  0  0  0
 17 18  1  0  0  0  0
 18 13  2  0  0  0  0
 19 16  1  0  0  0  0
 20 19  2  0  0  0  0
 21 19  2  0  0  0  0
 22 28  1  0  0  0  0
 22  1  1  0  0  0  0
 23 22  2  0  0  0  0
 24 25  2  0  0  0  0
 24 23  1  0  0  0  0
 25 27  1  0  0  0  0
 26 25  1  0  0  0  0
 27 28  2  0  0  0  0
M  END
>  <Pose>
1

>  <Score>
-7.088

$$$$
