/Users/jonathanwahrer/Desktop/Msc/3_Semester/Drug_Design_Praktikum/waehrer_HTS_screening/HTS_experiment/out/docking_results/vina_output/4agl/0425_docked.pdbqt
 OpenBabel03202223253D

 24 28  0  0  1  0  0  0  0  0999 V2000
   90.3600   97.7170  -45.3770 N   0  0  0  0  0  0  0  0  0  0  0  0
   91.3040   98.7490  -45.6160 C   0  0  0  0  0  0  0  0  0  0  0  0
   92.3310   98.6140  -46.3230 O   0  0  0  0  0  0  0  0  0  0  0  0
   90.8700   99.9800  -44.9020 C   0  0  2  0  0  3  0  0  0  0  0  0
   91.5080  100.1050  -43.5520 C   0  0  1  0  0  0  0  0  0  0  0  0
   90.4850  100.7790  -42.8490 O   0  0  0  0  0  0  0  0  0  0  0  0
   89.4810   99.7930  -43.0210 C   0  0  1  0  0  3  0  0  0  0  0  0
   89.4180   99.7060  -44.5070 C   0  0  2  0  0  3  0  0  0  0  0  0
   89.1390   98.3080  -44.9320 C   0  0  0  0  0  0  0  0  0  0  0  0
   88.0300   97.7700  -44.8960 O   0  0  0  0  0  0  0  0  0  0  0  0
   90.2170   98.6070  -42.5110 C   0  0  0  0  0  2  0  0  0  0  0  0
   91.4740   98.7840  -42.9050 C   0  0  0  0  0  2  0  0  0  0  0  0
   90.6600   96.3290  -45.5730 C   0  0  0  0  0  0  0  0  0  0  0  0
   91.5270   95.6530  -44.7440 C   0  0  0  0  0  3  0  0  0  0  0  0
   91.8250   94.3200  -44.9230 C   0  0  0  0  0  3  0  0  0  0  0  0
   91.2320   93.6550  -45.9690 C   0  0  0  0  0  0  0  0  0  0  0  0
   91.6190   91.8200  -46.2490 Br  0  0  0  0  0  0  0  0  0  0  0  0
   90.3650   94.3080  -46.8090 C   0  0  0  0  0  3  0  0  0  0  0  0
   90.0600   95.6590  -46.6300 C   0  0  0  0  0  3  0  0  0  0  0  0
   92.7910  100.8180  -43.5200 C   0  0  0  0  0  3  0  0  0  0  0  0
   93.0560  101.4350  -42.3280 O   0  0  0  0  0  0  0  0  0  0  0  0
   92.9880  102.7940  -42.5100 C   0  0  0  0  0  2  0  0  0  0  0  0
   92.6600  103.0110  -43.9500 C   0  0  0  0  0  2  0  0  0  0  0  0
   92.8810  101.7640  -44.5240 O   0  0  0  0  0  0  0  0  0  0  0  0
  1  9  1  0  0  0  0
  2  1  1  0  0  0  0
  3  2  2  0  0  0  0
  4  2  1  1  0  0  0
  4  8  1  0  0  0  0
  4  5  1  0  0  0  0
  5 20  1  1  0  0  0
  5 12  1  0  0  0  0
  5  6  1  0  0  0  0
  7  6  1  0  0  0  0
  7 11  1  1  0  0  0
  8  9  1  1  0  0  0
  8  7  1  0  0  0  0
  9 10  2  0  0  0  0
 12 11  1  0  0  0  0
 13  1  1  0  0  0  0
 13 14  1  0  0  0  0
 15 14  2  0  0  0  0
 16 15  1  0  0  0  0
 17 16  1  0  0  0  0
 18 19  1  0  0  0  0
 18 16  2  0  0  0  0
 19 13  2  0  0  0  0
 20 21  1  0  0  0  0
 22 21  1  0  0  0  0
 23 22  1  0  0  0  0
 24 23  1  0  0  0  0
 24 20  1  0  0  0  0
M  END
>  <Pose>
1

>  <Score>
-5.885

$$$$
