/Users/jonathanwahrer/Desktop/Msc/3_Semester/Drug_Design_Praktikum/waehrer_HTS_screening/HTS_experiment/out/docking_results/vina_output/4agl/0426_docked.pdbqt
 OpenBabel03202223253D

 29 32  0  0  1  0  0  0  0  0999 V2000
   91.2560  100.2740  -42.4220 N   0  0  0  0  0  0  0  0  0  0  0  0
   89.8400  100.5080  -42.5400 C   0  0  0  0  0  0  0  0  0  0  0  0
   89.2570  101.6250  -42.4400 O   0  0  0  0  0  0  0  0  0  0  0  0
   89.2080   99.1940  -42.8000 C   0  0  1  0  0  3  0  0  0  0  0  0
   88.0460   99.2480  -43.6650 N   0  0  0  0  0  0  0  0  0  0  0  0
   88.2450   98.0210  -44.3700 N   0  0  0  0  0  0  0  0  0  0  0  0
   89.6360   97.8870  -44.6640 C   0  0  0  0  0  0  0  0  0  0  0  0
   90.2460   98.5950  -43.7200 C   0  0  0  0  0  0  0  0  0  0  0  0
   91.5060   99.0730  -43.1630 C   0  0  0  0  0  0  0  0  0  0  0  0
   92.5910   98.4590  -43.3590 O   0  0  0  0  0  0  0  0  0  0  0  0
   88.2680  100.0010  -44.3760 H   0  0  0  0  0  0  0  0  0  0  0  0
   87.5100   97.3360  -44.6320 H   0  0  0  0  0  0  0  0  0  0  0  0
   90.2630   97.1390  -45.7480 C   0  0  0  0  0  0  0  0  0  0  0  0
   89.8770   97.2490  -46.9350 O   0  0  0  0  0  0  0  0  0  0  0  0
   91.3190   96.2660  -45.5280 O   0  0  0  0  0  0  0  0  0  0  0  0
   91.1080   94.8760  -45.3240 C   0  0  0  0  0  2  0  0  0  0  0  0
   91.7370   94.4660  -44.0240 C   0  0  0  0  0  0  0  0  0  0  0  0
   92.5480   93.3340  -43.9610 C   0  0  0  0  0  3  0  0  0  0  0  0
   93.1440   92.9280  -42.7980 C   0  0  0  0  0  3  0  0  0  0  0  0
   92.9340   93.6690  -41.6380 C   0  0  0  0  0  3  0  0  0  0  0  0
   92.1310   94.7860  -41.7050 C   0  0  0  0  0  3  0  0  0  0  0  0
   91.5280   95.1920  -42.8980 C   0  0  0  0  0  3  0  0  0  0  0  0
   92.2210  101.0440  -41.7350 C   0  0  0  0  0  0  0  0  0  0  0  0
   93.1510  101.8090  -42.4490 C   0  0  0  0  0  3  0  0  0  0  0  0
   94.1100  102.5750  -41.8680 C   0  0  0  0  0  3  0  0  0  0  0  0
   94.1850  102.6120  -40.4990 C   0  0  0  0  0  0  0  0  0  0  0  0
   95.5360  103.6930  -39.6490 Br  0  0  0  0  0  0  0  0  0  0  0  0
   93.2850  101.8700  -39.7580 C   0  0  0  0  0  3  0  0  0  0  0  0
   92.3170  101.0970  -40.3710 C   0  0  0  0  0  3  0  0  0  0  0  0
  1 23  1  0  0  0  0
  2  3  2  0  0  0  0
  2  1  1  0  0  0  0
  4  8  1  6  0  0  0
  4  2  1  0  0  0  0
  5  4  1  0  0  0  0
  6  5  1  0  0  0  0
  7  6  1  0  0  0  0
  7  8  2  0  0  0  0
  8  9  1  0  0  0  0
  9  1  1  0  0  0  0
 10  9  2  0  0  0  0
 11  5  1  0  0  0  0
 12  6  1  0  0  0  0
 13 15  1  0  0  0  0
 13  7  1  0  0  0  0
 14 13  2  0  0  0  0
 15 16  1  0  0  0  0
 16 17  1  0  0  0  0
 17 18  2  0  0  0  0
 17 22  1  0  0  0  0
 18 19  1  0  0  0  0
 19 20  2  0  0  0  0
 21 20  1  0  0  0  0
 22 21  2  0  0  0  0
 23 29  1  0  0  0  0
 24 25  1  0  0  0  0
 24 23  2  0  0  0  0
 25 26  2  0  0  0  0
 26 28  1  0  0  0  0
 26 27  1  0  0  0  0
 29 28  2  0  0  0  0
M  END
>  <Pose>
1

>  <Score>
-6.744

$$$$
