/Users/jonathanwahrer/Desktop/Msc/3_Semester/Drug_Design_Praktikum/waehrer_HTS_screening/HTS_experiment/out/docking_results/vina_output/4agl/0428_docked.pdbqt
 OpenBabel03202223253D

 28 31  0  0  1  0  0  0  0  0999 V2000
   90.6980   98.2460  -45.1580 N   0  0  0  0  0  0  0  0  0  0  0  0
   91.6520   99.0350  -45.8930 C   0  0  0  0  0  0  0  0  0  0  0  0
   92.8430   98.6310  -45.9980 O   0  0  0  0  0  0  0  0  0  0  0  0
   91.1880  100.2380  -46.4630 N   0  0  0  0  0  2  0  0  0  0  0  0
   89.9970  100.6630  -46.3710 C   0  0  0  0  0  0  0  0  0  0  0  0
   88.8830   99.9900  -45.6590 C   0  0  1  0  0  0  0  0  0  0  0  0
   88.3120  100.9510  -44.6740 C   0  0  0  0  0  2  0  0  0  0  0  0
   86.9420  100.7970  -44.3400 N   0  0  0  0  0  4  0  0  0  0  0  0
   86.3290   99.6080  -44.7830 C   0  0  0  0  0  0  0  0  0  0  0  0
   86.7250   99.0100  -45.9860 C   0  0  0  0  0  0  0  0  0  0  0  0
   86.1190   97.8570  -46.3980 C   0  0  0  0  0  3  0  0  0  0  0  0
   85.1190   97.2260  -45.6930 C   0  0  0  0  0  0  0  0  0  0  0  0
   84.7330   97.8180  -44.5090 C   0  0  0  0  0  3  0  0  0  0  0  0
   85.3300   98.9900  -44.0630 C   0  0  0  0  0  3  0  0  0  0  0  0
   84.4860   95.9750  -46.1720 C   0  0  0  0  0  1  0  0  0  0  0  0
   87.8060   99.7230  -46.7150 C   0  0  0  0  0  2  0  0  0  0  0  0
   86.1370  101.9660  -44.7320 C   0  0  0  0  0  1  0  0  0  0  0  0
   89.3620   98.7270  -45.0560 C   0  0  0  0  0  0  0  0  0  0  0  0
   88.5680   97.9820  -44.3910 O   0  0  0  0  0  0  0  0  0  0  0  0
   89.6690  101.8860  -46.9940 O   0  0  0  0  0  0  0  0  0  0  0  0
   86.8730  100.7870  -43.2790 H   0  0  0  0  0  0  0  0  0  0  0  0
   91.0900   97.0210  -44.5560 C   0  0  0  0  0  0  0  0  0  0  0  0
   91.3980   97.0320  -43.2140 C   0  0  0  0  0  3  0  0  0  0  0  0
   91.7930   95.8800  -42.5440 C   0  0  0  0  0  3  0  0  0  0  0  0
   91.8810   94.6990  -43.2300 C   0  0  0  0  0  0  0  0  0  0  0  0
   92.4230   93.1240  -42.3020 Br  0  0  0  0  0  0  0  0  0  0  0  0
   91.5760   94.6610  -44.5820 C   0  0  0  0  0  3  0  0  0  0  0  0
   91.1850   95.8220  -45.2270 C   0  0  0  0  0  3  0  0  0  0  0  0
  1 18  1  0  0  0  0
  1 22  1  0  0  0  0
  2  1  1  0  0  0  0
  3  2  2  0  0  0  0
  4  5  1  0  0  0  0
  4  2  1  0  0  0  0
  5  6  1  0  0  0  0
  6 16  1  6  0  0  0
  6 18  1  0  0  0  0
  6  7  1  0  0  0  0
  7  8  1  0  0  0  0
  8 21  1  0  0  0  0
  9  8  1  0  0  0  0
  9 14  1  0  0  0  0
 10  9  2  0  0  0  0
 11 10  1  0  0  0  0
 11 12  2  0  0  0  0
 12 13  1  0  0  0  0
 13 14  2  0  0  0  0
 15 12  1  0  0  0  0
 16 10  1  0  0  0  0
 17  8  1  0  0  0  0
 18 19  2  0  0  0  0
 20  5  2  0  0  0  0
 22 23  1  0  0  0  0
 23 24  2  0  0  0  0
 25 24  1  0  0  0  0
 25 26  1  0  0  0  0
 27 25  2  0  0  0  0
 28 27  1  0  0  0  0
 28 22  2  0  0  0  0
M  END
>  <Pose>
1

>  <Score>
-6.170

$$$$
