/Users/jonathanwahrer/Desktop/Msc/3_Semester/Drug_Design_Praktikum/waehrer_HTS_screening/HTS_experiment/out/docking_results/vina_output/4agl/0429_docked.pdbqt
 OpenBabel03202223263D

 36 39  0  0  0  0  0  0  0  0999 V2000
   91.4730   96.2550  -43.7550 N   0  0  0  0  0  0  0  0  0  0  0  0
   91.8080   95.9940  -42.3910 C   0  0  0  0  0  0  0  0  0  0  0  0
   91.8440   96.9870  -41.5960 O   0  0  0  0  0  0  0  0  0  0  0  0
   92.0840   94.6680  -41.9760 N   0  0  0  0  0  0  0  0  0  0  0  0
   92.0490   93.5420  -42.8480 C   0  0  0  0  0  0  0  0  0  0  0  0
   92.3000   92.3710  -42.4490 O   0  0  0  0  0  0  0  0  0  0  0  0
   91.7060   93.7750  -44.2630 C   0  0  0  0  0  0  0  0  0  0  0  0
   91.6590   92.7700  -45.1230 C   0  0  0  0  0  3  0  0  0  0  0  0
   91.4270   95.1510  -44.6570 C   0  0  0  0  0  0  0  0  0  0  0  0
   91.1300   95.3990  -45.8540 O   0  0  0  0  0  0  0  0  0  0  0  0
   92.3250   94.5200  -40.9690 H   0  0  0  0  0  0  0  0  0  0  0  0
   91.3260   93.0260  -46.4800 N   0  0  0  0  0  0  0  0  0  0  0  0
   90.6000   93.7780  -46.6330 H   0  0  0  0  0  0  0  0  0  0  0  0
   91.8700   92.3750  -47.5750 N   0  0  0  0  0  0  0  0  0  0  0  0
   92.7900   92.7760  -47.9200 H   0  0  0  0  0  0  0  0  0  0  0  0
   91.2810   91.2550  -48.2250 C   0  0  0  0  0  0  0  0  0  0  0  0
   91.8500   90.0530  -48.3550 N   0  0  0  0  0  0  0  0  0  0  0  0
   91.0190   89.2310  -49.0160 C   0  0  0  0  0  0  0  0  0  0  0  0
   93.1640   89.5950  -47.8890 C   0  0  0  0  0  1  0  0  0  0  0  0
   89.8740   89.9580  -49.3140 C   0  0  0  0  0  0  0  0  0  0  0  0
   91.0510   87.9280  -49.4330 C   0  0  0  0  0  0  0  0  0  0  0  0
   90.0860   91.1740  -48.8120 N   0  0  0  0  0  0  0  0  0  0  0  0
   88.8420   89.4090  -49.9800 N   0  0  0  0  0  0  0  0  0  0  0  0
   88.9270   88.1350  -50.3620 C   0  0  0  0  0  0  0  0  0  0  0  0
   87.6940   90.2220  -50.2510 C   0  0  0  0  0  1  0  0  0  0  0  0
   87.9760   87.5790  -50.9920 O   0  0  0  0  0  0  0  0  0  0  0  0
   90.0190   87.3660  -50.1040 N   0  0  0  0  0  0  0  0  0  0  0  0
   90.0620   85.9920  -50.5370 C   0  0  0  0  0  1  0  0  0  0  0  0
   92.0560   87.2260  -49.1950 O   0  0  0  0  0  0  0  0  0  0  0  0
   91.2020   97.5660  -44.1630 C   0  0  0  0  0  0  0  0  0  0  0  0
   92.2300   98.3780  -44.5980 C   0  0  0  0  0  3  0  0  0  0  0  0
   92.0110   99.6770  -45.0130 C   0  0  0  0  0  3  0  0  0  0  0  0
   90.7320  100.2100  -45.0020 C   0  0  0  0  0  0  0  0  0  0  0  0
   90.4150  102.0090  -45.5720 Br  0  0  0  0  0  0  0  0  0  0  0  0
   89.7220   99.3810  -44.5630 C   0  0  0  0  0  3  0  0  0  0  0  0
   89.9230   98.0810  -44.1460 C   0  0  0  0  0  3  0  0  0  0  0  0
  1  2  1  0  0  0  0
  2  4  1  0  0  0  0
  2  3  2  0  0  0  0
  4 11  1  0  0  0  0
  5  6  2  0  0  0  0
  5  4  1  0  0  0  0
  7  5  1  0  0  0  0
  8  7  2  0  0  0  0
  9  7  1  0  0  0  0
  9  1  1  0  0  0  0
 10  9  2  0  0  0  0
 12  8  1  0  0  0  0
 13 12  1  0  0  0  0
 14 12  1  0  0  0  0
 15 14  1  0  0  0  0
 16 14  1  0  0  0  0
 17 16  1  0  0  0  0
 17 19  1  0  0  0  0
 18 17  1  0  0  0  0
 20 18  2  0  0  0  0
 20 22  1  0  0  0  0
 21 29  2  0  0  0  0
 21 18  1  0  0  0  0
 22 16  2  0  0  0  0
 23 20  1  0  0  0  0
 24 27  1  0  0  0  0
 24 23  1  0  0  0  0
 25 23  1  0  0  0  0
 26 24  2  0  0  0  0
 27 21  1  0  0  0  0
 28 27  1  0  0  0  0
 30 36  1  0  0  0  0
 30  1  1  0  0  0  0
 31 30  2  0  0  0  0
 32 33  2  0  0  0  0
 32 31  1  0  0  0  0
 33 35  1  0  0  0  0
 34 33  1  0  0  0  0
 35 36  2  0  0  0  0
M  END
>  <Pose>
1

>  <Score>
-7.951

$$$$
