/Users/jonathanwahrer/Desktop/Msc/3_Semester/Drug_Design_Praktikum/waehrer_HTS_screening/HTS_experiment/out/docking_results/vina_output/4agl/0436_docked.pdbqt
 OpenBabel03202223263D

 29 32  0  0  0  0  0  0  0  0999 V2000
   90.8350   97.0110  -44.5900 N   0  0  0  0  0  0  0  0  0  0  0  0
   91.9160   97.7650  -43.9870 C   0  0  0  0  0  2  0  0  0  0  0  0
   91.5010   99.1530  -43.5600 C   0  0  0  0  0  2  0  0  0  0  0  0
   90.1440   99.0130  -42.8540 C   0  0  0  0  0  2  0  0  0  0  0  0
   89.2130   98.6840  -43.9020 N   0  0  0  0  0  0  0  0  0  0  0  0
   89.5900   97.6800  -44.7500 C   0  0  0  0  0  0  0  0  0  0  0  0
   88.6180   97.5040  -45.6590 N   0  0  0  0  0  0  0  0  0  0  0  0
   87.6450   98.4020  -45.3640 C   0  0  0  0  0  0  0  0  0  0  0  0
   88.0110   99.1510  -44.2560 C   0  0  0  0  0  0  0  0  0  0  0  0
   87.1780  100.1350  -43.7630 C   0  0  0  0  0  0  0  0  0  0  0  0
   87.5520  100.8020  -42.7410 O   0  0  0  0  0  0  0  0  0  0  0  0
   85.9990  100.3650  -44.3680 N   0  0  0  0  0  0  0  0  0  0  0  0
   85.6680   99.6240  -45.4410 C   0  0  0  0  0  0  0  0  0  0  0  0
   84.5550   99.8720  -45.9770 O   0  0  0  0  0  0  0  0  0  0  0  0
   86.4570   98.6690  -45.9340 N   0  0  0  0  0  0  0  0  0  0  0  0
   86.0670   97.8870  -47.0970 C   0  0  0  0  0  1  0  0  0  0  0  0
   91.0630   95.6730  -44.9830 C   0  0  0  0  0  0  0  0  0  0  0  0
   91.7500   94.7530  -44.2250 C   0  0  0  0  0  3  0  0  0  0  0  0
   91.9230   93.4520  -44.6990 C   0  0  0  0  0  3  0  0  0  0  0  0
   91.4150   93.0630  -45.9210 C   0  0  0  0  0  0  0  0  0  0  0  0
   91.6310   91.3140  -46.5910 Br  0  0  0  0  0  0  0  0  0  0  0  0
   90.7250   93.9810  -46.6870 C   0  0  0  0  0  3  0  0  0  0  0  0
   90.5710   95.2500  -46.1970 C   0  0  0  0  0  3  0  0  0  0  0  0
   85.1140  101.3970  -43.8570 C   0  0  0  0  0  2  0  0  0  0  0  0
   84.4360  100.8770  -42.6240 C   0  0  0  0  0  0  0  0  0  0  0  0
   83.5910   99.9550  -42.7030 O   0  0  0  0  0  0  0  0  0  0  0  0
   84.7270  101.4060  -41.3460 N   0  0  0  0  0  0  0  0  0  0  0  0
   84.7590  100.8150  -40.4840 H   0  0  0  0  0  0  0  0  0  0  0  0
   84.9260  102.4280  -41.2100 H   0  0  0  0  0  0  0  0  0  0  0  0
  1  2  1  0  0  0  0
  2  3  1  0  0  0  0
  3  4  1  0  0  0  0
  5  4  1  0  0  0  0
  6  1  1  0  0  0  0
  6  5  1  0  0  0  0
  7  8  1  0  0  0  0
  7  6  2  0  0  0  0
  8  9  2  0  0  0  0
  9  5  1  0  0  0  0
  9 10  1  0  0  0  0
 10 11  2  0  0  0  0
 12 24  1  0  0  0  0
 12 10  1  0  0  0  0
 13 12  1  0  0  0  0
 14 13  2  0  0  0  0
 15 13  1  0  0  0  0
 15  8  1  0  0  0  0
 16 15  1  0  0  0  0
 17  1  1  0  0  0  0
 17 18  1  0  0  0  0
 19 18  2  0  0  0  0
 20 19  1  0  0  0  0
 21 20  1  0  0  0  0
 22 23  1  0  0  0  0
 22 20  2  0  0  0  0
 23 17  2  0  0  0  0
 24 25  1  0  0  0  0
 25 27  1  0  0  0  0
 26 25  2  0  0  0  0
 27 29  1  0  0  0  0
 27 28  1  0  0  0  0
M  END
>  <Pose>
1

>  <Score>
-6.858

$$$$
