/Users/jonathanwahrer/Desktop/Msc/3_Semester/Drug_Design_Praktikum/waehrer_HTS_screening/HTS_experiment/out/docking_results/vina_output/4agl/0439_docked.pdbqt
 OpenBabel03202223263D

 28 32  0  0  1  0  0  0  0  0999 V2000
   91.0760   97.6180  -44.2210 N   0  0  0  0  0  0  0  0  0  0  0  0
   90.1200   98.1480  -43.4640 N   0  0  0  0  0  0  0  0  0  0  0  0
   90.3830   99.4440  -43.2130 C   0  0  0  0  0  0  0  0  0  0  0  0
   89.6370  100.2710  -42.4910 C   0  0  0  0  0  1  0  0  0  0  0  0
   91.5670   99.7800  -43.8360 C   0  0  0  0  0  0  0  0  0  0  0  0
   91.9660   98.6050  -44.4560 C   0  0  0  0  0  0  0  0  0  0  0  0
   93.0120   98.4950  -45.1350 O   0  0  0  0  0  0  0  0  0  0  0  0
   89.2880   97.6330  -43.1150 H   0  0  0  0  0  0  0  0  0  0  0  0
   92.1970  100.9580  -43.8490 C   0  0  0  0  0  2  0  0  0  0  0  0
   93.3690  101.0940  -43.0550 N   0  0  0  0  0  0  0  0  0  0  0  0
   94.2350  100.6490  -43.3920 H   0  0  0  0  0  0  0  0  0  0  0  0
   93.3740  101.8230  -41.8190 C   0  0  1  0  0  0  0  0  0  0  0  0
   94.7590  102.2620  -41.4650 C   0  0  0  0  0  2  0  0  0  0  0  0
   94.7070  103.0780  -40.2610 N   0  0  1  0  0  0  0  0  0  0  0  0
   93.8640  104.2330  -40.5440 C   0  0  0  0  0  2  0  0  0  0  0  0
   94.1610  102.2940  -39.1820 C   0  0  0  0  0  2  0  0  0  0  0  0
   92.5020  103.8460  -40.8220 N   0  0  2  0  0  0  0  0  0  0  0  0
   91.9940  103.0320  -39.7230 C   0  0  0  0  0  2  0  0  0  0  0  0
   92.4670  103.0420  -42.0150 C   0  0  0  0  0  2  0  0  0  0  0  0
   92.8170  101.8660  -39.4940 N   0  0  1  0  0  0  0  0  0  0  0  0
   92.8250  101.0200  -40.6630 C   0  0  0  0  0  2  0  0  0  0  0  0
   91.1680   96.2820  -44.7020 C   0  0  0  0  0  0  0  0  0  0  0  0
   91.8210   95.3220  -43.9580 C   0  0  0  0  0  3  0  0  0  0  0  0
   91.9300   94.0050  -44.3990 C   0  0  0  0  0  3  0  0  0  0  0  0
   91.3850   93.6370  -45.5920 C   0  0  0  0  0  0  0  0  0  0  0  0
   91.5070   91.8330  -46.2480 Br  0  0  0  0  0  0  0  0  0  0  0  0
   90.7230   94.5790  -46.3620 C   0  0  0  0  0  3  0  0  0  0  0  0
   90.6290   95.8730  -45.9030 C   0  0  0  0  0  3  0  0  0  0  0  0
  1  2  1  0  0  0  0
  2  3  1  0  0  0  0
  2  8  1  0  0  0  0
  3  4  1  0  0  0  0
  5  3  2  0  0  0  0
  6  1  1  0  0  0  0
  6  5  1  0  0  0  0
  7  6  2  0  0  0  0
  9  5  1  0  0  0  0
  9 10  1  0  0  0  0
 11 10  1  0  0  0  0
 12 10  1  6  0  0  0
 12 13  1  0  0  0  0
 12 21  1  0  0  0  0
 14 13  1  6  0  0  0
 14 16  1  0  0  0  0
 15 14  1  0  0  0  0
 17 19  1  6  0  0  0
 17 15  1  0  0  0  0
 17 18  1  0  0  0  0
 18 20  1  0  0  0  0
 19 12  1  0  0  0  0
 20 21  1  6  0  0  0
 20 16  1  0  0  0  0
 22  1  1  0  0  0  0
 22 23  1  0  0  0  0
 24 23  2  0  0  0  0
 25 24  1  0  0  0  0
 26 25  1  0  0  0  0
 27 28  1  0  0  0  0
 27 25  2  0  0  0  0
 28 22  2  0  0  0  0
M  END
>  <Pose>
1

>  <Score>
-6.296

$$$$
