/Users/jonathanwahrer/Desktop/Msc/3_Semester/Drug_Design_Praktikum/waehrer_HTS_screening/HTS_experiment/out/docking_results/vina_output/4agl/0454_docked.pdbqt
 OpenBabel03202223273D

 21 25  0  0  1  0  0  0  0  0999 V2000
   91.6000   97.3500  -44.1350 C   0  0  0  0  0  2  0  0  0  0  0  0
   91.4660   95.9110  -44.3650 C   0  0  0  0  0  0  0  0  0  0  0  0
   91.7100   95.0540  -43.2790 C   0  0  0  0  0  0  0  0  0  0  0  0
   92.0400   95.6810  -41.5010 Br  0  0  0  0  0  0  0  0  0  0  0  0
   91.7180   93.6990  -43.5530 C   0  0  0  0  0  3  0  0  0  0  0  0
   91.4880   93.2310  -44.8310 C   0  0  0  0  0  0  0  0  0  0  0  0
   91.2460   94.0410  -45.9160 C   0  0  0  0  0  0  0  0  0  0  0  0
   91.4620   91.8790  -45.2910 O   0  0  0  0  0  0  0  0  0  0  0  0
   91.2420   95.3800  -45.6380 C   0  0  0  0  0  3  0  0  0  0  0  0
   91.0860   93.1750  -46.9850 O   0  0  0  0  0  0  0  0  0  0  0  0
   91.8500   91.9710  -46.6950 C   0  0  0  0  0  2  0  0  0  0  0  0
   90.4670   98.1780  -44.1420 N   0  0  2  0  0  4  0  0  0  0  0  0
   90.9690   99.3330  -44.9690 C   0  0  0  0  0  2  0  0  0  0  0  0
   90.1670  100.4820  -44.9200 N   0  0  2  0  0  0  0  0  0  0  0  0
   90.0440  100.8640  -43.5250 C   0  0  0  0  0  2  0  0  0  0  0  0
   88.8850  100.1090  -45.5290 C   0  0  0  0  0  2  0  0  0  0  0  0
   89.3280   99.8080  -42.8540 N   0  0  2  0  0  0  0  0  0  0  0  0
   90.1030   98.6110  -42.7940 C   0  0  0  0  0  2  0  0  0  0  0  0
   88.0350   99.4890  -43.4710 C   0  0  0  0  0  2  0  0  0  0  0  0
   88.3140   98.9950  -44.8100 N   0  0  2  0  0  0  0  0  0  0  0  0
   89.2320   97.8370  -44.7770 C   0  0  0  0  0  2  0  0  0  0  0  0
  2  1  1  0  0  0  0
  2  3  1  0  0  0  0
  3  4  1  0  0  0  0
  5  3  2  0  0  0  0
  6  5  1  0  0  0  0
  7  9  1  0  0  0  0
  7  6  2  0  0  0  0
  8  6  1  0  0  0  0
  9  2  2  0  0  0  0
 10 11  1  0  0  0  0
 10  7  1  0  0  0  0
 11  8  1  0  0  0  0
 12  1  1  1  0  0  0
 12 18  1  0  0  0  0
 13 14  1  0  0  0  0
 13 12  1  0  0  0  0
 14 16  1  1  0  0  0
 14 15  1  0  0  0  0
 17 15  1  6  0  0  0
 17 18  1  0  0  0  0
 19 17  1  0  0  0  0
 20 16  1  6  0  0  0
 20 21  1  0  0  0  0
 20 19  1  0  0  0  0
 21 12  1  0  0  0  0
M  END
>  <Pose>
1

>  <Score>
-5.566

$$$$
