/Users/jonathanwahrer/Desktop/Msc/3_Semester/Drug_Design_Praktikum/waehrer_HTS_screening/HTS_experiment/out/docking_results/vina_output/4agl/0469_docked.pdbqt
 OpenBabel03202223283D

 32 36  0  0  0  0  0  0  0  0999 V2000
   90.8300  100.6650  -42.2170 N   0  0  0  0  0  0  0  0  0  0  0  0
   92.0210  100.4760  -42.8990 C   0  0  0  0  0  2  0  0  0  0  0  0
   92.1920   99.3280  -43.8170 C   0  0  0  0  0  2  0  0  0  0  0  0
   91.1980   98.3380  -43.5160 N   0  0  0  0  0  0  0  0  0  0  0  0
   89.8460   98.8370  -43.5420 C   0  0  0  0  0  2  0  0  0  0  0  0
   89.7240   99.8080  -42.3970 C   0  0  0  0  0  2  0  0  0  0  0  0
   90.4820  102.0330  -41.9120 C   0  0  0  0  0  2  0  0  0  0  0  0
   91.6340  102.7670  -41.2630 C   0  0  0  0  0  0  0  0  0  0  0  0
   92.0830  102.2950  -40.0120 N   0  0  0  0  0  0  0  0  0  0  0  0
   91.5820  101.4460  -39.6010 H   0  0  0  0  0  0  0  0  0  0  0  0
   92.1010  103.7370  -41.8830 O   0  0  0  0  0  0  0  0  0  0  0  0
   93.1430  102.8540  -39.2580 C   0  0  0  0  0  0  0  0  0  0  0  0
   92.8300  103.4490  -38.0270 C   0  0  0  0  0  0  0  0  0  0  0  0
   91.0180  103.4630  -37.4600 Br  0  0  0  0  0  0  0  0  0  0  0  0
   93.8300  104.0050  -37.2650 C   0  0  0  0  0  3  0  0  0  0  0  0
   95.1310  104.0000  -37.6610 C   0  0  0  0  0  0  0  0  0  0  0  0
   95.4700  103.4220  -38.8660 C   0  0  0  0  0  0  0  0  0  0  0  0
   96.1720  104.5490  -36.9250 O   0  0  0  0  0  0  0  0  0  0  0  0
   94.4680  102.8510  -39.6580 C   0  0  0  0  0  3  0  0  0  0  0  0
   96.7880  103.4290  -39.2440 O   0  0  0  0  0  0  0  0  0  0  0  0
   97.7380  104.3600  -38.7860 C   0  0  0  0  0  2  0  0  0  0  0  0
   97.2600  105.1690  -37.6230 C   0  0  0  0  0  2  0  0  0  0  0  0
   91.4270   96.9870  -43.2100 C   0  0  0  0  0  0  0  0  0  0  0  0
   91.6580   96.5250  -41.9550 N   0  0  0  0  0  0  0  0  0  0  0  0
   91.8730   95.2230  -41.6920 C   0  0  0  0  0  3  0  0  0  0  0  0
   91.8690   94.3070  -42.6760 N   0  0  0  0  0  0  0  0  0  0  0  0
   91.6480   94.6750  -43.9540 C   0  0  0  0  0  0  0  0  0  0  0  0
   91.5880   93.9850  -45.1220 N   0  0  0  0  0  0  0  0  0  0  0  0
   91.4300   96.0060  -44.2060 C   0  0  0  0  0  0  0  0  0  0  0  0
   91.3390   94.8770  -46.0640 N   0  0  0  0  0  0  0  0  0  0  0  0
   91.7680   92.5400  -45.2730 C   0  0  0  0  0  1  0  0  0  0  0  0
   91.2350   96.1110  -45.5650 C   0  0  0  0  0  3  0  0  0  0  0  0
  1  7  1  0  0  0  0
  2  1  1  0  0  0  0
  3  4  1  0  0  0  0
  3  2  1  0  0  0  0
  4 23  1  0  0  0  0
  5  4  1  0  0  0  0
  5  6  1  0  0  0  0
  6  1  1  0  0  0  0
  7  8  1  0  0  0  0
  8  9  1  0  0  0  0
  9 10  1  0  0  0  0
  9 12  1  0  0  0  0
 11  8  2  0  0  0  0
 12 13  1  0  0  0  0
 13 14  1  0  0  0  0
 13 15  2  0  0  0  0
 16 15  1  0  0  0  0
 16 18  1  0  0  0  0
 17 16  2  0  0  0  0
 19 12  2  0  0  0  0
 19 17  1  0  0  0  0
 20 17  1  0  0  0  0
 20 21  1  0  0  0  0
 21 22  1  0  0  0  0
 22 18  1  0  0  0  0
 23 24  1  0  0  0  0
 24 25  2  0  0  0  0
 26 25  1  0  0  0  0
 27 26  2  0  0  0  0
 28 27  1  0  0  0  0
 29 27  1  0  0  0  0
 29 23  2  0  0  0  0
 30 32  2  0  0  0  0
 30 28  1  0  0  0  0
 31 28  1  0  0  0  0
 32 29  1  0  0  0  0
M  END
>  <Pose>
1

>  <Score>
-6.599

$$$$
