/Users/jonathanwahrer/Desktop/Msc/3_Semester/Drug_Design_Praktikum/waehrer_HTS_screening/HTS_experiment/out/docking_results/vina_output/4agl/0473_docked.pdbqt
 OpenBabel03202223293D

 29 32  0  0  0  0  0  0  0  0999 V2000
   91.9290  101.0160  -43.8740 C   0  0  0  0  0  2  0  0  0  0  0  0
   92.2150   99.5980  -43.4660 C   0  0  0  0  0  2  0  0  0  0  0  0
   90.9540   98.8170  -43.4440 C   0  0  0  0  0  2  0  0  0  0  0  0
   91.1150   97.4430  -43.8670 N   0  0  0  0  0  0  0  0  0  0  0  0
   91.5240   96.4050  -42.9890 C   0  0  0  0  0  0  0  0  0  0  0  0
   91.5800   95.1660  -43.7450 C   0  0  0  0  0  0  0  0  0  0  0  0
   91.8050   96.4910  -41.7500 O   0  0  0  0  0  0  0  0  0  0  0  0
   91.2110   95.4650  -45.0420 C   0  0  0  0  0  0  0  0  0  0  0  0
   91.9120   93.8750  -43.3900 C   0  0  0  0  0  3  0  0  0  0  0  0
   91.1900   94.4300  -45.9580 C   0  0  0  0  0  3  0  0  0  0  0  0
   90.9120   96.9010  -45.1480 C   0  0  0  0  0  0  0  0  0  0  0  0
   91.5240   93.1420  -45.5920 C   0  0  0  0  0  0  0  0  0  0  0  0
   91.4720   91.7630  -46.9090 Br  0  0  0  0  0  0  0  0  0  0  0  0
   91.8930   92.8360  -44.2980 C   0  0  0  0  0  3  0  0  0  0  0  0
   90.5450   97.4990  -46.1970 O   0  0  0  0  0  0  0  0  0  0  0  0
   90.9970  101.1470  -45.0160 C   0  0  0  0  0  0  0  0  0  0  0  0
   91.2870  100.8130  -46.1940 O   0  0  0  0  0  0  0  0  0  0  0  0
   89.6720  101.6800  -44.8210 N   0  0  0  0  0  0  0  0  0  0  0  0
   88.7540  101.8100  -45.9290 C   0  0  0  0  0  2  0  0  0  0  0  0
   89.1980  102.1080  -43.5190 C   0  0  0  0  0  2  0  0  0  0  0  0
   87.3670  101.3610  -45.6100 C   0  0  0  0  0  2  0  0  0  0  0  0
   87.1900  100.8910  -44.2570 N   0  0  0  0  0  0  0  0  0  0  0  0
   87.9560  101.3450  -43.1270 C   0  0  0  0  0  2  0  0  0  0  0  0
   86.1810   99.9030  -44.0220 C   0  0  0  0  0  0  0  0  0  0  0  0
   86.4100   98.5820  -44.2510 N   0  0  0  0  0  0  0  0  0  0  0  0
   85.4990   97.6320  -44.0460 C   0  0  0  0  0  3  0  0  0  0  0  0
   84.2470   97.9980  -43.5750 C   0  0  0  0  0  3  0  0  0  0  0  0
   83.9850   99.3050  -43.3370 N   0  0  0  0  0  0  0  0  0  0  0  0
   84.9300  100.2340  -43.5560 C   0  0  0  0  0  3  0  0  0  0  0  0
  1  2  1  0  0  0  0
  2  3  1  0  0  0  0
  4  3  1  0  0  0  0
  4  5  1  0  0  0  0
  5  7  2  0  0  0  0
  6  9  1  0  0  0  0
  6  5  1  0  0  0  0
  8  6  2  0  0  0  0
 10 12  2  0  0  0  0
 10  8  1  0  0  0  0
 11  8  1  0  0  0  0
 11  4  1  0  0  0  0
 12 14  1  0  0  0  0
 13 12  1  0  0  0  0
 14  9  2  0  0  0  0
 15 11  2  0  0  0  0
 16 18  1  0  0  0  0
 16  1  1  0  0  0  0
 17 16  2  0  0  0  0
 18 20  1  0  0  0  0
 19 21  1  0  0  0  0
 19 18  1  0  0  0  0
 20 23  1  0  0  0  0
 21 22  1  0  0  0  0
 22 24  1  0  0  0  0
 22 23  1  0  0  0  0
 24 29  1  0  0  0  0
 25 26  1  0  0  0  0
 25 24  2  0  0  0  0
 26 27  2  0  0  0  0
 27 28  1  0  0  0  0
 29 28  2  0  0  0  0
M  END
>  <Pose>
1

>  <Score>
-6.603

$$$$
