/Users/jonathanwahrer/Desktop/Msc/3_Semester/Drug_Design_Praktikum/waehrer_HTS_screening/HTS_experiment/out/docking_results/vina_output/4agl/0483_docked.pdbqt
 OpenBabel03202223293D

 31 34  0  0  0  0  0  0  0  0999 V2000
   91.4610  102.2910  -43.5080 C   0  0  0  0  0  2  0  0  0  0  0  0
   90.1880  102.9230  -43.1980 C   0  0  0  0  0  0  0  0  0  0  0  0
   89.1430  103.4580  -42.9330 C   0  0  0  0  0  3  0  0  0  0  0  0
   91.3250  100.8480  -43.5030 N   0  0  0  0  0  0  0  0  0  0  0  0
   90.6910   99.9930  -44.4480 C   0  0  0  0  0  0  0  0  0  0  0  0
   90.7980   98.6560  -44.0460 C   0  0  0  0  0  0  0  0  0  0  0  0
   90.0260  100.2740  -45.6320 C   0  0  0  0  0  3  0  0  0  0  0  0
   90.2420   97.6720  -44.8360 C   0  0  0  0  0  3  0  0  0  0  0  0
   91.5290   98.6060  -42.7880 C   0  0  0  0  0  0  0  0  0  0  0  0
   89.5730   97.9680  -46.0290 C   0  0  0  0  0  0  0  0  0  0  0  0
   88.8100   96.6060  -47.1130 Br  0  0  0  0  0  0  0  0  0  0  0  0
   89.4780   99.2790  -46.4060 C   0  0  0  0  0  3  0  0  0  0  0  0
   91.8450  100.0160  -42.4780 C   0  0  0  0  0  0  0  0  0  0  0  0
   91.8380   97.5690  -42.0880 N   0  0  0  0  0  0  0  0  0  0  0  0
   92.4840  100.3230  -41.4340 O   0  0  0  0  0  0  0  0  0  0  0  0
   91.4860   96.2740  -42.4780 N   0  0  0  0  0  0  0  0  0  0  0  0
   92.0730   95.1190  -41.9050 C   0  0  0  0  0  0  0  0  0  0  0  0
   92.9420   95.2560  -41.0140 O   0  0  0  0  0  0  0  0  0  0  0  0
   90.7710   96.1630  -43.2250 H   0  0  0  0  0  0  0  0  0  0  0  0
   91.6700   93.7930  -42.3490 C   0  0  0  0  0  2  0  0  0  0  0  0
   91.6260   93.6650  -43.7930 N   0  0  0  0  0  0  0  0  0  0  0  0
   91.4940   94.6390  -44.6780 N   0  0  0  0  0  2  0  0  0  0  0  0
   91.4960   94.1480  -45.9060 N   0  0  0  0  0  0  0  0  0  0  0  0
   91.6320   92.8130  -45.8190 C   0  0  0  0  0  0  0  0  0  0  0  0
   91.7100   92.5520  -44.5080 N   0  0  0  0  0  2  0  0  0  0  0  0
   91.6790   91.8910  -46.9490 C   0  0  0  0  0  0  0  0  0  0  0  0
   90.7480   91.9890  -47.9600 C   0  0  0  0  0  3  0  0  0  0  0  0
   90.7910   91.1080  -49.0440 C   0  0  0  0  0  3  0  0  0  0  0  0
   91.7500   90.1260  -49.1380 C   0  0  0  0  0  3  0  0  0  0  0  0
   92.6870   90.0260  -48.1240 C   0  0  0  0  0  3  0  0  0  0  0  0
   92.6370   90.9050  -47.0510 C   0  0  0  0  0  3  0  0  0  0  0  0
  1  4  1  0  0  0  0
  1  2  1  0  0  0  0
  2  3  3  0  0  0  0
  4 13  1  0  0  0  0
  5  6  1  0  0  0  0
  5  4  1  0  0  0  0
  6  9  1  0  0  0  0
  7  5  2  0  0  0  0
  8  6  2  0  0  0  0
  9 13  1  0  0  0  0
  9 14  2  0  0  0  0
 10  8  1  0  0  0  0
 11 10  1  0  0  0  0
 12 10  2  0  0  0  0
 12  7  1  0  0  0  0
 13 15  2  0  0  0  0
 16 14  1  0  0  0  0
 16 17  1  0  0  0  0
 17 18  2  0  0  0  0
 19 16  1  0  0  0  0
 20 17  1  0  0  0  0
 21 20  1  0  0  0  0
 22 21  1  0  0  0  0
 23 24  2  0  0  0  0
 23 22  1  0  0  0  0
 24 25  1  0  0  0  0
 25 21  1  0  0  0  0
 26 24  1  0  0  0  0
 27 26  2  0  0  0  0
 28 27  1  0  0  0  0
 29 28  2  0  0  0  0
 29 30  1  0  0  0  0
 30 31  2  0  0  0  0
 31 26  1  0  0  0  0
M  END
>  <Pose>
1

>  <Score>
-7.404

$$$$
