/Users/jonathanwahrer/Desktop/Msc/3_Semester/Drug_Design_Praktikum/waehrer_HTS_screening/HTS_experiment/out/docking_results/vina_output/4agl/0485_docked.pdbqt
 OpenBabel03202223313D

 34 37  0  0  0  0  0  0  0  0999 V2000
   92.4960   93.4390  -44.7230 Br  0  0  0  0  0  0  0  0  0  0  0  0
   91.3960   95.0000  -44.9420 C   0  0  0  0  0  0  0  0  0  0  0  0
   91.5200   96.0890  -44.1090 C   0  0  0  0  0  3  0  0  0  0  0  0
   90.7470   97.2390  -44.2270 C   0  0  0  0  0  0  0  0  0  0  0  0
   89.7930   97.2900  -45.2480 C   0  0  0  0  0  0  0  0  0  0  0  0
   89.6690   96.1990  -46.0830 C   0  0  0  0  0  3  0  0  0  0  0  0
   90.4540   95.0570  -45.9470 C   0  0  0  0  0  3  0  0  0  0  0  0
   89.1030   98.5470  -45.2100 N   0  0  0  0  0  0  0  0  0  0  0  0
   89.6560   99.2840  -44.1280 C   0  0  0  0  0  0  0  0  0  0  0  0
   89.3070  100.4340  -43.7820 O   0  0  0  0  0  0  0  0  0  0  0  0
   90.6900   98.4890  -43.4930 C   0  0  0  0  0  0  0  0  0  0  0  0
   91.4150   98.8170  -42.4830 N   0  0  0  0  0  0  0  0  0  0  0  0
   91.3010  100.0380  -41.8290 N   0  0  0  0  0  0  0  0  0  0  0  0
   92.1830  101.0900  -42.1510 C   0  0  0  0  0  0  0  0  0  0  0  0
   93.0950  100.9520  -43.0390 O   0  0  0  0  0  0  0  0  0  0  0  0
   90.5730  100.1650  -41.1130 H   0  0  0  0  0  0  0  0  0  0  0  0
   92.1330  102.4250  -41.5040 C   0  0  0  0  0  2  0  0  0  0  0  0
   93.1620  102.5330  -40.5210 O   0  0  0  0  0  0  0  0  0  0  0  0
   92.8350  102.8400  -39.2110 C   0  0  0  0  0  0  0  0  0  0  0  0
   93.8280  103.0050  -38.2690 C   0  0  0  0  0  0  0  0  0  0  0  0
   93.4920  103.3140  -36.9550 C   0  0  0  0  0  3  0  0  0  0  0  0
   92.1680  103.4550  -36.5840 C   0  0  0  0  0  3  0  0  0  0  0  0
   91.1970  103.2890  -37.5260 C   0  0  0  0  0  3  0  0  0  0  0  0
   91.5330  102.9810  -38.8350 C   0  0  0  0  0  3  0  0  0  0  0  0
   95.1520  102.8720  -38.6050 O   0  0  0  0  0  0  0  0  0  0  0  0
   95.9030  103.9880  -39.0110 C   0  0  0  0  0  1  0  0  0  0  0  0
   88.0480   98.9430  -46.1280 C   0  0  0  0  0  2  0  0  0  0  0  0
   86.7710   99.1130  -45.5340 N   0  0  0  0  0  0  0  0  0  0  0  0
   85.8220   99.8480  -46.2980 C   0  0  0  0  0  2  0  0  0  0  0  0
   84.5050  100.0440  -45.5420 C   0  0  0  0  0  2  0  0  0  0  0  0
   84.7550   99.6880  -44.1740 N   0  0  0  0  0  0  0  0  0  0  0  0
   85.0420   98.2980  -44.0000 C   0  0  0  0  0  2  0  0  0  0  0  0
   83.7950  100.2190  -43.2500 C   0  0  0  0  0  1  0  0  0  0  0  0
   86.2400   97.9590  -44.8680 C   0  0  0  0  0  2  0  0  0  0  0  0
  2  1  1  0  0  0  0
  2  3  1  0  0  0  0
  4  3  2  0  0  0  0
  4 11  1  0  0  0  0
  5  8  1  0  0  0  0
  5  4  1  0  0  0  0
  6  7  1  0  0  0  0
  6  5  2  0  0  0  0
  7  2  2  0  0  0  0
  8  9  1  0  0  0  0
  9 10  2  0  0  0  0
  9 11  1  0  0  0  0
 11 12  2  0  0  0  0
 12 13  1  0  0  0  0
 13 16  1  0  0  0  0
 14 13  1  0  0  0  0
 14 17  1  0  0  0  0
 15 14  2  0  0  0  0
 17 18  1  0  0  0  0
 18 19  1  0  0  0  0
 19 24  2  0  0  0  0
 19 20  1  0  0  0  0
 20 21  2  0  0  0  0
 21 22  1  0  0  0  0
 23 22  2  0  0  0  0
 24 23  1  0  0  0  0
 25 20  1  0  0  0  0
 26 25  1  0  0  0  0
 27 28  1  0  0  0  0
 27  8  1  0  0  0  0
 28 34  1  0  0  0  0
 29 30  1  0  0  0  0
 29 28  1  0  0  0  0
 30 31  1  0  0  0  0
 31 32  1  0  0  0  0
 31 33  1  0  0  0  0
 34 32  1  0  0  0  0
M  END
>  <Pose>
1

>  <Score>
-6.157

$$$$
