/Users/jonathanwahrer/Desktop/Msc/3_Semester/Drug_Design_Praktikum/waehrer_HTS_screening/HTS_experiment/out/docking_results/vina_output/4agl/0500_docked.pdbqt
 OpenBabel03202223313D

 32 35  0  0  1  0  0  0  0  0999 V2000
   94.6960  102.2020  -40.3770 Br  0  0  0  0  0  0  0  0  0  0  0  0
   93.0510  101.6930  -41.2390 C   0  0  0  0  0  0  0  0  0  0  0  0
   92.9910  101.1740  -42.4990 C   0  0  0  0  0  3  0  0  0  0  0  0
   91.7960  100.8530  -43.0890 C   0  0  0  0  0  0  0  0  0  0  0  0
   90.6600  101.0710  -42.3630 C   0  0  0  0  0  0  0  0  0  0  0  0
   90.6940  101.5990  -41.0660 C   0  0  0  0  0  3  0  0  0  0  0  0
   91.9030  101.9200  -40.4830 C   0  0  0  0  0  3  0  0  0  0  0  0
   89.5030  100.7350  -43.1040 N   0  0  0  0  0  0  0  0  0  0  0  0
   89.9260  100.2880  -44.3540 C   0  0  0  0  0  0  0  0  0  0  0  0
   89.1400   99.9270  -45.2690 O   0  0  0  0  0  0  0  0  0  0  0  0
   91.4340  100.3120  -44.4110 C   0  0  2  0  0  0  0  0  0  0  0  0
   91.8180   98.9360  -44.6860 C   0  0  0  0  0  0  0  0  0  0  0  0
   92.4110   98.6130  -45.8680 C   0  0  0  0  0  0  0  0  0  0  0  0
   92.6390   97.2710  -45.8340 N   0  0  0  0  0  0  0  0  0  0  0  0
   92.2110   96.7870  -44.6970 N   0  0  0  0  0  0  0  0  0  0  0  0
   91.6840   97.7640  -43.9240 C   0  0  0  0  0  0  0  0  0  0  0  0
   92.6870   99.5660  -46.8690 O   0  0  0  0  0  0  0  0  0  0  0  0
   92.3210  100.8710  -46.6030 C   0  0  0  0  0  0  0  0  0  0  0  0
   91.7480  101.2370  -45.4910 C   0  0  0  0  0  0  0  0  0  0  0  0
   91.3910  102.6470  -45.3060 C   0  0  0  0  0  0  0  0  0  0  0  0
   91.1310  103.7510  -45.1520 N   0  0  0  0  0  0  0  0  0  0  0  0
   88.1060  100.8370  -42.6360 C   0  0  0  0  0  1  0  0  0  0  0  0
   92.2500   95.7750  -44.3770 H   0  0  0  0  0  0  0  0  0  0  0  0
   92.6020  101.8510  -47.6310 N   0  0  0  0  0  0  0  0  0  0  0  0
   93.4710  101.8570  -48.1920 H   0  0  0  0  0  0  0  0  0  0  0  0
   91.8910  102.5780  -47.8060 H   0  0  0  0  0  0  0  0  0  0  0  0
   91.1260   97.5660  -42.5620 C   0  0  0  0  0  2  0  0  0  0  0  0
   91.8720   96.5310  -41.8160 C   0  0  0  0  0  0  0  0  0  0  0  0
   92.5680   96.7330  -40.7880 O   0  0  0  0  0  0  0  0  0  0  0  0
   91.7990   95.2380  -42.2850 O   0  0  0  0  0  0  0  0  0  0  0  0
   91.8460   94.0690  -41.5110 C   0  0  0  0  0  2  0  0  0  0  0  0
   93.2280   93.4640  -41.5850 C   0  0  0  0  0  1  0  0  0  0  0  0
  2  7  1  0  0  0  0
  2  1  1  0  0  0  0
  3  2  2  0  0  0  0
  4  3  1  0  0  0  0
  4  5  2  0  0  0  0
  5  6  1  0  0  0  0
  6  7  2  0  0  0  0
  8 22  1  0  0  0  0
  8  5  1  0  0  0  0
  9  8  1  0  0  0  0
 10  9  2  0  0  0  0
 11 19  1  6  0  0  0
 11  9  1  0  0  0  0
 11  4  1  0  0  0  0
 12 11  1  0  0  0  0
 12 16  2  0  0  0  0
 13 14  2  0  0  0  0
 13 12  1  0  0  0  0
 14 15  1  0  0  0  0
 15 23  1  0  0  0  0
 15 16  1  0  0  0  0
 16 27  1  0  0  0  0
 17 18  1  0  0  0  0
 17 13  1  0  0  0  0
 18 19  2  0  0  0  0
 19 20  1  0  0  0  0
 20 21  3  0  0  0  0
 24 18  1  0  0  0  0
 25 24  1  0  0  0  0
 26 24  1  0  0  0  0
 27 28  1  0  0  0  0
 28 29  2  0  0  0  0
 30 28  1  0  0  0  0
 30 31  1  0  0  0  0
 32 31  1  0  0  0  0
M  END
>  <Pose>
1

>  <Score>
-6.433

$$$$
