/Users/jonathanwahrer/Desktop/Msc/3_Semester/Drug_Design_Praktikum/waehrer_HTS_screening/HTS_experiment/out/docking_results/vina_output/4agl/0504_docked.pdbqt
 OpenBabel03202223313D

 29 32  0  0  1  0  0  0  0  0999 V2000
   85.5340   99.1480  -43.9820 Br  0  0  0  0  0  0  0  0  0  0  0  0
   87.1540   99.3720  -44.9490 C   0  0  0  0  0  0  0  0  0  0  0  0
   88.3940   99.2830  -44.3650 C   0  0  0  0  0  3  0  0  0  0  0  0
   89.5370   99.4590  -45.1440 C   0  0  0  0  0  0  0  0  0  0  0  0
   89.4950   99.7180  -46.4730 C   0  0  0  0  0  0  0  0  0  0  0  0
   88.2340   99.8080  -47.0670 C   0  0  0  0  0  3  0  0  0  0  0  0
   87.0950   99.6370  -46.3130 C   0  0  0  0  0  3  0  0  0  0  0  0
   90.7880   99.8540  -47.0320 N   0  0  0  0  0  0  0  0  0  0  0  0
   91.7200   99.6700  -45.9920 C   0  0  0  0  0  0  0  0  0  0  0  0
   92.9760   99.7180  -46.1030 O   0  0  0  0  0  0  0  0  0  0  0  0
   90.9760   99.4070  -44.7290 C   0  0  1  0  0  0  0  0  0  0  0  0
   91.2470  100.4770  -43.7360 C   0  0  0  0  0  0  0  0  0  0  0  0
   91.6500  100.2270  -42.5420 C   0  0  0  0  0  0  0  0  0  0  0  0
   91.8770   98.8750  -42.0560 N   0  0  0  0  0  0  0  0  0  0  0  0
   91.6210   97.8480  -42.9910 C   0  0  0  0  0  0  0  0  0  0  0  0
   91.2120   98.0790  -44.2080 C   0  0  0  0  0  0  0  0  0  0  0  0
   90.9910   96.9180  -45.0620 C   0  0  0  0  0  0  0  0  0  0  0  0
   90.8100   96.0080  -45.7560 N   0  0  0  0  0  0  0  0  0  0  0  0
   91.8240  101.5210  -41.8130 C   0  0  0  0  0  0  0  0  0  0  0  0
   91.4790  102.5010  -42.7200 O   0  0  0  0  0  0  0  0  0  0  0  0
   91.1150  101.9590  -43.9150 C   0  0  0  0  0  0  0  0  0  0  0  0
   90.7370  102.5220  -44.9860 O   0  0  0  0  0  0  0  0  0  0  0  0
   93.2480  101.6410  -41.3050 C   0  0  0  0  0  1  0  0  0  0  0  0
   90.8670  101.6070  -40.6390 C   0  0  0  0  0  1  0  0  0  0  0  0
   91.1370  100.1360  -48.4320 C   0  0  0  0  0  1  0  0  0  0  0  0
   92.2010   98.7300  -41.0850 H   0  0  0  0  0  0  0  0  0  0  0  0
   91.8310   96.4750  -42.5600 N   0  0  0  0  0  0  0  0  0  0  0  0
   92.4770   96.3280  -41.7580 H   0  0  0  0  0  0  0  0  0  0  0  0
   91.3640   95.6860  -43.0280 H   0  0  0  0  0  0  0  0  0  0  0  0
  2  3  1  0  0  0  0
  2  1  1  0  0  0  0
  4 11  1  0  0  0  0
  4  3  2  0  0  0  0
  5  4  1  0  0  0  0
  6  5  2  0  0  0  0
  6  7  1  0  0  0  0
  7  2  2  0  0  0  0
  8  5  1  0  0  0  0
  8  9  1  0  0  0  0
 10  9  2  0  0  0  0
 11  9  1  6  0  0  0
 11 16  1  0  0  0  0
 11 12  1  0  0  0  0
 12 13  2  0  0  0  0
 13 14  1  0  0  0  0
 13 19  1  0  0  0  0
 14 26  1  0  0  0  0
 15 27  1  0  0  0  0
 15 14  1  0  0  0  0
 16 15  2  0  0  0  0
 17 16  1  0  0  0  0
 18 17  3  0  0  0  0
 19 23  1  0  0  0  0
 19 24  1  0  0  0  0
 20 19  1  0  0  0  0
 21 12  1  0  0  0  0
 21 20  1  0  0  0  0
 22 21  2  0  0  0  0
 25  8  1  0  0  0  0
 27 28  1  0  0  0  0
 29 27  1  0  0  0  0
M  END
>  <Pose>
1

>  <Score>
-5.815

$$$$
