/Users/jonathanwahrer/Desktop/Msc/3_Semester/Drug_Design_Praktikum/waehrer_HTS_screening/HTS_experiment/out/docking_results/vina_output/4agl/0505_docked.pdbqt
 OpenBabel03202223313D

 30 33  0  0  1  0  0  0  0  0999 V2000
   93.3560  101.6410  -47.7600 Br  0  0  0  0  0  0  0  0  0  0  0  0
   91.7030  101.2840  -46.8860 C   0  0  0  0  0  0  0  0  0  0  0  0
   91.6050  100.2220  -46.0130 C   0  0  0  0  0  3  0  0  0  0  0  0
   90.4020   99.9390  -45.3580 C   0  0  0  0  0  0  0  0  0  0  0  0
   89.3410  100.7470  -45.6120 C   0  0  0  0  0  0  0  0  0  0  0  0
   89.4430  101.8330  -46.5060 C   0  0  0  0  0  3  0  0  0  0  0  0
   90.6300  102.1050  -47.1460 C   0  0  0  0  0  3  0  0  0  0  0  0
   88.2260  100.2940  -44.8550 N   0  0  0  0  0  0  0  0  0  0  0  0
   88.5920   99.1660  -44.0990 C   0  0  0  0  0  0  0  0  0  0  0  0
   87.8700   98.5000  -43.3150 O   0  0  0  0  0  0  0  0  0  0  0  0
   90.0280   98.8720  -44.3830 C   0  0  1  0  0  0  0  0  0  0  0  0
   90.1840   97.5380  -44.9730 C   0  0  0  0  0  0  0  0  0  0  0  0
   91.0130   96.6110  -44.4290 C   0  0  0  0  0  0  0  0  0  0  0  0
   91.7470   96.9120  -43.2770 O   0  0  0  0  0  0  0  0  0  0  0  0
   91.6350   98.1540  -42.6840 C   0  0  0  0  0  0  0  0  0  0  0  0
   90.8490   99.0580  -43.1830 C   0  0  0  0  0  0  0  0  0  0  0  0
   90.7920  100.3510  -42.4850 C   0  0  0  0  0  0  0  0  0  0  0  0
   90.7540  101.3560  -41.9510 N   0  0  0  0  0  0  0  0  0  0  0  0
   91.1300   95.3530  -45.0260 C   0  0  0  0  0  0  0  0  0  0  0  0
   91.8960   94.5090  -44.5150 O   0  0  0  0  0  0  0  0  0  0  0  0
   90.4020   95.0720  -46.1580 C   0  0  0  0  0  3  0  0  0  0  0  0
   89.5760   96.0520  -46.6660 C   0  0  0  0  0  0  0  0  0  0  0  0
   89.5080   97.1950  -46.0720 O   0  0  0  0  0  0  0  0  0  0  0  0
   86.9040  100.9500  -44.8980 C   0  0  0  0  0  1  0  0  0  0  0  0
   92.4200   98.3900  -41.5030 N   0  0  0  0  0  0  0  0  0  0  0  0
   92.4060   99.3190  -41.0860 H   0  0  0  0  0  0  0  0  0  0  0  0
   92.9660   97.6190  -41.1220 H   0  0  0  0  0  0  0  0  0  0  0  0
   88.7640   95.7660  -47.9110 C   0  0  0  0  0  2  0  0  0  0  0  0
   89.2940   96.4920  -48.9770 O   0  0  0  0  0  0  0  0  0  0  0  0
   89.1640   97.4720  -48.8020 H   0  0  0  0  0  0  0  0  0  0  0  0
  1  2  1  0  0  0  0
  2  3  1  0  0  0  0
  3  4  2  0  0  0  0
  5  4  1  0  0  0  0
  5  8  1  0  0  0  0
  6  5  2  0  0  0  0
  7  2  2  0  0  0  0
  7  6  1  0  0  0  0
  8  9  1  0  0  0  0
  9 10  2  0  0  0  0
 11  4  1  6  0  0  0
 11  9  1  0  0  0  0
 11 16  1  0  0  0  0
 12 13  2  0  0  0  0
 12 11  1  0  0  0  0
 13 14  1  0  0  0  0
 14 15  1  0  0  0  0
 15 25  1  0  0  0  0
 16 15  2  0  0  0  0
 16 17  1  0  0  0  0
 17 18  3  0  0  0  0
 19 20  2  0  0  0  0
 19 13  1  0  0  0  0
 21 19  1  0  0  0  0
 22 21  2  0  0  0  0
 22 23  1  0  0  0  0
 23 12  1  0  0  0  0
 24  8  1  0  0  0  0
 25 27  1  0  0  0  0
 25 26  1  0  0  0  0
 28 22  1  0  0  0  0
 29 30  1  0  0  0  0
 29 28  1  0  0  0  0
M  END
>  <Pose>
1

>  <Score>
-6.093

$$$$
