/Users/jonathanwahrer/Desktop/Msc/3_Semester/Drug_Design_Praktikum/waehrer_HTS_screening/HTS_experiment/out/docking_results/vina_output/4agl/0526_docked.pdbqt
 OpenBabel03202223323D

 31 34  0  0  0  0  0  0  0  0999 V2000
   91.0850   98.6090  -42.3820 N   0  0  0  0  0  0  0  0  0  0  0  0
   89.9530   99.3250  -42.8140 C   0  0  0  0  0  0  0  0  0  0  0  0
   89.1360   98.7410  -43.6100 O   0  0  0  0  0  0  0  0  0  0  0  0
   91.7750   99.0820  -41.7360 H   0  0  0  0  0  0  0  0  0  0  0  0
   89.5720  100.6940  -42.4520 C   0  0  0  0  0  2  0  0  0  0  0  0
   90.0790  101.1860  -41.2030 N   0  0  0  0  0  0  0  0  0  0  0  0
   91.3940  101.7190  -41.0870 C   0  0  0  0  0  0  0  0  0  0  0  0
   92.0930  101.7230  -42.1740 O   0  0  0  0  0  0  0  0  0  0  0  0
   89.5220  101.1590  -40.3350 H   0  0  0  0  0  0  0  0  0  0  0  0
   92.0000  102.2360  -39.8990 C   0  0  0  0  0  0  0  0  0  0  0  0
   93.3420  102.1250  -39.5670 C   0  0  0  0  0  3  0  0  0  0  0  0
   93.8550  102.6460  -38.4280 C   0  0  0  0  0  0  0  0  0  0  0  0
   93.0540  103.3220  -37.5300 C   0  0  0  0  0  0  0  0  0  0  0  0
   95.1710  102.6960  -37.8360 O   0  0  0  0  0  0  0  0  0  0  0  0
   91.7310  103.4520  -37.8120 C   0  0  0  0  0  3  0  0  0  0  0  0
   93.8530  103.7530  -36.4580 O   0  0  0  0  0  0  0  0  0  0  0  0
   91.1820  102.9220  -38.9890 C   0  0  0  0  0  3  0  0  0  0  0  0
   95.1310  103.9720  -37.1030 C   0  0  0  0  0  2  0  0  0  0  0  0
   91.2870   97.3390  -42.7880 N   0  0  0  0  0  0  0  0  0  0  0  0
   91.7300   96.2940  -42.4270 C   0  0  0  0  0  0  0  0  0  0  0  0
   91.8400   94.9900  -43.0930 C   0  0  0  0  0  0  0  0  0  0  0  0
   92.2930   96.1390  -41.0520 C   0  0  0  0  0  0  0  0  0  0  0  0
   91.4720   94.5960  -44.3610 C   0  0  0  0  0  3  0  0  0  0  0  0
   92.4160   94.1370  -42.2050 C   0  0  0  0  0  0  0  0  0  0  0  0
   91.6700   93.3170  -44.7960 C   0  0  0  0  0  0  0  0  0  0  0  0
   91.1740   92.7590  -46.5410 Br  0  0  0  0  0  0  0  0  0  0  0  0
   92.2580   92.4280  -43.9040 C   0  0  0  0  0  3  0  0  0  0  0  0
   92.6230   92.8250  -42.6430 C   0  0  0  0  0  3  0  0  0  0  0  0
   92.7020   94.7710  -40.9770 N   0  0  0  0  0  0  0  0  0  0  0  0
   93.1460   94.3480  -40.1270 H   0  0  0  0  0  0  0  0  0  0  0  0
   92.3550   97.0480  -40.2220 O   0  0  0  0  0  0  0  0  0  0  0  0
  1  4  1  0  0  0  0
  2  5  1  0  0  0  0
  2  1  1  0  0  0  0
  3  2  2  0  0  0  0
  5  6  1  0  0  0  0
  6  7  1  0  0  0  0
  6  9  1  0  0  0  0
  7 10  1  0  0  0  0
  8  7  2  0  0  0  0
 10 11  2  0  0  0  0
 10 17  1  0  0  0  0
 11 12  1  0  0  0  0
 12 14  1  0  0  0  0
 12 13  2  0  0  0  0
 13 16  1  0  0  0  0
 14 18  1  0  0  0  0
 15 13  1  0  0  0  0
 17 15  2  0  0  0  0
 18 16  1  0  0  0  0
 19 20  2  0  0  0  0
 19  1  1  0  0  0  0
 20 22  1  0  0  0  0
 21 20  1  0  0  0  0
 21 24  1  0  0  0  0
 22 29  1  0  0  0  0
 22 31  2  0  0  0  0
 23 21  2  0  0  0  0
 24 29  1  0  0  0  0
 25 23  1  0  0  0  0
 25 27  2  0  0  0  0
 26 25  1  0  0  0  0
 27 28  1  0  0  0  0
 28 24  2  0  0  0  0
 29 30  1  0  0  0  0
M  END
>  <Pose>
1

>  <Score>
-7.526

$$$$
