/Users/jonathanwahrer/Desktop/Msc/3_Semester/Drug_Design_Praktikum/waehrer_HTS_screening/HTS_experiment/out/docking_results/vina_output/4agl/0559_docked.pdbqt
 OpenBabel03202223323D

 32 35  0  0  1  0  0  0  0  0999 V2000
   84.9730  100.1760  -44.1510 Br  0  0  0  0  0  0  0  0  0  0  0  0
   86.7330  100.7110  -43.6020 C   0  0  0  0  0  0  0  0  0  0  0  0
   87.8200   99.8650  -43.7190 C   0  0  0  0  0  3  0  0  0  0  0  0
   89.0880  100.2400  -43.3270 C   0  0  0  0  0  0  0  0  0  0  0  0
   89.2190  101.5120  -42.8080 C   0  0  0  0  0  0  0  0  0  0  0  0
   88.1270  102.3660  -42.6890 C   0  0  0  0  0  3  0  0  0  0  0  0
   86.8860  101.9710  -43.0840 C   0  0  0  0  0  3  0  0  0  0  0  0
   90.5930  101.7260  -42.4510 N   0  0  0  0  0  0  0  0  0  0  0  0
   91.3380  100.5590  -42.7530 C   0  0  0  0  0  0  0  0  0  0  0  0
   92.5670  100.4350  -42.5450 O   0  0  0  0  0  0  0  0  0  0  0  0
   90.4080   99.5690  -43.3350 C   0  0  1  0  0  0  0  0  0  0  0  0
   90.4110   98.3470  -42.5770 N   0  0  0  0  0  0  0  0  0  0  0  0
   91.5880   97.6480  -43.0470 C   0  0  2  0  0  3  0  0  0  0  0  0
   91.5530   97.8580  -44.5380 C   0  0  2  0  0  3  0  0  0  0  0  0
   90.8790   99.2000  -44.6970 C   0  0  1  0  0  3  0  0  0  0  0  0
   89.8260   98.9900  -45.7000 C   0  0  0  0  0  0  0  0  0  0  0  0
   89.0990   99.8710  -46.2240 O   0  0  0  0  0  0  0  0  0  0  0  0
   89.7290   97.5820  -46.0180 N   0  0  0  0  0  0  0  0  0  0  0  0
   90.6890   96.8850  -45.2400 C   0  0  0  0  0  0  0  0  0  0  0  0
   90.7680   95.6350  -45.1770 O   0  0  0  0  0  0  0  0  0  0  0  0
   90.9410  102.6180  -42.0360 H   0  0  0  0  0  0  0  0  0  0  0  0
   89.5770   97.7930  -42.8300 H   0  0  0  0  0  0  0  0  0  0  0  0
   91.5370   96.2000  -42.6390 C   0  0  0  0  0  2  0  0  0  0  0  0
   92.3010   95.9720  -41.4020 C   0  0  0  0  0  0  0  0  0  0  0  0
   92.6080   96.9650  -40.6880 O   0  0  0  0  0  0  0  0  0  0  0  0
   92.7270   94.7010  -40.9400 N   0  0  0  0  0  0  0  0  0  0  0  0
   93.1920   93.9820  -41.5140 H   0  0  0  0  0  0  0  0  0  0  0  0
   92.5500   94.4800  -39.9250 H   0  0  0  0  0  0  0  0  0  0  0  0
   88.8230   96.9710  -46.9580 C   0  0  0  0  0  0  0  0  0  0  0  0
   89.3430   95.6480  -47.4650 C   0  0  0  0  0  1  0  0  0  0  0  0
   87.4680   96.7620  -46.2740 C   0  0  0  0  0  1  0  0  0  0  0  0
   88.6150   97.8620  -48.1630 C   0  0  0  0  0  1  0  0  0  0  0  0
  1  2  1  0  0  0  0
  2  7  1  0  0  0  0
  3  2  2  0  0  0  0
  3  4  1  0  0  0  0
  4  5  2  0  0  0  0
  5  6  1  0  0  0  0
  5  8  1  0  0  0  0
  7  6  2  0  0  0  0
  8 21  1  0  0  0  0
  9 10  2  0  0  0  0
  9  8  1  0  0  0  0
 11  4  1  6  0  0  0
 11  9  1  0  0  0  0
 11 12  1  0  0  0  0
 13 23  1  6  0  0  0
 13 12  1  0  0  0  0
 14 19  1  6  0  0  0
 14 13  1  0  0  0  0
 15 16  1  6  0  0  0
 15 14  1  0  0  0  0
 15 11  1  0  0  0  0
 17 16  2  0  0  0  0
 18 16  1  0  0  0  0
 18 19  1  0  0  0  0
 19 20  2  0  0  0  0
 22 12  1  0  0  0  0
 23 24  1  0  0  0  0
 24 26  1  0  0  0  0
 24 25  2  0  0  0  0
 26 28  1  0  0  0  0
 27 26  1  0  0  0  0
 29 31  1  0  0  0  0
 29 18  1  0  0  0  0
 30 29  1  0  0  0  0
 32 29  1  0  0  0  0
M  END
>  <Pose>
1

>  <Score>
-6.303

$$$$
