/Users/jonathanwahrer/Desktop/Msc/3_Semester/Drug_Design_Praktikum/waehrer_HTS_screening/HTS_experiment/out/docking_results/vina_output/4agl/0571_docked.pdbqt
 OpenBabel03202223333D

 34 38  0  0  1  0  0  0  0  0999 V2000
   91.5230   93.5920  -43.9580 Br  0  0  0  0  0  0  0  0  0  0  0  0
   91.7840   95.2560  -43.0600 C   0  0  0  0  0  0  0  0  0  0  0  0
   91.7010   96.4690  -43.7070 C   0  0  0  0  0  3  0  0  0  0  0  0
   91.9000   97.6890  -43.0430 C   0  0  0  0  0  0  0  0  0  0  0  0
   92.1860   97.6370  -41.7010 C   0  0  0  0  0  0  0  0  0  0  0  0
   92.2700   96.4190  -41.0420 C   0  0  0  0  0  3  0  0  0  0  0  0
   92.0740   95.2270  -41.7040 C   0  0  0  0  0  3  0  0  0  0  0  0
   92.3750   98.9350  -41.1720 N   0  0  0  0  0  0  0  0  0  0  0  0
   92.2020   99.8520  -42.2290 C   0  0  0  0  0  0  0  0  0  0  0  0
   92.3110  101.1010  -42.0710 O   0  0  0  0  0  0  0  0  0  0  0  0
   91.8930   99.0920  -43.4590 C   0  0  1  0  0  0  0  0  0  0  0  0
   92.9120   99.3400  -44.4830 N   0  0  0  0  0  0  0  0  0  0  0  0
   92.2160   99.2670  -45.7480 C   0  0  1  0  0  3  0  0  0  0  0  0
   90.7950   99.6000  -45.5130 C   0  0  2  0  0  3  0  0  0  0  0  0
   90.6190   99.6200  -44.0050 C   0  0  1  0  0  3  0  0  0  0  0  0
   89.3990   98.8660  -43.7430 C   0  0  0  0  0  0  0  0  0  0  0  0
   88.9550   98.5320  -42.6170 O   0  0  0  0  0  0  0  0  0  0  0  0
   88.7410   98.5380  -44.9860 N   0  0  0  0  0  0  0  0  0  0  0  0
   89.8050   98.6000  -45.9590 C   0  0  0  0  0  0  0  0  0  0  0  0
   89.8580   97.9190  -46.9940 O   0  0  0  0  0  0  0  0  0  0  0  0
   92.6030   99.1710  -40.1670 H   0  0  0  0  0  0  0  0  0  0  0  0
   93.6850   98.6380  -44.4320 H   0  0  0  0  0  0  0  0  0  0  0  0
   92.8900  100.1540  -46.7680 C   0  0  2  0  0  3  0  0  0  0  0  0
   92.2860  101.5370  -46.8160 C   0  0  0  0  0  1  0  0  0  0  0  0
   92.8930   99.5340  -48.0030 O   0  0  0  0  0  0  0  0  0  0  0  0
   92.1150   98.9600  -48.1360 H   0  0  0  0  0  0  0  0  0  0  0  0
   87.3650   98.2490  -45.2330 C   0  0  0  0  0  2  0  0  0  0  0  0
   86.5060   99.4160  -45.6270 C   0  0  0  0  0  2  0  0  0  0  0  0
   85.8680  100.1250  -44.5050 C   0  0  0  0  0  0  0  0  0  0  0  0
   84.5910   99.7540  -44.1020 C   0  0  0  0  0  3  0  0  0  0  0  0
   84.0030  100.3810  -43.0550 C   0  0  0  0  0  3  0  0  0  0  0  0
   84.6160  101.3810  -42.3580 C   0  0  0  0  0  3  0  0  0  0  0  0
   85.8900  101.7440  -42.7680 C   0  0  0  0  0  3  0  0  0  0  0  0
   86.5030  101.1280  -43.8210 C   0  0  0  0  0  3  0  0  0  0  0  0
  1  2  1  0  0  0  0
  2  7  1  0  0  0  0
  3  2  2  0  0  0  0
  3  4  1  0  0  0  0
  4  5  2  0  0  0  0
  5  8  1  0  0  0  0
  5  6  1  0  0  0  0
  7  6  2  0  0  0  0
  8 21  1  0  0  0  0
  9 10  2  0  0  0  0
  9  8  1  0  0  0  0
 11  4  1  1  0  0  0
 11  9  1  0  0  0  0
 12 22  1  0  0  0  0
 12 11  1  0  0  0  0
 13 23  1  6  0  0  0
 13 14  1  0  0  0  0
 13 12  1  0  0  0  0
 14 19  1  6  0  0  0
 14 15  1  0  0  0  0
 15 16  1  6  0  0  0
 15 11  1  0  0  0  0
 16 17  2  0  0  0  0
 18 16  1  0  0  0  0
 19 18  1  0  0  0  0
 20 19  2  0  0  0  0
 23 24  1  6  0  0  0
 25 23  1  0  0  0  0
 26 25  1  0  0  0  0
 27 18  1  0  0  0  0
 28 27  1  0  0  0  0
 28 29  1  0  0  0  0
 29 30  2  0  0  0  0
 29 34  1  0  0  0  0
 30 31  1  0  0  0  0
 31 32  2  0  0  0  0
 33 32  1  0  0  0  0
 34 33  2  0  0  0  0
M  END
>  <Pose>
1

>  <Score>
-7.048

$$$$
