/Users/jonathanwahrer/Desktop/Msc/3_Semester/Drug_Design_Praktikum/waehrer_HTS_screening/HTS_experiment/out/docking_results/vina_output/4agl/0579_docked.pdbqt
 OpenBabel03202223333D

 32 35  0  0  1  0  0  0  0  0999 V2000
   91.4330   92.2260  -46.6080 Br  0  0  0  0  0  0  0  0  0  0  0  0
   91.5040   93.5730  -45.2590 C   0  0  0  0  0  0  0  0  0  0  0  0
   91.1000   94.8720  -45.4770 C   0  0  0  0  0  3  0  0  0  0  0  0
   91.1540   95.8510  -44.4870 C   0  0  0  0  0  0  0  0  0  0  0  0
   91.6280   95.5200  -43.2420 C   0  0  0  0  0  0  0  0  0  0  0  0
   92.0420   94.2210  -42.9930 C   0  0  0  0  0  3  0  0  0  0  0  0
   91.9770   93.2570  -44.0050 C   0  0  0  0  0  3  0  0  0  0  0  0
   91.5930   96.6630  -42.3820 N   0  0  0  0  0  0  0  0  0  0  0  0
   91.0750   97.7570  -43.1200 C   0  0  0  0  0  0  0  0  0  0  0  0
   90.9130   98.8930  -42.6350 O   0  0  0  0  0  0  0  0  0  0  0  0
   90.7920   97.2980  -44.4700 C   0  0  2  0  0  0  0  0  0  0  0  0
   89.3570   97.4710  -44.6940 N   0  0  0  0  0  0  0  0  0  0  0  0
   89.2250   97.9020  -46.0530 C   0  0  2  0  0  3  0  0  0  0  0  0
   90.4000   98.7850  -46.2630 C   0  0  2  0  0  3  0  0  0  0  0  0
   91.5080   98.0310  -45.5640 C   0  0  1  0  0  3  0  0  0  0  0  0
   92.4420   99.0630  -45.1340 C   0  0  0  0  0  0  0  0  0  0  0  0
   93.6310   98.8810  -44.7950 O   0  0  0  0  0  0  0  0  0  0  0  0
   91.7580  100.3100  -45.1670 N   0  0  0  0  0  0  0  0  0  0  0  0
   90.3730  100.0620  -45.5070 C   0  0  0  0  0  0  0  0  0  0  0  0
   89.4550  100.8300  -45.1790 O   0  0  0  0  0  0  0  0  0  0  0  0
   91.9080   96.6600  -41.3720 H   0  0  0  0  0  0  0  0  0  0  0  0
   88.9820   98.2310  -44.0780 H   0  0  0  0  0  0  0  0  0  0  0  0
   87.9020   98.5100  -46.3670 C   0  0  0  0  0  2  0  0  0  0  0  0
   87.0130   98.3970  -45.2060 C   0  0  0  0  0  0  0  0  0  0  0  0
   86.4990   97.2790  -44.9190 O   0  0  0  0  0  0  0  0  0  0  0  0
   86.7210   99.5330  -44.3940 N   0  0  0  0  0  0  0  0  0  0  0  0
   86.5110   99.4140  -43.3820 H   0  0  0  0  0  0  0  0  0  0  0  0
   86.7210  100.4810  -44.8220 H   0  0  0  0  0  0  0  0  0  0  0  0
   92.3740  101.5780  -44.9040 C   0  0  0  0  0  2  0  0  0  0  0  0
   92.2870  102.0510  -43.4910 C   0  0  0  0  0  2  0  0  0  0  0  0
   93.3300  101.6010  -42.6970 O   0  0  0  0  0  0  0  0  0  0  0  0
   92.9430  101.4720  -41.3650 C   0  0  0  0  0  1  0  0  0  0  0  0
  1  2  1  0  0  0  0
  2  7  1  0  0  0  0
  3  2  2  0  0  0  0
  3  4  1  0  0  0  0
  4  5  2  0  0  0  0
  5  6  1  0  0  0  0
  5  8  1  0  0  0  0
  7  6  2  0  0  0  0
  8 21  1  0  0  0  0
  9 10  2  0  0  0  0
  9  8  1  0  0  0  0
 11  4  1  6  0  0  0
 11  9  1  0  0  0  0
 12 11  1  0  0  0  0
 12 22  1  0  0  0  0
 13 23  1  1  0  0  0
 13 12  1  0  0  0  0
 14 13  1  0  0  0  0
 14 15  1  0  0  0  0
 14 19  1  1  0  0  0
 15 16  1  1  0  0  0
 15 11  1  0  0  0  0
 16 17  2  0  0  0  0
 18 16  1  0  0  0  0
 18 29  1  0  0  0  0
 19 20  2  0  0  0  0
 19 18  1  0  0  0  0
 23 24  1  0  0  0  0
 24 25  2  0  0  0  0
 24 26  1  0  0  0  0
 26 27  1  0  0  0  0
 28 26  1  0  0  0  0
 29 30  1  0  0  0  0
 30 31  1  0  0  0  0
 31 32  1  0  0  0  0
M  END
>  <Pose>
1

>  <Score>
-6.014

$$$$
