/Users/jonathanwahrer/Desktop/Msc/3_Semester/Drug_Design_Praktikum/waehrer_HTS_screening/HTS_experiment/out/docking_results/vina_output/4agl/0588_docked.pdbqt
 OpenBabel03202223333D

 24 27  0  0  1  0  0  0  0  0999 V2000
   91.3490   91.7470  -47.6880 Br  0  0  0  0  0  0  0  0  0  0  0  0
   91.4360   92.9750  -46.2330 C   0  0  0  0  0  0  0  0  0  0  0  0
   90.6600   94.0970  -46.2860 C   0  0  0  0  0  3  0  0  0  0  0  0
   90.7040   95.0070  -45.2430 C   0  0  0  0  0  0  0  0  0  0  0  0
   91.5300   94.7810  -44.1490 C   0  0  0  0  0  0  0  0  0  0  0  0
   92.3190   93.6510  -44.0810 C   0  0  0  0  0  3  0  0  0  0  0  0
   92.2440   92.7750  -45.1410 C   0  0  0  0  0  3  0  0  0  0  0  0
   91.6550   95.6350  -43.0300 N   0  0  0  0  0  0  0  0  0  0  0  0
   92.0940   95.1720  -41.8540 N   0  0  0  0  0  0  0  0  0  0  0  0
   92.0950   96.1950  -41.0430 N   0  0  0  0  0  0  0  0  0  0  0  0
   91.6720   97.2810  -41.6690 N   0  0  0  0  0  0  0  0  0  0  0  0
   91.3860   96.9270  -42.9550 C   0  0  0  0  0  0  0  0  0  0  0  0
   90.8770   97.9280  -43.9560 C   0  0  2  0  0  0  0  0  0  0  0  0
   89.8040   97.3530  -44.7630 N   0  0  0  0  0  0  0  0  0  0  0  0
   89.7990   96.1340  -45.4980 C   0  0  0  0  0  0  0  0  0  0  0  0
   88.9610   96.0090  -46.4340 O   0  0  0  0  0  0  0  0  0  0  0  0
   92.0190   98.1890  -44.9010 C   0  0  0  0  0  2  0  0  0  0  0  0
   91.8060   99.4900  -45.6030 C   0  0  0  0  0  0  0  0  0  0  0  0
   91.8200  100.4730  -44.6500 O   0  0  0  0  0  0  0  0  0  0  0  0
   90.7850  100.4450  -43.7550 C   0  0  0  0  0  3  0  0  0  0  0  0
   90.3800   99.1300  -43.2410 C   0  0  0  0  0  3  0  0  0  0  0  0
   92.9910   99.7610  -46.5380 C   0  0  0  0  0  1  0  0  0  0  0  0
   90.5750   99.5100  -46.4690 C   0  0  0  0  0  1  0  0  0  0  0  0
   88.8950   97.9040  -44.8210 H   0  0  0  0  0  0  0  0  0  0  0  0
  1  2  1  0  0  0  0
  2  7  1  0  0  0  0
  3  2  2  0  0  0  0
  3  4  1  0  0  0  0
  4  5  2  0  0  0  0
  5  6  1  0  0  0  0
  5  8  1  0  0  0  0
  7  6  2  0  0  0  0
  8 12  1  0  0  0  0
  8  9  1  0  0  0  0
  9 10  2  0  0  0  0
 11 10  1  0  0  0  0
 12 11  2  0  0  0  0
 13 17  1  6  0  0  0
 13 21  1  0  0  0  0
 13 12  1  0  0  0  0
 14 13  1  0  0  0  0
 15  4  1  0  0  0  0
 15 14  1  0  0  0  0
 16 15  2  0  0  0  0
 18 17  1  0  0  0  0
 18 19  1  0  0  0  0
 19 20  1  0  0  0  0
 20 21  2  0  0  0  0
 22 18  1  0  0  0  0
 23 18  1  0  0  0  0
 24 14  1  0  0  0  0
M  END
>  <Pose>
1

>  <Score>
-6.663

$$$$
