/Users/jonathanwahrer/Desktop/Msc/3_Semester/Drug_Design_Praktikum/waehrer_HTS_screening/HTS_experiment/out/docking_results/vina_output/4agl/0592_docked.pdbqt
 OpenBabel03202223333D

 27 30  0  0  1  0  0  0  0  0999 V2000
   92.0820   94.7690  -41.4120 Br  0  0  0  0  0  0  0  0  0  0  0  0
   91.5440   95.5780  -43.0440 C   0  0  0  0  0  0  0  0  0  0  0  0
   91.5280   96.9420  -43.1330 C   0  0  0  0  0  3  0  0  0  0  0  0
   91.1310   97.5370  -44.3350 C   0  0  0  0  0  0  0  0  0  0  0  0
   90.7760   96.7410  -45.3740 C   0  0  0  0  0  0  0  0  0  0  0  0
   90.7930   95.3340  -45.2780 C   0  0  0  0  0  3  0  0  0  0  0  0
   91.1820   94.7540  -44.0950 C   0  0  0  0  0  3  0  0  0  0  0  0
   90.3760   97.2800  -46.5830 O   0  0  0  0  0  0  0  0  0  0  0  0
   90.3460   98.6520  -46.7160 C   0  0  0  0  0  0  0  0  0  0  0  0
   90.6760   99.4840  -45.7570 C   0  0  0  0  0  0  0  0  0  0  0  0
   91.1090   99.0100  -44.4500 C   0  0  1  0  0  0  0  0  0  0  0  0
   90.3530   99.6280  -43.3340 C   0  0  0  0  0  0  0  0  0  0  0  0
   91.2210  100.3630  -42.5750 C   0  0  0  0  0  0  0  0  0  0  0  0
   90.5210  100.9310  -41.5490 N   0  0  0  0  0  0  0  0  0  0  0  0
   89.2660  100.5450  -41.6930 N   0  0  0  0  0  0  0  0  0  0  0  0
   89.1170   99.7530  -42.7630 C   0  0  0  0  0  0  0  0  0  0  0  0
   87.8180   99.1540  -43.1930 C   0  0  0  0  0  1  0  0  0  0  0  0
   92.5330  100.2950  -43.0910 N   0  0  0  0  0  0  0  0  0  0  0  0
   92.4950   99.4780  -44.2320 C   0  0  0  0  0  0  0  0  0  0  0  0
   93.4630   99.1680  -44.9780 O   0  0  0  0  0  0  0  0  0  0  0  0
   90.6190  100.9100  -45.9730 C   0  0  0  0  0  0  0  0  0  0  0  0
   90.5930  102.0540  -46.1470 N   0  0  0  0  0  0  0  0  0  0  0  0
   88.5140  100.8520  -41.0200 H   0  0  0  0  0  0  0  0  0  0  0  0
   93.3880  100.7880  -42.6680 H   0  0  0  0  0  0  0  0  0  0  0  0
   89.9290   99.1960  -47.9780 N   0  0  0  0  0  0  0  0  0  0  0  0
   90.4000  100.0490  -48.3510 H   0  0  0  0  0  0  0  0  0  0  0  0
   89.1630   98.7690  -48.5460 H   0  0  0  0  0  0  0  0  0  0  0  0
  2  1  1  0  0  0  0
  3  2  1  0  0  0  0
  4  3  2  0  0  0  0
  5  6  2  0  0  0  0
  5  4  1  0  0  0  0
  6  7  1  0  0  0  0
  7  2  2  0  0  0  0
  8  5  1  0  0  0  0
  9  8  1  0  0  0  0
  9 10  2  0  0  0  0
 11 10  1  6  0  0  0
 11  4  1  0  0  0  0
 11 19  1  0  0  0  0
 11 12  1  0  0  0  0
 12 16  2  0  0  0  0
 12 13  1  0  0  0  0
 13 14  2  0  0  0  0
 15 14  1  0  0  0  0
 15 23  1  0  0  0  0
 16 15  1  0  0  0  0
 17 16  1  0  0  0  0
 18 24  1  0  0  0  0
 18 13  1  0  0  0  0
 19 18  1  0  0  0  0
 20 19  2  0  0  0  0
 21 10  1  0  0  0  0
 22 21  3  0  0  0  0
 25  9  1  0  0  0  0
 26 25  1  0  0  0  0
 27 25  1  0  0  0  0
M  END
>  <Pose>
1

>  <Score>
-6.390

$$$$
