/Users/jonathanwahrer/Desktop/Msc/3_Semester/Drug_Design_Praktikum/waehrer_HTS_screening/HTS_experiment/out/docking_results/vina_output/4agl/0610_docked.pdbqt
 OpenBabel03202223343D

 32 35  0  0  0  0  0  0  0  0999 V2000
   92.2470   95.5460  -40.9840 Br  0  0  0  0  0  0  0  0  0  0  0  0
   91.7400   96.3860  -42.6200 C   0  0  0  0  0  0  0  0  0  0  0  0
   91.6500   97.7730  -42.7090 C   0  0  0  0  0  3  0  0  0  0  0  0
   91.2820   98.3850  -43.8990 C   0  0  0  0  0  0  0  0  0  0  0  0
   91.0000   97.6190  -45.0100 C   0  0  0  0  0  0  0  0  0  0  0  0
   90.6440   98.2150  -46.1750 N   0  0  0  0  0  0  0  0  0  0  0  0
   90.5540   99.5530  -46.2880 C   0  0  0  0  0  0  0  0  0  0  0  0
   90.8320  100.2810  -45.1990 N   0  0  0  0  0  0  0  0  0  0  0  0
   91.1900   99.7570  -44.0130 C   0  0  0  0  0  0  0  0  0  0  0  0
   91.0960   96.2380  -44.8950 C   0  0  0  0  0  3  0  0  0  0  0  0
   91.4600   95.6100  -43.7240 C   0  0  0  0  0  3  0  0  0  0  0  0
   90.1770  100.1470  -47.5360 N   0  0  0  0  0  4  0  0  0  0  0  0
   89.7100  101.4900  -47.3210 C   0  0  0  0  0  2  0  0  0  0  0  0
   88.3420  101.5800  -46.7340 C   0  0  0  0  0  2  0  0  0  0  0  0
   87.6320  100.3210  -46.7850 N   0  0  0  0  0  0  0  0  0  0  0  0
   87.8320   99.5090  -47.9650 C   0  0  0  0  0  2  0  0  0  0  0  0
   86.7990   99.9660  -45.6970 C   0  0  0  0  0  0  0  0  0  0  0  0
   89.2810   99.3360  -48.3010 C   0  0  0  0  0  2  0  0  0  0  0  0
   86.6760  100.7210  -44.7080 O   0  0  0  0  0  0  0  0  0  0  0  0
   91.0940  100.2460  -48.0670 H   0  0  0  0  0  0  0  0  0  0  0  0
   86.0890   98.6580  -45.8010 C   0  0  0  0  0  2  0  0  0  0  0  0
   85.8470   98.0540  -44.4510 C   0  0  0  0  0  2  0  0  0  0  0  0
   84.4250   98.0160  -44.0770 C   0  0  0  0  0  0  0  0  0  0  0  0
   83.9520   98.7960  -43.2250 O   0  0  0  0  0  1  0  0  0  0  0  0
   83.5910   97.0980  -44.6830 O   0  0  0  0  0  0  0  0  0  0  0  0
   91.4710  100.6370  -42.8900 C   0  0  0  0  0  0  0  0  0  0  0  0
   90.4720  100.9570  -41.9810 C   0  0  0  0  0  0  0  0  0  0  0  0
   90.7040  101.7770  -40.8970 C   0  0  0  0  0  3  0  0  0  0  0  0
   88.8640  100.2790  -42.2460 Cl  0  0  0  0  0  0  0  0  0  0  0  0
   91.9530  102.3180  -40.6700 C   0  0  0  0  0  3  0  0  0  0  0  0
   92.9520  101.9980  -41.5820 C   0  0  0  0  0  3  0  0  0  0  0  0
   92.7110  101.1780  -42.6620 C   0  0  0  0  0  3  0  0  0  0  0  0
  2  1  1  0  0  0  0
  3  2  1  0  0  0  0
  4  3  2  0  0  0  0
  5 10  2  0  0  0  0
  5  4  1  0  0  0  0
  6  5  1  0  0  0  0
  7  6  2  0  0  0  0
  7  8  1  0  0  0  0
  8  9  2  0  0  0  0
  9  4  1  0  0  0  0
  9 26  1  0  0  0  0
 10 11  1  0  0  0  0
 11  2  2  0  0  0  0
 12 13  1  0  0  0  0
 12  7  1  0  0  0  0
 13 14  1  0  0  0  0
 15 14  1  0  0  0  0
 15 17  1  0  0  0  0
 16 15  1  0  0  0  0
 17 19  2  0  0  0  0
 18 16  1  0  0  0  0
 18 12  1  0  0  0  0
 20 12  1  0  0  0  0
 21 17  1  0  0  0  0
 21 22  1  0  0  0  0
 22 23  1  0  0  0  0
 23 24  1  0  0  0  0
 25 23  2  0  0  0  0
 26 32  2  0  0  0  0
 26 27  1  0  0  0  0
 27 28  2  0  0  0  0
 28 30  1  0  0  0  0
 29 27  1  0  0  0  0
 31 30  2  0  0  0  0
 32 31  1  0  0  0  0
M  END
>  <Pose>
1

>  <Score>
-5.925

$$$$
