/Users/jonathanwahrer/Desktop/Msc/3_Semester/Drug_Design_Praktikum/waehrer_HTS_screening/HTS_experiment/out/docking_results/vina_output/4agl/0611_docked.pdbqt
 OpenBabel03202223343D

 33 36  0  0  0  0  0  0  0  0999 V2000
   85.8030   97.9820  -44.0640 Br  0  0  0  0  0  0  0  0  0  0  0  0
   87.2260   99.1490  -43.5440 C   0  0  0  0  0  0  0  0  0  0  0  0
   88.5380   98.7180  -43.4680 C   0  0  0  0  0  3  0  0  0  0  0  0
   89.5850   99.5340  -43.0970 C   0  0  0  0  0  0  0  0  0  0  0  0
   89.3410  100.8570  -42.7780 C   0  0  0  0  0  0  0  0  0  0  0  0
   90.3550  101.6750  -42.4020 N   0  0  0  0  0  0  0  0  0  0  0  0
   91.6290  101.2540  -42.3220 C   0  0  0  0  0  0  0  0  0  0  0  0
   91.8680   99.9670  -42.6340 N   0  0  0  0  0  0  0  0  0  0  0  0
   90.8910   99.1100  -43.0140 C   0  0  0  0  0  0  0  0  0  0  0  0
   88.0370  101.2950  -42.8510 C   0  0  0  0  0  3  0  0  0  0  0  0
   86.9860  100.4680  -43.2260 C   0  0  0  0  0  3  0  0  0  0  0  0
   92.6680  102.1410  -41.9240 N   0  0  0  0  0  4  0  0  0  0  0  0
   92.2190  103.5150  -41.9610 C   0  0  0  0  0  2  0  0  0  0  0  0
   93.1480  104.3410  -41.1300 C   0  0  0  0  0  2  0  0  0  0  0  0
   94.3540  103.5760  -40.8830 N   0  0  0  0  0  0  0  0  0  0  0  0
   94.9300  102.8640  -42.0100 C   0  0  0  0  0  2  0  0  0  0  0  0
   94.8980  103.5590  -39.5890 C   0  0  0  0  0  0  0  0  0  0  0  0
   93.8540  102.0460  -42.7340 C   0  0  0  0  0  2  0  0  0  0  0  0
   95.9410  102.8850  -39.4000 O   0  0  0  0  0  0  0  0  0  0  0  0
   92.9290  101.8890  -40.9480 H   0  0  0  0  0  0  0  0  0  0  0  0
   94.2960  104.2900  -38.4720 C   0  0  0  0  0  2  0  0  0  0  0  0
   93.7230  103.3220  -37.4770 C   0  0  0  0  0  2  0  0  0  0  0  0
   92.2640  103.5880  -37.1790 C   0  0  0  0  0  2  0  0  0  0  0  0
   91.3750  103.2820  -38.3170 C   0  0  0  0  0  0  0  0  0  0  0  0
   91.5430  102.1860  -38.9010 O   0  0  0  0  0  0  0  0  0  0  0  0
   90.4000  104.1890  -38.7010 O   0  0  0  0  0  1  0  0  0  0  0  0
   91.2050   97.7270  -43.3380 C   0  0  0  0  0  0  0  0  0  0  0  0
   91.2750   97.2790  -44.6480 C   0  0  0  0  0  0  0  0  0  0  0  0
   91.5530   95.9620  -44.9680 C   0  0  0  0  0  3  0  0  0  0  0  0
   90.9990   98.4170  -45.9570 Cl  0  0  0  0  0  0  0  0  0  0  0  0
   91.7690   95.0730  -43.9090 C   0  0  0  0  0  3  0  0  0  0  0  0
   91.7070   95.4850  -42.5950 C   0  0  0  0  0  3  0  0  0  0  0  0
   91.4300   96.7880  -42.3270 C   0  0  0  0  0  3  0  0  0  0  0  0
  1  2  1  0  0  0  0
  2  3  2  0  0  0  0
  2 11  1  0  0  0  0
  3  4  1  0  0  0  0
  4  9  1  0  0  0  0
  4  5  2  0  0  0  0
  5  6  1  0  0  0  0
  6  7  2  0  0  0  0
  7 12  1  0  0  0  0
  8  7  1  0  0  0  0
  9  8  2  0  0  0  0
 10  5  1  0  0  0  0
 11 10  2  0  0  0  0
 12 20  1  0  0  0  0
 13 12  1  0  0  0  0
 13 14  1  0  0  0  0
 14 15  1  0  0  0  0
 15 17  1  0  0  0  0
 16 15  1  0  0  0  0
 17 19  2  0  0  0  0
 17 21  1  0  0  0  0
 18 16  1  0  0  0  0
 18 12  1  0  0  0  0
 21 22  1  0  0  0  0
 22 23  1  0  0  0  0
 24 23  1  0  0  0  0
 25 24  2  0  0  0  0
 26 24  1  0  0  0  0
 27  9  1  0  0  0  0
 27 33  1  0  0  0  0
 28 27  2  0  0  0  0
 29 28  1  0  0  0  0
 29 31  2  0  0  0  0
 30 28  1  0  0  0  0
 31 32  1  0  0  0  0
 32 33  2  0  0  0  0
M  END
>  <Pose>
1

>  <Score>
-5.872

$$$$
