/Users/jonathanwahrer/Desktop/Msc/3_Semester/Drug_Design_Praktikum/waehrer_HTS_screening/HTS_experiment/out/docking_results/vina_output/4agl/0616_docked.pdbqt
 OpenBabel03202223343D

 28 31  0  0  0  0  0  0  0  0999 V2000
   90.6180   98.7150  -44.3760 C   0  0  0  0  0  0  0  0  0  0  0  0
   89.8750   99.2690  -45.2720 O   0  0  0  0  0  0  0  0  0  0  0  0
   91.0890   99.5620  -43.3720 N   0  0  0  0  0  0  0  0  0  0  0  0
   91.9420   99.1940  -42.2740 C   0  0  0  0  0  2  0  0  0  0  0  0
   92.3080  100.3990  -41.3970 C   0  0  0  0  0  2  0  0  0  0  0  0
   92.7430  101.4850  -42.2620 N   0  0  0  0  0  0  0  0  0  0  0  0
   91.9980  101.7840  -43.4860 C   0  0  0  0  0  2  0  0  0  0  0  0
   90.6900  100.9950  -43.3850 C   0  0  0  0  0  2  0  0  0  0  0  0
   93.8800  102.2610  -41.9460 C   0  0  0  0  0  0  0  0  0  0  0  0
   94.4960  101.9710  -40.8920 O   0  0  0  0  0  0  0  0  0  0  0  0
   90.8920   97.2960  -44.4890 C   0  0  0  0  0  0  0  0  0  0  0  0
   91.3940   96.4090  -43.6260 N   0  0  0  0  0  0  0  0  0  0  0  0
   91.4820   95.1650  -44.1900 C   0  0  0  0  0  0  0  0  0  0  0  0
   91.6910   96.5700  -42.6520 H   0  0  0  0  0  0  0  0  0  0  0  0
   91.0180   95.2400  -45.4740 C   0  0  0  0  0  0  0  0  0  0  0  0
   91.9280   93.9480  -43.7080 C   0  0  0  0  0  3  0  0  0  0  0  0
   91.0020   94.0940  -46.2740 C   0  0  0  0  0  3  0  0  0  0  0  0
   90.6540   96.5420  -45.6660 C   0  0  0  0  0  3  0  0  0  0  0  0
   91.4430   92.8850  -45.8040 C   0  0  0  0  0  0  0  0  0  0  0  0
   91.4260   91.3060  -46.8940 Br  0  0  0  0  0  0  0  0  0  0  0  0
   91.9090   92.8160  -44.5100 C   0  0  0  0  0  3  0  0  0  0  0  0
   94.2800  103.3380  -42.8370 C   0  0  0  0  0  2  0  0  0  0  0  0
   94.3050  104.6530  -42.2350 N   0  0  0  0  0  0  0  0  0  0  0  0
   92.9670  104.9690  -41.7280 C   0  0  0  0  0  2  0  0  0  0  0  0
   92.2040  105.7950  -42.7040 C   0  0  0  0  0  2  0  0  0  0  0  0
   92.5110  105.4230  -44.0110 O   0  0  0  0  0  0  0  0  0  0  0  0
   93.8150  105.7920  -44.3490 C   0  0  0  0  0  2  0  0  0  0  0  0
   94.7380  105.6890  -43.1570 C   0  0  0  0  0  2  0  0  0  0  0  0
  1  3  1  0  0  0  0
  2  1  2  0  0  0  0
  3  4  1  0  0  0  0
  4  5  1  0  0  0  0
  6  9  1  0  0  0  0
  6  5  1  0  0  0  0
  7  8  1  0  0  0  0
  7  6  1  0  0  0  0
  8  3  1  0  0  0  0
  9 10  2  0  0  0  0
 11  1  1  0  0  0  0
 11 12  1  0  0  0  0
 12 14  1  0  0  0  0
 13 16  1  0  0  0  0
 13 12  1  0  0  0  0
 15 13  2  0  0  0  0
 17 19  2  0  0  0  0
 17 15  1  0  0  0  0
 18 15  1  0  0  0  0
 18 11  2  0  0  0  0
 19 21  1  0  0  0  0
 20 19  1  0  0  0  0
 21 16  2  0  0  0  0
 22 23  1  0  0  0  0
 22  9  1  0  0  0  0
 23 24  1  0  0  0  0
 25 24  1  0  0  0  0
 26 25  1  0  0  0  0
 27 26  1  0  0  0  0
 27 28  1  0  0  0  0
 28 23  1  0  0  0  0
M  END
>  <Pose>
1

>  <Score>
-6.060

$$$$
