/Users/jonathanwahrer/Desktop/Msc/3_Semester/Drug_Design_Praktikum/waehrer_HTS_screening/HTS_experiment/out/docking_results/vina_output/4agl/0617_docked.pdbqt
 OpenBabel03202223343D

 25 28  0  0  0  0  0  0  0  0999 V2000
   91.4740   91.6540  -47.2440 Br  0  0  0  0  0  0  0  0  0  0  0  0
   91.5280   92.9570  -45.8580 C   0  0  0  0  0  0  0  0  0  0  0  0
   91.1900   94.2730  -46.0960 C   0  0  0  0  0  3  0  0  0  0  0  0
   91.2240   95.2300  -45.1020 C   0  0  0  0  0  0  0  0  0  0  0  0
   91.6130   94.8380  -43.8350 C   0  0  0  0  0  0  0  0  0  0  0  0
   91.5570   95.9510  -43.0810 N   0  0  0  0  0  0  0  0  0  0  0  0
   91.1510   97.0160  -43.8150 C   0  0  0  0  0  0  0  0  0  0  0  0
   90.9340   96.5770  -45.1040 C   0  0  0  0  0  0  0  0  0  0  0  0
   90.5210   97.4700  -46.0250 N   0  0  0  0  0  0  0  0  0  0  0  0
   90.3160   98.7660  -45.7220 C   0  0  0  0  0  3  0  0  0  0  0  0
   90.5180   99.2210  -44.4790 N   0  0  0  0  0  0  0  0  0  0  0  0
   90.9300   98.3480  -43.5470 C   0  0  0  0  0  0  0  0  0  0  0  0
   91.1260   98.7570  -42.3750 O   0  0  0  0  0  0  0  0  0  0  0  0
   91.9510   93.5160  -43.6110 C   0  0  0  0  0  3  0  0  0  0  0  0
   91.9200   92.5520  -44.5990 C   0  0  0  0  0  3  0  0  0  0  0  0
   91.7880   96.0130  -42.0720 H   0  0  0  0  0  0  0  0  0  0  0  0
   90.2980  100.6380  -44.1410 C   0  0  0  0  0  2  0  0  0  0  0  0
   91.5910  101.3230  -43.9180 C   0  0  0  0  0  2  0  0  0  0  0  0
   91.7020  102.1140  -42.7470 N   0  0  0  0  0  0  0  0  0  0  0  0
   92.9470  102.0270  -42.0660 C   0  0  0  0  0  2  0  0  0  0  0  0
   92.9390  101.0520  -40.9240 C   0  0  0  0  0  2  0  0  0  0  0  0
   91.6820  101.0460  -40.2070 N   0  0  0  0  0  0  0  0  0  0  0  0
   90.9040  102.2380  -40.4990 C   0  0  0  0  0  2  0  0  0  0  0  0
   91.1240  100.1820  -40.3920 H   0  0  0  0  0  0  0  0  0  0  0  0
   90.5240  102.1530  -41.9570 C   0  0  0  0  0  2  0  0  0  0  0  0
  1  2  1  0  0  0  0
  2 15  1  0  0  0  0
  3  2  2  0  0  0  0
  3  4  1  0  0  0  0
  4  5  2  0  0  0  0
  5 14  1  0  0  0  0
  5  6  1  0  0  0  0
  6 16  1  0  0  0  0
  7 12  1  0  0  0  0
  7  6  1  0  0  0  0
  8  4  1  0  0  0  0
  8  7  2  0  0  0  0
  9 10  2  0  0  0  0
  9  8  1  0  0  0  0
 10 11  1  0  0  0  0
 11 17  1  0  0  0  0
 11 12  1  0  0  0  0
 12 13  2  0  0  0  0
 15 14  2  0  0  0  0
 17 18  1  0  0  0  0
 18 19  1  0  0  0  0
 19 20  1  0  0  0  0
 19 25  1  0  0  0  0
 20 21  1  0  0  0  0
 21 22  1  0  0  0  0
 23 22  1  0  0  0  0
 24 22  1  0  0  0  0
 25 23  1  0  0  0  0
M  END
>  <Pose>
1

>  <Score>
-6.435

$$$$
