/Users/jonathanwahrer/Desktop/Msc/3_Semester/Drug_Design_Praktikum/waehrer_HTS_screening/HTS_experiment/out/docking_results/vina_output/4agl/0626_docked.pdbqt
 OpenBabel03202223353D

 32 35  0  0  0  0  0  0  0  0999 V2000
   91.2560   96.8470  -44.1560 N   0  0  0  0  0  0  0  0  0  0  0  0
   91.9030   97.9310  -44.7620 C   0  0  0  0  0  0  0  0  0  0  0  0
   92.6910   97.7410  -45.7230 O   0  0  0  0  0  0  0  0  0  0  0  0
   90.5940   97.1090  -43.3630 H   0  0  0  0  0  0  0  0  0  0  0  0
   91.7240   99.3270  -44.3470 C   0  0  0  0  0  2  0  0  0  0  0  0
   90.4230   99.7680  -44.0380 N   0  0  0  0  0  0  0  0  0  0  0  0
   90.0370   99.8230  -42.6750 C   0  0  0  0  0  2  0  0  0  0  0  0
   88.5170   99.8570  -42.5060 C   0  0  0  0  0  2  0  0  0  0  0  0
   88.0200  100.9190  -43.2720 N   0  0  0  0  0  0  0  0  0  0  0  0
   88.9050  101.6200  -44.1180 C   0  0  0  0  0  2  0  0  0  0  0  0
   89.9030  100.7970  -44.8750 C   0  0  0  0  0  2  0  0  0  0  0  0
   86.6510  100.9230  -43.5240 C   0  0  0  0  0  2  0  0  0  0  0  0
   86.0560   99.7670  -44.1950 C   0  0  0  0  0  0  0  0  0  0  0  0
   84.9870   99.3000  -43.6390 O   0  0  0  0  0  0  0  0  0  0  0  0
   86.4970   99.1190  -45.3440 N   0  0  0  0  0  0  0  0  0  0  0  0
   87.3460   99.4530  -45.8440 H   0  0  0  0  0  0  0  0  0  0  0  0
   85.8150   97.9670  -45.9260 C   0  0  0  0  0  3  0  0  0  0  0  0
   86.5280   97.0390  -46.8190 C   0  0  0  0  0  2  0  0  0  0  0  0
   86.1920   96.5950  -45.4080 C   0  0  0  0  0  2  0  0  0  0  0  0
   91.3720   95.4790  -44.4890 C   0  0  0  0  0  0  0  0  0  0  0  0
   91.7430   94.5760  -43.5050 C   0  0  0  0  0  0  0  0  0  0  0  0
   92.1010   95.2710  -41.7530 Br  0  0  0  0  0  0  0  0  0  0  0  0
   91.8730   93.2230  -43.7230 C   0  0  0  0  0  3  0  0  0  0  0  0
   91.6340   92.6910  -44.9660 C   0  0  0  0  0  0  0  0  0  0  0  0
   91.6630   91.4610  -45.5130 N   0  0  0  0  0  0  0  0  0  0  0  0
   91.2680   93.5640  -45.9510 C   0  0  0  0  0  0  0  0  0  0  0  0
   91.3280   91.5190  -46.8160 C   0  0  0  0  0  0  0  0  0  0  0  0
   91.0890   92.8190  -47.0610 N   0  0  0  0  0  0  0  0  0  0  0  0
   90.8000   93.2180  -47.9970 H   0  0  0  0  0  0  0  0  0  0  0  0
   91.1330   94.9430  -45.7340 C   0  0  0  0  0  3  0  0  0  0  0  0
   91.2480   90.4370  -47.7150 O   0  0  0  0  0  0  0  0  0  0  0  0
   90.3110   90.2610  -48.1030 H   0  0  0  0  0  0  0  0  0  0  0  0
  1  4  1  0  0  0  0
  2  5  1  0  0  0  0
  2  1  1  0  0  0  0
  3  2  2  0  0  0  0
  5  6  1  0  0  0  0
  6  7  1  0  0  0  0
  7  8  1  0  0  0  0
  9  8  1  0  0  0  0
 10  9  1  0  0  0  0
 11 10  1  0  0  0  0
 11  6  1  0  0  0  0
 12  9  1  0  0  0  0
 13 14  2  0  0  0  0
 13 12  1  0  0  0  0
 15 13  1  0  0  0  0
 16 15  1  0  0  0  0
 17 19  1  0  0  0  0
 17 15  1  0  0  0  0
 18 17  1  0  0  0  0
 18 19  1  0  0  0  0
 20  1  1  0  0  0  0
 20 21  1  0  0  0  0
 21 22  1  0  0  0  0
 23 21  2  0  0  0  0
 24 23  1  0  0  0  0
 25 24  1  0  0  0  0
 26 30  1  0  0  0  0
 26 24  2  0  0  0  0
 27 25  2  0  0  0  0
 28 27  1  0  0  0  0
 28 26  1  0  0  0  0
 29 28  1  0  0  0  0
 30 20  2  0  0  0  0
 31 27  1  0  0  0  0
 32 31  1  0  0  0  0
M  END
>  <Pose>
1

>  <Score>
-6.236

$$$$
