/Users/jonathanwahrer/Desktop/Msc/3_Semester/Drug_Design_Praktikum/waehrer_HTS_screening/HTS_experiment/out/docking_results/vina_output/4agl/0631_docked.pdbqt
 OpenBabel03202223353D

 29 32  0  0  1  0  0  0  0  0999 V2000
   91.0270   98.9460  -43.0210 N   0  0  0  0  0  0  0  0  0  0  0  0
   91.6250   97.8500  -43.8140 C   0  0  0  0  0  2  0  0  0  0  0  0
   90.7550   97.8180  -45.0610 C   0  0  2  0  0  3  0  0  0  0  0  0
   89.3960   98.2210  -44.5300 C   0  0  0  0  0  2  0  0  0  0  0  0
   89.6160   98.8610  -43.2080 C   0  0  0  0  0  0  0  0  0  0  0  0
   88.7550   99.2500  -42.4070 O   0  0  0  0  0  0  0  0  0  0  0  0
   90.8320   96.4350  -45.5580 C   0  0  0  0  0  0  0  0  0  0  0  0
   90.0690   96.0280  -46.4640 O   0  0  0  0  0  0  0  0  0  0  0  0
   91.8010   95.5700  -44.9810 N   0  0  0  0  0  0  0  0  0  0  0  0
   92.4070   95.9470  -44.2260 H   0  0  0  0  0  0  0  0  0  0  0  0
   91.9490   94.1980  -45.4160 C   0  0  0  0  0  2  0  0  0  0  0  0
   91.5630   93.2010  -44.3440 C   0  0  0  0  0  2  0  0  0  0  0  0
   92.1430   93.5800  -43.0410 C   0  0  0  0  0  0  0  0  0  0  0  0
   91.6590   94.5640  -42.2650 N   0  0  0  0  0  0  0  0  0  0  0  0
   92.3860   94.6690  -41.1520 C   0  0  0  0  0  3  0  0  0  0  0  0
   93.3660   93.7280  -41.2110 N   0  0  0  0  0  0  0  0  0  0  0  0
   93.2080   93.0720  -42.3640 C   0  0  0  0  0  3  0  0  0  0  0  0
   94.0740   93.6090  -40.4500 H   0  0  0  0  0  0  0  0  0  0  0  0
   91.8230   99.8450  -42.2870 C   0  0  0  0  0  0  0  0  0  0  0  0
   92.2600   99.7870  -41.0210 N   0  0  0  0  0  0  0  0  0  0  0  0
   92.9990  100.8510  -40.7210 N   0  0  0  0  0  0  0  0  0  0  0  0
   92.0680   99.0290  -40.3370 H   0  0  0  0  0  0  0  0  0  0  0  0
   93.0790  101.6620  -41.7900 C   0  0  0  0  0  0  0  0  0  0  0  0
   93.7090  102.8660  -42.0050 C   0  0  0  0  0  3  0  0  0  0  0  0
   92.3530  101.0540  -42.7780 C   0  0  0  0  0  0  0  0  0  0  0  0
   93.5820  103.4420  -43.2670 C   0  0  0  0  0  0  0  0  0  0  0  0
   94.4200  105.1160  -43.6740 Br  0  0  0  0  0  0  0  0  0  0  0  0
   92.8420  102.8120  -44.2570 C   0  0  0  0  0  3  0  0  0  0  0  0
   92.2210  101.6110  -44.0190 C   0  0  0  0  0  3  0  0  0  0  0  0
  1 19  1  0  0  0  0
  2  1  1  0  0  0  0
  3  7  1  1  0  0  0
  3  4  1  0  0  0  0
  3  2  1  0  0  0  0
  4  5  1  0  0  0  0
  5  1  1  0  0  0  0
  5  6  2  0  0  0  0
  7  9  1  0  0  0  0
  8  7  2  0  0  0  0
  9 10  1  0  0  0  0
 11  9  1  0  0  0  0
 11 12  1  0  0  0  0
 12 13  1  0  0  0  0
 13 17  2  0  0  0  0
 13 14  1  0  0  0  0
 14 15  2  0  0  0  0
 16 15  1  0  0  0  0
 16 18  1  0  0  0  0
 17 16  1  0  0  0  0
 19 20  1  0  0  0  0
 20 21  1  0  0  0  0
 20 22  1  0  0  0  0
 23 21  2  0  0  0  0
 24 23  1  0  0  0  0
 25 19  2  0  0  0  0
 25 23  1  0  0  0  0
 26 24  2  0  0  0  0
 27 26  1  0  0  0  0
 28 29  2  0  0  0  0
 28 26  1  0  0  0  0
 29 25  1  0  0  0  0
M  END
>  <Pose>
1

>  <Score>
-6.783

$$$$
