/Users/jonathanwahrer/Desktop/Msc/3_Semester/Drug_Design_Praktikum/waehrer_HTS_screening/HTS_experiment/out/docking_results/vina_output/4agl/0653_docked.pdbqt
 OpenBabel03202223363D

 29 32  0  0  0  0  0  0  0  0999 V2000
   91.4210   96.8570  -43.9270 C   0  0  0  0  0  0  0  0  0  0  0  0
   91.7930   96.8980  -42.6080 C   0  0  0  0  0  0  0  0  0  0  0  0
   92.1440   95.7480  -41.9250 C   0  0  0  0  0  0  0  0  0  0  0  0
   92.1290   94.5210  -42.5500 C   0  0  0  0  0  0  0  0  0  0  0  0
   91.7470   94.4640  -43.9040 C   0  0  0  0  0  0  0  0  0  0  0  0
   91.4010   95.6040  -44.5800 C   0  0  0  0  0  0  0  0  0  0  0  0
   91.0150   95.5330  -45.9910 C   0  0  0  0  0  2  0  0  0  0  0  0
   90.5530   94.2290  -46.5100 C   0  0  0  0  0  2  0  0  0  0  0  0
   91.2160   93.0830  -45.9020 N   0  0  0  0  0  0  0  0  0  0  0  0
   91.6650   93.1610  -44.5560 C   0  0  0  0  0  0  0  0  0  0  0  0
   91.9850   92.0940  -43.9500 O   0  0  0  0  0  0  0  0  0  0  0  0
   91.3620   91.9030  -46.7230 C   0  0  0  0  0  1  0  0  0  0  0  0
   92.4650   96.1370  -40.6390 O   0  0  0  0  0  0  0  0  0  0  0  0
   92.4990   97.5380  -40.5410 C   0  0  0  0  0  2  0  0  0  0  0  0
   91.8930   98.0110  -41.7410 O   0  0  0  0  0  0  0  0  0  0  0  0
   90.9980   98.0630  -44.6710 C   0  0  0  0  0  2  0  0  0  0  0  0
   91.7890   99.2390  -44.3600 N   0  0  0  0  0  0  0  0  0  0  0  0
   91.5160  100.5670  -44.6070 C   0  0  0  0  0  0  0  0  0  0  0  0
   90.4440  100.9310  -45.1900 O   0  0  0  0  0  0  0  0  0  0  0  0
   92.7060   99.0030  -43.8620 H   0  0  0  0  0  0  0  0  0  0  0  0
   92.4680  101.6360  -44.2010 C   0  0  0  0  0  2  0  0  0  0  0  0
   92.4620  101.6720  -42.7260 N   0  0  0  0  0  0  0  0  0  0  0  0
   93.4590  102.0280  -41.9240 C   0  0  0  0  0  3  0  0  0  0  0  0
   93.0230  101.9180  -40.6240 C   0  0  0  0  0  0  0  0  0  0  0  0
   94.0040  102.2850  -39.0270 Br  0  0  0  0  0  0  0  0  0  0  0  0
   91.7190  101.4790  -40.6550 C   0  0  0  0  0  3  0  0  0  0  0  0
   91.4260  101.3460  -41.9570 N   0  0  0  0  0  0  0  0  0  0  0  0
   92.4760   93.3500  -41.9000 O   0  0  0  0  0  0  0  0  0  0  0  0
   93.7930   93.1290  -41.4430 C   0  0  0  0  0  1  0  0  0  0  0  0
  1  2  1  0  0  0  0
  2  3  2  0  0  0  0
  2 15  1  0  0  0  0
  3 13  1  0  0  0  0
  4  3  1  0  0  0  0
  4 28  1  0  0  0  0
  5  4  2  0  0  0  0
  6  1  2  0  0  0  0
  6  5  1  0  0  0  0
  7  6  1  0  0  0  0
  8  7  1  0  0  0  0
  8  9  1  0  0  0  0
  9 10  1  0  0  0  0
 10 11  2  0  0  0  0
 10  5  1  0  0  0  0
 12  9  1  0  0  0  0
 13 14  1  0  0  0  0
 15 14  1  0  0  0  0
 16 17  1  0  0  0  0
 16  1  1  0  0  0  0
 17 20  1  0  0  0  0
 18 17  1  0  0  0  0
 18 21  1  0  0  0  0
 19 18  2  0  0  0  0
 21 22  1  0  0  0  0
 22 27  1  0  0  0  0
 22 23  1  0  0  0  0
 23 24  2  0  0  0  0
 24 25  1  0  0  0  0
 26 24  1  0  0  0  0
 27 26  2  0  0  0  0
 28 29  1  0  0  0  0
M  END
>  <Pose>
1

>  <Score>
-6.090

$$$$
