/Users/jonathanwahrer/Desktop/Msc/3_Semester/Drug_Design_Praktikum/waehrer_HTS_screening/HTS_experiment/out/docking_results/vina_output/4agl/0663_docked.pdbqt
 OpenBabel03202223363D

 28 31  0  0  1  0  0  0  0  0999 V2000
   91.2260  100.8210  -43.7710 C   0  0  0  0  0  0  0  0  0  0  0  0
   91.5140  101.4420  -44.8700 O   0  0  0  0  0  0  0  0  0  0  0  0
   90.9220  101.6280  -42.6880 N   0  0  0  0  0  0  0  0  0  0  0  0
   90.5090  101.3080  -41.3480 C   0  0  0  0  0  2  0  0  0  0  0  0
   91.7350  101.4290  -40.4630 C   0  0  0  0  0  2  0  0  0  0  0  0
   92.5930  102.5960  -40.9070 C   0  0  1  0  0  0  0  0  0  0  0  0
   93.1040  103.2290  -39.7110 N   0  0  0  0  0  0  0  0  0  0  0  0
   94.2800  102.5360  -39.3190 C   0  0  0  0  0  0  0  0  0  0  0  0
   94.8380  102.5220  -38.1740 O   0  0  0  0  0  0  0  0  0  0  0  0
   94.7460  101.8290  -40.4790 N   0  0  0  0  0  0  0  0  0  0  0  0
   93.8280  102.1170  -41.5560 C   0  0  0  0  0  0  0  0  0  0  0  0
   94.0960  101.9680  -42.7670 O   0  0  0  0  0  0  0  0  0  0  0  0
   91.8460  103.6180  -41.7020 C   0  0  0  0  0  2  0  0  0  0  0  0
   91.0800  103.1050  -42.8740 C   0  0  0  0  0  2  0  0  0  0  0  0
   92.7160  104.0440  -39.1980 H   0  0  0  0  0  0  0  0  0  0  0  0
   95.5810  101.2120  -40.5820 H   0  0  0  0  0  0  0  0  0  0  0  0
   91.2750   99.3800  -43.8710 C   0  0  0  0  0  0  0  0  0  0  0  0
   91.2610   98.7770  -45.1460 C   0  0  0  0  0  3  0  0  0  0  0  0
   91.3430   97.4220  -45.3250 C   0  0  0  0  0  3  0  0  0  0  0  0
   91.4460   96.5540  -44.2650 C   0  0  0  0  0  0  0  0  0  0  0  0
   91.4620   97.1130  -43.0160 C   0  0  0  0  0  3  0  0  0  0  0  0
   91.3800   98.5010  -42.8190 C   0  0  0  0  0  3  0  0  0  0  0  0
   91.5300   95.1530  -44.4810 N   0  0  0  0  0  0  0  0  0  0  0  0
   91.3870   94.4710  -45.6310 C   0  0  0  0  0  3  0  0  0  0  0  0
   91.5460   93.1240  -45.3870 C   0  0  0  0  0  0  0  0  0  0  0  0
   91.4470   91.6860  -46.6620 Br  0  0  0  0  0  0  0  0  0  0  0  0
   91.7920   93.0240  -44.0350 C   0  0  0  0  0  3  0  0  0  0  0  0
   91.7710   94.2620  -43.5430 N   0  0  0  0  0  0  0  0  0  0  0  0
  1  3  1  0  0  0  0
  2  1  2  0  0  0  0
  3  4  1  0  0  0  0
  4  5  1  0  0  0  0
  6 13  1  6  0  0  0
  6  5  1  0  0  0  0
  6  7  1  0  0  0  0
  7  8  1  0  0  0  0
  7 15  1  0  0  0  0
  8  9  2  0  0  0  0
 10  8  1  0  0  0  0
 11  6  1  0  0  0  0
 11 10  1  0  0  0  0
 12 11  2  0  0  0  0
 14  3  1  0  0  0  0
 14 13  1  0  0  0  0
 16 10  1  0  0  0  0
 17  1  1  0  0  0  0
 17 22  1  0  0  0  0
 18 17  2  0  0  0  0
 19 18  1  0  0  0  0
 19 20  2  0  0  0  0
 20 21  1  0  0  0  0
 21 22  2  0  0  0  0
 23 20  1  0  0  0  0
 23 28  1  0  0  0  0
 24 25  2  0  0  0  0
 24 23  1  0  0  0  0
 25 27  1  0  0  0  0
 26 25  1  0  0  0  0
 27 28  2  0  0  0  0
M  END
>  <Pose>
1

>  <Score>
-7.266

$$$$
