/Users/jonathanwahrer/Desktop/Msc/3_Semester/Drug_Design_Praktikum/waehrer_HTS_screening/HTS_experiment/out/docking_results/vina_output/4agl/0670_docked.pdbqt
 OpenBabel03202223373D

 23 27  0  0  1  0  0  0  0  0999 V2000
   90.3080   97.0500  -45.3010 C   0  0  0  0  0  2  0  0  0  0  0  0
   90.8100   97.8430  -44.1350 C   0  0  1  0  0  3  0  0  0  0  0  0
   91.1860   99.2820  -44.4290 C   0  0  2  0  0  3  0  0  0  0  0  0
   90.7330   99.5550  -43.0950 N   0  0  0  0  0  0  0  0  0  0  0  0
   89.7320   98.5520  -43.3230 C   0  0  2  0  0  3  0  0  0  0  0  0
   91.1080  100.4140  -42.0570 C   0  0  0  0  0  0  0  0  0  0  0  0
   90.3680  101.4640  -41.6420 N   0  0  0  0  0  0  0  0  0  0  0  0
   90.7040  102.2910  -40.6600 C   0  0  0  0  0  3  0  0  0  0  0  0
   91.8890  102.0990  -39.9880 C   0  0  0  0  0  0  0  0  0  0  0  0
   92.4020  103.2740  -38.5680 Br  0  0  0  0  0  0  0  0  0  0  0  0
   92.6740  101.0360  -40.3830 C   0  0  0  0  0  3  0  0  0  0  0  0
   92.2830  100.2290  -41.3850 N   0  0  0  0  0  0  0  0  0  0  0  0
   90.8100   95.7080  -45.1730 N   0  0  0  0  0  0  0  0  0  0  0  0
   91.4760   95.3110  -44.0140 N   0  0  0  0  0  0  0  0  0  0  0  0
   91.9880   93.9970  -43.8420 C   0  0  0  0  0  0  0  0  0  0  0  0
   91.5860   96.0410  -43.2510 H   0  0  0  0  0  0  0  0  0  0  0  0
   92.6100   93.6740  -42.7240 C   0  0  0  0  0  0  0  0  0  0  0  0
   91.8320   93.0080  -44.8900 C   0  0  0  0  0  3  0  0  0  0  0  0
   93.1590   93.8990  -41.3720 C   0  0  0  0  0  2  0  0  0  0  0  0
   93.3240   92.5780  -41.9580 C   0  0  0  0  0  2  0  0  0  0  0  0
   91.2040   93.3620  -46.0000 C   0  0  0  0  0  3  0  0  0  0  0  0
   90.6660   94.7250  -46.1880 C   0  0  0  0  0  0  0  0  0  0  0  0
   90.0720   95.0370  -47.2540 O   0  0  0  0  0  0  0  0  0  0  0  0
  1 13  1  0  0  0  0
  2  1  1  6  0  0  0
  2  5  1  0  0  0  0
  3  2  1  0  0  0  0
  3  5  1  0  0  0  0
  3  4  1  1  0  0  0
  4  6  1  0  0  0  0
  5  4  1  1  0  0  0
  6  7  2  0  0  0  0
  6 12  1  0  0  0  0
  7  8  1  0  0  0  0
  8  9  2  0  0  0  0
  9 10  1  0  0  0  0
 11  9  1  0  0  0  0
 12 11  2  0  0  0  0
 13 14  1  0  0  0  0
 14 15  1  0  0  0  0
 14 16  1  0  0  0  0
 15 17  2  0  0  0  0
 17 20  1  0  0  0  0
 17 19  1  0  0  0  0
 18 15  1  0  0  0  0
 20 19  1  0  0  0  0
 21 18  2  0  0  0  0
 22 21  1  0  0  0  0
 22 13  1  0  0  0  0
 23 22  2  0  0  0  0
M  END
>  <Pose>
1

>  <Score>
-6.525

$$$$
