/Users/jonathanwahrer/Desktop/Msc/3_Semester/Drug_Design_Praktikum/waehrer_HTS_screening/HTS_experiment/out/docking_results/vina_output/4agl/0683_docked.pdbqt
 OpenBabel03202223373D

 10 10  0  0  0  0  0  0  0  0999 V2000
   91.5110   91.7100  -46.6020 Br  0  0  0  0  0  0  0  0  0  0  0  0
   91.5130   93.2150  -45.4610 C   0  0  0  0  0  0  0  0  0  0  0  0
   91.2070   94.4660  -45.9730 C   0  0  0  0  0  3  0  0  0  0  0  0
   91.2220   95.5030  -45.1230 N   0  0  0  0  0  0  0  0  0  0  0  0
   91.5130   95.4000  -43.8170 C   0  0  0  0  0  3  0  0  0  0  0  0
   91.8150   94.1570  -43.3190 C   0  0  0  0  0  0  0  0  0  0  0  0
   91.8220   93.0340  -44.1300 C   0  0  0  0  0  3  0  0  0  0  0  0
   92.1360   94.0040  -41.9090 C   0  0  0  0  0  0  0  0  0  0  0  0
   91.3490   94.4380  -41.0210 O   0  0  0  0  0  1  0  0  0  0  0  0
   93.3030   93.3850  -41.4980 O   0  0  0  0  0  0  0  0  0  0  0  0
  1  2  1  0  0  0  0
  2  7  1  0  0  0  0
  3  2  2  0  0  0  0
  3  4  1  0  0  0  0
  4  5  2  0  0  0  0
  5  6  1  0  0  0  0
  6  8  1  0  0  0  0
  7  6  2  0  0  0  0
  8 10  2  0  0  0  0
  8  9  1  0  0  0  0
M  END
>  <Pose>
1

>  <Score>
-4.640

$$$$
