/Users/jonathanwahrer/Desktop/Msc/3_Semester/Drug_Design_Praktikum/waehrer_HTS_screening/HTS_experiment/out/docking_results/vina_output/4agl/0696_docked.pdbqt
 OpenBabel03202223383D

 28 31  0  0  1  0  0  0  0  0999 V2000
   91.7760   94.6740  -41.2710 Br  0  0  0  0  0  0  0  0  0  0  0  0
   91.5880   94.8660  -43.1500 C   0  0  0  0  0  0  0  0  0  0  0  0
   91.4800   96.1510  -43.6990 C   0  0  0  0  0  0  0  0  0  0  0  0
   91.3520   96.3510  -45.0390 C   0  0  0  0  0  0  0  0  0  0  0  0
   91.3270   95.2470  -45.8740 C   0  0  0  0  0  3  0  0  0  0  0  0
   91.4340   93.9680  -45.3380 C   0  0  0  0  0  0  0  0  0  0  0  0
   91.5640   93.7700  -43.9830 C   0  0  0  0  0  3  0  0  0  0  0  0
   91.4110   92.7540  -46.2020 C   0  0  0  0  0  1  0  0  0  0  0  0
   91.2820   97.7270  -45.6030 C   0  0  1  0  0  3  0  0  0  0  0  0
   90.6620   98.7690  -44.7430 C   0  0  0  0  0  0  0  0  0  0  0  0
   90.5000   98.2660  -43.2880 C   0  0  0  0  0  2  0  0  0  0  0  0
   91.4910   97.3130  -42.9410 O   0  0  0  0  0  0  0  0  0  0  0  0
   89.2360   99.0950  -45.1420 C   0  0  0  0  0  2  0  0  0  0  0  0
   88.2380   98.1960  -44.6020 N   0  0  0  0  0  4  0  0  0  0  0  0
   87.6650   97.3950  -45.6840 C   0  0  0  0  0  2  0  0  0  0  0  0
   86.3200   96.9450  -45.2500 C   0  0  0  0  0  2  0  0  0  0  0  0
   86.0690   97.7070  -43.9930 C   0  0  0  0  0  2  0  0  0  0  0  0
   87.0410   98.8840  -44.1510 C   0  0  0  0  0  2  0  0  0  0  0  0
   88.5510   97.6040  -43.8190 H   0  0  0  0  0  0  0  0  0  0  0  0
   91.5160   99.9720  -44.6010 C   0  0  0  0  0  2  0  0  0  0  0  0
   91.6150  100.8640  -43.5660 N   0  0  0  0  0  4  0  0  0  0  0  0
   93.0330  101.2250  -43.3370 C   0  0  0  0  0  2  0  0  0  0  0  0
   93.0440  102.6390  -42.9030 C   0  0  0  0  0  2  0  0  0  0  0  0
   91.8020  103.2530  -43.4230 C   0  0  0  0  0  2  0  0  0  0  0  0
   90.8720  102.0550  -43.6060 C   0  0  0  0  0  2  0  0  0  0  0  0
   91.4200  100.3680  -42.5880 H   0  0  0  0  0  0  0  0  0  0  0  0
   92.6420   97.9920  -45.9260 O   0  0  0  0  0  0  0  0  0  0  0  0
   92.9760   97.3660  -46.5910 H   0  0  0  0  0  0  0  0  0  0  0  0
  2  1  1  0  0  0  0
  3  2  1  0  0  0  0
  3 12  1  0  0  0  0
  4  3  2  0  0  0  0
  5  6  2  0  0  0  0
  5  4  1  0  0  0  0
  6  7  1  0  0  0  0
  7  2  2  0  0  0  0
  8  6  1  0  0  0  0
  9 27  1  1  0  0  0
  9  4  1  0  0  0  0
  9 10  1  0  0  0  0
 10 20  1  0  0  0  0
 10 11  1  0  0  0  0
 11 12  1  0  0  0  0
 13 10  1  0  0  0  0
 13 14  1  0  0  0  0
 14 18  1  0  0  0  0
 14 19  1  0  0  0  0
 15 16  1  0  0  0  0
 15 14  1  0  0  0  0
 16 17  1  0  0  0  0
 18 17  1  0  0  0  0
 20 21  1  0  0  0  0
 21 22  1  0  0  0  0
 21 26  1  0  0  0  0
 22 23  1  0  0  0  0
 24 23  1  0  0  0  0
 25 21  1  0  0  0  0
 25 24  1  0  0  0  0
 28 27  1  0  0  0  0
M  END
>  <Pose>
1

>  <Score>
-6.428

$$$$
