/Users/jonathanwahrer/Desktop/Msc/3_Semester/Drug_Design_Praktikum/waehrer_HTS_screening/HTS_experiment/out/docking_results/vina_output/4agl/0699_docked.pdbqt
 OpenBabel03202223393D

 32 35  0  0  1  0  0  0  0  0999 V2000
   91.1520  101.0420  -44.0610 C   0  0  2  0  0  3  0  0  0  0  0  0
   90.3450   99.9470  -44.7120 C   0  0  0  0  0  2  0  0  0  0  0  0
   90.2100   98.8160  -43.8740 O   0  0  0  0  0  0  0  0  0  0  0  0
   90.3980   97.5600  -44.4480 C   0  0  0  0  0  0  0  0  0  0  0  0
   91.1260   96.5710  -43.8150 C   0  0  0  0  0  0  0  0  0  0  0  0
   91.8770   96.9680  -42.1130 Br  0  0  0  0  0  0  0  0  0  0  0  0
   91.3230   95.3210  -44.3670 C   0  0  0  0  0  0  0  0  0  0  0  0
   90.7900   95.0050  -45.5990 C   0  0  0  0  0  0  0  0  0  0  0  0
   92.0530   94.3340  -43.7270 C   0  0  0  0  0  3  0  0  0  0  0  0
   90.0610   95.9860  -46.2390 C   0  0  0  0  0  3  0  0  0  0  0  0
   90.9880   93.7500  -46.1510 C   0  0  0  0  0  3  0  0  0  0  0  0
   89.8680   97.2340  -45.6800 C   0  0  0  0  0  3  0  0  0  0  0  0
   91.7160   92.7680  -45.5120 C   0  0  0  0  0  3  0  0  0  0  0  0
   92.2510   93.0830  -44.2790 C   0  0  0  0  0  3  0  0  0  0  0  0
   91.0840  102.2350  -44.7340 O   0  0  0  0  0  0  0  0  0  0  0  0
   90.4730  102.2470  -45.4920 H   0  0  0  0  0  0  0  0  0  0  0  0
   92.5560  100.6000  -43.8280 C   0  0  0  0  0  2  0  0  0  0  0  0
   93.0300  100.8410  -42.4840 N   0  0  0  0  0  4  0  0  0  0  0  0
   91.8570  100.9430  -41.6350 C   0  0  0  0  0  2  0  0  0  0  0  0
   92.2080  101.4490  -40.2280 C   0  0  0  0  0  2  0  0  0  0  0  0
   92.8540  102.7070  -40.3420 N   0  0  0  0  0  0  0  0  0  0  0  0
   93.0760  103.1660  -41.7300 C   0  0  0  0  0  2  0  0  0  0  0  0
   93.2710  103.5030  -39.2690 C   0  0  0  0  0  0  0  0  0  0  0  0
   93.7860  102.0840  -42.4740 C   0  0  0  0  0  2  0  0  0  0  0  0
   93.8490  104.6310  -39.6510 O   0  0  0  0  0  0  0  0  0  0  0  0
   93.6270  100.0750  -42.1060 H   0  0  0  0  0  0  0  0  0  0  0  0
   93.1930  103.3270  -37.8550 C   0  0  0  0  0  0  0  0  0  0  0  0
   92.1210  103.6010  -37.0540 C   0  0  0  0  0  3  0  0  0  0  0  0
   92.1110  103.4070  -35.6800 C   0  0  0  0  0  3  0  0  0  0  0  0
   93.2120  102.9170  -35.0530 C   0  0  0  0  0  3  0  0  0  0  0  0
   94.3120  102.6300  -35.8350 C   0  0  0  0  0  3  0  0  0  0  0  0
   94.3220  102.8220  -37.1930 C   0  0  0  0  0  3  0  0  0  0  0  0
  1  2  1  6  0  0  0
  1 17  1  0  0  0  0
  2  3  1  0  0  0  0
  4  3  1  0  0  0  0
  4  5  1  0  0  0  0
  5  6  1  0  0  0  0
  7  5  2  0  0  0  0
  7  9  1  0  0  0  0
  8  7  1  0  0  0  0
 10 12  1  0  0  0  0
 10  8  2  0  0  0  0
 11  8  1  0  0  0  0
 11 13  2  0  0  0  0
 12  4  2  0  0  0  0
 13 14  1  0  0  0  0
 14  9  2  0  0  0  0
 15  1  1  0  0  0  0
 16 15  1  0  0  0  0
 17 18  1  0  0  0  0
 18 24  1  0  0  0  0
 18 26  1  0  0  0  0
 18 19  1  0  0  0  0
 19 20  1  0  0  0  0
 21 20  1  0  0  0  0
 21 23  1  0  0  0  0
 22 21  1  0  0  0  0
 23 27  1  0  0  0  0
 24 22  1  0  0  0  0
 25 23  2  0  0  0  0
 27 32  2  0  0  0  0
 27 28  1  0  0  0  0
 28 29  2  0  0  0  0
 29 30  1  0  0  0  0
 31 30  2  0  0  0  0
 32 31  1  0  0  0  0
M  END
>  <Pose>
1

>  <Score>
-6.621

$$$$
