/Users/jonathanwahrer/Desktop/Msc/3_Semester/Drug_Design_Praktikum/waehrer_HTS_screening/HTS_experiment/out/docking_results/vina_output/4agl/0709_docked.pdbqt
 OpenBabel03202223393D

 30 33  0  0  0  0  0  0  0  0999 V2000
   91.6010   99.7590  -44.7340 C   0  0  0  0  0  2  0  0  0  0  0  0
   91.6910   98.7570  -43.7290 N   0  0  0  0  0  0  0  0  0  0  0  0
   91.9090   98.9880  -42.4130 C   0  0  0  0  0  0  0  0  0  0  0  0
   92.1140  100.7420  -41.6860 Br  0  0  0  0  0  0  0  0  0  0  0  0
   91.9490   97.8180  -41.7570 N   0  0  0  0  0  0  0  0  0  0  0  0
   91.7610   96.7980  -42.6240 C   0  0  0  0  0  0  0  0  0  0  0  0
   91.6000   97.4130  -43.8630 C   0  0  0  0  0  0  0  0  0  0  0  0
   91.7160   95.4590  -42.5030 N   0  0  0  0  0  0  0  0  0  0  0  0
   91.4000   96.5710  -44.9310 C   0  0  0  0  0  0  0  0  0  0  0  0
   91.3560   95.2200  -44.8030 N   0  0  0  0  0  0  0  0  0  0  0  0
   91.2570   97.1170  -46.0640 O   0  0  0  0  0  0  0  0  0  0  0  0
   91.5160   94.6810  -43.5810 C   0  0  0  0  0  0  0  0  0  0  0  0
   91.2000   94.6350  -45.6510 H   0  0  0  0  0  0  0  0  0  0  0  0
   91.4710   93.4140  -43.4740 O   0  0  0  0  0  0  0  0  0  0  0  0
   91.8810   94.8130  -41.2200 C   0  0  0  0  0  1  0  0  0  0  0  0
   90.3170  100.5030  -44.8360 C   0  0  0  0  0  2  0  0  0  0  0  0
   89.2030   99.8470  -45.4240 N   0  0  0  0  0  0  0  0  0  0  0  0
   88.1460   99.3030  -44.7990 C   0  0  0  0  0  0  0  0  0  0  0  0
   87.2970   98.7600  -45.7400 C   0  0  0  0  0  0  0  0  0  0  0  0
   87.7510   99.1870  -43.4750 C   0  0  0  0  0  0  0  0  0  0  0  0
   87.8920   99.0090  -46.9250 N   0  0  0  0  0  0  0  0  0  0  0  0
   86.1670   98.1640  -45.3620 N   0  0  0  0  0  0  0  0  0  0  0  0
   89.0380   99.6610  -46.7670 C   0  0  0  0  0  0  0  0  0  0  0  0
   90.2560  100.2450  -48.1410 Br  0  0  0  0  0  0  0  0  0  0  0  0
   85.8420   98.0840  -44.0690 C   0  0  0  0  0  0  0  0  0  0  0  0
   85.2690   97.5910  -46.3370 C   0  0  0  0  0  1  0  0  0  0  0  0
   84.7690   97.5180  -43.6760 O   0  0  0  0  0  0  0  0  0  0  0  0
   86.6160   98.5880  -43.0910 N   0  0  0  0  0  0  0  0  0  0  0  0
   86.3310   98.5080  -42.0820 H   0  0  0  0  0  0  0  0  0  0  0  0
   88.4760   99.6620  -42.5730 O   0  0  0  0  0  0  0  0  0  0  0  0
  1  2  1  0  0  0  0
  2  3  1  0  0  0  0
  3  5  2  0  0  0  0
  3  4  1  0  0  0  0
  6  8  1  0  0  0  0
  6  5  1  0  0  0  0
  7  2  1  0  0  0  0
  7  6  2  0  0  0  0
  8 15  1  0  0  0  0
  9 10  1  0  0  0  0
  9  7  1  0  0  0  0
 10 12  1  0  0  0  0
 11  9  2  0  0  0  0
 12 14  2  0  0  0  0
 12  8  1  0  0  0  0
 13 10  1  0  0  0  0
 16  1  1  0  0  0  0
 17 16  1  0  0  0  0
 17 18  1  0  0  0  0
 18 20  1  0  0  0  0
 19 22  1  0  0  0  0
 19 18  2  0  0  0  0
 20 28  1  0  0  0  0
 20 30  2  0  0  0  0
 21 23  2  0  0  0  0
 21 19  1  0  0  0  0
 22 25  1  0  0  0  0
 23 17  1  0  0  0  0
 24 23  1  0  0  0  0
 25 27  2  0  0  0  0
 25 28  1  0  0  0  0
 26 22  1  0  0  0  0
 28 29  1  0  0  0  0
M  END
>  <Pose>
1

>  <Score>
-6.346

$$$$
