/Users/jonathanwahrer/Desktop/Msc/3_Semester/Drug_Design_Praktikum/waehrer_HTS_screening/HTS_experiment/out/docking_results/vina_output/4agl/0723_docked.pdbqt
 OpenBabel03202223403D

 23 26  0  0  1  0  0  0  0  0999 V2000
   91.3530   98.8630  -45.5800 N   0  0  0  0  0  0  0  0  0  0  0  0
   90.2020   99.7090  -45.5660 C   0  0  1  0  0  3  0  0  0  0  0  0
   90.2100  100.7320  -46.6370 C   0  0  0  0  0  2  0  0  0  0  0  0
   91.3660  100.8800  -47.3540 O   0  0  0  0  0  0  0  0  0  0  0  0
   92.5110  100.7200  -46.5820 C   0  0  0  0  0  2  0  0  0  0  0  0
   92.6290   99.3400  -46.0190 C   0  0  0  0  0  2  0  0  0  0  0  0
   91.3000   97.4990  -45.1360 C   0  0  0  0  0  0  0  0  0  0  0  0
   91.0820   96.5150  -46.0620 N   0  0  0  0  0  0  0  0  0  0  0  0
   91.0760   95.2170  -45.7110 C   0  0  0  0  0  3  0  0  0  0  0  0
   91.2870   94.8500  -44.4340 N   0  0  0  0  0  0  0  0  0  0  0  0
   91.5060   95.7560  -43.4750 C   0  0  0  0  0  0  0  0  0  0  0  0
   91.7200   95.6250  -42.1530 N   0  0  0  0  0  0  0  0  0  0  0  0
   91.5100   97.1070  -43.8440 C   0  0  0  0  0  0  0  0  0  0  0  0
   91.8570   96.8430  -41.6820 N   0  0  0  0  0  0  0  0  0  0  0  0
   91.7900   94.3960  -41.3840 C   0  0  0  0  0  1  0  0  0  0  0  0
   91.7380   97.7670  -42.6610 C   0  0  0  0  0  0  0  0  0  0  0  0
   91.8210   99.6600  -42.4750 Br  0  0  0  0  0  0  0  0  0  0  0  0
   88.9470   98.9260  -45.5050 C   0  0  0  0  0  0  0  0  0  0  0  0
   88.1320   98.8330  -44.4540 N   0  0  0  0  0  0  0  0  0  0  0  0
   87.1080   98.0150  -44.8320 C   0  0  0  0  0  0  0  0  0  0  0  0
   87.3600   97.6520  -46.1030 N   0  0  0  0  0  0  0  0  0  0  0  0
   85.9430   97.6000  -44.0180 C   0  0  0  0  0  1  0  0  0  0  0  0
   88.4710   98.2120  -46.4830 O   0  0  0  0  0  0  0  0  0  0  0  0
  1  2  1  0  0  0  0
  1  7  1  0  0  0  0
  2 18  1  6  0  0  0
  3  2  1  0  0  0  0
  4  3  1  0  0  0  0
  4  5  1  0  0  0  0
  5  6  1  0  0  0  0
  6  1  1  0  0  0  0
  7 13  1  0  0  0  0
  8  9  1  0  0  0  0
  8  7  2  0  0  0  0
  9 10  2  0  0  0  0
 10 11  1  0  0  0  0
 11 12  1  0  0  0  0
 12 14  1  0  0  0  0
 12 15  1  0  0  0  0
 13 11  2  0  0  0  0
 13 16  1  0  0  0  0
 16 17  1  0  0  0  0
 16 14  2  0  0  0  0
 18 19  2  0  0  0  0
 20 19  1  0  0  0  0
 20 22  1  0  0  0  0
 21 20  2  0  0  0  0
 23 21  1  0  0  0  0
 23 18  1  0  0  0  0
M  END
>  <Pose>
1

>  <Score>
-5.894

$$$$
