/Users/jonathanwahrer/Desktop/Msc/3_Semester/Drug_Design_Praktikum/waehrer_HTS_screening/HTS_experiment/out/docking_results/vina_output/4agl/0727_docked.pdbqt
 OpenBabel03202223403D

 21 24  0  0  0  0  0  0  0  0999 V2000
   90.6790   99.1910  -46.2000 Br  0  0  0  0  0  0  0  0  0  0  0  0
   90.9740   97.5160  -45.3470 C   0  0  0  0  0  0  0  0  0  0  0  0
   90.8890   96.2890  -45.9400 N   0  0  0  0  0  0  0  0  0  0  0  0
   91.1770   95.3700  -45.0490 N   0  0  0  0  0  0  0  0  0  0  0  0
   91.4540   95.9480  -43.8690 C   0  0  0  0  0  0  0  0  0  0  0  0
   91.8110   95.4770  -42.6640 N   0  0  0  0  0  0  0  0  0  0  0  0
   92.0460   96.2850  -41.6330 C   0  0  0  0  0  3  0  0  0  0  0  0
   91.9270   97.6000  -41.7870 N   0  0  0  0  0  0  0  0  0  0  0  0
   91.5670   98.1880  -42.9760 C   0  0  0  0  0  0  0  0  0  0  0  0
   91.3310   97.3390  -44.0270 C   0  0  0  0  0  0  0  0  0  0  0  0
   91.2150   93.9120  -45.2310 C   0  0  0  0  0  1  0  0  0  0  0  0
   91.4160   99.5710  -43.0760 N   0  0  0  0  0  0  0  0  0  0  0  0
   90.1510  100.2110  -42.7860 C   0  0  0  0  0  2  0  0  0  0  0  0
   90.3140  100.9570  -41.4450 C   0  0  0  0  0  2  0  0  0  0  0  0
   91.6720  101.5400  -41.3730 C   0  0  0  0  0  0  0  0  0  0  0  0
   92.1480  102.3730  -40.4190 N   0  0  0  0  0  0  0  0  0  0  0  0
   92.6920  101.3460  -42.2550 C   0  0  0  0  0  0  0  0  0  0  0  0
   93.4230  102.6650  -40.7300 C   0  0  0  0  0  3  0  0  0  0  0  0
   91.4640  102.8860  -39.2600 C   0  0  0  0  0  1  0  0  0  0  0  0
   93.7770  102.0450  -41.8540 N   0  0  0  0  0  0  0  0  0  0  0  0
   92.4860  100.4680  -43.4320 C   0  0  0  0  0  2  0  0  0  0  0  0
  1  2  1  0  0  0  0
  2 10  1  0  0  0  0
  3  2  2  0  0  0  0
  3  4  1  0  0  0  0
  4  5  1  0  0  0  0
  5  6  1  0  0  0  0
  6  7  2  0  0  0  0
  8  7  1  0  0  0  0
  9  8  2  0  0  0  0
 10  5  2  0  0  0  0
 10  9  1  0  0  0  0
 11  4  1  0  0  0  0
 12  9  1  0  0  0  0
 12 13  1  0  0  0  0
 13 14  1  0  0  0  0
 14 15  1  0  0  0  0
 15 16  1  0  0  0  0
 16 19  1  0  0  0  0
 17 20  1  0  0  0  0
 17 15  2  0  0  0  0
 18 16  1  0  0  0  0
 20 18  2  0  0  0  0
 21 12  1  0  0  0  0
 21 17  1  0  0  0  0
M  END
>  <Pose>
1

>  <Score>
-5.521

$$$$
