/Users/jonathanwahrer/Desktop/Msc/3_Semester/Drug_Design_Praktikum/waehrer_HTS_screening/HTS_experiment/out/docking_results/vina_output/4agl/0737_docked.pdbqt
 OpenBabel03202223403D

 21 24  0  0  1  0  0  0  0  0999 V2000
   91.4240   95.7690  -44.5590 C   0  0  2  0  0  3  0  0  0  0  0  0
   91.3800   94.8180  -45.4640 C   0  0  0  0  0  3  0  0  0  0  0  0
   91.5370   93.4000  -45.1050 C   0  0  0  0  0  0  0  0  0  0  0  0
   91.4960   92.4330  -46.0050 C   0  0  0  0  0  1  0  0  0  0  0  0
   91.7360   93.1420  -43.7240 N   0  0  0  0  0  0  0  0  0  0  0  0
   91.7810   94.1940  -42.7500 C   0  0  0  0  0  0  0  0  0  0  0  0
   91.6240   95.4710  -43.1910 N   0  0  0  0  0  0  0  0  0  0  0  0
   91.7060   96.2420  -42.1010 N   0  0  0  0  0  0  0  0  0  0  0  0
   91.9060   95.5020  -41.0010 C   0  0  0  0  0  3  0  0  0  0  0  0
   91.9510   94.2260  -41.4170 N   0  0  0  0  0  0  0  0  0  0  0  0
   91.8550   92.1570  -43.4050 H   0  0  0  0  0  0  0  0  0  0  0  0
   91.2670   97.1100  -44.9580 N   0  0  2  0  0  0  0  0  0  0  0  0
   92.4570   97.8730  -45.2450 C   0  0  0  0  0  2  0  0  0  0  0  0
   92.1440   98.9880  -46.1880 C   0  0  0  0  0  0  0  0  0  0  0  0
   90.9400   99.5560  -46.1920 N   0  0  0  0  0  0  0  0  0  0  0  0
   92.8860   99.6170  -47.1360 N   0  0  0  0  0  0  0  0  0  0  0  0
   90.9060  100.5240  -47.1150 C   0  0  0  0  0  0  0  0  0  0  0  0
   89.8920   99.1210  -45.2910 C   0  0  0  0  0  2  0  0  0  0  0  0
   89.4440  101.6770  -47.5720 Br  0  0  0  0  0  0  0  0  0  0  0  0
   92.1420  100.5710  -47.7250 C   0  0  0  0  0  3  0  0  0  0  0  0
   89.9270   97.6400  -45.0530 C   0  0  0  0  0  2  0  0  0  0  0  0
  1  2  1  1  0  0  0
  1  7  1  0  0  0  0
  2  3  2  0  0  0  0
  3  5  1  0  0  0  0
  4  3  1  0  0  0  0
  5 11  1  0  0  0  0
  5  6  1  0  0  0  0
  6 10  2  0  0  0  0
  7  6  1  0  0  0  0
  7  8  1  0  0  0  0
  8  9  2  0  0  0  0
 10  9  1  0  0  0  0
 12 13  1  1  0  0  0
 12  1  1  0  0  0  0
 14 13  1  0  0  0  0
 15 14  1  0  0  0  0
 15 18  1  0  0  0  0
 16 14  2  0  0  0  0
 17 15  1  0  0  0  0
 18 21  1  0  0  0  0
 19 17  1  0  0  0  0
 20 16  1  0  0  0  0
 20 17  2  0  0  0  0
 21 12  1  0  0  0  0
M  END
>  <Pose>
1

>  <Score>
-6.517

$$$$
