/Users/jonathanwahrer/Desktop/Msc/3_Semester/Drug_Design_Praktikum/waehrer_HTS_screening/HTS_experiment/out/docking_results/vina_output/4agl/0754_docked.pdbqt
 OpenBabel03202223413D

 27 30  0  0  0  0  0  0  0  0999 V2000
   91.7170   96.5560  -42.3220 C   0  0  0  0  0  0  0  0  0  0  0  0
   91.7830   96.6850  -41.0910 O   0  0  0  0  0  0  0  0  0  0  0  0
   91.5610   97.6990  -43.1440 N   0  0  0  0  0  0  0  0  0  0  0  0
   91.4810   99.0140  -42.5410 C   0  0  0  0  0  2  0  0  0  0  0  0
   90.1760   99.7050  -42.8510 C   0  0  0  0  0  2  0  0  0  0  0  0
   89.7370   99.1960  -44.1610 N   0  0  0  0  0  0  0  0  0  0  0  0
   90.7670   98.9260  -45.1050 C   0  0  0  0  0  2  0  0  0  0  0  0
   91.4710   97.6560  -44.5910 C   0  0  0  0  0  2  0  0  0  0  0  0
   88.3430   99.0280  -44.3470 C   0  0  0  0  0  0  0  0  0  0  0  0
   87.4560  100.0010  -43.9980 N   0  0  0  0  0  0  0  0  0  0  0  0
   86.1330   99.8550  -44.1670 C   0  0  0  0  0  0  0  0  0  0  0  0
   85.6390   98.7150  -44.6970 N   0  0  0  0  0  0  0  0  0  0  0  0
   86.4380   97.7010  -45.0710 C   0  0  0  0  0  0  0  0  0  0  0  0
   87.8150   97.8880  -44.8800 C   0  0  0  0  0  3  0  0  0  0  0  0
   85.9170   96.4370  -45.6570 C   0  0  0  0  0  1  0  0  0  0  0  0
   85.2500  100.8980  -43.7890 N   0  0  0  0  0  0  0  0  0  0  0  0
   84.0860  100.6890  -42.9640 C   0  0  0  0  0  2  0  0  0  0  0  0
   84.1020  101.6380  -41.8020 C   0  0  0  0  0  2  0  0  0  0  0  0
   85.0770  102.6260  -41.9180 O   0  0  0  0  0  0  0  0  0  0  0  0
   85.0410  103.2090  -43.1810 C   0  0  0  0  0  2  0  0  0  0  0  0
   85.5150  102.2460  -44.2430 C   0  0  0  0  0  2  0  0  0  0  0  0
   91.8060   95.2010  -42.8970 C   0  0  0  0  0  0  0  0  0  0  0  0
   91.6100   94.8330  -44.1270 O   0  0  0  0  0  0  0  0  0  0  0  0
   91.7690   93.5690  -44.2830 C   0  0  0  0  0  0  0  0  0  0  0  0
   91.5940   92.5350  -45.9080 Br  0  0  0  0  0  0  0  0  0  0  0  0
   92.1010   93.0230  -43.0680 C   0  0  0  0  0  3  0  0  0  0  0  0
   92.1230   94.0690  -42.1810 C   0  0  0  0  0  3  0  0  0  0  0  0
  1  2  2  0  0  0  0
  3  4  1  0  0  0  0
  3  1  1  0  0  0  0
  5  4  1  0  0  0  0
  6  5  1  0  0  0  0
  7  8  1  0  0  0  0
  7  6  1  0  0  0  0
  8  3  1  0  0  0  0
  9  6  1  0  0  0  0
  9 10  1  0  0  0  0
 11 10  2  0  0  0  0
 11 16  1  0  0  0  0
 12 11  1  0  0  0  0
 13 14  1  0  0  0  0
 13 12  2  0  0  0  0
 14  9  2  0  0  0  0
 15 13  1  0  0  0  0
 16 17  1  0  0  0  0
 17 18  1  0  0  0  0
 19 18  1  0  0  0  0
 20 19  1  0  0  0  0
 21 16  1  0  0  0  0
 21 20  1  0  0  0  0
 22  1  1  0  0  0  0
 22 27  2  0  0  0  0
 23 22  1  0  0  0  0
 24 23  1  0  0  0  0
 24 26  2  0  0  0  0
 25 24  1  0  0  0  0
 26 27  1  0  0  0  0
M  END
>  <Pose>
1

>  <Score>
-6.631

$$$$
