/Users/jonathanwahrer/Desktop/Msc/3_Semester/Drug_Design_Praktikum/waehrer_HTS_screening/HTS_experiment/out/docking_results/vina_output/4agl/0755_docked.pdbqt
 OpenBabel03202223413D

 28 31  0  0  0  0  0  0  0  0999 V2000
   87.9790   99.1030  -43.6540 C   0  0  0  0  0  0  0  0  0  0  0  0
   88.1330   99.8110  -42.6470 O   0  0  0  0  0  0  0  0  0  0  0  0
   89.0920   98.5180  -44.3130 N   0  0  0  0  0  0  0  0  0  0  0  0
   88.9020   97.6850  -45.4980 C   0  0  0  0  0  2  0  0  0  0  0  0
   90.2450   97.1310  -45.9670 C   0  0  0  0  0  2  0  0  0  0  0  0
   90.8960   96.5470  -44.8110 N   0  0  0  0  0  0  0  0  0  0  0  0
   91.1350   97.3770  -43.6620 C   0  0  0  0  0  2  0  0  0  0  0  0
   90.4540   98.7080  -43.8570 C   0  0  0  0  0  2  0  0  0  0  0  0
   91.3000   95.1720  -44.7960 C   0  0  0  0  0  0  0  0  0  0  0  0
   91.8140   94.6010  -43.6970 N   0  0  0  0  0  0  0  0  0  0  0  0
   92.1830   93.3160  -43.7130 C   0  0  0  0  0  0  0  0  0  0  0  0
   92.0560   92.5550  -44.8180 N   0  0  0  0  0  0  0  0  0  0  0  0
   92.7500   92.6930  -42.4910 C   0  0  0  0  0  1  0  0  0  0  0  0
   91.5480   93.0660  -45.9540 C   0  0  0  0  0  0  0  0  0  0  0  0
   91.1730   94.3920  -45.9160 C   0  0  0  0  0  3  0  0  0  0  0  0
   91.3940   92.3070  -47.1400 N   0  0  0  0  0  0  0  0  0  0  0  0
   90.1940   92.4350  -47.9410 C   0  0  0  0  0  2  0  0  0  0  0  0
   90.4630   91.7550  -49.2670 C   0  0  0  0  0  2  0  0  0  0  0  0
   90.7340   90.3640  -49.0270 N   0  0  0  0  0  0  0  0  0  0  0  0
   91.6730   90.1030  -47.9820 C   0  0  0  0  0  2  0  0  0  0  0  0
   89.4980   89.6320  -48.9180 C   0  0  0  0  0  1  0  0  0  0  0  0
   92.4010   91.3780  -47.6160 C   0  0  0  0  0  2  0  0  0  0  0  0
   86.6150   98.8610  -44.1790 C   0  0  0  0  0  0  0  0  0  0  0  0
   86.0190   99.5180  -45.1430 O   0  0  0  0  0  0  0  0  0  0  0  0
   84.8130   99.0670  -45.3790 C   0  0  0  0  0  0  0  0  0  0  0  0
   83.6050   99.7390  -46.6980 Br  0  0  0  0  0  0  0  0  0  0  0  0
   84.5820   98.0270  -44.5040 C   0  0  0  0  0  3  0  0  0  0  0  0
   85.7230   97.9060  -43.7530 C   0  0  0  0  0  3  0  0  0  0  0  0
  1  2  2  0  0  0  0
  3  8  1  0  0  0  0
  3  1  1  0  0  0  0
  4  3  1  0  0  0  0
  5  4  1  0  0  0  0
  5  6  1  0  0  0  0
  6  9  1  0  0  0  0
  6  7  1  0  0  0  0
  8  7  1  0  0  0  0
  9 10  1  0  0  0  0
 11 10  2  0  0  0  0
 11 13  1  0  0  0  0
 12 11  1  0  0  0  0
 14 15  1  0  0  0  0
 14 12  2  0  0  0  0
 15  9  2  0  0  0  0
 16 14  1  0  0  0  0
 17 16  1  0  0  0  0
 18 19  1  0  0  0  0
 18 17  1  0  0  0  0
 19 21  1  0  0  0  0
 19 20  1  0  0  0  0
 20 22  1  0  0  0  0
 22 16  1  0  0  0  0
 23 28  2  0  0  0  0
 23  1  1  0  0  0  0
 24 23  1  0  0  0  0
 25 24  1  0  0  0  0
 25 27  2  0  0  0  0
 26 25  1  0  0  0  0
 27 28  1  0  0  0  0
M  END
>  <Pose>
1

>  <Score>
-6.299

$$$$
