/Users/jonathanwahrer/Desktop/Msc/3_Semester/Drug_Design_Praktikum/waehrer_HTS_screening/HTS_experiment/out/docking_results/vina_output/4agl/0767_docked.pdbqt
 OpenBabel03202223413D

 32 35  0  0  0  0  0  0  0  0999 V2000
   92.1910   93.6360  -41.7070 C   0  0  0  0  0  2  0  0  0  0  0  0
   91.5890   93.3940  -42.9740 N   0  0  0  0  0  0  0  0  0  0  0  0
   92.3650   93.1110  -44.1320 C   0  0  0  0  0  0  0  0  0  0  0  0
   93.6370   93.0780  -44.0120 O   0  0  0  0  0  0  0  0  0  0  0  0
   90.5560   93.4220  -43.0640 H   0  0  0  0  0  0  0  0  0  0  0  0
   91.7520   92.8620  -45.4310 C   0  0  0  0  0  0  0  0  0  0  0  0
   91.0000   93.7310  -46.0570 O   0  0  0  0  0  0  0  0  0  0  0  0
   90.5910   93.2390  -47.1920 N   0  0  0  0  0  0  0  0  0  0  0  0
   91.0820   91.9890  -47.3470 C   0  0  0  0  0  0  0  0  0  0  0  0
   91.8020   91.7880  -46.2290 N   0  0  0  0  0  0  0  0  0  0  0  0
   90.8730   91.0810  -48.4680 C   0  0  0  0  0  0  0  0  0  0  0  0
   90.6170   89.7980  -48.4240 O   0  0  0  0  0  0  0  0  0  0  0  0
   90.4840   89.2800  -49.6070 C   0  0  0  0  0  0  0  0  0  0  0  0
   90.1120   87.4820  -50.0860 Br  0  0  0  0  0  0  0  0  0  0  0  0
   90.6620   90.2890  -50.5550 C   0  0  0  0  0  3  0  0  0  0  0  0
   90.9090   91.4290  -49.8050 C   0  0  0  0  0  3  0  0  0  0  0  0
   91.7740   94.9580  -41.0980 C   0  0  0  0  0  2  0  0  0  0  0  0
   91.5650   95.9700  -42.1240 N   0  0  0  0  0  0  0  0  0  0  0  0
   92.1440   97.2400  -41.9570 C   0  0  0  0  0  0  0  0  0  0  0  0
   92.8260   97.3940  -40.8810 O   0  0  0  0  0  0  0  0  0  0  0  0
   91.0040   95.7760  -42.9730 H   0  0  0  0  0  0  0  0  0  0  0  0
   92.0640   98.3750  -42.8410 C   0  0  0  0  0  0  0  0  0  0  0  0
   91.9830   99.6500  -42.2830 C   0  0  0  0  0  3  0  0  0  0  0  0
   91.9150  100.7490  -43.1020 C   0  0  0  0  0  0  0  0  0  0  0  0
   91.9260  100.5990  -44.4540 C   0  0  0  0  0  0  0  0  0  0  0  0
   91.8340  102.0420  -42.5770 C   0  0  0  0  0  3  0  0  0  0  0  0
   91.8570  101.7210  -45.2840 C   0  0  0  0  0  3  0  0  0  0  0  0
   92.0030   99.3950  -44.9450 O   0  0  0  0  0  0  0  0  0  0  0  0
   91.7770  102.9930  -44.7720 C   0  0  0  0  0  3  0  0  0  0  0  0
   91.7660  103.1380  -43.4090 C   0  0  0  0  0  3  0  0  0  0  0  0
   92.0710   98.2910  -44.2110 C   0  0  0  0  0  0  0  0  0  0  0  0
   92.1400   97.1920  -44.8100 O   0  0  0  0  0  0  0  0  0  0  0  0
  1 17  1  0  0  0  0
  2  1  1  0  0  0  0
  3  4  2  0  0  0  0
  3  2  1  0  0  0  0
  5  2  1  0  0  0  0
  6  3  1  0  0  0  0
  7  6  1  0  0  0  0
  8  7  1  0  0  0  0
  9  8  2  0  0  0  0
  9 10  1  0  0  0  0
 10  6  2  0  0  0  0
 11 12  1  0  0  0  0
 11  9  1  0  0  0  0
 13 12  1  0  0  0  0
 14 13  1  0  0  0  0
 15 16  1  0  0  0  0
 15 13  2  0  0  0  0
 16 11  2  0  0  0  0
 18 19  1  0  0  0  0
 18 17  1  0  0  0  0
 19 20  2  0  0  0  0
 21 18  1  0  0  0  0
 22 23  2  0  0  0  0
 22 19  1  0  0  0  0
 24 26  1  0  0  0  0
 24 23  1  0  0  0  0
 25 24  2  0  0  0  0
 27 29  2  0  0  0  0
 27 25  1  0  0  0  0
 28 25  1  0  0  0  0
 28 31  1  0  0  0  0
 29 30  1  0  0  0  0
 30 26  2  0  0  0  0
 31 22  1  0  0  0  0
 32 31  2  0  0  0  0
M  END
>  <Pose>
1

>  <Score>
-7.063

$$$$
