/Users/jonathanwahrer/Desktop/Msc/3_Semester/Drug_Design_Praktikum/waehrer_HTS_screening/HTS_experiment/out/docking_results/vina_output/4agl/0776_docked.pdbqt
 OpenBabel03202223423D

 38 41  0  0  1  0  0  0  0  0999 V2000
   86.0980  100.3630  -44.1940 C   0  0  2  0  0  3  0  0  0  0  0  0
   87.0750  101.4000  -43.6230 C   0  0  1  0  0  0  0  0  0  0  0  0
   88.4490  101.0980  -44.1120 C   0  0  0  0  0  2  0  0  0  0  0  0
   88.8630   99.7430  -43.5830 C   0  0  1  0  0  0  0  0  0  0  0  0
   87.7850   98.9750  -43.1830 O   0  0  0  0  0  0  0  0  0  0  0  0
   86.7170   99.0110  -44.0690 C   0  0  0  0  0  2  0  0  0  0  0  0
   89.7200   99.0980  -44.6110 C   0  0  0  0  0  2  0  0  0  0  0  0
   90.1800   97.7350  -44.0710 C   0  0  0  0  0  2  0  0  0  0  0  0
   91.0520   97.9770  -42.9700 N   0  0  0  0  0  0  0  0  0  0  0  0
   91.1020   99.4090  -42.5180 C   0  0  0  0  0  2  0  0  0  0  0  0
   89.7300   99.9750  -42.3640 C   0  0  0  0  0  2  0  0  0  0  0  0
   91.8210   97.0390  -42.3090 C   0  0  0  0  0  0  0  0  0  0  0  0
   92.5670   97.5110  -41.3320 O   0  0  0  0  0  0  0  0  0  0  0  0
   86.6160  102.7930  -43.9110 C   0  0  0  0  0  1  0  0  0  0  0  0
   87.0660  101.2240  -42.2370 O   0  0  0  0  0  0  0  0  0  0  0  0
   87.2820  102.0550  -41.7430 H   0  0  0  0  0  0  0  0  0  0  0  0
   85.6270  100.7140  -45.4950 N   0  0  0  0  0  0  0  0  0  0  0  0
   86.3670  100.6350  -46.6160 C   0  0  0  0  0  3  0  0  0  0  0  0
   85.8860  100.9810  -47.8530 C   0  0  0  0  0  0  0  0  0  0  0  0
   87.0460  100.8190  -49.3530 Br  0  0  0  0  0  0  0  0  0  0  0  0
   84.5940  101.4290  -47.9770 C   0  0  0  0  0  0  0  0  0  0  0  0
   83.8550  101.5080  -46.8570 N   0  0  0  0  0  0  0  0  0  0  0  0
   84.1620  101.7440  -49.1130 O   0  0  0  0  0  0  0  0  0  0  0  0
   84.3500  101.1670  -45.6780 C   0  0  0  0  0  0  0  0  0  0  0  0
   82.8770  101.8500  -46.9670 H   0  0  0  0  0  0  0  0  0  0  0  0
   83.5910  101.2690  -44.6710 O   0  0  0  0  0  0  0  0  0  0  0  0
   91.9480   95.6380  -42.5010 C   0  0  0  0  0  0  0  0  0  0  0  0
   91.6520   95.0660  -43.7510 C   0  0  0  0  0  3  0  0  0  0  0  0
   91.7510   93.7480  -44.0630 C   0  0  0  0  0  0  0  0  0  0  0  0
   92.1920   92.8900  -43.0340 C   0  0  0  0  0  3  0  0  0  0  0  0
   92.4830   93.4160  -41.8230 C   0  0  0  0  0  3  0  0  0  0  0  0
   92.3690   94.7860  -41.5310 C   0  0  0  0  0  3  0  0  0  0  0  0
   91.4510   93.2300  -45.2880 O   0  0  0  0  0  0  0  0  0  0  0  0
   91.7460   92.0360  -45.8740 C   0  0  0  0  0  2  0  0  0  0  0  0
   91.1730   91.9010  -47.2440 C   0  0  0  0  0  2  0  0  0  0  0  0
   90.9050   90.4900  -47.5260 N   0  0  0  0  0  0  0  0  0  0  0  0
   91.5950   89.8670  -47.0820 H   0  0  0  0  0  0  0  0  0  0  0  0
   90.7260   90.3090  -48.5190 H   0  0  0  0  0  0  0  0  0  0  0  0
  1 17  1  6  0  0  0
  1  6  1  0  0  0  0
  1  2  1  0  0  0  0
  2 14  1  6  0  0  0
  2 15  1  0  0  0  0
  3  2  1  0  0  0  0
  3  4  1  0  0  0  0
  4  7  1  6  0  0  0
  4  5  1  0  0  0  0
  4 11  1  0  0  0  0
  6  5  1  0  0  0  0
  7  8  1  0  0  0  0
  8  9  1  0  0  0  0
  9 10  1  0  0  0  0
  9 12  1  0  0  0  0
 10 11  1  0  0  0  0
 12 13  2  0  0  0  0
 15 16  1  0  0  0  0
 18 17  1  0  0  0  0
 19 18  2  0  0  0  0
 20 19  1  0  0  0  0
 21 19  1  0  0  0  0
 21 22  1  0  0  0  0
 22 24  1  0  0  0  0
 23 21  2  0  0  0  0
 24 17  1  0  0  0  0
 24 26  2  0  0  0  0
 25 22  1  0  0  0  0
 27 12  1  0  0  0  0
 27 32  1  0  0  0  0
 28 27  2  0  0  0  0
 29 28  1  0  0  0  0
 29 30  2  0  0  0  0
 30 31  1  0  0  0  0
 31 32  2  0  0  0  0
 33 29  1  0  0  0  0
 34 33  1  0  0  0  0
 35 34  1  0  0  0  0
 36 35  1  0  0  0  0
 36 37  1  0  0  0  0
 38 36  1  0  0  0  0
M  END
>  <Pose>
1

>  <Score>
-6.669

$$$$
