/Users/jonathanwahrer/Desktop/Msc/3_Semester/Drug_Design_Praktikum/waehrer_HTS_screening/HTS_experiment/out/docking_results/vina_output/4agl/0784_docked.pdbqt
 OpenBabel03202223433D

 39 42  0  0  1  0  0  0  0  0999 V2000
   90.7750   97.7360  -43.9140 C   0  0  1  0  0  3  0  0  0  0  0  0
   91.9320   98.7240  -44.1360 C   0  0  2  0  0  0  0  0  0  0  0  0
   91.2960  100.0990  -43.8910 C   0  0  0  0  0  2  0  0  0  0  0  0
   90.0540  100.2640  -44.7230 C   0  0  2  0  0  0  0  0  0  0  0  0
   89.9540   99.2110  -45.5990 O   0  0  0  0  0  0  0  0  0  0  0  0
   89.8050   97.9620  -45.0000 C   0  0  0  0  0  2  0  0  0  0  0  0
   90.2710  101.5150  -45.5640 C   0  0  0  0  0  2  0  0  0  0  0  0
   89.8800  102.7360  -44.7690 C   0  0  0  0  0  2  0  0  0  0  0  0
   89.9220  102.4430  -43.3270 N   0  0  0  0  0  0  0  0  0  0  0  0
   88.9290  101.5200  -42.8610 C   0  0  0  0  0  2  0  0  0  0  0  0
   88.8010  100.4530  -43.9450 C   0  0  0  0  0  2  0  0  0  0  0  0
   90.8820  102.9930  -42.4790 C   0  0  0  0  0  0  0  0  0  0  0  0
   91.8190  103.7530  -42.9410 O   0  0  0  0  0  0  0  0  0  0  0  0
   92.4950   98.6020  -45.5160 C   0  0  0  0  0  1  0  0  0  0  0  0
   92.9510   98.5420  -43.2260 O   0  0  0  0  0  0  0  0  0  0  0  0
   93.7530   99.0370  -43.5340 H   0  0  0  0  0  0  0  0  0  0  0  0
   91.2160   96.4320  -43.6270 N   0  0  0  0  0  0  0  0  0  0  0  0
   91.3130   95.4320  -44.5070 C   0  0  0  0  0  3  0  0  0  0  0  0
   91.7620   94.1630  -44.1410 C   0  0  0  0  0  0  0  0  0  0  0  0
   91.8610   92.8160  -45.4690 Br  0  0  0  0  0  0  0  0  0  0  0  0
   92.1210   93.9160  -42.8350 C   0  0  0  0  0  0  0  0  0  0  0  0
   92.0180   94.9320  -41.9600 N   0  0  0  0  0  0  0  0  0  0  0  0
   92.5340   92.7660  -42.4740 O   0  0  0  0  0  0  0  0  0  0  0  0
   91.5820   96.1450  -42.3420 C   0  0  0  0  0  0  0  0  0  0  0  0
   92.2800   94.7940  -40.9480 H   0  0  0  0  0  0  0  0  0  0  0  0
   91.5080   97.0550  -41.4720 O   0  0  0  0  0  0  0  0  0  0  0  0
   90.9060  102.7610  -41.0430 C   0  0  1  0  0  3  0  0  0  0  0  0
   92.2590  102.6130  -40.5650 N   0  0  0  0  0  0  0  0  0  0  0  0
   93.0120  101.4530  -40.4300 C   0  0  0  0  0  0  0  0  0  0  0  0
   92.6220  100.2980  -40.7000 O   0  0  0  0  0  0  0  0  0  0  0  0
   94.4400  101.5120  -39.9190 C   0  0  0  0  0  1  0  0  0  0  0  0
   92.7260  103.5280  -40.2780 H   0  0  0  0  0  0  0  0  0  0  0  0
   90.2240  103.9270  -40.2600 C   0  0  0  0  0  2  0  0  0  0  0  0
   90.8400  104.0640  -38.9280 C   0  0  0  0  0  0  0  0  0  0  0  0
   91.0290  103.1570  -37.9840 N   0  0  0  0  0  0  0  0  0  0  0  0
   91.6390  103.6940  -36.8910 C   0  0  0  0  0  3  0  0  0  0  0  0
   91.8360  104.9950  -37.1740 N   0  0  0  0  0  0  0  0  0  0  0  0
   91.3550  105.2410  -38.4110 C   0  0  0  0  0  3  0  0  0  0  0  0
   92.2910  105.6650  -36.5080 H   0  0  0  0  0  0  0  0  0  0  0  0
  1  6  1  6  0  0  0
  1 17  1  0  0  0  0
  2 14  1  6  0  0  0
  2  1  1  0  0  0  0
  2  3  1  0  0  0  0
  2 15  1  0  0  0  0
  4  7  1  6  0  0  0
  4 11  1  0  0  0  0
  4  3  1  0  0  0  0
  5  6  1  0  0  0  0
  5  4  1  0  0  0  0
  7  8  1  0  0  0  0
  8  9  1  0  0  0  0
  9 10  1  0  0  0  0
  9 12  1  0  0  0  0
 11 10  1  0  0  0  0
 12 27  1  0  0  0  0
 13 12  2  0  0  0  0
 16 15  1  0  0  0  0
 17 24  1  0  0  0  0
 18 19  2  0  0  0  0
 18 17  1  0  0  0  0
 19 21  1  0  0  0  0
 20 19  1  0  0  0  0
 21 23  2  0  0  0  0
 21 22  1  0  0  0  0
 22 25  1  0  0  0  0
 24 22  1  0  0  0  0
 24 26  2  0  0  0  0
 27 28  1  0  0  0  0
 27 33  1  1  0  0  0
 28 29  1  0  0  0  0
 28 32  1  0  0  0  0
 29 31  1  0  0  0  0
 30 29  2  0  0  0  0
 33 34  1  0  0  0  0
 34 38  2  0  0  0  0
 34 35  1  0  0  0  0
 35 36  2  0  0  0  0
 37 36  1  0  0  0  0
 37 39  1  0  0  0  0
 38 37  1  0  0  0  0
M  END
>  <Pose>
1

>  <Score>
-6.205

$$$$
