/Users/jonathanwahrer/Desktop/Msc/3_Semester/Drug_Design_Praktikum/waehrer_HTS_screening/HTS_experiment/out/docking_results/vina_output/4agl/0786_docked.pdbqt
 OpenBabel03202223433D

 25 28  0  0  1  0  0  0  0  0999 V2000
   90.2520   99.2980  -42.4880 N   0  0  0  0  0  0  0  0  0  0  0  0
   90.0740  100.1710  -43.5730 C   0  0  0  0  0  0  0  0  0  0  0  0
   91.0310  100.4240  -44.3340 O   0  0  0  0  0  0  0  0  0  0  0  0
   89.4500   99.0950  -41.8610 H   0  0  0  0  0  0  0  0  0  0  0  0
   91.5470   98.6960  -42.2590 C   0  0  0  0  0  2  0  0  0  0  0  0
   91.5930   97.3060  -42.7790 C   0  0  0  0  0  0  0  0  0  0  0  0
   91.8160   96.1760  -42.0840 N   0  0  0  0  0  0  0  0  0  0  0  0
   91.7800   95.1220  -42.9180 C   0  0  0  0  0  0  0  0  0  0  0  0
   91.5300   95.5720  -44.1610 N   0  0  0  0  0  0  0  0  0  0  0  0
   91.9490   93.7610  -42.6800 C   0  0  0  0  0  3  0  0  0  0  0  0
   91.4480   94.6690  -45.1790 C   0  0  0  0  0  3  0  0  0  0  0  0
   91.4140   96.9110  -44.0880 C   0  0  0  0  0  3  0  0  0  0  0  0
   91.6110   93.3170  -44.9760 C   0  0  0  0  0  0  0  0  0  0  0  0
   91.4940   92.0520  -46.4090 Br  0  0  0  0  0  0  0  0  0  0  0  0
   91.8670   92.8510  -43.7040 C   0  0  0  0  0  3  0  0  0  0  0  0
   88.7620  100.7950  -43.8250 C   0  0  1  0  0  3  0  0  0  0  0  0
   88.4810  100.8570  -45.3050 C   0  0  0  0  0  2  0  0  0  0  0  0
   88.4810   99.4910  -45.7920 N   0  0  0  0  0  0  0  0  0  0  0  0
   87.9860   98.5030  -45.0280 C   0  0  0  0  0  0  0  0  0  0  0  0
   88.8970   98.9380  -46.9320 C   0  0  0  0  0  0  0  0  0  0  0  0
   88.1170   97.3610  -45.7320 N   0  0  0  0  0  0  0  0  0  0  0  0
   87.4200   98.6880  -43.6830 C   0  0  0  0  0  2  0  0  0  0  0  0
   88.6660   97.6200  -46.8820 N   0  0  0  0  0  0  0  0  0  0  0  0
   87.6900  100.0280  -43.0950 C   0  0  0  0  0  2  0  0  0  0  0  0
   89.5260   99.6020  -48.1160 C   0  0  0  0  0  1  0  0  0  0  0  0
  1  5  1  0  0  0  0
  1  4  1  0  0  0  0
  2  1  1  0  0  0  0
  3  2  2  0  0  0  0
  6  5  1  0  0  0  0
  6  7  1  0  0  0  0
  8 10  1  0  0  0  0
  8  7  2  0  0  0  0
  9 12  1  0  0  0  0
  9  8  1  0  0  0  0
 11 13  2  0  0  0  0
 11  9  1  0  0  0  0
 12  6  2  0  0  0  0
 13 15  1  0  0  0  0
 14 13  1  0  0  0  0
 15 10  2  0  0  0  0
 16  2  1  6  0  0  0
 16 24  1  0  0  0  0
 17 16  1  0  0  0  0
 18 17  1  0  0  0  0
 18 19  1  0  0  0  0
 19 22  1  0  0  0  0
 20 23  2  0  0  0  0
 20 18  1  0  0  0  0
 21 19  2  0  0  0  0
 22 24  1  0  0  0  0
 23 21  1  0  0  0  0
 25 20  1  0  0  0  0
M  END
>  <Pose>
1

>  <Score>
-5.983

$$$$
