/Users/jonathanwahrer/Desktop/Msc/3_Semester/Drug_Design_Praktikum/waehrer_HTS_screening/HTS_experiment/out/docking_results/vina_output/4agl/0789_docked.pdbqt
 OpenBabel03202223433D

 21 24  0  0  1  0  0  0  0  0999 V2000
   90.7290   99.0470  -44.7130 C   0  0  0  0  0  0  0  0  0  0  0  0
   91.7210   99.8250  -44.7370 O   0  0  0  0  0  0  0  0  0  0  0  0
   89.4350   99.6180  -44.6060 N   0  0  0  0  0  0  0  0  0  0  0  0
   89.2830  101.0250  -44.5350 C   0  0  0  0  0  2  0  0  0  0  0  0
   88.0600  101.4630  -43.8180 C   0  0  2  0  0  3  0  0  0  0  0  0
   87.2090  100.4160  -43.3310 N   0  0  2  0  0  0  0  0  0  0  0  0
   86.9820   99.4010  -44.3430 C   0  0  0  0  0  2  0  0  0  0  0  0
   88.3160   98.7170  -44.5730 C   0  0  0  0  0  2  0  0  0  0  0  0
   86.0280  101.1080  -42.9110 C   0  0  0  0  0  2  0  0  0  0  0  0
   85.8280  102.2100  -43.9210 C   0  0  0  0  0  2  0  0  0  0  0  0
   87.1210  102.2630  -44.7040 C   0  0  0  0  0  2  0  0  0  0  0  0
   90.9530   97.5970  -44.7980 C   0  0  0  0  0  0  0  0  0  0  0  0
   90.8300   96.7660  -45.8430 N   0  0  0  0  0  0  0  0  0  0  0  0
   91.1230   95.5180  -45.5140 N   0  0  0  0  0  0  0  0  0  0  0  0
   91.1480   94.3460  -46.2000 C   0  0  0  0  0  3  0  0  0  0  0  0
   91.4580   95.4700  -44.2120 C   0  0  0  0  0  0  0  0  0  0  0  0
   91.4990   93.1540  -45.6050 C   0  0  0  0  0  0  0  0  0  0  0  0
   91.5280   91.5070  -46.5940 Br  0  0  0  0  0  0  0  0  0  0  0  0
   91.8370   93.1300  -44.2710 C   0  0  0  0  0  3  0  0  0  0  0  0
   91.8050   94.2990  -43.6140 N   0  0  0  0  0  0  0  0  0  0  0  0
   91.3550   96.7670  -43.7520 C   0  0  0  0  0  3  0  0  0  0  0  0
  1  3  1  0  0  0  0
  2  1  2  0  0  0  0
  3  8  1  0  0  0  0
  3  4  1  0  0  0  0
  4  5  1  0  0  0  0
  5 11  1  6  0  0  0
  5  6  1  0  0  0  0
  6  7  1  6  0  0  0
  6  9  1  0  0  0  0
  8  7  1  0  0  0  0
 10  9  1  0  0  0  0
 11 10  1  0  0  0  0
 12  1  1  0  0  0  0
 12 21  1  0  0  0  0
 13 14  1  0  0  0  0
 13 12  2  0  0  0  0
 14 16  1  0  0  0  0
 15 17  2  0  0  0  0
 15 14  1  0  0  0  0
 16 21  2  0  0  0  0
 16 20  1  0  0  0  0
 17 19  1  0  0  0  0
 18 17  1  0  0  0  0
 19 20  2  0  0  0  0
M  END
>  <Pose>
1

>  <Score>
-5.666

$$$$
