/Users/jonathanwahrer/Desktop/Msc/3_Semester/Drug_Design_Praktikum/waehrer_HTS_screening/HTS_experiment/out/docking_results/vina_output/4agl/0790_docked.pdbqt
 OpenBabel03202223443D

 25 28  0  0  0  0  0  0  0  0999 V2000
   88.9440  100.5260  -44.4050 C   0  0  0  0  0  0  0  0  0  0  0  0
   89.0080  101.6020  -45.0650 O   0  0  0  0  0  0  0  0  0  0  0  0
   90.0530  100.0690  -43.6460 N   0  0  0  0  0  0  0  0  0  0  0  0
   89.8920   98.8070  -42.9070 C   0  0  0  0  0  2  0  0  0  0  0  0
   91.3180   98.2710  -42.7800 C   0  0  0  0  0  2  0  0  0  0  0  0
   91.9620   98.5740  -44.0240 N   0  0  0  0  0  0  0  0  0  0  0  0
   92.4950   99.9670  -44.0600 C   0  0  0  0  0  2  0  0  0  0  0  0
   91.3050  100.8090  -43.5900 C   0  0  0  0  0  2  0  0  0  0  0  0
   92.0950   97.7740  -45.1460 C   0  0  0  0  0  0  0  0  0  0  0  0
   92.7670   98.2650  -46.1450 O   0  0  0  0  0  0  0  0  0  0  0  0
   87.7110   99.7800  -44.4460 C   0  0  0  0  0  0  0  0  0  0  0  0
   86.6230   99.8520  -43.6080 C   0  0  0  0  0  3  0  0  0  0  0  0
   85.6900   98.9750  -44.0150 N   0  0  0  0  0  0  0  0  0  0  0  0
   86.1570   98.3440  -45.0940 N   0  0  0  0  0  0  0  0  0  0  0  0
   85.6290   97.3990  -45.8610 C   0  0  0  0  0  3  0  0  0  0  0  0
   87.3850   98.8080  -45.3860 C   0  0  0  0  0  0  0  0  0  0  0  0
   86.3080   96.8990  -46.9280 C   0  0  0  0  0  0  0  0  0  0  0  0
   85.5430   95.5430  -48.0240 Br  0  0  0  0  0  0  0  0  0  0  0  0
   87.5570   97.3740  -47.2210 C   0  0  0  0  0  3  0  0  0  0  0  0
   88.0680   98.3250  -46.4350 N   0  0  0  0  0  0  0  0  0  0  0  0
   91.5890   96.4350  -45.3990 C   0  0  0  0  0  0  0  0  0  0  0  0
   90.6630   96.1340  -46.3200 O   0  0  0  0  0  0  0  0  0  0  0  0
   90.3900   94.8740  -46.3380 C   0  0  0  0  0  3  0  0  0  0  0  0
   91.1470   94.2300  -45.3920 C   0  0  0  0  0  3  0  0  0  0  0  0
   91.9000   95.2350  -44.8070 C   0  0  0  0  0  3  0  0  0  0  0  0
  1  3  1  0  0  0  0
  2  1  2  0  0  0  0
  3  8  1  0  0  0  0
  3  4  1  0  0  0  0
  4  5  1  0  0  0  0
  6  5  1  0  0  0  0
  7  6  1  0  0  0  0
  7  8  1  0  0  0  0
  9  6  1  0  0  0  0
 10  9  2  0  0  0  0
 11  1  1  0  0  0  0
 11 12  1  0  0  0  0
 13 12  2  0  0  0  0
 14 13  1  0  0  0  0
 15 14  1  0  0  0  0
 16 14  1  0  0  0  0
 16 11  2  0  0  0  0
 17 15  2  0  0  0  0
 18 17  1  0  0  0  0
 19 17  1  0  0  0  0
 19 20  2  0  0  0  0
 20 16  1  0  0  0  0
 21  9  1  0  0  0  0
 21 25  2  0  0  0  0
 22 21  1  0  0  0  0
 23 22  1  0  0  0  0
 23 24  2  0  0  0  0
 24 25  1  0  0  0  0
M  END
>  <Pose>
1

>  <Score>
-5.799

$$$$
