/Users/jonathanwahrer/Desktop/Msc/3_Semester/Drug_Design_Praktikum/waehrer_HTS_screening/HTS_experiment/out/docking_results/vina_output/4agl/0814_docked.pdbqt
 OpenBabel03202223453D

 31 34  0  0  1  0  0  0  0  0999 V2000
   89.0110   99.3810  -44.0900 N   0  0  0  0  0  0  0  0  0  0  0  0
   89.5690   98.7760  -43.0670 N   0  0  0  0  0  0  0  0  0  0  0  0
   90.9050   98.8830  -43.1270 C   0  0  0  0  0  0  0  0  0  0  0  0
   91.1910   99.5840  -44.2340 N   0  0  0  0  0  0  0  0  0  0  0  0
   90.0010   99.8900  -44.8300 C   0  0  2  0  0  3  0  0  0  0  0  0
   89.8290  100.6490  -46.0680 C   0  0  0  0  0  2  0  0  0  0  0  0
   90.5360  100.0240  -47.2470 C   0  0  0  0  0  2  0  0  0  0  0  0
   92.0380  100.1840  -47.1560 C   0  0  0  0  0  2  0  0  0  0  0  0
   92.6580   99.3330  -46.0920 C   0  0  0  0  0  2  0  0  0  0  0  0
   92.5130   99.9440  -44.7060 C   0  0  0  0  0  2  0  0  0  0  0  0
   91.8960   98.3490  -42.1830 C   0  0  0  0  0  2  0  0  0  0  0  0
   91.5600   97.0400  -41.7130 N   0  0  0  0  0  0  0  0  0  0  0  0
   91.2610   96.9020  -40.7360 H   0  0  0  0  0  0  0  0  0  0  0  0
   91.6170   95.8810  -42.5390 C   0  0  0  0  0  0  0  0  0  0  0  0
   91.5160   95.9500  -43.9100 C   0  0  0  0  0  3  0  0  0  0  0  0
   91.5770   94.8280  -44.6950 C   0  0  0  0  0  3  0  0  0  0  0  0
   91.7410   93.6100  -44.1140 C   0  0  0  0  0  0  0  0  0  0  0  0
   91.8420   93.5370  -42.7420 C   0  0  0  0  0  3  0  0  0  0  0  0
   91.7820   94.6590  -41.9420 C   0  0  0  0  0  3  0  0  0  0  0  0
   91.8050   92.4670  -44.8760 O   0  0  0  0  0  0  0  0  0  0  0  0
   91.4000   92.4220  -46.2220 C   0  0  0  0  0  1  0  0  0  0  0  0
   87.6090   99.4800  -44.3680 C   0  0  0  0  0  2  0  0  0  0  0  0
   87.0060   98.1520  -44.6550 C   0  0  0  0  0  0  0  0  0  0  0  0
   86.1740   97.6980  -43.8250 O   0  0  0  0  0  0  0  0  0  0  0  0
   87.3320   97.3730  -45.8300 C   0  0  0  0  0  0  0  0  0  0  0  0
   88.6020   96.8980  -46.0600 C   0  0  0  0  0  3  0  0  0  0  0  0
   88.9010   96.1500  -47.1950 C   0  0  0  0  0  3  0  0  0  0  0  0
   87.9130   95.8700  -48.1230 C   0  0  0  0  0  0  0  0  0  0  0  0
   88.3350   94.8350  -49.6900 Br  0  0  0  0  0  0  0  0  0  0  0  0
   86.6400   96.3400  -47.9020 C   0  0  0  0  0  3  0  0  0  0  0  0
   86.3730   97.0750  -46.7730 C   0  0  0  0  0  3  0  0  0  0  0  0
  1  2  1  0  0  0  0
  3  2  2  0  0  0  0
  3 11  1  0  0  0  0
  4  3  1  0  0  0  0
  5  6  1  1  0  0  0
  5  4  1  0  0  0  0
  5  1  1  0  0  0  0
  7  8  1  0  0  0  0
  7  6  1  0  0  0  0
  8  9  1  0  0  0  0
  9 10  1  0  0  0  0
 10  4  1  0  0  0  0
 11 12  1  0  0  0  0
 12 13  1  0  0  0  0
 14 19  1  0  0  0  0
 14 12  1  0  0  0  0
 15 14  2  0  0  0  0
 16 17  2  0  0  0  0
 16 15  1  0  0  0  0
 17 18  1  0  0  0  0
 18 19  2  0  0  0  0
 20 17  1  0  0  0  0
 21 20  1  0  0  0  0
 22  1  1  0  0  0  0
 23 22  1  0  0  0  0
 23 24  2  0  0  0  0
 25 23  1  0  0  0  0
 26 25  1  0  0  0  0
 27 26  2  0  0  0  0
 28 30  2  0  0  0  0
 28 27  1  0  0  0  0
 29 28  1  0  0  0  0
 30 31  1  0  0  0  0
 31 25  2  0  0  0  0
M  END
>  <Pose>
1

>  <Score>
-6.481

$$$$
