/Users/jonathanwahrer/Desktop/Msc/3_Semester/Drug_Design_Praktikum/waehrer_HTS_screening/HTS_experiment/out/docking_results/vina_output/4agl/0827_docked.pdbqt
 OpenBabel03202223453D

 29 32  0  0  1  0  0  0  0  0999 V2000
   90.3700   99.2690  -45.7790 C   0  0  2  0  0  0  0  0  0  0  0  0
   91.4160   99.0550  -44.7820 N   0  0  0  0  0  4  0  0  0  0  0  0
   91.7670  100.2560  -44.2140 C   0  0  0  0  0  0  0  0  0  0  0  0
   92.8390  100.5820  -43.5350 C   0  0  0  0  0  3  0  0  0  0  0  0
   93.3150  101.8330  -42.8760 C   0  0  0  0  0  2  0  0  0  0  0  0
   92.4740  103.0360  -43.1660 C   0  0  0  0  0  2  0  0  0  0  0  0
   91.0340  102.8200  -42.7630 C   0  0  0  0  0  2  0  0  0  0  0  0
   90.2220  102.3810  -43.9660 C   0  0  0  0  0  2  0  0  0  0  0  0
   90.7620  101.2210  -44.6000 N   0  0  0  0  0  0  0  0  0  0  0  0
   90.3050  100.8220  -45.9380 C   0  0  0  0  0  2  0  0  0  0  0  0
   92.2890   98.8940  -45.4970 H   0  0  0  0  0  0  0  0  0  0  0  0
   91.3860   97.8550  -44.1220 C   0  0  0  0  0  0  0  0  0  0  0  0
   91.4440   97.6880  -42.7710 C   0  0  0  0  0  3  0  0  0  0  0  0
   91.5850   96.4310  -42.1610 C   0  0  0  0  0  3  0  0  0  0  0  0
   91.6720   95.2910  -42.9160 C   0  0  0  0  0  0  0  0  0  0  0  0
   91.6110   95.4520  -44.2930 C   0  0  0  0  0  3  0  0  0  0  0  0
   91.4740   96.6870  -44.8870 C   0  0  0  0  0  3  0  0  0  0  0  0
   91.8220   94.0430  -42.3330 O   0  0  0  0  0  0  0  0  0  0  0  0
   92.8190   93.1090  -42.6620 C   0  0  0  0  0  2  0  0  0  0  0  0
   93.7780   93.0860  -41.4570 C   0  0  0  0  0  1  0  0  0  0  0  0
   89.0290   98.9510  -45.2130 C   0  0  0  0  0  0  0  0  0  0  0  0
   88.5640   99.5120  -44.0460 C   0  0  0  0  0  3  0  0  0  0  0  0
   87.3130   99.1950  -43.5620 C   0  0  0  0  0  3  0  0  0  0  0  0
   86.5050   98.3060  -44.2460 C   0  0  0  0  0  0  0  0  0  0  0  0
   84.7940   97.8800  -43.5540 Br  0  0  0  0  0  0  0  0  0  0  0  0
   86.9540   97.7390  -45.4120 C   0  0  0  0  0  3  0  0  0  0  0  0
   88.2300   98.0760  -45.8850 C   0  0  0  0  0  3  0  0  0  0  0  0
   90.6610   98.7550  -46.9830 O   0  0  0  0  0  0  0  0  0  0  0  0
   90.2280   97.9480  -47.2970 H   0  0  0  0  0  0  0  0  0  0  0  0
  1 28  1  6  0  0  0
  1 21  1  0  0  0  0
  1  2  1  0  0  0  0
  2  3  1  0  0  0  0
  2 12  1  0  0  0  0
  3  4  2  0  0  0  0
  4  5  1  0  0  0  0
  6  5  1  0  0  0  0
  6  7  1  0  0  0  0
  8  7  1  0  0  0  0
  9  3  1  0  0  0  0
  9  8  1  0  0  0  0
 10  1  1  0  0  0  0
 10  9  1  0  0  0  0
 11  2  1  0  0  0  0
 12 13  1  0  0  0  0
 13 14  2  0  0  0  0
 15 18  1  0  0  0  0
 15 14  1  0  0  0  0
 16 15  2  0  0  0  0
 17 16  1  0  0  0  0
 17 12  2  0  0  0  0
 19 18  1  0  0  0  0
 19 20  1  0  0  0  0
 21 22  1  0  0  0  0
 22 23  2  0  0  0  0
 24 23  1  0  0  0  0
 24 25  1  0  0  0  0
 26 24  2  0  0  0  0
 27 26  1  0  0  0  0
 27 21  2  0  0  0  0
 29 28  1  0  0  0  0
M  END
>  <Pose>
1

>  <Score>
-6.100

$$$$
