/Users/jonathanwahrer/Desktop/Msc/3_Semester/Drug_Design_Praktikum/waehrer_HTS_screening/HTS_experiment/out/docking_results/vina_output/4agl/0833_docked.pdbqt
 OpenBabel03202223453D

 28 31  0  0  1  0  0  0  0  0999 V2000
   91.9800   98.8370  -44.0900 C   0  0  1  0  0  0  0  0  0  0  0  0
   91.6000   97.5310  -43.5690 N   0  0  0  0  0  0  0  0  0  0  0  0
   91.6680   97.2020  -42.1490 C   0  0  0  0  0  2  0  0  0  0  0  0
   91.5330   95.7480  -41.8780 C   0  0  0  0  0  2  0  0  0  0  0  0
   92.4660   94.8820  -42.6840 C   0  0  0  0  0  2  0  0  0  0  0  0
   91.6640   94.4020  -43.8780 C   0  0  0  0  0  2  0  0  0  0  0  0
   91.2340   95.4190  -44.7930 C   0  0  0  0  0  3  0  0  0  0  0  0
   91.2060   96.7650  -44.6630 C   0  0  0  0  0  0  0  0  0  0  0  0
   90.7200   97.5790  -45.7040 N   0  0  0  0  0  4  0  0  0  0  0  0
   91.1110   98.8970  -45.2970 C   0  0  0  0  0  2  0  0  0  0  0  0
   91.1400   97.3800  -46.6420 H   0  0  0  0  0  0  0  0  0  0  0  0
   91.6980   99.8940  -43.0980 C   0  0  0  0  0  0  0  0  0  0  0  0
   90.3790  100.0600  -42.6650 C   0  0  0  0  0  3  0  0  0  0  0  0
   90.1360  101.0910  -41.7560 C   0  0  0  0  0  3  0  0  0  0  0  0
   91.1610  101.8980  -41.3180 C   0  0  0  0  0  0  0  0  0  0  0  0
   90.7840  103.2990  -40.0700 Br  0  0  0  0  0  0  0  0  0  0  0  0
   92.4560  101.7020  -41.7680 C   0  0  0  0  0  3  0  0  0  0  0  0
   92.7180  100.6850  -42.6700 C   0  0  0  0  0  3  0  0  0  0  0  0
   93.3230   98.7940  -44.3640 O   0  0  0  0  0  0  0  0  0  0  0  0
   93.6290   99.4880  -44.9850 H   0  0  0  0  0  0  0  0  0  0  0  0
   89.3020   97.4090  -45.7120 C   0  0  0  0  0  0  0  0  0  0  0  0
   88.6790   96.6990  -46.7240 C   0  0  0  0  0  0  0  0  0  0  0  0
   87.2910   96.6570  -46.6810 C   0  0  0  0  0  3  0  0  0  0  0  0
   86.5250   97.2710  -45.7080 C   0  0  0  0  0  3  0  0  0  0  0  0
   87.2050   97.9830  -44.6970 C   0  0  0  0  0  3  0  0  0  0  0  0
   88.5520   98.0140  -44.7490 C   0  0  0  0  0  3  0  0  0  0  0  0
   89.4220   96.0880  -47.6870 O   0  0  0  0  0  0  0  0  0  0  0  0
   88.8600   95.1520  -48.5680 C   0  0  0  0  0  1  0  0  0  0  0  0
  1 19  1  6  0  0  0
  1  2  1  0  0  0  0
  1 12  1  0  0  0  0
  2  3  1  0  0  0  0
  3  4  1  0  0  0  0
  5  4  1  0  0  0  0
  6  5  1  0  0  0  0
  7  8  2  0  0  0  0
  7  6  1  0  0  0  0
  8  2  1  0  0  0  0
  9 10  1  0  0  0  0
  9  8  1  0  0  0  0
 10  1  1  0  0  0  0
 11  9  1  0  0  0  0
 12 18  2  0  0  0  0
 12 13  1  0  0  0  0
 13 14  2  0  0  0  0
 14 15  1  0  0  0  0
 15 16  1  0  0  0  0
 17 15  2  0  0  0  0
 18 17  1  0  0  0  0
 20 19  1  0  0  0  0
 21  9  1  0  0  0  0
 21 26  1  0  0  0  0
 22 23  1  0  0  0  0
 22 21  2  0  0  0  0
 23 24  2  0  0  0  0
 24 25  1  0  0  0  0
 26 25  2  0  0  0  0
 27 22  1  0  0  0  0
 28 27  1  0  0  0  0
M  END
>  <Pose>
1

>  <Score>
-6.148

$$$$
