/Users/jonathanwahrer/Desktop/Msc/3_Semester/Drug_Design_Praktikum/waehrer_HTS_screening/HTS_experiment/out/docking_results/vina_output/4agl/0835_docked.pdbqt
 OpenBabel03202223463D

 27 30  0  0  1  0  0  0  0  0999 V2000
   91.2520   98.8160  -43.0950 C   0  0  2  0  0  0  0  0  0  0  0  0
   89.9860   99.4230  -43.4430 N   0  0  0  0  0  0  0  0  0  0  0  0
   88.6370   98.9910  -43.7430 C   0  0  0  0  0  2  0  0  0  0  0  0
   87.5970   99.9680  -43.2350 C   0  0  0  0  0  2  0  0  0  0  0  0
   87.8640  101.2990  -43.8540 C   0  0  0  0  0  2  0  0  0  0  0  0
   89.2740  101.7070  -43.6820 C   0  0  0  0  0  3  0  0  0  0  0  0
   90.2560  100.8220  -43.4910 C   0  0  0  0  0  0  0  0  0  0  0  0
   91.6350  101.0800  -43.3400 N   0  0  0  0  0  4  0  0  0  0  0  0
   92.2390   99.7780  -43.6910 C   0  0  0  0  0  2  0  0  0  0  0  0
   91.9950  101.7120  -44.1280 H   0  0  0  0  0  0  0  0  0  0  0  0
   91.4100   97.4430  -43.6360 C   0  0  0  0  0  0  0  0  0  0  0  0
   91.5210   96.3740  -42.7730 C   0  0  0  0  0  3  0  0  0  0  0  0
   91.6620   95.0600  -43.2190 C   0  0  0  0  0  3  0  0  0  0  0  0
   91.6920   94.8200  -44.5750 C   0  0  0  0  0  0  0  0  0  0  0  0
   91.8950   93.0170  -45.2040 Br  0  0  0  0  0  0  0  0  0  0  0  0
   91.5840   95.8800  -45.4490 C   0  0  0  0  0  3  0  0  0  0  0  0
   91.4440   97.1770  -44.9910 C   0  0  0  0  0  3  0  0  0  0  0  0
   91.4690   98.7720  -41.7220 O   0  0  0  0  0  0  0  0  0  0  0  0
   92.1430   98.0690  -41.5640 H   0  0  0  0  0  0  0  0  0  0  0  0
   92.0670  101.5150  -42.0920 C   0  0  0  0  0  0  0  0  0  0  0  0
   93.3250  102.0100  -41.8530 C   0  0  0  0  0  0  0  0  0  0  0  0
   93.6990  102.4120  -40.5680 C   0  0  0  0  0  3  0  0  0  0  0  0
   92.8210  102.3210  -39.5190 C   0  0  0  0  0  3  0  0  0  0  0  0
   91.5560  101.8270  -39.7500 C   0  0  0  0  0  3  0  0  0  0  0  0
   91.1940  101.4350  -41.0140 C   0  0  0  0  0  3  0  0  0  0  0  0
   94.2710  102.1380  -42.8500 O   0  0  0  0  0  0  0  0  0  0  0  0
   95.1040  103.2480  -42.9170 C   0  0  0  0  0  1  0  0  0  0  0  0
  1 18  1  1  0  0  0
  2  1  1  0  0  0  0
  3  2  1  0  0  0  0
  3  4  1  0  0  0  0
  5  6  1  0  0  0  0
  5  4  1  0  0  0  0
  6  7  2  0  0  0  0
  7  2  1  0  0  0  0
  7  8  1  0  0  0  0
  8 20  1  0  0  0  0
  9  8  1  0  0  0  0
  9  1  1  0  0  0  0
 10  8  1  0  0  0  0
 11  1  1  0  0  0  0
 11 12  1  0  0  0  0
 13 12  2  0  0  0  0
 14 13  1  0  0  0  0
 15 14  1  0  0  0  0
 16 17  1  0  0  0  0
 16 14  2  0  0  0  0
 17 11  2  0  0  0  0
 18 19  1  0  0  0  0
 20 21  2  0  0  0  0
 20 25  1  0  0  0  0
 21 22  1  0  0  0  0
 22 23  2  0  0  0  0
 24 23  1  0  0  0  0
 25 24  2  0  0  0  0
 26 21  1  0  0  0  0
 27 26  1  0  0  0  0
M  END
>  <Pose>
1

>  <Score>
-5.992

$$$$
