/Users/jonathanwahrer/Desktop/Msc/3_Semester/Drug_Design_Praktikum/waehrer_HTS_screening/HTS_experiment/out/docking_results/vina_output/4agl/0836_docked.pdbqt
 OpenBabel03202223463D

 27 30  0  0  1  0  0  0  0  0999 V2000
   90.4700  100.1690  -43.9010 C   0  0  2  0  0  0  0  0  0  0  0  0
   89.3430   99.2760  -43.7990 N   0  0  0  0  0  0  0  0  0  0  0  0
   88.1360   99.2080  -42.9860 C   0  0  0  0  0  2  0  0  0  0  0  0
   86.9780   98.5620  -43.6420 C   0  0  0  0  0  2  0  0  0  0  0  0
   87.1740   98.1780  -45.0870 C   0  0  0  0  0  2  0  0  0  0  0  0
   88.5300   97.7270  -45.3860 C   0  0  0  0  0  3  0  0  0  0  0  0
   89.5660   98.2580  -44.7630 C   0  0  0  0  0  0  0  0  0  0  0  0
   90.9690   98.0270  -44.8410 N   0  0  0  0  0  4  0  0  0  0  0  0
   91.5580   99.2650  -44.4320 C   0  0  0  0  0  2  0  0  0  0  0  0
   91.1860   97.8310  -45.8550 H   0  0  0  0  0  0  0  0  0  0  0  0
   90.8380  100.8400  -42.6560 C   0  0  0  0  0  0  0  0  0  0  0  0
   90.1300  101.9410  -42.2230 C   0  0  0  0  0  3  0  0  0  0  0  0
   90.4330  102.6130  -41.0570 C   0  0  0  0  0  3  0  0  0  0  0  0
   91.4800  102.2060  -40.2530 C   0  0  0  0  0  0  0  0  0  0  0  0
   91.9200  103.1210  -38.6370 Br  0  0  0  0  0  0  0  0  0  0  0  0
   92.1980  101.1060  -40.6710 C   0  0  0  0  0  3  0  0  0  0  0  0
   91.8880  100.4370  -41.8410 C   0  0  0  0  0  3  0  0  0  0  0  0
   90.1290  101.1550  -44.8490 O   0  0  0  0  0  0  0  0  0  0  0  0
   89.1560  101.2990  -44.7500 H   0  0  0  0  0  0  0  0  0  0  0  0
   91.2910   96.9230  -44.0630 C   0  0  0  0  0  0  0  0  0  0  0  0
   91.4330   95.6790  -44.6330 C   0  0  0  0  0  3  0  0  0  0  0  0
   91.7580   94.5630  -43.8450 C   0  0  0  0  0  3  0  0  0  0  0  0
   91.9440   94.6690  -42.4950 C   0  0  0  0  0  0  0  0  0  0  0  0
   91.7980   95.9430  -41.9150 C   0  0  0  0  0  3  0  0  0  0  0  0
   91.4780   97.0190  -42.7160 C   0  0  0  0  0  3  0  0  0  0  0  0
   92.2670   93.6060  -41.6530 O   0  0  0  0  0  0  0  0  0  0  0  0
   93.4730   92.9150  -41.6220 C   0  0  0  0  0  1  0  0  0  0  0  0
  1 18  1  6  0  0  0
  1  2  1  0  0  0  0
  1 11  1  0  0  0  0
  2  3  1  0  0  0  0
  4  3  1  0  0  0  0
  5  4  1  0  0  0  0
  6  5  1  0  0  0  0
  6  7  2  0  0  0  0
  7  2  1  0  0  0  0
  8  7  1  0  0  0  0
  8  9  1  0  0  0  0
  8 20  1  0  0  0  0
  9  1  1  0  0  0  0
 10  8  1  0  0  0  0
 11 12  2  0  0  0  0
 11 17  1  0  0  0  0
 12 13  1  0  0  0  0
 13 14  2  0  0  0  0
 14 15  1  0  0  0  0
 16 14  1  0  0  0  0
 17 16  2  0  0  0  0
 18 19  1  0  0  0  0
 20 25  1  0  0  0  0
 21 20  2  0  0  0  0
 21 22  1  0  0  0  0
 22 23  2  0  0  0  0
 23 24  1  0  0  0  0
 23 26  1  0  0  0  0
 25 24  2  0  0  0  0
 26 27  1  0  0  0  0
M  END
>  <Pose>
1

>  <Score>
-6.580

$$$$
