/Users/jonathanwahrer/Desktop/Msc/3_Semester/Drug_Design_Praktikum/waehrer_HTS_screening/HTS_experiment/out/docking_results/vina_output/4agl/0847_docked.pdbqt
 OpenBabel03202223463D

 31 34  0  0  1  0  0  0  0  0999 V2000
   91.4840   94.3930  -45.2890 C   0  0  0  0  0  0  0  0  0  0  0  0
   91.4890   94.6860  -43.9780 N   0  0  0  0  0  0  0  0  0  0  0  0
   91.5400   96.0250  -43.8510 C   0  0  1  0  0  3  0  0  0  0  0  0
   91.5680   96.5740  -45.1100 N   0  0  0  0  0  0  0  0  0  0  0  0
   91.5330   95.5550  -45.9520 N   0  0  0  0  0  0  0  0  0  0  0  0
   91.5630   96.9110  -42.6830 C   0  0  0  0  0  2  0  0  0  0  0  0
   92.2790   96.3590  -41.4800 C   0  0  0  0  0  2  0  0  0  0  0  0
   91.6700   95.1050  -40.9420 C   0  0  0  0  0  2  0  0  0  0  0  0
   92.2460   93.9560  -41.7360 C   0  0  0  0  0  2  0  0  0  0  0  0
   91.4390   93.6700  -42.9780 C   0  0  0  0  0  2  0  0  0  0  0  0
   91.5760   97.9320  -45.4840 C   0  0  0  0  0  3  0  0  0  0  0  0
   90.3300   98.6530  -45.4830 C   0  0  0  0  0  0  0  0  0  0  0  0
   90.4700   99.9140  -45.8940 O   0  0  0  0  0  1  0  0  0  0  0  0
   88.9760   98.3220  -45.1410 C   0  0  0  0  0  0  0  0  0  0  0  0
   88.3580   98.9080  -44.0140 C   0  0  0  0  0  3  0  0  0  0  0  0
   87.0710   98.6240  -43.6400 C   0  0  0  0  0  3  0  0  0  0  0  0
   86.3080   97.7380  -44.3580 C   0  0  0  0  0  0  0  0  0  0  0  0
   86.8690   97.1470  -45.4570 C   0  0  0  0  0  3  0  0  0  0  0  0
   88.1920   97.4480  -45.8310 C   0  0  0  0  0  3  0  0  0  0  0  0
   84.9990   97.4500  -43.9760 O   0  0  0  0  0  0  0  0  0  0  0  0
   84.0240   98.4500  -43.8110 C   0  0  0  0  0  1  0  0  0  0  0  0
   91.4380   93.0620  -45.9740 C   0  0  0  0  0  2  0  0  0  0  0  0
   91.0150   93.1610  -47.3560 N   0  0  0  0  0  0  0  0  0  0  0  0
   90.9360   94.0880  -47.8290 H   0  0  0  0  0  0  0  0  0  0  0  0
   90.6820   92.0140  -48.1480 C   0  0  0  0  0  0  0  0  0  0  0  0
   91.1420   90.7640  -47.7950 C   0  0  0  0  0  3  0  0  0  0  0  0
   90.8180   89.6710  -48.5520 C   0  0  0  0  0  3  0  0  0  0  0  0
   90.0220   89.8140  -49.6840 C   0  0  0  0  0  0  0  0  0  0  0  0
   89.5700   88.2960  -50.7340 Br  0  0  0  0  0  0  0  0  0  0  0  0
   89.5490   91.0600  -50.0550 C   0  0  0  0  0  3  0  0  0  0  0  0
   89.8940   92.1380  -49.2730 C   0  0  0  0  0  3  0  0  0  0  0  0
  1  2  1  0  0  0  0
  2  3  1  0  0  0  0
  2 10  1  0  0  0  0
  3  6  1  6  0  0  0
  4  3  1  0  0  0  0
  5  1  2  0  0  0  0
  5  4  1  0  0  0  0
  6  7  1  0  0  0  0
  7  8  1  0  0  0  0
  9  8  1  0  0  0  0
 10  9  1  0  0  0  0
 11 12  2  0  0  0  0
 11  4  1  0  0  0  0
 12 14  1  0  0  0  0
 13 12  1  0  0  0  0
 14 15  1  0  0  0  0
 15 16  2  0  0  0  0
 17 20  1  0  0  0  0
 17 16  1  0  0  0  0
 18 17  2  0  0  0  0
 19 18  1  0  0  0  0
 19 14  2  0  0  0  0
 20 21  1  0  0  0  0
 22  1  1  0  0  0  0
 23 22  1  0  0  0  0
 24 23  1  0  0  0  0
 25 26  1  0  0  0  0
 25 23  1  0  0  0  0
 27 26  2  0  0  0  0
 28 27  1  0  0  0  0
 29 28  1  0  0  0  0
 30 28  2  0  0  0  0
 30 31  1  0  0  0  0
 31 25  2  0  0  0  0
M  END
>  <Pose>
1

>  <Score>
-6.934

$$$$
