/Users/jonathanwahrer/Desktop/Msc/3_Semester/Drug_Design_Praktikum/waehrer_HTS_screening/HTS_experiment/out/docking_results/vina_output/4agl/0872_docked.pdbqt
 OpenBabel03202223483D

 32 35  0  0  0  0  0  0  0  0999 V2000
   91.5340   99.7220  -45.5400 N   0  0  0  0  0  0  0  0  0  0  0  0
   92.1360  100.2600  -46.5860 N   0  0  0  0  0  0  0  0  0  0  0  0
   92.7960  101.3080  -46.1240 N   0  0  0  0  0  0  0  0  0  0  0  0
   92.6210  101.4460  -44.7940 C   0  0  0  0  0  0  0  0  0  0  0  0
   91.8160  100.4320  -44.4340 C   0  0  0  0  0  0  0  0  0  0  0  0
   91.6480  100.5870  -43.0780 C   0  0  0  0  0  0  0  0  0  0  0  0
   90.9500   99.8290  -42.3520 O   0  0  0  0  0  0  0  0  0  0  0  0
   92.3200  101.6580  -42.6090 N   0  0  0  0  0  0  0  0  0  0  0  0
   92.9310  102.1990  -43.6760 C   0  0  0  0  0  0  0  0  0  0  0  0
   93.6630  103.2230  -43.6510 O   0  0  0  0  0  0  0  0  0  0  0  0
   92.1060   99.9300  -47.5930 H   0  0  0  0  0  0  0  0  0  0  0  0
   93.3730  101.9320  -46.7470 H   0  0  0  0  0  0  0  0  0  0  0  0
   90.7050   98.5390  -45.6210 C   0  0  0  0  0  2  0  0  0  0  0  0
   91.4930   97.3490  -45.1120 C   0  0  0  0  0  0  0  0  0  0  0  0
   90.9470   96.5460  -44.1150 N   0  0  0  0  0  0  0  0  0  0  0  0
   89.9690   96.8350  -43.7660 H   0  0  0  0  0  0  0  0  0  0  0  0
   92.6010   97.1580  -45.6240 O   0  0  0  0  0  0  0  0  0  0  0  0
   91.5670   95.4190  -43.5540 C   0  0  0  0  0  0  0  0  0  0  0  0
   91.8630   95.4330  -42.1810 C   0  0  0  0  0  0  0  0  0  0  0  0
   91.5270   96.5470  -41.4750 F   0  0  0  0  0  0  0  0  0  0  0  0
   92.4690   94.3520  -41.5940 C   0  0  0  0  0  3  0  0  0  0  0  0
   92.7980   93.2360  -42.3350 C   0  0  0  0  0  0  0  0  0  0  0  0
   92.5240   93.1830  -43.6820 C   0  0  0  0  0  3  0  0  0  0  0  0
   93.3950   92.1900  -41.7170 F   0  0  0  0  0  0  0  0  0  0  0  0
   91.9000   94.3080  -44.2630 C   0  0  0  0  0  3  0  0  0  0  0  0
   92.3510  102.0940  -41.2380 C   0  0  0  0  0  0  0  0  0  0  0  0
   91.2920  102.7980  -40.6990 C   0  0  0  0  0  3  0  0  0  0  0  0
   91.2780  103.2360  -39.3910 C   0  0  0  0  0  3  0  0  0  0  0  0
   92.3830  102.9430  -38.6160 C   0  0  0  0  0  0  0  0  0  0  0  0
   93.4730  102.2400  -39.1030 C   0  0  0  0  0  3  0  0  0  0  0  0
   92.3410  103.5620  -36.7980 Br  0  0  0  0  0  0  0  0  0  0  0  0
   93.4230  101.8310  -40.4200 C   0  0  0  0  0  3  0  0  0  0  0  0
  1  5  1  0  0  0  0
  2  3  1  0  0  0  0
  2  1  1  0  0  0  0
  3  4  1  0  0  0  0
  4  5  2  0  0  0  0
  4  9  1  0  0  0  0
  5  6  1  0  0  0  0
  6  8  1  0  0  0  0
  6  7  2  0  0  0  0
  8 26  1  0  0  0  0
  9 10  2  0  0  0  0
  9  8  1  0  0  0  0
 11  2  1  0  0  0  0
 12  3  1  0  0  0  0
 13  1  1  0  0  0  0
 13 14  1  0  0  0  0
 14 15  1  0  0  0  0
 15 16  1  0  0  0  0
 15 18  1  0  0  0  0
 17 14  2  0  0  0  0
 18 19  1  0  0  0  0
 19 21  2  0  0  0  0
 19 20  1  0  0  0  0
 22 24  1  0  0  0  0
 22 21  1  0  0  0  0
 23 22  2  0  0  0  0
 25 23  1  0  0  0  0
 25 18  2  0  0  0  0
 26 27  2  0  0  0  0
 26 32  1  0  0  0  0
 27 28  1  0  0  0  0
 28 29  2  0  0  0  0
 29 31  1  0  0  0  0
 30 29  1  0  0  0  0
 32 30  2  0  0  0  0
M  END
>  <Pose>
1

>  <Score>
-7.003

$$$$
