/Users/jonathanwahrer/Desktop/Msc/3_Semester/Drug_Design_Praktikum/waehrer_HTS_screening/HTS_experiment/out/docking_results/vina_output/4agl/0873_docked.pdbqt
 OpenBabel03202223483D

 32 35  0  0  1  0  0  0  0  0999 V2000
   90.0880   98.4460  -44.7140 C   0  0  2  0  0  3  0  0  0  0  0  0
   90.3370   99.0370  -46.0190 N   0  0  0  0  0  0  0  0  0  0  0  0
   91.7700   99.2050  -45.9890 C   0  0  0  0  0  0  0  0  0  0  0  0
   92.5870   99.1600  -46.9470 O   0  0  0  0  0  0  0  0  0  0  0  0
   92.1900   99.4540  -44.5810 C   0  0  0  0  0  0  0  0  0  0  0  0
   93.2900   99.6540  -44.0680 O   0  0  0  0  0  0  0  0  0  0  0  0
   90.8850   99.4090  -43.8590 C   0  0  0  0  0  0  0  0  0  0  0  0
   90.5670  100.0530  -42.7630 C   0  0  0  0  0  0  0  0  0  0  0  0
   89.2810   99.8790  -42.2120 O   0  0  0  0  0  1  0  0  0  0  0  0
   89.5310   99.4000  -47.1040 C   0  0  0  0  0  2  0  0  0  0  0  0
   88.0570   99.5110  -46.9470 C   0  0  0  0  0  2  0  0  0  0  0  0
   87.5080   98.6630  -45.9270 N   0  0  0  0  0  4  0  0  0  0  0  0
   86.7120   97.6290  -46.5560 C   0  0  0  0  0  2  0  0  0  0  0  0
   86.2070   96.6370  -45.5240 C   0  0  0  0  0  2  0  0  0  0  0  0
   85.4400   97.3080  -44.5910 O   0  0  0  0  0  0  0  0  0  0  0  0
   86.1730   98.3340  -44.0020 C   0  0  0  0  0  2  0  0  0  0  0  0
   86.5530   99.3810  -45.0580 C   0  0  0  0  0  2  0  0  0  0  0  0
   88.2100   98.2960  -45.2530 H   0  0  0  0  0  0  0  0  0  0  0  0
   90.6520   97.0990  -44.5300 C   0  0  0  0  0  0  0  0  0  0  0  0
   90.5400   96.1010  -45.4760 C   0  0  0  0  0  0  0  0  0  0  0  0
   89.9330   96.3000  -46.6360 F   0  0  0  0  0  0  0  0  0  0  0  0
   91.0640   94.8250  -45.2510 C   0  0  0  0  0  3  0  0  0  0  0  0
   91.7050   94.5210  -44.0950 C   0  0  0  0  0  3  0  0  0  0  0  0
   91.8360   95.4820  -43.1350 C   0  0  0  0  0  3  0  0  0  0  0  0
   91.3070   96.7400  -43.3780 C   0  0  0  0  0  3  0  0  0  0  0  0
   91.5020  100.9470  -42.0970 C   0  0  0  0  0  0  0  0  0  0  0  0
   92.2220  100.4780  -41.0200 C   0  0  0  0  0  3  0  0  0  0  0  0
   93.1080  101.2830  -40.3230 C   0  0  0  0  0  3  0  0  0  0  0  0
   93.2890  102.5950  -40.7050 C   0  0  0  0  0  0  0  0  0  0  0  0
   92.5870  103.0790  -41.7660 C   0  0  0  0  0  3  0  0  0  0  0  0
   94.5160  103.7380  -39.7530 Br  0  0  0  0  0  0  0  0  0  0  0  0
   91.6900  102.2530  -42.4650 C   0  0  0  0  0  3  0  0  0  0  0  0
  1 19  1  6  0  0  0
  1  7  1  0  0  0  0
  2  3  1  0  0  0  0
  2  1  1  0  0  0  0
  3  5  1  0  0  0  0
  4  3  2  0  0  0  0
  5  6  2  0  0  0  0
  5  7  1  0  0  0  0
  7  8  2  0  0  0  0
  8  9  1  0  0  0  0
  8 26  1  0  0  0  0
 10 11  1  0  0  0  0
 10  2  1  0  0  0  0
 11 12  1  0  0  0  0
 12 18  1  0  0  0  0
 12 17  1  0  0  0  0
 13 12  1  0  0  0  0
 13 14  1  0  0  0  0
 14 15  1  0  0  0  0
 15 16  1  0  0  0  0
 17 16  1  0  0  0  0
 19 25  1  0  0  0  0
 20 22  1  0  0  0  0
 20 19  2  0  0  0  0
 21 20  1  0  0  0  0
 22 23  2  0  0  0  0
 23 24  1  0  0  0  0
 25 24  2  0  0  0  0
 26 27  1  0  0  0  0
 27 28  2  0  0  0  0
 29 28  1  0  0  0  0
 29 31  1  0  0  0  0
 30 29  2  0  0  0  0
 32 26  2  0  0  0  0
 32 30  1  0  0  0  0
M  END
>  <Pose>
1

>  <Score>
-6.045

$$$$
