/Users/jonathanwahrer/Desktop/Msc/3_Semester/Drug_Design_Praktikum/waehrer_HTS_screening/HTS_experiment/out/docking_results/vina_output/4agl/0892_docked.pdbqt
 OpenBabel03202223493D

 27 30  0  0  1  0  0  0  0  0999 V2000
   91.9700   98.9190  -43.5870 C   0  0  2  0  0  3  0  0  0  0  0  0
   91.4390   97.8000  -44.3330 N   0  0  0  0  0  0  0  0  0  0  0  0
   90.0520   97.7820  -44.6870 C   0  0  0  0  0  0  0  0  0  0  0  0
   89.1590   97.0040  -45.9610 S   0  0  0  0  0  0  0  0  0  0  0  0
   87.5960   97.5520  -45.5780 C   0  0  0  0  0  0  0  0  0  0  0  0
   87.8050   98.3180  -44.4840 C   0  0  0  0  0  0  0  0  0  0  0  0
   89.0600   98.4410  -44.0210 C   0  0  0  0  0  0  0  0  0  0  0  0
   89.6010   99.1990  -42.8570 C   0  0  0  0  0  0  0  0  0  0  0  0
   88.8460   99.8690  -42.1130 O   0  0  0  0  0  0  0  0  0  0  0  0
   90.9810   99.1830  -42.5560 N   0  0  0  0  0  0  0  0  0  0  0  0
   86.5440   98.9530  -43.9100 C   0  0  0  0  0  2  0  0  0  0  0  0
   85.3690   98.1470  -44.3570 C   0  0  0  0  0  2  0  0  0  0  0  0
   85.3480   98.2590  -45.8240 N   0  0  0  0  0  4  0  0  0  0  0  0
   86.3120   97.2720  -46.2600 C   0  0  0  0  0  2  0  0  0  0  0  0
   84.0260   98.0130  -46.3500 C   0  0  0  0  0  1  0  0  0  0  0  0
   92.0200   96.9860  -44.6330 H   0  0  0  0  0  0  0  0  0  0  0  0
   91.3210   99.3620  -41.5770 H   0  0  0  0  0  0  0  0  0  0  0  0
   85.7170   99.1960  -46.0930 H   0  0  0  0  0  0  0  0  0  0  0  0
   92.0490  100.0600  -44.5360 C   0  0  0  0  0  0  0  0  0  0  0  0
   92.4950   99.9540  -45.8320 C   0  0  0  0  0  0  0  0  0  0  0  0
   92.5620  101.0610  -46.6800 C   0  0  0  0  0  0  0  0  0  0  0  0
   92.8860   98.7250  -46.3140 O   0  0  0  0  0  1  0  0  0  0  0  0
   93.2530  100.8310  -48.6530 I   0  0  0  0  0  0  0  0  0  0  0  0
   92.1850  102.2970  -46.2550 C   0  0  0  0  0  3  0  0  0  0  0  0
   91.7360  102.4250  -44.9610 C   0  0  0  0  0  0  0  0  0  0  0  0
   91.6680  101.3440  -44.1210 C   0  0  0  0  0  3  0  0  0  0  0  0
   91.2080  104.1530  -44.3610 Br  0  0  0  0  0  0  0  0  0  0  0  0
  1 19  1  6  0  0  0
  1 10  1  0  0  0  0
  2  1  1  0  0  0  0
  3  2  1  0  0  0  0
  3  7  2  0  0  0  0
  4  5  1  0  0  0  0
  4  3  1  0  0  0  0
  5  6  2  0  0  0  0
  6  7  1  0  0  0  0
  6 11  1  0  0  0  0
  7  8  1  0  0  0  0
  8 10  1  0  0  0  0
  8  9  2  0  0  0  0
 10 17  1  0  0  0  0
 12 11  1  0  0  0  0
 13 12  1  0  0  0  0
 14 13  1  0  0  0  0
 14  5  1  0  0  0  0
 15 13  1  0  0  0  0
 16  2  1  0  0  0  0
 18 13  1  0  0  0  0
 19 26  1  0  0  0  0
 20 19  2  0  0  0  0
 21 24  2  0  0  0  0
 21 20  1  0  0  0  0
 22 20  1  0  0  0  0
 23 21  1  0  0  0  0
 24 25  1  0  0  0  0
 25 27  1  0  0  0  0
 25 26  2  0  0  0  0
M  END
>  <Pose>
1

>  <Score>
-5.636

$$$$
