/Users/jonathanwahrer/Desktop/Msc/3_Semester/Drug_Design_Praktikum/waehrer_HTS_screening/HTS_experiment/out/docking_results/vina_output/4agl/0906_docked.pdbqt
 OpenBabel03202223493D

 27 30  0  0  1  0  0  0  0  0999 V2000
   91.9020   98.7310  -42.5870 C   0  0  2  0  0  3  0  0  0  0  0  0
   91.5020   98.8810  -43.8440 N   0  0  0  0  0  0  0  0  0  0  0  0
   91.1680   97.8870  -44.6860 C   0  0  0  0  0  0  0  0  0  0  0  0
   90.7510   97.7470  -45.9500 N   0  0  0  0  0  2  0  0  0  0  0  0
   90.5820   96.4880  -46.2350 O   0  0  0  0  0  0  0  0  0  0  0  0
   90.8750   95.7630  -45.1940 N   0  0  0  0  0  0  0  0  0  0  0  0
   91.2470   96.5790  -44.1960 C   0  0  0  0  0  0  0  0  0  0  0  0
   91.6390   96.3710  -42.9520 N   0  0  0  0  0  0  0  0  0  0  0  0
   91.9610   97.3920  -42.1540 C   0  0  0  0  0  0  0  0  0  0  0  0
   92.3060   96.8650  -40.9900 N   0  0  0  0  0  0  0  0  0  0  0  0
   92.2010   95.5260  -41.0580 N   0  0  0  0  0  0  0  0  0  0  0  0
   91.7820   95.1900  -42.2870 C   0  0  0  0  0  0  0  0  0  0  0  0
   92.2550   99.7650  -41.6960 N   0  0  0  0  0  0  0  0  0  0  0  0
   93.1520   99.6280  -41.1080 H   0  0  0  0  0  0  0  0  0  0  0  0
   91.5820  100.9810  -41.4620 C   0  0  0  0  0  0  0  0  0  0  0  0
   92.2340  101.9850  -40.7110 C   0  0  0  0  0  0  0  0  0  0  0  0
   94.1860  101.6360  -39.9840 I   0  0  0  0  0  0  0  0  0  0  0  0
   91.6070  103.1790  -40.4580 C   0  0  0  0  0  3  0  0  0  0  0  0
   90.3200  103.4050  -40.9420 C   0  0  0  0  0  3  0  0  0  0  0  0
   89.7140  102.4160  -41.6640 C   0  0  0  0  0  3  0  0  0  0  0  0
   90.3220  101.1890  -41.9440 C   0  0  0  0  0  3  0  0  0  0  0  0
   91.5090   93.8430  -42.8550 C   0  0  0  0  0  2  0  0  0  0  0  0
   92.7180   93.1850  -43.4060 C   0  0  0  0  0  0  0  0  0  0  0  0
   93.7470   92.9730  -42.7310 O   0  0  0  0  0  0  0  0  0  0  0  0
   92.7110   92.7930  -44.7150 O   0  0  0  0  0  0  0  0  0  0  0  0
   91.5830   92.4830  -45.4530 C   0  0  0  0  0  2  0  0  0  0  0  0
   91.7690   91.5320  -46.5720 C   0  0  0  0  0  1  0  0  0  0  0  0
  1  9  1  0  0  0  0
  1 13  1  1  0  0  0
  2  1  1  0  0  0  0
  3  7  1  0  0  0  0
  3  2  2  0  0  0  0
  4  3  1  0  0  0  0
  5  4  1  0  0  0  0
  5  6  1  0  0  0  0
  6  7  2  0  0  0  0
  7  8  1  0  0  0  0
  8 12  1  0  0  0  0
  8  9  1  0  0  0  0
  9 10  2  0  0  0  0
 11 10  1  0  0  0  0
 12 11  2  0  0  0  0
 13 15  1  0  0  0  0
 13 14  1  0  0  0  0
 15 16  1  0  0  0  0
 16 18  2  0  0  0  0
 16 17  1  0  0  0  0
 19 18  1  0  0  0  0
 20 19  2  0  0  0  0
 21 20  1  0  0  0  0
 21 15  2  0  0  0  0
 22 12  1  0  0  0  0
 23 22  1  0  0  0  0
 23 24  2  0  0  0  0
 25 23  1  0  0  0  0
 26 25  1  0  0  0  0
 27 26  1  0  0  0  0
M  END
>  <Pose>
1

>  <Score>
-6.832

$$$$
