/Users/jonathanwahrer/Desktop/Msc/3_Semester/Drug_Design_Praktikum/waehrer_HTS_screening/HTS_experiment/out/docking_results/vina_output/4agl/0908_docked.pdbqt
 OpenBabel03202223493D

 25 28  0  0  0  0  0  0  0  0999 V2000
   89.5810   99.9500  -43.8730 N   0  0  0  0  0  0  0  0  0  0  0  0
   89.9320   98.6530  -43.8260 C   0  0  0  0  0  0  0  0  0  0  0  0
   89.4010   97.7270  -44.5090 O   0  0  0  0  0  0  0  0  0  0  0  0
   90.9590   98.4410  -42.9280 C   0  0  0  0  0  0  0  0  0  0  0  0
   91.2370   99.6310  -42.4210 C   0  0  0  0  0  0  0  0  0  0  0  0
   92.2450   99.4080  -41.5450 N   0  0  0  0  0  0  0  0  0  0  0  0
   92.5650   98.1270  -41.5230 N   0  0  0  0  0  0  0  0  0  0  0  0
   91.7820   97.5110  -42.3700 N   0  0  0  0  0  0  0  0  0  0  0  0
   90.3940  100.5680  -42.9970 C   0  0  0  0  0  0  0  0  0  0  0  0
   90.4060  101.8120  -42.7230 O   0  0  0  0  0  0  0  0  0  0  0  0
   92.7170  100.1290  -40.9600 H   0  0  0  0  0  0  0  0  0  0  0  0
   93.3030   97.6860  -40.9380 H   0  0  0  0  0  0  0  0  0  0  0  0
   88.5720  100.5750  -44.6670 C   0  0  0  0  0  0  0  0  0  0  0  0
   88.8380  101.0420  -45.9380 C   0  0  0  0  0  0  0  0  0  0  0  0
   90.8090  100.7960  -46.6700 I   0  0  0  0  0  0  0  0  0  0  0  0
   87.8790  101.6490  -46.7230 C   0  0  0  0  0  3  0  0  0  0  0  0
   86.5910  101.8150  -46.2580 C   0  0  0  0  0  3  0  0  0  0  0  0
   86.3120  101.3530  -44.9890 C   0  0  0  0  0  3  0  0  0  0  0  0
   87.2810  100.7440  -44.2090 C   0  0  0  0  0  3  0  0  0  0  0  0
   91.7490   96.1270  -42.6940 C   0  0  0  0  0  0  0  0  0  0  0  0
   91.6790   95.6810  -43.9950 C   0  0  0  0  0  3  0  0  0  0  0  0
   91.6480   94.3250  -44.2780 C   0  0  0  0  0  3  0  0  0  0  0  0
   91.6850   93.3720  -43.2810 C   0  0  0  0  0  3  0  0  0  0  0  0
   91.7550   93.8170  -41.9780 C   0  0  0  0  0  3  0  0  0  0  0  0
   91.7860   95.1590  -41.6880 C   0  0  0  0  0  3  0  0  0  0  0  0
  1  2  1  0  0  0  0
  1  9  1  0  0  0  0
  2  4  1  0  0  0  0
  3  2  2  0  0  0  0
  4  5  2  0  0  0  0
  4  8  1  0  0  0  0
  5  6  1  0  0  0  0
  6  7  1  0  0  0  0
  6 11  1  0  0  0  0
  7 12  1  0  0  0  0
  8  7  1  0  0  0  0
  9 10  2  0  0  0  0
  9  5  1  0  0  0  0
 13 19  1  0  0  0  0
 13  1  1  0  0  0  0
 14 13  2  0  0  0  0
 15 14  1  0  0  0  0
 16 17  2  0  0  0  0
 16 14  1  0  0  0  0
 17 18  1  0  0  0  0
 18 19  2  0  0  0  0
 20  8  1  0  0  0  0
 20 25  1  0  0  0  0
 21 20  2  0  0  0  0
 22 21  1  0  0  0  0
 22 23  2  0  0  0  0
 23 24  1  0  0  0  0
 24 25  2  0  0  0  0
M  END
>  <Pose>
1

>  <Score>
-6.260

$$$$
