/Users/jonathanwahrer/Desktop/Msc/3_Semester/Drug_Design_Praktikum/waehrer_HTS_screening/HTS_experiment/out/docking_results/vina_output/4agl/0924_docked.pdbqt
 OpenBabel03202223503D

 29 32  0  0  0  0  0  0  0  0999 V2000
   90.3680   95.3280  -46.2430 C   0  0  0  0  0  0  0  0  0  0  0  0
   90.7780   95.3160  -44.9630 N   0  0  0  0  0  4  0  0  0  0  0  0
   91.3490   94.2300  -44.4280 C   0  0  0  0  0  0  0  0  0  0  0  0
   91.4890   93.1620  -45.2300 N   0  0  0  0  0  0  0  0  0  0  0  0
   91.0900   93.1360  -46.5180 C   0  0  0  0  0  0  0  0  0  0  0  0
   90.5220   94.2480  -47.0190 N   0  0  0  0  0  2  0  0  0  0  0  0
   89.7540   96.5150  -46.8000 N   0  0  0  0  0  0  0  0  0  0  0  0
   88.9010   96.4270  -47.3950 H   0  0  0  0  0  0  0  0  0  0  0  0
   90.3140   97.7260  -46.5620 N   0  0  0  0  0  0  0  0  0  0  0  0
   89.7160   98.6900  -46.0170 C   0  0  0  0  0  3  0  0  0  0  0  0
   88.3620   98.7410  -45.5370 C   0  0  0  0  0  0  0  0  0  0  0  0
   87.9000   98.3530  -44.3130 C   0  0  0  0  0  3  0  0  0  0  0  0
   86.5510   98.4450  -43.9400 C   0  0  0  0  0  3  0  0  0  0  0  0
   85.6350   98.9400  -44.8170 C   0  0  0  0  0  0  0  0  0  0  0  0
   83.6030   99.1160  -44.3530 I   0  0  0  0  0  0  0  0  0  0  0  0
   86.0750   99.3390  -46.0590 C   0  0  0  0  0  3  0  0  0  0  0  0
   87.3970   99.2470  -46.4200 C   0  0  0  0  0  3  0  0  0  0  0  0
   91.7920   94.1930  -43.0710 N   0  0  0  0  0  0  0  0  0  0  0  0
   91.8350   95.3490  -42.2280 C   0  0  0  0  0  2  0  0  0  0  0  0
   92.5290   94.9450  -40.9250 C   0  0  0  0  0  2  0  0  0  0  0  0
   93.7160   94.2730  -41.1670 O   0  0  0  0  0  0  0  0  0  0  0  0
   93.5420   93.0630  -41.7920 C   0  0  0  0  0  2  0  0  0  0  0  0
   92.2210   92.9250  -42.5050 C   0  0  0  0  0  2  0  0  0  0  0  0
   91.2750   91.9620  -47.2980 N   0  0  0  0  0  0  0  0  0  0  0  0
   92.0910   90.8860  -46.7870 C   0  0  0  0  0  2  0  0  0  0  0  0
   92.7980   90.2940  -48.0150 C   0  0  0  0  0  2  0  0  0  0  0  0
   91.8360   89.7270  -48.8100 O   0  0  0  0  0  0  0  0  0  0  0  0
   90.8840   90.5710  -49.3090 C   0  0  0  0  0  3  0  0  0  0  0  0
   90.6620   91.8440  -48.5760 C   0  0  0  0  0  3  0  0  0  0  0  0
  1  2  2  0  0  0  0
  2  3  2  0  0  0  0
  3 18  1  0  0  0  0
  4  3  1  0  0  0  0
  5  4  2  0  0  0  0
  6  5  1  0  0  0  0
  6  1  1  0  0  0  0
  7  9  1  0  0  0  0
  7  1  1  0  0  0  0
  8  7  1  0  0  0  0
  9 10  2  0  0  0  0
 10 11  1  0  0  0  0
 11 12  1  0  0  0  0
 12 13  2  0  0  0  0
 14 15  1  0  0  0  0
 14 13  1  0  0  0  0
 16 14  2  0  0  0  0
 17 16  1  0  0  0  0
 17 11  2  0  0  0  0
 18 23  1  0  0  0  0
 18 19  1  0  0  0  0
 19 20  1  0  0  0  0
 21 20  1  0  0  0  0
 22 21  1  0  0  0  0
 23 22  1  0  0  0  0
 24 25  1  0  0  0  0
 24  5  1  0  0  0  0
 26 25  1  0  0  0  0
 27 26  1  0  0  0  0
 28 27  1  0  0  0  0
 28 29  2  0  0  0  0
 29 24  1  0  0  0  0
M  END
>  <Pose>
1

>  <Score>
-6.725

$$$$
