/Users/jonathanwahrer/Desktop/Msc/3_Semester/Drug_Design_Praktikum/waehrer_HTS_screening/HTS_experiment/out/docking_results/vina_output/4agl/0937_docked.pdbqt
 OpenBabel03202223503D

 26 29  0  0  1  0  0  0  0  0999 V2000
   90.3980  101.6150  -43.1050 N   0  0  0  0  0  0  0  0  0  0  0  0
   89.5820  100.4770  -43.3340 C   0  0  0  0  0  0  0  0  0  0  0  0
   89.1120   99.7590  -42.4140 O   0  0  0  0  0  0  0  0  0  0  0  0
   89.3840  100.2910  -44.7980 C   0  0  1  0  0  3  0  0  0  0  0  0
   89.4880  101.7200  -45.3020 C   0  0  0  0  0  2  0  0  0  0  0  0
   90.2950  102.4160  -44.2790 C   0  0  0  0  0  0  0  0  0  0  0  0
   90.8310  103.5560  -44.3940 O   0  0  0  0  0  0  0  0  0  0  0  0
   90.3980   99.4460  -45.2780 N   0  0  1  0  0  0  0  0  0  0  0  0
   91.6590   99.4160  -44.6830 C   0  0  0  0  0  2  0  0  0  0  0  0
   92.2640   98.0180  -44.9750 C   0  0  0  0  0  2  0  0  0  0  0  0
   91.2660   97.0160  -44.6300 N   0  0  0  0  0  0  0  0  0  0  0  0
   90.0180   97.0800  -45.3480 C   0  0  0  0  0  2  0  0  0  0  0  0
   90.0110   98.3930  -46.1270 C   0  0  0  0  0  2  0  0  0  0  0  0
   91.5160   96.0450  -43.6380 C   0  0  0  0  0  0  0  0  0  0  0  0
   91.6480   96.4040  -42.3320 N   0  0  0  0  0  0  0  0  0  0  0  0
   91.8750   95.5340  -41.3510 C   0  0  0  0  0  3  0  0  0  0  0  0
   91.9900   94.1790  -41.6330 C   0  0  0  0  0  3  0  0  0  0  0  0
   91.8550   93.8200  -42.9630 C   0  0  0  0  0  3  0  0  0  0  0  0
   91.6260   94.7300  -43.9190 N   0  0  0  0  0  0  0  0  0  0  0  0
   91.1820  101.9280  -41.9380 C   0  0  0  0  0  0  0  0  0  0  0  0
   92.5500  101.7540  -41.9720 C   0  0  0  0  0  3  0  0  0  0  0  0
   93.3430  102.0400  -40.8780 C   0  0  0  0  0  3  0  0  0  0  0  0
   92.7900  102.5110  -39.7060 C   0  0  0  0  0  0  0  0  0  0  0  0
   93.9670  102.9610  -38.0110 I   0  0  0  0  0  0  0  0  0  0  0  0
   91.4250  102.6910  -39.6550 C   0  0  0  0  0  3  0  0  0  0  0  0
   90.6510  102.3990  -40.7610 C   0  0  0  0  0  3  0  0  0  0  0  0
  1 20  1  0  0  0  0
  2  1  1  0  0  0  0
  2  3  2  0  0  0  0
  4  5  1  6  0  0  0
  4  2  1  0  0  0  0
  5  6  1  0  0  0  0
  6  1  1  0  0  0  0
  7  6  2  0  0  0  0
  8 13  1  1  0  0  0
  8  4  1  0  0  0  0
  8  9  1  0  0  0  0
 10  9  1  0  0  0  0
 10 11  1  0  0  0  0
 11 14  1  0  0  0  0
 12 11  1  0  0  0  0
 13 12  1  0  0  0  0
 14 15  2  0  0  0  0
 15 16  1  0  0  0  0
 17 16  2  0  0  0  0
 18 17  1  0  0  0  0
 19 14  1  0  0  0  0
 19 18  2  0  0  0  0
 20 26  1  0  0  0  0
 21 20  2  0  0  0  0
 21 22  1  0  0  0  0
 22 23  2  0  0  0  0
 23 25  1  0  0  0  0
 23 24  1  0  0  0  0
 26 25  2  0  0  0  0
M  END
>  <Pose>
1

>  <Score>
-5.892

$$$$
