/Users/jonathanwahrer/Desktop/Msc/3_Semester/Drug_Design_Praktikum/waehrer_HTS_screening/HTS_experiment/out/docking_results/vina_output/4agl/0969_docked.pdbqt
 OpenBabel03202223513D

 31 34  0  0  1  0  0  0  0  0999 V2000
   91.4560   92.5220  -46.2400 Br  0  0  0  0  0  0  0  0  0  0  0  0
   91.0830   94.2550  -45.5530 C   0  0  0  0  0  0  0  0  0  0  0  0
   90.3050   95.1930  -46.2250 C   0  0  1  0  0  3  0  0  0  0  0  0
   90.0640   96.4440  -45.6810 C   0  0  0  0  0  0  0  0  0  0  0  0
   90.5980   96.7790  -44.4540 C   0  0  0  0  0  3  0  0  0  0  0  0
   91.3630   95.8630  -43.7860 C   0  0  0  0  0  0  0  0  0  0  0  0
   91.5980   94.6260  -44.3310 C   0  0  0  0  0  0  0  0  0  0  0  0
   92.3940   93.7370  -43.5850 O   0  0  0  0  0  1  0  0  0  0  0  0
   92.0730   96.3920  -42.0830 Br  0  0  0  0  0  0  0  0  0  0  0  0
   89.2980   97.3910  -46.3260 C   0  0  0  0  0  0  0  0  0  0  0  0
   88.7670   97.0480  -47.5520 C   0  0  0  0  0  0  0  0  0  0  0  0
   89.0750   95.7020  -48.0520 C   0  0  0  0  0  0  0  0  0  0  0  0
   88.5320   95.3710  -49.2940 C   0  0  1  0  0  3  0  0  0  0  0  0
   87.7580   96.2740  -49.9850 C   0  0  0  0  0  0  0  0  0  0  0  0
   87.2900   95.9310  -51.1000 O   0  0  0  0  0  0  0  0  0  0  0  0
   87.4850   97.5430  -49.4840 C   0  0  0  0  0  0  0  0  0  0  0  0
   87.9840   97.9330  -48.2750 C   0  0  0  0  0  3  0  0  0  0  0  0
   86.4000   98.7350  -50.5110 Br  0  0  0  0  0  0  0  0  0  0  0  0
   88.8950   93.6250  -50.0110 Br  0  0  0  0  0  0  0  0  0  0  0  0
   89.8140   94.8460  -47.3870 O   0  0  0  0  0  0  0  0  0  0  0  0
   89.0510   98.7150  -45.7530 C   0  0  0  0  0  0  0  0  0  0  0  0
   87.9350   98.9470  -44.9710 C   0  0  0  0  0  0  0  0  0  0  0  0
   87.6770  100.1860  -44.4250 C   0  0  0  0  0  3  0  0  0  0  0  0
   86.8140   97.6150  -44.6670 Cl  0  0  0  0  0  0  0  0  0  0  0  0
   88.5640  101.2130  -44.6720 C   0  0  0  0  0  3  0  0  0  0  0  0
   89.6760  101.0280  -45.4360 C   0  0  0  0  0  0  0  0  0  0  0  0
   89.9170   99.7840  -45.9740 C   0  0  0  0  0  0  0  0  0  0  0  0
   90.7530  102.3910  -45.6990 Cl  0  0  0  0  0  0  0  0  0  0  0  0
   91.0900   99.5800  -46.7900 C   0  0  0  0  0  0  0  0  0  0  0  0
   92.2000   99.2340  -46.3010 O   0  0  0  0  0  1  0  0  0  0  0  0
   91.0290   99.7640  -48.1700 O   0  0  0  0  0  0  0  0  0  0  0  0
  1  2  1  0  0  0  0
  2  7  2  0  0  0  0
  3 20  1  6  0  0  0
  3  4  1  0  0  0  0
  3  2  1  0  0  0  0
  4  5  1  0  0  0  0
  5  6  2  0  0  0  0
  6  9  1  0  0  0  0
  7  6  1  0  0  0  0
  7  8  1  0  0  0  0
 10 21  1  0  0  0  0
 10  4  2  0  0  0  0
 11 10  1  0  0  0  0
 12 11  2  0  0  0  0
 12 20  1  0  0  0  0
 13 19  1  6  0  0  0
 13 12  1  0  0  0  0
 14 16  1  0  0  0  0
 14 13  1  0  0  0  0
 15 14  2  0  0  0  0
 16 17  2  0  0  0  0
 17 11  1  0  0  0  0
 18 16  1  0  0  0  0
 21 22  1  0  0  0  0
 22 24  1  0  0  0  0
 22 23  2  0  0  0  0
 25 23  1  0  0  0  0
 26 25  2  0  0  0  0
 27 21  2  0  0  0  0
 27 26  1  0  0  0  0
 28 26  1  0  0  0  0
 29 30  1  0  0  0  0
 29 27  1  0  0  0  0
 31 29  2  0  0  0  0
M  END
>  <Pose>
1

>  <Score>
-5.947

$$$$
