/Users/jonathanwahrer/Desktop/Msc/3_Semester/Drug_Design_Praktikum/waehrer_HTS_screening/HTS_experiment/out/docking_results/vina_output/4agl/0971_docked.pdbqt
 OpenBabel03202223513D

 29 33  0  0  1  0  0  0  0  0999 V2000
   92.1910   96.6010  -40.8010 Br  0  0  0  0  0  0  0  0  0  0  0  0
   91.8950   96.8050  -42.6740 C   0  0  0  0  0  0  0  0  0  0  0  0
   91.9240   98.0710  -43.2880 C   0  0  0  0  0  0  0  0  0  0  0  0
   91.7170   98.2590  -44.6230 C   0  0  0  0  0  0  0  0  0  0  0  0
   91.4660   97.1270  -45.4020 C   0  0  0  0  0  3  0  0  0  0  0  0
   91.4380   95.9010  -44.8070 C   0  0  0  0  0  0  0  0  0  0  0  0
   91.6470   95.7040  -43.4570 C   0  0  0  0  0  0  0  0  0  0  0  0
   91.6030   94.4100  -42.9120 O   0  0  0  0  0  1  0  0  0  0  0  0
   91.0960   94.3500  -45.8640 Br  0  0  0  0  0  0  0  0  0  0  0  0
   91.7540   99.5820  -45.2300 C   0  0  1  0  0  0  0  0  0  0  0  0
   92.8390   99.5750  -46.1560 O   0  0  0  0  0  0  0  0  0  0  0  0
   92.4230   99.8110  -47.4380 C   0  0  0  0  0  0  0  0  0  0  0  0
   93.1620   99.8600  -48.4470 O   0  0  0  0  0  0  0  0  0  0  0  0
   90.9850   99.9850  -47.3640 C   0  0  0  0  0  0  0  0  0  0  0  0
   90.5490   99.8550  -46.0650 C   0  0  0  0  0  0  0  0  0  0  0  0
   89.2230   99.9910  -45.8180 C   0  0  0  0  0  3  0  0  0  0  0  0
   88.3510  100.2500  -46.8550 C   0  0  0  0  0  3  0  0  0  0  0  0
   88.7830  100.3800  -48.1580 C   0  0  0  0  0  3  0  0  0  0  0  0
   90.1210  100.2460  -48.4230 C   0  0  0  0  0  3  0  0  0  0  0  0
   92.0270  100.6580  -44.2820 C   0  0  0  0  0  0  0  0  0  0  0  0
   92.2270  100.4060  -42.9530 C   0  0  0  0  0  0  0  0  0  0  0  0
   92.4900  101.4580  -42.0520 C   0  0  0  0  0  0  0  0  0  0  0  0
   92.5440  102.7450  -42.5340 C   0  0  0  0  0  0  0  0  0  0  0  0
   92.3430  103.0080  -43.8810 C   0  0  0  0  0  0  0  0  0  0  0  0
   92.0880  101.9840  -44.7490 C   0  0  0  0  0  3  0  0  0  0  0  0
   92.4140  104.7860  -44.5630 Br  0  0  0  0  0  0  0  0  0  0  0  0
   92.8040  103.7700  -41.6370 O   0  0  0  0  0  1  0  0  0  0  0  0
   92.7630  101.0660  -40.2000 Br  0  0  0  0  0  0  0  0  0  0  0  0
   92.1840   99.1280  -42.4130 O   0  0  0  0  0  0  0  0  0  0  0  0
  2  1  1  0  0  0  0
  3  2  1  0  0  0  0
  3 29  1  0  0  0  0
  4  3  2  0  0  0  0
  5  6  2  0  0  0  0
  5  4  1  0  0  0  0
  6  7  1  0  0  0  0
  7  8  1  0  0  0  0
  7  2  2  0  0  0  0
  9  6  1  0  0  0  0
 10 11  1  6  0  0  0
 10  4  1  0  0  0  0
 10 20  1  0  0  0  0
 12 14  1  0  0  0  0
 12 11  1  0  0  0  0
 13 12  2  0  0  0  0
 14 15  1  0  0  0  0
 15 16  2  0  0  0  0
 15 10  1  0  0  0  0
 17 16  1  0  0  0  0
 18 17  2  0  0  0  0
 19 18  1  0  0  0  0
 19 14  2  0  0  0  0
 20 21  1  0  0  0  0
 21 29  1  0  0  0  0
 21 22  2  0  0  0  0
 22 28  1  0  0  0  0
 23 22  1  0  0  0  0
 23 27  1  0  0  0  0
 24 23  2  0  0  0  0
 25 20  2  0  0  0  0
 25 24  1  0  0  0  0
 26 24  1  0  0  0  0
M  END
>  <Pose>
1

>  <Score>
-6.539

$$$$
