/Users/jonathanwahrer/Desktop/Msc/3_Semester/Drug_Design_Praktikum/waehrer_HTS_screening/HTS_experiment/out/docking_results/vina_output/4agl/0978_docked.pdbqt
 OpenBabel03202223513D

 33 37  0  0  1  0  0  0  0  0999 V2000
   90.2530  104.1650  -43.4520 I   0  0  0  0  0  0  0  0  0  0  0  0
   89.3860  102.8790  -44.8850 C   0  0  0  0  0  0  0  0  0  0  0  0
   89.6600  101.5200  -44.7670 C   0  0  0  0  0  0  0  0  0  0  0  0
   89.1170  100.6700  -45.6740 C   0  0  0  0  0  0  0  0  0  0  0  0
   88.3060  101.1840  -46.6890 C   0  0  0  0  0  3  0  0  0  0  0  0
   88.0290  102.5280  -46.8130 C   0  0  0  0  0  0  0  0  0  0  0  0
   88.5850  103.3870  -45.8870 C   0  0  0  0  0  0  0  0  0  0  0  0
   88.3200  104.7440  -45.9940 O   0  0  0  0  0  1  0  0  0  0  0  0
   86.7930  103.2590  -48.3720 I   0  0  0  0  0  0  0  0  0  0  0  0
   89.3380   99.2360  -45.6430 C   0  0  2  0  0  0  0  0  0  0  0  0
   89.9520   98.7750  -46.8560 O   0  0  0  0  0  0  0  0  0  0  0  0
   89.1980   97.8230  -47.4890 C   0  0  0  0  0  0  0  0  0  0  0  0
   89.4220   97.2000  -48.5660 O   0  0  0  0  0  0  0  0  0  0  0  0
   88.0140   97.6280  -46.6640 C   0  0  0  0  0  0  0  0  0  0  0  0
   88.0930   98.4530  -45.5840 C   0  0  0  0  0  0  0  0  0  0  0  0
   87.0770   98.4630  -44.6280 C   0  0  0  0  0  0  0  0  0  0  0  0
   85.9750   97.6430  -44.7530 C   0  0  0  0  0  0  0  0  0  0  0  0
   85.8970   96.8010  -45.8580 C   0  0  0  0  0  0  0  0  0  0  0  0
   86.8950   96.7880  -46.8000 C   0  0  0  0  0  0  0  0  0  0  0  0
   86.7830   95.7390  -48.1620 Cl  0  0  0  0  0  0  0  0  0  0  0  0
   84.5320   95.7400  -46.0740 Cl  0  0  0  0  0  0  0  0  0  0  0  0
   84.7210   97.6810  -43.5360 Cl  0  0  0  0  0  0  0  0  0  0  0  0
   87.2410   99.5370  -43.2790 Cl  0  0  0  0  0  0  0  0  0  0  0  0
   90.2170   98.8300  -44.5130 C   0  0  0  0  0  0  0  0  0  0  0  0
   90.7420   99.7060  -43.6270 C   0  0  0  0  0  0  0  0  0  0  0  0
   91.5510   99.1920  -42.6150 C   0  0  0  0  0  0  0  0  0  0  0  0
   91.8280   97.8490  -42.4900 C   0  0  0  0  0  0  0  0  0  0  0  0
   91.2750   96.9840  -43.4130 C   0  0  0  0  0  0  0  0  0  0  0  0
   90.4750   97.4560  -44.4220 C   0  0  0  0  0  3  0  0  0  0  0  0
   91.6800   94.9240  -43.2480 I   0  0  0  0  0  0  0  0  0  0  0  0
   92.6230   97.3420  -41.4950 O   0  0  0  0  0  1  0  0  0  0  0  0
   92.3710  100.5410  -41.2330 I   0  0  0  0  0  0  0  0  0  0  0  0
   90.4860  101.0620  -43.7210 O   0  0  0  0  0  0  0  0  0  0  0  0
  2  3  1  0  0  0  0
  2  1  1  0  0  0  0
  3 33  1  0  0  0  0
  4 10  1  0  0  0  0
  4  3  2  0  0  0  0
  5  4  1  0  0  0  0
  6  5  2  0  0  0  0
  6  7  1  0  0  0  0
  7  2  2  0  0  0  0
  8  7  1  0  0  0  0
  9  6  1  0  0  0  0
 10 11  1  6  0  0  0
 10 15  1  0  0  0  0
 10 24  1  0  0  0  0
 12 11  1  0  0  0  0
 12 14  1  0  0  0  0
 13 12  2  0  0  0  0
 14 15  1  0  0  0  0
 15 16  2  0  0  0  0
 16 23  1  0  0  0  0
 17 16  1  0  0  0  0
 17 22  1  0  0  0  0
 18 17  2  0  0  0  0
 19 14  2  0  0  0  0
 19 18  1  0  0  0  0
 20 19  1  0  0  0  0
 21 18  1  0  0  0  0
 24 29  2  0  0  0  0
 24 25  1  0  0  0  0
 25 26  2  0  0  0  0
 26 27  1  0  0  0  0
 26 32  1  0  0  0  0
 27 31  1  0  0  0  0
 28 30  1  0  0  0  0
 28 27  2  0  0  0  0
 29 28  1  0  0  0  0
 33 25  1  0  0  0  0
M  END
>  <Pose>
1

>  <Score>
-5.921

$$$$
