/Users/jonathanwahrer/Desktop/Msc/3_Semester/Drug_Design_Praktikum/waehrer_HTS_screening/HTS_experiment/out/docking_results/vina_output/4agl/0980_docked.pdbqt
 OpenBabel03202223523D

 27 30  0  0  1  0  0  0  0  0999 V2000
   88.5470   94.0810  -49.9520 I   0  0  0  0  0  0  0  0  0  0  0  0
   88.5220   95.8240  -48.7670 C   0  0  0  0  0  0  0  0  0  0  0  0
   89.2150   95.9230  -47.5770 C   0  0  2  0  0  3  0  0  0  0  0  0
   89.2010   97.0600  -46.7990 C   0  0  0  0  0  0  0  0  0  0  0  0
   88.4540   98.1330  -47.2490 C   0  0  0  0  0  3  0  0  0  0  0  0
   87.7540   98.0420  -48.4430 C   0  0  0  0  0  3  0  0  0  0  0  0
   87.7730   96.8910  -49.2210 C   0  0  0  0  0  0  0  0  0  0  0  0
   87.0520   96.8550  -50.4120 O   0  0  0  0  0  1  0  0  0  0  0  0
   89.8880   97.1790  -45.6070 C   0  0  0  0  0  0  0  0  0  0  0  0
   90.6180   96.0600  -45.2170 C   0  0  0  0  0  0  0  0  0  0  0  0
   90.6070   94.8740  -46.0690 C   0  0  0  0  0  0  0  0  0  0  0  0
   91.3500   93.7990  -45.6280 C   0  0  2  0  0  3  0  0  0  0  0  0
   92.0710   93.8150  -44.4540 C   0  0  0  0  0  0  0  0  0  0  0  0
   92.7470   92.8160  -44.0660 O   0  0  0  0  0  0  0  0  0  0  0  0
   92.0810   94.9360  -43.6470 C   0  0  0  0  0  3  0  0  0  0  0  0
   91.3470   96.0310  -44.0600 C   0  0  0  0  0  3  0  0  0  0  0  0
   91.3970   92.0460  -46.7880 I   0  0  0  0  0  0  0  0  0  0  0  0
   89.9120   94.8890  -47.1800 O   0  0  0  0  0  0  0  0  0  0  0  0
   89.8750   98.3810  -44.7810 C   0  0  0  0  0  0  0  0  0  0  0  0
   90.8230   99.3680  -45.0330 C   0  0  0  0  0  0  0  0  0  0  0  0
   90.8500  100.5140  -44.2840 C   0  0  0  0  0  3  0  0  0  0  0  0
   89.9310  100.6880  -43.2720 C   0  0  0  0  0  3  0  0  0  0  0  0
   88.9820   99.7270  -43.0030 C   0  0  0  0  0  3  0  0  0  0  0  0
   88.9730   98.5820  -43.7690 C   0  0  0  0  0  3  0  0  0  0  0  0
   91.8020   99.1940  -46.1020 C   0  0  0  0  0  0  0  0  0  0  0  0
   92.8750   98.5700  -45.9470 O   0  0  0  0  0  1  0  0  0  0  0  0
   91.5730   99.7310  -47.3610 O   0  0  0  0  0  0  0  0  0  0  0  0
  1  2  1  0  0  0  0
  3  2  1  6  0  0  0
  3 18  1  0  0  0  0
  3  4  1  0  0  0  0
  4  9  2  0  0  0  0
  5  4  1  0  0  0  0
  6  5  2  0  0  0  0
  7  2  2  0  0  0  0
  7  6  1  0  0  0  0
  8  7  1  0  0  0  0
  9 10  1  0  0  0  0
  9 19  1  0  0  0  0
 10 16  1  0  0  0  0
 11 12  1  0  0  0  0
 11 10  2  0  0  0  0
 12 17  1  6  0  0  0
 12 13  1  0  0  0  0
 13 14  2  0  0  0  0
 13 15  1  0  0  0  0
 16 15  2  0  0  0  0
 18 11  1  0  0  0  0
 19 24  1  0  0  0  0
 20 19  2  0  0  0  0
 20 21  1  0  0  0  0
 21 22  2  0  0  0  0
 22 23  1  0  0  0  0
 24 23  2  0  0  0  0
 25 26  1  0  0  0  0
 25 20  1  0  0  0  0
 27 25  2  0  0  0  0
M  END
>  <Pose>
1

>  <Score>
-6.229

$$$$
