/Users/jonathanwahrer/Desktop/Msc/3_Semester/Drug_Design_Praktikum/waehrer_HTS_screening/HTS_experiment/out/docking_results/vina_output/4agl/0983_docked.pdbqt
 OpenBabel03202223523D

 34 37  0  0  0  0  0  0  0  0999 V2000
   90.9510   97.3700  -44.7190 C   0  0  0  0  0  0  0  0  0  0  0  0
   91.1730   95.9890  -44.8010 C   0  0  0  0  0  0  0  0  0  0  0  0
   91.6180   95.6290  -43.5480 C   0  0  0  0  0  0  0  0  0  0  0  0
   91.6550   96.7260  -42.7780 N   0  0  0  0  0  0  0  0  0  0  0  0
   91.2460   97.8360  -43.4650 C   0  0  0  0  0  0  0  0  0  0  0  0
   91.9300   94.2930  -43.3110 C   0  0  0  0  0  0  0  0  0  0  0  0
   91.7870   93.3800  -44.3180 C   0  0  0  0  0  3  0  0  0  0  0  0
   91.3360   93.7390  -45.5930 C   0  0  0  0  0  0  0  0  0  0  0  0
   91.0240   95.0820  -45.8270 C   0  0  0  0  0  3  0  0  0  0  0  0
   91.1590   92.4230  -46.9490 Br  0  0  0  0  0  0  0  0  0  0  0  0
   92.5430   93.7700  -41.5970 Br  0  0  0  0  0  0  0  0  0  0  0  0
   91.9590   96.7510  -41.7630 H   0  0  0  0  0  0  0  0  0  0  0  0
   91.1310   99.1770  -42.9060 C   0  0  0  0  0  0  0  0  0  0  0  0
   92.2040   99.9960  -42.7290 N   0  0  0  0  0  0  0  0  0  0  0  0
   91.8260  101.1640  -42.1840 C   0  0  0  0  0  0  0  0  0  0  0  0
   93.1950   99.7790  -42.9720 H   0  0  0  0  0  0  0  0  0  0  0  0
   90.4630  101.1420  -41.9840 C   0  0  0  0  0  0  0  0  0  0  0  0
   92.4970  102.3180  -41.8080 C   0  0  0  0  0  0  0  0  0  0  0  0
   90.0640   99.8830  -42.4460 C   0  0  0  0  0  0  0  0  0  0  0  0
   89.7830  102.2100  -41.4360 C   0  0  0  0  0  3  0  0  0  0  0  0
   90.4630  103.3590  -41.0620 C   0  0  0  0  0  0  0  0  0  0  0  0
   91.8350  103.3960  -41.2580 C   0  0  0  0  0  3  0  0  0  0  0  0
   89.5400  104.8550  -40.2980 Br  0  0  0  0  0  0  0  0  0  0  0  0
   94.3850  102.4360  -42.0490 Br  0  0  0  0  0  0  0  0  0  0  0  0
   88.7460   99.4660  -42.4080 O   0  0  0  0  0  0  0  0  0  0  0  0
   87.7060   99.6040  -43.7530 S   0  0  0  0  0  0  0  0  0  0  0  0
   88.2810  100.5330  -44.7830 O   0  0  0  0  0  1  0  0  0  0  0  0
   86.3600  100.1460  -43.3630 O   0  0  0  0  0  1  0  0  0  0  0  0
   87.4250   98.0640  -44.4090 O   0  0  0  0  0  1  0  0  0  0  0  0
   90.4930   98.1220  -45.7950 O   0  0  0  0  0  0  0  0  0  0  0  0
   91.4700   99.3310  -46.5130 S   0  0  0  0  0  0  0  0  0  0  0  0
   92.8920   98.8550  -46.4040 O   0  0  0  0  0  1  0  0  0  0  0  0
   91.1220   99.5100  -47.9700 O   0  0  0  0  0  1  0  0  0  0  0  0
   91.3470  100.7850  -45.6790 O   0  0  0  0  0  1  0  0  0  0  0  0
  1  5  2  0  0  0  0
  2  1  1  0  0  0  0
  2  3  1  0  0  0  0
  3  6  2  0  0  0  0
  3  4  1  0  0  0  0
  4 12  1  0  0  0  0
  5 13  1  0  0  0  0
  5  4  1  0  0  0  0
  6 11  1  0  0  0  0
  7  6  1  0  0  0  0
  8  7  2  0  0  0  0
  9  8  1  0  0  0  0
  9  2  2  0  0  0  0
 10  8  1  0  0  0  0
 13 14  1  0  0  0  0
 13 19  2  0  0  0  0
 14 15  1  0  0  0  0
 15 17  2  0  0  0  0
 15 18  1  0  0  0  0
 16 14  1  0  0  0  0
 17 20  1  0  0  0  0
 18 22  2  0  0  0  0
 19 25  1  0  0  0  0
 19 17  1  0  0  0  0
 20 21  2  0  0  0  0
 21 23  1  0  0  0  0
 22 21  1  0  0  0  0
 24 18  1  0  0  0  0
 26 28  1  0  0  0  0
 26 25  1  0  0  0  0
 27 26  1  0  0  0  0
 29 26  1  0  0  0  0
 30  1  1  0  0  0  0
 31 32  1  0  0  0  0
 31 30  1  0  0  0  0
 31 34  1  0  0  0  0
 33 31  1  0  0  0  0
M  END
>  <Pose>
1

>  <Score>
-7.169

$$$$
