/Users/jonathanwahrer/Desktop/Msc/3_Semester/Drug_Design_Praktikum/waehrer_HTS_screening/HTS_experiment/out/docking_results/vina_output/4agl/0985_docked.pdbqt
 OpenBabel03202223523D

 28 31  0  0  1  0  0  0  0  0999 V2000
   91.0780   97.0070  -44.2220 N   0  0  0  0  0  0  0  0  0  0  0  0
   91.4690   95.7880  -43.8300 C   0  0  0  0  0  0  0  0  0  0  0  0
   92.0200   95.3420  -42.6680 N   0  0  0  0  0  0  0  0  0  0  0  0
   92.3480   94.0700  -42.4580 C   0  0  0  0  0  0  0  0  0  0  0  0
   92.1250   93.1790  -43.4410 N   0  0  0  0  0  0  0  0  0  0  0  0
   91.5810   93.5540  -44.6170 C   0  0  0  0  0  0  0  0  0  0  0  0
   91.2400   94.8720  -44.8380 C   0  0  0  0  0  0  0  0  0  0  0  0
   90.7010   95.5660  -45.8510 N   0  0  0  0  0  0  0  0  0  0  0  0
   90.6040   96.8620  -45.4730 C   0  0  0  0  0  0  0  0  0  0  0  0
   89.9040   98.2960  -46.5330 Br  0  0  0  0  0  0  0  0  0  0  0  0
   91.1870   98.1800  -43.3910 C   0  0  2  0  0  3  0  0  0  0  0  0
   89.9470   98.7760  -43.1590 O   0  0  0  0  0  0  0  0  0  0  0  0
   90.3130   99.8960  -42.4540 C   0  0  1  0  0  3  0  0  0  0  0  0
   91.3570  100.5230  -43.3870 C   0  0  1  0  0  3  0  0  0  0  0  0
   89.2360  100.8900  -42.2320 C   0  0  0  0  0  2  0  0  0  0  0  0
   92.2970  101.1270  -42.5560 O   0  0  0  0  0  0  0  0  0  0  0  0
   91.9190   99.3150  -44.1060 C   0  0  1  0  0  3  0  0  0  0  0  0
   91.4160  101.8460  -41.2830 P   0  0  2  0  0  0  0  0  0  0  0  0
   91.6500  101.1130  -39.9800 O   0  0  0  0  0  1  0  0  0  0  0  0
   89.8020  102.0320  -41.6550 O   0  0  0  0  0  0  0  0  0  0  0  0
   92.0970  103.4030  -41.0750 O   0  0  0  0  0  0  0  0  0  0  0  0
   93.2840   99.2080  -44.0080 O   0  0  0  0  0  0  0  0  0  0  0  0
   93.5530   99.1420  -43.0370 H   0  0  0  0  0  0  0  0  0  0  0  0
   92.9240   93.6510  -41.2240 N   0  0  0  0  0  0  0  0  0  0  0  0
   93.6230   94.2940  -40.7940 H   0  0  0  0  0  0  0  0  0  0  0  0
   92.6660   92.7440  -40.7600 H   0  0  0  0  0  0  0  0  0  0  0  0
   91.3480   92.6350  -45.6370 O   0  0  0  0  0  0  0  0  0  0  0  0
   90.7340   91.8430  -45.3970 H   0  0  0  0  0  0  0  0  0  0  0  0
  1  2  1  0  0  0  0
  2  3  1  0  0  0  0
  3  4  2  0  0  0  0
  4 24  1  0  0  0  0
  5  4  1  0  0  0  0
  6  5  2  0  0  0  0
  7  6  1  0  0  0  0
  7  2  2  0  0  0  0
  8  9  2  0  0  0  0
  8  7  1  0  0  0  0
  9  1  1  0  0  0  0
 10  9  1  0  0  0  0
 11  1  1  6  0  0  0
 11 12  1  0  0  0  0
 12 13  1  0  0  0  0
 13 15  1  6  0  0  0
 14 16  1  1  0  0  0
 14 13  1  0  0  0  0
 15 20  1  0  0  0  0
 16 18  1  0  0  0  0
 17 22  1  1  0  0  0
 17 11  1  0  0  0  0
 17 14  1  0  0  0  0
 18 21  2  1  0  0  0
 18 19  1  0  0  0  0
 20 18  1  0  0  0  0
 22 23  1  0  0  0  0
 24 25  1  0  0  0  0
 24 26  1  0  0  0  0
 27 28  1  0  0  0  0
 27  6  1  0  0  0  0
M  END
>  <Pose>
1

>  <Score>
-6.350

$$$$
