/Users/jonathanwahrer/Desktop/Msc/3_Semester/Drug_Design_Praktikum/waehrer_HTS_screening/HTS_experiment/out/docking_results/vina_output/4agl/0991_docked.pdbqt
 OpenBabel03202223523D

 34 39  0  0  1  0  0  0  0  0999 V2000
   92.1450  101.8080  -40.9280 N   0  0  0  0  0  0  0  0  0  0  0  0
   91.8300  100.7380  -41.7020 C   0  0  0  0  0  0  0  0  0  0  0  0
   90.8400  101.0660  -42.6040 C   0  0  0  0  0  0  0  0  0  0  0  0
   90.5590  102.3640  -42.3630 N   0  0  0  0  0  0  0  0  0  0  0  0
   91.3440  102.7990  -41.3570 C   0  0  0  0  0  0  0  0  0  0  0  0
   91.3780  104.5530  -40.5950 Br  0  0  0  0  0  0  0  0  0  0  0  0
   90.3780  100.1090  -43.4850 C   0  0  0  0  0  0  0  0  0  0  0  0
   89.4810  100.3960  -44.3080 O   0  0  0  0  0  0  0  0  0  0  0  0
   90.8640   98.8470  -43.4980 N   0  0  0  0  0  0  0  0  0  0  0  0
   91.8290   98.5490  -42.6090 C   0  0  0  0  0  0  0  0  0  0  0  0
   92.1350   97.2570  -42.8230 N   0  0  0  0  0  0  0  0  0  0  0  0
   91.3990   96.7260  -43.8160 C   0  0  0  0  0  0  0  0  0  0  0  0
   90.5810   97.7480  -44.2500 C   0  0  0  0  0  3  0  0  0  0  0  0
   92.2980   99.4800  -41.7310 N   0  0  0  0  0  0  0  0  0  0  0  0
   93.0480   99.2430  -41.0430 H   0  0  0  0  0  0  0  0  0  0  0  0
   93.1370  101.8780  -39.8590 C   0  0  2  0  0  3  0  0  0  0  0  0
   92.6370  102.5700  -38.7580 O   0  0  0  0  0  0  0  0  0  0  0  0
   93.6960  103.0900  -38.0670 C   0  0  1  0  0  3  0  0  0  0  0  0
   94.6920  103.4900  -39.1580 C   0  0  1  0  0  3  0  0  0  0  0  0
   93.3710  104.3540  -37.3060 C   0  0  0  0  0  2  0  0  0  0  0  0
   95.9570  103.3150  -38.6040 O   0  0  0  0  0  0  0  0  0  0  0  0
   94.4010  102.5420  -40.2820 C   0  0  1  0  0  3  0  0  0  0  0  0
   95.8880  103.9450  -37.0280 P   0  0  1  0  0  0  0  0  0  0  0  0
   97.2780  104.9610  -36.7980 S   0  0  0  0  0  1  0  0  0  0  0  0
   94.5250  104.9190  -36.8120 O   0  0  0  0  0  0  0  0  0  0  0  0
   95.8260  102.7160  -35.8710 O   0  0  0  0  0  0  0  0  0  0  0  0
   95.4410  101.6140  -40.4220 O   0  0  0  0  0  0  0  0  0  0  0  0
   96.3120  101.9980  -40.1950 H   0  0  0  0  0  0  0  0  0  0  0  0
   91.4490   95.3520  -44.3320 C   0  0  0  0  0  0  0  0  0  0  0  0
   91.1030   95.0880  -45.6380 C   0  0  0  0  0  3  0  0  0  0  0  0
   91.1400   93.7990  -46.1540 C   0  0  0  0  0  3  0  0  0  0  0  0
   91.5350   92.7680  -45.3330 C   0  0  0  0  0  3  0  0  0  0  0  0
   91.8910   92.9910  -44.0120 C   0  0  0  0  0  3  0  0  0  0  0  0
   91.8350   94.2890  -43.5530 C   0  0  0  0  0  3  0  0  0  0  0  0
  2  1  1  0  0  0  0
  3  4  1  0  0  0  0
  3  2  2  0  0  0  0
  4  5  2  0  0  0  0
  5  1  1  0  0  0  0
  5  6  1  0  0  0  0
  7  3  1  0  0  0  0
  8  7  2  0  0  0  0
  9  7  1  0  0  0  0
  9 10  1  0  0  0  0
 10 14  1  0  0  0  0
 11 10  2  0  0  0  0
 12 11  1  0  0  0  0
 13 12  2  0  0  0  0
 13  9  1  0  0  0  0
 14  2  1  0  0  0  0
 14 15  1  0  0  0  0
 16  1  1  6  0  0  0
 16 17  1  0  0  0  0
 17 18  1  0  0  0  0
 18 20  1  6  0  0  0
 19 21  1  1  0  0  0
 19 18  1  0  0  0  0
 20 25  1  0  0  0  0
 21 23  1  0  0  0  0
 22 27  1  1  0  0  0
 22 16  1  0  0  0  0
 22 19  1  0  0  0  0
 23 25  1  0  0  0  0
 23 24  1  1  0  0  0
 23 26  2  0  0  0  0
 27 28  1  0  0  0  0
 29 12  1  0  0  0  0
 29 34  1  0  0  0  0
 30 29  2  0  0  0  0
 31 30  1  0  0  0  0
 31 32  2  0  0  0  0
 32 33  1  0  0  0  0
 33 34  2  0  0  0  0
M  END
>  <Pose>
1

>  <Score>
-8.072

$$$$
