/Users/jonathanwahrer/Desktop/Msc/3_Semester/Drug_Design_Praktikum/waehrer_HTS_screening/HTS_experiment/out/docking_results/vina_output/4agl/1008_docked.pdbqt
 OpenBabel03202223543D

 29 32  0  0  1  0  0  0  0  0999 V2000
   89.5820   98.8230  -43.6500 C   0  0  0  0  0  0  0  0  0  0  0  0
   90.1750   98.6250  -42.5610 O   0  0  0  0  0  0  0  0  0  0  0  0
   90.0400   98.1780  -44.8370 N   0  0  0  0  0  0  0  0  0  0  0  0
   91.1860   97.2960  -44.8010 C   0  0  0  0  0  2  0  0  0  0  0  0
   91.0180   96.0760  -45.6520 C   0  0  2  0  0  3  0  0  0  0  0  0
   89.5250   95.9620  -45.9740 C   0  0  0  0  0  2  0  0  0  0  0  0
   89.2190   97.1240  -46.8930 C   0  0  0  0  0  2  0  0  0  0  0  0
   89.3720   98.3930  -46.0940 C   0  0  0  0  0  2  0  0  0  0  0  0
   88.4350   99.7080  -43.6800 C   0  0  0  0  0  0  0  0  0  0  0  0
   87.1370   99.2090  -43.6270 C   0  0  0  0  0  3  0  0  0  0  0  0
   86.0390  100.0370  -43.6530 C   0  0  0  0  0  0  0  0  0  0  0  0
   86.2070  101.4080  -43.7360 C   0  0  0  0  0  3  0  0  0  0  0  0
   87.4840  101.9190  -43.7890 C   0  0  0  0  0  3  0  0  0  0  0  0
   88.5930  101.0740  -43.7620 C   0  0  0  0  0  0  0  0  0  0  0  0
   90.3280  101.8290  -43.8400 Br  0  0  0  0  0  0  0  0  0  0  0  0
   84.4430   99.3510  -43.5830 S   0  0  0  0  0  0  0  0  0  0  0  0
   83.7920   99.4910  -44.9440 O   0  0  0  0  0  0  0  0  0  0  0  0
   83.5910  100.0790  -42.5720 O   0  0  0  0  0  0  0  0  0  0  0  0
   84.5290   97.6740  -43.2350 N   0  0  0  0  0  0  0  0  0  0  0  0
   85.5210   97.3380  -43.1810 H   0  0  0  0  0  0  0  0  0  0  0  0
   84.0020   97.1250  -43.9590 H   0  0  0  0  0  0  0  0  0  0  0  0
   91.5170   94.8250  -44.9950 C   0  0  0  0  0  0  0  0  0  0  0  0
   91.8240   94.6700  -43.6810 N   0  0  0  0  0  0  0  0  0  0  0  0
   92.2380   93.4220  -43.4460 C   0  0  0  0  0  0  0  0  0  0  0  0
   91.8410   95.4470  -42.4540 C   0  0  0  0  0  2  0  0  0  0  0  0
   92.1800   92.7980  -44.6610 N   0  0  0  0  0  0  0  0  0  0  0  0
   92.5890   93.2010  -42.0130 C   0  0  0  0  0  2  0  0  0  0  0  0
   91.7500   93.6400  -45.5800 N   0  0  0  0  0  0  0  0  0  0  0  0
   91.9970   94.4120  -41.3600 C   0  0  0  0  0  2  0  0  0  0  0  0
  1  2  2  0  0  0  0
  3  4  1  0  0  0  0
  3  1  1  0  0  0  0
  5 22  1  1  0  0  0
  5  4  1  0  0  0  0
  6  5  1  0  0  0  0
  7  8  1  0  0  0  0
  7  6  1  0  0  0  0
  8  3  1  0  0  0  0
  9  1  1  0  0  0  0
  9 10  1  0  0  0  0
 11 10  2  0  0  0  0
 11 16  1  0  0  0  0
 12 11  1  0  0  0  0
 13 14  1  0  0  0  0
 13 12  2  0  0  0  0
 14  9  2  0  0  0  0
 15 14  1  0  0  0  0
 16 19  1  0  0  0  0
 16 18  2  0  0  0  0
 17 16  2  0  0  0  0
 19 20  1  0  0  0  0
 21 19  1  0  0  0  0
 22 23  1  0  0  0  0
 23 24  1  0  0  0  0
 23 25  1  0  0  0  0
 24 27  1  0  0  0  0
 25 29  1  0  0  0  0
 26 24  2  0  0  0  0
 27 29  1  0  0  0  0
 28 22  2  0  0  0  0
 28 26  1  0  0  0  0
M  END
>  <Pose>
1

>  <Score>
-7.041

$$$$
