/Users/jonathanwahrer/Desktop/Msc/3_Semester/Drug_Design_Praktikum/waehrer_HTS_screening/HTS_experiment/out/docking_results/vina_output/4agl/1011_docked.pdbqt
 OpenBabel03202223543D

 29 32  0  0  0  0  0  0  0  0999 V2000
   91.6790   99.6590  -43.0540 C   0  0  0  0  0  0  0  0  0  0  0  0
   91.6850   98.3440  -42.5780 C   0  0  0  0  0  3  0  0  0  0  0  0
   91.7230   97.2820  -43.4550 C   0  0  0  0  0  0  0  0  0  0  0  0
   91.7570   97.4550  -44.8270 C   0  0  0  0  0  0  0  0  0  0  0  0
   91.7520   98.7360  -45.3020 C   0  0  0  0  0  3  0  0  0  0  0  0
   91.7140   99.8190  -44.4180 C   0  0  0  0  0  0  0  0  0  0  0  0
   91.6960  101.6130  -45.0940 Br  0  0  0  0  0  0  0  0  0  0  0  0
   91.7810   96.1210  -45.4900 C   0  0  0  0  0  2  0  0  0  0  0  0
   91.2460   95.2060  -44.3680 C   0  0  0  0  0  2  0  0  0  0  0  0
   91.7430   95.8710  -43.1740 N   0  0  0  0  0  0  0  0  0  0  0  0
   92.1850   95.3180  -41.9490 C   0  0  0  0  0  0  0  0  0  0  0  0
   92.6120   96.0180  -41.0020 O   0  0  0  0  0  0  0  0  0  0  0  0
   91.6360  100.9830  -41.9210 S   0  0  0  0  0  0  0  0  0  0  0  0
   92.4780  100.6440  -40.6970 O   0  0  0  0  0  0  0  0  0  0  0  0
   92.2250  102.2280  -42.4930 O   0  0  0  0  0  0  0  0  0  0  0  0
   90.0360  101.2280  -41.3340 N   0  0  0  0  0  0  0  0  0  0  0  0
   89.7490  100.3740  -40.8180 H   0  0  0  0  0  0  0  0  0  0  0  0
   89.0930  101.5390  -42.3900 C   0  0  0  0  0  2  0  0  0  0  0  0
   88.1880  100.3230  -42.5230 C   0  0  0  0  0  2  0  0  0  0  0  0
   87.1550  100.5370  -43.5980 C   0  0  0  0  0  2  0  0  0  0  0  0
   87.0400   99.3540  -44.3650 N   0  0  0  0  0  0  0  0  0  0  0  0
   88.1490   98.4690  -44.3380 C   0  0  0  0  0  2  0  0  0  0  0  0
   88.0740   97.5680  -45.5600 C   0  0  0  0  0  2  0  0  0  0  0  0
   86.7840   97.1330  -45.7910 O   0  0  0  0  0  0  0  0  0  0  0  0
   85.9500   97.2560  -44.6860 C   0  0  0  0  0  2  0  0  0  0  0  0
   85.7580   98.7550  -44.4380 C   0  0  0  0  0  2  0  0  0  0  0  0
   92.1420   93.8470  -41.7760 C   0  0  0  0  0  3  0  0  0  0  0  0
   93.4270   93.2270  -41.4040 C   0  0  0  0  0  2  0  0  0  0  0  0
   92.8150   92.9580  -42.7570 C   0  0  0  0  0  2  0  0  0  0  0  0
  1  2  1  0  0  0  0
  1 13  1  0  0  0  0
  3 10  1  0  0  0  0
  3  2  2  0  0  0  0
  4  3  1  0  0  0  0
  5  4  2  0  0  0  0
  5  6  1  0  0  0  0
  6  1  2  0  0  0  0
  7  6  1  0  0  0  0
  8  4  1  0  0  0  0
  8  9  1  0  0  0  0
  9 10  1  0  0  0  0
 10 11  1  0  0  0  0
 11 27  1  0  0  0  0
 11 12  2  0  0  0  0
 13 16  1  0  0  0  0
 13 14  2  0  0  0  0
 15 13  2  0  0  0  0
 16 17  1  0  0  0  0
 18 16  1  0  0  0  0
 19 18  1  0  0  0  0
 20 19  1  0  0  0  0
 21 22  1  0  0  0  0
 21 20  1  0  0  0  0
 23 22  1  0  0  0  0
 24 23  1  0  0  0  0
 24 25  1  0  0  0  0
 25 26  1  0  0  0  0
 26 21  1  0  0  0  0
 27 28  1  0  0  0  0
 29 27  1  0  0  0  0
 29 28  1  0  0  0  0
M  END
>  <Pose>
1

>  <Score>
-6.270

$$$$
