/Users/jonathanwahrer/Desktop/Msc/3_Semester/Drug_Design_Praktikum/waehrer_HTS_screening/HTS_experiment/out/docking_results/vina_output/4agl/1027_docked.pdbqt
 OpenBabel03202223543D

 32 35  0  0  0  0  0  0  0  0999 V2000
   91.5940  101.4530  -44.8960 N   0  0  0  0  0  0  0  0  0  0  0  0
   92.5420  100.6850  -45.5670 C   0  0  0  0  0  2  0  0  0  0  0  0
   92.5950   99.2570  -45.1830 C   0  0  0  0  0  0  0  0  0  0  0  0
   92.9970   98.3840  -45.9900 O   0  0  0  0  0  0  0  0  0  0  0  0
   92.1690   98.9430  -43.8610 N   0  0  0  0  0  0  0  0  0  0  0  0
   92.0120  100.0330  -42.9690 C   0  0  0  0  0  0  0  0  0  0  0  0
   92.1400   99.8140  -41.7320 O   0  0  0  0  0  0  0  0  0  0  0  0
   91.7070  101.3980  -43.4460 C   0  0  0  0  0  2  0  0  0  0  0  0
   90.0100  101.5570  -45.4330 S   0  0  0  0  0  0  0  0  0  0  0  0
   90.0360  102.1830  -46.8270 O   0  0  0  0  0  0  0  0  0  0  0  0
   89.2300  102.5450  -44.5980 O   0  0  0  0  0  0  0  0  0  0  0  0
   89.1270  100.0620  -45.5870 C   0  0  0  0  0  0  0  0  0  0  0  0
   89.1910   99.3770  -46.8070 C   0  0  0  0  0  3  0  0  0  0  0  0
   88.4890   98.2240  -47.0770 C   0  0  0  0  0  0  0  0  0  0  0  0
   87.6650   97.6810  -46.1150 C   0  0  0  0  0  0  0  0  0  0  0  0
   88.4200   97.3930  -48.2370 N   0  0  0  0  0  0  0  0  0  0  0  0
   87.5910   98.3390  -44.9120 C   0  0  0  0  0  3  0  0  0  0  0  0
   87.0180   96.4460  -46.6200 C   0  0  0  0  0  2  0  0  0  0  0  0
   88.3100   99.5150  -44.6420 C   0  0  0  0  0  0  0  0  0  0  0  0
   88.2030  100.2850  -42.8890 Br  0  0  0  0  0  0  0  0  0  0  0  0
   87.9110   96.0940  -47.8100 C   0  0  0  0  0  2  0  0  0  0  0  0
   88.7550   97.7250  -49.5620 C   0  0  0  0  0  0  0  0  0  0  0  0
   88.6460   96.8230  -50.4640 O   0  0  0  0  0  0  0  0  0  0  0  0
   89.2320   99.0480  -50.0310 C   0  0  0  0  0  1  0  0  0  0  0  0
   91.9230   97.5690  -43.4770 C   0  0  0  0  0  2  0  0  0  0  0  0
   90.8950   96.8680  -44.2960 C   0  0  0  0  0  2  0  0  0  0  0  0
   91.1890   95.4780  -44.6380 C   0  0  0  0  0  0  0  0  0  0  0  0
   90.9590   94.9690  -45.8860 C   0  0  0  0  0  3  0  0  0  0  0  0
   91.2530   93.6590  -46.1400 C   0  0  0  0  0  3  0  0  0  0  0  0
   91.7800   92.8200  -45.1630 C   0  0  0  0  0  3  0  0  0  0  0  0
   92.0010   93.3520  -43.9230 C   0  0  0  0  0  3  0  0  0  0  0  0
   91.7180   94.6650  -43.6340 C   0  0  0  0  0  3  0  0  0  0  0  0
  1  8  1  0  0  0  0
  2  3  1  0  0  0  0
  2  1  1  0  0  0  0
  3  5  1  0  0  0  0
  4  3  2  0  0  0  0
  5 25  1  0  0  0  0
  5  6  1  0  0  0  0
  6  7  2  0  0  0  0
  8  6  1  0  0  0  0
  9  1  1  0  0  0  0
  9 11  2  0  0  0  0
 10  9  2  0  0  0  0
 12  9  1  0  0  0  0
 12 19  1  0  0  0  0
 13 12  2  0  0  0  0
 14 13  1  0  0  0  0
 14 15  2  0  0  0  0
 15 17  1  0  0  0  0
 16 21  1  0  0  0  0
 16 14  1  0  0  0  0
 17 19  2  0  0  0  0
 18 15  1  0  0  0  0
 19 20  1  0  0  0  0
 21 18  1  0  0  0  0
 22 16  1  0  0  0  0
 23 22  2  0  0  0  0
 24 22  1  0  0  0  0
 26 25  1  0  0  0  0
 27 26  1  0  0  0  0
 27 32  1  0  0  0  0
 28 27  2  0  0  0  0
 29 28  1  0  0  0  0
 29 30  2  0  0  0  0
 30 31  1  0  0  0  0
 31 32  2  0  0  0  0
M  END
>  <Pose>
1

>  <Score>
-6.202

$$$$
