/Users/jonathanwahrer/Desktop/Msc/3_Semester/Drug_Design_Praktikum/waehrer_HTS_screening/HTS_experiment/out/docking_results/vina_output/4agl/1028_docked.pdbqt
 OpenBabel03202223553D

 25 28  0  0  1  0  0  0  0  0999 V2000
   91.5440   99.6970  -42.3950 N   0  0  0  0  0  0  0  0  0  0  0  0
   90.4980   98.8420  -42.8270 C   0  0  0  0  0  2  0  0  0  0  0  0
   91.0980   98.7340  -44.1750 C   0  0  1  0  0  3  0  0  0  0  0  0
   92.2600   99.4640  -43.5990 C   0  0  0  0  0  2  0  0  0  0  0  0
   91.4410   97.3990  -44.6250 N   0  0  0  0  0  0  0  0  0  0  0  0
   92.1140   97.0490  -45.6910 N   0  0  0  0  0  0  0  0  0  0  0  0
   92.2200   95.7140  -45.7570 N   0  0  0  0  0  0  0  0  0  0  0  0
   91.5920   95.1810  -44.6940 C   0  0  0  0  0  0  0  0  0  0  0  0
   91.1020   96.2680  -43.9850 C   0  0  0  0  0  3  0  0  0  0  0  0
   91.4470   93.7280  -44.3430 C   0  0  0  0  0  2  0  0  0  0  0  0
   92.4080   93.4270  -43.2970 N   0  0  0  0  0  0  0  0  0  0  0  0
   93.6640   92.7650  -43.4830 C   0  0  0  0  0  2  0  0  0  0  0  0
   94.3310   92.7550  -42.1370 C   0  0  0  0  0  2  0  0  0  0  0  0
   93.5590   93.6480  -41.2200 C   0  0  0  0  0  2  0  0  0  0  0  0
   92.2330   93.7540  -41.9220 C   0  0  0  0  0  0  0  0  0  0  0  0
   91.1790   94.0800  -41.3470 O   0  0  0  0  0  0  0  0  0  0  0  0
   91.2110  101.3150  -42.0490 S   0  0  0  0  0  0  0  0  0  0  0  0
   89.7370  101.4660  -41.8010 O   0  0  0  0  0  0  0  0  0  0  0  0
   91.5440  102.2240  -43.2090 O   0  0  0  0  0  0  0  0  0  0  0  0
   92.0330  101.9150  -40.6110 C   0  0  0  0  0  0  0  0  0  0  0  0
   91.4790  103.0940  -39.4970 S   0  0  0  0  0  0  0  0  0  0  0  0
   92.8110  103.1090  -38.4280 C   0  0  0  0  0  0  0  0  0  0  0  0
   93.6550  102.1830  -38.9830 C   0  0  0  0  0  3  0  0  0  0  0  0
   93.0900  104.1540  -36.8330 Br  0  0  0  0  0  0  0  0  0  0  0  0
   93.2500  101.5750  -40.1000 C   0  0  0  0  0  3  0  0  0  0  0  0
  1 17  1  0  0  0  0
  2  1  1  0  0  0  0
  3  5  1  1  0  0  0
  3  4  1  0  0  0  0
  3  2  1  0  0  0  0
  4  1  1  0  0  0  0
  5  9  1  0  0  0  0
  6  5  1  0  0  0  0
  7  6  2  0  0  0  0
  7  8  1  0  0  0  0
  8 10  1  0  0  0  0
  8  9  2  0  0  0  0
 10 11  1  0  0  0  0
 11 15  1  0  0  0  0
 12 11  1  0  0  0  0
 12 13  1  0  0  0  0
 13 14  1  0  0  0  0
 15 16  2  0  0  0  0
 15 14  1  0  0  0  0
 17 18  2  0  0  0  0
 17 20  1  0  0  0  0
 19 17  2  0  0  0  0
 20 25  2  0  0  0  0
 20 21  1  0  0  0  0
 21 22  1  0  0  0  0
 22 24  1  0  0  0  0
 23 22  2  0  0  0  0
 25 23  1  0  0  0  0
M  END
>  <Pose>
1

>  <Score>
-5.982

$$$$
