/Users/jonathanwahrer/Desktop/Msc/3_Semester/Drug_Design_Praktikum/waehrer_HTS_screening/HTS_experiment/out/docking_results/vina_output/4agl/1040_docked.pdbqt
 OpenBabel03202223553D

 34 38  0  0  0  0  0  0  0  0999 V2000
   89.4470   99.6030  -46.8410 S   0  0  0  0  0  0  0  0  0  0  0  0
   89.8170  100.9850  -47.2200 O   0  0  0  0  0  0  0  0  0  0  0  0
   89.9600   98.7300  -47.9920 O   0  0  0  0  0  0  0  0  0  0  0  0
   87.7490   99.3230  -46.8140 N   0  0  0  0  0  0  0  0  0  0  0  0
   86.9880  100.4000  -46.2810 C   0  0  0  0  0  2  0  0  0  0  0  0
   86.8130  100.3530  -44.7690 C   0  0  0  0  0  2  0  0  0  0  0  0
   86.3240   99.0660  -44.4020 N   0  0  0  0  0  0  0  0  0  0  0  0
   87.2660   97.9720  -44.8050 C   0  0  0  0  0  2  0  0  0  0  0  0
   85.1680   98.6710  -43.7600 C   0  0  0  0  0  0  0  0  0  0  0  0
   87.3900   98.0490  -46.2890 C   0  0  0  0  0  2  0  0  0  0  0  0
   85.0460   97.3690  -43.5900 O   0  0  0  0  0  0  0  0  0  0  0  0
   84.0650   99.4260  -43.2400 C   0  0  0  0  0  2  0  0  0  0  0  0
   84.0730  100.8410  -43.3300 N   0  0  0  0  0  0  0  0  0  0  0  0
   83.6850  101.5960  -44.3570 N   0  0  0  0  0  0  0  0  0  0  0  0
   83.7980  102.8970  -44.0630 C   0  0  0  0  0  3  0  0  0  0  0  0
   84.2850  102.9540  -42.7800 C   0  0  0  0  0  0  0  0  0  0  0  0
   84.4540  101.6790  -42.3300 C   0  0  0  0  0  3  0  0  0  0  0  0
   84.6650  104.5560  -41.7850 Br  0  0  0  0  0  0  0  0  0  0  0  0
   90.2350   98.9980  -45.4180 C   0  0  0  0  0  0  0  0  0  0  0  0
   90.6530   97.6640  -45.3080 C   0  0  0  0  0  0  0  0  0  0  0  0
   91.2770   97.1890  -44.1720 C   0  0  0  0  0  0  0  0  0  0  0  0
   90.5350   96.6370  -46.2400 O   0  0  0  0  0  0  0  0  0  0  0  0
   91.5160   98.0150  -43.0920 C   0  0  0  0  0  0  0  0  0  0  0  0
   91.5570   95.8560  -44.3800 O   0  0  0  0  0  0  0  0  0  0  0  0
   91.1100   99.3170  -43.1920 C   0  0  0  0  0  0  0  0  0  0  0  0
   90.4830   99.7820  -44.3430 C   0  0  0  0  0  0  0  0  0  0  0  0
   91.2970  100.3250  -42.1240 C   0  0  0  0  0  2  0  0  0  0  0  0
   90.0930  101.2010  -44.2980 C   0  0  0  0  0  2  0  0  0  0  0  0
   91.2440  102.0620  -43.8240 C   0  0  0  0  0  2  0  0  0  0  0  0
   91.9060  101.4680  -42.7250 N   0  0  0  0  0  0  0  0  0  0  0  0
   93.3260  101.4660  -42.7550 C   0  0  0  0  0  1  0  0  0  0  0  0
   90.9880   95.4570  -45.5950 C   0  0  0  0  0  2  0  0  0  0  0  0
   92.1530   97.5360  -41.9280 O   0  0  0  0  0  0  0  0  0  0  0  0
   91.8260   96.2200  -41.4610 C   0  0  0  0  0  1  0  0  0  0  0  0
  1  4  1  0  0  0  0
  1 19  1  0  0  0  0
  2  1  2  0  0  0  0
  3  1  2  0  0  0  0
  4 10  1  0  0  0  0
  4  5  1  0  0  0  0
  5  6  1  0  0  0  0
  6  7  1  0  0  0  0
  7  9  1  0  0  0  0
  8  7  1  0  0  0  0
  9 11  2  0  0  0  0
  9 12  1  0  0  0  0
 10  8  1  0  0  0  0
 13 12  1  0  0  0  0
 13 17  1  0  0  0  0
 14 15  2  0  0  0  0
 14 13  1  0  0  0  0
 15 16  1  0  0  0  0
 16 17  2  0  0  0  0
 16 18  1  0  0  0  0
 19 20  2  0  0  0  0
 19 26  1  0  0  0  0
 20 21  1  0  0  0  0
 21 23  2  0  0  0  0
 22 32  1  0  0  0  0
 22 20  1  0  0  0  0
 23 33  1  0  0  0  0
 24 21  1  0  0  0  0
 25 23  1  0  0  0  0
 25 27  1  0  0  0  0
 26 28  1  0  0  0  0
 26 25  2  0  0  0  0
 28 29  1  0  0  0  0
 29 30  1  0  0  0  0
 30 27  1  0  0  0  0
 31 30  1  0  0  0  0
 32 24  1  0  0  0  0
 33 34  1  0  0  0  0
M  END
>  <Pose>
1

>  <Score>
-6.203

$$$$
