/Users/jonathanwahrer/Desktop/Msc/3_Semester/Drug_Design_Praktikum/waehrer_HTS_screening/HTS_experiment/out/docking_results/vina_output/4agl/1044_docked.pdbqt
 OpenBabel03202223563D

 30 33  0  0  0  0  0  0  0  0999 V2000
   88.2740  100.8030  -43.4730 N   0  0  0  0  0  0  0  0  0  0  0  0
   89.1240  101.0900  -44.5420 C   0  0  0  0  0  2  0  0  0  0  0  0
   90.4570  100.4320  -44.5400 C   0  0  0  0  0  2  0  0  0  0  0  0
   90.5120   99.1930  -43.8300 N   0  0  0  0  0  0  0  0  0  0  0  0
   89.3100   98.6910  -43.2010 C   0  0  0  0  0  2  0  0  0  0  0  0
   88.6870   99.8890  -42.4880 C   0  0  0  0  0  2  0  0  0  0  0  0
   91.7020   98.4350  -43.7150 C   0  0  0  0  0  0  0  0  0  0  0  0
   92.7840   98.8370  -44.2520 O   0  0  0  0  0  0  0  0  0  0  0  0
   86.6100  100.9680  -43.7240 S   0  0  0  0  0  0  0  0  0  0  0  0
   85.8510  101.4150  -42.5360 O   0  0  0  0  0  0  0  0  0  0  0  0
   86.4100  102.0260  -44.8020 O   0  0  0  0  0  0  0  0  0  0  0  0
   85.9450   99.4830  -44.3940 C   0  0  0  0  0  0  0  0  0  0  0  0
   86.4930   98.8880  -45.5120 C   0  0  0  0  0  3  0  0  0  0  0  0
   85.9950   97.7240  -46.0600 C   0  0  0  0  0  0  0  0  0  0  0  0
   84.9030   97.0990  -45.4940 C   0  0  0  0  0  0  0  0  0  0  0  0
   86.5560   97.1090  -47.2130 N   0  0  0  0  0  0  0  0  0  0  0  0
   84.3500   97.6930  -44.3700 C   0  0  0  0  0  3  0  0  0  0  0  0
   84.3770   95.9220  -46.0250 O   0  0  0  0  0  0  0  0  0  0  0  0
   84.8530   98.8570  -43.8270 C   0  0  0  0  0  3  0  0  0  0  0  0
   84.7220   95.4010  -47.2940 C   0  0  0  0  0  2  0  0  0  0  0  0
   86.0330   95.9080  -47.7700 C   0  0  0  0  0  0  0  0  0  0  0  0
   86.6220   95.2390  -48.6560 O   0  0  0  0  0  0  0  0  0  0  0  0
   87.3810   97.5690  -47.6520 H   0  0  0  0  0  0  0  0  0  0  0  0
   91.7760   97.1710  -42.9940 C   0  0  0  0  0  0  0  0  0  0  0  0
   91.5180   95.9570  -43.6020 C   0  0  0  0  0  0  0  0  0  0  0  0
   91.5850   94.7570  -42.9320 C   0  0  0  0  0  3  0  0  0  0  0  0
   91.0520   96.0010  -45.4540 Br  0  0  0  0  0  0  0  0  0  0  0  0
   91.9280   94.7810  -41.5890 C   0  0  0  0  0  3  0  0  0  0  0  0
   92.1970   95.9590  -40.9330 C   0  0  0  0  0  3  0  0  0  0  0  0
   92.1150   97.1330  -41.6480 C   0  0  0  0  0  3  0  0  0  0  0  0
  1  6  1  0  0  0  0
  2  3  1  0  0  0  0
  2  1  1  0  0  0  0
  3  4  1  0  0  0  0
  4  7  1  0  0  0  0
  4  5  1  0  0  0  0
  5  6  1  0  0  0  0
  7 24  1  0  0  0  0
  8  7  2  0  0  0  0
  9  1  1  0  0  0  0
  9 10  2  0  0  0  0
 11  9  2  0  0  0  0
 12 19  1  0  0  0  0
 12  9  1  0  0  0  0
 13 12  2  0  0  0  0
 14 13  1  0  0  0  0
 14 15  2  0  0  0  0
 15 17  1  0  0  0  0
 16 14  1  0  0  0  0
 17 19  2  0  0  0  0
 18 15  1  0  0  0  0
 20 18  1  0  0  0  0
 21 20  1  0  0  0  0
 21 16  1  0  0  0  0
 22 21  2  0  0  0  0
 23 16  1  0  0  0  0
 24 30  1  0  0  0  0
 25 24  2  0  0  0  0
 25 26  1  0  0  0  0
 26 28  2  0  0  0  0
 27 25  1  0  0  0  0
 28 29  1  0  0  0  0
 30 29  2  0  0  0  0
M  END
>  <Pose>
1

>  <Score>
-6.361

$$$$
