/Users/jonathanwahrer/Desktop/Msc/3_Semester/Drug_Design_Praktikum/waehrer_HTS_screening/HTS_experiment/out/docking_results/vina_output/4agl/1051_docked.pdbqt
 OpenBabel03202223573D

 27 30  0  0  0  0  0  0  0  0999 V2000
   90.8950   99.0330  -44.0610 N   0  0  0  0  0  0  0  0  0  0  0  0
   91.5850   98.4020  -45.1240 C   0  0  0  0  0  2  0  0  0  0  0  0
   91.5770   96.9110  -45.1350 C   0  0  0  0  0  2  0  0  0  0  0  0
   91.5940   96.3160  -43.8260 N   0  0  0  0  0  0  0  0  0  0  0  0
   91.6410   97.2260  -42.7040 C   0  0  0  0  0  2  0  0  0  0  0  0
   90.5220   98.2140  -42.9580 C   0  0  0  0  0  2  0  0  0  0  0  0
   91.5700   94.9300  -43.5820 C   0  0  0  0  0  0  0  0  0  0  0  0
   91.5880   94.5040  -42.4060 O   0  0  0  0  0  0  0  0  0  0  0  0
   91.5250   93.9820  -44.6900 C   0  0  0  0  0  0  0  0  0  0  0  0
   90.8110   94.1190  -45.8030 N   0  0  0  0  0  0  0  0  0  0  0  0
   90.9990   93.0710  -46.6080 N   0  0  0  0  0  0  0  0  0  0  0  0
   91.8600   92.2060  -46.0240 C   0  0  0  0  0  0  0  0  0  0  0  0
   90.5000   92.7630  -47.8240 C   0  0  0  0  0  3  0  0  0  0  0  0
   92.1950   92.7900  -44.7970 C   0  0  0  0  0  3  0  0  0  0  0  0
   92.2300   91.0470  -46.6240 N   0  0  0  0  0  0  0  0  0  0  0  0
   91.7240   90.7390  -47.8530 C   0  0  0  0  0  3  0  0  0  0  0  0
   90.8450   91.6000  -48.4740 C   0  0  0  0  0  0  0  0  0  0  0  0
   90.1330   91.1630  -50.2060 Br  0  0  0  0  0  0  0  0  0  0  0  0
   89.5190   99.9410  -44.5580 S   0  0  0  0  0  0  0  0  0  0  0  0
   89.7670  100.5610  -45.8960 O   0  0  0  0  0  0  0  0  0  0  0  0
   89.3480  101.0590  -43.5380 O   0  0  0  0  0  0  0  0  0  0  0  0
   88.0810   98.9560  -44.6430 C   0  0  0  0  0  0  0  0  0  0  0  0
   86.9520   99.0570  -43.8620 C   0  0  0  0  0  3  0  0  0  0  0  0
   86.0680   98.1280  -44.2280 N   0  0  0  0  0  0  0  0  0  0  0  0
   86.5820   97.4280  -45.2200 N   0  0  0  0  0  0  0  0  0  0  0  0
   84.7640   97.8940  -43.6650 C   0  0  0  0  0  1  0  0  0  0  0  0
   87.8210   97.8980  -45.5140 C   0  0  0  0  0  3  0  0  0  0  0  0
  1  6  1  0  0  0  0
  2  1  1  0  0  0  0
  3  2  1  0  0  0  0
  3  4  1  0  0  0  0
  4  7  1  0  0  0  0
  4  5  1  0  0  0  0
  6  5  1  0  0  0  0
  7  8  2  0  0  0  0
  9  7  1  0  0  0  0
 10  9  2  0  0  0  0
 11 12  1  0  0  0  0
 11 10  1  0  0  0  0
 12 14  2  0  0  0  0
 13 11  1  0  0  0  0
 14  9  1  0  0  0  0
 15 12  1  0  0  0  0
 16 15  2  0  0  0  0
 17 16  1  0  0  0  0
 17 13  2  0  0  0  0
 18 17  1  0  0  0  0
 19  1  1  0  0  0  0
 19 21  2  0  0  0  0
 20 19  2  0  0  0  0
 22 19  1  0  0  0  0
 22 23  2  0  0  0  0
 24 23  1  0  0  0  0
 24 26  1  0  0  0  0
 25 24  1  0  0  0  0
 27 25  2  0  0  0  0
 27 22  1  0  0  0  0
M  END
>  <Pose>
1

>  <Score>
-6.325

$$$$
