/Users/jonathanwahrer/Desktop/Msc/3_Semester/Drug_Design_Praktikum/waehrer_HTS_screening/HTS_experiment/out/docking_results/vina_output/4agl/1056_docked.pdbqt
 OpenBabel03202223573D

 30 33  0  0  1  0  0  0  0  0999 V2000
   90.7560   97.5380  -43.9470 N   0  0  0  0  0  0  0  0  0  0  0  0
   89.6090   98.3590  -44.0240 C   0  0  0  0  0  2  0  0  0  0  0  0
   89.8200   99.8170  -44.0230 C   0  0  0  0  0  2  0  0  0  0  0  0
   90.8650  100.2100  -43.1260 N   0  0  0  0  0  0  0  0  0  0  0  0
   91.5110   99.2150  -42.3190 C   0  0  0  0  0  2  0  0  0  0  0  0
   91.7760   97.9330  -43.0450 C   0  0  0  0  0  2  0  0  0  0  0  0
   91.2630  101.5590  -43.0290 C   0  0  0  0  0  0  0  0  0  0  0  0
   90.6890  102.4130  -43.7420 O   0  0  0  0  0  0  0  0  0  0  0  0
   92.3170  102.0290  -42.1390 C   0  0  1  0  0  3  0  0  0  0  0  0
   93.5950  102.2260  -42.6300 C   0  0  0  0  0  3  0  0  0  0  0  0
   94.5660  102.6600  -41.8130 N   0  0  0  0  0  0  0  0  0  0  0  0
   94.3510  102.9210  -40.5050 C   0  0  1  0  0  3  0  0  0  0  0  0
   93.1200  102.7400  -39.9960 N   0  0  0  0  0  0  0  0  0  0  0  0
   95.3770  103.3700  -39.6810 C   0  0  0  0  0  3  0  0  0  0  0  0
   92.8980  103.0020  -38.6770 C   0  0  0  0  0  3  0  0  0  0  0  0
   92.1170  102.3010  -40.8010 C   0  0  0  0  0  0  0  0  0  0  0  0
   93.9020  103.4480  -37.8430 C   0  0  0  0  0  0  0  0  0  0  0  0
   95.1790  103.6410  -38.3460 C   0  0  0  0  0  3  0  0  0  0  0  0
   93.6990  103.7430  -36.4030 C   0  0  0  0  0  1  0  0  0  0  0  0
   90.9810  102.1350  -40.3300 O   0  0  0  0  0  0  0  0  0  0  0  0
   91.2670   96.8180  -45.3900 S   0  0  0  0  0  0  0  0  0  0  0  0
   90.2990   97.1000  -46.4860 O   0  0  0  0  0  0  0  0  0  0  0  0
   92.6040   97.4060  -45.7710 O   0  0  0  0  0  0  0  0  0  0  0  0
   91.4730   95.1020  -45.1650 C   0  0  0  0  0  0  0  0  0  0  0  0
   91.3040   94.2370  -46.2260 C   0  0  0  0  0  3  0  0  0  0  0  0
   91.4840   92.8810  -45.9760 C   0  0  0  0  0  0  0  0  0  0  0  0
   91.8140   92.4040  -44.7340 C   0  0  0  0  0  3  0  0  0  0  0  0
   91.2650   91.6380  -47.3980 Br  0  0  0  0  0  0  0  0  0  0  0  0
   91.9820   93.2830  -43.6730 C   0  0  0  0  0  3  0  0  0  0  0  0
   91.8060   94.6520  -43.9030 C   0  0  0  0  0  3  0  0  0  0  0  0
  1  6  1  0  0  0  0
  2  3  1  0  0  0  0
  2  1  1  0  0  0  0
  3  4  1  0  0  0  0
  4  7  1  0  0  0  0
  4  5  1  0  0  0  0
  6  5  1  0  0  0  0
  8  7  2  0  0  0  0
  9  7  1  6  0  0  0
  9 16  1  0  0  0  0
 10  9  1  0  0  0  0
 10 11  2  0  0  0  0
 11 12  1  0  0  0  0
 12 13  1  0  0  0  0
 12 14  1  1  0  0  0
 13 15  1  0  0  0  0
 14 18  2  0  0  0  0
 15 17  2  0  0  0  0
 16 20  2  0  0  0  0
 16 13  1  0  0  0  0
 17 19  1  0  0  0  0
 18 17  1  0  0  0  0
 21 24  1  0  0  0  0
 21  1  1  0  0  0  0
 22 21  2  0  0  0  0
 23 21  2  0  0  0  0
 24 30  1  0  0  0  0
 25 26  1  0  0  0  0
 25 24  2  0  0  0  0
 26 27  2  0  0  0  0
 27 29  1  0  0  0  0
 28 26  1  0  0  0  0
 30 29  2  0  0  0  0
M  END
>  <Pose>
1

>  <Score>
-7.413

$$$$
