/Users/jonathanwahrer/Desktop/Msc/3_Semester/Drug_Design_Praktikum/waehrer_HTS_screening/HTS_experiment/out/docking_results/vina_output/4agl/1076_docked.pdbqt
 OpenBabel03202223583D

 29 32  0  0  0  0  0  0  0  0999 V2000
   90.9140   99.2040  -44.3440 N   0  0  0  0  0  0  0  0  0  0  0  0
   92.0280   99.5870  -43.5360 C   0  0  0  0  0  2  0  0  0  0  0  0
   91.4360  100.3610  -42.3450 C   0  0  0  0  0  2  0  0  0  0  0  0
   90.2690  101.0430  -42.7000 N   0  0  0  0  0  0  0  0  0  0  0  0
   90.1910  101.5070  -44.0590 C   0  0  0  0  0  2  0  0  0  0  0  0
   90.5200  100.4280  -45.0660 C   0  0  0  0  0  2  0  0  0  0  0  0
   89.0400  100.7500  -42.0900 C   0  0  0  0  0  2  0  0  0  0  0  0
   87.9950  100.1980  -42.8890 N   0  0  0  0  0  0  0  0  0  0  0  0
   88.0470   98.8510  -43.3320 N   0  0  0  0  0  0  0  0  0  0  0  0
   86.8510   98.6450  -44.0800 C   0  0  0  0  0  0  0  0  0  0  0  0
   88.8060   98.1530  -43.1490 H   0  0  0  0  0  0  0  0  0  0  0  0
   86.5500   97.4880  -44.6560 C   0  0  0  0  0  3  0  0  0  0  0  0
   86.0600   99.8220  -44.1150 N   0  0  0  0  0  0  0  0  0  0  0  0
   85.4110   97.0040  -45.4690 C   0  0  0  0  0  2  0  0  0  0  0  0
   84.7560   98.1430  -46.2120 C   0  0  0  0  0  2  0  0  0  0  0  0
   84.0090   98.9540  -45.1680 C   0  0  0  0  0  2  0  0  0  0  0  0
   84.8010  100.1430  -44.7150 C   0  0  0  0  0  2  0  0  0  0  0  0
   86.7930  100.7850  -43.3640 C   0  0  0  0  0  0  0  0  0  0  0  0
   86.3980  101.9630  -43.1770 O   0  0  0  0  0  0  0  0  0  0  0  0
   91.2860   98.0310  -45.5340 S   0  0  0  0  0  0  0  0  0  0  0  0
   92.5480   98.3670  -46.2840 O   0  0  0  0  0  0  0  0  0  0  0  0
   90.1690   98.0560  -46.5520 O   0  0  0  0  0  0  0  0  0  0  0  0
   91.4080   96.4280  -44.9200 C   0  0  0  0  0  0  0  0  0  0  0  0
   91.5850   96.0780  -43.6140 C   0  0  0  0  0  3  0  0  0  0  0  0
   91.6710   94.7500  -43.2230 C   0  0  0  0  0  0  0  0  0  0  0  0
   91.5810   93.7350  -44.1290 C   0  0  0  0  0  3  0  0  0  0  0  0
   91.9210   94.2820  -41.3760 Br  0  0  0  0  0  0  0  0  0  0  0  0
   91.4000   94.0600  -45.4640 C   0  0  0  0  0  3  0  0  0  0  0  0
   91.3180   95.3770  -45.8390 C   0  0  0  0  0  3  0  0  0  0  0  0
  1  2  1  0  0  0  0
  2  3  1  0  0  0  0
  4  3  1  0  0  0  0
  4  7  1  0  0  0  0
  5  4  1  0  0  0  0
  6  1  1  0  0  0  0
  6  5  1  0  0  0  0
  8  7  1  0  0  0  0
  9 11  1  0  0  0  0
  9  8  1  0  0  0  0
 10  9  1  0  0  0  0
 12 10  2  0  0  0  0
 13 10  1  0  0  0  0
 13 18  1  0  0  0  0
 14 12  1  0  0  0  0
 15 14  1  0  0  0  0
 15 16  1  0  0  0  0
 16 17  1  0  0  0  0
 17 13  1  0  0  0  0
 18 19  2  0  0  0  0
 18  8  1  0  0  0  0
 20 23  1  0  0  0  0
 20  1  1  0  0  0  0
 21 20  2  0  0  0  0
 22 20  2  0  0  0  0
 23 24  1  0  0  0  0
 24 25  2  0  0  0  0
 25 27  1  0  0  0  0
 26 25  1  0  0  0  0
 28 26  2  0  0  0  0
 29 28  1  0  0  0  0
 29 23  2  0  0  0  0
M  END
>  <Pose>
1

>  <Score>
-6.471

$$$$
