/Users/jonathanwahrer/Desktop/Msc/3_Semester/Drug_Design_Praktikum/waehrer_HTS_screening/HTS_experiment/out/docking_results/vina_output/4agl/1081_docked.pdbqt
 OpenBabel03202223583D

 27 30  0  0  0  0  0  0  0  0999 V2000
   91.9450   99.9420  -43.7400 N   0  0  0  0  0  0  0  0  0  0  0  0
   92.9130   99.5040  -44.6700 C   0  0  0  0  0  2  0  0  0  0  0  0
   92.8910   98.0590  -45.0430 C   0  0  0  0  0  2  0  0  0  0  0  0
   91.8590   97.2890  -44.3930 N   0  0  0  0  0  0  0  0  0  0  0  0
   91.4830   97.6110  -43.0540 C   0  0  0  0  0  3  0  0  0  0  0  0
   91.5550   99.0570  -42.7080 C   0  0  0  0  0  3  0  0  0  0  0  0
   91.2670   96.2170  -45.1410 C   0  0  0  0  0  0  0  0  0  0  0  0
   91.3790   94.9080  -44.8610 N   0  0  0  0  0  0  0  0  0  0  0  0
   90.6870   94.2820  -45.8210 N   0  0  0  0  0  0  0  0  0  0  0  0
   90.1750   95.1660  -46.6490 N   0  0  0  0  0  0  0  0  0  0  0  0
   90.5120   96.3780  -46.2610 N   0  0  0  0  0  0  0  0  0  0  0  0
   92.0760   94.3230  -43.7700 C   0  0  0  0  0  0  0  0  0  0  0  0
   91.7720   94.6510  -42.4690 C   0  0  0  0  0  3  0  0  0  0  0  0
   92.4740   94.0590  -41.4200 C   0  0  0  0  0  3  0  0  0  0  0  0
   93.4750   93.1430  -41.6550 C   0  0  0  0  0  3  0  0  0  0  0  0
   93.7850   92.8090  -42.9800 C   0  0  0  0  0  3  0  0  0  0  0  0
   93.0720   93.4120  -44.0170 C   0  0  0  0  0  3  0  0  0  0  0  0
   90.7160  100.9620  -44.3250 S   0  0  0  0  0  0  0  0  0  0  0  0
   90.9500  101.5090  -45.6770 O   0  0  0  0  0  0  0  0  0  0  0  0
   90.6240  102.1610  -43.3870 O   0  0  0  0  0  0  0  0  0  0  0  0
   89.1810  100.1430  -44.2510 C   0  0  0  0  0  0  0  0  0  0  0  0
   88.8160   99.1600  -45.1360 C   0  0  0  0  0  3  0  0  0  0  0  0
   87.5840   98.5100  -45.0640 C   0  0  0  0  0  3  0  0  0  0  0  0
   86.7000   98.8840  -44.0470 C   0  0  0  0  0  0  0  0  0  0  0  0
   87.0560   99.8700  -43.1540 C   0  0  0  0  0  3  0  0  0  0  0  0
   84.9940   98.0320  -43.8870 Br  0  0  0  0  0  0  0  0  0  0  0  0
   88.2730  100.4830  -43.2580 C   0  0  0  0  0  3  0  0  0  0  0  0
  1  6  1  0  0  0  0
  2  1  1  0  0  0  0
  3  2  1  0  0  0  0
  3  4  1  0  0  0  0
  4  5  1  0  0  0  0
  5  6  2  0  0  0  0
  7  8  1  0  0  0  0
  7  4  1  0  0  0  0
  8 12  1  0  0  0  0
  9  8  1  0  0  0  0
 10 11  1  0  0  0  0
 10  9  2  0  0  0  0
 11  7  2  0  0  0  0
 12 13  1  0  0  0  0
 13 14  2  0  0  0  0
 15 14  1  0  0  0  0
 16 15  2  0  0  0  0
 17 12  2  0  0  0  0
 17 16  1  0  0  0  0
 18 21  1  0  0  0  0
 18  1  1  0  0  0  0
 18 20  2  0  0  0  0
 19 18  2  0  0  0  0
 21 27  1  0  0  0  0
 22 23  1  0  0  0  0
 22 21  2  0  0  0  0
 23 24  2  0  0  0  0
 24 26  1  0  0  0  0
 24 25  1  0  0  0  0
 27 25  2  0  0  0  0
M  END
>  <Pose>
1

>  <Score>
-6.753

$$$$
