/Users/jonathanwahrer/Desktop/Msc/3_Semester/Drug_Design_Praktikum/waehrer_HTS_screening/HTS_experiment/out/docking_results/vina_output/4agl/1084_docked.pdbqt
 OpenBabel03202223583D

 29 32  0  0  0  0  0  0  0  0999 V2000
   89.9250   98.3030  -43.5900 N   0  0  0  0  0  0  0  0  0  0  0  0
   89.7570   98.8790  -44.8810 C   0  0  0  0  0  2  0  0  0  0  0  0
   88.9060  100.1310  -44.8760 C   0  0  0  0  0  2  0  0  0  0  0  0
   88.0220  100.0490  -43.7500 N   0  0  0  0  0  0  0  0  0  0  0  0
   88.5890  100.0150  -42.4340 C   0  0  0  0  0  2  0  0  0  0  0  0
   89.8900   99.2550  -42.5050 C   0  0  0  0  0  2  0  0  0  0  0  0
   86.6320  100.0050  -43.9450 C   0  0  0  0  0  0  0  0  0  0  0  0
   86.0520   99.2060  -44.8560 N   0  0  0  0  0  0  0  0  0  0  0  0
   84.7540   99.1200  -45.0870 C   0  0  0  0  0  0  0  0  0  0  0  0
   83.9140   99.9170  -44.3280 C   0  0  0  0  0  3  0  0  0  0  0  0
   84.4610  100.7520  -43.3800 C   0  0  0  0  0  0  0  0  0  0  0  0
   85.7950  100.7770  -43.2110 N   0  0  0  0  0  0  0  0  0  0  0  0
   83.5920  101.6240  -42.5440 C   0  0  0  0  0  1  0  0  0  0  0  0
   84.2680   98.2360  -46.0800 N   0  0  0  0  0  0  0  0  0  0  0  0
   83.9920   98.6370  -47.4440 C   0  0  0  0  0  2  0  0  0  0  0  0
   84.0670   97.3640  -48.2870 C   0  0  0  0  0  2  0  0  0  0  0  0
   85.1720   96.6410  -47.8330 O   0  0  0  0  0  0  0  0  0  0  0  0
   84.9590   96.0230  -46.6220 C   0  0  0  0  0  2  0  0  0  0  0  0
   84.0290   96.8540  -45.7310 C   0  0  0  0  0  2  0  0  0  0  0  0
   91.4740   97.5360  -43.5410 S   0  0  0  0  0  0  0  0  0  0  0  0
   92.4630   98.4410  -44.2570 O   0  0  0  0  0  0  0  0  0  0  0  0
   91.9150   97.4100  -42.1110 O   0  0  0  0  0  0  0  0  0  0  0  0
   91.4490   95.9930  -44.3470 C   0  0  0  0  0  0  0  0  0  0  0  0
   91.8630   94.8690  -43.6460 C   0  0  0  0  0  3  0  0  0  0  0  0
   91.8700   93.6170  -44.2180 C   0  0  0  0  0  3  0  0  0  0  0  0
   91.4600   93.4620  -45.5200 C   0  0  0  0  0  0  0  0  0  0  0  0
   91.0410   94.5570  -46.2520 C   0  0  0  0  0  3  0  0  0  0  0  0
   91.4760   91.7220  -46.2970 Br  0  0  0  0  0  0  0  0  0  0  0  0
   91.0450   95.8090  -45.6440 C   0  0  0  0  0  3  0  0  0  0  0  0
  1 20  1  0  0  0  0
  1  6  1  0  0  0  0
  2  3  1  0  0  0  0
  2  1  1  0  0  0  0
  3  4  1  0  0  0  0
  4  5  1  0  0  0  0
  6  5  1  0  0  0  0
  7  4  1  0  0  0  0
  7 12  1  0  0  0  0
  8  7  2  0  0  0  0
  9  8  1  0  0  0  0
  9 10  2  0  0  0  0
 10 11  1  0  0  0  0
 11 12  2  0  0  0  0
 11 13  1  0  0  0  0
 14 19  1  0  0  0  0
 14  9  1  0  0  0  0
 15 14  1  0  0  0  0
 16 17  1  0  0  0  0
 16 15  1  0  0  0  0
 17 18  1  0  0  0  0
 18 19  1  0  0  0  0
 20 22  2  0  0  0  0
 21 20  2  0  0  0  0
 23 24  1  0  0  0  0
 23 20  1  0  0  0  0
 25 24  2  0  0  0  0
 26 25  1  0  0  0  0
 27 29  1  0  0  0  0
 27 26  2  0  0  0  0
 28 26  1  0  0  0  0
 29 23  2  0  0  0  0
M  END
>  <Pose>
1

>  <Score>
-6.156

$$$$
