/Users/jonathanwahrer/Desktop/Msc/3_Semester/Drug_Design_Praktikum/waehrer_HTS_screening/HTS_experiment/out/docking_results/vina_output/4agl/1100_docked.pdbqt
 OpenBabel03202223593D

 26 29  0  0  1  0  0  0  0  0999 V2000
   90.7330   99.1420  -44.0040 N   0  0  0  0  0  0  0  0  0  0  0  0
   89.5720   98.4410  -44.4410 C   0  0  0  0  0  2  0  0  0  0  0  0
   89.8740   97.4030  -45.5020 C   0  0  0  0  0  2  0  0  0  0  0  0
   91.1720   96.8530  -45.2040 N   0  0  2  0  0  0  0  0  0  0  0  0
   92.2850   97.7570  -45.3390 C   0  0  0  0  0  2  0  0  0  0  0  0
   91.8680   99.1030  -44.8630 C   0  0  0  0  0  2  0  0  0  0  0  0
   91.3750   95.5120  -44.8030 C   0  0  1  0  0  3  0  0  0  0  0  0
   91.3610   94.5000  -45.6710 C   0  0  0  0  0  3  0  0  0  0  0  0
   91.5660   93.1120  -45.2990 C   0  0  0  0  0  0  0  0  0  0  0  0
   91.5410   92.1480  -46.2050 C   0  0  0  0  0  1  0  0  0  0  0  0
   91.7950   92.8020  -43.9410 N   0  0  0  0  0  0  0  0  0  0  0  0
   91.8040   93.9160  -43.0350 C   0  0  0  0  0  0  0  0  0  0  0  0
   91.9510   91.8530  -43.5760 H   0  0  0  0  0  0  0  0  0  0  0  0
   91.6090   95.1840  -43.4300 N   0  0  0  0  0  0  0  0  0  0  0  0
   91.9900   93.9750  -41.6930 N   0  0  0  0  0  0  0  0  0  0  0  0
   91.6750   95.9870  -42.3660 N   0  0  0  0  0  0  0  0  0  0  0  0
   91.9140   95.2480  -41.2690 C   0  0  0  0  0  3  0  0  0  0  0  0
   90.3240  100.7180  -43.5220 S   0  0  0  0  0  0  0  0  0  0  0  0
   88.8360  100.9440  -43.4630 O   0  0  0  0  0  0  0  0  0  0  0  0
   90.8530  101.6770  -44.5790 O   0  0  0  0  0  0  0  0  0  0  0  0
   91.0950  101.1850  -42.0070 C   0  0  0  0  0  0  0  0  0  0  0  0
   90.6080  102.4340  -40.9650 S   0  0  0  0  0  0  0  0  0  0  0  0
   91.8020  102.2740  -39.7630 C   0  0  0  0  0  0  0  0  0  0  0  0
   92.5650  101.2310  -40.2140 C   0  0  0  0  0  3  0  0  0  0  0  0
   92.0570  103.2930  -38.1420 Br  0  0  0  0  0  0  0  0  0  0  0  0
   92.1930  100.6630  -41.3870 C   0  0  0  0  0  3  0  0  0  0  0  0
  1 18  1  0  0  0  0
  2  1  1  0  0  0  0
  3  2  1  0  0  0  0
  4  3  1  6  0  0  0
  4  7  1  0  0  0  0
  5  4  1  0  0  0  0
  5  6  1  0  0  0  0
  6  1  1  0  0  0  0
  7  8  1  6  0  0  0
  7 14  1  0  0  0  0
  8  9  2  0  0  0  0
  9 11  1  0  0  0  0
 10  9  1  0  0  0  0
 11 13  1  0  0  0  0
 11 12  1  0  0  0  0
 12 15  2  0  0  0  0
 14 12  1  0  0  0  0
 14 16  1  0  0  0  0
 15 17  1  0  0  0  0
 16 17  2  0  0  0  0
 18 19  2  0  0  0  0
 18 21  1  0  0  0  0
 20 18  2  0  0  0  0
 21 26  2  0  0  0  0
 21 22  1  0  0  0  0
 22 23  1  0  0  0  0
 23 25  1  0  0  0  0
 24 23  2  0  0  0  0
 26 24  1  0  0  0  0
M  END
>  <Pose>
1

>  <Score>
-7.249

$$$$
