/Users/jonathanwahrer/Desktop/Msc/3_Semester/Drug_Design_Praktikum/waehrer_HTS_screening/HTS_experiment/out/docking_results/vina_output/4agl/1101_docked.pdbqt
 OpenBabel03202223593D

 26 29  0  0  0  0  0  0  0  0999 V2000
   88.1720  101.4620  -43.8840 N   0  0  0  0  0  0  0  0  0  0  0  0
   88.8510  101.2220  -42.6670 C   0  0  0  0  0  2  0  0  0  0  0  0
   89.4600   99.8730  -42.5110 C   0  0  0  0  0  2  0  0  0  0  0  0
   90.1110   99.4290  -43.7540 N   0  0  0  0  0  0  0  0  0  0  0  0
   90.2180  100.4490  -44.7750 C   0  0  0  0  0  2  0  0  0  0  0  0
   88.8060  100.9260  -45.0570 C   0  0  0  0  0  2  0  0  0  0  0  0
   86.4890  101.2110  -43.8530 S   0  0  0  0  0  0  0  0  0  0  0  0
   85.8490  102.3190  -44.6810 O   0  0  0  0  0  0  0  0  0  0  0  0
   85.9520  101.3690  -42.4620 O   0  0  0  0  0  0  0  0  0  0  0  0
   86.0000   99.7060  -44.5830 C   0  0  0  0  0  0  0  0  0  0  0  0
   86.2780   98.4820  -43.9900 C   0  0  0  0  0  3  0  0  0  0  0  0
   85.8910   97.2930  -44.5680 C   0  0  0  0  0  3  0  0  0  0  0  0
   85.2070   97.3300  -45.7720 C   0  0  0  0  0  0  0  0  0  0  0  0
   84.9050   98.5220  -46.4000 C   0  0  0  0  0  3  0  0  0  0  0  0
   84.6760   95.6670  -46.5620 Br  0  0  0  0  0  0  0  0  0  0  0  0
   85.3100   99.6870  -45.7900 C   0  0  0  0  0  3  0  0  0  0  0  0
   90.5800   98.1030  -43.8930 C   0  0  0  0  0  0  0  0  0  0  0  0
   90.4220   97.4640  -45.1170 C   0  0  0  0  0  3  0  0  0  0  0  0
   90.8880   96.1570  -45.2420 C   0  0  0  0  0  0  0  0  0  0  0  0
   91.4700   95.5250  -44.2310 N   0  0  0  0  0  0  0  0  0  0  0  0
   90.8520   95.3390  -46.3080 N   0  0  0  0  0  0  0  0  0  0  0  0
   91.8050   94.2970  -44.6600 C   0  0  0  0  0  0  0  0  0  0  0  0
   91.6250   96.1120  -43.0780 N   0  0  0  0  0  0  0  0  0  0  0  0
   91.4150   94.1990  -45.9460 N   0  0  0  0  0  0  0  0  0  0  0  0
   92.4860   93.2270  -43.8620 C   0  0  0  0  0  1  0  0  0  0  0  0
   91.1880   97.3870  -42.9020 C   0  0  0  0  0  3  0  0  0  0  0  0
  1  7  1  0  0  0  0
  1  2  1  0  0  0  0
  2  3  1  0  0  0  0
  4  3  1  0  0  0  0
  5  4  1  0  0  0  0
  6  5  1  0  0  0  0
  6  1  1  0  0  0  0
  7  9  2  0  0  0  0
  8  7  2  0  0  0  0
 10 11  1  0  0  0  0
 10  7  1  0  0  0  0
 12 11  2  0  0  0  0
 13 12  1  0  0  0  0
 14 16  1  0  0  0  0
 14 13  2  0  0  0  0
 15 13  1  0  0  0  0
 16 10  2  0  0  0  0
 17  4  1  0  0  0  0
 17 26  1  0  0  0  0
 18 17  2  0  0  0  0
 19 18  1  0  0  0  0
 19 20  1  0  0  0  0
 20 23  1  0  0  0  0
 21 24  1  0  0  0  0
 21 19  2  0  0  0  0
 22 20  1  0  0  0  0
 22 25  1  0  0  0  0
 23 26  2  0  0  0  0
 24 22  2  0  0  0  0
M  END
>  <Pose>
1

>  <Score>
-5.966

$$$$
