/Users/jonathanwahrer/Desktop/Msc/3_Semester/Drug_Design_Praktikum/waehrer_HTS_screening/HTS_experiment/out/docking_results/vina_output/4agl/1105_docked.pdbqt
 OpenBabel03202223593D

 33 36  0  0  1  0  0  0  0  0999 V2000
   85.8610   99.8710  -44.2370 N   0  0  0  0  0  0  0  0  0  0  0  0
   84.6190   99.7520  -43.5510 C   0  0  0  0  0  2  0  0  0  0  0  0
   84.3010  100.8960  -42.6140 C   0  0  0  0  0  2  0  0  0  0  0  0
   84.5770  102.1840  -43.2550 N   0  0  0  0  0  0  0  0  0  0  0  0
   85.8630  102.2240  -43.9160 C   0  0  0  0  0  0  0  0  0  0  0  0
   86.2540  103.2080  -44.5470 O   0  0  0  0  0  0  0  0  0  0  0  0
   86.6340  100.9480  -43.7370 C   0  0  2  0  0  3  0  0  0  0  0  0
   83.9530  102.9900  -43.2560 H   0  0  0  0  0  0  0  0  0  0  0  0
   88.0370  101.0570  -44.1870 C   0  0  0  0  0  2  0  0  0  0  0  0
   88.9030  100.2250  -43.3180 C   0  0  0  0  0  0  0  0  0  0  0  0
   89.1320  100.6680  -42.1610 O   0  0  0  0  0  0  0  0  0  0  0  0
   89.4520   98.9840  -43.7640 N   0  0  0  0  0  0  0  0  0  0  0  0
   89.1830   98.4900  -45.0870 C   0  0  0  0  0  2  0  0  0  0  0  0
   90.2850   98.2280  -42.8660 C   0  0  0  0  0  2  0  0  0  0  0  0
   90.2800   97.6490  -45.6620 C   0  0  0  0  0  2  0  0  0  0  0  0
   91.0280   96.8950  -44.6700 N   0  0  0  0  0  0  0  0  0  0  0  0
   91.5200   97.6910  -43.5560 C   0  0  0  0  0  2  0  0  0  0  0  0
   91.3010   95.5220  -44.7290 C   0  0  0  0  0  0  0  0  0  0  0  0
   91.1480   94.8520  -45.9220 C   0  0  0  0  0  3  0  0  0  0  0  0
   91.4070   93.4910  -45.9730 C   0  0  0  0  0  3  0  0  0  0  0  0
   91.8120   92.7700  -44.8770 C   0  0  0  0  0  3  0  0  0  0  0  0
   91.9630   93.4440  -43.6880 C   0  0  0  0  0  3  0  0  0  0  0  0
   91.7070   94.8060  -43.6290 C   0  0  0  0  0  3  0  0  0  0  0  0
   85.6030   99.8530  -45.9160 S   0  0  0  0  0  0  0  0  0  0  0  0
   86.7320  100.4190  -46.7170 O   0  0  0  0  0  0  0  0  0  0  0  0
   84.3730  100.6740  -46.2810 O   0  0  0  0  0  0  0  0  0  0  0  0
   85.2770   98.2320  -46.5040 C   0  0  0  0  0  0  0  0  0  0  0  0
   84.0070   97.6680  -46.4690 C   0  0  0  0  0  3  0  0  0  0  0  0
   83.7300   96.4070  -46.9170 C   0  0  0  0  0  3  0  0  0  0  0  0
   84.7300   95.6270  -47.4360 C   0  0  0  0  0  0  0  0  0  0  0  0
   86.0230   96.1620  -47.4880 C   0  0  0  0  0  3  0  0  0  0  0  0
   84.4070   93.8640  -48.0770 Br  0  0  0  0  0  0  0  0  0  0  0  0
   86.2650   97.4330  -47.0280 C   0  0  0  0  0  3  0  0  0  0  0  0
  1  7  1  0  0  0  0
  1  2  1  0  0  0  0
  2  3  1  0  0  0  0
  4  3  1  0  0  0  0
  5  7  1  0  0  0  0
  5  4  1  0  0  0  0
  6  5  2  0  0  0  0
  7  9  1  6  0  0  0
  8  4  1  0  0  0  0
  9 10  1  0  0  0  0
 10 11  2  0  0  0  0
 12 10  1  0  0  0  0
 12 14  1  0  0  0  0
 13 12  1  0  0  0  0
 15 13  1  0  0  0  0
 15 16  1  0  0  0  0
 16 17  1  0  0  0  0
 17 14  1  0  0  0  0
 18 16  1  0  0  0  0
 18 23  1  0  0  0  0
 19 18  2  0  0  0  0
 20 19  1  0  0  0  0
 20 21  2  0  0  0  0
 21 22  1  0  0  0  0
 22 23  2  0  0  0  0
 24  1  1  0  0  0  0
 25 24  2  0  0  0  0
 26 24  2  0  0  0  0
 27 28  1  0  0  0  0
 27 24  1  0  0  0  0
 29 28  2  0  0  0  0
 30 29  1  0  0  0  0
 31 30  2  0  0  0  0
 31 33  1  0  0  0  0
 32 30  1  0  0  0  0
 33 27  2  0  0  0  0
M  END
>  <Pose>
1

>  <Score>
-5.942

$$$$
