/Users/jonathanwahrer/Desktop/Msc/3_Semester/Drug_Design_Praktikum/waehrer_HTS_screening/HTS_experiment/out/docking_results/vina_output/4agl/1112_docked.pdbqt
 OpenBabel03212200003D

 32 35  0  0  0  0  0  0  0  0999 V2000
   91.4440   91.6050  -46.2780 C   0  0  0  0  0  2  0  0  0  0  0  0
   91.4430   92.9420  -45.6350 C   0  0  0  0  0  0  0  0  0  0  0  0
   91.8820   93.1960  -44.3700 C   0  0  0  0  0  3  0  0  0  0  0  0
   91.8460   94.4800  -43.8360 C   0  0  0  0  0  3  0  0  0  0  0  0
   91.3700   95.5390  -44.5540 C   0  0  0  0  0  0  0  0  0  0  0  0
   90.9250   95.2860  -45.8380 C   0  0  0  0  0  3  0  0  0  0  0  0
   90.9600   94.0100  -46.3700 C   0  0  0  0  0  3  0  0  0  0  0  0
   91.3090   97.1740  -43.9110 S   0  0  0  0  0  0  0  0  0  0  0  0
   91.6470   97.2030  -42.4600 O   0  0  0  0  0  0  0  0  0  0  0  0
   92.3850   97.9550  -44.6380 O   0  0  0  0  0  0  0  0  0  0  0  0
   89.8170   97.9420  -44.2280 N   0  0  0  0  0  0  0  0  0  0  0  0
   89.8560   98.8070  -45.3780 C   0  0  0  0  0  2  0  0  0  0  0  0
   88.6630   99.7580  -45.2490 C   0  0  0  0  0  2  0  0  0  0  0  0
   88.9040  100.7070  -44.2800 O   0  0  0  0  0  0  0  0  0  0  0  0
   89.8330  100.1920  -43.3590 C   0  0  0  0  0  2  0  0  0  0  0  0
   89.4270   98.7510  -43.0890 C   0  0  0  0  0  2  0  0  0  0  0  0
   92.0730   91.6200  -47.5400 O   0  0  0  0  0  0  0  0  0  0  0  0
   92.5120   90.5080  -48.2160 C   0  0  0  0  0  0  0  0  0  0  0  0
   93.4270   89.8180  -47.7240 O   0  0  0  0  0  0  0  0  0  0  0  0
   91.9260   90.1270  -49.4980 C   0  0  0  0  0  2  0  0  0  0  0  0
   90.8340   89.2050  -49.3810 N   0  0  0  0  0  0  0  0  0  0  0  0
   89.4600   89.6140  -49.3980 C   0  0  0  0  0  0  0  0  0  0  0  0
   89.0440   90.8020  -49.5150 O   0  0  0  0  0  0  0  0  0  0  0  0
   88.6110   88.4370  -49.2600 C   0  0  0  0  0  0  0  0  0  0  0  0
   89.4110   87.3290  -49.1580 C   0  0  0  0  0  0  0  0  0  0  0  0
   87.2480   88.2520  -49.2150 C   0  0  0  0  0  3  0  0  0  0  0  0
   88.8550   86.0720  -49.0160 C   0  0  0  0  0  3  0  0  0  0  0  0
   90.8060   87.7960  -49.2330 C   0  0  0  0  0  0  0  0  0  0  0  0
   87.4840   85.9020  -48.9740 C   0  0  0  0  0  3  0  0  0  0  0  0
   86.6670   87.0090  -49.0750 C   0  0  0  0  0  0  0  0  0  0  0  0
   84.7700   86.8260  -49.0200 Br  0  0  0  0  0  0  0  0  0  0  0  0
   91.8320   87.0820  -49.1780 O   0  0  0  0  0  0  0  0  0  0  0  0
  1  2  1  0  0  0  0
  2  3  1  0  0  0  0
  3  4  2  0  0  0  0
  5  8  1  0  0  0  0
  5  4  1  0  0  0  0
  6  5  2  0  0  0  0
  7  6  1  0  0  0  0
  7  2  2  0  0  0  0
  8  9  2  0  0  0  0
 10  8  2  0  0  0  0
 11  8  1  0  0  0  0
 11 16  1  0  0  0  0
 12 13  1  0  0  0  0
 12 11  1  0  0  0  0
 13 14  1  0  0  0  0
 14 15  1  0  0  0  0
 15 16  1  0  0  0  0
 17  1  1  0  0  0  0
 18 19  2  0  0  0  0
 18 17  1  0  0  0  0
 20 21  1  0  0  0  0
 20 18  1  0  0  0  0
 21 28  1  0  0  0  0
 22 21  1  0  0  0  0
 22 24  1  0  0  0  0
 23 22  2  0  0  0  0
 24 26  2  0  0  0  0
 24 25  1  0  0  0  0
 25 27  2  0  0  0  0
 26 30  1  0  0  0  0
 27 29  1  0  0  0  0
 28 32  2  0  0  0  0
 28 25  1  0  0  0  0
 30 31  1  0  0  0  0
 30 29  2  0  0  0  0
M  END
>  <Pose>
1

>  <Score>
-7.339

$$$$
