/Users/jonathanwahrer/Desktop/Msc/3_Semester/Drug_Design_Praktikum/waehrer_HTS_screening/HTS_experiment/out/docking_results/vina_output/4agl/1113_docked.pdbqt
 OpenBabel03212200003D

 28 31  0  0  0  0  0  0  0  0999 V2000
   91.0760   91.2710  -48.4290 C   0  0  0  0  0  0  0  0  0  0  0  0
   92.1770   90.6030  -48.0460 N   0  0  0  0  0  0  0  0  0  0  0  0
   92.5590   91.0520  -46.8230 C   0  0  0  0  0  3  0  0  0  0  0  0
   91.7070   92.0080  -46.4160 N   0  0  0  0  0  0  0  0  0  0  0  0
   90.8050   92.1510  -47.3760 C   0  0  0  0  0  3  0  0  0  0  0  0
   91.7990   92.7170  -45.1560 C   0  0  0  0  0  2  0  0  0  0  0  0
   91.6190   94.1770  -45.3360 C   0  0  0  0  0  0  0  0  0  0  0  0
   92.5620   95.0270  -45.8190 N   0  0  0  0  0  0  0  0  0  0  0  0
   92.0560   96.2230  -45.8370 O   0  0  0  0  0  0  0  0  0  0  0  0
   90.8240   96.2260  -45.3940 C   0  0  0  0  0  0  0  0  0  0  0  0
   90.5510   94.9350  -45.0780 N   0  0  0  0  0  0  0  0  0  0  0  0
   89.8920   97.3860  -45.2530 C   0  0  0  0  0  2  0  0  0  0  0  0
   90.5120   98.3180  -44.2700 C   0  0  0  0  0  0  0  0  0  0  0  0
   91.1310   97.7820  -43.1520 C   0  0  0  0  0  3  0  0  0  0  0  0
   91.7270   98.5630  -42.1980 C   0  0  0  0  0  3  0  0  0  0  0  0
   91.7040   99.9210  -42.3660 C   0  0  0  0  0  0  0  0  0  0  0  0
   91.1080  100.4960  -43.4450 C   0  0  0  0  0  3  0  0  0  0  0  0
   92.5230  101.0410  -41.0570 Br  0  0  0  0  0  0  0  0  0  0  0  0
   90.5100   99.6780  -44.4000 C   0  0  0  0  0  3  0  0  0  0  0  0
   90.1710   91.0910  -49.9140 S   0  0  0  0  0  0  0  0  0  0  0  0
   89.3340   92.3500  -50.1020 O   0  0  0  0  0  0  0  0  0  0  0  0
   91.1280   91.0760  -51.0890 O   0  0  0  0  0  0  0  0  0  0  0  0
   89.1450   89.7660  -49.9460 N   0  0  0  0  0  0  0  0  0  0  0  0
   89.5590   88.5820  -49.3170 C   0  0  0  0  0  2  0  0  0  0  0  0
   88.4500   87.9910  -48.4970 C   0  0  0  0  0  2  0  0  0  0  0  0
   87.3720   87.7820  -49.3400 O   0  0  0  0  0  0  0  0  0  0  0  0
   86.8180   88.9690  -49.8020 C   0  0  0  0  0  2  0  0  0  0  0  0
   87.8070   89.9460  -50.3100 C   0  0  0  0  0  2  0  0  0  0  0  0
  1  2  1  0  0  0  0
  1  5  2  0  0  0  0
  2  3  2  0  0  0  0
  3  4  1  0  0  0  0
  4  6  1  0  0  0  0
  5  4  1  0  0  0  0
  7  6  1  0  0  0  0
  7 11  1  0  0  0  0
  8  7  2  0  0  0  0
  9  8  1  0  0  0  0
  9 10  1  0  0  0  0
 10 12  1  0  0  0  0
 10 11  2  0  0  0  0
 12 13  1  0  0  0  0
 13 14  1  0  0  0  0
 14 15  2  0  0  0  0
 16 15  1  0  0  0  0
 16 18  1  0  0  0  0
 17 16  2  0  0  0  0
 19 13  2  0  0  0  0
 19 17  1  0  0  0  0
 20  1  1  0  0  0  0
 21 20  2  0  0  0  0
 22 20  2  0  0  0  0
 23 20  1  0  0  0  0
 23 24  1  0  0  0  0
 24 25  1  0  0  0  0
 26 25  1  0  0  0  0
 27 26  1  0  0  0  0
 28 23  1  0  0  0  0
 28 27  1  0  0  0  0
M  END
>  <Pose>
1

>  <Score>
-5.920

$$$$
