/Users/jonathanwahrer/Desktop/Msc/3_Semester/Drug_Design_Praktikum/waehrer_HTS_screening/HTS_experiment/out/docking_results/vina_output/4agl/1114_docked.pdbqt
 OpenBabel03212200013D

 27 30  0  0  0  0  0  0  0  0999 V2000
   88.6330   98.3610  -45.3610 C   0  0  0  0  0  0  0  0  0  0  0  0
   88.5740   97.4390  -46.3380 N   0  0  0  0  0  0  0  0  0  0  0  0
   89.5800   96.5630  -46.1600 C   0  0  0  0  0  3  0  0  0  0  0  0
   90.3030   96.8950  -45.0810 N   0  0  0  0  0  0  0  0  0  0  0  0
   89.7220   98.0000  -44.5870 C   0  0  0  0  0  3  0  0  0  0  0  0
   91.4640   96.1970  -44.5650 C   0  0  0  0  0  2  0  0  0  0  0  0
   91.4980   94.7720  -44.9650 C   0  0  0  0  0  0  0  0  0  0  0  0
   91.4830   93.7350  -44.1060 N   0  0  0  0  0  0  0  0  0  0  0  0
   91.5250   92.6310  -44.7900 O   0  0  0  0  0  0  0  0  0  0  0  0
   91.5670   92.8770  -46.0710 C   0  0  0  0  0  0  0  0  0  0  0  0
   91.5510   94.2150  -46.1840 N   0  0  0  0  0  0  0  0  0  0  0  0
   91.6200   91.8660  -47.1270 C   0  0  0  0  0  0  0  0  0  0  0  0
   90.6930   91.8260  -48.1480 C   0  0  0  0  0  3  0  0  0  0  0  0
   90.7560   90.8570  -49.1470 C   0  0  0  0  0  0  0  0  0  0  0  0
   91.7500   89.9040  -49.1490 C   0  0  0  0  0  3  0  0  0  0  0  0
   89.4610   90.8210  -50.5530 Br  0  0  0  0  0  0  0  0  0  0  0  0
   92.6770   89.9410  -48.1300 C   0  0  0  0  0  3  0  0  0  0  0  0
   92.6110   90.9130  -47.1290 C   0  0  0  0  0  3  0  0  0  0  0  0
   87.5490   99.7370  -45.1190 S   0  0  0  0  0  0  0  0  0  0  0  0
   88.3720  100.8540  -44.5340 O   0  0  0  0  0  0  0  0  0  0  0  0
   87.0010  100.2200  -46.4230 O   0  0  0  0  0  0  0  0  0  0  0  0
   86.2990   99.3510  -44.0180 N   0  0  0  0  0  0  0  0  0  0  0  0
   85.6150   98.1450  -44.3030 C   0  0  0  0  0  2  0  0  0  0  0  0
   84.1510   98.1190  -44.0140 C   0  0  0  0  0  2  0  0  0  0  0  0
   83.9400   98.9050  -42.8580 O   0  0  0  0  0  0  0  0  0  0  0  0
   84.0940  100.2210  -43.3020 C   0  0  0  0  0  2  0  0  0  0  0  0
   85.5330  100.4650  -43.5920 C   0  0  0  0  0  2  0  0  0  0  0  0
  1 19  1  0  0  0  0
  1  5  2  0  0  0  0
  2  3  2  0  0  0  0
  2  1  1  0  0  0  0
  3  4  1  0  0  0  0
  4  5  1  0  0  0  0
  4  6  1  0  0  0  0
  7  6  1  0  0  0  0
  7  8  2  0  0  0  0
  9  8  1  0  0  0  0
 10  9  1  0  0  0  0
 11 10  2  0  0  0  0
 11  7  1  0  0  0  0
 12 10  1  0  0  0  0
 13 12  2  0  0  0  0
 14 13  1  0  0  0  0
 15 14  2  0  0  0  0
 15 17  1  0  0  0  0
 16 14  1  0  0  0  0
 17 18  2  0  0  0  0
 18 12  1  0  0  0  0
 19 20  2  0  0  0  0
 19 22  1  0  0  0  0
 21 19  2  0  0  0  0
 22 27  1  0  0  0  0
 23 22  1  0  0  0  0
 23 24  1  0  0  0  0
 24 25  1  0  0  0  0
 26 25  1  0  0  0  0
 27 26  1  0  0  0  0
M  END
>  <Pose>
1

>  <Score>
-6.421

$$$$
