/Users/jonathanwahrer/Desktop/Msc/3_Semester/Drug_Design_Praktikum/waehrer_HTS_screening/HTS_experiment/out/docking_results/vina_output/4agl/1133_docked.pdbqt
 OpenBabel03212200013D

 35 38  0  0  1  0  0  0  0  0999 V2000
   88.4790   97.9090  -45.1200 C   0  0  0  0  0  0  0  0  0  0  0  0
   88.2470   99.0130  -44.4090 N   0  0  0  0  0  0  0  0  0  0  0  0
   86.9070   99.0570  -44.1810 C   0  0  0  0  0  0  0  0  0  0  0  0
   86.0280   99.8980  -43.6160 N   0  0  0  0  0  0  0  0  0  0  0  0
   84.7010   99.7360  -43.5790 C   0  0  0  0  0  0  0  0  0  0  0  0
   84.1740   98.5930  -44.1660 N   0  0  0  0  0  0  0  0  0  0  0  0
   84.9560   97.7160  -44.7430 C   0  0  0  0  0  0  0  0  0  0  0  0
   86.3230   97.9070  -44.7770 C   0  0  0  0  0  0  0  0  0  0  0  0
   87.3320   97.2500  -45.3370 N   0  0  0  0  0  0  0  0  0  0  0  0
   89.1450   99.9960  -43.8950 C   0  0  2  0  0  3  0  0  0  0  0  0
   90.3260  100.1480  -44.6540 O   0  0  0  0  0  0  0  0  0  0  0  0
   91.0310  101.0220  -43.7940 C   0  0  1  0  0  3  0  0  0  0  0  0
   91.0550  100.1050  -42.5430 C   0  0  2  0  0  3  0  0  0  0  0  0
   89.5430   99.8570  -42.4620 C   0  0  1  0  0  3  0  0  0  0  0  0
   92.3910  101.3300  -44.2920 C   0  0  0  0  0  2  0  0  0  0  0  0
   93.3550  100.6020  -43.5840 O   0  0  0  0  0  0  0  0  0  0  0  0
   93.2160   99.6320  -43.8120 H   0  0  0  0  0  0  0  0  0  0  0  0
   91.5560  100.7380  -41.4380 O   0  0  0  0  0  0  0  0  0  0  0  0
   90.8720  101.3320  -41.0460 H   0  0  0  0  0  0  0  0  0  0  0  0
   89.0050  100.9050  -41.6720 O   0  0  0  0  0  0  0  0  0  0  0  0
   89.4690  101.7100  -41.9940 H   0  0  0  0  0  0  0  0  0  0  0  0
   90.0660   97.3980  -45.7930 S   0  0  0  0  0  0  0  0  0  0  0  0
   91.1550   96.7500  -44.4500 C   0  0  0  0  0  2  0  0  0  0  0  0
   91.3140   95.2860  -44.6050 C   0  0  0  0  0  0  0  0  0  0  0  0
   91.7620   94.4460  -43.6150 C   0  0  0  0  0  0  0  0  0  0  0  0
   92.0220   93.1390  -43.8390 C   0  0  0  0  0  3  0  0  0  0  0  0
   91.8650   95.2070  -41.8640 Br  0  0  0  0  0  0  0  0  0  0  0  0
   91.8420   92.5660  -45.0930 C   0  0  0  0  0  3  0  0  0  0  0  0
   91.3880   93.3960  -46.1280 C   0  0  0  0  0  3  0  0  0  0  0  0
   91.1300   94.7310  -45.8860 C   0  0  0  0  0  3  0  0  0  0  0  0
   83.7710  100.6720  -43.0130 N   0  0  0  0  0  0  0  0  0  0  0  0
   83.0780  100.4870  -42.2910 H   0  0  0  0  0  0  0  0  0  0  0  0
   83.7820  101.6710  -43.4210 H   0  0  0  0  0  0  0  0  0  0  0  0
   84.4890   96.5660  -45.3290 O   0  0  0  0  0  0  0  0  0  0  0  0
   83.5580   96.4710  -45.7190 H   0  0  0  0  0  0  0  0  0  0  0  0
  1  2  1  0  0  0  0
  2  3  1  0  0  0  0
  3  4  1  0  0  0  0
  4  5  2  0  0  0  0
  5 31  1  0  0  0  0
  6  5  1  0  0  0  0
  7  6  2  0  0  0  0
  8  7  1  0  0  0  0
  8  3  2  0  0  0  0
  9  1  2  0  0  0  0
  9  8  1  0  0  0  0
 10  2  1  6  0  0  0
 10 14  1  0  0  0  0
 11 10  1  0  0  0  0
 11 12  1  0  0  0  0
 12 15  1  6  0  0  0
 12 13  1  0  0  0  0
 13 14  1  0  0  0  0
 13 18  1  1  0  0  0
 14 20  1  1  0  0  0
 15 16  1  0  0  0  0
 17 16  1  0  0  0  0
 18 19  1  0  0  0  0
 21 20  1  0  0  0  0
 22  1  1  0  0  0  0
 22 23  1  0  0  0  0
 24 23  1  0  0  0  0
 24 25  1  0  0  0  0
 25 27  1  0  0  0  0
 26 25  2  0  0  0  0
 28 26  1  0  0  0  0
 29 30  1  0  0  0  0
 29 28  2  0  0  0  0
 30 24  2  0  0  0  0
 31 32  1  0  0  0  0
 33 31  1  0  0  0  0
 34  7  1  0  0  0  0
 35 34  1  0  0  0  0
M  END
>  <Pose>
1

>  <Score>
-6.381

$$$$
