/Users/jonathanwahrer/Desktop/Msc/3_Semester/Drug_Design_Praktikum/waehrer_HTS_screening/HTS_experiment/out/docking_results/vina_output/4agl/1143_docked.pdbqt
 OpenBabel03212200023D

 33 37  0  0  1  0  0  0  0  0999 V2000
   89.8420   99.0980  -44.3590 C   0  0  1  0  0  3  0  0  0  0  0  0
   89.3030  100.2230  -43.6070 N   0  0  0  0  0  4  0  0  0  0  0  0
   88.0830   99.8270  -42.9250 C   0  0  0  0  0  2  0  0  0  0  0  0
   87.5100   98.5160  -43.3960 C   0  0  0  0  0  2  0  0  0  0  0  0
   87.6090   98.4770  -44.8990 C   0  0  0  0  0  0  0  0  0  0  0  0
   88.8830   98.8190  -45.4140 C   0  0  0  0  0  0  0  0  0  0  0  0
   89.0740   98.8390  -46.7670 C   0  0  0  0  0  0  0  0  0  0  0  0
   87.9910   98.5130  -47.5810 C   0  0  0  0  0  0  0  0  0  0  0  0
   86.7640   98.1830  -47.0570 C   0  0  0  0  0  0  0  0  0  0  0  0
   86.5540   98.1600  -45.6910 C   0  0  0  0  0  3  0  0  0  0  0  0
   85.9030   97.9130  -48.1010 O   0  0  0  0  0  0  0  0  0  0  0  0
   86.4960   98.3490  -49.2990 C   0  0  0  0  0  2  0  0  0  0  0  0
   87.8750   98.4460  -48.9430 O   0  0  0  0  0  0  0  0  0  0  0  0
   89.0300  101.3840  -44.3820 C   0  0  0  0  0  1  0  0  0  0  0  0
   90.0070  100.4580  -42.8770 H   0  0  0  0  0  0  0  0  0  0  0  0
   91.2760   99.2020  -44.5970 C   0  0  1  0  0  3  0  0  0  0  0  0
   91.8960   99.3780  -43.1940 C   0  0  0  0  0  0  0  0  0  0  0  0
   91.7170   98.2580  -42.3430 N   0  0  0  0  0  2  0  0  0  0  0  0
   92.4880  100.4100  -42.8680 O   0  0  0  0  0  0  0  0  0  0  0  0
   91.6560   97.0330  -42.7230 C   0  0  0  0  0  0  0  0  0  0  0  0
   91.4290   95.6830  -41.5760 S   0  0  0  0  0  0  0  0  0  0  0  0
   91.7770   96.8260  -44.1490 N   0  0  0  0  0  0  0  0  0  0  0  0
   91.9470   97.9350  -45.0180 C   0  0  0  0  0  0  0  0  0  0  0  0
   92.6250   97.7730  -46.0350 O   0  0  0  0  0  0  0  0  0  0  0  0
   91.7310   95.5350  -44.6840 C   0  0  0  0  0  0  0  0  0  0  0  0
   90.8460   95.3050  -45.7450 C   0  0  0  0  0  3  0  0  0  0  0  0
   90.7450   94.0590  -46.3250 C   0  0  0  0  0  3  0  0  0  0  0  0
   91.5360   93.0190  -45.8450 C   0  0  0  0  0  0  0  0  0  0  0  0
   92.4180   93.2590  -44.7840 C   0  0  0  0  0  3  0  0  0  0  0  0
   91.4290   91.2980  -46.6110 Br  0  0  0  0  0  0  0  0  0  0  0  0
   92.5050   94.5090  -44.2190 C   0  0  0  0  0  3  0  0  0  0  0  0
   90.2990   99.1750  -47.3270 O   0  0  0  0  0  0  0  0  0  0  0  0
   90.4730  100.4820  -47.8620 C   0  0  0  0  0  1  0  0  0  0  0  0
  1  6  1  6  0  0  0
  1  2  1  0  0  0  0
  2  3  1  0  0  0  0
  2 15  1  0  0  0  0
  4  3  1  0  0  0  0
  5  4  1  0  0  0  0
  6  5  1  0  0  0  0
  7  6  2  0  0  0  0
  8  9  2  0  0  0  0
  8  7  1  0  0  0  0
  9 10  1  0  0  0  0
 10  5  2  0  0  0  0
 11  9  1  0  0  0  0
 12 13  1  0  0  0  0
 12 11  1  0  0  0  0
 13  8  1  0  0  0  0
 14  2  1  0  0  0  0
 16 23  1  1  0  0  0
 16  1  1  0  0  0  0
 16 17  1  0  0  0  0
 17 19  2  0  0  0  0
 17 18  1  0  0  0  0
 20 18  1  0  0  0  0
 20 21  2  0  0  0  0
 22 20  1  0  0  0  0
 23 22  1  0  0  0  0
 24 23  2  0  0  0  0
 25 31  1  0  0  0  0
 25 22  1  0  0  0  0
 26 25  2  0  0  0  0
 27 28  2  0  0  0  0
 27 26  1  0  0  0  0
 28 29  1  0  0  0  0
 29 31  2  0  0  0  0
 30 28  1  0  0  0  0
 32  7  1  0  0  0  0
 33 32  1  0  0  0  0
M  END
>  <Pose>
1

>  <Score>
-6.565

$$$$
