/Users/jonathanwahrer/Desktop/Msc/3_Semester/Drug_Design_Praktikum/waehrer_HTS_screening/HTS_experiment/out/docking_results/vina_output/4agl/1151_docked.pdbqt
 OpenBabel03212200023D

 24 27  0  0  1  0  0  0  0  0999 V2000
   92.2480  103.0640  -40.7490 S   0  0  0  0  0  0  0  0  0  0  0  0
   92.2070  104.5450  -40.9890 O   0  0  0  0  0  0  0  0  0  0  0  0
   92.1570  102.7330  -39.2850 O   0  0  0  0  0  0  0  0  0  0  0  0
   90.9560  102.2270  -41.6420 C   0  0  0  0  0  2  0  0  0  0  0  0
   91.4560  100.8140  -41.8680 C   0  0  2  0  0  3  0  0  0  0  0  0
   92.5400  100.8520  -42.8290 N   0  0  0  0  0  0  0  0  0  0  0  0
   93.4920  101.9420  -42.8230 C   0  0  0  0  0  2  0  0  0  0  0  0
   93.7810  102.3690  -41.3820 C   0  0  0  0  0  2  0  0  0  0  0  0
   92.3740   99.6830  -43.6210 C   0  0  0  0  0  0  0  0  0  0  0  0
   93.2400   99.1890  -44.4200 O   0  0  0  0  0  0  0  0  0  0  0  0
   91.0910   99.1090  -43.4090 N   0  0  0  0  0  0  0  0  0  0  0  0
   90.4380   99.9420  -42.4620 C   0  0  0  0  0  0  0  0  0  0  0  0
   89.2060   99.9470  -42.1710 O   0  0  0  0  0  0  0  0  0  0  0  0
   90.5300   97.9150  -44.0220 C   0  0  1  0  0  3  0  0  0  0  0  0
   90.8130   97.8780  -45.5140 C   0  0  0  0  0  2  0  0  0  0  0  0
   90.0930   96.6370  -46.0460 C   0  0  0  0  0  2  0  0  0  0  0  0
   90.7600   95.5230  -45.4790 O   0  0  0  0  0  0  0  0  0  0  0  0
   91.2240   95.5650  -44.1690 C   0  0  0  0  0  0  0  0  0  0  0  0
   91.1320   96.7070  -43.4260 C   0  0  0  0  0  0  0  0  0  0  0  0
   91.7790   94.4000  -43.6630 C   0  0  0  0  0  0  0  0  0  0  0  0
   91.5870   96.7480  -42.1380 C   0  0  0  0  0  3  0  0  0  0  0  0
   92.1450   95.6130  -41.5990 C   0  0  0  0  0  3  0  0  0  0  0  0
   92.2300   94.4730  -42.3570 C   0  0  0  0  0  3  0  0  0  0  0  0
   91.9040   92.8130  -44.7030 Br  0  0  0  0  0  0  0  0  0  0  0  0
  1  3  2  0  0  0  0
  2  1  2  0  0  0  0
  4  1  1  0  0  0  0
  5  4  1  6  0  0  0
  6  7  1  0  0  0  0
  6  5  1  0  0  0  0
  7  8  1  0  0  0  0
  8  1  1  0  0  0  0
  9 11  1  0  0  0  0
  9  6  1  0  0  0  0
 10  9  2  0  0  0  0
 11 12  1  0  0  0  0
 12 13  2  0  0  0  0
 12  5  1  0  0  0  0
 14 15  1  6  0  0  0
 14 19  1  0  0  0  0
 14 11  1  0  0  0  0
 16 15  1  0  0  0  0
 16 17  1  0  0  0  0
 17 18  1  0  0  0  0
 18 20  2  0  0  0  0
 18 19  1  0  0  0  0
 19 21  2  0  0  0  0
 20 23  1  0  0  0  0
 21 22  1  0  0  0  0
 23 22  2  0  0  0  0
 24 20  1  0  0  0  0
M  END
>  <Pose>
1

>  <Score>
-6.251

$$$$
