/Users/jonathanwahrer/Desktop/Msc/3_Semester/Drug_Design_Praktikum/waehrer_HTS_screening/HTS_experiment/out/docking_results/vina_output/4agl/1160_docked.pdbqt
 OpenBabel03212200023D

 25 28  0  0  1  0  0  0  0  0999 V2000
   91.5700   92.5390  -45.7370 C   0  0  0  0  0  0  0  0  0  0  0  0
   91.2910   93.8200  -46.0410 N   0  0  0  0  0  0  0  0  0  0  0  0
   91.5870   94.6180  -45.0010 C   0  0  0  0  0  0  0  0  0  0  0  0
   92.0550   93.7920  -44.0510 N   0  0  0  0  0  0  0  0  0  0  0  0
   92.0350   92.5610  -44.5110 O   0  0  0  0  0  0  0  0  0  0  0  0
   91.4410   96.0700  -44.8970 C   0  0  0  0  0  0  0  0  0  0  0  0
   91.0590   96.7530  -43.8050 N   0  0  0  0  0  0  0  0  0  0  0  0
   91.0350   98.0640  -44.0690 N   0  0  0  0  0  0  0  0  0  0  0  0
   91.4090   98.2390  -45.3560 C   0  0  0  0  0  3  0  0  0  0  0  0
   91.6520   97.0000  -45.8440 N   0  0  0  0  0  0  0  0  0  0  0  0
   90.6730   99.1230  -43.1410 C   0  0  0  0  0  2  0  0  0  0  0  0
   91.8180   99.3710  -42.2390 C   0  0  0  0  0  0  0  0  0  0  0  0
   92.2110  100.5470  -42.0780 O   0  0  0  0  0  0  0  0  0  0  0  0
   92.4450   98.2890  -41.5770 N   0  0  0  0  0  0  0  0  0  0  0  0
   92.7200   98.3460  -40.5580 H   0  0  0  0  0  0  0  0  0  0  0  0
   92.6750   97.3760  -42.0380 H   0  0  0  0  0  0  0  0  0  0  0  0
   91.3890   91.3270  -46.6130 C   0  0  1  0  0  3  0  0  0  0  0  0
   91.7610   91.5780  -48.0810 C   0  0  1  0  0  3  0  0  0  0  0  0
   92.5760   90.7000  -47.2380 C   0  0  0  0  0  2  0  0  0  0  0  0
   90.7930   90.9200  -49.0470 C   0  0  0  0  0  0  0  0  0  0  0  0
   90.8260   89.5900  -49.2920 C   0  0  0  0  0  3  0  0  0  0  0  0
   89.9010   89.1050  -50.1790 C   0  0  0  0  0  0  0  0  0  0  0  0
   89.0290   90.4880  -50.6380 S   0  0  0  0  0  0  0  0  0  0  0  0
   89.6790   87.2720  -50.7430 Br  0  0  0  0  0  0  0  0  0  0  0  0
   89.8450   91.6520  -49.7040 C   0  0  0  0  0  3  0  0  0  0  0  0
  1  5  1  0  0  0  0
  2  1  2  0  0  0  0
  2  3  1  0  0  0  0
  3  6  1  0  0  0  0
  3  4  2  0  0  0  0
  5  4  1  0  0  0  0
  6  7  2  0  0  0  0
  8  7  1  0  0  0  0
  8 11  1  0  0  0  0
  9  8  1  0  0  0  0
 10  9  2  0  0  0  0
 10  6  1  0  0  0  0
 11 12  1  0  0  0  0
 12 13  2  0  0  0  0
 12 14  1  0  0  0  0
 14 15  1  0  0  0  0
 16 14  1  0  0  0  0
 17  1  1  1  0  0  0
 18 20  1  6  0  0  0
 18 19  1  0  0  0  0
 18 17  1  0  0  0  0
 19 17  1  0  0  0  0
 21 20  1  0  0  0  0
 22 21  2  0  0  0  0
 23 22  1  0  0  0  0
 23 25  1  0  0  0  0
 24 22  1  0  0  0  0
 25 20  2  0  0  0  0
M  END
>  <Pose>
1

>  <Score>
-6.738

$$$$
