/Users/jonathanwahrer/Desktop/Msc/3_Semester/Drug_Design_Praktikum/waehrer_HTS_screening/HTS_experiment/out/docking_results/vina_output/4agl/1161_docked.pdbqt
 OpenBabel03212200023D

 29 32  0  0  0  0  0  0  0  0999 V2000
   91.0510   98.9740  -44.1700 N   0  0  0  0  0  0  0  0  0  0  0  0
   89.8610   99.4490  -43.7320 C   0  0  0  0  0  0  0  0  0  0  0  0
   90.0390  100.6640  -43.1420 C   0  0  0  0  0  0  0  0  0  0  0  0
   88.9610  101.3530  -42.6170 C   0  0  0  0  0  3  0  0  0  0  0  0
   87.7060  100.7940  -42.6980 C   0  0  0  0  0  3  0  0  0  0  0  0
   87.5000   99.5730  -43.2870 C   0  0  0  0  0  3  0  0  0  0  0  0
   88.5940   98.9130  -43.8000 C   0  0  0  0  0  3  0  0  0  0  0  0
   91.3450  100.9360  -43.2150 N   0  0  0  0  0  0  0  0  0  0  0  0
   91.9620   99.8960  -43.8460 C   0  0  0  0  0  0  0  0  0  0  0  0
   91.2260   97.7110  -44.8430 C   0  0  0  0  0  2  0  0  0  0  0  0
   91.4110   96.5930  -43.8860 C   0  0  0  0  0  0  0  0  0  0  0  0
   91.4830   96.8040  -42.6500 O   0  0  0  0  0  0  0  0  0  0  0  0
   91.5180   95.2000  -44.3330 C   0  0  0  0  0  0  0  0  0  0  0  0
   91.2690   94.5200  -45.8840 S   0  0  0  0  0  0  0  0  0  0  0  0
   91.5780   92.8870  -45.5330 C   0  0  0  0  0  0  0  0  0  0  0  0
   91.8720   92.9150  -44.1970 C   0  0  0  0  0  3  0  0  0  0  0  0
   91.5240   91.4030  -46.7300 Br  0  0  0  0  0  0  0  0  0  0  0  0
   91.8420   94.0990  -43.5810 C   0  0  0  0  0  3  0  0  0  0  0  0
   93.2290   99.9120  -44.0300 N   0  0  0  0  0  0  0  0  0  0  0  0
   93.8490   99.1460  -44.2870 H   0  0  0  0  0  0  0  0  0  0  0  0
   91.9670  102.1530  -42.7120 C   0  0  0  0  0  2  0  0  0  0  0  0
   92.4300  101.8920  -41.2700 C   0  0  0  0  0  2  0  0  0  0  0  0
   93.8000  101.4710  -41.2130 N   0  0  0  0  0  4  0  0  0  0  0  0
   94.7470  102.4880  -41.6250 C   0  0  0  0  0  2  0  0  0  0  0  0
   94.5310  103.7860  -40.9000 C   0  0  0  0  0  2  0  0  0  0  0  0
   94.3900  103.6230  -39.4240 C   0  0  0  0  0  2  0  0  0  0  0  0
   93.8610  102.3130  -38.9610 C   0  0  0  0  0  2  0  0  0  0  0  0
   94.1220  101.1450  -39.8450 C   0  0  0  0  0  2  0  0  0  0  0  0
   93.9590  100.6600  -41.8480 H   0  0  0  0  0  0  0  0  0  0  0  0
  1  9  1  0  0  0  0
  1  2  1  0  0  0  0
  2  3  1  0  0  0  0
  3  4  2  0  0  0  0
  5  4  1  0  0  0  0
  6  5  2  0  0  0  0
  7  2  2  0  0  0  0
  7  6  1  0  0  0  0
  8  3  1  0  0  0  0
  8 21  1  0  0  0  0
  9  8  1  0  0  0  0
 10  1  1  0  0  0  0
 10 11  1  0  0  0  0
 11 12  2  0  0  0  0
 13 11  1  0  0  0  0
 13 18  2  0  0  0  0
 14 15  1  0  0  0  0
 14 13  1  0  0  0  0
 15 16  2  0  0  0  0
 16 18  1  0  0  0  0
 17 15  1  0  0  0  0
 19  9  2  0  0  0  0
 20 19  1  0  0  0  0
 21 22  1  0  0  0  0
 22 23  1  0  0  0  0
 23 28  1  0  0  0  0
 24 23  1  0  0  0  0
 24 25  1  0  0  0  0
 25 26  1  0  0  0  0
 26 27  1  0  0  0  0
 28 27  1  0  0  0  0
 29 23  1  0  0  0  0
M  END
>  <Pose>
1

>  <Score>
-6.327

$$$$
