/Users/jonathanwahrer/Desktop/Msc/3_Semester/Drug_Design_Praktikum/waehrer_HTS_screening/HTS_experiment/out/docking_results/vina_output/4agl/1177_docked.pdbqt
 OpenBabel03212200033D

 33 36  0  0  1  0  0  0  0  0999 V2000
   91.2950   98.0550  -44.8890 C   0  0  2  0  0  3  0  0  0  0  0  0
   90.2180   98.6040  -45.7790 C   0  0  2  0  0  3  0  0  0  0  0  0
   90.6240   99.9550  -46.0100 N   0  0  0  0  0  0  0  0  0  0  0  0
   92.0770   99.8920  -46.0460 C   0  0  0  0  0  0  0  0  0  0  0  0
   92.7860  100.7680  -46.6130 O   0  0  0  0  0  0  0  0  0  0  0  0
   92.5190   98.6990  -45.3470 C   0  0  0  0  0  0  0  0  0  0  0  0
   93.7180   98.2990  -45.1720 O   0  0  0  0  0  0  0  0  0  0  0  0
   89.8690  101.1510  -46.2410 C   0  0  0  0  0  2  0  0  0  0  0  0
   90.1230  102.2870  -45.3050 C   0  0  0  0  0  2  0  0  0  0  0  0
   90.0340  101.8200  -43.8450 C   0  0  0  0  0  2  0  0  0  0  0  0
   90.8510  102.6750  -43.0510 N   0  0  0  0  0  4  0  0  0  0  0  0
   90.8720  102.4090  -41.6490 C   0  0  0  0  0  2  0  0  0  0  0  0
   91.6990  101.2020  -41.2770 C   0  0  0  0  0  2  0  0  0  0  0  0
   92.1710  100.6430  -42.4860 O   0  0  0  0  0  0  0  0  0  0  0  0
   93.0680  101.6020  -42.9970 C   0  0  0  0  0  2  0  0  0  0  0  0
   92.2190  102.7360  -43.5340 C   0  0  0  0  0  2  0  0  0  0  0  0
   90.4690  103.6620  -43.1670 H   0  0  0  0  0  0  0  0  0  0  0  0
   88.8890   98.3880  -45.2220 C   0  0  0  0  0  0  0  0  0  0  0  0
   88.0060   97.5640  -45.9370 C   0  0  0  0  0  3  0  0  0  0  0  0
   86.7390   97.2660  -45.5040 C   0  0  0  0  0  0  0  0  0  0  0  0
   86.2890   97.7870  -44.3160 C   0  0  0  0  0  3  0  0  0  0  0  0
   85.5570   96.1420  -46.4980 Br  0  0  0  0  0  0  0  0  0  0  0  0
   87.1340   98.6040  -43.5800 C   0  0  0  0  0  3  0  0  0  0  0  0
   88.4010   98.8820  -44.0470 C   0  0  0  0  0  3  0  0  0  0  0  0
   91.1890   97.1450  -43.9400 C   0  0  1  0  0  3  0  0  0  0  0  0
   90.8970   97.5640  -42.6220 O   0  0  0  0  0  1  0  0  0  0  0  0
   91.3680   95.7240  -44.2330 C   0  0  0  0  0  0  0  0  0  0  0  0
   91.2040   94.9670  -45.7600 S   0  0  0  0  0  0  0  0  0  0  0  0
   91.4940   93.3540  -45.2840 C   0  0  0  0  0  0  0  0  0  0  0  0
   91.6990   93.4790  -43.9860 N   0  0  0  0  0  0  0  0  0  0  0  0
   91.5110   92.1020  -46.1290 C   0  0  0  0  0  1  0  0  0  0  0  0
   91.6420   94.6510  -43.4270 C   0  0  0  0  0  0  0  0  0  0  0  0
   91.8370   94.7830  -41.9220 C   0  0  0  0  0  1  0  0  0  0  0  0
  1 25  1  6  0  0  0
  2 18  1  1  0  0  0
  2  1  1  0  0  0  0
  3  2  1  0  0  0  0
  4  3  1  0  0  0  0
  4  6  1  0  0  0  0
  5  4  2  0  0  0  0
  6  7  2  0  0  0  0
  6  1  1  0  0  0  0
  8  3  1  0  0  0  0
  8  9  1  0  0  0  0
  9 10  1  0  0  0  0
 10 11  1  0  0  0  0
 11 12  1  0  0  0  0
 12 13  1  0  0  0  0
 14 13  1  0  0  0  0
 15 14  1  0  0  0  0
 16 11  1  0  0  0  0
 16 15  1  0  0  0  0
 17 11  1  0  0  0  0
 18 24  1  0  0  0  0
 19 20  1  0  0  0  0
 19 18  2  0  0  0  0
 20 21  2  0  0  0  0
 21 23  1  0  0  0  0
 22 20  1  0  0  0  0
 24 23  2  0  0  0  0
 25 26  1  6  0  0  0
 27 25  1  0  0  0  0
 27 32  2  0  0  0  0
 28 29  1  0  0  0  0
 28 27  1  0  0  0  0
 29 30  2  0  0  0  0
 30 32  1  0  0  0  0
 31 29  1  0  0  0  0
 32 33  1  0  0  0  0
M  END
>  <Pose>
1

>  <Score>
-6.174

$$$$
