/Users/jonathanwahrer/Desktop/Msc/3_Semester/Drug_Design_Praktikum/waehrer_HTS_screening/HTS_experiment/out/docking_results/vina_output/4agl/1178_docked.pdbqt
 OpenBabel03212200033D

 33 36  0  0  1  0  0  0  0  0999 V2000
   91.3450   98.4630  -44.6730 C   0  0  1  0  0  3  0  0  0  0  0  0
   90.3830   99.5190  -45.1160 C   0  0  1  0  0  3  0  0  0  0  0  0
   90.7090   99.6760  -46.5090 N   0  0  0  0  0  0  0  0  0  0  0  0
   92.1280   99.4870  -46.5900 C   0  0  0  0  0  0  0  0  0  0  0  0
   92.8730   99.9070  -47.4940 O   0  0  0  0  0  0  0  0  0  0  0  0
   92.5630   98.7180  -45.4320 C   0  0  0  0  0  0  0  0  0  0  0  0
   93.7090   98.3240  -45.0840 O   0  0  0  0  0  0  0  0  0  0  0  0
   89.7750   99.9820  -47.5510 C   0  0  0  0  0  2  0  0  0  0  0  0
   89.6850   98.9920  -48.6360 C   0  0  0  0  0  3  0  0  0  0  0  0
   88.3830   98.5270  -49.0380 C   0  0  0  0  0  3  0  0  0  0  0  0
   88.0360   97.4860  -49.8830 N   0  0  0  0  0  4  0  0  0  0  0  0
   86.6680   96.9500  -49.5330 C   0  0  0  0  0  2  0  0  0  0  0  0
   86.7870   96.0390  -48.3560 C   0  0  0  0  0  2  0  0  0  0  0  0
   87.4820   94.9110  -48.7750 O   0  0  0  0  0  0  0  0  0  0  0  0
   88.8120   95.3450  -48.9740 C   0  0  0  0  0  2  0  0  0  0  0  0
   88.8810   96.3610  -50.0810 C   0  0  0  0  0  2  0  0  0  0  0  0
   87.8410   97.8590  -50.8440 H   0  0  0  0  0  0  0  0  0  0  0  0
   88.9970   99.1250  -44.8250 C   0  0  0  0  0  0  0  0  0  0  0  0
   88.3450   98.0210  -45.3020 C   0  0  0  0  0  3  0  0  0  0  0  0
   87.0420   97.6900  -45.0070 C   0  0  0  0  0  3  0  0  0  0  0  0
   86.3280   98.5150  -44.1750 C   0  0  0  0  0  0  0  0  0  0  0  0
   86.9250   99.6380  -43.6650 C   0  0  0  0  0  3  0  0  0  0  0  0
   84.5150   98.0500  -43.7650 Br  0  0  0  0  0  0  0  0  0  0  0  0
   88.2300   99.9390  -43.9800 C   0  0  0  0  0  3  0  0  0  0  0  0
   91.1070   97.5630  -43.7660 C   0  0  1  0  0  3  0  0  0  0  0  0
   90.7040   97.9700  -42.4820 O   0  0  0  0  0  1  0  0  0  0  0  0
   91.2550   96.1230  -44.0710 C   0  0  0  0  0  0  0  0  0  0  0  0
   91.1180   95.3130  -45.5740 S   0  0  0  0  0  0  0  0  0  0  0  0
   91.4940   93.7350  -45.0540 C   0  0  0  0  0  0  0  0  0  0  0  0
   91.7070   93.9030  -43.7650 N   0  0  0  0  0  0  0  0  0  0  0  0
   91.5740   92.4500  -45.8330 C   0  0  0  0  0  1  0  0  0  0  0  0
   91.5960   95.0850  -43.2380 C   0  0  0  0  0  0  0  0  0  0  0  0
   91.8780   95.3250  -41.7580 C   0  0  0  0  0  1  0  0  0  0  0  0
  1 25  1  1  0  0  0
  2 18  1  6  0  0  0
  2  1  1  0  0  0  0
  3  2  1  0  0  0  0
  4  3  1  0  0  0  0
  4  6  1  0  0  0  0
  5  4  2  0  0  0  0
  6  7  2  0  0  0  0
  6  1  1  0  0  0  0
  8  3  1  0  0  0  0
  9  8  1  0  0  0  0
 10  9  2  0  0  0  0
 11 12  1  0  0  0  0
 11 10  1  0  0  0  0
 12 13  1  0  0  0  0
 14 13  1  0  0  0  0
 15 14  1  0  0  0  0
 16 11  1  0  0  0  0
 16 15  1  0  0  0  0
 17 11  1  0  0  0  0
 18 24  1  0  0  0  0
 19 20  1  0  0  0  0
 19 18  2  0  0  0  0
 20 21  2  0  0  0  0
 21 23  1  0  0  0  0
 21 22  1  0  0  0  0
 24 22  2  0  0  0  0
 25 26  1  6  0  0  0
 27 25  1  0  0  0  0
 27 32  2  0  0  0  0
 28 29  1  0  0  0  0
 28 27  1  0  0  0  0
 29 30  2  0  0  0  0
 30 32  1  0  0  0  0
 31 29  1  0  0  0  0
 32 33  1  0  0  0  0
M  END
>  <Pose>
1

>  <Score>
-5.619

$$$$
