/Users/jonathanwahrer/Desktop/Msc/3_Semester/Drug_Design_Praktikum/waehrer_HTS_screening/HTS_experiment/out/docking_results/vina_output/4agl/1192_docked.pdbqt
 OpenBabel03212200043D

 27 30  0  0  1  0  0  0  0  0999 V2000
   89.5780  100.3550  -42.6060 S   0  0  0  0  0  0  0  0  0  0  0  0
   89.9870   99.5120  -44.0460 C   0  0  0  0  0  0  0  0  0  0  0  0
   91.1880  100.0730  -44.3870 C   0  0  0  0  0  0  0  0  0  0  0  0
   91.6740  101.0330  -43.5850 C   0  0  0  0  0  0  0  0  0  0  0  0
   90.9300  101.3760  -42.4880 C   0  0  0  0  0  0  0  0  0  0  0  0
   91.4900  102.4510  -41.6040 C   0  0  0  0  0  2  0  0  0  0  0  0
   92.8420  102.0530  -41.2160 N   0  0  0  0  0  4  0  0  0  0  0  0
   93.6830  101.7430  -42.3300 C   0  0  0  0  0  2  0  0  0  0  0  0
   92.9550  101.8500  -43.6650 C   0  0  0  0  0  2  0  0  0  0  0  0
   92.6810  100.8280  -40.4310 C   0  0  0  0  0  1  0  0  0  0  0  0
   91.7910   99.5210  -45.6320 C   0  0  0  0  0  0  0  0  0  0  0  0
   92.9020   99.9520  -46.0590 O   0  0  0  0  0  0  0  0  0  0  0  0
   91.0960   98.5000  -46.3320 N   0  0  0  0  0  0  0  0  0  0  0  0
   90.1070   97.6420  -45.7500 C   0  0  2  0  0  3  0  0  0  0  0  0
   89.3500   98.4690  -44.8230 N   0  0  0  0  0  0  0  0  0  0  0  0
   93.2470  102.7530  -40.5630 H   0  0  0  0  0  0  0  0  0  0  0  0
   91.3380   98.3790  -47.3560 H   0  0  0  0  0  0  0  0  0  0  0  0
   88.3270   98.3470  -44.6780 H   0  0  0  0  0  0  0  0  0  0  0  0
   90.7000   96.4960  -45.0180 C   0  0  0  0  0  0  0  0  0  0  0  0
   91.0950   96.5980  -43.7000 C   0  0  0  0  0  3  0  0  0  0  0  0
   91.6460   95.5450  -43.0050 C   0  0  0  0  0  0  0  0  0  0  0  0
   91.8220   94.3280  -43.6310 C   0  0  0  0  0  0  0  0  0  0  0  0
   92.1840   95.6980  -41.1940 Br  0  0  0  0  0  0  0  0  0  0  0  0
   91.4360   94.2030  -44.9440 C   0  0  0  0  0  0  0  0  0  0  0  0
   92.3770   93.2630  -42.9360 O   0  0  0  0  0  1  0  0  0  0  0  0
   90.8830   95.2640  -45.6340 C   0  0  0  0  0  3  0  0  0  0  0  0
   91.6990   92.4910  -45.7750 Br  0  0  0  0  0  0  0  0  0  0  0  0
  1  5  1  0  0  0  0
  2  1  1  0  0  0  0
  3  2  2  0  0  0  0
  3  4  1  0  0  0  0
  4  5  2  0  0  0  0
  5  6  1  0  0  0  0
  6  7  1  0  0  0  0
  7 16  1  0  0  0  0
  7 10  1  0  0  0  0
  8  7  1  0  0  0  0
  9  4  1  0  0  0  0
  9  8  1  0  0  0  0
 11  3  1  0  0  0  0
 12 11  2  0  0  0  0
 13 14  1  0  0  0  0
 13 11  1  0  0  0  0
 14 19  1  1  0  0  0
 14 15  1  0  0  0  0
 15 18  1  0  0  0  0
 15  2  1  0  0  0  0
 17 13  1  0  0  0  0
 19 20  1  0  0  0  0
 20 21  2  0  0  0  0
 21 23  1  0  0  0  0
 22 21  1  0  0  0  0
 22 25  1  0  0  0  0
 24 22  2  0  0  0  0
 26 19  2  0  0  0  0
 26 24  1  0  0  0  0
 27 24  1  0  0  0  0
M  END
>  <Pose>
1

>  <Score>
-6.681

$$$$
