/Users/jonathanwahrer/Desktop/Msc/3_Semester/Drug_Design_Praktikum/waehrer_HTS_screening/HTS_experiment/out/docking_results/vina_output/4agl/1193_docked.pdbqt
 OpenBabel03212200043D

 29 32  0  0  1  0  0  0  0  0999 V2000
   91.7720  103.8120  -44.2020 S   0  0  0  0  0  0  0  0  0  0  0  0
   91.1240  102.7400  -43.0430 C   0  0  0  0  0  0  0  0  0  0  0  0
   92.2300  102.3230  -42.3570 C   0  0  0  0  0  0  0  0  0  0  0  0
   93.4270  102.8290  -42.7500 C   0  0  0  0  0  0  0  0  0  0  0  0
   93.4150  103.7120  -43.8010 C   0  0  0  0  0  0  0  0  0  0  0  0
   94.6640  104.3360  -44.3280 C   0  0  0  0  0  2  0  0  0  0  0  0
   95.6700  104.5480  -43.3450 N   0  0  0  0  0  4  0  0  0  0  0  0
   95.4960  103.8750  -42.1030 C   0  0  0  0  0  2  0  0  0  0  0  0
   94.8170  102.5430  -42.1690 C   0  0  0  0  0  2  0  0  0  0  0  0
   97.0000  104.3260  -43.8980 C   0  0  0  0  0  1  0  0  0  0  0  0
   91.9240  101.3600  -41.2550 C   0  0  0  0  0  0  0  0  0  0  0  0
   92.8740  100.8970  -40.5430 O   0  0  0  0  0  0  0  0  0  0  0  0
   90.5870  100.9700  -41.0120 N   0  0  0  0  0  0  0  0  0  0  0  0
   89.6100  100.9760  -42.0790 C   0  0  1  0  0  3  0  0  0  0  0  0
   89.7830  102.2750  -42.7270 N   0  0  0  0  0  0  0  0  0  0  0  0
   95.6540  105.5920  -43.1210 H   0  0  0  0  0  0  0  0  0  0  0  0
   90.2960  100.6750  -40.0540 H   0  0  0  0  0  0  0  0  0  0  0  0
   89.0100  102.9090  -42.9880 H   0  0  0  0  0  0  0  0  0  0  0  0
   89.9780   99.8870  -43.0210 C   0  0  0  0  0  0  0  0  0  0  0  0
   89.7330  100.0110  -44.3720 C   0  0  0  0  0  3  0  0  0  0  0  0
   90.0670   99.0130  -45.2620 C   0  0  0  0  0  0  0  0  0  0  0  0
   90.6650   97.8510  -44.7920 C   0  0  0  0  0  0  0  0  0  0  0  0
   89.7340   99.1720  -47.1320 Br  0  0  0  0  0  0  0  0  0  0  0  0
   90.9220   97.7000  -43.4470 C   0  0  0  0  0  0  0  0  0  0  0  0
   91.0110   96.8290  -45.6730 O   0  0  0  0  0  1  0  0  0  0  0  0
   90.5800   98.7020  -42.5940 C   0  0  0  0  0  3  0  0  0  0  0  0
   91.5180   96.5240  -43.0290 O   0  0  0  0  0  0  0  0  0  0  0  0
   91.8130   96.1780  -41.7130 C   0  0  0  0  0  2  0  0  0  0  0  0
   91.8080   94.6780  -41.5190 C   0  0  0  0  0  1  0  0  0  0  0  0
  1  5  1  0  0  0  0
  1  2  1  0  0  0  0
  2 15  1  0  0  0  0
  2  3  2  0  0  0  0
  3 11  1  0  0  0  0
  4  3  1  0  0  0  0
  4  9  1  0  0  0  0
  5  4  2  0  0  0  0
  6  5  1  0  0  0  0
  6  7  1  0  0  0  0
  7 16  1  0  0  0  0
  7  8  1  0  0  0  0
  9  8  1  0  0  0  0
 10  7  1  0  0  0  0
 11 13  1  0  0  0  0
 11 12  2  0  0  0  0
 13 17  1  0  0  0  0
 14 19  1  6  0  0  0
 14 13  1  0  0  0  0
 15 14  1  0  0  0  0
 18 15  1  0  0  0  0
 19 26  1  0  0  0  0
 20 19  2  0  0  0  0
 21 22  2  0  0  0  0
 21 20  1  0  0  0  0
 22 24  1  0  0  0  0
 23 21  1  0  0  0  0
 24 27  1  0  0  0  0
 24 26  2  0  0  0  0
 25 22  1  0  0  0  0
 27 28  1  0  0  0  0
 28 29  1  0  0  0  0
M  END
>  <Pose>
1

>  <Score>
-5.701

$$$$
