/Users/jonathanwahrer/Desktop/Msc/3_Semester/Drug_Design_Praktikum/waehrer_HTS_screening/HTS_experiment/out/docking_results/vina_output/4agl/1206_docked.pdbqt
 OpenBabel03212200043D

 25 28  0  0  1  0  0  0  0  0999 V2000
   88.6580  100.6900  -42.6450 S   0  0  0  0  0  0  0  0  0  0  0  0
   87.6160   99.9070  -43.9030 C   0  0  2  0  0  3  0  0  0  0  0  0
   88.2600   98.5480  -43.9390 C   0  0  0  0  0  2  0  0  0  0  0  0
   89.6690   98.6110  -43.6960 N   0  0  0  0  0  0  0  0  0  0  0  0
   90.0950   99.6990  -43.0340 C   0  0  2  0  0  3  0  0  0  0  0  0
   91.4250   99.6410  -42.8990 N   0  0  0  0  0  0  0  0  0  0  0  0
   91.8670   98.5020  -43.4790 C   0  0  0  0  0  3  0  0  0  0  0  0
   90.7730   97.8410  -43.9840 C   0  0  0  0  0  0  0  0  0  0  0  0
   87.8110  100.5480  -45.2560 C   0  0  0  0  0  1  0  0  0  0  0  0
   90.8360   96.5820  -44.6890 C   0  0  0  0  0  0  0  0  0  0  0  0
   91.5640   95.5350  -44.0980 C   0  0  0  0  0  3  0  0  0  0  0  0
   91.6310   94.3020  -44.6930 C   0  0  0  0  0  3  0  0  0  0  0  0
   91.0070   94.0110  -45.8800 C   0  0  0  0  0  0  0  0  0  0  0  0
   90.2870   95.0180  -46.4780 C   0  0  0  0  0  3  0  0  0  0  0  0
   90.2170   96.2780  -45.8720 C   0  0  0  0  0  3  0  0  0  0  0  0
   91.1260   92.7130  -46.4300 N   0  0  0  0  0  0  0  0  0  0  0  0
   90.6950   92.4630  -47.5610 O   0  0  0  0  0  0  0  0  0  0  0  0
   91.7230   91.7310  -45.6990 O   0  0  0  0  0  0  0  0  0  0  0  0
   92.2560  100.6020  -42.2580 C   0  0  0  0  0  0  0  0  0  0  0  0
   92.2740  100.7540  -40.8910 C   0  0  0  0  0  3  0  0  0  0  0  0
   93.0700  101.6770  -40.2460 C   0  0  0  0  0  3  0  0  0  0  0  0
   93.8930  102.4980  -40.9850 C   0  0  0  0  0  0  0  0  0  0  0  0
   93.9010  102.3730  -42.3630 C   0  0  0  0  0  3  0  0  0  0  0  0
   95.0110  103.7900  -40.1240 Br  0  0  0  0  0  0  0  0  0  0  0  0
   93.0960  101.4410  -42.9840 C   0  0  0  0  0  3  0  0  0  0  0  0
  2  9  1  6  0  0  0
  2  1  1  0  0  0  0
  3  2  1  0  0  0  0
  3  4  1  0  0  0  0
  4  5  1  0  0  0  0
  5  6  1  0  0  0  0
  5  1  1  1  0  0  0
  6 19  1  0  0  0  0
  7  6  1  0  0  0  0
  8  4  1  0  0  0  0
  8  7  2  0  0  0  0
 10 11  1  0  0  0  0
 10  8  1  0  0  0  0
 12 11  2  0  0  0  0
 13 12  1  0  0  0  0
 14 13  2  0  0  0  0
 14 15  1  0  0  0  0
 15 10  2  0  0  0  0
 16 13  1  0  0  0  0
 16 18  2  0  0  0  0
 17 16  2  0  0  0  0
 19 20  1  0  0  0  0
 20 21  2  0  0  0  0
 22 21  1  0  0  0  0
 22 24  1  0  0  0  0
 23 22  2  0  0  0  0
 25 23  1  0  0  0  0
 25 19  2  0  0  0  0
M  END
>  <Pose>
1

>  <Score>
-6.365

$$$$
