/Users/jonathanwahrer/Desktop/Msc/3_Semester/Drug_Design_Praktikum/waehrer_HTS_screening/HTS_experiment/out/docking_results/vina_output/4agl/1211_docked.pdbqt
 OpenBabel03212200053D

 26 29  0  0  1  0  0  0  0  0999 V2000
   88.4610   99.3240  -42.8000 S   0  0  0  0  0  0  0  0  0  0  0  0
   87.1820  100.3470  -43.6300 C   0  0  0  0  0  2  0  0  0  0  0  0
   87.7050  100.5220  -45.0570 C   0  0  0  0  0  2  0  0  0  0  0  0
   88.9670  101.3750  -44.9870 C   0  0  0  0  0  2  0  0  0  0  0  0
   90.0650  100.4910  -44.6850 N   0  0  1  0  0  0  0  0  0  0  0  0
   89.9490   99.5730  -43.7610 C   0  0  2  0  0  3  0  0  0  0  0  0
   91.2060   98.8470  -43.7140 N   0  0  0  0  0  0  0  0  0  0  0  0
   92.1560   99.9090  -43.9660 C   0  0  2  0  0  0  0  0  0  0  0  0
   91.4080  100.3860  -45.2650 C   0  0  0  0  0  2  0  0  0  0  0  0
   93.4290   99.5180  -44.2360 O   0  0  0  0  0  0  0  0  0  0  0  0
   94.0290  100.3240  -44.1780 H   0  0  0  0  0  0  0  0  0  0  0  0
   92.0100  100.9550  -42.9470 C   0  0  0  0  0  0  0  0  0  0  0  0
   92.0480  102.3070  -43.2420 C   0  0  0  0  0  3  0  0  0  0  0  0
   91.9340  103.2480  -42.2070 C   0  0  0  0  0  3  0  0  0  0  0  0
   91.7880  102.8910  -40.9200 C   0  0  0  0  0  0  0  0  0  0  0  0
   91.7420  101.5220  -40.5850 C   0  0  0  0  0  3  0  0  0  0  0  0
   91.8580  100.6250  -41.6340 C   0  0  0  0  0  3  0  0  0  0  0  0
   91.6720  103.8110  -39.8460 O   0  0  0  0  0  0  0  0  0  0  0  0
   91.1220  103.4000  -38.6120 C   0  0  0  0  0  1  0  0  0  0  0  0
   91.3790   97.4580  -43.5480 C   0  0  0  0  0  0  0  0  0  0  0  0
   91.6370   96.9800  -42.2390 C   0  0  0  0  0  3  0  0  0  0  0  0
   91.8740   95.6400  -41.9860 C   0  0  0  0  0  3  0  0  0  0  0  0
   91.8700   94.7190  -42.9970 C   0  0  0  0  0  0  0  0  0  0  0  0
   91.6220   95.1530  -44.2820 C   0  0  0  0  0  3  0  0  0  0  0  0
   92.2110   92.8640  -42.6990 Br  0  0  0  0  0  0  0  0  0  0  0  0
   91.3800   96.5180  -44.5320 C   0  0  0  0  0  3  0  0  0  0  0  0
  2  1  1  0  0  0  0
  3  4  1  0  0  0  0
  3  2  1  0  0  0  0
  4  5  1  0  0  0  0
  5  9  1  6  0  0  0
  5  6  1  0  0  0  0
  6  7  1  0  0  0  0
  6  1  1  6  0  0  0
  7 20  1  0  0  0  0
  8 10  1  6  0  0  0
  8  7  1  0  0  0  0
  8 12  1  0  0  0  0
  9  8  1  0  0  0  0
 10 11  1  0  0  0  0
 12 17  1  0  0  0  0
 13 12  2  0  0  0  0
 13 14  1  0  0  0  0
 14 15  2  0  0  0  0
 15 16  1  0  0  0  0
 15 18  1  0  0  0  0
 17 16  2  0  0  0  0
 18 19  1  0  0  0  0
 20 21  1  0  0  0  0
 21 22  2  0  0  0  0
 23 25  1  0  0  0  0
 23 22  1  0  0  0  0
 24 23  2  0  0  0  0
 26 24  1  0  0  0  0
 26 20  2  0  0  0  0
M  END
>  <Pose>
1

>  <Score>
-5.796

$$$$
