/Users/jonathanwahrer/Desktop/Msc/3_Semester/Drug_Design_Praktikum/waehrer_HTS_screening/HTS_experiment/out/docking_results/vina_output/4agl/1217_docked.pdbqt
 OpenBabel03212200053D

 28 31  0  0  1  0  0  0  0  0999 V2000
   89.9000  100.1520  -46.4680 S   0  0  0  0  0  0  0  0  0  0  0  0
   91.4220  100.9030  -46.9890 C   0  0  0  0  0  2  0  0  0  0  0  0
   92.5910  100.1720  -46.3600 C   0  0  0  0  0  2  0  0  0  0  0  0
   92.4850  100.2640  -44.8480 C   0  0  0  0  0  2  0  0  0  0  0  0
   91.4510   99.3740  -44.3710 N   0  0  2  0  0  0  0  0  0  0  0  0
   91.4710   98.3150  -43.4150 C   0  0  2  0  0  0  0  0  0  0  0  0
   90.0690   98.4610  -42.8450 C   0  0  0  0  0  2  0  0  0  0  0  0
   89.2860   98.8440  -43.9980 N   0  0  0  0  0  0  0  0  0  0  0  0
   90.0890   99.4070  -44.8330 C   0  0  2  0  0  3  0  0  0  0  0  0
   87.9020   98.6180  -44.2160 C   0  0  0  0  0  0  0  0  0  0  0  0
   87.0160   99.5150  -43.6330 C   0  0  0  0  0  0  0  0  0  0  0  0
   85.6360   99.3440  -43.7810 C   0  0  0  0  0  3  0  0  0  0  0  0
   85.1520   98.2730  -44.5110 C   0  0  0  0  0  3  0  0  0  0  0  0
   86.0000   97.3660  -45.1020 C   0  0  0  0  0  0  0  0  0  0  0  0
   87.3780   97.5950  -44.9160 C   0  0  0  0  0  3  0  0  0  0  0  0
   87.5010  100.5790  -42.9050 O   0  0  0  0  0  0  0  0  0  0  0  0
   87.1800  101.9320  -43.1300 C   0  0  0  0  0  1  0  0  0  0  0  0
   85.5800   96.2760  -45.8440 O   0  0  0  0  0  0  0  0  0  0  0  0
   85.4750   96.2210  -47.2380 C   0  0  0  0  0  1  0  0  0  0  0  0
   92.4340   98.5600  -42.4420 O   0  0  0  0  0  0  0  0  0  0  0  0
   92.5940   99.5280  -42.3580 H   0  0  0  0  0  0  0  0  0  0  0  0
   91.5840   96.9520  -43.9720 C   0  0  0  0  0  0  0  0  0  0  0  0
   91.6780   96.6250  -45.2870 C   0  0  0  0  0  3  0  0  0  0  0  0
   91.7430   95.2940  -45.7060 C   0  0  0  0  0  3  0  0  0  0  0  0
   91.7130   94.2570  -44.7980 C   0  0  0  0  0  0  0  0  0  0  0  0
   91.6190   94.5740  -43.4770 C   0  0  0  0  0  3  0  0  0  0  0  0
   91.7970   92.4340  -45.3880 Br  0  0  0  0  0  0  0  0  0  0  0  0
   91.5550   95.8760  -43.0680 C   0  0  0  0  0  3  0  0  0  0  0  0
  2  1  1  0  0  0  0
  2  3  1  0  0  0  0
  3  4  1  0  0  0  0
  5  4  1  6  0  0  0
  5  6  1  0  0  0  0
  6  7  1  0  0  0  0
  6 20  1  1  0  0  0
  8  7  1  0  0  0  0
  9  1  1  6  0  0  0
  9  5  1  0  0  0  0
  9  8  1  0  0  0  0
 10  8  1  0  0  0  0
 10 11  1  0  0  0  0
 11 16  1  0  0  0  0
 12 11  2  0  0  0  0
 13 12  1  0  0  0  0
 14 15  1  0  0  0  0
 14 13  2  0  0  0  0
 15 10  2  0  0  0  0
 17 16  1  0  0  0  0
 18 14  1  0  0  0  0
 19 18  1  0  0  0  0
 20 21  1  0  0  0  0
 22  6  1  0  0  0  0
 22 28  1  0  0  0  0
 23 22  2  0  0  0  0
 24 23  1  0  0  0  0
 24 25  2  0  0  0  0
 25 26  1  0  0  0  0
 26 28  2  0  0  0  0
 27 25  1  0  0  0  0
M  END
>  <Pose>
1

>  <Score>
-5.866

$$$$
