/Users/jonathanwahrer/Desktop/Msc/3_Semester/Drug_Design_Praktikum/waehrer_HTS_screening/HTS_experiment/out/docking_results/vina_output/4agl/1220_docked.pdbqt
 OpenBabel03212200053D

 27 30  0  0  1  0  0  0  0  0999 V2000
   88.7710  101.7440  -43.1250 S   0  0  0  0  0  0  0  0  0  0  0  0
   87.2920  100.6790  -42.8820 C   0  0  0  0  0  2  0  0  0  0  0  0
   87.5150   99.2730  -43.2490 C   0  0  0  0  0  2  0  0  0  0  0  0
   88.7370   98.8960  -43.9810 C   0  0  0  0  0  2  0  0  0  0  0  0
   89.9740   99.3570  -43.4980 N   0  0  1  0  0  0  0  0  0  0  0  0
   91.3150   98.8590  -43.5510 C   0  0  2  0  0  0  0  0  0  0  0  0
   91.8470   99.3460  -42.2210 C   0  0  0  0  0  2  0  0  0  0  0  0
   91.1580  100.6100  -42.0730 N   0  0  0  0  0  0  0  0  0  0  0  0
   90.1230  100.6040  -42.7730 C   0  0  1  0  0  3  0  0  0  0  0  0
   92.0240   99.5510  -44.5360 O   0  0  0  0  0  0  0  0  0  0  0  0
   92.5630   98.9200  -45.0400 H   0  0  0  0  0  0  0  0  0  0  0  0
   91.4630   97.3980  -43.6990 C   0  0  0  0  0  0  0  0  0  0  0  0
   91.6360   96.6550  -42.5360 C   0  0  0  0  0  3  0  0  0  0  0  0
   91.7800   95.2860  -42.5720 C   0  0  0  0  0  3  0  0  0  0  0  0
   91.7590   94.5820  -43.7630 C   0  0  0  0  0  0  0  0  0  0  0  0
   91.5850   95.3160  -44.9210 C   0  0  0  0  0  3  0  0  0  0  0  0
   91.4400   96.7060  -44.8820 C   0  0  0  0  0  3  0  0  0  0  0  0
   91.9070   93.1750  -43.7730 N   0  0  0  0  0  0  0  0  0  0  0  0
   91.7900   92.4820  -44.7900 O   0  0  0  0  0  0  0  0  0  0  0  0
   92.2010   92.5300  -42.5980 O   0  0  0  0  0  0  0  0  0  0  0  0
   91.6090  101.7010  -41.2630 C   0  0  0  0  0  0  0  0  0  0  0  0
   92.2710  102.7540  -41.8790 C   0  0  0  0  0  3  0  0  0  0  0  0
   92.7570  103.8380  -41.1520 C   0  0  0  0  0  3  0  0  0  0  0  0
   92.5940  103.8960  -39.7860 C   0  0  0  0  0  0  0  0  0  0  0  0
   91.9410  102.8610  -39.1610 C   0  0  0  0  0  3  0  0  0  0  0  0
   93.2820  105.3880  -38.7860 Br  0  0  0  0  0  0  0  0  0  0  0  0
   91.4640  101.7830  -39.9180 C   0  0  0  0  0  3  0  0  0  0  0  0
  1  2  1  0  0  0  0
  3  2  1  0  0  0  0
  4  3  1  0  0  0  0
  5  4  1  6  0  0  0
  5  9  1  0  0  0  0
  6 10  1  6  0  0  0
  6  5  1  0  0  0  0
  6  7  1  0  0  0  0
  7  8  1  0  0  0  0
  8 21  1  0  0  0  0
  9  1  1  6  0  0  0
  9  8  1  0  0  0  0
 11 10  1  0  0  0  0
 12  6  1  0  0  0  0
 12 13  1  0  0  0  0
 14 13  2  0  0  0  0
 15 14  1  0  0  0  0
 16 17  1  0  0  0  0
 16 15  2  0  0  0  0
 17 12  2  0  0  0  0
 18 15  1  0  0  0  0
 18 20  2  0  0  0  0
 19 18  2  0  0  0  0
 21 27  1  0  0  0  0
 22 21  2  0  0  0  0
 22 23  1  0  0  0  0
 23 24  2  0  0  0  0
 24 25  1  0  0  0  0
 24 26  1  0  0  0  0
 27 25  2  0  0  0  0
M  END
>  <Pose>
1

>  <Score>
-6.139

$$$$
