/Users/jonathanwahrer/Desktop/Msc/3_Semester/Drug_Design_Praktikum/waehrer_HTS_screening/HTS_experiment/out/docking_results/vina_output/4agl/1222_docked.pdbqt
 OpenBabel03212200053D

 24 27  0  0  1  0  0  0  0  0999 V2000
   87.9480   98.9420  -43.6720 S   0  0  0  0  0  0  0  0  0  0  0  0
   86.9320   99.4280  -45.1380 C   0  0  0  0  0  2  0  0  0  0  0  0
   87.5930  100.5620  -45.8790 C   0  0  0  0  0  2  0  0  0  0  0  0
   88.4440  101.4530  -45.0000 C   0  0  0  0  0  2  0  0  0  0  0  0
   89.6470  100.8600  -44.5640 N   0  0  1  0  0  0  0  0  0  0  0  0
   91.0570  101.1990  -44.3060 C   0  0  1  0  0  0  0  0  0  0  0  0
   91.6700   99.9040  -44.7830 C   0  0  0  0  0  2  0  0  0  0  0  0
   90.7490   98.9270  -44.2230 N   0  0  0  0  0  0  0  0  0  0  0  0
   89.6190   99.4550  -44.1900 C   0  0  1  0  0  3  0  0  0  0  0  0
   91.5030  102.2460  -45.0530 O   0  0  0  0  0  0  0  0  0  0  0  0
   92.1430  102.0260  -45.7740 H   0  0  0  0  0  0  0  0  0  0  0  0
   91.3020  101.3560  -42.8340 C   0  0  0  0  0  0  0  0  0  0  0  0
   90.3710  101.9050  -41.9730 C   0  0  0  0  0  3  0  0  0  0  0  0
   90.6750  102.0070  -40.6210 C   0  0  0  0  0  3  0  0  0  0  0  0
   91.8830  101.5770  -40.0890 C   0  0  0  0  0  3  0  0  0  0  0  0
   92.8100  101.0320  -40.9350 C   0  0  0  0  0  3  0  0  0  0  0  0
   92.5090  100.9310  -42.2930 C   0  0  0  0  0  3  0  0  0  0  0  0
   91.1140   97.6170  -43.7370 C   0  0  0  0  0  0  0  0  0  0  0  0
   91.4730   97.3270  -42.4580 C   0  0  0  0  0  3  0  0  0  0  0  0
   91.8620   96.0600  -42.0420 C   0  0  0  0  0  3  0  0  0  0  0  0
   91.8940   95.0320  -42.9470 C   0  0  0  0  0  0  0  0  0  0  0  0
   91.5290   95.3220  -44.2480 C   0  0  0  0  0  3  0  0  0  0  0  0
   92.4220   93.2500  -42.4650 Br  0  0  0  0  0  0  0  0  0  0  0  0
   91.1470   96.5700  -44.6550 C   0  0  0  0  0  3  0  0  0  0  0  0
  2  1  1  0  0  0  0
  3  2  1  0  0  0  0
  3  4  1  0  0  0  0
  5  4  1  1  0  0  0
  5  6  1  0  0  0  0
  5  9  1  0  0  0  0
  6 10  1  6  0  0  0
  6 12  1  0  0  0  0
  7  6  1  0  0  0  0
  7  8  1  0  0  0  0
  8  9  1  0  0  0  0
  8 18  1  0  0  0  0
  9  1  1  1  0  0  0
 11 10  1  0  0  0  0
 12 17  2  0  0  0  0
 12 13  1  0  0  0  0
 13 14  2  0  0  0  0
 14 15  1  0  0  0  0
 16 15  2  0  0  0  0
 17 16  1  0  0  0  0
 18 19  1  0  0  0  0
 19 20  2  0  0  0  0
 21 23  1  0  0  0  0
 21 20  1  0  0  0  0
 22 21  2  0  0  0  0
 24 22  1  0  0  0  0
 24 18  2  0  0  0  0
M  END
>  <Pose>
1

>  <Score>
-5.441

$$$$
