/Users/jonathanwahrer/Desktop/Msc/3_Semester/Drug_Design_Praktikum/waehrer_HTS_screening/HTS_experiment/out/docking_results/vina_output/4agl/1224_docked.pdbqt
 OpenBabel03212200063D

 26 29  0  0  1  0  0  0  0  0999 V2000
   88.4600   98.9310  -43.2920 S   0  0  0  0  0  0  0  0  0  0  0  0
   87.4530   99.7110  -44.6200 C   0  0  0  0  0  2  0  0  0  0  0  0
   87.8830  101.1700  -44.6410 C   0  0  0  0  0  2  0  0  0  0  0  0
   89.2780  101.3360  -45.1570 C   0  0  0  0  0  2  0  0  0  0  0  0
   90.2940  100.7370  -44.3470 N   0  0  2  0  0  0  0  0  0  0  0  0
   91.6410  101.1120  -43.9080 C   0  0  1  0  0  0  0  0  0  0  0  0
   92.2880   99.7270  -44.0980 C   0  0  0  0  0  2  0  0  0  0  0  0
   91.2610   98.8540  -43.5600 N   0  0  0  0  0  0  0  0  0  0  0  0
   90.1420   99.4350  -43.7200 C   0  0  1  0  0  3  0  0  0  0  0  0
   92.1760  102.0360  -44.7750 O   0  0  0  0  0  0  0  0  0  0  0  0
   91.7760  102.9320  -44.6780 H   0  0  0  0  0  0  0  0  0  0  0  0
   91.6930  101.4970  -42.4860 C   0  0  0  0  0  0  0  0  0  0  0  0
   92.6030  101.0340  -41.5620 C   0  0  0  0  0  3  0  0  0  0  0  0
   92.5720  101.4680  -40.2470 C   0  0  0  0  0  3  0  0  0  0  0  0
   91.6300  102.3690  -39.8420 C   0  0  0  0  0  0  0  0  0  0  0  0
   90.7110  102.8420  -40.7530 C   0  0  0  0  0  3  0  0  0  0  0  0
   91.5310  103.0090  -38.0320 Br  0  0  0  0  0  0  0  0  0  0  0  0
   90.7530  102.4040  -42.0530 C   0  0  0  0  0  3  0  0  0  0  0  0
   91.5620   97.5700  -42.9690 C   0  0  0  0  0  0  0  0  0  0  0  0
   91.4540   96.4130  -43.7350 C   0  0  0  0  0  3  0  0  0  0  0  0
   91.7300   95.1740  -43.2000 C   0  0  0  0  0  3  0  0  0  0  0  0
   92.1240   95.0040  -41.8900 C   0  0  0  0  0  0  0  0  0  0  0  0
   92.2320   96.1410  -41.1260 C   0  0  0  0  0  3  0  0  0  0  0  0
   91.9500   97.4020  -41.6750 C   0  0  0  0  0  3  0  0  0  0  0  0
   92.3970   93.7380  -41.3840 O   0  0  0  0  0  0  0  0  0  0  0  0
   93.4990   92.9460  -41.7250 C   0  0  0  0  0  1  0  0  0  0  0  0
  2  1  1  0  0  0  0
  3  2  1  0  0  0  0
  4  3  1  0  0  0  0
  5  4  1  6  0  0  0
  5  6  1  0  0  0  0
  5  9  1  0  0  0  0
  6 10  1  6  0  0  0
  6 12  1  0  0  0  0
  7  6  1  0  0  0  0
  7  8  1  0  0  0  0
  8 19  1  0  0  0  0
  9  8  1  0  0  0  0
  9  1  1  1  0  0  0
 10 11  1  0  0  0  0
 12 18  2  0  0  0  0
 12 13  1  0  0  0  0
 13 14  2  0  0  0  0
 14 15  1  0  0  0  0
 15 17  1  0  0  0  0
 16 15  2  0  0  0  0
 18 16  1  0  0  0  0
 19 24  1  0  0  0  0
 20 21  1  0  0  0  0
 20 19  2  0  0  0  0
 21 22  2  0  0  0  0
 22 25  1  0  0  0  0
 22 23  1  0  0  0  0
 24 23  2  0  0  0  0
 26 25  1  0  0  0  0
M  END
>  <Pose>
1

>  <Score>
-5.722

$$$$
