/Users/jonathanwahrer/Desktop/Msc/3_Semester/Drug_Design_Praktikum/waehrer_HTS_screening/HTS_experiment/out/docking_results/vina_output/4agl/1231_docked.pdbqt
 OpenBabel03212200063D

 37 40  0  0  0  0  0  0  0  0999 V2000
   91.3940   98.0820  -44.6830 C   0  0  0  0  0  0  0  0  0  0  0  0
   91.6710   98.5840  -43.4730 N   0  0  0  0  0  0  0  0  0  0  0  0
   91.6960   97.5270  -42.6420 N   0  0  0  0  0  0  0  0  0  0  0  0
   91.4550   96.4340  -43.2710 N   0  0  0  0  0  0  0  0  0  0  0  0
   91.2460   96.6930  -44.6120 C   0  0  0  0  0  0  0  0  0  0  0  0
   90.9660   95.6770  -45.5930 C   0  0  0  0  0  0  0  0  0  0  0  0
   90.2200   96.0250  -46.5910 O   0  0  0  0  0  0  0  0  0  0  0  0
   91.3930   94.3530  -45.6160 N   0  0  0  0  0  0  0  0  0  0  0  0
   91.9840   93.8510  -44.9310 H   0  0  0  0  0  0  0  0  0  0  0  0
   91.0000   93.4940  -46.7020 N   0  0  0  0  0  0  0  0  0  0  0  0
   91.4840   92.3240  -46.8440 C   0  0  0  0  0  3  0  0  0  0  0  0
   91.1130   91.4250  -47.9270 C   0  0  0  0  0  0  0  0  0  0  0  0
   90.1580   91.7670  -48.8580 C   0  0  0  0  0  3  0  0  0  0  0  0
   89.8010   90.9290  -49.8940 C   0  0  0  0  0  0  0  0  0  0  0  0
   90.3900   89.7000  -50.0390 C   0  0  0  0  0  0  0  0  0  0  0  0
   88.4700   91.4500  -51.1630 Br  0  0  0  0  0  0  0  0  0  0  0  0
   91.3680   89.3170  -49.1070 C   0  0  0  0  0  0  0  0  0  0  0  0
   90.0150   88.8730  -51.0870 O   0  0  0  0  0  1  0  0  0  0  0  0
   91.7030   90.1770  -48.0840 C   0  0  0  0  0  3  0  0  0  0  0  0
   91.9180   88.0730  -49.3110 O   0  0  0  0  0  0  0  0  0  0  0  0
   91.3600   86.8500  -48.8960 C   0  0  0  0  0  1  0  0  0  0  0  0
   91.2820   98.8260  -45.9480 C   0  0  0  0  0  2  0  0  0  0  0  0
   89.7370   99.6500  -46.2730 S   0  0  0  0  0  0  0  0  0  0  0  0
   88.4040   99.0540  -45.2410 C   0  0  0  0  0  0  0  0  0  0  0  0
   87.2830   97.7590  -45.7720 S   0  0  0  0  0  0  0  0  0  0  0  0
   86.1560   97.9010  -44.3520 C   0  0  0  0  0  2  0  0  0  0  0  0
   86.9730   98.7870  -43.4670 C   0  0  0  0  0  2  0  0  0  0  0  0
   88.0400   99.3740  -44.1010 N   0  0  0  0  0  0  0  0  0  0  0  0
   91.9400   99.9100  -43.0240 C   0  0  0  0  0  0  0  0  0  0  0  0
   93.0180  100.6790  -43.2790 N   0  0  0  0  0  0  0  0  0  0  0  0
   92.9260  101.8350  -42.7370 O   0  0  0  0  0  0  0  0  0  0  0  0
   91.7970  101.8920  -42.1040 N   0  0  0  0  0  0  0  0  0  0  0  0
   91.1280  100.7090  -42.2470 C   0  0  0  0  0  0  0  0  0  0  0  0
   89.8550  100.3940  -41.7200 N   0  0  0  0  0  4  0  0  0  0  0  0
   89.7110   99.3550  -41.8190 H   0  0  0  0  0  0  0  0  0  0  0  0
   89.0680  100.9080  -42.1530 H   0  0  0  0  0  0  0  0  0  0  0  0
   89.8600  100.5880  -40.6810 H   0  0  0  0  0  0  0  0  0  0  0  0
  1  5  2  0  0  0  0
  1  2  1  0  0  0  0
  2 29  1  0  0  0  0
  2  3  1  0  0  0  0
  4  3  2  0  0  0  0
  5  4  1  0  0  0  0
  6  5  1  0  0  0  0
  7  6  2  0  0  0  0
  8  6  1  0  0  0  0
  8  9  1  0  0  0  0
 10  8  1  0  0  0  0
 11 10  2  0  0  0  0
 12 11  1  0  0  0  0
 13 12  2  0  0  0  0
 14 13  1  0  0  0  0
 15 14  2  0  0  0  0
 15 17  1  0  0  0  0
 16 14  1  0  0  0  0
 17 19  2  0  0  0  0
 18 15  1  0  0  0  0
 19 12  1  0  0  0  0
 20 17  1  0  0  0  0
 20 21  1  0  0  0  0
 22  1  1  0  0  0  0
 23 22  1  0  0  0  0
 23 24  1  0  0  0  0
 24 28  2  0  0  0  0
 25 24  1  0  0  0  0
 25 26  1  0  0  0  0
 26 27  1  0  0  0  0
 28 27  1  0  0  0  0
 29 33  1  0  0  0  0
 30 29  2  0  0  0  0
 30 31  1  0  0  0  0
 31 32  1  0  0  0  0
 33 32  2  0  0  0  0
 33 34  1  0  0  0  0
 34 37  1  0  0  0  0
 35 34  1  0  0  0  0
 36 34  1  0  0  0  0
M  END
>  <Pose>
1

>  <Score>
-6.065

$$$$
