/Users/jonathanwahrer/Desktop/Msc/3_Semester/Drug_Design_Praktikum/waehrer_HTS_screening/HTS_experiment/out/docking_results/vina_output/4agl/1256_docked.pdbqt
 OpenBabel03212200083D

 30 33  0  0  0  0  0  0  0  0999 V2000
   87.8910  100.9800  -42.4950 S   0  0  0  0  0  0  0  0  0  0  0  0
   87.3350   99.8510  -43.6560 C   0  0  0  0  0  0  0  0  0  0  0  0
   86.1110   99.5570  -44.1950 N   0  0  0  0  0  0  0  0  0  0  0  0
   85.9770   98.6130  -45.1410 C   0  0  0  0  0  0  0  0  0  0  0  0
   84.9080   98.2810  -45.6860 O   0  0  0  0  0  0  0  0  0  0  0  0
   87.1430   97.9850  -45.5080 C   0  0  0  0  0  3  0  0  0  0  0  0
   88.3660   98.2710  -44.9770 C   0  0  0  0  0  0  0  0  0  0  0  0
   88.4710   99.2430  -44.0120 N   0  0  0  0  0  0  0  0  0  0  0  0
   89.5530   99.6270  -43.4530 N   0  0  0  0  0  0  0  0  0  0  0  0
   89.5690  100.5760  -42.5610 C   0  0  0  0  0  0  0  0  0  0  0  0
   89.5190   97.5250  -45.4790 C   0  0  0  0  0  0  0  0  0  0  0  0
   89.4880   97.0520  -46.6740 O   0  0  0  0  0  0  0  0  0  0  0  0
   90.6930   97.2680  -44.7420 N   0  0  0  0  0  0  0  0  0  0  0  0
   90.7990   97.5920  -43.7620 H   0  0  0  0  0  0  0  0  0  0  0  0
   91.7850   96.5220  -45.3570 C   0  0  0  0  0  2  0  0  0  0  0  0
   91.7580   95.1030  -44.9260 C   0  0  0  0  0  0  0  0  0  0  0  0
   91.8140   94.8060  -43.5730 C   0  0  0  0  0  0  0  0  0  0  0  0
   91.8320   93.4960  -43.1670 C   0  0  0  0  0  3  0  0  0  0  0  0
   91.7970   92.4550  -44.0570 C   0  0  0  0  0  3  0  0  0  0  0  0
   91.7410   92.7410  -45.4080 C   0  0  0  0  0  0  0  0  0  0  0  0
   91.7220   94.0650  -45.8150 C   0  0  0  0  0  3  0  0  0  0  0  0
   91.6840   91.3500  -46.7140 Br  0  0  0  0  0  0  0  0  0  0  0  0
   91.8490   95.8600  -42.6880 O   0  0  0  0  0  0  0  0  0  0  0  0
   91.8400   95.5690  -41.2900 C   0  0  0  0  0  1  0  0  0  0  0  0
   90.6780  101.1600  -41.8380 N   0  0  0  0  0  0  0  0  0  0  0  0
   91.9830  100.6370  -41.9790 C   0  0  0  0  0  2  0  0  0  0  0  0
   92.9390  101.3550  -41.0550 C   0  0  0  0  0  2  0  0  0  0  0  0
   92.3140  101.5930  -39.8280 O   0  0  0  0  0  0  0  0  0  0  0  0
   91.3550  102.6050  -39.9630 C   0  0  0  0  0  2  0  0  0  0  0  0
   90.3360  102.2640  -41.0060 C   0  0  0  0  0  2  0  0  0  0  0  0
  2  1  1  0  0  0  0
  3  2  2  0  0  0  0
  4  3  1  0  0  0  0
  5  4  2  0  0  0  0
  6  4  1  0  0  0  0
  6  7  2  0  0  0  0
  7  8  1  0  0  0  0
  8  2  1  0  0  0  0
  8  9  1  0  0  0  0
  9 10  2  0  0  0  0
 10  1  1  0  0  0  0
 10 25  1  0  0  0  0
 11  7  1  0  0  0  0
 11 13  1  0  0  0  0
 12 11  2  0  0  0  0
 13 14  1  0  0  0  0
 15 16  1  0  0  0  0
 15 13  1  0  0  0  0
 16 17  1  0  0  0  0
 17 18  2  0  0  0  0
 17 23  1  0  0  0  0
 19 18  1  0  0  0  0
 20 19  2  0  0  0  0
 21 20  1  0  0  0  0
 21 16  2  0  0  0  0
 22 20  1  0  0  0  0
 23 24  1  0  0  0  0
 25 30  1  0  0  0  0
 26 25  1  0  0  0  0
 26 27  1  0  0  0  0
 27 28  1  0  0  0  0
 29 28  1  0  0  0  0
 30 29  1  0  0  0  0
M  END
>  <Pose>
1

>  <Score>
-6.323

$$$$
