/Users/jonathanwahrer/Desktop/Msc/3_Semester/Drug_Design_Praktikum/waehrer_HTS_screening/HTS_experiment/out/docking_results/vina_output/4agl/1266_docked.pdbqt
 OpenBabel03212200083D

 28 31  0  0  1  0  0  0  0  0999 V2000
   91.0830   97.0790  -44.7920 C   0  0  2  0  0  3  0  0  0  0  0  0
   92.3820   97.3130  -45.4100 N   0  0  0  0  0  0  0  0  0  0  0  0
   92.9050   98.5980  -45.4310 C   0  0  0  0  0  2  0  0  0  0  0  0
   92.4760   99.5910  -44.3710 C   0  0  0  0  0  2  0  0  0  0  0  0
   91.2020   99.3450  -43.8520 N   0  0  0  0  0  0  0  0  0  0  0  0
   90.4020   98.3260  -44.4630 C   0  0  0  0  0  2  0  0  0  0  0  0
   90.5990  100.0110  -42.7540 C   0  0  0  0  0  0  0  0  0  0  0  0
   89.3410   99.6650  -42.6030 O   0  0  0  0  0  0  0  0  0  0  0  0
   93.0650   96.5920  -45.1030 H   0  0  0  0  0  0  0  0  0  0  0  0
   91.0750  100.9490  -41.8030 C   0  0  0  0  0  0  0  0  0  0  0  0
   90.1830  101.9720  -41.4000 C   0  0  0  0  0  3  0  0  0  0  0  0
   90.4980  102.8140  -40.4170 N   0  0  0  0  0  0  0  0  0  0  0  0
   91.6610  102.7360  -39.7680 C   0  0  0  0  0  0  0  0  0  0  0  0
   92.5640  101.7670  -40.1130 C   0  0  0  0  0  0  0  0  0  0  0  0
   91.9750  103.6310  -38.7400 O   0  0  0  0  0  0  0  0  0  0  0  0
   92.2740  100.8680  -41.1360 C   0  0  0  0  0  3  0  0  0  0  0  0
   93.8000  101.6510  -39.4010 N   0  0  0  0  0  0  0  0  0  0  0  0
   94.0600  102.5640  -38.3340 C   0  0  0  0  0  0  0  0  0  0  0  0
   94.4960  100.9270  -39.6350 H   0  0  0  0  0  0  0  0  0  0  0  0
   94.8380  102.3350  -37.3850 O   0  0  0  0  0  0  0  0  0  0  0  0
   93.3420  103.8760  -38.3710 C   0  0  0  0  0  2  0  0  0  0  0  0
   91.3860   96.2090  -43.6010 C   0  0  0  0  0  0  0  0  0  0  0  0
   91.5300   94.8300  -43.8230 C   0  0  0  0  0  0  0  0  0  0  0  0
   91.1810   94.2330  -45.4590 Cl  0  0  0  0  0  0  0  0  0  0  0  0
   91.9190   93.9450  -42.8410 C   0  0  0  0  0  3  0  0  0  0  0  0
   92.1850   94.4270  -41.5640 C   0  0  0  0  0  3  0  0  0  0  0  0
   92.0430   95.7870  -41.3470 C   0  0  0  0  0  3  0  0  0  0  0  0
   91.6520   96.6650  -42.3430 C   0  0  0  0  0  3  0  0  0  0  0  0
  1  6  1  0  0  0  0
  1 22  1  1  0  0  0
  2  9  1  0  0  0  0
  2  1  1  0  0  0  0
  3  2  1  0  0  0  0
  3  4  1  0  0  0  0
  4  5  1  0  0  0  0
  5  7  1  0  0  0  0
  6  5  1  0  0  0  0
  7  8  2  0  0  0  0
  7 10  1  0  0  0  0
 10 11  2  0  0  0  0
 10 16  1  0  0  0  0
 11 12  1  0  0  0  0
 12 13  2  0  0  0  0
 13 15  1  0  0  0  0
 14 13  1  0  0  0  0
 14 17  1  0  0  0  0
 15 21  1  0  0  0  0
 16 14  2  0  0  0  0
 17 18  1  0  0  0  0
 18 20  2  0  0  0  0
 19 17  1  0  0  0  0
 21 18  1  0  0  0  0
 22 28  1  0  0  0  0
 23 22  2  0  0  0  0
 23 25  1  0  0  0  0
 24 23  1  0  0  0  0
 25 26  2  0  0  0  0
 26 27  1  0  0  0  0
 28 27  2  0  0  0  0
M  END
>  <Pose>
1

>  <Score>
-7.777

$$$$
