/Users/jonathanwahrer/Desktop/Msc/3_Semester/Drug_Design_Praktikum/waehrer_HTS_screening/HTS_experiment/out/docking_results/vina_output/4agl/1271_docked.pdbqt
 OpenBabel03212200083D

 35 38  0  0  0  0  0  0  0  0999 V2000
   88.3450   97.5650  -45.9580 C   0  0  0  0  0  0  0  0  0  0  0  0
   87.3650   97.3870  -46.8530 N   0  0  0  0  0  0  0  0  0  0  0  0
   86.3200   98.0280  -46.3950 N   0  0  0  0  0  0  0  0  0  0  0  0
   86.6030   98.6110  -45.2330 N   0  0  0  0  0  0  0  0  0  0  0  0
   87.8600   98.3570  -44.9050 C   0  0  0  0  0  0  0  0  0  0  0  0
   89.6840   97.0230  -46.0970 C   0  0  0  0  0  0  0  0  0  0  0  0
   89.9640   95.6420  -45.9740 N   0  0  0  0  0  0  0  0  0  0  0  0
   89.2130   94.9300  -45.7680 H   0  0  0  0  0  0  0  0  0  0  0  0
   90.6250   97.8140  -46.3370 O   0  0  0  0  0  0  0  0  0  0  0  0
   91.2540   95.1310  -46.1170 N   0  0  0  0  0  0  0  0  0  0  0  0
   92.0080   95.5570  -46.6810 H   0  0  0  0  0  0  0  0  0  0  0  0
   91.5790   93.9060  -45.4240 C   0  0  0  0  0  0  0  0  0  0  0  0
   91.4760   92.7740  -46.0740 C   0  0  0  0  0  2  0  0  0  0  0  0
   91.9900   93.9850  -44.0370 C   0  0  0  0  0  0  0  0  0  0  0  0
   92.9400   93.0950  -43.5370 C   0  0  0  0  0  3  0  0  0  0  0  0
   93.3500   93.1680  -42.2290 C   0  0  0  0  0  0  0  0  0  0  0  0
   94.6430   91.9580  -41.5360 Br  0  0  0  0  0  0  0  0  0  0  0  0
   92.8420   94.1200  -41.3620 C   0  0  0  0  0  3  0  0  0  0  0  0
   91.9140   94.9950  -41.8370 C   0  0  0  0  0  3  0  0  0  0  0  0
   91.5010   94.9170  -43.1680 C   0  0  0  0  0  3  0  0  0  0  0  0
   88.6670   98.6970  -43.7560 C   0  0  0  0  0  2  0  0  0  0  0  0
   88.8460  100.1110  -43.4910 N   0  0  0  0  0  0  0  0  0  0  0  0
   89.7690  100.3170  -42.3780 C   0  0  0  0  0  2  0  0  0  0  0  0
   91.0220   99.4820  -42.5230 C   0  0  0  0  0  2  0  0  0  0  0  0
   91.7060   99.8000  -43.8410 C   0  0  0  0  0  2  0  0  0  0  0  0
   90.9560  100.8630  -44.5920 C   0  0  0  0  0  2  0  0  0  0  0  0
   89.4860  100.7420  -44.6420 C   0  0  0  0  0  2  0  0  0  0  0  0
   85.6650   99.3570  -44.4820 C   0  0  0  0  0  0  0  0  0  0  0  0
   85.5460  100.7110  -44.5780 N   0  0  0  0  0  0  0  0  0  0  0  0
   84.6080  101.0790  -43.7640 O   0  0  0  0  0  0  0  0  0  0  0  0
   84.1050  100.0760  -43.1400 N   0  0  0  0  0  0  0  0  0  0  0  0
   84.7380   98.9720  -43.5590 C   0  0  0  0  0  0  0  0  0  0  0  0
   84.5130   97.6500  -43.1450 N   0  0  0  0  0  0  0  0  0  0  0  0
   83.9240   97.3510  -42.3370 H   0  0  0  0  0  0  0  0  0  0  0  0
   84.9670   96.8760  -43.6770 H   0  0  0  0  0  0  0  0  0  0  0  0
  1  5  2  0  0  0  0
  2  3  2  0  0  0  0
  2  1  1  0  0  0  0
  3  4  1  0  0  0  0
  4  5  1  0  0  0  0
  4 28  1  0  0  0  0
  5 21  1  0  0  0  0
  6  7  1  0  0  0  0
  6  1  1  0  0  0  0
  7  8  1  0  0  0  0
  9  6  2  0  0  0  0
 10  7  1  0  0  0  0
 10 12  1  0  0  0  0
 11 10  1  0  0  0  0
 12 14  1  0  0  0  0
 13 12  2  0  0  0  0
 14 15  2  0  0  0  0
 14 20  1  0  0  0  0
 15 16  1  0  0  0  0
 16 17  1  0  0  0  0
 16 18  2  0  0  0  0
 19 18  1  0  0  0  0
 20 19  2  0  0  0  0
 21 22  1  0  0  0  0
 22 23  1  0  0  0  0
 24 23  1  0  0  0  0
 25 24  1  0  0  0  0
 26 25  1  0  0  0  0
 27 26  1  0  0  0  0
 27 22  1  0  0  0  0
 28 32  1  0  0  0  0
 29 28  2  0  0  0  0
 29 30  1  0  0  0  0
 30 31  1  0  0  0  0
 32 33  1  0  0  0  0
 32 31  2  0  0  0  0
 33 34  1  0  0  0  0
 35 33  1  0  0  0  0
M  END
>  <Pose>
1

>  <Score>
-6.804

$$$$
