/Users/jonathanwahrer/Desktop/Msc/3_Semester/Drug_Design_Praktikum/waehrer_HTS_screening/HTS_experiment/out/docking_results/vina_output/4agl/1282_docked.pdbqt
 OpenBabel03212200093D

 30 33  0  0  1  0  0  0  0  0999 V2000
   91.2660   94.7600  -44.6950 C   0  0  2  0  0  3  0  0  0  0  0  0
   91.9550   95.9940  -45.2450 C   0  0  0  0  0  2  0  0  0  0  0  0
   91.8560   96.9360  -44.1470 N   0  0  0  0  0  0  0  0  0  0  0  0
   91.3570   96.2890  -42.9510 C   0  0  1  0  0  3  0  0  0  0  0  0
   91.6590   94.8130  -43.2450 C   0  0  0  0  0  2  0  0  0  0  0  0
   92.1190   96.7790  -41.8030 C   0  0  0  0  0  0  0  0  0  0  0  0
   92.6740   96.0010  -41.0130 O   0  0  0  0  0  0  0  0  0  0  0  0
   92.2060   98.1820  -41.6160 N   0  0  0  0  0  0  0  0  0  0  0  0
   92.0950   99.0610  -42.7580 C   0  0  1  0  0  3  0  0  0  0  0  0
   92.1540   98.3360  -44.0480 C   0  0  0  0  0  0  0  0  0  0  0  0
   92.4730   98.9550  -45.0970 O   0  0  0  0  0  0  0  0  0  0  0  0
   92.3510   98.6160  -40.6760 H   0  0  0  0  0  0  0  0  0  0  0  0
   91.7260   93.5540  -45.3590 N   0  0  0  0  0  0  0  0  0  0  0  0
   91.0990   93.1980  -46.5700 C   0  0  0  0  0  0  0  0  0  0  0  0
   90.1570   93.9400  -47.0350 O   0  0  0  0  0  0  0  0  0  0  0  0
   92.4770   92.9620  -44.9780 H   0  0  0  0  0  0  0  0  0  0  0  0
   91.4780   92.0130  -47.3200 C   0  0  0  0  0  0  0  0  0  0  0  0
   90.7480   91.6240  -48.4360 C   0  0  0  0  0  3  0  0  0  0  0  0
   91.1040   90.5120  -49.1480 C   0  0  0  0  0  0  0  0  0  0  0  0
   90.0910   89.9870  -50.6840 Br  0  0  0  0  0  0  0  0  0  0  0  0
   92.1810   89.7510  -48.7930 C   0  0  0  0  0  3  0  0  0  0  0  0
   92.9040   90.1340  -47.6910 C   0  0  0  0  0  3  0  0  0  0  0  0
   92.5510   91.2590  -46.9620 C   0  0  0  0  0  3  0  0  0  0  0  0
   90.8910   99.9740  -42.6730 C   0  0  0  0  0  2  0  0  0  0  0  0
   91.1970  101.2850  -42.0750 C   0  0  0  0  0  0  0  0  0  0  0  0
   92.0680  102.1470  -42.7170 C   0  0  0  0  0  3  0  0  0  0  0  0
   92.3590  103.3730  -42.1650 C   0  0  0  0  0  3  0  0  0  0  0  0
   91.8120  103.8010  -40.9700 C   0  0  0  0  0  3  0  0  0  0  0  0
   90.9440  102.9440  -40.3280 C   0  0  0  0  0  3  0  0  0  0  0  0
   90.6400  101.7090  -40.8670 C   0  0  0  0  0  3  0  0  0  0  0  0
  1 13  1  6  0  0  0
  1  5  1  0  0  0  0
  2  1  1  0  0  0  0
  2  3  1  0  0  0  0
  3 10  1  0  0  0  0
  3  4  1  0  0  0  0
  4  5  1  6  0  0  0
  4  6  1  0  0  0  0
  6  8  1  0  0  0  0
  6  7  2  0  0  0  0
  8 12  1  0  0  0  0
  9 24  1  1  0  0  0
  9  8  1  0  0  0  0
 10  9  1  0  0  0  0
 11 10  2  0  0  0  0
 13 16  1  0  0  0  0
 14 13  1  0  0  0  0
 15 14  2  0  0  0  0
 17 23  1  0  0  0  0
 17 14  1  0  0  0  0
 18 17  2  0  0  0  0
 19 21  2  0  0  0  0
 19 18  1  0  0  0  0
 20 19  1  0  0  0  0
 21 22  1  0  0  0  0
 22 23  2  0  0  0  0
 24 25  1  0  0  0  0
 25 30  1  0  0  0  0
 26 27  1  0  0  0  0
 26 25  2  0  0  0  0
 27 28  2  0  0  0  0
 28 29  1  0  0  0  0
 30 29  2  0  0  0  0
M  END
>  <Pose>
1

>  <Score>
-7.245

$$$$
