/Users/jonathanwahrer/Desktop/Msc/3_Semester/Drug_Design_Praktikum/waehrer_HTS_screening/HTS_experiment/out/docking_results/vina_output/4agl/1295_docked.pdbqt
 OpenBabel03212200103D

 26 29  0  0  1  0  0  0  0  0999 V2000
   91.2930   98.3530  -44.0810 C   0  0  0  0  0  0  0  0  0  0  0  0
   91.5740   99.6560  -43.5180 C   0  0  0  0  0  0  0  0  0  0  0  0
   92.0160   99.7920  -42.2330 C   0  0  1  0  0  3  0  0  0  0  0  0
   92.2480   98.6620  -41.3820 N   0  0  0  0  0  0  0  0  0  0  0  0
   91.9910   97.3880  -41.9600 C   0  0  0  0  0  0  0  0  0  0  0  0
   91.5720   97.2320  -43.1840 C   0  0  0  0  0  0  0  0  0  0  0  0
   91.4440   95.7680  -43.4640 C   0  0  0  0  0  0  0  0  0  0  0  0
   91.0540   95.3120  -44.5810 O   0  0  0  0  0  0  0  0  0  0  0  0
   91.8160   95.1360  -42.3240 O   0  0  0  0  0  0  0  0  0  0  0  0
   92.1400   96.0250  -41.3100 C   0  0  0  0  0  2  0  0  0  0  0  0
   92.2610  101.0460  -41.7320 N   0  0  0  0  0  0  0  0  0  0  0  0
   92.0710  102.1310  -42.4910 C   0  0  0  0  0  0  0  0  0  0  0  0
   92.3030  103.2760  -42.0100 O   0  0  0  0  0  0  0  0  0  0  0  0
   91.6360  101.9870  -43.7540 N   0  0  0  0  0  0  0  0  0  0  0  0
   91.3760  100.8080  -44.3140 C   0  0  0  0  0  0  0  0  0  0  0  0
   90.9700  100.6630  -45.4940 O   0  0  0  0  0  0  0  0  0  0  0  0
   91.4420  103.2030  -44.5460 C   0  0  0  0  0  1  0  0  0  0  0  0
   92.7290  101.1240  -40.3570 C   0  0  0  0  0  1  0  0  0  0  0  0
   92.5820   98.8080  -40.4130 H   0  0  0  0  0  0  0  0  0  0  0  0
   90.0170   98.2240  -44.7780 C   0  0  0  0  0  0  0  0  0  0  0  0
   89.9370   97.9110  -46.1010 C   0  0  0  0  0  3  0  0  0  0  0  0
   88.6930   97.7990  -46.7470 C   0  0  0  0  0  3  0  0  0  0  0  0
   87.5400   98.0070  -46.0340 C   0  0  0  0  0  0  0  0  0  0  0  0
   85.8160   97.8650  -46.8730 Br  0  0  0  0  0  0  0  0  0  0  0  0
   87.6070   98.3220  -44.7070 C   0  0  0  0  0  3  0  0  0  0  0  0
   88.8570   98.4310  -44.0730 C   0  0  0  0  0  3  0  0  0  0  0  0
  1  2  2  0  0  0  0
  1  6  1  0  0  0  0
  3  2  1  6  0  0  0
  3 11  1  0  0  0  0
  3  4  1  0  0  0  0
  4 19  1  0  0  0  0
  5  4  1  0  0  0  0
  5 10  1  0  0  0  0
  6  5  2  0  0  0  0
  7  6  1  0  0  0  0
  7  9  1  0  0  0  0
  8  7  2  0  0  0  0
  9 10  1  0  0  0  0
 11 18  1  0  0  0  0
 12 13  2  0  0  0  0
 12 11  1  0  0  0  0
 14 12  1  0  0  0  0
 15 14  1  0  0  0  0
 15  2  1  0  0  0  0
 16 15  2  0  0  0  0
 17 14  1  0  0  0  0
 20  1  1  0  0  0  0
 20 26  1  0  0  0  0
 21 20  2  0  0  0  0
 22 21  1  0  0  0  0
 22 23  2  0  0  0  0
 23 25  1  0  0  0  0
 24 23  1  0  0  0  0
 25 26  2  0  0  0  0
M  END
>  <Pose>
1

>  <Score>
-6.379

$$$$
