/Users/jonathanwahrer/Desktop/Msc/3_Semester/Drug_Design_Praktikum/waehrer_HTS_screening/HTS_experiment/out/docking_results/vina_output/4agl/1301_docked.pdbqt
 OpenBabel03212200113D

 24 27  0  0  1  0  0  0  0  0999 V2000
   91.1000   98.0230  -44.3380 N   0  0  0  0  0  0  0  0  0  0  0  0
   89.7950   98.5020  -44.6450 C   0  0  0  0  0  0  0  0  0  0  0  0
   88.7910   97.8260  -44.9570 O   0  0  0  0  0  0  0  0  0  0  0  0
   89.7770   99.9920  -44.5410 C   0  0  1  0  0  3  0  0  0  0  0  0
   89.4880  100.4560  -43.1530 C   0  0  1  0  0  0  0  0  0  0  0  0
   90.7310  100.2840  -42.4930 O   0  0  0  0  0  0  0  0  0  0  0  0
   91.4890  101.0870  -43.3830 C   0  0  1  0  0  0  0  0  0  0  0  0
   91.2500  100.3720  -44.6720 C   0  0  1  0  0  3  0  0  0  0  0  0
   91.9800   99.0820  -44.6910 C   0  0  0  0  0  0  0  0  0  0  0  0
   93.1880   98.9490  -44.9760 O   0  0  0  0  0  0  0  0  0  0  0  0
   90.6800  102.3420  -43.3170 C   0  0  0  0  0  2  0  0  0  0  0  0
   89.4070  101.9410  -43.1580 C   0  0  0  0  0  2  0  0  0  0  0  0
   92.8920  101.2380  -42.9760 C   0  0  0  0  0  1  0  0  0  0  0  0
   91.3970   96.7470  -43.7870 C   0  0  0  0  0  0  0  0  0  0  0  0
   91.6380   96.5520  -42.4420 C   0  0  0  0  0  3  0  0  0  0  0  0
   91.9290   95.2950  -41.9010 C   0  0  0  0  0  3  0  0  0  0  0  0
   91.9880   94.1810  -42.7060 C   0  0  0  0  0  0  0  0  0  0  0  0
   91.7490   94.3590  -44.0490 C   0  0  0  0  0  0  0  0  0  0  0  0
   92.3020   92.8420  -42.1260 C   0  0  0  0  0  1  0  0  0  0  0  0
   91.8220   92.8420  -45.1950 Br  0  0  0  0  0  0  0  0  0  0  0  0
   91.4580   95.6170  -44.5830 C   0  0  0  0  0  3  0  0  0  0  0  0
   88.3680   99.7840  -42.4700 C   0  0  0  0  0  2  0  0  0  0  0  0
   87.3690  100.6800  -42.0970 O   0  0  0  0  0  0  0  0  0  0  0  0
   87.6860  101.6260  -42.0650 H   0  0  0  0  0  0  0  0  0  0  0  0
  1 14  1  0  0  0  0
  2  1  1  0  0  0  0
  3  2  2  0  0  0  0
  4  2  1  1  0  0  0
  4  5  1  0  0  0  0
  5  6  1  0  0  0  0
  5 22  1  1  0  0  0
  7 11  1  0  0  0  0
  7 13  1  1  0  0  0
  7  6  1  0  0  0  0
  8  9  1  1  0  0  0
  8  4  1  0  0  0  0
  8  7  1  0  0  0  0
  9  1  1  0  0  0  0
 10  9  2  0  0  0  0
 11 12  1  0  0  0  0
 12  5  1  0  0  0  0
 14 15  1  0  0  0  0
 15 16  2  0  0  0  0
 17 19  1  0  0  0  0
 17 16  1  0  0  0  0
 18 17  2  0  0  0  0
 20 18  1  0  0  0  0
 21 18  1  0  0  0  0
 21 14  2  0  0  0  0
 22 23  1  0  0  0  0
 23 24  1  0  0  0  0
M  END
>  <Pose>
1

>  <Score>
-6.445

$$$$
