/Users/jonathanwahrer/Desktop/Msc/3_Semester/Drug_Design_Praktikum/waehrer_HTS_screening/HTS_experiment/out/docking_results/vina_output/4agl/1314_docked.pdbqt
 OpenBabel03212200123D

 32 35  0  0  0  0  0  0  0  0999 V2000
   87.7120   98.5250  -46.1260 C   0  0  0  0  0  0  0  0  0  0  0  0
   86.6610   98.8930  -46.7930 N   0  0  0  0  0  0  0  0  0  0  0  0
   85.8390   99.4970  -46.0050 N   0  0  0  0  0  0  0  0  0  0  0  0
   86.3190   99.5700  -44.7040 N   0  0  0  0  0  0  0  0  0  0  0  0
   87.4910   98.9750  -44.7440 C   0  0  0  0  0  0  0  0  0  0  0  0
   88.7580   97.6420  -46.4480 C   0  0  0  0  0  0  0  0  0  0  0  0
   88.6350   96.1170  -46.2300 N   0  0  0  0  0  0  0  0  0  0  0  0
   87.7300   95.8160  -45.8800 H   0  0  0  0  0  0  0  0  0  0  0  0
   89.8460   97.9710  -46.9080 O   0  0  0  0  0  0  0  0  0  0  0  0
   89.8050   95.6640  -46.5380 N   0  0  0  0  0  2  0  0  0  0  0  0
   90.7220   94.8310  -46.6410 C   0  0  0  0  0  2  0  0  0  0  0  0
   91.3830   94.6300  -45.2550 C   0  0  0  0  0  0  0  0  0  0  0  0
   91.6810   93.3350  -44.9050 C   0  0  0  0  0  0  0  0  0  0  0  0
   91.6070   91.9690  -46.2060 Br  0  0  0  0  0  0  0  0  0  0  0  0
   91.9670   93.0710  -43.5610 C   0  0  0  0  0  3  0  0  0  0  0  0
   91.9730   94.1040  -42.6190 C   0  0  0  0  0  3  0  0  0  0  0  0
   91.7020   95.3740  -43.0000 C   0  0  0  0  0  3  0  0  0  0  0  0
   91.3870   95.6280  -44.3710 C   0  0  0  0  0  3  0  0  0  0  0  0
   88.6350   98.8120  -43.8510 C   0  0  0  0  0  2  0  0  0  0  0  0
   89.6940   99.5950  -43.6190 N   0  0  0  0  0  0  0  0  0  0  0  0
   90.4710   99.0730  -42.5040 C   0  0  0  0  0  2  0  0  0  0  0  0
   90.5370  100.3190  -44.4140 C   0  0  0  0  0  2  0  0  0  0  0  0
   91.9100   99.0970  -42.9250 C   0  0  0  0  0  2  0  0  0  0  0  0
   91.9110   99.6070  -44.3620 C   0  0  0  0  0  2  0  0  0  0  0  0
   85.4850  100.1510  -43.7500 C   0  0  0  0  0  0  0  0  0  0  0  0
   84.1370   99.8080  -43.6540 N   0  0  0  0  0  0  0  0  0  0  0  0
   83.5910  100.5630  -42.7850 O   0  0  0  0  0  0  0  0  0  0  0  0
   84.4250  101.3800  -42.2770 N   0  0  0  0  0  0  0  0  0  0  0  0
   85.6300  101.1420  -42.8700 C   0  0  0  0  0  0  0  0  0  0  0  0
   86.7770  101.9250  -42.5180 N   0  0  0  0  0  0  0  0  0  0  0  0
   86.6150  102.9130  -42.2780 H   0  0  0  0  0  0  0  0  0  0  0  0
   87.7140  101.5300  -42.5680 H   0  0  0  0  0  0  0  0  0  0  0  0
  1  5  2  0  0  0  0
  2  1  1  0  0  0  0
  2  3  2  0  0  0  0
  3  4  1  0  0  0  0
  4 25  1  0  0  0  0
  5  4  1  0  0  0  0
  5 19  1  0  0  0  0
  6  7  1  0  0  0  0
  6  1  1  0  0  0  0
  7  8  1  0  0  0  0
  9  6  2  0  0  0  0
 10  7  1  0  0  0  0
 11 10  1  0  0  0  0
 11 12  1  0  0  0  0
 12 13  2  0  0  0  0
 12 18  1  0  0  0  0
 13 15  1  0  0  0  0
 14 13  1  0  0  0  0
 15 16  2  0  0  0  0
 17 16  1  0  0  0  0
 18 17  2  0  0  0  0
 19 20  1  0  0  0  0
 20 21  1  0  0  0  0
 22 24  1  0  0  0  0
 22 20  1  0  0  0  0
 23 21  1  0  0  0  0
 24 23  1  0  0  0  0
 25 26  2  0  0  0  0
 25 29  1  0  0  0  0
 26 27  1  0  0  0  0
 27 28  1  0  0  0  0
 29 30  1  0  0  0  0
 29 28  2  0  0  0  0
 30 31  1  0  0  0  0
 32 30  1  0  0  0  0
M  END
>  <Pose>
1

>  <Score>
-5.901

$$$$
