/Users/jonathanwahrer/Desktop/Msc/3_Semester/Drug_Design_Praktikum/waehrer_HTS_screening/HTS_experiment/out/docking_results/vina_output/4agl/1329_docked.pdbqt
 OpenBabel03212200123D

 28 31  0  0  0  0  0  0  0  0999 V2000
   91.6930   98.2010  -42.5180 C   0  0  0  0  0  3  0  0  0  0  0  0
   90.5890   98.9230  -42.7240 C   0  0  0  0  0  0  0  0  0  0  0  0
   89.3450   98.4560  -43.1440 O   0  0  0  0  0  0  0  0  0  0  0  0
   88.4490   99.4850  -43.2370 C   0  0  0  0  0  0  0  0  0  0  0  0
   89.0560  100.6860  -42.8840 C   0  0  0  0  0  0  0  0  0  0  0  0
   88.2910  101.8410  -42.9150 C   0  0  0  0  0  3  0  0  0  0  0  0
   86.9670  101.7860  -43.2850 C   0  0  0  0  0  3  0  0  0  0  0  0
   86.3910  100.5610  -43.6340 C   0  0  0  0  0  0  0  0  0  0  0  0
   87.1240   99.4040  -43.6130 C   0  0  0  0  0  0  0  0  0  0  0  0
   85.0530  100.6110  -43.9920 O   0  0  0  0  0  1  0  0  0  0  0  0
   90.4520  100.3660  -42.5430 C   0  0  0  0  0  0  0  0  0  0  0  0
   91.3140  101.2080  -42.1800 O   0  0  0  0  0  0  0  0  0  0  0  0
   86.4960   98.1610  -44.0640 C   0  0  0  0  0  2  0  0  0  0  0  0
   85.9650   98.1620  -45.3780 N   0  0  0  0  0  4  0  0  0  0  0  0
   85.1790   96.9510  -45.5520 C   0  0  0  0  0  2  0  0  0  0  0  0
   85.2880   96.3120  -46.8930 C   0  0  0  0  0  2  0  0  0  0  0  0
   86.6110   96.1210  -47.3720 N   0  0  0  0  0  0  0  0  0  0  0  0
   87.5630   96.8750  -46.6260 C   0  0  0  0  0  2  0  0  0  0  0  0
   86.6690   96.4130  -48.7890 C   0  0  0  0  0  1  0  0  0  0  0  0
   87.0270   98.2400  -46.3520 C   0  0  0  0  0  2  0  0  0  0  0  0
   85.3530   99.0100  -45.5750 H   0  0  0  0  0  0  0  0  0  0  0  0
   91.6980   96.7670  -42.7260 C   0  0  0  0  0  0  0  0  0  0  0  0
   91.5430   96.2300  -43.9850 C   0  0  0  0  0  3  0  0  0  0  0  0
   91.5370   94.8500  -44.1680 C   0  0  0  0  0  0  0  0  0  0  0  0
   91.3130   94.1060  -45.9140 Br  0  0  0  0  0  0  0  0  0  0  0  0
   91.6890   94.0090  -43.0760 C   0  0  0  0  0  3  0  0  0  0  0  0
   91.8390   94.5840  -41.8340 C   0  0  0  0  0  3  0  0  0  0  0  0
   91.8490   95.9450  -41.6360 C   0  0  0  0  0  3  0  0  0  0  0  0
  2 11  1  0  0  0  0
  2  1  2  0  0  0  0
  3  2  1  0  0  0  0
  4  3  1  0  0  0  0
  4  5  1  0  0  0  0
  5 11  1  0  0  0  0
  6  5  2  0  0  0  0
  7  6  1  0  0  0  0
  8  9  1  0  0  0  0
  8  7  2  0  0  0  0
  9  4  2  0  0  0  0
 10  8  1  0  0  0  0
 11 12  2  0  0  0  0
 13  9  1  0  0  0  0
 14 13  1  0  0  0  0
 15 14  1  0  0  0  0
 16 15  1  0  0  0  0
 17 16  1  0  0  0  0
 17 18  1  0  0  0  0
 18 20  1  0  0  0  0
 19 17  1  0  0  0  0
 20 14  1  0  0  0  0
 21 14  1  0  0  0  0
 22  1  1  0  0  0  0
 22 28  1  0  0  0  0
 23 22  2  0  0  0  0
 24 23  1  0  0  0  0
 24 26  2  0  0  0  0
 25 24  1  0  0  0  0
 26 27  1  0  0  0  0
 27 28  2  0  0  0  0
M  END
>  <Pose>
1

>  <Score>
-6.406

$$$$
