/Users/jonathanwahrer/Desktop/Msc/3_Semester/Drug_Design_Praktikum/waehrer_HTS_screening/HTS_experiment/out/docking_results/vina_output/4agl/1341_docked.pdbqt
 OpenBabel03212200133D

 28 31  0  0  0  0  0  0  0  0999 V2000
   91.4470   94.7570  -44.7960 C   0  0  0  0  0  0  0  0  0  0  0  0
   91.5920   94.7500  -43.4500 N   0  0  0  0  0  0  0  0  0  0  0  0
   91.6820   96.0260  -43.0210 C   0  0  0  0  0  0  0  0  0  0  0  0
   91.5990   96.8790  -44.0650 N   0  0  0  0  0  0  0  0  0  0  0  0
   91.4540   96.0880  -45.1520 C   0  0  0  0  0  3  0  0  0  0  0  0
   91.8400   96.0480  -41.5440 C   0  0  0  0  0  3  0  0  0  0  0  0
   91.9310   94.6240  -41.1140 C   0  0  0  0  0  3  0  0  0  0  0  0
   91.6830   93.8270  -42.3410 C   0  0  0  0  0  3  0  0  0  0  0  0
   91.6480   98.3260  -44.0520 C   0  0  0  0  0  2  0  0  0  0  0  0
   90.2890   98.8830  -44.3070 C   0  0  0  0  0  0  0  0  0  0  0  0
   90.0650   99.3720  -45.4160 O   0  0  0  0  0  0  0  0  0  0  0  0
   89.3520   98.8170  -43.2740 N   0  0  0  0  0  0  0  0  0  0  0  0
   89.6040   98.3790  -42.3260 H   0  0  0  0  0  0  0  0  0  0  0  0
   88.0180   99.2930  -43.3600 C   0  0  0  0  0  0  0  0  0  0  0  0
   87.7200  100.5630  -42.8490 C   0  0  0  0  0  3  0  0  0  0  0  0
   86.4500  101.0420  -42.8980 C   0  0  0  0  0  3  0  0  0  0  0  0
   85.4210  100.2970  -43.4510 C   0  0  0  0  0  0  0  0  0  0  0  0
   85.7210   99.0600  -43.9460 C   0  0  0  0  0  3  0  0  0  0  0  0
   87.0210   98.5390  -43.9100 C   0  0  0  0  0  3  0  0  0  0  0  0
   84.0410  100.8420  -43.4940 C   0  0  0  0  0  2  0  0  0  0  0  0
   83.7710  101.5580  -42.1670 C   0  0  0  0  0  1  0  0  0  0  0  0
   91.3100   93.6410  -45.7300 C   0  0  0  0  0  0  0  0  0  0  0  0
   91.8400   92.4000  -45.4360 C   0  0  0  0  0  3  0  0  0  0  0  0
   91.7260   91.3280  -46.3030 C   0  0  0  0  0  3  0  0  0  0  0  0
   91.0710   91.4520  -47.5080 C   0  0  0  0  0  0  0  0  0  0  0  0
   90.9200   90.0930  -48.6150 Cl  0  0  0  0  0  0  0  0  0  0  0  0
   90.5360   92.6850  -47.8170 C   0  0  0  0  0  3  0  0  0  0  0  0
   90.6550   93.7680  -46.9370 C   0  0  0  0  0  3  0  0  0  0  0  0
  1  2  1  0  0  0  0
  2  3  1  0  0  0  0
  2  8  1  0  0  0  0
  3  6  2  0  0  0  0
  4  9  1  0  0  0  0
  4  3  1  0  0  0  0
  5  1  2  0  0  0  0
  5  4  1  0  0  0  0
  6  7  1  0  0  0  0
  8  7  2  0  0  0  0
 10  9  1  0  0  0  0
 10 12  1  0  0  0  0
 11 10  2  0  0  0  0
 12 13  1  0  0  0  0
 14 12  1  0  0  0  0
 14 15  1  0  0  0  0
 16 15  2  0  0  0  0
 17 16  1  0  0  0  0
 18 19  1  0  0  0  0
 18 17  2  0  0  0  0
 19 14  2  0  0  0  0
 20 17  1  0  0  0  0
 20 21  1  0  0  0  0
 22 23  1  0  0  0  0
 22  1  1  0  0  0  0
 24 23  2  0  0  0  0
 25 24  1  0  0  0  0
 26 25  1  0  0  0  0
 27 25  2  0  0  0  0
 27 28  1  0  0  0  0
 28 22  2  0  0  0  0
M  END
>  <Pose>
1

>  <Score>
-6.631

$$$$
