/Users/jonathanwahrer/Desktop/Msc/3_Semester/Drug_Design_Praktikum/waehrer_HTS_screening/HTS_experiment/out/docking_results/vina_output/4agl/1343_docked.pdbqt
 OpenBabel03212200143D

 41 44  0  0  1  0  0  0  0  0999 V2000
   91.0730  100.2520  -43.5740 C   0  0  0  0  0  0  0  0  0  0  0  0
   90.2920  100.6270  -42.5280 N   0  0  0  0  0  0  0  0  0  0  0  0
   91.0740  101.2300  -41.5960 C   0  0  0  0  0  0  0  0  0  0  0  0
   90.8420  101.7800  -40.3990 N   0  0  0  0  0  0  0  0  0  0  0  0
   91.8240  102.3250  -39.6580 C   0  0  0  0  0  0  0  0  0  0  0  0
   93.0870  102.3170  -40.1390 N   0  0  0  0  0  0  0  0  0  0  0  0
   93.3910  101.7890  -41.3190 C   0  0  0  0  0  0  0  0  0  0  0  0
   92.3790  101.2310  -42.0750 C   0  0  0  0  0  0  0  0  0  0  0  0
   92.3270  100.6380  -43.2560 N   0  0  0  0  0  0  0  0  0  0  0  0
   90.6370   99.5900  -44.7550 N   0  0  0  0  0  0  0  0  0  0  0  0
   90.0210  100.0870  -45.4170 H   0  0  0  0  0  0  0  0  0  0  0  0
   91.0780   98.2690  -44.9610 N   0  0  0  0  0  0  0  0  0  0  0  0
   90.3150   97.2560  -44.9130 C   0  0  0  0  0  3  0  0  0  0  0  0
   90.7430   95.8770  -45.1220 C   0  0  0  0  0  0  0  0  0  0  0  0
   90.3270   95.1630  -46.2240 C   0  0  0  0  0  0  0  0  0  0  0  0
   89.1760   96.0110  -47.4780 Br  0  0  0  0  0  0  0  0  0  0  0  0
   90.7320   93.8410  -46.4310 C   0  0  0  0  0  3  0  0  0  0  0  0
   91.5660   93.2030  -45.5370 C   0  0  0  0  0  0  0  0  0  0  0  0
   91.9820   93.9180  -44.4330 C   0  0  0  0  0  0  0  0  0  0  0  0
   91.5760   95.2210  -44.2400 C   0  0  0  0  0  3  0  0  0  0  0  0
   91.9810   91.8850  -45.7270 O   0  0  0  0  0  0  0  0  0  0  0  0
   91.7270   91.1610  -46.8930 C   0  0  0  0  0  1  0  0  0  0  0  0
   92.8240   93.2640  -43.5380 O   0  0  0  0  0  0  0  0  0  0  0  0
   92.7560   93.3880  -42.1530 C   0  0  0  0  0  1  0  0  0  0  0  0
   88.8810  100.4190  -42.4300 C   0  0  2  0  0  3  0  0  0  0  0  0
   88.4460   99.2230  -42.9840 O   0  0  0  0  0  0  0  0  0  0  0  0
   87.1210   99.3400  -43.2890 C   0  0  1  0  0  3  0  0  0  0  0  0
   86.7070  100.7700  -43.2050 C   0  0  2  0  0  3  0  0  0  0  0  0
   88.0550  101.4860  -43.1170 C   0  0  1  0  0  3  0  0  0  0  0  0
   86.9190   98.8810  -44.7340 C   0  0  0  0  0  2  0  0  0  0  0  0
   87.9160   99.4250  -45.5510 O   0  0  0  0  0  0  0  0  0  0  0  0
   87.6800   99.3450  -46.5110 H   0  0  0  0  0  0  0  0  0  0  0  0
   86.0720  101.0230  -41.9720 O   0  0  0  0  0  0  0  0  0  0  0  0
   85.4140  101.7470  -42.0490 H   0  0  0  0  0  0  0  0  0  0  0  0
   87.9490  102.6410  -42.3420 O   0  0  0  0  0  0  0  0  0  0  0  0
   88.7140  102.6980  -41.7130 H   0  0  0  0  0  0  0  0  0  0  0  0
   94.6870  101.7650  -41.8450 O   0  0  0  0  0  0  0  0  0  0  0  0
   94.9970  100.8800  -42.2270 H   0  0  0  0  0  0  0  0  0  0  0  0
   91.5570  102.9110  -38.3750 N   0  0  0  0  0  0  0  0  0  0  0  0
   92.2580  103.3880  -37.7990 H   0  0  0  0  0  0  0  0  0  0  0  0
   90.5780  102.8340  -38.0270 H   0  0  0  0  0  0  0  0  0  0  0  0
  1  9  2  0  0  0  0
  1  2  1  0  0  0  0
  2  3  1  0  0  0  0
  3  4  1  0  0  0  0
  4  5  2  0  0  0  0
  5 39  1  0  0  0  0
  6  5  1  0  0  0  0
  7  6  2  0  0  0  0
  8  3  2  0  0  0  0
  8  7  1  0  0  0  0
  9  8  1  0  0  0  0
 10  1  1  0  0  0  0
 11 10  1  0  0  0  0
 12 13  2  0  0  0  0
 12 10  1  0  0  0  0
 14 13  1  0  0  0  0
 14 20  1  0  0  0  0
 15 14  2  0  0  0  0
 16 15  1  0  0  0  0
 17 15  1  0  0  0  0
 17 18  2  0  0  0  0
 18 19  1  0  0  0  0
 19 20  2  0  0  0  0
 19 23  1  0  0  0  0
 21 18  1  0  0  0  0
 22 21  1  0  0  0  0
 23 24  1  0  0  0  0
 25  2  1  6  0  0  0
 26 25  1  0  0  0  0
 27 30  1  6  0  0  0
 27 28  1  0  0  0  0
 27 26  1  0  0  0  0
 28 29  1  0  0  0  0
 28 33  1  1  0  0  0
 29 25  1  0  0  0  0
 29 35  1  1  0  0  0
 31 30  1  0  0  0  0
 32 31  1  0  0  0  0
 34 33  1  0  0  0  0
 35 36  1  0  0  0  0
 37  7  1  0  0  0  0
 38 37  1  0  0  0  0
 39 41  1  0  0  0  0
 39 40  1  0  0  0  0
M  END
>  <Pose>
1

>  <Score>
-6.385

$$$$
