/Users/jonathanwahrer/Desktop/Msc/3_Semester/Drug_Design_Praktikum/waehrer_HTS_screening/HTS_experiment/out/docking_results/vina_output/4agl/1372_docked.pdbqt
 OpenBabel03212200153D

 31 34  0  0  1  0  0  0  0  0999 V2000
   91.8510   99.7590  -44.2720 C   0  0  0  0  0  0  0  0  0  0  0  0
   92.9760  100.2990  -44.3090 O   0  0  0  0  0  0  0  0  0  0  0  0
   91.0400   99.9030  -43.1410 N   0  0  0  0  0  0  0  0  0  0  0  0
   91.0920  100.8470  -42.0760 C   0  0  0  0  0  2  0  0  0  0  0  0
   89.6270  101.0070  -41.6400 C   0  0  0  0  0  2  0  0  0  0  0  0
   88.6690  100.7880  -42.7840 C   0  0  1  0  0  0  0  0  0  0  0  0
   87.3030  100.9330  -42.3580 N   0  0  0  0  0  0  0  0  0  0  0  0
   86.4430  100.6100  -43.5050 C   0  0  0  0  0  2  0  0  0  0  0  0
   86.5740  101.6220  -44.6010 C   0  0  0  0  0  2  0  0  0  0  0  0
   87.9360  102.1940  -44.6930 C   0  0  0  0  0  0  0  0  0  0  0  0
   88.4380  103.1010  -45.5360 N   0  0  0  0  0  0  0  0  0  0  0  0
   89.7360  103.3000  -45.2300 C   0  0  0  0  0  3  0  0  0  0  0  0
   90.0250  102.5040  -44.1910 N   0  0  0  0  0  0  0  0  0  0  0  0
   88.9510  101.7950  -43.8130 C   0  0  0  0  0  0  0  0  0  0  0  0
   88.7440   99.3590  -43.3480 C   0  0  0  0  0  2  0  0  0  0  0  0
   90.0250   98.8330  -42.8590 C   0  0  0  0  0  2  0  0  0  0  0  0
   87.0880  100.2070  -41.6340 H   0  0  0  0  0  0  0  0  0  0  0  0
   87.9790  103.6150  -46.3200 H   0  0  0  0  0  0  0  0  0  0  0  0
   91.4130   98.9800  -45.4710 C   0  0  1  0  0  3  0  0  0  0  0  0
   92.2710   99.4880  -46.6590 C   0  0  0  0  0  1  0  0  0  0  0  0
   91.7340   97.5750  -45.4030 N   0  0  0  0  0  0  0  0  0  0  0  0
   90.6720   96.6000  -45.5830 C   0  0  0  0  0  0  0  0  0  0  0  0
   89.5110   96.9450  -45.8360 O   0  0  0  0  0  0  0  0  0  0  0  0
   92.6910   97.2690  -45.2380 H   0  0  0  0  0  0  0  0  0  0  0  0
   91.0630   95.1890  -45.4300 C   0  0  0  0  0  0  0  0  0  0  0  0
   91.6700   94.8060  -44.2220 C   0  0  0  0  0  3  0  0  0  0  0  0
   92.0910   93.5250  -43.9680 C   0  0  0  0  0  0  0  0  0  0  0  0
   92.9060   93.0930  -42.2730 Br  0  0  0  0  0  0  0  0  0  0  0  0
   91.9130   92.5710  -44.9420 C   0  0  0  0  0  3  0  0  0  0  0  0
   91.3190   92.9310  -46.1410 C   0  0  0  0  0  3  0  0  0  0  0  0
   90.8970   94.2340  -46.3860 C   0  0  0  0  0  3  0  0  0  0  0  0
  1  3  1  0  0  0  0
  2  1  2  0  0  0  0
  3 16  1  0  0  0  0
  3  4  1  0  0  0  0
  4  5  1  0  0  0  0
  6 15  1  6  0  0  0
  6  7  1  0  0  0  0
  6  5  1  0  0  0  0
  7 17  1  0  0  0  0
  8  7  1  0  0  0  0
  9  8  1  0  0  0  0
 10  9  1  0  0  0  0
 10 14  2  0  0  0  0
 11 12  1  0  0  0  0
 11 10  1  0  0  0  0
 12 13  2  0  0  0  0
 13 14  1  0  0  0  0
 14  6  1  0  0  0  0
 15 16  1  0  0  0  0
 18 11  1  0  0  0  0
 19 20  1  6  0  0  0
 19 21  1  0  0  0  0
 19  1  1  0  0  0  0
 21 24  1  0  0  0  0
 22 25  1  0  0  0  0
 22 21  1  0  0  0  0
 23 22  2  0  0  0  0
 25 26  1  0  0  0  0
 26 27  2  0  0  0  0
 27 28  1  0  0  0  0
 29 27  1  0  0  0  0
 30 29  2  0  0  0  0
 31 30  1  0  0  0  0
 31 25  2  0  0  0  0
M  END
>  <Pose>
1

>  <Score>
-6.637

$$$$
