/Users/jonathanwahrer/Desktop/Msc/3_Semester/Drug_Design_Praktikum/waehrer_HTS_screening/HTS_experiment/out/docking_results/vina_output/4agl/1381_docked.pdbqt
 OpenBabel03212200153D

 31 34  0  0  0  0  0  0  0  0999 V2000
   90.5780   97.0390  -45.3270 C   0  0  0  0  0  0  0  0  0  0  0  0
   89.4240   97.4270  -45.4580 O   0  0  0  0  0  0  0  0  0  0  0  0
   91.4890   97.8890  -46.0110 O   0  0  0  0  0  0  0  0  0  0  0  0
   92.5720   98.4040  -45.2850 C   0  0  0  0  0  2  0  0  0  0  0  0
   92.0730   99.5490  -44.4980 C   0  0  0  0  0  0  0  0  0  0  0  0
   92.3240   99.6150  -43.1800 N   0  0  0  0  0  0  0  0  0  0  0  0
   91.8950  100.6320  -42.4150 C   0  0  0  0  0  0  0  0  0  0  0  0
   91.1870  101.6320  -42.9500 N   0  0  0  0  0  0  0  0  0  0  0  0
   92.1710  100.6630  -41.0740 C   0  0  0  0  0  3  0  0  0  0  0  0
   90.7510  102.6610  -42.1820 C   0  0  0  0  0  3  0  0  0  0  0  0
   90.8900  101.6450  -44.2650 C   0  0  0  0  0  0  0  0  0  0  0  0
   91.0200  102.7100  -40.8260 C   0  0  0  0  0  0  0  0  0  0  0  0
   90.3910  104.1810  -39.7560 Br  0  0  0  0  0  0  0  0  0  0  0  0
   91.7450  101.6920  -40.2600 C   0  0  0  0  0  3  0  0  0  0  0  0
   91.3470  100.5750  -45.0490 C   0  0  0  0  0  3  0  0  0  0  0  0
   90.2280  102.5680  -44.8010 O   0  0  0  0  0  0  0  0  0  0  0  0
   91.1000   95.8940  -44.6070 C   0  0  0  0  0  0  0  0  0  0  0  0
   91.5030   96.0170  -43.3070 N   0  0  0  0  0  0  0  0  0  0  0  0
   91.9820   94.9880  -42.6290 N   0  0  0  0  0  0  0  0  0  0  0  0
   92.0950   93.7720  -43.1890 C   0  0  0  0  0  0  0  0  0  0  0  0
   92.5600   92.7860  -42.5240 O   0  0  0  0  0  0  0  0  0  0  0  0
   91.7120   93.5640  -44.4930 C   0  0  0  0  0  0  0  0  0  0  0  0
   91.2090   94.6680  -45.1860 C   0  0  0  0  0  0  0  0  0  0  0  0
   91.8370   92.3160  -45.0420 C   0  0  0  0  0  3  0  0  0  0  0  0
   90.8380   94.4150  -46.4840 C   0  0  0  0  0  3  0  0  0  0  0  0
   90.9600   93.1520  -47.0540 C   0  0  0  0  0  3  0  0  0  0  0  0
   91.4600   92.0870  -46.3420 C   0  0  0  0  0  3  0  0  0  0  0  0
   92.4060   95.1310  -41.2520 C   0  0  0  0  0  2  0  0  0  0  0  0
   92.0380   96.4720  -40.6720 C   0  0  0  0  0  2  0  0  0  0  0  0
   92.9310   97.4680  -41.0220 O   0  0  0  0  0  0  0  0  0  0  0  0
   93.5490   97.5920  -40.2630 H   0  0  0  0  0  0  0  0  0  0  0  0
  1 17  1  0  0  0  0
  2  1  2  0  0  0  0
  3  1  1  0  0  0  0
  3  4  1  0  0  0  0
  4  5  1  0  0  0  0
  5  6  1  0  0  0  0
  6  7  2  0  0  0  0
  7  9  1  0  0  0  0
  8  7  1  0  0  0  0
  8 10  1  0  0  0  0
  9 14  2  0  0  0  0
 10 12  2  0  0  0  0
 11  8  1  0  0  0  0
 12 14  1  0  0  0  0
 12 13  1  0  0  0  0
 15  5  2  0  0  0  0
 15 11  1  0  0  0  0
 16 11  2  0  0  0  0
 17 18  2  0  0  0  0
 18 19  1  0  0  0  0
 19 28  1  0  0  0  0
 20 19  1  0  0  0  0
 20 21  2  0  0  0  0
 22 20  1  0  0  0  0
 23 17  1  0  0  0  0
 23 22  2  0  0  0  0
 24 22  1  0  0  0  0
 25 23  1  0  0  0  0
 26 25  2  0  0  0  0
 26 27  1  0  0  0  0
 27 24  2  0  0  0  0
 28 29  1  0  0  0  0
 30 29  1  0  0  0  0
 30 31  1  0  0  0  0
M  END
>  <Pose>
1

>  <Score>
-6.963

$$$$
