/Users/jonathanwahrer/Desktop/Msc/3_Semester/Drug_Design_Praktikum/waehrer_HTS_screening/HTS_experiment/out/docking_results/vina_output/4agl/1388_docked.pdbqt
 OpenBabel03212200163D

 30 33  0  0  1  0  0  0  0  0999 V2000
   89.2560   99.6440  -43.7470 C   0  0  0  0  0  0  0  0  0  0  0  0
   88.4400   99.2690  -42.8700 O   0  0  0  0  0  0  0  0  0  0  0  0
   90.1480  100.6880  -43.4550 N   0  0  0  0  0  0  0  0  0  0  0  0
   91.1130  101.1730  -44.4100 C   0  0  0  0  0  2  0  0  0  0  0  0
   92.4830  100.8720  -43.8400 C   0  0  0  0  0  2  0  0  0  0  0  0
   92.5670  101.3810  -42.4210 C   0  0  1  0  0  0  0  0  0  0  0  0
   92.7750  100.2440  -41.5490 N   0  0  0  0  0  0  0  0  0  0  0  0
   93.0020  100.5690  -40.1850 C   0  0  0  0  0  2  0  0  0  0  0  0
   93.8470  101.7570  -39.9020 C   0  0  0  0  0  2  0  0  0  0  0  0
   94.4320  102.3970  -41.0990 C   0  0  0  0  0  0  0  0  0  0  0  0
   95.5330  103.1890  -41.2780 N   0  0  0  0  0  0  0  0  0  0  0  0
   95.5830  103.4870  -42.5820 C   0  0  0  0  0  3  0  0  0  0  0  0
   94.5480  102.9040  -43.2080 N   0  0  0  0  0  0  0  0  0  0  0  0
   93.8040  102.2110  -42.3100 C   0  0  0  0  0  0  0  0  0  0  0  0
   91.3810  102.1760  -41.9780 C   0  0  0  0  0  2  0  0  0  0  0  0
   90.1230  101.3210  -42.1610 C   0  0  0  0  0  2  0  0  0  0  0  0
   91.9210   99.6290  -41.6010 H   0  0  0  0  0  0  0  0  0  0  0  0
   96.1910  103.4830  -40.4980 H   0  0  0  0  0  0  0  0  0  0  0  0
   89.2140   98.9360  -45.0540 C   0  0  0  0  0  2  0  0  0  0  0  0
   89.5320   97.5320  -44.9110 N   0  0  0  0  0  0  0  0  0  0  0  0
   90.7890   97.0070  -45.2900 C   0  0  0  0  0  0  0  0  0  0  0  0
   91.6340   97.8090  -45.7620 O   0  0  0  0  0  0  0  0  0  0  0  0
   88.8170   96.8880  -44.5190 H   0  0  0  0  0  0  0  0  0  0  0  0
   91.1330   95.5990  -45.1580 C   0  0  0  0  0  0  0  0  0  0  0  0
   91.7080   95.0620  -44.0210 C   0  0  0  0  0  3  0  0  0  0  0  0
   92.0250   93.7190  -43.9220 C   0  0  0  0  0  0  0  0  0  0  0  0
   92.8090   93.0690  -42.3260 Br  0  0  0  0  0  0  0  0  0  0  0  0
   91.7680   92.8580  -44.9900 C   0  0  0  0  0  3  0  0  0  0  0  0
   91.1960   93.4100  -46.1150 C   0  0  0  0  0  3  0  0  0  0  0  0
   90.8780   94.7430  -46.2200 C   0  0  0  0  0  3  0  0  0  0  0  0
  1  3  1  0  0  0  0
  1  2  2  0  0  0  0
  3 16  1  0  0  0  0
  4  5  1  0  0  0  0
  4  3  1  0  0  0  0
  6  5  1  6  0  0  0
  6 14  1  0  0  0  0
  6 15  1  0  0  0  0
  6  7  1  0  0  0  0
  7  8  1  0  0  0  0
  8  9  1  0  0  0  0
 10  9  1  0  0  0  0
 11 10  1  0  0  0  0
 11 18  1  0  0  0  0
 12 11  1  0  0  0  0
 13 12  2  0  0  0  0
 13 14  1  0  0  0  0
 14 10  2  0  0  0  0
 16 15  1  0  0  0  0
 17  7  1  0  0  0  0
 19 20  1  0  0  0  0
 19  1  1  0  0  0  0
 20 23  1  0  0  0  0
 21 24  1  0  0  0  0
 21 20  1  0  0  0  0
 22 21  2  0  0  0  0
 24 25  1  0  0  0  0
 25 26  2  0  0  0  0
 26 27  1  0  0  0  0
 28 26  1  0  0  0  0
 29 28  2  0  0  0  0
 30 29  1  0  0  0  0
 30 24  2  0  0  0  0
M  END
>  <Pose>
1

>  <Score>
-7.112

$$$$
