/Users/jonathanwahrer/Desktop/Msc/3_Semester/Drug_Design_Praktikum/waehrer_HTS_screening/HTS_experiment/out/docking_results/vina_output/4agl/1404_docked.pdbqt
 OpenBabel03212200163D

 26 29  0  0  1  0  0  0  0  0999 V2000
   91.8370   92.9930  -45.5960 Br  0  0  0  0  0  0  0  0  0  0  0  0
   91.6900   94.6090  -44.5910 C   0  0  0  0  0  0  0  0  0  0  0  0
   91.5590   95.8330  -45.2190 C   0  0  0  0  0  3  0  0  0  0  0  0
   91.4490   97.0270  -44.5380 C   0  0  0  0  0  0  0  0  0  0  0  0
   91.4770   96.9370  -43.1430 C   0  0  0  0  0  0  0  0  0  0  0  0
   91.6070   95.7200  -42.5200 C   0  0  0  0  0  3  0  0  0  0  0  0
   91.7160   94.5340  -43.2150 C   0  0  0  0  0  0  0  0  0  0  0  0
   91.8550   93.2410  -42.4860 C   0  0  0  0  0  1  0  0  0  0  0  0
   91.3630   98.1580  -42.4920 O   0  0  0  0  0  0  0  0  0  0  0  0
   91.4410   99.4170  -43.1340 C   0  0  0  0  0  2  0  0  0  0  0  0
   90.6260   99.4000  -44.4700 C   0  0  2  0  0  0  0  0  0  0  0  0
   91.3300   98.3180  -45.2010 C   0  0  0  0  0  0  0  0  0  0  0  0
   91.8420   98.3860  -46.3320 O   0  0  0  0  0  0  0  0  0  0  0  0
   90.5510  100.6140  -45.0790 N   0  0  0  0  0  0  0  0  0  0  0  0
   91.2200  100.9430  -46.2640 C   0  0  0  0  0  2  0  0  0  0  0  0
   92.4550  101.7600  -45.9530 C   0  0  0  0  0  2  0  0  0  0  0  0
   91.9760  102.9860  -45.4320 O   0  0  0  0  0  0  0  0  0  0  0  0
   91.5040  102.6540  -44.1510 C   0  0  0  0  0  2  0  0  0  0  0  0
   90.2780  101.7530  -44.3210 C   0  0  0  0  0  2  0  0  0  0  0  0
   89.2860   98.9250  -44.0350 C   0  0  0  0  0  2  0  0  0  0  0  0
   88.1530   99.2480  -44.8460 N   0  0  0  0  0  0  0  0  0  0  0  0
   87.8890   98.4540  -45.9850 C   0  0  0  0  0  2  0  0  0  0  0  0
   87.2700   97.1090  -45.5750 C   0  0  0  0  0  2  0  0  0  0  0  0
   86.0190   97.4240  -45.0340 O   0  0  0  0  0  0  0  0  0  0  0  0
   86.2560   98.0680  -43.8150 C   0  0  0  0  0  2  0  0  0  0  0  0
   86.9770   99.3700  -43.9820 C   0  0  0  0  0  2  0  0  0  0  0  0
  1  2  1  0  0  0  0
  2  7  1  0  0  0  0
  3  2  2  0  0  0  0
  3  4  1  0  0  0  0
  4  5  2  0  0  0  0
  5  6  1  0  0  0  0
  5  9  1  0  0  0  0
  7  6  2  0  0  0  0
  7  8  1  0  0  0  0
 10  9  1  0  0  0  0
 11 20  1  1  0  0  0
 11 10  1  0  0  0  0
 12  4  1  0  0  0  0
 12 11  1  0  0  0  0
 13 12  2  0  0  0  0
 14 11  1  0  0  0  0
 14 19  1  0  0  0  0
 15 16  1  0  0  0  0
 15 14  1  0  0  0  0
 16 17  1  0  0  0  0
 17 18  1  0  0  0  0
 19 18  1  0  0  0  0
 21 20  1  0  0  0  0
 21 26  1  0  0  0  0
 22 23  1  0  0  0  0
 22 21  1  0  0  0  0
 23 24  1  0  0  0  0
 24 25  1  0  0  0  0
 26 25  1  0  0  0  0
M  END
>  <Pose>
1

>  <Score>
-5.970

$$$$
