/Users/jonathanwahrer/Desktop/Msc/3_Semester/Drug_Design_Praktikum/waehrer_HTS_screening/HTS_experiment/out/docking_results/vina_output/4agl/1415_docked.pdbqt
 OpenBabel03212200173D

 32 35  0  0  1  0  0  0  0  0999 V2000
   92.0640   95.8150  -40.9700 Br  0  0  0  0  0  0  0  0  0  0  0  0
   91.7010   95.8090  -42.8520 C   0  0  0  0  0  0  0  0  0  0  0  0
   91.4560   96.9940  -43.5050 C   0  0  0  0  0  0  0  0  0  0  0  0
   91.1860   97.0330  -44.8830 C   0  0  0  0  0  0  0  0  0  0  0  0
   91.1800   95.8240  -45.5420 C   0  0  0  0  0  3  0  0  0  0  0  0
   91.4210   94.6220  -44.9120 C   0  0  0  0  0  0  0  0  0  0  0  0
   91.6840   94.6090  -43.5610 C   0  0  0  0  0  0  0  0  0  0  0  0
   91.9570   93.3680  -42.7920 C   0  0  0  0  0  1  0  0  0  0  0  0
   91.4060   92.9620  -45.8520 Br  0  0  0  0  0  0  0  0  0  0  0  0
   90.9310   98.3040  -45.5300 C   0  0  0  0  0  0  0  0  0  0  0  0
   90.7950   98.3600  -46.7570 O   0  0  0  0  0  0  0  0  0  0  0  0
   90.8350   99.5270  -44.7140 C   0  0  1  0  0  0  0  0  0  0  0  0
   91.7820   99.3600  -43.5460 C   0  0  0  0  0  2  0  0  0  0  0  0
   91.4720   98.1960  -42.8040 O   0  0  0  0  0  0  0  0  0  0  0  0
   91.1150  100.7850  -45.4780 C   0  0  0  0  0  2  0  0  0  0  0  0
   92.4650  101.1990  -45.5190 N   0  0  0  0  0  4  0  0  0  0  0  0
   92.9910  101.0250  -46.8410 C   0  0  0  0  0  2  0  0  0  0  0  0
   92.4680  101.9720  -47.8610 C   0  0  2  0  0  3  0  0  0  0  0  0
   91.6490  103.1010  -47.3650 C   0  0  0  0  0  2  0  0  0  0  0  0
   91.6040  101.1680  -48.8400 C   0  0  0  0  0  1  0  0  0  0  0  0
   91.8420  103.4920  -45.9510 C   0  0  0  0  0  2  0  0  0  0  0  0
   92.7100  102.5660  -45.1520 C   0  0  0  0  0  2  0  0  0  0  0  0
   93.0430  100.6020  -44.8750 H   0  0  0  0  0  0  0  0  0  0  0  0
   89.4210   99.5550  -44.1700 C   0  0  0  0  0  2  0  0  0  0  0  0
   88.4370  100.0690  -45.0610 N   0  0  0  0  0  4  0  0  0  0  0  0
   87.5530  100.9970  -44.3570 C   0  0  0  0  0  2  0  0  0  0  0  0
   86.2420  100.3720  -43.9820 C   0  0  1  0  0  3  0  0  0  0  0  0
   86.4770   98.9680  -43.4730 C   0  0  0  0  0  2  0  0  0  0  0  0
   85.6870  101.1730  -42.7960 C   0  0  0  0  0  1  0  0  0  0  0  0
   86.9660   98.1420  -44.6220 C   0  0  0  0  0  2  0  0  0  0  0  0
   87.5820   99.0600  -45.6480 C   0  0  0  0  0  2  0  0  0  0  0  0
   88.8750  100.6030  -45.8160 H   0  0  0  0  0  0  0  0  0  0  0  0
  2  1  1  0  0  0  0
  3  2  1  0  0  0  0
  3 14  1  0  0  0  0
  4  3  2  0  0  0  0
  5  6  2  0  0  0  0
  5  4  1  0  0  0  0
  6  7  1  0  0  0  0
  7  2  2  0  0  0  0
  7  8  1  0  0  0  0
  9  6  1  0  0  0  0
 10  4  1  0  0  0  0
 10 12  1  0  0  0  0
 11 10  2  0  0  0  0
 12 15  1  6  0  0  0
 12 24  1  0  0  0  0
 12 13  1  0  0  0  0
 13 14  1  0  0  0  0
 16 15  1  0  0  0  0
 16 22  1  0  0  0  0
 16 23  1  0  0  0  0
 17 16  1  0  0  0  0
 18 20  1  6  0  0  0
 18 19  1  0  0  0  0
 18 17  1  0  0  0  0
 19 21  1  0  0  0  0
 21 22  1  0  0  0  0
 25 26  1  0  0  0  0
 25 24  1  0  0  0  0
 26 27  1  0  0  0  0
 27 28  1  0  0  0  0
 27 29  1  1  0  0  0
 30 28  1  0  0  0  0
 31 25  1  0  0  0  0
 31 30  1  0  0  0  0
 32 25  1  0  0  0  0
M  END
>  <Pose>
1

>  <Score>
-6.109

$$$$
