/Users/jonathanwahrer/Desktop/Msc/3_Semester/Drug_Design_Praktikum/waehrer_HTS_screening/HTS_experiment/out/docking_results/vina_output/4agl/1428_docked.pdbqt
 OpenBabel03212200173D

 37 40  0  0  1  0  0  0  0  0999 V2000
   87.6370   96.2450  -47.3090 Cl  0  0  0  0  0  0  0  0  0  0  0  0
   87.7610   97.2650  -45.8790 C   0  0  0  0  0  0  0  0  0  0  0  0
   88.9130   97.9340  -45.5610 C   0  0  0  0  0  3  0  0  0  0  0  0
   88.9560   98.7190  -44.4310 C   0  0  0  0  0  0  0  0  0  0  0  0
   87.8300   98.8010  -43.6550 C   0  0  0  0  0  0  0  0  0  0  0  0
   86.6560   98.1170  -43.9820 C   0  0  0  0  0  3  0  0  0  0  0  0
   86.6250   97.3430  -45.1040 C   0  0  0  0  0  3  0  0  0  0  0  0
   88.0100   99.6540  -42.5300 N   0  0  0  0  0  0  0  0  0  0  0  0
   89.3250  100.1310  -42.6090 C   0  0  0  0  0  0  0  0  0  0  0  0
   89.8000  100.9400  -41.7460 O   0  0  0  0  0  0  0  0  0  0  0  0
   89.9930   99.5600  -43.7870 C   0  0  2  0  0  0  0  0  0  0  0  0
   90.4100  100.6480  -44.6270 N   0  0  0  0  0  0  0  0  0  0  0  0
   91.8380  100.7170  -44.6220 C   0  0  2  0  0  3  0  0  0  0  0  0
   92.3230   99.8430  -43.5100 C   0  0  0  0  0  2  0  0  0  0  0  0
   91.2070   98.8440  -43.3800 C   0  0  2  0  0  3  0  0  0  0  0  0
   87.3020   99.8840  -41.7830 H   0  0  0  0  0  0  0  0  0  0  0  0
   89.9900  100.5730  -45.5770 H   0  0  0  0  0  0  0  0  0  0  0  0
   91.4910   97.5690  -44.0880 C   0  0  0  0  0  0  0  0  0  0  0  0
   92.0560   97.6730  -45.2030 O   0  0  0  0  0  0  0  0  0  0  0  0
   91.1640   96.3070  -43.5790 N   0  0  0  0  0  0  0  0  0  0  0  0
   90.6980   96.3280  -42.6200 H   0  0  0  0  0  0  0  0  0  0  0  0
   91.3740   95.0500  -44.1490 C   0  0  0  0  0  0  0  0  0  0  0  0
   92.0030   94.0640  -43.4030 C   0  0  0  0  0  0  0  0  0  0  0  0
   92.2420   92.8000  -43.9020 C   0  0  0  0  0  3  0  0  0  0  0  0
   91.8630   92.4560  -45.1750 C   0  0  0  0  0  3  0  0  0  0  0  0
   91.2420   93.4060  -45.9330 C   0  0  0  0  0  0  0  0  0  0  0  0
   91.0070   94.6780  -45.4170 C   0  0  0  0  0  3  0  0  0  0  0  0
   92.4150   94.3340  -42.1100 O   0  0  0  0  0  0  0  0  0  0  0  0
   93.3690   93.5870  -41.4190 C   0  0  0  0  0  1  0  0  0  0  0  0
   90.8440   93.0990  -47.2220 O   0  0  0  0  0  0  0  0  0  0  0  0
   91.0740   91.8330  -47.8130 C   0  0  0  0  0  1  0  0  0  0  0  0
   92.3330  102.1470  -44.4820 C   0  0  0  0  0  2  0  0  0  0  0  0
   91.2720  103.0550  -44.0230 C   0  0  0  0  0  0  0  0  0  0  0  0
   90.4360  103.4990  -44.8250 O   0  0  0  0  0  0  0  0  0  0  0  0
   91.2060  103.4210  -42.6650 N   0  0  0  0  0  0  0  0  0  0  0  0
   90.2830  103.3650  -42.1850 H   0  0  0  0  0  0  0  0  0  0  0  0
   92.0250  103.7490  -42.0980 H   0  0  0  0  0  0  0  0  0  0  0  0
  1  2  1  0  0  0  0
  2  3  2  0  0  0  0
  2  7  1  0  0  0  0
  3  4  1  0  0  0  0
  4  5  2  0  0  0  0
  5  8  1  0  0  0  0
  6  5  1  0  0  0  0
  7  6  2  0  0  0  0
  8 16  1  0  0  0  0
  9  8  1  0  0  0  0
  9 10  2  0  0  0  0
 11  4  1  6  0  0  0
 11 15  1  0  0  0  0
 11  9  1  0  0  0  0
 12 13  1  0  0  0  0
 12 11  1  0  0  0  0
 13 32  1  1  0  0  0
 13 14  1  0  0  0  0
 14 15  1  0  0  0  0
 15 18  1  6  0  0  0
 17 12  1  0  0  0  0
 18 20  1  0  0  0  0
 19 18  2  0  0  0  0
 20 21  1  0  0  0  0
 22 20  1  0  0  0  0
 22 23  1  0  0  0  0
 23 28  1  0  0  0  0
 24 23  2  0  0  0  0
 25 24  1  0  0  0  0
 26 27  1  0  0  0  0
 26 25  2  0  0  0  0
 27 22  2  0  0  0  0
 28 29  1  0  0  0  0
 30 26  1  0  0  0  0
 31 30  1  0  0  0  0
 32 33  1  0  0  0  0
 33 35  1  0  0  0  0
 34 33  2  0  0  0  0
 35 36  1  0  0  0  0
 35 37  1  0  0  0  0
M  END
>  <Pose>
1

>  <Score>
-6.751

$$$$
