/Users/jonathanwahrer/Desktop/Msc/3_Semester/Drug_Design_Praktikum/waehrer_HTS_screening/HTS_experiment/out/docking_results/vina_output/4agl/1432_docked.pdbqt
 OpenBabel03212200173D

 21 24  0  0  0  0  0  0  0  0999 V2000
   91.4850   91.5930  -46.8380 C   0  0  0  0  0  0  0  0  0  0  0  0
   91.0750   92.8430  -47.1050 N   0  0  0  0  0  0  0  0  0  0  0  0
   91.1990   93.6240  -46.0190 N   0  0  0  0  0  0  0  0  0  0  0  0
   91.7010   92.8540  -45.0370 C   0  0  0  0  0  0  0  0  0  0  0  0
   91.8720   91.6190  -45.5440 N   0  0  0  0  0  0  0  0  0  0  0  0
   91.9210   93.4440  -43.8070 C   0  0  0  0  0  0  0  0  0  0  0  0
   91.6420   94.7770  -43.5690 C   0  0  0  0  0  0  0  0  0  0  0  0
   91.9450   95.0970  -42.2930 N   0  0  0  0  0  0  0  0  0  0  0  0
   92.4050   93.9900  -41.7420 N   0  0  0  0  0  0  0  0  0  0  0  0
   92.4090   92.9650  -42.6140 C   0  0  0  0  0  3  0  0  0  0  0  0
   91.7860   96.4130  -41.6770 C   0  0  0  0  0  1  0  0  0  0  0  0
   91.1420   95.4850  -44.5960 N   0  0  0  0  0  0  0  0  0  0  0  0
   90.9250   94.9230  -45.7960 C   0  0  0  0  0  3  0  0  0  0  0  0
   91.5200   90.4120  -47.7440 C   0  0  0  0  0  2  0  0  0  0  0  0
   90.7440   90.6370  -48.9520 N   0  0  0  0  0  0  0  0  0  0  0  0
   89.4990   90.1860  -49.2080 C   0  0  0  0  0  3  0  0  0  0  0  0
   89.1250   90.6270  -50.4750 C   0  0  0  0  0  0  0  0  0  0  0  0
   87.4850   90.3120  -51.3930 Br  0  0  0  0  0  0  0  0  0  0  0  0
   90.1930   91.3540  -50.9560 C   0  0  0  0  0  0  0  0  0  0  0  0
   91.1520   91.3390  -50.0100 N   0  0  0  0  0  0  0  0  0  0  0  0
   90.2100   92.0060  -52.2870 C   0  0  0  0  0  1  0  0  0  0  0  0
  1  5  1  0  0  0  0
  2  1  2  0  0  0  0
  2  3  1  0  0  0  0
  3 13  1  0  0  0  0
  3  4  1  0  0  0  0
  4  6  1  0  0  0  0
  5  4  2  0  0  0  0
  6  7  2  0  0  0  0
  6 10  1  0  0  0  0
  7  8  1  0  0  0  0
  8  9  1  0  0  0  0
  8 11  1  0  0  0  0
 10  9  2  0  0  0  0
 12  7  1  0  0  0  0
 13 12  2  0  0  0  0
 14  1  1  0  0  0  0
 15 14  1  0  0  0  0
 16 15  1  0  0  0  0
 17 16  2  0  0  0  0
 18 17  1  0  0  0  0
 19 17  1  0  0  0  0
 19 20  2  0  0  0  0
 20 15  1  0  0  0  0
 21 19  1  0  0  0  0
M  END
>  <Pose>
1

>  <Score>
-6.025

$$$$
