/Users/jonathanwahrer/Desktop/Msc/3_Semester/Drug_Design_Praktikum/waehrer_HTS_screening/HTS_experiment/out/docking_results/vina_output/4agl/1433_docked.pdbqt
 OpenBabel03212200173D

 28 31  0  0  1  0  0  0  0  0999 V2000
   91.0150   94.7360  -46.2230 Br  0  0  0  0  0  0  0  0  0  0  0  0
   91.3400   95.4320  -44.4890 C   0  0  0  0  0  0  0  0  0  0  0  0
   91.1100   96.7880  -44.2330 C   0  0  0  0  0  0  0  0  0  0  0  0
   91.3230   97.3240  -42.9860 C   0  0  0  0  0  0  0  0  0  0  0  0
   91.7710   96.4790  -41.9990 C   0  0  0  0  0  3  0  0  0  0  0  0
   92.0080   95.1250  -42.2260 C   0  0  0  0  0  0  0  0  0  0  0  0
   91.7840   94.5930  -43.4990 C   0  0  0  0  0  0  0  0  0  0  0  0
   92.0290   93.1460  -43.7530 C   0  0  0  0  0  1  0  0  0  0  0  0
   92.5130   94.2560  -41.1300 C   0  0  0  0  0  1  0  0  0  0  0  0
   91.0690   98.7450  -42.6140 C   0  0  2  0  0  3  0  0  0  0  0  0
   90.7620   99.6460  -43.7710 C   0  0  2  0  0  0  0  0  0  0  0  0
   91.2750   98.9970  -45.0440 C   0  0  0  0  0  2  0  0  0  0  0  0
   90.6680   97.6870  -45.1920 O   0  0  0  0  0  0  0  0  0  0  0  0
   91.5230  100.8580  -43.5560 N   0  0  0  0  0  0  0  0  0  0  0  0
   90.7580  101.9240  -43.0010 C   0  0  0  0  0  2  0  0  0  0  0  0
   91.3680  103.2910  -43.1230 C   0  0  0  0  0  2  0  0  0  0  0  0
   92.0450  103.5280  -44.2880 O   0  0  0  0  0  0  0  0  0  0  0  0
   93.0490  102.5570  -44.4070 C   0  0  0  0  0  2  0  0  0  0  0  0
   92.2620  101.2560  -44.7170 C   0  0  0  0  0  2  0  0  0  0  0  0
   89.3270   99.9010  -44.0350 C   0  0  0  0  0  2  0  0  0  0  0  0
   88.2890   99.3600  -43.2850 N   0  0  0  0  0  0  0  0  0  0  0  0
   87.3450  100.4560  -42.8750 C   0  0  0  0  0  2  0  0  0  0  0  0
   86.8510  101.2090  -44.0540 C   0  0  0  0  0  2  0  0  0  0  0  0
   86.7370  100.4740  -45.2040 O   0  0  0  0  0  0  0  0  0  0  0  0
   86.5710   99.1300  -45.0430 C   0  0  0  0  0  2  0  0  0  0  0  0
   87.3350   98.4800  -43.9340 C   0  0  0  0  0  2  0  0  0  0  0  0
   92.2340   99.2090  -41.9280 O   0  0  0  0  0  0  0  0  0  0  0  0
   92.0100  100.0990  -41.5580 H   0  0  0  0  0  0  0  0  0  0  0  0
  1  2  1  0  0  0  0
  2  3  2  0  0  0  0
  2  7  1  0  0  0  0
  3  4  1  0  0  0  0
  4 10  1  0  0  0  0
  4  5  2  0  0  0  0
  6  5  1  0  0  0  0
  6  9  1  0  0  0  0
  7  6  2  0  0  0  0
  8  7  1  0  0  0  0
 10 27  1  6  0  0  0
 11 20  1  6  0  0  0
 11 14  1  0  0  0  0
 11 10  1  0  0  0  0
 12 11  1  0  0  0  0
 13 12  1  0  0  0  0
 13  3  1  0  0  0  0
 14 15  1  0  0  0  0
 16 15  1  0  0  0  0
 17 16  1  0  0  0  0
 18 17  1  0  0  0  0
 19 18  1  0  0  0  0
 19 14  1  0  0  0  0
 20 21  1  0  0  0  0
 21 22  1  0  0  0  0
 23 22  1  0  0  0  0
 24 25  1  0  0  0  0
 24 23  1  0  0  0  0
 25 26  1  0  0  0  0
 26 21  1  0  0  0  0
 27 28  1  0  0  0  0
M  END
>  <Pose>
1

>  <Score>
-6.107

$$$$
