/Users/jonathanwahrer/Desktop/Msc/3_Semester/Drug_Design_Praktikum/waehrer_HTS_screening/HTS_experiment/out/docking_results/vina_output/4agl/1434_docked.pdbqt
 OpenBabel03212200183D

 28 31  0  0  1  0  0  0  0  0999 V2000
   91.1830   98.1890  -44.9100 C   0  0  0  0  0  0  0  0  0  0  0  0
   92.4320   97.8050  -45.1510 O   0  0  0  0  0  0  0  0  0  0  0  0
   91.0060   99.5630  -44.8670 N   0  0  0  0  0  0  0  0  0  0  0  0
   89.8070  100.2850  -44.6300 C   0  0  0  0  0  2  0  0  0  0  0  0
   89.8550  100.9320  -43.2450 C   0  0  0  0  0  2  0  0  0  0  0  0
   91.2890  101.3070  -42.9090 C   0  0  1  0  0  0  0  0  0  0  0  0
   91.2010  102.5320  -42.1330 N   0  0  0  0  0  0  0  0  0  0  0  0
   91.0800  102.1300  -40.7520 C   0  0  0  0  0  0  0  0  0  0  0  0
   90.6660  102.8480  -39.8080 O   0  0  0  0  0  0  0  0  0  0  0  0
   91.5190  100.7610  -40.6680 N   0  0  0  0  0  0  0  0  0  0  0  0
   91.9000  100.3410  -41.9720 C   0  0  0  0  0  0  0  0  0  0  0  0
   92.6130   99.3430  -42.2310 O   0  0  0  0  0  0  0  0  0  0  0  0
   92.1170  101.5760  -44.1260 C   0  0  0  0  0  2  0  0  0  0  0  0
   92.1900  100.4300  -45.0820 C   0  0  0  0  0  2  0  0  0  0  0  0
   91.2200  103.5110  -42.4870 H   0  0  0  0  0  0  0  0  0  0  0  0
   91.5500  100.1920  -39.8110 H   0  0  0  0  0  0  0  0  0  0  0  0
   90.2950   97.0560  -44.7450 C   0  0  0  0  0  2  0  0  0  0  0  0
   90.8240   95.7370  -44.7210 N   0  0  0  0  0  0  0  0  0  0  0  0
   91.4520   95.2030  -43.6320 C   0  0  0  0  0  0  0  0  0  0  0  0
   91.8250   93.9150  -43.9160 C   0  0  0  0  0  0  0  0  0  0  0  0
   91.7430   95.7390  -42.3770 C   0  0  0  0  0  3  0  0  0  0  0  0
   91.4190   93.6590  -45.2020 C   0  0  0  0  0  0  0  0  0  0  0  0
   92.4860   93.1610  -42.9580 C   0  0  0  0  0  3  0  0  0  0  0  0
   91.7080   91.9820  -46.0730 Br  0  0  0  0  0  0  0  0  0  0  0  0
   90.8060   94.7830  -45.6810 C   0  0  0  0  0  0  0  0  0  0  0  0
   90.2150   94.9430  -47.0290 C   0  0  0  0  0  1  0  0  0  0  0  0
   92.7690   93.6980  -41.7230 C   0  0  0  0  0  3  0  0  0  0  0  0
   92.4050   94.9800  -41.4200 C   0  0  0  0  0  3  0  0  0  0  0  0
  1  3  1  0  0  0  0
  1 17  1  0  0  0  0
  2  1  2  0  0  0  0
  3  4  1  0  0  0  0
  4  5  1  0  0  0  0
  5  6  1  0  0  0  0
  6 13  1  6  0  0  0
  6  7  1  0  0  0  0
  6 11  1  0  0  0  0
  7  8  1  0  0  0  0
  8 10  1  0  0  0  0
  8  9  2  0  0  0  0
 10 16  1  0  0  0  0
 11 10  1  0  0  0  0
 12 11  2  0  0  0  0
 14  3  1  0  0  0  0
 14 13  1  0  0  0  0
 15  7  1  0  0  0  0
 17 18  1  0  0  0  0
 18 19  1  0  0  0  0
 19 21  1  0  0  0  0
 20 19  2  0  0  0  0
 20 23  1  0  0  0  0
 21 28  2  0  0  0  0
 22 20  1  0  0  0  0
 23 27  2  0  0  0  0
 24 22  1  0  0  0  0
 25 22  2  0  0  0  0
 25 18  1  0  0  0  0
 26 25  1  0  0  0  0
 27 28  1  0  0  0  0
M  END
>  <Pose>
1

>  <Score>
-6.661

$$$$
