/Users/jonathanwahrer/Desktop/Msc/3_Semester/Drug_Design_Praktikum/waehrer_HTS_screening/HTS_experiment/out/docking_results/vina_output/4agl/1436_docked.pdbqt
 OpenBabel03212200183D

 33 36  0  0  0  0  0  0  0  0999 V2000
   91.7380  100.8660  -43.0050 O   0  0  0  0  0  0  0  0  0  0  0  0
   92.1370   99.5760  -43.1230 C   0  0  0  0  0  2  0  0  0  0  0  0
   91.3460   98.4530  -42.5930 C   0  0  0  0  0  2  0  0  0  0  0  0
   91.3520   97.2210  -43.3080 N   0  0  0  0  0  0  0  0  0  0  0  0
   90.9970   96.9270  -44.5570 C   0  0  0  0  0  0  0  0  0  0  0  0
   90.2320   98.1050  -45.8550 Br  0  0  0  0  0  0  0  0  0  0  0  0
   91.1990   95.6170  -44.8330 N   0  0  0  0  0  0  0  0  0  0  0  0
   91.6910   95.0770  -43.7270 C   0  0  0  0  0  0  0  0  0  0  0  0
   91.7950   96.0550  -42.7620 C   0  0  0  0  0  0  0  0  0  0  0  0
   92.0720   93.8050  -43.4210 N   0  0  0  0  0  0  0  0  0  0  0  0
   92.2720   95.7820  -41.4960 C   0  0  0  0  0  0  0  0  0  0  0  0
   92.6370   94.4910  -41.2520 N   0  0  0  0  0  0  0  0  0  0  0  0
   92.3710   96.6590  -40.6020 O   0  0  0  0  0  0  0  0  0  0  0  0
   92.5320   93.5450  -42.1990 C   0  0  0  0  0  0  0  0  0  0  0  0
   92.9980   94.2720  -40.2990 H   0  0  0  0  0  0  0  0  0  0  0  0
   92.8780   92.3550  -41.9450 O   0  0  0  0  0  0  0  0  0  0  0  0
   91.9790   92.7480  -44.4080 C   0  0  0  0  0  1  0  0  0  0  0  0
   91.2830  101.3690  -44.2120 C   0  0  0  0  0  2  0  0  0  0  0  0
   89.9670  102.0550  -43.9950 C   0  0  0  0  0  2  0  0  0  0  0  0
   88.9170  101.4610  -44.7610 N   0  0  0  0  0  0  0  0  0  0  0  0
   88.0510  100.5380  -44.3210 C   0  0  0  0  0  0  0  0  0  0  0  0
   87.2180  100.2270  -45.3500 C   0  0  0  0  0  0  0  0  0  0  0  0
   87.8910   99.9200  -43.0970 C   0  0  0  0  0  0  0  0  0  0  0  0
   87.5970  100.9650  -46.3900 N   0  0  0  0  0  0  0  0  0  0  0  0
   86.2430   99.3180  -45.1760 N   0  0  0  0  0  0  0  0  0  0  0  0
   88.6440  101.7410  -46.0640 C   0  0  0  0  0  0  0  0  0  0  0  0
   89.6000  102.9890  -47.1300 Br  0  0  0  0  0  0  0  0  0  0  0  0
   86.1060   98.7350  -43.9880 C   0  0  0  0  0  0  0  0  0  0  0  0
   85.3470   98.9740  -46.2600 C   0  0  0  0  0  1  0  0  0  0  0  0
   85.1870   97.8860  -43.8390 O   0  0  0  0  0  0  0  0  0  0  0  0
   86.9080   99.0250  -42.9710 N   0  0  0  0  0  0  0  0  0  0  0  0
   86.7850   98.5560  -42.0470 H   0  0  0  0  0  0  0  0  0  0  0  0
   88.6380  100.1700  -42.0970 O   0  0  0  0  0  0  0  0  0  0  0  0
  2  1  1  0  0  0  0
  2  3  1  0  0  0  0
  4  9  1  0  0  0  0
  4  3  1  0  0  0  0
  5  4  1  0  0  0  0
  6  5  1  0  0  0  0
  7  5  2  0  0  0  0
  7  8  1  0  0  0  0
  8 10  1  0  0  0  0
  8  9  2  0  0  0  0
  9 11  1  0  0  0  0
 10 14  1  0  0  0  0
 11 12  1  0  0  0  0
 11 13  2  0  0  0  0
 12 15  1  0  0  0  0
 14 16  2  0  0  0  0
 14 12  1  0  0  0  0
 17 10  1  0  0  0  0
 18 19  1  0  0  0  0
 18  1  1  0  0  0  0
 20 21  1  0  0  0  0
 20 19  1  0  0  0  0
 21 23  1  0  0  0  0
 22 25  1  0  0  0  0
 22 21  2  0  0  0  0
 23 31  1  0  0  0  0
 23 33  2  0  0  0  0
 24 26  2  0  0  0  0
 24 22  1  0  0  0  0
 25 28  1  0  0  0  0
 26 20  1  0  0  0  0
 27 26  1  0  0  0  0
 28 30  2  0  0  0  0
 28 31  1  0  0  0  0
 29 25  1  0  0  0  0
 31 32  1  0  0  0  0
M  END
>  <Pose>
1

>  <Score>
-6.056

$$$$
