/Users/jonathanwahrer/Desktop/Msc/3_Semester/Drug_Design_Praktikum/waehrer_HTS_screening/HTS_experiment/out/docking_results/vina_output/4agl/1466_docked.pdbqt
 OpenBabel03212200203D

 29 32  0  0  0  0  0  0  0  0999 V2000
   90.4260   97.8370  -44.2360 N   0  0  0  0  0  0  0  0  0  0  0  0
   89.7050   97.7370  -45.3410 N   0  0  0  0  0  0  0  0  0  0  0  0
   89.8680   96.5430  -45.8940 N   0  0  0  0  0  0  0  0  0  0  0  0
   90.7180   95.8200  -45.1470 C   0  0  0  0  0  0  0  0  0  0  0  0
   91.0650   96.6450  -44.1030 C   0  0  0  0  0  3  0  0  0  0  0  0
   90.5350   98.9820  -43.3250 C   0  0  0  0  0  2  0  0  0  0  0  0
   92.0100   99.1490  -43.0380 C   0  0  0  0  0  2  0  0  0  0  0  0
   92.2170   99.7170  -41.7140 N   0  0  0  0  0  0  0  0  0  0  0  0
   92.7320  101.0370  -41.6270 C   0  0  0  0  0  0  0  0  0  0  0  0
   92.9960  101.6840  -42.6930 O   0  0  0  0  0  0  0  0  0  0  0  0
   91.9960   99.1770  -40.8540 H   0  0  0  0  0  0  0  0  0  0  0  0
   92.9770  101.7020  -40.3550 C   0  0  0  0  0  0  0  0  0  0  0  0
   94.2290  101.6930  -39.8110 C   0  0  0  0  0  3  0  0  0  0  0  0
   94.5570  102.2770  -38.6440 N   0  0  0  0  0  0  0  0  0  0  0  0
   93.5900  102.9210  -37.9500 C   0  0  0  0  0  3  0  0  0  0  0  0
   92.3050  102.9670  -38.4420 C   0  0  0  0  0  0  0  0  0  0  0  0
   90.9720  103.8870  -37.4290 Br  0  0  0  0  0  0  0  0  0  0  0  0
   91.9830  102.3570  -39.6540 C   0  0  0  0  0  3  0  0  0  0  0  0
   91.1750   94.4630  -45.3860 C   0  0  0  0  0  0  0  0  0  0  0  0
   91.0370   93.7450  -46.5150 N   0  0  0  0  0  0  0  0  0  0  0  0
   91.5900   92.5340  -46.3410 C   0  0  0  0  0  0  0  0  0  0  0  0
   92.0680   92.5280  -45.0870 N   0  0  0  0  0  0  0  0  0  0  0  0
   91.8060   93.6800  -44.5510 O   0  0  0  0  0  0  0  0  0  0  0  0
   91.6590   91.4340  -47.3280 C   0  0  0  0  0  0  0  0  0  0  0  0
   90.6330   91.2550  -48.2250 C   0  0  0  0  0  3  0  0  0  0  0  0
   90.6850   90.2570  -49.1280 N   0  0  0  0  0  0  0  0  0  0  0  0
   91.7170   89.3930  -49.2090 C   0  0  0  0  0  3  0  0  0  0  0  0
   92.7440   89.5820  -48.3040 C   0  0  0  0  0  3  0  0  0  0  0  0
   92.7310   90.5840  -47.3690 C   0  0  0  0  0  3  0  0  0  0  0  0
  1  5  1  0  0  0  0
  1  6  1  0  0  0  0
  2  1  1  0  0  0  0
  3  2  2  0  0  0  0
  3  4  1  0  0  0  0
  4  5  2  0  0  0  0
  6  7  1  0  0  0  0
  7  8  1  0  0  0  0
  8  9  1  0  0  0  0
  8 11  1  0  0  0  0
  9 12  1  0  0  0  0
 10  9  2  0  0  0  0
 12 13  2  0  0  0  0
 12 18  1  0  0  0  0
 13 14  1  0  0  0  0
 14 15  2  0  0  0  0
 16 15  1  0  0  0  0
 16 17  1  0  0  0  0
 18 16  2  0  0  0  0
 19  4  1  0  0  0  0
 19 23  1  0  0  0  0
 20 21  1  0  0  0  0
 20 19  2  0  0  0  0
 21 22  2  0  0  0  0
 22 23  1  0  0  0  0
 24 21  1  0  0  0  0
 25 24  2  0  0  0  0
 26 25  1  0  0  0  0
 27 26  2  0  0  0  0
 27 28  1  0  0  0  0
 28 29  2  0  0  0  0
 29 24  1  0  0  0  0
M  END
>  <Pose>
1

>  <Score>
-6.882

$$$$
