/Users/jonathanwahrer/Desktop/Msc/3_Semester/Drug_Design_Praktikum/waehrer_HTS_screening/HTS_experiment/out/docking_results/vina_output/4agl/1471_docked.pdbqt
 OpenBabel03212200203D

 31 34  0  0  0  0  0  0  0  0999 V2000
   90.7070   96.6520  -44.7230 C   0  0  0  0  0  0  0  0  0  0  0  0
   90.6800   95.6550  -45.6590 C   0  0  0  0  0  2  0  0  0  0  0  0
   91.1220   94.3790  -45.4380 N   0  0  0  0  0  0  0  0  0  0  0  0
   91.6060   94.1030  -44.2310 C   0  0  0  0  0  3  0  0  0  0  0  0
   91.6730   95.0340  -43.2290 C   0  0  0  0  0  0  0  0  0  0  0  0
   91.1990   96.3820  -43.4800 C   0  0  0  0  0  0  0  0  0  0  0  0
   91.3860   97.0620  -42.3340 N   0  0  0  0  0  2  0  0  0  0  0  0
   91.9210   96.2700  -41.4200 N   0  0  0  0  0  0  0  0  0  0  0  0
   92.1100   95.0400  -41.9160 C   0  0  0  0  0  0  0  0  0  0  0  0
   92.5940   94.0110  -41.3530 O   0  0  0  0  0  0  0  0  0  0  0  0
   92.1830   96.5120  -40.4240 H   0  0  0  0  0  0  0  0  0  0  0  0
   90.2150   97.9830  -45.0420 C   0  0  0  0  0  0  0  0  0  0  0  0
   91.0750   99.0210  -45.4630 N   0  0  0  0  0  0  0  0  0  0  0  0
   90.6200  100.3470  -45.7870 C   0  0  0  0  0  2  0  0  0  0  0  0
   92.4850   98.7520  -45.5810 C   0  0  0  0  0  2  0  0  0  0  0  0
   91.5800  101.3360  -45.1740 C   0  0  0  0  0  2  0  0  0  0  0  0
   92.4400  100.7520  -44.1780 N   0  0  0  0  0  0  0  0  0  0  0  0
   93.1560   99.4890  -44.4140 C   0  0  0  0  0  2  0  0  0  0  0  0
   88.9690   98.1690  -44.9230 O   0  0  0  0  0  0  0  0  0  0  0  0
   92.6380  101.3650  -42.9260 C   0  0  0  0  0  0  0  0  0  0  0  0
   91.7090  101.2700  -41.9130 C   0  0  0  0  0  0  0  0  0  0  0  0
   90.2220  100.3560  -42.1820 Cl  0  0  0  0  0  0  0  0  0  0  0  0
   91.9150  101.8760  -40.6920 C   0  0  0  0  0  3  0  0  0  0  0  0
   93.0690  102.5880  -40.4780 C   0  0  0  0  0  3  0  0  0  0  0  0
   94.0370  102.7070  -41.4810 C   0  0  0  0  0  3  0  0  0  0  0  0
   93.7810  102.0790  -42.6900 C   0  0  0  0  0  3  0  0  0  0  0  0
   91.0820   93.4060  -46.5190 C   0  0  0  0  0  3  0  0  0  0  0  0
   91.5130   92.0490  -46.1810 C   0  0  0  0  0  3  0  0  0  0  0  0
   91.3800   90.8940  -47.0710 C   0  0  0  0  0  2  0  0  0  0  0  0
   92.3020   90.6000  -48.0020 O   0  0  0  0  0  0  0  0  0  0  0  0
   93.4180   89.9120  -47.7510 C   0  0  0  0  0  1  0  0  0  0  0  0
  1  6  2  0  0  0  0
  2  3  1  0  0  0  0
  2  1  1  0  0  0  0
  3  4  1  0  0  0  0
  4  5  2  0  0  0  0
  5  9  1  0  0  0  0
  6  5  1  0  0  0  0
  6  7  1  0  0  0  0
  7  8  1  0  0  0  0
  8 11  1  0  0  0  0
  9  8  1  0  0  0  0
  9 10  2  0  0  0  0
 12 19  2  0  0  0  0
 12  1  1  0  0  0  0
 13 12  1  0  0  0  0
 14 13  1  0  0  0  0
 14 16  1  0  0  0  0
 15 13  1  0  0  0  0
 15 18  1  0  0  0  0
 16 17  1  0  0  0  0
 17 20  1  0  0  0  0
 18 17  1  0  0  0  0
 20 26  2  0  0  0  0
 20 21  1  0  0  0  0
 21 23  2  0  0  0  0
 22 21  1  0  0  0  0
 23 24  1  0  0  0  0
 25 24  2  0  0  0  0
 26 25  1  0  0  0  0
 27 28  2  0  0  0  0
 27  3  1  0  0  0  0
 29 28  1  0  0  0  0
 30 31  1  0  0  0  0
 30 29  1  0  0  0  0
M  END
>  <Pose>
1

>  <Score>
-6.878

$$$$
