/Users/jonathanwahrer/Desktop/Msc/3_Semester/Drug_Design_Praktikum/waehrer_HTS_screening/HTS_experiment/out/docking_results/vina_output/4agl/1491_docked.pdbqt
 OpenBabel03212200223D

 34 38  0  0  0  0  0  0  0  0999 V2000
   88.0240  102.6630  -43.1690 F   0  0  0  0  0  0  0  0  0  0  0  0
   89.1230  102.5230  -42.4060 C   0  0  0  0  0  0  0  0  0  0  0  0
   89.2420  103.4770  -41.3990 C   0  0  0  0  0  3  0  0  0  0  0  0
   90.3140  103.4510  -40.5360 C   0  0  0  0  0  0  0  0  0  0  0  0
   91.2530  102.4610  -40.6990 C   0  0  0  0  0  0  0  0  0  0  0  0
   91.1160  101.5160  -41.7110 C   0  0  0  0  0  3  0  0  0  0  0  0
   90.0560  101.5310  -42.5770 C   0  0  0  0  0  0  0  0  0  0  0  0
   92.2930  102.4550  -39.8410 N   0  0  0  0  0  0  0  0  0  0  0  0
   92.4300  103.3660  -38.8610 C   0  0  0  0  0  3  0  0  0  0  0  0
   91.5070  104.3710  -38.6710 C   0  0  0  0  0  0  0  0  0  0  0  0
   90.4290  104.4140  -39.5240 C   0  0  0  0  0  0  0  0  0  0  0  0
   89.5520  105.3020  -39.4060 O   0  0  0  0  0  0  0  0  0  0  0  0
   89.9580  100.5720  -43.5850 N   0  0  0  0  0  4  0  0  0  0  0  0
   89.5740   99.2520  -43.1550 C   0  0  0  0  0  2  0  0  0  0  0  0
   89.3630   98.3400  -44.3870 C   0  0  0  0  0  2  0  0  0  0  0  0
   90.6240   98.2500  -45.0100 N   0  0  0  0  0  0  0  0  0  0  0  0
   91.0030   99.5860  -45.6160 C   0  0  0  0  0  2  0  0  0  0  0  0
   91.5410   97.2600  -45.1210 C   0  0  0  0  0  0  0  0  0  0  0  0
   91.1140  100.4730  -44.4140 C   0  0  0  0  0  2  0  0  0  0  0  0
   92.5850   97.5420  -45.8610 O   0  0  0  0  0  0  0  0  0  0  0  0
   89.1690  100.8950  -44.2260 H   0  0  0  0  0  0  0  0  0  0  0  0
   91.5780   95.9350  -44.5670 C   0  0  0  0  0  0  0  0  0  0  0  0
   91.5030   94.7960  -45.3000 C   0  0  0  0  0  3  0  0  0  0  0  0
   91.5990   93.5340  -44.7260 C   0  0  0  0  0  0  0  0  0  0  0  0
   91.7720   93.4280  -43.3700 C   0  0  0  0  0  3  0  0  0  0  0  0
   91.4990   92.0800  -45.7220 Cl  0  0  0  0  0  0  0  0  0  0  0  0
   91.8510   94.5430  -42.5850 C   0  0  0  0  0  3  0  0  0  0  0  0
   91.7550   95.7660  -43.1780 C   0  0  0  0  0  3  0  0  0  0  0  0
   93.2850  101.3910  -40.0320 C   0  0  0  0  0  3  0  0  0  0  0  0
   94.5570  101.4040  -39.3020 C   0  0  0  0  0  2  0  0  0  0  0  0
   94.6190  101.8900  -40.6810 C   0  0  0  0  0  2  0  0  0  0  0  0
   91.6720  105.3620  -37.5910 C   0  0  0  0  0  0  0  0  0  0  0  0
   90.9270  105.3980  -36.5990 O   0  0  0  0  0  1  0  0  0  0  0  0
   92.6980  106.2740  -37.7020 O   0  0  0  0  0  0  0  0  0  0  0  0
  1  2  1  0  0  0  0
  2  3  1  0  0  0  0
  3  4  2  0  0  0  0
  4 11  1  0  0  0  0
  5  4  1  0  0  0  0
  5  8  1  0  0  0  0
  6  5  2  0  0  0  0
  7  2  2  0  0  0  0
  7  6  1  0  0  0  0
  8  9  1  0  0  0  0
  9 10  2  0  0  0  0
 10 32  1  0  0  0  0
 11 12  2  0  0  0  0
 11 10  1  0  0  0  0
 13 14  1  0  0  0  0
 13  7  1  0  0  0  0
 15 14  1  0  0  0  0
 16 15  1  0  0  0  0
 17 16  1  0  0  0  0
 17 19  1  0  0  0  0
 18 16  1  0  0  0  0
 18 22  1  0  0  0  0
 19 13  1  0  0  0  0
 20 18  2  0  0  0  0
 21 13  1  0  0  0  0
 22 28  1  0  0  0  0
 23 24  1  0  0  0  0
 23 22  2  0  0  0  0
 24 25  2  0  0  0  0
 25 27  1  0  0  0  0
 26 24  1  0  0  0  0
 28 27  2  0  0  0  0
 29  8  1  0  0  0  0
 29 30  1  0  0  0  0
 31 29  1  0  0  0  0
 31 30  1  0  0  0  0
 32 33  1  0  0  0  0
 34 32  2  0  0  0  0
M  END
>  <Pose>
1

>  <Score>
-6.297

$$$$
