/Users/jonathanwahrer/Desktop/Msc/3_Semester/Drug_Design_Praktikum/waehrer_HTS_screening/HTS_experiment/out/docking_results/vina_output/4agl/1506_docked.pdbqt
 OpenBabel03212200223D

 32 35  0  0  1  0  0  0  0  0999 V2000
   88.1780   98.9320  -43.4450 N   0  0  0  0  0  0  0  0  0  0  0  0
   89.2680   99.6030  -44.1080 C   0  0  0  0  0  0  0  0  0  0  0  0
   89.0200  100.5450  -44.8770 O   0  0  0  0  0  0  0  0  0  0  0  0
   88.4570   98.1910  -42.8080 H   0  0  0  0  0  0  0  0  0  0  0  0
   90.6760   99.1940  -43.8920 C   0  0  2  0  0  3  0  0  0  0  0  0
   91.2110   98.6500  -45.1980 C   0  0  0  0  0  2  0  0  0  0  0  0
   90.5440   97.3140  -45.4330 C   0  0  0  0  0  2  0  0  0  0  0  0
   91.1100   96.4120  -44.4340 N   0  0  0  0  0  0  0  0  0  0  0  0
   91.4370   96.9000  -43.1380 C   0  0  0  0  0  2  0  0  0  0  0  0
   90.8540   98.2200  -42.7870 C   0  0  0  0  0  2  0  0  0  0  0  0
   91.3100   95.0640  -44.8120 C   0  0  0  0  0  0  0  0  0  0  0  0
   90.8780   94.5600  -45.9840 N   0  0  0  0  0  0  0  0  0  0  0  0
   91.0550   93.3040  -46.3500 N   0  0  0  0  0  0  0  0  0  0  0  0
   90.7050   92.6420  -47.4480 N   0  0  0  0  0  0  0  0  0  0  0  0
   91.6870   92.4150  -45.5760 C   0  0  0  0  0  0  0  0  0  0  0  0
   91.0940   91.3970  -47.3760 N   0  0  0  0  0  0  0  0  0  0  0  0
   91.7070   91.2300  -46.2230 N   0  0  0  0  0  0  0  0  0  0  0  0
   92.1550   92.8710  -44.3570 C   0  0  0  0  0  3  0  0  0  0  0  0
   91.9710   94.1840  -43.9720 C   0  0  0  0  0  3  0  0  0  0  0  0
   86.8750   99.3980  -43.7160 C   0  0  0  0  0  2  0  0  0  0  0  0
   85.9240   98.6280  -44.5340 C   0  0  0  0  0  2  0  0  0  0  0  0
   86.4280   97.8020  -45.5630 N   0  0  0  0  0  0  0  0  0  0  0  0
   85.7850   97.0190  -46.5100 C   0  0  0  0  0  0  0  0  0  0  0  0
   84.5390   96.9550  -46.5800 O   0  0  0  0  0  0  0  0  0  0  0  0
   87.5340   97.7370  -45.6570 H   0  0  0  0  0  0  0  0  0  0  0  0
   86.5230   96.2040  -47.5040 C   0  0  0  0  0  0  0  0  0  0  0  0
   85.8250   95.4250  -48.4010 C   0  0  0  0  0  3  0  0  0  0  0  0
   86.4670   94.6600  -49.3460 C   0  0  0  0  0  3  0  0  0  0  0  0
   87.8500   94.6680  -49.4010 C   0  0  0  0  0  0  0  0  0  0  0  0
   88.6800   93.6930  -50.6030 Cl  0  0  0  0  0  0  0  0  0  0  0  0
   88.5750   95.4310  -48.5250 C   0  0  0  0  0  3  0  0  0  0  0  0
   87.8910   96.1970  -47.5780 C   0  0  0  0  0  3  0  0  0  0  0  0
  1  4  1  0  0  0  0
  2  1  1  0  0  0  0
  3  2  2  0  0  0  0
  5  2  1  6  0  0  0
  5 10  1  0  0  0  0
  6  5  1  0  0  0  0
  7  6  1  0  0  0  0
  7  8  1  0  0  0  0
  8  9  1  0  0  0  0
  9 10  1  0  0  0  0
 11  8  1  0  0  0  0
 11 19  1  0  0  0  0
 12 11  2  0  0  0  0
 13 12  1  0  0  0  0
 13 15  1  0  0  0  0
 14 16  2  0  0  0  0
 14 13  1  0  0  0  0
 15 18  1  0  0  0  0
 16 17  1  0  0  0  0
 17 15  2  0  0  0  0
 18 19  2  0  0  0  0
 20  1  1  0  0  0  0
 21 20  1  0  0  0  0
 22 21  1  0  0  0  0
 23 22  1  0  0  0  0
 24 23  2  0  0  0  0
 25 22  1  0  0  0  0
 26 23  1  0  0  0  0
 27 26  2  0  0  0  0
 28 27  1  0  0  0  0
 29 28  2  0  0  0  0
 29 31  1  0  0  0  0
 30 29  1  0  0  0  0
 31 32  2  0  0  0  0
 32 26  1  0  0  0  0
M  END
>  <Pose>
1

>  <Score>
-6.256

$$$$
