/Users/jonathanwahrer/Desktop/Msc/3_Semester/Drug_Design_Praktikum/waehrer_HTS_screening/HTS_experiment/out/docking_results/vina_output/4agl/1523_docked.pdbqt
 OpenBabel03212200243D

 25 28  0  0  0  0  0  0  0  0999 V2000
   91.8300   91.2510  -47.4800 C   0  0  0  0  0  0  0  0  0  0  0  0
   92.8030   90.5630  -47.0100 O   0  0  0  0  0  0  0  0  0  0  0  0
   91.1700   90.8450  -48.6390 N   0  0  0  0  0  0  0  0  0  0  0  0
   91.5890   89.6480  -49.3160 C   0  0  0  0  0  2  0  0  0  0  0  0
   90.4860   88.6310  -49.2090 C   0  0  0  0  0  2  0  0  0  0  0  0
   89.2270   89.2590  -49.4900 N   0  0  0  0  0  0  0  0  0  0  0  0
   89.3070   90.5730  -50.1580 C   0  0  0  0  0  2  0  0  0  0  0  0
   90.0600   91.5400  -49.2540 C   0  0  0  0  0  2  0  0  0  0  0  0
   87.9490   88.7810  -49.2020 C   0  0  0  0  0  0  0  0  0  0  0  0
   86.9770   89.5410  -49.6030 O   0  0  0  0  0  0  0  0  0  0  0  0
   91.4900   92.4660  -46.7040 C   0  0  0  0  0  0  0  0  0  0  0  0
   90.7140   93.4900  -47.0880 N   0  0  0  0  0  0  0  0  0  0  0  0
   90.6560   94.3760  -46.1190 N   0  0  0  0  0  0  0  0  0  0  0  0
   91.3850   93.9740  -45.0720 N   0  0  0  0  0  0  0  0  0  0  0  0
   91.9030   92.7880  -45.4330 C   0  0  0  0  0  3  0  0  0  0  0  0
   91.5520   94.6750  -43.8520 C   0  0  0  0  0  0  0  0  0  0  0  0
   91.4940   96.0470  -43.8210 C   0  0  0  0  0  3  0  0  0  0  0  0
   91.6610   96.7230  -42.6040 C   0  0  0  0  0  0  0  0  0  0  0  0
   91.5850   98.6270  -42.5430 Br  0  0  0  0  0  0  0  0  0  0  0  0
   91.8810   96.0320  -41.4420 C   0  0  0  0  0  3  0  0  0  0  0  0
   91.9400   94.6590  -41.4620 C   0  0  0  0  0  3  0  0  0  0  0  0
   91.7720   93.9940  -42.6830 C   0  0  0  0  0  3  0  0  0  0  0  0
   87.5260   87.5620  -48.5230 C   0  0  0  0  0  3  0  0  0  0  0  0
   86.3280   87.4530  -47.6900 C   0  0  0  0  0  2  0  0  0  0  0  0
   86.4380   86.6720  -48.9970 C   0  0  0  0  0  2  0  0  0  0  0  0
  1  2  2  0  0  0  0
  1 11  1  0  0  0  0
  3  1  1  0  0  0  0
  4  5  1  0  0  0  0
  4  3  1  0  0  0  0
  6  5  1  0  0  0  0
  6  9  1  0  0  0  0
  7  6  1  0  0  0  0
  7  8  1  0  0  0  0
  8  3  1  0  0  0  0
  9 23  1  0  0  0  0
 10  9  2  0  0  0  0
 11 15  2  0  0  0  0
 12 11  1  0  0  0  0
 12 13  2  0  0  0  0
 13 14  1  0  0  0  0
 14 16  1  0  0  0  0
 15 14  1  0  0  0  0
 16 17  2  0  0  0  0
 16 22  1  0  0  0  0
 17 18  1  0  0  0  0
 18 19  1  0  0  0  0
 18 20  2  0  0  0  0
 21 20  1  0  0  0  0
 22 21  2  0  0  0  0
 23 24  1  0  0  0  0
 25 23  1  0  0  0  0
 25 24  1  0  0  0  0
M  END
>  <Pose>
1

>  <Score>
-7.219

$$$$
