/Users/jonathanwahrer/Desktop/Msc/3_Semester/Drug_Design_Praktikum/waehrer_HTS_screening/HTS_experiment/out/docking_results/vina_output/4agl/1531_docked.pdbqt
 OpenBabel03212200243D

 27 30  0  0  0  0  0  0  0  0999 V2000
   91.4510   96.8820  -44.0650 N   0  0  0  0  0  0  0  0  0  0  0  0
   91.6310   96.0790  -42.9690 C   0  0  0  0  0  0  0  0  0  0  0  0
   91.6300   94.8230  -43.4200 N   0  0  0  0  0  0  0  0  0  0  0  0
   91.4590   94.7610  -44.7510 C   0  0  0  0  0  0  0  0  0  0  0  0
   91.3450   96.0780  -45.1580 C   0  0  0  0  0  3  0  0  0  0  0  0
   91.8150   93.8880  -42.3150 C   0  0  0  0  0  3  0  0  0  0  0  0
   91.8250   94.7360  -41.0770 C   0  0  0  0  0  3  0  0  0  0  0  0
   91.8200   96.1620  -41.5010 C   0  0  0  0  0  3  0  0  0  0  0  0
   91.4300   98.3050  -44.0700 C   0  0  0  0  0  3  0  0  0  0  0  0
   90.1980   99.0420  -44.2260 C   0  0  0  0  0  0  0  0  0  0  0  0
   90.3430  100.3530  -44.1960 O   0  0  0  0  0  1  0  0  0  0  0  0
   88.8390   98.6100  -44.4090 C   0  0  0  0  0  0  0  0  0  0  0  0
   87.7940   98.8230  -43.5620 C   0  0  0  0  0  3  0  0  0  0  0  0
   86.4850   98.3780  -43.7960 C   0  0  0  0  0  3  0  0  0  0  0  0
   86.2000   97.6770  -44.9420 C   0  0  0  0  0  0  0  0  0  0  0  0
   87.2290   97.4410  -45.8260 C   0  0  0  0  0  0  0  0  0  0  0  0
   84.5700   97.1200  -45.2380 Cl  0  0  0  0  0  0  0  0  0  0  0  0
   86.8870   96.5540  -47.2870 Cl  0  0  0  0  0  0  0  0  0  0  0  0
   88.4850   97.8830  -45.5740 C   0  0  0  0  0  3  0  0  0  0  0  0
   91.3980   93.5900  -45.6260 C   0  0  0  0  0  0  0  0  0  0  0  0
   91.9410   92.3660  -45.3320 C   0  0  0  0  0  3  0  0  0  0  0  0
   91.8400   91.2880  -46.2230 C   0  0  0  0  0  3  0  0  0  0  0  0
   91.1940   91.4030  -47.4340 C   0  0  0  0  0  0  0  0  0  0  0  0
   90.6460   92.6300  -47.7390 C   0  0  0  0  0  3  0  0  0  0  0  0
   90.7460   93.6880  -46.8600 C   0  0  0  0  0  3  0  0  0  0  0  0
   91.0870   90.3450  -48.3260 O   0  0  0  0  0  0  0  0  0  0  0  0
   91.1470   90.5740  -49.7220 C   0  0  0  0  0  1  0  0  0  0  0  0
  1  2  1  0  0  0  0
  2  8  2  0  0  0  0
  3  2  1  0  0  0  0
  3  6  1  0  0  0  0
  4  3  1  0  0  0  0
  5  4  2  0  0  0  0
  5  1  1  0  0  0  0
  6  7  2  0  0  0  0
  8  7  1  0  0  0  0
  9  1  1  0  0  0  0
 10 11  1  0  0  0  0
 10  9  2  0  0  0  0
 12 10  1  0  0  0  0
 12 13  1  0  0  0  0
 14 13  2  0  0  0  0
 15 14  1  0  0  0  0
 16 19  1  0  0  0  0
 16 15  2  0  0  0  0
 17 15  1  0  0  0  0
 18 16  1  0  0  0  0
 19 12  2  0  0  0  0
 20 21  1  0  0  0  0
 20  4  1  0  0  0  0
 22 21  2  0  0  0  0
 23 22  1  0  0  0  0
 24 23  2  0  0  0  0
 24 25  1  0  0  0  0
 25 20  2  0  0  0  0
 26 23  1  0  0  0  0
 27 26  1  0  0  0  0
M  END
>  <Pose>
1

>  <Score>
-7.050

$$$$
