/Users/jonathanwahrer/Desktop/Msc/3_Semester/Drug_Design_Praktikum/waehrer_HTS_screening/HTS_experiment/out/docking_results/vina_output/4agl/1533_docked.pdbqt
 OpenBabel03212200243D

 28 31  0  0  1  0  0  0  0  0999 V2000
   91.4190   94.4350  -45.0900 C   0  0  0  0  0  0  0  0  0  0  0  0
   91.6510   94.4200  -43.7520 N   0  0  0  0  0  0  0  0  0  0  0  0
   91.6710   95.6760  -43.2910 C   0  0  2  0  0  3  0  0  0  0  0  0
   91.4490   96.5520  -44.3180 N   0  0  0  0  0  0  0  0  0  0  0  0
   91.2970   95.7810  -45.4070 C   0  0  0  0  0  3  0  0  0  0  0  0
   91.9340   95.7020  -41.8350 C   0  0  0  0  0  2  0  0  0  0  0  0
   91.5220   94.3150  -41.4280 C   0  0  0  0  0  2  0  0  0  0  0  0
   91.8770   93.4920  -42.6440 C   0  0  0  0  0  2  0  0  0  0  0  0
   91.4390   97.9840  -44.2390 C   0  0  0  0  0  3  0  0  0  0  0  0
   90.2270   98.7540  -44.2970 C   0  0  0  0  0  0  0  0  0  0  0  0
   90.4350  100.0640  -44.1950 O   0  0  0  0  0  1  0  0  0  0  0  0
   88.8320   98.4220  -44.4420 C   0  0  0  0  0  0  0  0  0  0  0  0
   88.4090   97.6400  -45.5410 C   0  0  0  0  0  3  0  0  0  0  0  0
   87.1070   97.2720  -45.7620 C   0  0  0  0  0  0  0  0  0  0  0  0
   86.1770   97.7050  -44.8400 C   0  0  0  0  0  3  0  0  0  0  0  0
   86.5640   98.4680  -43.7610 C   0  0  0  0  0  3  0  0  0  0  0  0
   87.8910   98.8410  -43.5410 C   0  0  0  0  0  3  0  0  0  0  0  0
   86.7050   96.4880  -46.8700 N   0  0  0  0  0  0  0  0  0  0  0  0
   87.5340   96.1950  -47.7370 O   0  0  0  0  0  0  0  0  0  0  0  0
   85.4220   96.0440  -47.0100 O   0  0  0  0  0  0  0  0  0  0  0  0
   91.3060   93.3320  -46.0430 C   0  0  0  0  0  0  0  0  0  0  0  0
   91.9040   92.1310  -45.7340 C   0  0  0  0  0  3  0  0  0  0  0  0
   91.8220   91.0320  -46.5920 C   0  0  0  0  0  3  0  0  0  0  0  0
   91.1250   91.1550  -47.7720 C   0  0  0  0  0  0  0  0  0  0  0  0
   90.5300   92.3420  -48.0850 C   0  0  0  0  0  0  0  0  0  0  0  0
   91.0320   89.7540  -48.8410 Cl  0  0  0  0  0  0  0  0  0  0  0  0
   89.6520   92.4630  -49.5940 Cl  0  0  0  0  0  0  0  0  0  0  0  0
   90.6210   93.4280  -47.2200 C   0  0  0  0  0  3  0  0  0  0  0  0
  1  2  1  0  0  0  0
  2  3  1  0  0  0  0
  2  8  1  0  0  0  0
  3  6  1  6  0  0  0
  4  9  1  0  0  0  0
  4  3  1  0  0  0  0
  5  1  2  0  0  0  0
  5  4  1  0  0  0  0
  6  7  1  0  0  0  0
  8  7  1  0  0  0  0
 10  9  2  0  0  0  0
 10 11  1  0  0  0  0
 12 10  1  0  0  0  0
 12 17  1  0  0  0  0
 13 12  2  0  0  0  0
 14 13  1  0  0  0  0
 14 15  2  0  0  0  0
 15 16  1  0  0  0  0
 16 17  2  0  0  0  0
 18 14  1  0  0  0  0
 19 18  2  0  0  0  0
 20 18  2  0  0  0  0
 21 22  1  0  0  0  0
 21  1  1  0  0  0  0
 23 22  2  0  0  0  0
 24 23  1  0  0  0  0
 25 24  2  0  0  0  0
 25 28  1  0  0  0  0
 26 24  1  0  0  0  0
 27 25  1  0  0  0  0
 28 21  2  0  0  0  0
M  END
>  <Pose>
1

>  <Score>
-6.971

$$$$
