/Users/jonathanwahrer/Desktop/Msc/3_Semester/Drug_Design_Praktikum/waehrer_HTS_screening/HTS_experiment/out/docking_results/vina_output/4agl/1535_docked.pdbqt
 OpenBabel03212200253D

 28 31  0  0  1  0  0  0  0  0999 V2000
   91.9430  100.4100  -42.8150 C   0  0  0  0  0  0  0  0  0  0  0  0
   90.6130  100.2330  -42.8650 N   0  0  0  0  0  0  0  0  0  0  0  0
   90.3090   99.3840  -43.8680 C   0  0  2  0  0  3  0  0  0  0  0  0
   91.4580   99.0150  -44.4620 N   0  0  0  0  0  0  0  0  0  0  0  0
   92.5020   99.6290  -43.8380 C   0  0  0  0  0  3  0  0  0  0  0  0
   88.8420   99.1900  -43.9420 C   0  0  0  0  0  2  0  0  0  0  0  0
   88.4860   99.4000  -42.4920 C   0  0  0  0  0  2  0  0  0  0  0  0
   89.3650  100.6290  -42.2020 C   0  0  0  0  0  2  0  0  0  0  0  0
   91.5780   98.1600  -45.5860 C   0  0  0  0  0  2  0  0  0  0  0  0
   90.9710   96.8620  -45.6610 C   0  0  2  0  0  3  0  0  0  0  0  0
   89.9140   96.8620  -46.4480 O   0  0  0  0  0  1  0  0  0  0  0  0
   91.2900   95.5920  -45.0540 C   0  0  0  0  0  0  0  0  0  0  0  0
   91.5830   95.4040  -43.7300 C   0  0  0  0  0  3  0  0  0  0  0  0
   91.8810   94.1410  -43.2110 C   0  0  0  0  0  0  0  0  0  0  0  0
   91.8870   93.0530  -44.0240 C   0  0  0  0  0  3  0  0  0  0  0  0
   91.5950   93.2130  -45.3610 C   0  0  0  0  0  3  0  0  0  0  0  0
   91.3010   94.4450  -45.8800 C   0  0  0  0  0  3  0  0  0  0  0  0
   92.1790   94.0120  -41.8200 N   0  0  0  0  0  0  0  0  0  0  0  0
   91.3100   94.3020  -40.9800 O   0  0  0  0  0  0  0  0  0  0  0  0
   93.3900   93.5810  -41.3810 O   0  0  0  0  0  0  0  0  0  0  0  0
   92.7640  101.2240  -41.9170 C   0  0  0  0  0  0  0  0  0  0  0  0
   92.6100  101.1190  -40.5310 C   0  0  0  0  0  3  0  0  0  0  0  0
   93.3630  101.8440  -39.6450 C   0  0  0  0  0  3  0  0  0  0  0  0
   94.3200  102.7210  -40.0940 C   0  0  0  0  0  0  0  0  0  0  0  0
   94.4980  102.8480  -41.4460 C   0  0  0  0  0  0  0  0  0  0  0  0
   95.2770  103.6420  -38.9540 Cl  0  0  0  0  0  0  0  0  0  0  0  0
   95.6890  103.9360  -42.0860 Cl  0  0  0  0  0  0  0  0  0  0  0  0
   93.7140  102.0930  -42.3400 C   0  0  0  0  0  3  0  0  0  0  0  0
  1 21  1  0  0  0  0
  2  1  1  0  0  0  0
  2  8  1  0  0  0  0
  3  6  1  6  0  0  0
  3  2  1  0  0  0  0
  4  3  1  0  0  0  0
  4  5  1  0  0  0  0
  5  1  2  0  0  0  0
  6  7  1  0  0  0  0
  7  8  1  0  0  0  0
  9  4  1  0  0  0  0
 10 11  1  1  0  0  0
 10  9  1  0  0  0  0
 10 12  1  0  0  0  0
 12 13  1  0  0  0  0
 13 14  2  0  0  0  0
 14 18  1  0  0  0  0
 15 14  1  0  0  0  0
 16 15  2  0  0  0  0
 17 16  1  0  0  0  0
 17 12  2  0  0  0  0
 18 20  2  0  0  0  0
 18 19  2  0  0  0  0
 21 22  1  0  0  0  0
 22 23  2  0  0  0  0
 24 23  1  0  0  0  0
 24 26  1  0  0  0  0
 25 24  2  0  0  0  0
 27 25  1  0  0  0  0
 28 21  2  0  0  0  0
 28 25  1  0  0  0  0
M  END
>  <Pose>
1

>  <Score>
-7.211

$$$$
