/Users/jonathanwahrer/Desktop/Msc/3_Semester/Drug_Design_Praktikum/waehrer_HTS_screening/HTS_experiment/out/docking_results/vina_output/4agl/1536_docked.pdbqt
 OpenBabel03212200253D

 31 34  0  0  1  0  0  0  0  0999 V2000
   90.1780   98.9240  -45.2730 S   0  0  0  0  0  0  0  0  0  0  0  0
   91.2290  100.0070  -45.5360 O   0  0  0  0  0  0  0  0  0  0  0  0
   90.0540   98.2240  -46.6280 O   0  0  0  0  0  0  0  0  0  0  0  0
   88.7500   99.6660  -44.8960 N   0  0  0  0  0  0  0  0  0  0  0  0
   88.0620   99.4880  -43.7010 C   0  0  0  0  0  2  0  0  0  0  0  0
   87.0170   98.4180  -43.6800 C   0  0  0  0  0  2  0  0  0  0  0  0
   86.5590   98.1430  -45.1100 C   0  0  2  0  0  3  0  0  0  0  0  0
   86.4550   99.5460  -45.7310 C   0  0  0  0  0  2  0  0  0  0  0  0
   87.8890   99.9480  -46.0380 C   0  0  0  0  0  2  0  0  0  0  0  0
   85.2920   97.4330  -45.1570 C   0  0  0  0  0  0  0  0  0  0  0  0
   84.4190   97.6630  -44.2790 O   0  0  0  0  0  0  0  0  0  0  0  0
   85.0120   96.4970  -46.1570 N   0  0  0  0  0  0  0  0  0  0  0  0
   83.7290   95.7920  -46.2550 C   0  0  0  0  0  2  0  0  0  0  0  0
   85.9910   96.1510  -47.1480 C   0  0  0  0  0  2  0  0  0  0  0  0
   83.9050   94.7350  -47.3250 C   0  0  0  0  0  2  0  0  0  0  0  0
   84.1900   95.3550  -48.6050 N   0  0  0  0  0  0  0  0  0  0  0  0
   85.4020   96.1530  -48.5480 C   0  0  0  0  0  2  0  0  0  0  0  0
   84.2780   94.3630  -49.6550 C   0  0  0  0  0  1  0  0  0  0  0  0
   90.8980   97.8500  -44.1090 C   0  0  0  0  0  0  0  0  0  0  0  0
   91.0920   96.5000  -44.4510 C   0  0  0  0  0  3  0  0  0  0  0  0
   91.6070   95.5830  -43.5720 C   0  0  0  0  0  0  0  0  0  0  0  0
   91.9500   95.9750  -42.3150 C   0  0  0  0  0  0  0  0  0  0  0  0
   91.7850   94.2460  -43.9490 O   0  0  0  0  0  0  0  0  0  0  0  0
   91.7850   97.2800  -41.9250 C   0  0  0  0  0  3  0  0  0  0  0  0
   92.4840   94.9980  -41.4040 N   0  0  0  0  0  0  0  0  0  0  0  0
   91.2600   98.1950  -42.8400 C   0  0  0  0  0  0  0  0  0  0  0  0
   91.1430   99.8650  -42.3140 Cl  0  0  0  0  0  0  0  0  0  0  0  0
   92.6390   93.6560  -41.8330 C   0  0  0  0  0  0  0  0  0  0  0  0
   92.7490   95.2890  -40.4430 H   0  0  0  0  0  0  0  0  0  0  0  0
   93.4190   92.8700  -41.2560 O   0  0  0  0  0  0  0  0  0  0  0  0
   91.8350   93.2130  -43.0010 C   0  0  0  0  0  2  0  0  0  0  0  0
  1  4  1  0  0  0  0
  1 19  1  0  0  0  0
  2  1  2  0  0  0  0
  3  1  2  0  0  0  0
  4  5  1  0  0  0  0
  5  6  1  0  0  0  0
  7 10  1  1  0  0  0
  7  6  1  0  0  0  0
  8  7  1  0  0  0  0
  9  8  1  0  0  0  0
  9  4  1  0  0  0  0
 10 11  2  0  0  0  0
 12 10  1  0  0  0  0
 13 12  1  0  0  0  0
 14 12  1  0  0  0  0
 15 13  1  0  0  0  0
 16 17  1  0  0  0  0
 16 15  1  0  0  0  0
 17 14  1  0  0  0  0
 18 16  1  0  0  0  0
 19 26  1  0  0  0  0
 20 19  2  0  0  0  0
 20 21  1  0  0  0  0
 21 22  2  0  0  0  0
 22 24  1  0  0  0  0
 22 25  1  0  0  0  0
 23 21  1  0  0  0  0
 23 31  1  0  0  0  0
 25 29  1  0  0  0  0
 26 27  1  0  0  0  0
 26 24  2  0  0  0  0
 28 25  1  0  0  0  0
 28 30  2  0  0  0  0
 31 28  1  0  0  0  0
M  END
>  <Pose>
1

>  <Score>
-6.456

$$$$
