/Users/jonathanwahrer/Desktop/Msc/3_Semester/Drug_Design_Praktikum/waehrer_HTS_screening/HTS_experiment/out/docking_results/vina_output/4agl/1548_docked.pdbqt
 OpenBabel03212200253D

 24 27  0  0  1  0  0  0  0  0999 V2000
   91.6390   91.3040  -46.3430 Cl  0  0  0  0  0  0  0  0  0  0  0  0
   91.4920   92.8860  -45.5900 C   0  0  0  0  0  0  0  0  0  0  0  0
   90.8810   93.9460  -46.2240 C   0  0  0  0  0  2  0  0  0  0  0  0
   90.7680   95.1730  -45.6380 N   0  0  0  0  0  0  0  0  0  0  0  0
   91.2510   95.4080  -44.4040 C   0  0  0  0  0  0  0  0  0  0  0  0
   91.1400   96.6270  -43.8190 N   0  0  0  0  0  0  0  0  0  0  0  0
   90.5400   97.6610  -44.4470 C   0  0  0  0  0  0  0  0  0  0  0  0
   90.0390   97.4580  -45.7000 C   0  0  2  0  0  3  0  0  0  0  0  0
   89.3620   98.5700  -46.4410 C   0  0  0  0  0  2  0  0  0  0  0  0
   88.8170   99.4470  -45.3910 N   0  0  0  0  0  0  0  0  0  0  0  0
   89.8160  100.0220  -44.5350 C   0  0  0  0  0  2  0  0  0  0  0  0
   90.4820   98.9440  -43.6980 C   0  0  0  0  0  2  0  0  0  0  0  0
   87.4370   99.6180  -45.3400 C   0  0  0  0  0  0  0  0  0  0  0  0
   86.7130   99.0150  -46.2070 O   0  0  0  0  0  0  0  0  0  0  0  0
   90.1690   96.1990  -46.2690 C   0  0  0  0  0  0  0  0  0  0  0  0
   89.7140   96.0040  -47.4140 O   0  0  0  0  0  0  0  0  0  0  0  0
   91.8670   94.3470  -43.7580 C   0  0  0  0  0  3  0  0  0  0  0  0
   91.9960   93.0970  -44.3250 C   0  0  0  0  0  3  0  0  0  0  0  0
   86.7080  100.4410  -44.3680 C   0  0  0  0  0  0  0  0  0  0  0  0
   87.1090  101.6690  -44.0270 N   0  0  0  0  0  0  0  0  0  0  0  0
   86.4390  102.4120  -43.1400 C   0  0  0  0  0  3  0  0  0  0  0  0
   85.2930  101.9520  -42.5250 C   0  0  0  0  0  3  0  0  0  0  0  0
   84.9050  100.7150  -42.8800 N   0  0  0  0  0  0  0  0  0  0  0  0
   85.5550   99.9540  -43.7610 C   0  0  0  0  0  3  0  0  0  0  0  0
  1  2  1  0  0  0  0
  2 18  2  0  0  0  0
  3  4  1  0  0  0  0
  3  2  1  0  0  0  0
  4  5  1  0  0  0  0
  5  6  1  0  0  0  0
  5 17  2  0  0  0  0
  7  6  2  0  0  0  0
  7 12  1  0  0  0  0
  8  9  1  1  0  0  0
  8  7  1  0  0  0  0
  9 10  1  0  0  0  0
 10 13  1  0  0  0  0
 10 11  1  0  0  0  0
 11 12  1  0  0  0  0
 13 19  1  0  0  0  0
 14 13  2  0  0  0  0
 15  8  1  0  0  0  0
 15  4  1  0  0  0  0
 16 15  2  0  0  0  0
 18 17  1  0  0  0  0
 19 20  2  0  0  0  0
 19 24  1  0  0  0  0
 20 21  1  0  0  0  0
 21 22  2  0  0  0  0
 23 22  1  0  0  0  0
 24 23  2  0  0  0  0
M  END
>  <Pose>
1

>  <Score>
-6.084

$$$$
