/Users/jonathanwahrer/Desktop/Msc/3_Semester/Drug_Design_Praktikum/waehrer_HTS_screening/HTS_experiment/out/docking_results/vina_output/4agl/1553_docked.pdbqt
 OpenBabel03212200263D

 29 32  0  0  1  0  0  0  0  0999 V2000
   90.7020   97.7010  -45.5530 C   0  0  1  0  0  3  0  0  0  0  0  0
   90.9170   98.9480  -44.9220 N   0  0  0  0  0  4  0  0  0  0  0  0
   91.7620   98.9520  -43.7630 C   0  0  2  0  0  3  0  0  0  0  0  0
   91.2260   97.9260  -42.7500 C   0  0  0  0  0  2  0  0  0  0  0  0
   91.3880   96.6320  -43.4400 C   0  0  0  0  0  0  0  0  0  0  0  0
   91.7830   95.3870  -42.9770 C   0  0  0  0  0  0  0  0  0  0  0  0
   91.7650   94.5430  -44.0640 C   0  0  0  0  0  0  0  0  0  0  0  0
   91.3770   95.2230  -45.1540 N   0  0  0  0  0  0  0  0  0  0  0  0
   91.1420   96.5220  -44.7730 C   0  0  0  0  0  0  0  0  0  0  0  0
   92.1270   93.2230  -43.8620 C   0  0  0  0  0  3  0  0  0  0  0  0
   92.4840   92.8170  -42.6010 C   0  0  0  0  0  3  0  0  0  0  0  0
   92.5020   93.6640  -41.5150 C   0  0  0  0  0  3  0  0  0  0  0  0
   92.1400   94.9960  -41.7040 C   0  0  0  0  0  3  0  0  0  0  0  0
   91.3750   99.5970  -45.6390 H   0  0  0  0  0  0  0  0  0  0  0  0
   90.0370   99.4510  -44.6470 H   0  0  0  0  0  0  0  0  0  0  0  0
   91.2570   94.8810  -46.1420 H   0  0  0  0  0  0  0  0  0  0  0  0
   89.2250   97.5240  -45.8050 C   0  0  0  0  0  0  0  0  0  0  0  0
   88.7510   96.7750  -46.8670 C   0  0  0  0  0  0  0  0  0  0  0  0
   87.3760   96.6190  -47.0740 C   0  0  0  0  0  0  0  0  0  0  0  0
   86.7380   95.5840  -48.5500 Br  0  0  0  0  0  0  0  0  0  0  0  0
   86.4660   97.2030  -46.2350 C   0  0  0  0  0  3  0  0  0  0  0  0
   86.9350   97.9480  -45.1780 C   0  0  0  0  0  0  0  0  0  0  0  0
   88.2990   98.1070  -44.9650 C   0  0  0  0  0  3  0  0  0  0  0  0
   85.6870   98.7870  -43.9760 Br  0  0  0  0  0  0  0  0  0  0  0  0
   89.5720   96.1490  -47.7680 O   0  0  0  0  0  0  0  0  0  0  0  0
   89.5440   96.2300  -48.7470 H   0  0  0  0  0  0  0  0  0  0  0  0
   91.7970  100.3050  -43.1720 C   0  0  0  0  0  0  0  0  0  0  0  0
   92.7370  101.0810  -43.4810 O   0  0  0  0  0  0  0  0  0  0  0  0
   90.7980  100.6910  -42.2930 O   0  0  0  0  0  1  0  0  0  0  0  0
  1 17  1  1  0  0  0
  1  2  1  0  0  0  0
  1  9  1  0  0  0  0
  2 15  1  0  0  0  0
  2  3  1  0  0  0  0
  3 27  1  1  0  0  0
  3  4  1  0  0  0  0
  5  6  1  0  0  0  0
  5  4  1  0  0  0  0
  6 13  1  0  0  0  0
  7 10  1  0  0  0  0
  7  6  2  0  0  0  0
  8  9  1  0  0  0  0
  8  7  1  0  0  0  0
  9  5  2  0  0  0  0
 10 11  2  0  0  0  0
 11 12  1  0  0  0  0
 13 12  2  0  0  0  0
 14  2  1  0  0  0  0
 16  8  1  0  0  0  0
 17 23  1  0  0  0  0
 18 17  2  0  0  0  0
 19 18  1  0  0  0  0
 19 21  2  0  0  0  0
 20 19  1  0  0  0  0
 21 22  1  0  0  0  0
 22 23  2  0  0  0  0
 22 24  1  0  0  0  0
 25 18  1  0  0  0  0
 26 25  1  0  0  0  0
 27 29  1  0  0  0  0
 28 27  2  0  0  0  0
M  END
>  <Pose>
1

>  <Score>
-6.993

$$$$
