/Users/jonathanwahrer/Desktop/Msc/3_Semester/Drug_Design_Praktikum/waehrer_HTS_screening/HTS_experiment/out/docking_results/vina_output/4agl/1571_docked.pdbqt
 OpenBabel03212200263D

 28 31  0  0  1  0  0  0  0  0999 V2000
   92.1400   98.8540  -42.3430 O   0  0  0  0  0  0  0  0  0  0  0  0
   91.7890   97.7430  -41.5660 C   0  0  0  0  0  2  0  0  0  0  0  0
   91.7830   96.4790  -42.3390 C   0  0  0  0  0  0  0  0  0  0  0  0
   91.4300   96.4100  -43.6370 N   0  0  0  0  0  0  0  0  0  0  0  0
   91.4340   95.2570  -44.3100 C   0  0  0  0  0  0  0  0  0  0  0  0
   91.7900   94.0720  -43.7500 N   0  0  0  0  0  0  0  0  0  0  0  0
   91.0560   95.2690  -45.6510 C   0  0  0  0  0  3  0  0  0  0  0  0
   91.7780   92.9410  -44.4700 C   0  0  0  0  0  3  0  0  0  0  0  0
   92.1520   94.1080  -42.4420 C   0  0  0  0  0  0  0  0  0  0  0  0
   91.4100   92.9140  -45.7940 C   0  0  0  0  0  0  0  0  0  0  0  0
   91.4090   91.2640  -46.7890 Br  0  0  0  0  0  0  0  0  0  0  0  0
   91.0470   94.0990  -46.3800 C   0  0  0  0  0  3  0  0  0  0  0  0
   92.1510   95.2940  -41.7350 C   0  0  0  0  0  3  0  0  0  0  0  0
   92.4810   93.0020  -41.9290 O   0  0  0  0  0  0  0  0  0  0  0  0
   91.3840   99.9920  -42.5000 C   0  0  0  0  0  0  0  0  0  0  0  0
   91.1140  100.6260  -41.4410 O   0  0  0  0  0  0  0  0  0  0  0  0
   90.9050  100.4650  -43.8270 C   0  0  0  0  0  2  0  0  0  0  0  0
   89.9310   99.5380  -44.4070 N   0  0  0  0  0  0  0  0  0  0  0  0
   88.7000   99.1080  -43.8330 C   0  0  0  0  0  0  0  0  0  0  0  0
   88.1490   99.5860  -42.8100 O   0  0  0  0  0  0  0  0  0  0  0  0
   88.1790   97.9940  -44.6590 C   0  0  2  0  0  3  0  0  0  0  0  0
   88.7090   98.3900  -46.0170 C   0  0  1  0  0  3  0  0  0  0  0  0
   86.7200   97.8010  -44.5910 C   0  0  0  0  0  2  0  0  0  0  0  0
   87.9220   99.5220  -46.6500 C   0  0  0  0  0  2  0  0  0  0  0  0
   90.0570   98.8910  -45.6610 C   0  0  0  0  0  0  0  0  0  0  0  0
   86.6810   99.8820  -45.8780 C   0  0  0  0  0  2  0  0  0  0  0  0
   85.9040   98.6530  -45.4960 C   0  0  0  0  0  2  0  0  0  0  0  0
   91.1310   98.7750  -46.3300 O   0  0  0  0  0  0  0  0  0  0  0  0
  1  2  1  0  0  0  0
  3 13  2  0  0  0  0
  3  2  1  0  0  0  0
  4  3  1  0  0  0  0
  5  6  1  0  0  0  0
  5  4  2  0  0  0  0
  6  9  1  0  0  0  0
  7  5  1  0  0  0  0
  8  6  1  0  0  0  0
  9 14  2  0  0  0  0
  9 13  1  0  0  0  0
 10  8  2  0  0  0  0
 11 10  1  0  0  0  0
 12 10  1  0  0  0  0
 12  7  2  0  0  0  0
 15  1  1  0  0  0  0
 15 16  2  0  0  0  0
 17 15  1  0  0  0  0
 18 19  1  0  0  0  0
 18 17  1  0  0  0  0
 19 20  2  0  0  0  0
 21 23  1  6  0  0  0
 21 19  1  0  0  0  0
 22 24  1  1  0  0  0
 22 25  1  0  0  0  0
 22 21  1  0  0  0  0
 24 26  1  0  0  0  0
 25 18  1  0  0  0  0
 26 27  1  0  0  0  0
 27 23  1  0  0  0  0
 28 25  2  0  0  0  0
M  END
>  <Pose>
1

>  <Score>
-6.372

$$$$
