/Users/jonathanwahrer/Desktop/Msc/3_Semester/Drug_Design_Praktikum/waehrer_HTS_screening/HTS_experiment/out/docking_results/vina_output/4agl/1576_docked.pdbqt
 OpenBabel03212200263D

 30 33  0  0  0  0  0  0  0  0999 V2000
   86.7780   98.0960  -46.7240 N   0  0  0  0  0  0  0  0  0  0  0  0
   85.9930   97.9730  -45.5140 C   0  0  0  0  0  2  0  0  0  0  0  0
   86.0890   99.2870  -44.7420 C   0  0  0  0  0  2  0  0  0  0  0  0
   87.4530   99.7850  -44.8040 N   0  0  0  0  0  0  0  0  0  0  0  0
   88.0420  100.0200  -46.1020 C   0  0  0  0  0  2  0  0  0  0  0  0
   87.1030   99.4660  -47.1470 C   0  0  0  0  0  2  0  0  0  0  0  0
   88.2090  100.0450  -43.6260 C   0  0  0  0  0  0  0  0  0  0  0  0
   87.6580   99.8320  -42.5020 O   0  0  0  0  0  0  0  0  0  0  0  0
   89.5880  100.5440  -43.6280 C   0  0  0  0  0  2  0  0  0  0  0  0
   90.5880   99.4940  -43.4400 N   0  0  0  0  0  0  0  0  0  0  0  0
   90.5910   98.4850  -42.5930 N   0  0  0  0  0  0  0  0  0  0  0  0
   91.6770   97.7170  -42.7040 C   0  0  0  0  0  0  0  0  0  0  0  0
   92.4440   98.2750  -43.7100 C   0  0  0  0  0  3  0  0  0  0  0  0
   91.7440   99.3770  -44.1490 C   0  0  0  0  0  0  0  0  0  0  0  0
   92.1910  100.2860  -45.2260 C   0  0  0  0  0  1  0  0  0  0  0  0
   91.9930   96.5120  -41.9140 C   0  0  0  0  0  0  0  0  0  0  0  0
   92.3820   96.6210  -40.7340 O   0  0  0  0  0  0  0  0  0  0  0  0
   91.8460   95.2440  -42.5160 N   0  0  0  0  0  0  0  0  0  0  0  0
   91.4030   95.0430  -43.8670 C   0  0  0  0  0  2  0  0  0  0  0  0
   92.1560   94.0390  -41.7410 C   0  0  0  0  0  2  0  0  0  0  0  0
   91.5350   93.5400  -44.1450 C   0  0  0  0  0  2  0  0  0  0  0  0
   92.8040   93.0900  -43.8550 O   0  0  0  0  0  0  0  0  0  0  0  0
   93.1630   93.2330  -42.5350 C   0  0  0  0  0  2  0  0  0  0  0  0
   87.2450   97.0380  -47.5060 C   0  0  0  0  0  0  0  0  0  0  0  0
   88.4700   96.4260  -47.3470 C   0  0  0  0  0  0  0  0  0  0  0  0
   89.5250   96.9890  -46.1020 Cl  0  0  0  0  0  0  0  0  0  0  0  0
   88.8940   95.3800  -48.1430 C   0  0  0  0  0  3  0  0  0  0  0  0
   88.0870   94.9140  -49.1340 C   0  0  0  0  0  3  0  0  0  0  0  0
   86.8600   95.4920  -49.3300 C   0  0  0  0  0  3  0  0  0  0  0  0
   86.4430   96.5380  -48.5300 C   0  0  0  0  0  3  0  0  0  0  0  0
  1  2  1  0  0  0  0
  2  3  1  0  0  0  0
  4  3  1  0  0  0  0
  4  7  1  0  0  0  0
  5  4  1  0  0  0  0
  6  1  1  0  0  0  0
  6  5  1  0  0  0  0
  7  8  2  0  0  0  0
  9  7  1  0  0  0  0
  9 10  1  0  0  0  0
 10 11  1  0  0  0  0
 12 11  2  0  0  0  0
 12 16  1  0  0  0  0
 13 12  1  0  0  0  0
 14 13  2  0  0  0  0
 14 10  1  0  0  0  0
 15 14  1  0  0  0  0
 16 17  2  0  0  0  0
 18 16  1  0  0  0  0
 18 20  1  0  0  0  0
 19 18  1  0  0  0  0
 21 19  1  0  0  0  0
 21 22  1  0  0  0  0
 22 23  1  0  0  0  0
 23 20  1  0  0  0  0
 24 25  1  0  0  0  0
 24  1  1  0  0  0  0
 25 26  1  0  0  0  0
 27 25  2  0  0  0  0
 28 27  1  0  0  0  0
 29 28  2  0  0  0  0
 29 30  1  0  0  0  0
 30 24  2  0  0  0  0
M  END
>  <Pose>
1

>  <Score>
-6.145

$$$$
