/Users/jonathanwahrer/Desktop/Msc/3_Semester/Drug_Design_Praktikum/waehrer_HTS_screening/HTS_experiment/out/docking_results/vina_output/4agl/1594_docked.pdbqt
 OpenBabel03212200273D

 27 30  0  0  0  0  0  0  0  0999 V2000
   92.1860   99.4220  -44.8860 C   0  0  0  0  0  0  0  0  0  0  0  0
   92.9460   99.8310  -43.9330 O   0  0  0  0  0  0  0  0  0  0  0  0
   91.2590   98.4500  -44.5630 N   0  0  0  0  0  0  0  0  0  0  0  0
   90.3230   97.8840  -45.5040 C   0  0  0  0  0  2  0  0  0  0  0  0
   90.6580   96.4370  -45.7970 C   0  0  0  0  0  2  0  0  0  0  0  0
   91.1480   95.7760  -44.5410 C   0  0  0  0  0  0  0  0  0  0  0  0
   91.3760   96.4210  -43.3560 C   0  0  0  0  0  0  0  0  0  0  0  0
   91.8050   95.4600  -42.4970 N   0  0  0  0  0  0  0  0  0  0  0  0
   91.8490   94.2880  -43.0890 N   0  0  0  0  0  0  0  0  0  0  0  0
   91.4530   94.4170  -44.3610 C   0  0  0  0  0  0  0  0  0  0  0  0
   91.3590   93.5140  -45.2540 O   0  0  0  0  0  0  0  0  0  0  0  0
   91.1500   97.8860  -43.1950 C   0  0  0  0  0  2  0  0  0  0  0  0
   92.0560   95.6790  -41.5030 H   0  0  0  0  0  0  0  0  0  0  0  0
   92.3870  100.0250  -46.1930 C   0  0  0  0  0  0  0  0  0  0  0  0
   92.9080   99.4790  -47.2920 N   0  0  0  0  0  0  0  0  0  0  0  0
   92.9090  100.3880  -48.2800 C   0  0  0  0  0  0  0  0  0  0  0  0
   92.3850  101.5280  -47.8150 N   0  0  0  0  0  0  0  0  0  0  0  0
   93.3620  100.2500  -49.6030 C   0  0  0  0  0  3  0  0  0  0  0  0
   92.2800  102.6050  -48.6430 C   0  0  0  0  0  3  0  0  0  0  0  0
   92.0500  101.3450  -46.5310 C   0  0  0  0  0  3  0  0  0  0  0  0
   92.7170  102.4970  -49.9440 C   0  0  0  0  0  0  0  0  0  0  0  0
   92.6020  103.8560  -51.0460 Cl  0  0  0  0  0  0  0  0  0  0  0  0
   93.2600  101.3220  -50.4340 C   0  0  0  0  0  3  0  0  0  0  0  0
   92.2590   93.0010  -42.5080 C   0  0  0  0  0  2  0  0  0  0  0  0
   93.6340   93.1050  -41.8910 C   0  0  0  0  0  2  0  0  0  0  0  0
   93.7000   94.0890  -40.9130 O   0  0  0  0  0  0  0  0  0  0  0  0
   94.0670   94.9520  -41.2710 H   0  0  0  0  0  0  0  0  0  0  0  0
  1  3  1  0  0  0  0
  1  2  2  0  0  0  0
  3 12  1  0  0  0  0
  4  3  1  0  0  0  0
  5  4  1  0  0  0  0
  5  6  1  0  0  0  0
  6 10  1  0  0  0  0
  6  7  2  0  0  0  0
  7 12  1  0  0  0  0
  7  8  1  0  0  0  0
  8 13  1  0  0  0  0
  9 24  1  0  0  0  0
  9  8  1  0  0  0  0
 10  9  1  0  0  0  0
 11 10  2  0  0  0  0
 14  1  1  0  0  0  0
 15 14  1  0  0  0  0
 16 17  1  0  0  0  0
 16 15  2  0  0  0  0
 17 20  1  0  0  0  0
 18 16  1  0  0  0  0
 19 17  1  0  0  0  0
 20 14  2  0  0  0  0
 21 19  2  0  0  0  0
 22 21  1  0  0  0  0
 23 21  1  0  0  0  0
 23 18  2  0  0  0  0
 24 25  1  0  0  0  0
 25 26  1  0  0  0  0
 27 26  1  0  0  0  0
M  END
>  <Pose>
1

>  <Score>
-5.885

$$$$
