/Users/jonathanwahrer/Desktop/Msc/3_Semester/Drug_Design_Praktikum/waehrer_HTS_screening/HTS_experiment/out/docking_results/vina_output/4agl/1599_docked.pdbqt
 OpenBabel03212200273D

 30 33  0  0  1  0  0  0  0  0999 V2000
   90.9430   98.6660  -43.5770 C   0  0  0  0  0  0  0  0  0  0  0  0
   91.1720   97.9890  -42.5140 O   0  0  0  0  0  0  0  0  0  0  0  0
   90.0050   99.7070  -43.5940 N   0  0  0  0  0  0  0  0  0  0  0  0
   89.7210  100.4790  -44.7610 C   0  0  0  0  0  2  0  0  0  0  0  0
   88.2730  100.8680  -44.8620 C   0  0  0  0  0  2  0  0  0  0  0  0
   87.3240   99.9950  -44.0710 C   0  0  1  0  0  0  0  0  0  0  0  0
   86.0710  100.7380  -44.0920 N   0  0  0  0  0  0  0  0  0  0  0  0
   84.9350  100.0570  -43.6000 C   0  0  0  0  0  2  0  0  0  0  0  0
   85.0020   98.5780  -43.4930 C   0  0  0  0  0  2  0  0  0  0  0  0
   85.9550   97.9930  -44.4870 C   0  0  0  0  0  0  0  0  0  0  0  0
   85.9210   96.8650  -45.1940 N   0  0  0  0  0  0  0  0  0  0  0  0
   87.0510   96.8570  -45.9310 C   0  0  0  0  0  3  0  0  0  0  0  0
   87.7800   97.9680  -45.6820 N   0  0  0  0  0  0  0  0  0  0  0  0
   87.0950   98.7060  -44.7610 C   0  0  0  0  0  0  0  0  0  0  0  0
   87.7630   99.7470  -42.6500 C   0  0  0  0  0  2  0  0  0  0  0  0
   89.2290  100.0560  -42.4090 C   0  0  0  0  0  2  0  0  0  0  0  0
   86.2840  101.6080  -43.5250 H   0  0  0  0  0  0  0  0  0  0  0  0
   88.6880   98.2040  -46.1150 H   0  0  0  0  0  0  0  0  0  0  0  0
   91.7590   98.2460  -44.7730 C   0  0  0  0  0  2  0  0  0  0  0  0
   91.2390   97.1080  -45.3690 N   0  0  0  0  0  0  0  0  0  0  0  0
   90.7430   96.0220  -45.9390 C   0  0  0  0  0  0  0  0  0  0  0  0
   89.8830   95.9370  -46.8850 O   0  0  0  0  0  0  0  0  0  0  0  0
   90.4600   97.9080  -46.1860 H   0  0  0  0  0  0  0  0  0  0  0  0
   91.2180   94.6800  -45.4460 C   0  0  0  0  0  0  0  0  0  0  0  0
   91.7840   94.5330  -44.2070 C   0  0  0  0  0  3  0  0  0  0  0  0
   92.2480   93.2990  -43.7780 C   0  0  0  0  0  0  0  0  0  0  0  0
   93.0140   93.1400  -42.0610 Br  0  0  0  0  0  0  0  0  0  0  0  0
   92.1200   92.2370  -44.6390 C   0  0  0  0  0  3  0  0  0  0  0  0
   91.5480   92.3900  -45.8880 C   0  0  0  0  0  3  0  0  0  0  0  0
   91.0820   93.6380  -46.3130 C   0  0  0  0  0  3  0  0  0  0  0  0
  1  2  2  0  0  0  0
  3  1  1  0  0  0  0
  3 16  1  0  0  0  0
  4  3  1  0  0  0  0
  5  4  1  0  0  0  0
  6  5  1  6  0  0  0
  6 15  1  0  0  0  0
  7  6  1  0  0  0  0
  7  8  1  0  0  0  0
  7 17  1  0  0  0  0
  8  9  1  0  0  0  0
 10  9  1  0  0  0  0
 11 10  1  0  0  0  0
 12 13  1  0  0  0  0
 12 11  2  0  0  0  0
 13 14  1  0  0  0  0
 14 10  2  0  0  0  0
 14  6  1  0  0  0  0
 15 16  1  0  0  0  0
 18 13  1  0  0  0  0
 19  1  1  0  0  0  0
 20 19  1  0  0  0  0
 21 24  1  0  0  0  0
 21 20  1  0  0  0  0
 22 21  2  0  0  0  0
 23 20  1  0  0  0  0
 24 25  1  0  0  0  0
 25 26  2  0  0  0  0
 26 27  1  0  0  0  0
 28 26  1  0  0  0  0
 29 28  2  0  0  0  0
 30 29  1  0  0  0  0
 30 24  2  0  0  0  0
M  END
>  <Pose>
1

>  <Score>
-6.620

$$$$
