/Users/jonathanwahrer/Desktop/Msc/3_Semester/Drug_Design_Praktikum/waehrer_HTS_screening/HTS_experiment/out/docking_results/vina_output/4agl/1609_docked.pdbqt
 OpenBabel03212200273D

 26 29  0  0  1  0  0  0  0  0999 V2000
   91.4230   98.9170  -43.6540 N   0  0  0  0  0  0  0  0  0  0  0  0
   90.8440  100.1190  -43.1160 C   0  0  2  0  0  3  0  0  0  0  0  0
   91.2330  101.1380  -44.1690 C   0  0  2  0  0  3  0  0  0  0  0  0
   92.5840  100.7640  -44.4100 O   0  0  0  0  0  0  0  0  0  0  0  0
   92.5390   99.3550  -44.4210 C   0  0  0  0  0  0  0  0  0  0  0  0
   93.3900   98.6380  -45.0360 O   0  0  0  0  0  0  0  0  0  0  0  0
   91.0730  102.3840  -43.3770 C   0  0  0  0  0  2  0  0  0  0  0  0
   91.8630  102.0540  -42.1690 N   0  0  0  0  0  0  0  0  0  0  0  0
   91.6820  100.6540  -41.9410 C   0  0  0  0  0  2  0  0  0  0  0  0
   92.5920  103.0420  -41.5000 C   0  0  0  0  0  0  0  0  0  0  0  0
   92.5830  104.2620  -41.9450 O   0  0  0  0  0  0  0  0  0  0  0  0
   91.0450   97.5300  -43.5110 C   0  0  0  0  0  2  0  0  0  0  0  0
   91.4890   96.9130  -42.2130 C   0  0  0  0  0  2  0  0  0  0  0  0
   91.8810   95.4930  -42.3720 C   0  0  0  0  0  0  0  0  0  0  0  0
   91.6290   94.8130  -43.5640 C   0  0  0  0  0  3  0  0  0  0  0  0
   91.9900   93.4960  -43.7260 C   0  0  0  0  0  0  0  0  0  0  0  0
   91.6500   92.6770  -45.2530 Cl  0  0  0  0  0  0  0  0  0  0  0  0
   92.6140   92.7820  -42.7260 C   0  0  0  0  0  3  0  0  0  0  0  0
   92.8650   93.4500  -41.5460 C   0  0  0  0  0  3  0  0  0  0  0  0
   92.5070   94.7750  -41.3740 C   0  0  0  0  0  3  0  0  0  0  0  0
   93.3980  102.8560  -40.3080 C   0  0  0  0  0  0  0  0  0  0  0  0
   92.9570  102.7940  -39.0230 N   0  0  0  0  0  0  0  0  0  0  0  0
   94.0040  102.6100  -38.2220 C   0  0  0  0  0  3  0  0  0  0  0  0
   91.5800  102.9120  -38.6200 C   0  0  0  0  0  1  0  0  0  0  0  0
   95.1110  102.5510  -38.9640 N   0  0  0  0  0  0  0  0  0  0  0  0
   94.7520  102.7010  -40.2590 C   0  0  0  0  0  3  0  0  0  0  0  0
  1 12  1  0  0  0  0
  1  2  1  0  0  0  0
  2  9  1  1  0  0  0
  3  7  1  1  0  0  0
  3  2  1  0  0  0  0
  4  3  1  0  0  0  0
  5  4  1  0  0  0  0
  5  1  1  0  0  0  0
  6  5  2  0  0  0  0
  7  8  1  0  0  0  0
  8  9  1  0  0  0  0
  8 10  1  0  0  0  0
 10 21  1  0  0  0  0
 11 10  2  0  0  0  0
 12 13  1  0  0  0  0
 14 13  1  0  0  0  0
 14 20  1  0  0  0  0
 15 14  2  0  0  0  0
 16 15  1  0  0  0  0
 16 18  2  0  0  0  0
 17 16  1  0  0  0  0
 18 19  1  0  0  0  0
 19 20  2  0  0  0  0
 21 26  2  0  0  0  0
 21 22  1  0  0  0  0
 22 24  1  0  0  0  0
 22 23  1  0  0  0  0
 25 23  2  0  0  0  0
 26 25  1  0  0  0  0
M  END
>  <Pose>
1

>  <Score>
-6.470

$$$$
