/Users/jonathanwahrer/Desktop/Msc/3_Semester/Drug_Design_Praktikum/waehrer_HTS_screening/HTS_experiment/out/docking_results/vina_output/4agl/1612_docked.pdbqt
 OpenBabel03212200283D

 31 34  0  0  0  0  0  0  0  0999 V2000
   90.7760   97.7060  -44.5080 N   0  0  0  0  0  0  0  0  0  0  0  0
   91.0920   96.3990  -44.3970 C   0  0  0  0  0  0  0  0  0  0  0  0
   91.4740   96.1880  -43.0940 C   0  0  0  0  0  0  0  0  0  0  0  0
   91.3820   97.3440  -42.4660 N   0  0  0  0  0  0  0  0  0  0  0  0
   90.9490   98.3010  -43.3240 C   0  0  0  0  0  0  0  0  0  0  0  0
   91.8420   94.9260  -42.7340 N   0  0  0  0  0  0  0  0  0  0  0  0
   91.8360   93.9140  -43.6100 C   0  0  0  0  0  0  0  0  0  0  0  0
   92.1850   92.7630  -43.2280 O   0  0  0  0  0  0  0  0  0  0  0  0
   91.4700   94.0760  -44.8880 N   0  0  0  0  0  0  0  0  0  0  0  0
   91.0990   95.3200  -45.2750 C   0  0  0  0  0  0  0  0  0  0  0  0
   90.7560   95.4770  -46.4670 O   0  0  0  0  0  0  0  0  0  0  0  0
   92.2470   94.6800  -41.3520 C   0  0  0  0  0  1  0  0  0  0  0  0
   91.4800   93.2600  -45.5390 H   0  0  0  0  0  0  0  0  0  0  0  0
   90.6750   99.6590  -42.9500 N   0  0  0  0  0  0  0  0  0  0  0  0
   91.7500  100.6550  -43.1410 C   0  0  0  0  0  2  0  0  0  0  0  0
   91.3050  101.7960  -43.9970 C   0  0  0  0  0  2  0  0  0  0  0  0
   89.8670  101.9400  -43.9730 N   0  0  0  0  0  0  0  0  0  0  0  0
   89.1840  101.5870  -42.7460 C   0  0  0  0  0  2  0  0  0  0  0  0
   89.1630  102.4190  -45.1110 C   0  0  0  0  0  0  0  0  0  0  0  0
   89.4460  100.1280  -42.4190 C   0  0  0  0  0  2  0  0  0  0  0  0
   89.7820  102.7370  -46.1500 O   0  0  0  0  0  0  0  0  0  0  0  0
   87.6870  102.5540  -45.1020 C   0  0  0  0  0  2  0  0  0  0  0  0
   87.1330  101.5100  -46.0680 C   0  0  0  0  0  1  0  0  0  0  0  0
   90.2830   98.2830  -45.7180 C   0  0  0  0  0  2  0  0  0  0  0  0
   88.8250   98.1550  -45.9520 C   0  0  0  0  0  0  0  0  0  0  0  0
   87.9330   98.0310  -44.9250 C   0  0  0  0  0  3  0  0  0  0  0  0
   86.5870   97.8710  -45.2290 C   0  0  0  0  0  0  0  0  0  0  0  0
   85.4600   97.7180  -43.8820 Cl  0  0  0  0  0  0  0  0  0  0  0  0
   86.1040   97.8310  -46.5180 C   0  0  0  0  0  3  0  0  0  0  0  0
   87.0210   97.9570  -47.5470 C   0  0  0  0  0  3  0  0  0  0  0  0
   88.3500   98.1160  -47.2770 C   0  0  0  0  0  3  0  0  0  0  0  0
  1  2  1  0  0  0  0
  1  5  1  0  0  0  0
  2  3  2  0  0  0  0
  3  6  1  0  0  0  0
  3  4  1  0  0  0  0
  5 14  1  0  0  0  0
  5  4  2  0  0  0  0
  6 12  1  0  0  0  0
  7  8  2  0  0  0  0
  7  6  1  0  0  0  0
  9  7  1  0  0  0  0
 10  9  1  0  0  0  0
 10  2  1  0  0  0  0
 11 10  2  0  0  0  0
 13  9  1  0  0  0  0
 14 20  1  0  0  0  0
 15 14  1  0  0  0  0
 16 17  1  0  0  0  0
 16 15  1  0  0  0  0
 17 18  1  0  0  0  0
 18 20  1  0  0  0  0
 19 22  1  0  0  0  0
 19 17  1  0  0  0  0
 21 19  2  0  0  0  0
 23 22  1  0  0  0  0
 24  1  1  0  0  0  0
 25 24  1  0  0  0  0
 25 26  1  0  0  0  0
 27 26  2  0  0  0  0
 27 28  1  0  0  0  0
 29 27  1  0  0  0  0
 30 31  1  0  0  0  0
 30 29  2  0  0  0  0
 31 25  2  0  0  0  0
M  END
>  <Pose>
1

>  <Score>
-6.115

$$$$
