/Users/jonathanwahrer/Desktop/Msc/3_Semester/Drug_Design_Praktikum/waehrer_HTS_screening/HTS_experiment/out/docking_results/vina_output/4agl/1622_docked.pdbqt
 OpenBabel03212200283D

 28 31  0  0  1  0  0  0  0  0999 V2000
   89.7860   98.0450  -44.9170 C   0  0  0  0  0  0  0  0  0  0  0  0
   88.6320   98.1670  -44.4310 O   0  0  0  0  0  0  0  0  0  0  0  0
   90.5960   99.1660  -45.2430 N   0  0  0  0  0  0  0  0  0  0  0  0
   90.0720  100.4940  -45.0050 C   0  0  0  0  0  2  0  0  0  0  0  0
   91.2660  101.4060  -44.7900 C   0  0  0  0  0  2  0  0  0  0  0  0
   92.3910  100.7040  -44.0630 C   0  0  1  0  0  0  0  0  0  0  0  0
   93.3690  101.7100  -43.7170 N   0  0  0  0  0  0  0  0  0  0  0  0
   92.9970  102.2850  -42.4740 C   0  0  0  0  0  0  0  0  0  0  0  0
   93.3600  103.4020  -41.9880 O   0  0  0  0  0  0  0  0  0  0  0  0
   92.1120  101.3450  -41.8570 N   0  0  0  0  0  0  0  0  0  0  0  0
   91.9610  100.2220  -42.7250 C   0  0  0  0  0  0  0  0  0  0  0  0
   91.5460   99.0800  -42.3860 O   0  0  0  0  0  0  0  0  0  0  0  0
   91.4490  101.4650  -40.5560 C   0  0  0  0  0  1  0  0  0  0  0  0
   92.9770   99.5830  -44.8700 C   0  0  0  0  0  2  0  0  0  0  0  0
   91.9240   99.0680  -45.8030 C   0  0  0  0  0  2  0  0  0  0  0  0
   94.1940  101.9530  -44.2970 H   0  0  0  0  0  0  0  0  0  0  0  0
   90.2520   96.6720  -45.1310 C   0  0  0  0  0  0  0  0  0  0  0  0
   89.9250   95.9950  -46.2870 C   0  0  0  0  0  0  0  0  0  0  0  0
   88.9350   96.8180  -47.5000 Cl  0  0  0  0  0  0  0  0  0  0  0  0
   90.3490   94.7020  -46.5160 C   0  0  0  0  0  3  0  0  0  0  0  0
   91.1160   94.1090  -45.5400 C   0  0  0  0  0  3  0  0  0  0  0  0
   91.4690   94.7510  -44.3640 C   0  0  0  0  0  0  0  0  0  0  0  0
   91.0220   96.0420  -44.1790 C   0  0  0  0  0  3  0  0  0  0  0  0
   92.2680   94.0780  -43.3920 N   0  0  0  0  0  0  0  0  0  0  0  0
   93.1690   93.1450  -43.5780 N   0  0  0  0  0  0  0  0  0  0  0  0
   93.6990   92.7730  -42.3760 C   0  0  0  0  0  3  0  0  0  0  0  0
   93.0900   93.5210  -41.3930 C   0  0  0  0  0  3  0  0  0  0  0  0
   92.1860   94.3390  -42.0760 C   0  0  0  0  0  3  0  0  0  0  0  0
  1  2  2  0  0  0  0
  3  4  1  0  0  0  0
  3  1  1  0  0  0  0
  4  5  1  0  0  0  0
  5  6  1  0  0  0  0
  6 14  1  6  0  0  0
  6  7  1  0  0  0  0
  6 11  1  0  0  0  0
  7  8  1  0  0  0  0
  8  9  2  0  0  0  0
  8 10  1  0  0  0  0
 10 13  1  0  0  0  0
 11 12  2  0  0  0  0
 11 10  1  0  0  0  0
 15  3  1  0  0  0  0
 15 14  1  0  0  0  0
 16  7  1  0  0  0  0
 17  1  1  0  0  0  0
 17 23  1  0  0  0  0
 18 17  2  0  0  0  0
 19 18  1  0  0  0  0
 20 18  1  0  0  0  0
 20 21  2  0  0  0  0
 21 22  1  0  0  0  0
 22 23  2  0  0  0  0
 22 24  1  0  0  0  0
 24 28  1  0  0  0  0
 25 24  1  0  0  0  0
 25 26  2  0  0  0  0
 26 27  1  0  0  0  0
 28 27  2  0  0  0  0
M  END
>  <Pose>
1

>  <Score>
-6.790

$$$$
