/Users/jonathanwahrer/Desktop/Msc/3_Semester/Drug_Design_Praktikum/waehrer_HTS_screening/HTS_experiment/out/docking_results/vina_output/4agl/1624_docked.pdbqt
 OpenBabel03212200283D

 32 35  0  0  1  0  0  0  0  0999 V2000
   90.8760   98.6780  -43.4980 C   0  0  1  0  0  3  0  0  0  0  0  0
   91.9150   99.2890  -44.3470 N   0  0  0  0  0  0  0  0  0  0  0  0
   91.7400   98.8120  -45.6750 C   0  0  0  0  0  0  0  0  0  0  0  0
   92.5770   98.7930  -46.5800 O   0  0  0  0  0  0  0  0  0  0  0  0
   90.3480   98.3340  -45.7870 C   0  0  0  0  0  0  0  0  0  0  0  0
   89.7760   97.8250  -46.8040 O   0  0  0  0  0  0  0  0  0  0  0  0
   89.7500   98.5600  -44.4820 C   0  0  0  0  0  0  0  0  0  0  0  0
   88.4600   98.6090  -44.2620 C   0  0  0  0  0  0  0  0  0  0  0  0
   88.0270   98.7880  -42.9510 O   0  0  0  0  0  1  0  0  0  0  0  0
   92.8820  100.2090  -43.8060 C   0  0  0  0  0  2  0  0  0  0  0  0
   92.4140  101.0570  -42.6860 C   0  0  0  0  0  2  0  0  0  0  0  0
   93.1070  101.0050  -41.4520 N   0  0  0  0  0  4  0  0  0  0  0  0
   92.2590  101.1730  -40.2910 C   0  0  0  0  0  2  0  0  0  0  0  0
   92.6880  102.3010  -39.3840 C   0  0  0  0  0  2  0  0  0  0  0  0
   94.0210  102.3060  -39.0620 O   0  0  0  0  0  0  0  0  0  0  0  0
   94.8550  102.1250  -40.1500 C   0  0  0  0  0  2  0  0  0  0  0  0
   94.0420  102.1490  -41.4080 C   0  0  0  0  0  2  0  0  0  0  0  0
   93.7230  100.1810  -41.3570 H   0  0  0  0  0  0  0  0  0  0  0  0
   91.3390   97.3880  -43.0040 C   0  0  0  0  0  0  0  0  0  0  0  0
   91.3020   96.2530  -43.7480 C   0  0  0  0  0  3  0  0  0  0  0  0
   91.7490   95.0240  -43.2850 C   0  0  0  0  0  3  0  0  0  0  0  0
   92.2530   94.9300  -42.0210 C   0  0  0  0  0  0  0  0  0  0  0  0
   92.8320   93.4180  -41.3790 Cl  0  0  0  0  0  0  0  0  0  0  0  0
   92.3040   96.0800  -41.2300 C   0  0  0  0  0  3  0  0  0  0  0  0
   91.8540   97.2880  -41.7120 C   0  0  0  0  0  3  0  0  0  0  0  0
   87.4140   98.4960  -45.2730 C   0  0  0  0  0  0  0  0  0  0  0  0
   86.8410   97.2380  -45.4250 C   0  0  0  0  0  3  0  0  0  0  0  0
   85.8370   97.0640  -46.3360 C   0  0  0  0  0  3  0  0  0  0  0  0
   85.3810   98.1140  -47.1100 C   0  0  0  0  0  0  0  0  0  0  0  0
   85.9530   99.3590  -46.9560 C   0  0  0  0  0  3  0  0  0  0  0  0
   84.1070   97.8450  -48.2530 Cl  0  0  0  0  0  0  0  0  0  0  0  0
   86.9650   99.5220  -46.0320 C   0  0  0  0  0  3  0  0  0  0  0  0
  1 19  1  6  0  0  0
  2 10  1  0  0  0  0
  2  1  1  0  0  0  0
  3  2  1  0  0  0  0
  4  3  2  0  0  0  0
  5  3  1  0  0  0  0
  5  7  1  0  0  0  0
  6  5  2  0  0  0  0
  7  8  2  0  0  0  0
  7  1  1  0  0  0  0
  8  9  1  0  0  0  0
 10 11  1  0  0  0  0
 11 12  1  0  0  0  0
 12 17  1  0  0  0  0
 12 18  1  0  0  0  0
 12 13  1  0  0  0  0
 13 14  1  0  0  0  0
 14 15  1  0  0  0  0
 16 15  1  0  0  0  0
 17 16  1  0  0  0  0
 19 25  1  0  0  0  0
 20 21  1  0  0  0  0
 20 19  2  0  0  0  0
 21 22  2  0  0  0  0
 22 23  1  0  0  0  0
 22 24  1  0  0  0  0
 25 24  2  0  0  0  0
 26  8  1  0  0  0  0
 27 26  1  0  0  0  0
 28 27  2  0  0  0  0
 29 30  2  0  0  0  0
 29 28  1  0  0  0  0
 30 32  1  0  0  0  0
 31 29  1  0  0  0  0
 32 26  2  0  0  0  0
M  END
>  <Pose>
1

>  <Score>
-6.808

$$$$
