/Users/jonathanwahrer/Desktop/Msc/3_Semester/Drug_Design_Praktikum/waehrer_HTS_screening/HTS_experiment/out/docking_results/vina_output/4agl/1631_docked.pdbqt
 OpenBabel03212200293D

 29 32  0  0  1  0  0  0  0  0999 V2000
   90.6710   97.4740  -45.3930 C   0  0  1  0  0  3  0  0  0  0  0  0
   89.2690   97.5770  -45.6820 N   0  0  0  0  0  0  0  0  0  0  0  0
   88.5680   98.1330  -44.5750 C   0  0  0  0  0  0  0  0  0  0  0  0
   87.3200   98.1150  -44.3670 O   0  0  0  0  0  0  0  0  0  0  0  0
   89.5670   98.7550  -43.6810 C   0  0  0  0  0  0  0  0  0  0  0  0
   89.3060   99.3380  -42.6040 O   0  0  0  0  0  0  0  0  0  0  0  0
   90.8500   98.5250  -44.3320 C   0  0  0  0  0  0  0  0  0  0  0  0
   91.9660   99.1330  -43.9900 C   0  0  0  0  0  0  0  0  0  0  0  0
   93.1350   98.7620  -44.6850 O   0  0  0  0  0  1  0  0  0  0  0  0
   91.0880   96.1320  -44.9150 C   0  0  0  0  0  0  0  0  0  0  0  0
   91.4030   95.8970  -43.5820 C   0  0  0  0  0  3  0  0  0  0  0  0
   91.7920   94.6710  -43.0980 C   0  0  0  0  0  0  0  0  0  0  0  0
   92.1780   94.4120  -41.4110 Cl  0  0  0  0  0  0  0  0  0  0  0  0
   91.8720   93.6240  -43.9900 C   0  0  0  0  0  3  0  0  0  0  0  0
   91.5700   93.8080  -45.3230 C   0  0  0  0  0  3  0  0  0  0  0  0
   91.1820   95.0470  -45.7810 C   0  0  0  0  0  3  0  0  0  0  0  0
   92.0640  100.1550  -42.9570 C   0  0  0  0  0  0  0  0  0  0  0  0
   91.8680  101.5010  -43.2950 C   0  0  0  0  0  3  0  0  0  0  0  0
   91.9270  102.4860  -42.3330 C   0  0  0  0  0  3  0  0  0  0  0  0
   92.1760  102.2060  -41.0060 C   0  0  0  0  0  3  0  0  0  0  0  0
   92.3700  100.8900  -40.6530 C   0  0  0  0  0  3  0  0  0  0  0  0
   92.3110   99.8940  -41.6290 C   0  0  0  0  0  3  0  0  0  0  0  0
   88.6520   97.1820  -46.8890 C   0  0  1  0  0  3  0  0  0  0  0  0
   87.4040   96.6560  -46.7750 N   0  0  0  0  0  0  0  0  0  0  0  0
   86.7150   96.2470  -47.8390 C   0  0  0  0  0  3  0  0  0  0  0  0
   86.9440   96.5600  -45.8270 H   0  0  0  0  0  0  0  0  0  0  0  0
   87.3010   96.3720  -49.0780 C   0  0  0  0  0  3  0  0  0  0  0  0
   88.5670   96.9090  -49.1700 C   0  0  0  0  0  3  0  0  0  0  0  0
   89.2560   97.3180  -48.0900 N   0  0  0  0  0  0  0  0  0  0  0  0
  1 10  1  1  0  0  0
  1  7  1  0  0  0  0
  2  1  1  0  0  0  0
  2  3  1  0  0  0  0
  3  4  2  0  0  0  0
  3  5  1  0  0  0  0
  5  6  2  0  0  0  0
  7  8  2  0  0  0  0
  7  5  1  0  0  0  0
  8 17  1  0  0  0  0
  9  8  1  0  0  0  0
 10 11  1  0  0  0  0
 11 12  2  0  0  0  0
 12 13  1  0  0  0  0
 14 12  1  0  0  0  0
 15 14  2  0  0  0  0
 16 15  1  0  0  0  0
 16 10  2  0  0  0  0
 17 22  1  0  0  0  0
 18 17  2  0  0  0  0
 18 19  1  0  0  0  0
 19 20  2  0  0  0  0
 20 21  1  0  0  0  0
 22 21  2  0  0  0  0
 23 24  1  0  0  0  0
 23  2  1  6  0  0  0
 24 26  1  0  0  0  0
 25 24  1  0  0  0  0
 27 25  2  0  0  0  0
 28 27  1  0  0  0  0
 28 29  2  0  0  0  0
 29 23  1  0  0  0  0
M  END
>  <Pose>
1

>  <Score>
-6.867

$$$$
