/Users/jonathanwahrer/Desktop/Msc/3_Semester/Drug_Design_Praktikum/waehrer_HTS_screening/HTS_experiment/out/docking_results/vina_output/4agl/1638_docked.pdbqt
 OpenBabel03212200293D

 38 41  0  0  1  0  0  0  0  0999 V2000
   90.8630   99.3320  -43.8550 C   0  0  0  0  0  0  0  0  0  0  0  0
   92.1120   99.8400  -43.5260 C   0  0  0  0  0  0  0  0  0  0  0  0
   92.2260  100.7490  -42.5200 N   0  0  0  0  0  0  0  0  0  0  0  0
   91.1740  101.1880  -41.8170 C   0  0  0  0  0  0  0  0  0  0  0  0
   89.9610  100.7000  -42.1310 N   0  0  0  0  0  0  0  0  0  0  0  0
   89.7980   99.8010  -43.1160 C   0  0  0  0  0  3  0  0  0  0  0  0
   91.2950  102.1370  -40.7600 N   0  0  0  0  0  0  0  0  0  0  0  0
   91.8250  101.7830  -39.4660 C   0  0  0  0  0  2  0  0  0  0  0  0
   92.9760  102.6380  -39.0120 C   0  0  0  0  0  2  0  0  0  0  0  0
   92.9650  104.0100  -39.6660 C   0  0  2  0  0  0  0  0  0  0  0  0
   91.4660  104.3190  -39.8250 C   0  0  0  0  0  2  0  0  0  0  0  0
   90.8830  103.5170  -40.9390 C   0  0  0  0  0  2  0  0  0  0  0  0
   93.5740  104.0770  -40.9070 N   0  0  0  0  0  0  0  0  0  0  0  0
   94.7660  103.3800  -41.1950 C   0  0  0  0  0  2  0  0  0  0  0  0
   94.7220  102.9960  -42.6840 C   0  0  0  0  0  2  0  0  0  0  0  0
   93.7940  103.9530  -43.3810 C   0  0  0  0  0  2  0  0  0  0  0  0
   93.9340  105.3660  -42.8750 C   0  0  0  0  0  2  0  0  0  0  0  0
   93.7560  105.4260  -41.3670 C   0  0  0  0  0  2  0  0  0  0  0  0
   93.4730  104.9860  -38.6760 C   0  0  0  0  0  0  0  0  0  0  0  0
   94.6210  104.8320  -38.1370 O   0  0  0  0  0  0  0  0  0  0  0  0
   92.7540  106.1160  -38.2690 N   0  0  0  0  0  0  0  0  0  0  0  0
   92.3060  106.1040  -37.3120 H   0  0  0  0  0  0  0  0  0  0  0  0
   92.6120  106.9920  -38.8100 H   0  0  0  0  0  0  0  0  0  0  0  0
   93.2150   99.3760  -44.2660 N   0  0  0  0  0  0  0  0  0  0  0  0
   93.2440   99.3570  -45.3060 H   0  0  0  0  0  0  0  0  0  0  0  0
   94.0550   99.0300  -43.7590 H   0  0  0  0  0  0  0  0  0  0  0  0
   90.6660   98.1590  -45.1410 S   0  0  0  0  0  0  0  0  0  0  0  0
   89.2660   98.1390  -45.6630 O   0  0  0  0  0  0  0  0  0  0  0  0
   91.6640   98.4990  -46.2190 O   0  0  0  0  0  0  0  0  0  0  0  0
   91.1000   96.5710  -44.4900 C   0  0  0  0  0  0  0  0  0  0  0  0
   91.0800   95.4610  -45.3090 C   0  0  0  0  0  0  0  0  0  0  0  0
   91.4270   94.2440  -44.7600 C   0  0  0  0  0  3  0  0  0  0  0  0
   91.7870   94.1230  -43.4220 C   0  0  0  0  0  3  0  0  0  0  0  0
   91.7950   95.2560  -42.6370 C   0  0  0  0  0  0  0  0  0  0  0  0
   91.4540   96.4870  -43.1570 C   0  0  0  0  0  3  0  0  0  0  0  0
   92.2510   95.1210  -40.9330 Cl  0  0  0  0  0  0  0  0  0  0  0  0
   90.7200   95.6180  -46.6190 O   0  0  0  0  0  0  0  0  0  0  0  0
   89.5660   95.0920  -47.2120 C   0  0  0  0  0  1  0  0  0  0  0  0
  1  2  2  0  0  0  0
  1  6  1  0  0  0  0
  2  3  1  0  0  0  0
  3  4  2  0  0  0  0
  4  7  1  0  0  0  0
  5  4  1  0  0  0  0
  6  5  2  0  0  0  0
  7  8  1  0  0  0  0
  8  9  1  0  0  0  0
 10  9  1  0  0  0  0
 10 19  1  1  0  0  0
 11 10  1  0  0  0  0
 12  7  1  0  0  0  0
 12 11  1  0  0  0  0
 13 10  1  0  0  0  0
 14 13  1  0  0  0  0
 15 14  1  0  0  0  0
 16 17  1  0  0  0  0
 16 15  1  0  0  0  0
 17 18  1  0  0  0  0
 18 13  1  0  0  0  0
 19 21  1  0  0  0  0
 19 20  2  0  0  0  0
 21 22  1  0  0  0  0
 23 21  1  0  0  0  0
 24 26  1  0  0  0  0
 24  2  1  0  0  0  0
 25 24  1  0  0  0  0
 27 30  1  0  0  0  0
 27  1  1  0  0  0  0
 28 27  2  0  0  0  0
 29 27  2  0  0  0  0
 30 35  1  0  0  0  0
 31 32  1  0  0  0  0
 31 30  2  0  0  0  0
 32 33  2  0  0  0  0
 33 34  1  0  0  0  0
 34 36  1  0  0  0  0
 35 34  2  0  0  0  0
 37 31  1  0  0  0  0
 38 37  1  0  0  0  0
M  END
>  <Pose>
1

>  <Score>
-6.021

$$$$
