/Users/jonathanwahrer/Desktop/Msc/3_Semester/Drug_Design_Praktikum/waehrer_HTS_screening/HTS_experiment/out/docking_results/vina_output/4agl/1660_docked.pdbqt
 OpenBabel03212200303D

 31 34  0  0  0  0  0  0  0  0999 V2000
   91.6210   93.3090  -45.0750 N   0  0  0  0  0  0  0  0  0  0  0  0
   91.8710   92.9070  -43.8580 N   0  0  0  0  0  0  0  0  0  0  0  0
   91.8630   93.9090  -42.9730 C   0  0  0  0  0  3  0  0  0  0  0  0
   91.5810   95.0670  -43.6840 C   0  0  0  0  0  0  0  0  0  0  0  0
   91.4360   94.6470  -45.0020 C   0  0  0  0  0  0  0  0  0  0  0  0
   91.1600   95.5980  -45.8990 N   0  0  0  0  0  0  0  0  0  0  0  0
   91.0290   96.8940  -45.5410 C   0  0  0  0  0  3  0  0  0  0  0  0
   91.1640   97.3300  -44.2790 N   0  0  0  0  0  0  0  0  0  0  0  0
   91.4450   96.3920  -43.3380 C   0  0  0  0  0  0  0  0  0  0  0  0
   91.5820   96.7520  -42.1420 O   0  0  0  0  0  0  0  0  0  0  0  0
   91.0090   98.7330  -43.8840 C   0  0  0  0  0  2  0  0  0  0  0  0
   89.6040   99.0750  -43.5980 C   0  0  0  0  0  0  0  0  0  0  0  0
   89.3180   99.1550  -42.3510 O   0  0  0  0  0  0  0  0  0  0  0  0
   88.5920   99.3150  -44.5240 N   0  0  0  0  0  0  0  0  0  0  0  0
   87.2130   99.5860  -44.0890 C   0  0  0  0  0  2  0  0  0  0  0  0
   88.8180   99.3450  -45.9520 C   0  0  0  0  0  2  0  0  0  0  0  0
   86.4110   98.3890  -44.6170 C   0  0  0  0  0  2  0  0  0  0  0  0
   86.6560   98.2030  -46.0230 N   0  0  0  0  0  0  0  0  0  0  0  0
   87.5140   99.1670  -46.6860 C   0  0  0  0  0  2  0  0  0  0  0  0
   86.1050   97.1110  -46.7280 C   0  0  0  0  0  0  0  0  0  0  0  0
   85.4020   96.2670  -46.0570 O   0  0  0  0  0  0  0  0  0  0  0  0
   86.2440   96.8570  -48.0740 O   0  0  0  0  0  0  0  0  0  0  0  0
   86.8780   95.6490  -48.5350 C   0  0  0  0  0  2  0  0  0  0  0  0
   88.3530   95.7930  -48.2060 C   0  0  0  0  0  1  0  0  0  0  0  0
   91.5360   92.5120  -46.2450 C   0  0  0  0  0  0  0  0  0  0  0  0
   90.6780   92.7330  -47.2910 C   0  0  0  0  0  3  0  0  0  0  0  0
   90.6570   91.8720  -48.3710 C   0  0  0  0  0  3  0  0  0  0  0  0
   91.4710   90.7660  -48.4680 C   0  0  0  0  0  0  0  0  0  0  0  0
   91.4600   89.6670  -49.8100 Cl  0  0  0  0  0  0  0  0  0  0  0  0
   92.3440   90.5270  -47.4220 C   0  0  0  0  0  3  0  0  0  0  0  0
   92.3500   91.3970  -46.3540 C   0  0  0  0  0  3  0  0  0  0  0  0
  1  5  1  0  0  0  0
  1  2  1  0  0  0  0
  2  3  2  0  0  0  0
  4  9  1  0  0  0  0
  4  3  1  0  0  0  0
  5  4  2  0  0  0  0
  6  7  2  0  0  0  0
  6  5  1  0  0  0  0
  7  8  1  0  0  0  0
  8 11  1  0  0  0  0
  8  9  1  0  0  0  0
  9 10  2  0  0  0  0
 11 12  1  0  0  0  0
 12 13  2  0  0  0  0
 14 15  1  0  0  0  0
 14 12  1  0  0  0  0
 16 14  1  0  0  0  0
 17 15  1  0  0  0  0
 18 17  1  0  0  0  0
 19 18  1  0  0  0  0
 19 16  1  0  0  0  0
 20 21  2  0  0  0  0
 20 18  1  0  0  0  0
 22 20  1  0  0  0  0
 23 24  1  0  0  0  0
 23 22  1  0  0  0  0
 25  1  1  0  0  0  0
 26 25  2  0  0  0  0
 27 26  1  0  0  0  0
 28 27  2  0  0  0  0
 28 30  1  0  0  0  0
 29 28  1  0  0  0  0
 30 31  2  0  0  0  0
 31 25  1  0  0  0  0
M  END
>  <Pose>
1

>  <Score>
-6.557

$$$$
