/Users/jonathanwahrer/Desktop/Msc/3_Semester/Drug_Design_Praktikum/waehrer_HTS_screening/HTS_experiment/out/docking_results/vina_output/4agl/1666_docked.pdbqt
 OpenBabel03212200303D

 30 34  0  0  1  0  0  0  0  0999 V2000
   92.1300   99.0710  -43.9670 N   0  0  0  0  0  0  0  0  0  0  0  0
   92.9620   98.7980  -45.1100 C   0  0  0  0  0  2  0  0  0  0  0  0
   92.5910   99.6680  -46.2890 C   0  0  0  0  0  2  0  0  0  0  0  0
   91.1450   99.5210  -46.5930 N   0  0  0  0  0  0  0  0  0  0  0  0
   90.4040  100.0360  -45.4510 C   0  0  0  0  0  2  0  0  0  0  0  0
   91.2570  100.1800  -44.2020 C   0  0  0  0  0  2  0  0  0  0  0  0
   90.9450  100.3920  -47.7320 C   0  0  0  0  0  2  0  0  0  0  0  0
   89.6260  100.3840  -48.3800 C   0  0  0  0  0  2  0  0  0  0  0  0
   88.9590   99.1490  -48.6140 N   0  0  0  0  0  0  0  0  0  0  0  0
   87.8360   98.5610  -47.9660 C   0  0  0  0  0  0  0  0  0  0  0  0
   87.4790   98.7920  -46.8020 O   0  0  0  0  0  0  0  0  0  0  0  0
   87.1710   97.6340  -48.9120 C   0  0  1  0  0  3  0  0  0  0  0  0
   88.3810   97.1900  -49.7650 C   0  0  2  0  0  3  0  0  0  0  0  0
   86.8390   96.3550  -48.2310 C   0  0  2  0  0  3  0  0  0  0  0  0
   88.7980   95.8790  -49.2130 C   0  0  1  0  0  3  0  0  0  0  0  0
   89.3580   98.2670  -49.6870 C   0  0  0  0  0  0  0  0  0  0  0  0
   88.2500   95.9430  -47.7770 C   0  0  0  0  0  2  0  0  0  0  0  0
   87.8040   94.8630  -49.7370 C   0  0  0  0  0  2  0  0  0  0  0  0
   86.6320   95.3310  -49.3100 C   0  0  0  0  0  2  0  0  0  0  0  0
   90.3600   98.3780  -50.4360 O   0  0  0  0  0  0  0  0  0  0  0  0
   91.5060   97.7410  -43.1540 S   0  0  0  0  0  0  0  0  0  0  0  0
   92.2200   97.6350  -41.8120 O   0  0  0  0  0  0  0  0  0  0  0  0
   90.0610   98.0680  -42.7720 O   0  0  0  0  0  0  0  0  0  0  0  0
   91.4850   96.2400  -43.9880 C   0  0  0  0  0  0  0  0  0  0  0  0
   91.1110   96.1740  -45.3080 C   0  0  0  0  0  3  0  0  0  0  0  0
   91.1160   94.9490  -45.9510 C   0  0  0  0  0  3  0  0  0  0  0  0
   91.4840   93.7770  -45.3140 C   0  0  0  0  0  0  0  0  0  0  0  0
   91.8590   93.8490  -43.9890 C   0  0  0  0  0  3  0  0  0  0  0  0
   91.4900   92.0880  -46.1970 Br  0  0  0  0  0  0  0  0  0  0  0  0
   91.8540   95.0810  -43.3440 C   0  0  0  0  0  3  0  0  0  0  0  0
  1 21  1  0  0  0  0
  2  1  1  0  0  0  0
  3  2  1  0  0  0  0
  4  3  1  0  0  0  0
  4  5  1  0  0  0  0
  5  6  1  0  0  0  0
  6  1  1  0  0  0  0
  7  4  1  0  0  0  0
  8  7  1  0  0  0  0
  9  8  1  0  0  0  0
  9 10  1  0  0  0  0
 10 11  2  0  0  0  0
 12 14  1  0  0  0  0
 12 10  1  1  0  0  0
 13 16  1  1  0  0  0
 13 15  1  0  0  0  0
 13 12  1  0  0  0  0
 14 19  1  6  0  0  0
 14 17  1  0  0  0  0
 15 18  1  6  0  0  0
 15 17  1  0  0  0  0
 16  9  1  0  0  0  0
 18 19  1  0  0  0  0
 20 16  2  0  0  0  0
 21 23  2  0  0  0  0
 21 22  2  0  0  0  0
 24 30  1  0  0  0  0
 24 21  1  0  0  0  0
 25 24  2  0  0  0  0
 26 27  2  0  0  0  0
 26 25  1  0  0  0  0
 27 28  1  0  0  0  0
 28 30  2  0  0  0  0
 29 27  1  0  0  0  0
M  END
>  <Pose>
1

>  <Score>
-5.857

$$$$
