/Users/jonathanwahrer/Desktop/Msc/3_Semester/Drug_Design_Praktikum/waehrer_HTS_screening/HTS_experiment/out/docking_results/vina_output/4agl/1676_docked.pdbqt
 OpenBabel03212200313D

 25 28  0  0  0  0  0  0  0  0999 V2000
   91.2400   96.9030  -45.1530 C   0  0  0  0  0  0  0  0  0  0  0  0
   92.1960   97.5310  -45.6470 O   0  0  0  0  0  0  0  0  0  0  0  0
   90.0030   97.5720  -44.9740 N   0  0  0  0  0  0  0  0  0  0  0  0
   89.2020   97.0630  -44.5660 H   0  0  0  0  0  0  0  0  0  0  0  0
   91.4380   95.5070  -44.7810 C   0  0  0  0  0  0  0  0  0  0  0  0
   91.6430   95.2060  -43.4460 C   0  0  0  0  0  0  0  0  0  0  0  0
   91.8330   93.8990  -43.0710 C   0  0  0  0  0  0  0  0  0  0  0  0
   91.7050   95.9720  -42.3230 N   0  0  0  0  0  0  0  0  0  0  0  0
   91.8160   92.9120  -44.0290 C   0  0  0  0  0  3  0  0  0  0  0  0
   92.0050   93.9070  -41.7270 N   0  0  0  0  0  0  0  0  0  0  0  0
   91.6140   93.2050  -45.3600 C   0  0  0  0  0  0  0  0  0  0  0  0
   91.5960   91.8130  -46.6700 Br  0  0  0  0  0  0  0  0  0  0  0  0
   91.4230   94.5070  -45.7430 C   0  0  0  0  0  3  0  0  0  0  0  0
   91.9210   95.1620  -41.3250 N   0  0  0  0  0  0  0  0  0  0  0  0
   91.5880   97.0050  -42.3650 H   0  0  0  0  0  0  0  0  0  0  0  0
   89.8360   98.9540  -45.3510 C   0  0  0  0  0  2  0  0  0  0  0  0
   89.5400   99.7630  -44.1170 C   0  0  0  0  0  0  0  0  0  0  0  0
   90.4230  100.1970  -43.2030 N   0  0  0  0  0  0  0  0  0  0  0  0
   89.7980  100.8940  -42.2300 C   0  0  0  0  0  0  0  0  0  0  0  0
   91.8570  100.0590  -43.0760 C   0  0  0  0  0  2  0  0  0  0  0  0
   88.4990  100.8910  -42.5510 N   0  0  0  0  0  0  0  0  0  0  0  0
   90.6630  101.4360  -41.1460 C   0  0  0  0  0  2  0  0  0  0  0  0
   88.3400  100.2060  -43.6940 N   0  0  0  0  0  0  0  0  0  0  0  0
   91.7440  102.2440  -41.8790 C   0  0  0  0  0  2  0  0  0  0  0  0
   92.4550  101.4400  -42.9180 C   0  0  0  0  0  2  0  0  0  0  0  0
  1  3  1  0  0  0  0
  1  5  1  0  0  0  0
  2  1  2  0  0  0  0
  3  4  1  0  0  0  0
  5  6  1  0  0  0  0
  6  7  2  0  0  0  0
  6  8  1  0  0  0  0
  7 10  1  0  0  0  0
  8 14  1  0  0  0  0
  9  7  1  0  0  0  0
 10 14  2  0  0  0  0
 11  9  2  0  0  0  0
 12 11  1  0  0  0  0
 13 11  1  0  0  0  0
 13  5  2  0  0  0  0
 15  8  1  0  0  0  0
 16  3  1  0  0  0  0
 16 17  1  0  0  0  0
 17 23  2  0  0  0  0
 17 18  1  0  0  0  0
 18 20  1  0  0  0  0
 18 19  1  0  0  0  0
 19 22  1  0  0  0  0
 20 25  1  0  0  0  0
 21 19  2  0  0  0  0
 23 21  1  0  0  0  0
 24 22  1  0  0  0  0
 25 24  1  0  0  0  0
M  END
>  <Pose>
1

>  <Score>
-6.779

$$$$
