/Users/jonathanwahrer/Desktop/Msc/3_Semester/Drug_Design_Praktikum/waehrer_HTS_screening/HTS_experiment/out/docking_results/vina_output/4agl/1690_docked.pdbqt
 OpenBabel03212200323D

 34 37  0  0  1  0  0  0  0  0999 V2000
   87.4320   98.0640  -45.4140 C   0  0  0  0  0  0  0  0  0  0  0  0
   86.7130   97.2070  -44.8400 O   0  0  0  0  0  0  0  0  0  0  0  0
   87.6480   99.3480  -44.8320 N   0  0  0  0  0  0  0  0  0  0  0  0
   88.4600  100.3820  -45.4340 C   0  0  0  0  0  2  0  0  0  0  0  0
   89.2310  101.1570  -44.3520 C   0  0  2  0  0  0  0  0  0  0  0  0
   89.3940  100.2220  -43.2020 C   0  0  2  0  0  3  0  0  0  0  0  0
   88.0580  100.0340  -42.5200 C   0  0  0  0  0  2  0  0  0  0  0  0
   87.0250   99.6520  -43.5610 C   0  0  0  0  0  2  0  0  0  0  0  0
   88.4470  102.3980  -44.0640 C   0  0  0  0  0  1  0  0  0  0  0  0
   88.0690   97.7650  -46.7080 C   0  0  0  0  0  2  0  0  0  0  0  0
   89.5520   97.9760  -46.5980 C   0  0  0  0  0  2  0  0  0  0  0  0
   90.1680   96.7580  -46.0200 C   0  0  0  0  0  0  0  0  0  0  0  0
   90.7110   96.6800  -44.7740 N   0  0  0  0  0  0  0  0  0  0  0  0
   91.1980   95.4530  -44.5490 C   0  0  0  0  0  0  0  0  0  0  0  0
   90.7300   97.4960  -44.1030 H   0  0  0  0  0  0  0  0  0  0  0  0
   91.8300   94.8690  -43.4770 C   0  0  0  0  0  3  0  0  0  0  0  0
   90.9550   94.7270  -45.6890 C   0  0  0  0  0  0  0  0  0  0  0  0
   92.2440   93.5480  -43.5000 C   0  0  0  0  0  0  0  0  0  0  0  0
   93.0490   92.7950  -42.1430 Cl  0  0  0  0  0  0  0  0  0  0  0  0
   91.9960   92.8230  -44.6520 C   0  0  0  0  0  3  0  0  0  0  0  0
   91.3560   93.4110  -45.7370 C   0  0  0  0  0  3  0  0  0  0  0  0
   90.3370   95.5510  -46.5400 N   0  0  0  0  0  0  0  0  0  0  0  0
   90.4560  101.4940  -44.9450 O   0  0  0  0  0  0  0  0  0  0  0  0
   90.3500  102.3710  -45.4340 H   0  0  0  0  0  0  0  0  0  0  0  0
   90.4520  100.5160  -42.3020 N   0  0  0  0  0  0  0  0  0  0  0  0
   90.3660  101.4320  -41.3250 C   0  0  0  0  0  3  0  0  0  0  0  0
   91.4230  101.6930  -40.4620 C   0  0  0  0  0  0  0  0  0  0  0  0
   92.5960  100.9920  -40.6120 C   0  0  0  0  0  0  0  0  0  0  0  0
   91.2660  102.7300  -39.3850 C   0  0  0  0  0  1  0  0  0  0  0  0
   93.5660  101.2270  -39.8250 O   0  0  0  0  0  0  0  0  0  0  0  0
   92.6800  100.0780  -41.5900 N   0  0  0  0  0  0  0  0  0  0  0  0
   91.6280   99.8620  -42.3980 C   0  0  0  0  0  0  0  0  0  0  0  0
   93.5630   99.5400  -41.7130 H   0  0  0  0  0  0  0  0  0  0  0  0
   91.7130   98.9870  -43.3310 O   0  0  0  0  0  0  0  0  0  0  0  0
  1  2  2  0  0  0  0
  1  3  1  0  0  0  0
  3  8  1  0  0  0  0
  4  3  1  0  0  0  0
  4  5  1  0  0  0  0
  5  9  1  1  0  0  0
  5  6  1  0  0  0  0
  6  7  1  1  0  0  0
  6 25  1  0  0  0  0
  8  7  1  0  0  0  0
 10 11  1  0  0  0  0
 10  1  1  0  0  0  0
 11 12  1  0  0  0  0
 12 13  1  0  0  0  0
 13 14  1  0  0  0  0
 13 15  1  0  0  0  0
 14 16  1  0  0  0  0
 17 14  2  0  0  0  0
 18 16  2  0  0  0  0
 18 19  1  0  0  0  0
 20 18  1  0  0  0  0
 21 17  1  0  0  0  0
 21 20  2  0  0  0  0
 22 12  2  0  0  0  0
 22 17  1  0  0  0  0
 23  5  1  0  0  0  0
 24 23  1  0  0  0  0
 25 26  1  0  0  0  0
 26 27  2  0  0  0  0
 27 29  1  0  0  0  0
 28 27  1  0  0  0  0
 28 30  2  0  0  0  0
 31 28  1  0  0  0  0
 32 25  1  0  0  0  0
 32 31  1  0  0  0  0
 33 31  1  0  0  0  0
 34 32  2  0  0  0  0
M  END
>  <Pose>
1

>  <Score>
-7.191

$$$$
