/Users/jonathanwahrer/Desktop/Msc/3_Semester/Drug_Design_Praktikum/waehrer_HTS_screening/HTS_experiment/out/docking_results/vina_output/4agl/1691_docked.pdbqt
 OpenBabel03212200333D

 35 39  0  0  1  0  0  0  0  0999 V2000
   87.3570   99.4920  -44.4550 C   0  0  0  0  0  0  0  0  0  0  0  0
   86.6330   98.7080  -43.8120 O   0  0  0  0  0  0  0  0  0  0  0  0
   88.3050   98.9940  -45.3630 N   0  0  0  0  0  0  0  0  0  0  0  0
   88.6560   97.6600  -45.7350 C   0  0  0  0  0  2  0  0  0  0  0  0
   90.2000   97.6800  -45.8360 C   0  0  1  0  0  3  0  0  0  0  0  0
   90.4000   99.0610  -46.3520 C   0  0  2  0  0  3  0  0  0  0  0  0
   89.1510   99.8550  -46.1670 C   0  0  0  0  0  2  0  0  0  0  0  0
   87.2090  100.9420  -44.2520 C   0  0  0  0  0  2  0  0  0  0  0  0
   87.4330  101.2990  -42.8000 C   0  0  0  0  0  2  0  0  0  0  0  0
   88.9040  101.4750  -42.5630 C   0  0  0  0  0  0  0  0  0  0  0  0
   89.5390  101.1430  -41.4260 N   0  0  0  0  0  0  0  0  0  0  0  0
   90.8520  101.4150  -41.5120 C   0  0  0  0  0  0  0  0  0  0  0  0
   89.0980  100.7220  -40.5640 H   0  0  0  0  0  0  0  0  0  0  0  0
   91.9220  101.2630  -40.6300 C   0  0  0  0  0  3  0  0  0  0  0  0
   91.0460  101.9470  -42.7690 C   0  0  0  0  0  0  0  0  0  0  0  0
   93.1860  101.6460  -41.0120 C   0  0  0  0  0  0  0  0  0  0  0  0
   94.5690  101.4740  -39.9370 Cl  0  0  0  0  0  0  0  0  0  0  0  0
   93.3750  102.1710  -42.2600 C   0  0  0  0  0  3  0  0  0  0  0  0
   92.3140  102.3290  -43.1520 C   0  0  0  0  0  3  0  0  0  0  0  0
   89.8410  101.9650  -43.3750 N   0  0  0  0  0  0  0  0  0  0  0  0
   90.7480   97.4480  -44.5300 N   0  0  0  0  0  0  0  0  0  0  0  0
   91.2000   96.2930  -44.0140 C   0  0  0  0  0  0  0  0  0  0  0  0
   91.6480   96.5320  -42.6990 C   0  0  0  0  0  0  0  0  0  0  0  0
   91.2830   95.0480  -44.5220 N   0  0  0  0  0  0  0  0  0  0  0  0
   91.4440   97.8400  -42.4700 N   0  0  0  0  0  0  0  0  0  0  0  0
   92.1670   95.5190  -41.9250 C   0  0  0  0  0  0  0  0  0  0  0  0
   90.9080   98.4010  -43.5510 C   0  0  0  0  0  3  0  0  0  0  0  0
   92.5600   95.7640  -40.7530 O   0  0  0  0  0  0  0  0  0  0  0  0
   92.2330   94.2970  -42.4660 N   0  0  0  0  0  0  0  0  0  0  0  0
   91.8070   94.0790  -43.7110 C   0  0  0  0  0  0  0  0  0  0  0  0
   92.7810   93.1970  -41.6680 C   0  0  0  0  0  1  0  0  0  0  0  0
   91.8750   92.9220  -44.2050 O   0  0  0  0  0  0  0  0  0  0  0  0
   90.8440   94.7420  -45.8470 C   0  0  0  0  0  1  0  0  0  0  0  0
   90.7100   99.1030  -47.7110 O   0  0  0  0  0  0  0  0  0  0  0  0
   90.1540   98.4610  -48.2350 H   0  0  0  0  0  0  0  0  0  0  0  0
  1  8  1  0  0  0  0
  1  2  2  0  0  0  0
  3  1  1  0  0  0  0
  4  3  1  0  0  0  0
  5  4  1  1  0  0  0
  5 21  1  0  0  0  0
  6 34  1  6  0  0  0
  6  7  1  0  0  0  0
  6  5  1  0  0  0  0
  7  3  1  0  0  0  0
  8  9  1  0  0  0  0
  9 10  1  0  0  0  0
 10 11  1  0  0  0  0
 11 13  1  0  0  0  0
 12 11  1  0  0  0  0
 12 14  1  0  0  0  0
 15 12  2  0  0  0  0
 16 14  2  0  0  0  0
 16 17  1  0  0  0  0
 18 16  1  0  0  0  0
 19 15  1  0  0  0  0
 19 18  2  0  0  0  0
 20 15  1  0  0  0  0
 20 10  2  0  0  0  0
 21 22  1  0  0  0  0
 21 27  1  0  0  0  0
 22 23  2  0  0  0  0
 23 25  1  0  0  0  0
 23 26  1  0  0  0  0
 24 22  1  0  0  0  0
 24 30  1  0  0  0  0
 26 28  2  0  0  0  0
 27 25  2  0  0  0  0
 29 26  1  0  0  0  0
 29 31  1  0  0  0  0
 30 29  1  0  0  0  0
 32 30  2  0  0  0  0
 33 24  1  0  0  0  0
 35 34  1  0  0  0  0
M  END
>  <Pose>
1

>  <Score>
-7.118

$$$$
