/Users/jonathanwahrer/Desktop/Msc/3_Semester/Drug_Design_Praktikum/waehrer_HTS_screening/HTS_experiment/out/docking_results/vina_output/4agl/1699_docked.pdbqt
 OpenBabel03212200333D

 31 34  0  0  1  0  0  0  0  0999 V2000
   91.2090  102.0590  -39.5650 Cl  0  0  0  0  0  0  0  0  0  0  0  0
   91.7760  101.6010  -41.1380 C   0  0  0  0  0  0  0  0  0  0  0  0
   91.0100  100.7910  -41.9630 C   0  0  0  0  0  3  0  0  0  0  0  0
   91.4490  100.4180  -43.2170 C   0  0  0  0  0  0  0  0  0  0  0  0
   92.6700  100.8710  -43.6320 C   0  0  0  0  0  0  0  0  0  0  0  0
   93.4710  101.6900  -42.8300 C   0  0  0  0  0  3  0  0  0  0  0  0
   93.0030  102.0430  -41.5840 C   0  0  0  0  0  3  0  0  0  0  0  0
   92.9540  100.3680  -44.9300 N   0  0  0  0  0  0  0  0  0  0  0  0
   91.8590   99.5630  -45.3400 C   0  0  0  0  0  0  0  0  0  0  0  0
   91.8670   98.9560  -46.4600 O   0  0  0  0  0  0  0  0  0  0  0  0
   90.8590   99.6080  -44.2820 C   0  0  2  0  0  0  0  0  0  0  0  0
   89.5870  100.1670  -44.7500 N   0  0  0  0  0  0  0  0  0  0  0  0
   89.0540   99.0530  -45.5010 C   0  0  1  0  0  3  0  0  0  0  0  0
   89.3840   97.8220  -44.7200 C   0  0  2  0  0  3  0  0  0  0  0  0
   90.4150   98.2950  -43.7400 C   0  0  1  0  0  3  0  0  0  0  0  0
   91.4780   97.2630  -43.6670 C   0  0  0  0  0  0  0  0  0  0  0  0
   92.4110   97.3430  -42.8250 O   0  0  0  0  0  0  0  0  0  0  0  0
   91.2040   96.2910  -44.6630 N   0  0  0  0  0  0  0  0  0  0  0  0
   90.1780   96.8250  -45.5070 C   0  0  0  0  0  0  0  0  0  0  0  0
   89.9430   96.5450  -46.6870 O   0  0  0  0  0  0  0  0  0  0  0  0
   93.8290  100.5590  -45.5020 H   0  0  0  0  0  0  0  0  0  0  0  0
   89.0030  100.2780  -43.8910 H   0  0  0  0  0  0  0  0  0  0  0  0
   87.5800   99.1990  -45.7800 C   0  0  2  0  0  3  0  0  0  0  0  0
   86.7260   98.8400  -44.5900 C   0  0  0  0  0  1  0  0  0  0  0  0
   87.2690   98.3780  -46.8570 O   0  0  0  0  0  0  0  0  0  0  0  0
   87.7630   98.6250  -47.6800 H   0  0  0  0  0  0  0  0  0  0  0  0
   91.8190   95.0260  -44.8010 C   0  0  0  0  0  2  0  0  0  0  0  0
   91.2850   93.8770  -44.0390 C   0  0  0  0  0  2  0  0  0  0  0  0
   92.1890   93.2000  -43.0820 C   0  0  0  0  0  2  0  0  0  0  0  0
   92.5860   93.9490  -41.9840 O   0  0  0  0  0  0  0  0  0  0  0  0
   93.7110   93.3020  -41.4170 C   0  0  0  0  0  1  0  0  0  0  0  0
  2  1  1  0  0  0  0
  3  2  2  0  0  0  0
  4  3  1  0  0  0  0
  5  4  2  0  0  0  0
  5  6  1  0  0  0  0
  6  7  2  0  0  0  0
  7  2  1  0  0  0  0
  8  5  1  0  0  0  0
  9  8  1  0  0  0  0
 10  9  2  0  0  0  0
 11  9  1  6  0  0  0
 11 15  1  0  0  0  0
 11  4  1  0  0  0  0
 12 11  1  0  0  0  0
 12 22  1  0  0  0  0
 13 23  1  1  0  0  0
 13 12  1  0  0  0  0
 13 14  1  0  0  0  0
 14 19  1  6  0  0  0
 14 15  1  0  0  0  0
 15 16  1  6  0  0  0
 16 17  2  0  0  0  0
 18 16  1  0  0  0  0
 19 18  1  0  0  0  0
 20 19  2  0  0  0  0
 21  8  1  0  0  0  0
 23 24  1  1  0  0  0
 25 23  1  0  0  0  0
 26 25  1  0  0  0  0
 27 18  1  0  0  0  0
 27 28  1  0  0  0  0
 28 29  1  0  0  0  0
 29 30  1  0  0  0  0
 30 31  1  0  0  0  0
M  END
>  <Pose>
1

>  <Score>
-6.167

$$$$
