/Users/jonathanwahrer/Desktop/Msc/3_Semester/Drug_Design_Praktikum/waehrer_HTS_screening/HTS_experiment/out/docking_results/vina_output/4agl/1706_docked.pdbqt
 OpenBabel03212200333D

 25 28  0  0  1  0  0  0  0  0999 V2000
   92.1520   92.7600  -43.5870 F   0  0  0  0  0  0  0  0  0  0  0  0
   91.7330   93.9880  -44.0420 C   0  0  0  0  0  0  0  0  0  0  0  0
   91.8270   95.0890  -43.1810 C   0  0  0  0  0  0  0  0  0  0  0  0
   91.4170   96.3150  -43.6120 C   0  0  0  0  0  0  0  0  0  0  0  0
   90.9060   96.4730  -44.9080 C   0  0  0  0  0  3  0  0  0  0  0  0
   90.8250   95.3810  -45.7270 C   0  0  0  0  0  3  0  0  0  0  0  0
   91.2320   94.1360  -45.3120 C   0  0  0  0  0  0  0  0  0  0  0  0
   91.1270   92.7270  -46.3770 Cl  0  0  0  0  0  0  0  0  0  0  0  0
   91.6230   97.2970  -42.5160 C   0  0  2  0  0  0  0  0  0  0  0  0
   90.3720   97.8970  -42.1770 N   0  0  0  0  0  0  0  0  0  0  0  0
   89.9020   99.0370  -42.8620 C   0  0  0  0  0  0  0  0  0  0  0  0
   88.6020   99.4290  -42.8030 N   0  0  0  0  0  0  0  0  0  0  0  0
   88.1060  100.4990  -43.4330 C   0  0  0  0  0  3  0  0  0  0  0  0
   88.9550  101.2840  -44.2060 C   0  0  0  0  0  3  0  0  0  0  0  0
   90.2770  100.9580  -44.3180 C   0  0  0  0  0  3  0  0  0  0  0  0
   90.7200   99.8420  -43.6420 C   0  0  0  0  0  0  0  0  0  0  0  0
   92.1200   99.4080  -43.6980 C   0  0  0  0  0  0  0  0  0  0  0  0
   92.9110  100.1200  -44.4050 O   0  0  0  0  0  0  0  0  0  0  0  0
   92.5810   98.2710  -43.0110 N   0  0  0  0  0  0  0  0  0  0  0  0
   92.1890   96.5070  -41.4170 C   0  0  0  0  0  0  0  0  0  0  0  0
   92.5320   96.9300  -40.2520 O   0  0  0  0  0  0  0  0  0  0  0  0
   92.3090   95.1710  -41.8330 N   0  0  0  0  0  0  0  0  0  0  0  0
   89.7700   97.5080  -41.4110 H   0  0  0  0  0  0  0  0  0  0  0  0
   93.6140   98.1700  -42.8840 H   0  0  0  0  0  0  0  0  0  0  0  0
   92.6750   94.3370  -41.3020 H   0  0  0  0  0  0  0  0  0  0  0  0
  2  1  1  0  0  0  0
  2  3  1  0  0  0  0
  3 22  1  0  0  0  0
  4  3  2  0  0  0  0
  5  4  1  0  0  0  0
  6  7  1  0  0  0  0
  6  5  2  0  0  0  0
  7  2  2  0  0  0  0
  8  7  1  0  0  0  0
  9  4  1  6  0  0  0
  9 10  1  0  0  0  0
  9 20  1  0  0  0  0
 10 23  1  0  0  0  0
 11 12  1  0  0  0  0
 11 10  1  0  0  0  0
 13 12  2  0  0  0  0
 14 13  1  0  0  0  0
 15 14  2  0  0  0  0
 15 16  1  0  0  0  0
 16 11  2  0  0  0  0
 17 16  1  0  0  0  0
 17 19  1  0  0  0  0
 18 17  2  0  0  0  0
 19 24  1  0  0  0  0
 19  9  1  0  0  0  0
 20 21  2  0  0  0  0
 22 20  1  0  0  0  0
 22 25  1  0  0  0  0
M  END
>  <Pose>
1

>  <Score>
-7.268

$$$$
