/Users/jonathanwahrer/Desktop/Msc/3_Semester/Drug_Design_Praktikum/waehrer_HTS_screening/HTS_experiment/out/docking_results/vina_output/4agl/1711_docked.pdbqt
 OpenBabel03212200333D

 30 33  0  0  0  0  0  0  0  0999 V2000
   91.5260  102.2000  -43.2790 N   0  0  0  0  0  0  0  0  0  0  0  0
   92.6740  102.0650  -44.1060 C   0  0  0  0  0  2  0  0  0  0  0  0
   92.4000  101.3310  -45.3940 C   0  0  0  0  0  2  0  0  0  0  0  0
   91.3810  100.3240  -45.2500 N   0  0  0  0  0  0  0  0  0  0  0  0
   90.1300  100.6700  -44.6200 C   0  0  0  0  0  2  0  0  0  0  0  0
   90.2880  101.9930  -43.9360 C   0  0  0  0  0  2  0  0  0  0  0  0
   91.5610   98.9950  -45.7080 C   0  0  0  0  0  0  0  0  0  0  0  0
   92.6390   98.6880  -46.2530 O   0  0  0  0  0  0  0  0  0  0  0  0
   90.5090   97.9650  -45.5560 C   0  0  0  0  0  2  0  0  0  0  0  0
   90.9750   96.8590  -44.7710 N   0  0  0  0  0  0  0  0  0  0  0  0
   91.3150   95.5390  -45.1730 C   0  0  0  0  0  0  0  0  0  0  0  0
   91.2540   95.1260  -46.3520 O   0  0  0  0  0  0  0  0  0  0  0  0
   91.7330   94.7950  -43.9970 C   0  0  0  0  0  0  0  0  0  0  0  0
   91.6580   95.6150  -42.8960 C   0  0  0  0  0  0  0  0  0  0  0  0
   92.1570   93.5010  -43.8300 C   0  0  0  0  0  3  0  0  0  0  0  0
   92.0110   95.1170  -41.6490 C   0  0  0  0  0  3  0  0  0  0  0  0
   91.1850   96.9150  -43.3560 C   0  0  0  0  0  0  0  0  0  0  0  0
   92.4320   93.8270  -41.4860 C   0  0  0  0  0  3  0  0  0  0  0  0
   92.5130   92.9830  -42.5930 C   0  0  0  0  0  3  0  0  0  0  0  0
   91.0130   97.8870  -42.5740 O   0  0  0  0  0  0  0  0  0  0  0  0
   91.6660  101.6570  -41.6970 S   0  0  0  0  0  0  0  0  0  0  0  0
   90.2720  101.3650  -41.1590 O   0  0  0  0  0  0  0  0  0  0  0  0
   92.3720  100.3140  -41.7090 O   0  0  0  0  0  0  0  0  0  0  0  0
   92.5310  102.6900  -40.6220 C   0  0  0  0  0  0  0  0  0  0  0  0
   93.2270  102.1460  -39.5550 C   0  0  0  0  0  3  0  0  0  0  0  0
   93.9350  102.9280  -38.6660 C   0  0  0  0  0  3  0  0  0  0  0  0
   93.9380  104.2960  -38.8650 C   0  0  0  0  0  0  0  0  0  0  0  0
   93.2400  104.8230  -39.9320 C   0  0  0  0  0  3  0  0  0  0  0  0
   94.9080  105.4450  -37.6610 Br  0  0  0  0  0  0  0  0  0  0  0  0
   92.5270  104.0550  -40.8290 C   0  0  0  0  0  3  0  0  0  0  0  0
  1 21  1  0  0  0  0
  2  1  1  0  0  0  0
  3  4  1  0  0  0  0
  3  2  1  0  0  0  0
  4  5  1  0  0  0  0
  5  6  1  0  0  0  0
  6  1  1  0  0  0  0
  7  9  1  0  0  0  0
  7  4  1  0  0  0  0
  8  7  2  0  0  0  0
  9 10  1  0  0  0  0
 10 17  1  0  0  0  0
 11 10  1  0  0  0  0
 11 13  1  0  0  0  0
 12 11  2  0  0  0  0
 13 15  2  0  0  0  0
 13 14  1  0  0  0  0
 14 16  2  0  0  0  0
 15 19  1  0  0  0  0
 16 18  1  0  0  0  0
 17 14  1  0  0  0  0
 17 20  2  0  0  0  0
 19 18  2  0  0  0  0
 21 22  2  0  0  0  0
 21 24  1  0  0  0  0
 23 21  2  0  0  0  0
 24 25  1  0  0  0  0
 25 26  2  0  0  0  0
 27 26  1  0  0  0  0
 27 29  1  0  0  0  0
 28 27  2  0  0  0  0
 30 24  2  0  0  0  0
 30 28  1  0  0  0  0
M  END
>  <Pose>
1

>  <Score>
-7.122

$$$$
