/Users/jonathanwahrer/Desktop/Msc/3_Semester/Drug_Design_Praktikum/waehrer_HTS_screening/HTS_experiment/out/docking_results/vina_output/4agl/1721_docked.pdbqt
 OpenBabel03212200343D

 28 31  0  0  1  0  0  0  0  0999 V2000
   92.1910   97.8870  -42.1440 C   0  0  0  0  0  2  0  0  0  0  0  0
   91.4530   96.7140  -41.8580 N   0  0  0  0  0  0  0  0  0  0  0  0
   90.6250   96.7450  -41.2570 H   0  0  0  0  0  0  0  0  0  0  0  0
   91.8850   95.4500  -42.4140 C   0  0  0  0  0  0  0  0  0  0  0  0
   91.5260   95.1920  -43.7150 C   0  0  1  0  0  3  0  0  0  0  0  0
   91.9200   93.9860  -44.2870 C   0  0  0  0  0  0  0  0  0  0  0  0
   90.8420   95.8270  -44.6780 N   0  0  0  0  0  0  0  0  0  0  0  0
   92.6290   93.1630  -43.5070 N   0  0  0  0  0  4  0  0  0  0  0  0
   91.4610   93.9540  -45.5480 N   0  0  0  0  0  0  0  0  0  0  0  0
   92.9820   93.4020  -42.2510 C   0  0  0  0  0  0  0  0  0  0  0  0
   93.9100   92.2530  -41.3240 Cl  0  0  0  0  0  0  0  0  0  0  0  0
   92.5990   94.5730  -41.6950 N   0  0  0  0  0  0  0  0  0  0  0  0
   90.7910   95.0900  -45.8030 C   0  0  0  0  0  3  0  0  0  0  0  0
   90.4210   96.7810  -44.5180 H   0  0  0  0  0  0  0  0  0  0  0  0
   91.7330   98.6740  -43.2780 C   0  0  0  0  0  0  0  0  0  0  0  0
   92.5250   98.5210  -44.3620 O   0  0  0  0  0  0  0  0  0  0  0  0
   90.6730   99.5220  -43.4390 N   0  0  0  0  0  0  0  0  0  0  0  0
   89.7390   99.9660  -42.4610 C   0  0  0  0  0  2  0  0  0  0  0  0
   90.4510  100.0390  -44.8430 C   0  0  0  0  0  2  0  0  0  0  0  0
   88.3230   99.4860  -42.7700 C   0  0  0  0  0  2  0  0  0  0  0  0
   88.2490   99.4080  -44.2010 N   0  0  0  0  0  0  0  0  0  0  0  0
   88.9640  100.3910  -44.9620 C   0  0  0  0  0  2  0  0  0  0  0  0
   87.5070   98.4190  -44.8700 C   0  0  0  0  0  0  0  0  0  0  0  0
   87.9460   97.8520  -46.0320 N   0  0  0  0  0  0  0  0  0  0  0  0
   87.2990   96.9210  -46.7100 C   0  0  0  0  0  3  0  0  0  0  0  0
   86.0940   96.4350  -46.2870 C   0  0  0  0  0  3  0  0  0  0  0  0
   85.5880   96.9690  -45.1110 C   0  0  0  0  0  3  0  0  0  0  0  0
   86.2860   97.9440  -44.4160 C   0  0  0  0  0  3  0  0  0  0  0  0
  1  2  1  0  0  0  0
  2  3  1  0  0  0  0
  4  2  1  0  0  0  0
  4 12  2  0  0  0  0
  5  6  1  1  0  0  0
  5  4  1  0  0  0  0
  6  8  2  0  0  0  0
  7 14  1  0  0  0  0
  7  5  1  0  0  0  0
  8 10  2  0  0  0  0
  9  6  1  0  0  0  0
 10 12  1  0  0  0  0
 10 11  1  0  0  0  0
 13  9  2  0  0  0  0
 13  7  1  0  0  0  0
 15  1  1  0  0  0  0
 16 15  2  0  0  0  0
 17 15  1  0  0  0  0
 17 18  1  0  0  0  0
 19 17  1  0  0  0  0
 20 18  1  0  0  0  0
 21 20  1  0  0  0  0
 22 19  1  0  0  0  0
 22 21  1  0  0  0  0
 23 28  1  0  0  0  0
 23 21  1  0  0  0  0
 24 23  2  0  0  0  0
 25 26  2  0  0  0  0
 25 24  1  0  0  0  0
 26 27  1  0  0  0  0
 27 28  2  0  0  0  0
M  END
>  <Pose>
1

>  <Score>
-6.205

$$$$
