/Users/jonathanwahrer/Desktop/Msc/3_Semester/Drug_Design_Praktikum/waehrer_HTS_screening/HTS_experiment/out/docking_results/vina_output/4agl/1732_docked.pdbqt
 OpenBabel03212200343D

 28 31  0  0  0  0  0  0  0  0999 V2000
   89.9770   99.1910  -43.9810 N   0  0  0  0  0  0  0  0  0  0  0  0
   89.7410   99.3550  -42.6900 N   0  0  0  0  0  2  0  0  0  0  0  0
   88.4340   99.3020  -42.4590 N   0  0  0  0  0  0  0  0  0  0  0  0
   87.8070   99.0980  -43.6370 C   0  0  0  0  0  0  0  0  0  0  0  0
   88.7920   99.0360  -44.5480 N   0  0  0  0  0  2  0  0  0  0  0  0
   91.2870   99.1820  -44.6520 C   0  0  0  0  0  2  0  0  0  0  0  0
   91.6790   97.7950  -45.0180 C   0  0  0  0  0  0  0  0  0  0  0  0
   91.0520   96.6850  -44.4520 N   0  0  0  0  0  0  0  0  0  0  0  0
   90.2820   96.9010  -43.7500 H   0  0  0  0  0  0  0  0  0  0  0  0
   92.5950   97.6740  -45.8520 O   0  0  0  0  0  0  0  0  0  0  0  0
   91.2990   95.3160  -44.6830 C   0  0  0  0  0  0  0  0  0  0  0  0
   91.7190   94.4850  -43.6430 C   0  0  0  0  0  0  0  0  0  0  0  0
   91.9440   95.2500  -41.9260 Br  0  0  0  0  0  0  0  0  0  0  0  0
   91.9770   93.1450  -43.7930 C   0  0  0  0  0  3  0  0  0  0  0  0
   91.8220   92.5630  -45.0320 C   0  0  0  0  0  3  0  0  0  0  0  0
   91.4110   93.3290  -46.0940 C   0  0  0  0  0  3  0  0  0  0  0  0
   91.1560   94.6900  -45.9070 C   0  0  0  0  0  3  0  0  0  0  0  0
   86.3740   98.9750  -43.8570 C   0  0  0  0  0  0  0  0  0  0  0  0
   85.6440  100.1280  -44.0260 C   0  0  0  0  0  0  0  0  0  0  0  0
   84.2800  100.0100  -44.2350 C   0  0  0  0  0  3  0  0  0  0  0  0
   83.6500   98.7920  -44.2770 C   0  0  0  0  0  3  0  0  0  0  0  0
   84.3810   97.6330  -44.1080 C   0  0  0  0  0  3  0  0  0  0  0  0
   85.7430   97.7540  -43.9000 C   0  0  0  0  0  3  0  0  0  0  0  0
   86.2270  101.4300  -43.9940 N   0  0  0  0  0  0  0  0  0  0  0  0
   86.3180  102.1780  -42.9020 N   0  0  0  0  0  0  0  0  0  0  0  0
   86.9030  103.3130  -43.2130 N   0  0  0  0  0  0  0  0  0  0  0  0
   87.1860  103.2870  -44.5130 N   0  0  0  0  0  0  0  0  0  0  0  0
   86.7610  102.1040  -45.0030 C   0  0  0  0  0  3  0  0  0  0  0  0
  1  2  1  0  0  0  0
  2  3  1  0  0  0  0
  4  3  2  0  0  0  0
  5  1  1  0  0  0  0
  5  4  1  0  0  0  0
  6  1  1  0  0  0  0
  7  6  1  0  0  0  0
  7  8  1  0  0  0  0
  8  9  1  0  0  0  0
 10  7  2  0  0  0  0
 11  8  1  0  0  0  0
 11 12  1  0  0  0  0
 12 13  1  0  0  0  0
 14 12  2  0  0  0  0
 15 14  1  0  0  0  0
 16 17  1  0  0  0  0
 16 15  2  0  0  0  0
 17 11  2  0  0  0  0
 18  4  1  0  0  0  0
 19 24  1  0  0  0  0
 19 18  2  0  0  0  0
 20 19  1  0  0  0  0
 21 20  2  0  0  0  0
 21 22  1  0  0  0  0
 22 23  2  0  0  0  0
 23 18  1  0  0  0  0
 24 25  1  0  0  0  0
 26 25  2  0  0  0  0
 27 26  1  0  0  0  0
 28 27  2  0  0  0  0
 28 24  1  0  0  0  0
M  END
>  <Pose>
1

>  <Score>
-6.494

$$$$
