/Users/jonathanwahrer/Desktop/Msc/3_Semester/Drug_Design_Praktikum/waehrer_HTS_screening/HTS_experiment/out/docking_results/vina_output/4agl/1736_docked.pdbqt
 OpenBabel03212200353D

 35 39  0  0  1  0  0  0  0  0999 V2000
   89.2340  102.8450  -46.9490 Cl  0  0  0  0  0  0  0  0  0  0  0  0
   88.1440  102.0090  -45.8320 C   0  0  0  0  0  0  0  0  0  0  0  0
   87.8650  100.6740  -45.9860 C   0  0  0  0  0  3  0  0  0  0  0  0
   87.0210  100.0340  -45.1170 C   0  0  0  0  0  0  0  0  0  0  0  0
   86.4550  100.7420  -44.0870 C   0  0  0  0  0  0  0  0  0  0  0  0
   86.7200  102.0990  -43.9040 C   0  0  0  0  0  3  0  0  0  0  0  0
   87.5720  102.7130  -44.7950 C   0  0  0  0  0  3  0  0  0  0  0  0
   85.6150   99.9180  -43.3010 N   0  0  0  0  0  0  0  0  0  0  0  0
   85.6640   98.6220  -43.8790 C   0  0  0  0  0  0  0  0  0  0  0  0
   85.0460   97.6170  -43.4670 O   0  0  0  0  0  0  0  0  0  0  0  0
   86.5590   98.6290  -45.0520 C   0  0  1  0  0  0  0  0  0  0  0  0
   85.8910   98.2150  -46.2610 N   0  0  0  0  0  0  0  0  0  0  0  0
   86.8230   97.4600  -47.0380 C   0  0  1  0  0  3  0  0  0  0  0  0
   87.7260   96.7400  -46.0630 C   0  0  2  0  0  3  0  0  0  0  0  0
   87.6560   97.6470  -44.8610 C   0  0  1  0  0  3  0  0  0  0  0  0
   89.0030   98.2510  -44.7120 C   0  0  0  0  0  0  0  0  0  0  0  0
   89.3380   99.2970  -44.1000 O   0  0  0  0  0  0  0  0  0  0  0  0
   89.9040   97.3830  -45.4280 N   0  0  0  0  0  0  0  0  0  0  0  0
   89.1520   96.7390  -46.4770 C   0  0  0  0  0  0  0  0  0  0  0  0
   89.5990   96.2580  -47.5510 O   0  0  0  0  0  0  0  0  0  0  0  0
   85.0430  100.1720  -42.4430 H   0  0  0  0  0  0  0  0  0  0  0  0
   85.5250   99.0290  -46.7640 H   0  0  0  0  0  0  0  0  0  0  0  0
   86.1270   96.4950  -47.9730 C   0  0  1  0  0  3  0  0  0  0  0  0
   84.8530   97.1890  -48.4420 C   0  0  0  0  0  1  0  0  0  0  0  0
   86.9310   96.3480  -49.1000 O   0  0  0  0  0  0  0  0  0  0  0  0
   86.6620   97.0020  -49.7840 H   0  0  0  0  0  0  0  0  0  0  0  0
   91.3120   97.1790  -45.1600 C   0  0  0  0  0  2  0  0  0  0  0  0
   91.4840   96.3230  -43.9490 C   0  0  0  0  0  0  0  0  0  0  0  0
   91.5320   94.9490  -44.0560 C   0  0  0  0  0  0  0  0  0  0  0  0
   91.6930   94.1770  -42.9180 C   0  0  0  0  0  3  0  0  0  0  0  0
   91.8090   94.7410  -41.6620 C   0  0  0  0  0  3  0  0  0  0  0  0
   91.7620   96.1120  -41.5440 C   0  0  0  0  0  3  0  0  0  0  0  0
   91.6020   96.8680  -42.6830 C   0  0  0  0  0  3  0  0  0  0  0  0
   91.4140   94.3800  -45.3280 O   0  0  0  0  0  0  0  0  0  0  0  0
   91.6990   92.9850  -45.4770 C   0  0  0  0  0  1  0  0  0  0  0  0
  1  2  1  0  0  0  0
  2  7  1  0  0  0  0
  3  2  2  0  0  0  0
  3  4  1  0  0  0  0
  4  5  2  0  0  0  0
  5  6  1  0  0  0  0
  5  8  1  0  0  0  0
  7  6  2  0  0  0  0
  8 21  1  0  0  0  0
  9 10  2  0  0  0  0
  9  8  1  0  0  0  0
 11  4  1  6  0  0  0
 11 15  1  0  0  0  0
 11  9  1  0  0  0  0
 12 11  1  0  0  0  0
 13 23  1  1  0  0  0
 13 12  1  0  0  0  0
 13 14  1  0  0  0  0
 14 19  1  6  0  0  0
 14 15  1  0  0  0  0
 15 16  1  6  0  0  0
 16 17  2  0  0  0  0
 18 27  1  0  0  0  0
 18 16  1  0  0  0  0
 19 18  1  0  0  0  0
 20 19  2  0  0  0  0
 22 12  1  0  0  0  0
 23 24  1  6  0  0  0
 25 23  1  0  0  0  0
 26 25  1  0  0  0  0
 27 28  1  0  0  0  0
 28 33  1  0  0  0  0
 29 28  2  0  0  0  0
 29 30  1  0  0  0  0
 30 31  2  0  0  0  0
 31 32  1  0  0  0  0
 33 32  2  0  0  0  0
 34 29  1  0  0  0  0
 35 34  1  0  0  0  0
M  END
>  <Pose>
1

>  <Score>
-6.373

$$$$
