/Users/jonathanwahrer/Desktop/Msc/3_Semester/Drug_Design_Praktikum/waehrer_HTS_screening/HTS_experiment/out/docking_results/vina_output/4agl/1744_docked.pdbqt
 OpenBabel03212200353D

 34 37  0  0  1  0  0  0  0  0999 V2000
   91.4180   98.6260  -43.8120 N   0  0  0  0  0  0  0  0  0  0  0  0
   92.4790   99.0720  -44.6550 C   0  0  0  0  0  0  0  0  0  0  0  0
   93.5690   98.4630  -44.7830 O   0  0  0  0  0  0  0  0  0  0  0  0
   92.2910  100.2770  -45.3940 N   0  0  0  0  0  0  0  0  0  0  0  0
   91.0540  100.9960  -45.2680 C   0  0  0  0  0  0  0  0  0  0  0  0
   90.8600  101.9200  -46.1270 O   0  0  0  0  0  0  0  0  0  0  0  0
   90.0630  100.6950  -44.2190 C   0  0  1  0  0  3  0  0  0  0  0  0
   90.1840   99.3190  -43.6780 C   0  0  0  0  0  0  0  0  0  0  0  0
   89.1840   98.8110  -43.1130 O   0  0  0  0  0  0  0  0  0  0  0  0
   93.0320  100.6640  -46.0340 H   0  0  0  0  0  0  0  0  0  0  0  0
   90.1590  101.7000  -43.0960 C   0  0  1  0  0  3  0  0  0  0  0  0
   90.8140  102.8440  -43.1790 C   0  0  0  0  0  2  0  0  0  0  0  0
   90.6400  103.4890  -41.8590 C   0  0  1  0  0  3  0  0  0  0  0  0
   89.3630  102.9480  -41.4280 N   0  0  0  0  0  0  0  0  0  0  0  0
   89.5530  101.5970  -41.8070 N   0  0  0  0  0  0  0  0  0  0  0  0
   89.1460  103.0760  -40.4360 H   0  0  0  0  0  0  0  0  0  0  0  0
   89.3400  100.7150  -41.3410 H   0  0  0  0  0  0  0  0  0  0  0  0
   91.7270  103.0820  -40.9250 C   0  0  0  0  0  0  0  0  0  0  0  0
   92.9390  102.5800  -41.3040 C   0  0  0  0  0  3  0  0  0  0  0  0
   93.9290  102.2540  -40.3990 C   0  0  0  0  0  0  0  0  0  0  0  0
   93.7200  102.4300  -39.0430 C   0  0  0  0  0  0  0  0  0  0  0  0
   92.4720  102.9470  -38.6600 C   0  0  0  0  0  3  0  0  0  0  0  0
   91.4970  103.2650  -39.5750 C   0  0  0  0  0  3  0  0  0  0  0  0
   95.1600  101.7380  -40.8410 O   0  0  0  0  0  0  0  0  0  0  0  0
   95.9730  101.8720  -40.2490 H   0  0  0  0  0  0  0  0  0  0  0  0
   94.6830  102.1210  -38.1130 O   0  0  0  0  0  0  0  0  0  0  0  0
   94.5710  102.5190  -36.7620 C   0  0  0  0  0  1  0  0  0  0  0  0
   91.6340   97.4310  -43.0710 C   0  0  0  0  0  0  0  0  0  0  0  0
   91.4770   96.1840  -43.6520 C   0  0  0  0  0  3  0  0  0  0  0  0
   91.6920   95.0120  -42.9710 C   0  0  0  0  0  0  0  0  0  0  0  0
   91.4750   93.4650  -43.7440 Cl  0  0  0  0  0  0  0  0  0  0  0  0
   92.0810   95.1040  -41.6460 C   0  0  0  0  0  3  0  0  0  0  0  0
   92.2480   96.3270  -41.0300 C   0  0  0  0  0  3  0  0  0  0  0  0
   92.0170   97.4850  -41.7650 C   0  0  0  0  0  3  0  0  0  0  0  0
  1  8  1  0  0  0  0
  1 28  1  0  0  0  0
  2  1  1  0  0  0  0
  3  2  2  0  0  0  0
  4  5  1  0  0  0  0
  4  2  1  0  0  0  0
  6  5  2  0  0  0  0
  7  5  1  6  0  0  0
  7  8  1  0  0  0  0
  7 11  1  0  0  0  0
  8  9  2  0  0  0  0
 10  4  1  0  0  0  0
 11 12  1  6  0  0  0
 11 15  1  0  0  0  0
 12 13  1  0  0  0  0
 13 14  1  0  0  0  0
 13 18  1  1  0  0  0
 14 16  1  0  0  0  0
 15 14  1  0  0  0  0
 15 17  1  0  0  0  0
 18 23  1  0  0  0  0
 19 18  2  0  0  0  0
 19 20  1  0  0  0  0
 20 21  2  0  0  0  0
 21 22  1  0  0  0  0
 21 26  1  0  0  0  0
 23 22  2  0  0  0  0
 24 20  1  0  0  0  0
 24 25  1  0  0  0  0
 26 27  1  0  0  0  0
 28 34  1  0  0  0  0
 29 28  2  0  0  0  0
 29 30  1  0  0  0  0
 30 32  2  0  0  0  0
 31 30  1  0  0  0  0
 32 33  1  0  0  0  0
 34 33  2  0  0  0  0
M  END
>  <Pose>
1

>  <Score>
-6.810

$$$$
