/Users/jonathanwahrer/Desktop/Msc/3_Semester/Drug_Design_Praktikum/waehrer_HTS_screening/HTS_experiment/out/docking_results/vina_output/4agl/1745_docked.pdbqt
 OpenBabel03212200363D

 34 37  0  0  1  0  0  0  0  0999 V2000
   91.2400   98.2840  -44.2470 N   0  0  0  0  0  0  0  0  0  0  0  0
   92.2220   98.8980  -45.0660 C   0  0  0  0  0  0  0  0  0  0  0  0
   93.3810   98.4640  -45.1220 O   0  0  0  0  0  0  0  0  0  0  0  0
   91.8820  100.0490  -45.8520 N   0  0  0  0  0  0  0  0  0  0  0  0
   90.5630  100.5900  -45.8290 C   0  0  0  0  0  0  0  0  0  0  0  0
   90.1080  101.2750  -46.7610 O   0  0  0  0  0  0  0  0  0  0  0  0
   89.7010  100.3130  -44.6240 C   0  0  1  0  0  3  0  0  0  0  0  0
   89.9330   98.8960  -44.2730 C   0  0  0  0  0  0  0  0  0  0  0  0
   88.9540   98.1240  -43.9670 O   0  0  0  0  0  0  0  0  0  0  0  0
   92.6090  100.4790  -46.4380 H   0  0  0  0  0  0  0  0  0  0  0  0
   90.0720  101.2580  -43.5290 C   0  0  2  0  0  3  0  0  0  0  0  0
   89.8270  101.1690  -42.2380 C   0  0  0  0  0  2  0  0  0  0  0  0
   90.4040  102.3630  -41.5610 C   0  0  2  0  0  3  0  0  0  0  0  0
   90.4350  103.3280  -42.6900 N   0  0  0  0  0  0  0  0  0  0  0  0
   90.7750  102.4870  -43.7580 N   0  0  0  0  0  0  0  0  0  0  0  0
   89.5000  103.7650  -42.8040 H   0  0  0  0  0  0  0  0  0  0  0  0
   91.3870  102.6810  -44.5430 H   0  0  0  0  0  0  0  0  0  0  0  0
   91.8290  102.0910  -41.2300 C   0  0  0  0  0  0  0  0  0  0  0  0
   92.8510  103.0060  -41.5650 C   0  0  0  0  0  3  0  0  0  0  0  0
   94.1610  102.8170  -41.2530 C   0  0  0  0  0  0  0  0  0  0  0  0
   94.5400  101.6760  -40.5700 C   0  0  0  0  0  0  0  0  0  0  0  0
   93.5700  100.7620  -40.2290 C   0  0  0  0  0  3  0  0  0  0  0  0
   92.2470  100.9660  -40.5520 C   0  0  0  0  0  3  0  0  0  0  0  0
   95.1370  103.7570  -41.6130 O   0  0  0  0  0  0  0  0  0  0  0  0
   95.7120  103.7010  -42.9000 C   0  0  0  0  0  1  0  0  0  0  0  0
   95.8750  101.4670  -40.2420 O   0  0  0  0  0  0  0  0  0  0  0  0
   96.3870  102.2060  -39.7780 H   0  0  0  0  0  0  0  0  0  0  0  0
   91.4580   97.1230  -43.4570 C   0  0  0  0  0  0  0  0  0  0  0  0
   91.4510   95.8830  -44.1070 C   0  0  0  0  0  3  0  0  0  0  0  0
   91.6370   94.6990  -43.4290 C   0  0  0  0  0  0  0  0  0  0  0  0
   91.6080   93.2030  -44.3230 Cl  0  0  0  0  0  0  0  0  0  0  0  0
   91.8390   94.6800  -42.0750 C   0  0  0  0  0  3  0  0  0  0  0  0
   91.8500   95.9130  -41.4160 C   0  0  0  0  0  3  0  0  0  0  0  0
   91.6610   97.0930  -42.1030 C   0  0  0  0  0  3  0  0  0  0  0  0
  1 28  1  0  0  0  0
  2  1  1  0  0  0  0
  3  2  2  0  0  0  0
  4  5  1  0  0  0  0
  4  2  1  0  0  0  0
  6  5  2  0  0  0  0
  7  5  1  6  0  0  0
  7  8  1  0  0  0  0
  7 11  1  0  0  0  0
  8  1  1  0  0  0  0
  8  9  2  0  0  0  0
 10  4  1  0  0  0  0
 11 12  1  6  0  0  0
 12 13  1  0  0  0  0
 13 18  1  6  0  0  0
 14 13  1  0  0  0  0
 15 11  1  0  0  0  0
 15 14  1  0  0  0  0
 16 14  1  0  0  0  0
 17 15  1  0  0  0  0
 18 23  1  0  0  0  0
 19 20  1  0  0  0  0
 19 18  2  0  0  0  0
 20 21  2  0  0  0  0
 21 26  1  0  0  0  0
 21 22  1  0  0  0  0
 23 22  2  0  0  0  0
 24 20  1  0  0  0  0
 25 24  1  0  0  0  0
 26 27  1  0  0  0  0
 28 34  1  0  0  0  0
 29 28  2  0  0  0  0
 29 30  1  0  0  0  0
 30 32  2  0  0  0  0
 31 30  1  0  0  0  0
 32 33  1  0  0  0  0
 34 33  2  0  0  0  0
M  END
>  <Pose>
1

>  <Score>
-6.691

$$$$
