/Users/jonathanwahrer/Desktop/Msc/3_Semester/Drug_Design_Praktikum/waehrer_HTS_screening/HTS_experiment/out/docking_results/vina_output/4agl/1750_docked.pdbqt
 OpenBabel03212200363D

 27 30  0  0  0  0  0  0  0  0999 V2000
   85.1840   98.6290  -46.1620 N   0  0  0  0  0  0  0  0  0  0  0  0
   85.2730   97.2200  -46.3910 C   0  0  0  0  0  2  0  0  0  0  0  0
   86.7070   96.7290  -46.4520 C   0  0  0  0  0  2  0  0  0  0  0  0
   87.4580   97.5870  -47.3290 N   0  0  0  0  0  0  0  0  0  0  0  0
   86.7410   98.6150  -48.0570 C   0  0  0  0  0  2  0  0  0  0  0  0
   85.9670   99.4280  -47.0420 C   0  0  0  0  0  2  0  0  0  0  0  0
   88.8660   97.4680  -47.5090 C   0  0  0  0  0  0  0  0  0  0  0  0
   89.4980   98.2290  -48.2780 O   0  0  0  0  0  0  0  0  0  0  0  0
   89.6240   96.4400  -46.7920 C   0  0  0  0  0  0  0  0  0  0  0  0
   89.8720   95.1720  -47.2220 N   0  0  0  0  0  0  0  0  0  0  0  0
   90.5970   94.5300  -46.2930 C   0  0  0  0  0  0  0  0  0  0  0  0
   90.8000   95.3860  -45.2920 N   0  0  0  0  0  0  0  0  0  0  0  0
   91.1150   93.2470  -46.2150 C   0  0  0  0  0  3  0  0  0  0  0  0
   90.2170   96.5590  -45.5710 C   0  0  0  0  0  3  0  0  0  0  0  0
   91.5110   94.9760  -44.2230 C   0  0  0  0  0  3  0  0  0  0  0  0
   92.0450   93.7240  -44.0940 C   0  0  0  0  0  0  0  0  0  0  0  0
   91.8430   92.8170  -45.1280 C   0  0  0  0  0  3  0  0  0  0  0  0
   92.9690   93.2230  -42.6810 Cl  0  0  0  0  0  0  0  0  0  0  0  0
   85.2090   99.1090  -44.5420 S   0  0  0  0  0  0  0  0  0  0  0  0
   84.1320  100.1130  -44.2890 O   0  0  0  0  0  0  0  0  0  0  0  0
   84.9470   97.9060  -43.6810 O   0  0  0  0  0  0  0  0  0  0  0  0
   86.7080   99.7820  -44.0380 N   0  0  0  0  0  0  0  0  0  0  0  0
   87.6040   98.7830  -43.4880 C   0  0  0  0  0  2  0  0  0  0  0  0
   88.5770   99.5040  -42.5860 C   0  0  0  0  0  2  0  0  0  0  0  0
   88.8690  100.7790  -43.0580 O   0  0  0  0  0  0  0  0  0  0  0  0
   87.7760  101.6400  -42.9920 C   0  0  0  0  0  2  0  0  0  0  0  0
   86.5260  100.7830  -43.0040 C   0  0  0  0  0  2  0  0  0  0  0  0
  1 19  1  0  0  0  0
  2  1  1  0  0  0  0
  3  2  1  0  0  0  0
  4  3  1  0  0  0  0
  5  4  1  0  0  0  0
  5  6  1  0  0  0  0
  6  1  1  0  0  0  0
  7  4  1  0  0  0  0
  7  9  1  0  0  0  0
  8  7  2  0  0  0  0
  9 14  2  0  0  0  0
 10  9  1  0  0  0  0
 10 11  2  0  0  0  0
 11 13  1  0  0  0  0
 11 12  1  0  0  0  0
 12 15  1  0  0  0  0
 13 17  2  0  0  0  0
 14 12  1  0  0  0  0
 15 16  2  0  0  0  0
 16 18  1  0  0  0  0
 17 16  1  0  0  0  0
 19 20  2  0  0  0  0
 19 22  1  0  0  0  0
 19 21  2  0  0  0  0
 22 23  1  0  0  0  0
 22 27  1  0  0  0  0
 23 24  1  0  0  0  0
 25 26  1  0  0  0  0
 25 24  1  0  0  0  0
 27 26  1  0  0  0  0
M  END
>  <Pose>
1

>  <Score>
-5.852

$$$$
