/Users/jonathanwahrer/Desktop/Msc/3_Semester/Drug_Design_Praktikum/waehrer_HTS_screening/HTS_experiment/out/docking_results/vina_output/4agl/1788_docked.pdbqt
 OpenBabel03212200373D

 30 33  0  0  0  0  0  0  0  0999 V2000
   91.2470   92.0700  -47.2840 N   0  0  0  0  0  0  0  0  0  0  0  0
   90.3300   92.1990  -48.1760 N   0  0  0  0  0  0  0  0  0  0  0  0
   90.4750   91.2670  -49.1920 C   0  0  0  0  0  0  0  0  0  0  0  0
   91.5380   90.5510  -48.8800 N   0  0  0  0  0  0  0  0  0  0  0  0
   92.0120   91.0540  -47.6890 C   0  0  0  0  0  0  0  0  0  0  0  0
   93.0180   90.5960  -47.1060 O   0  0  0  0  0  0  0  0  0  0  0  0
   92.1930   89.5240  -49.6270 C   0  0  0  0  0  2  0  0  0  0  0  0
   91.8190   88.1430  -49.2680 C   0  0  0  0  0  0  0  0  0  0  0  0
   92.6860   87.5630  -48.4910 O   0  0  0  0  0  0  0  0  0  0  0  0
   90.7260   87.3780  -49.6110 N   0  0  0  0  0  0  0  0  0  0  0  0
   89.6610   87.7840  -50.4880 C   0  0  0  0  0  2  0  0  0  0  0  0
   90.5900   86.0260  -49.0420 C   0  0  0  0  0  2  0  0  0  0  0  0
   88.6230   86.6680  -50.7000 C   0  0  0  0  0  2  0  0  0  0  0  0
   88.1550   86.1980  -49.3930 N   0  0  0  0  0  0  0  0  0  0  0  0
   89.2290   85.9550  -48.4580 C   0  0  0  0  0  0  0  0  0  0  0  0
   87.1690   86.0540  -49.1610 H   0  0  0  0  0  0  0  0  0  0  0  0
   88.9770   85.7100  -47.2560 O   0  0  0  0  0  0  0  0  0  0  0  0
   89.5470   91.2630  -50.3210 C   0  0  0  0  0  0  0  0  0  0  0  0
   90.0730   91.4450  -51.6060 C   0  0  0  0  0  3  0  0  0  0  0  0
   89.3110   91.5220  -52.7390 C   0  0  0  0  0  3  0  0  0  0  0  0
   87.9280   91.4200  -52.6680 C   0  0  0  0  0  3  0  0  0  0  0  0
   87.4030   91.2450  -51.4180 C   0  0  0  0  0  3  0  0  0  0  0  0
   88.1870   91.1670  -50.2630 C   0  0  0  0  0  3  0  0  0  0  0  0
   91.3850   92.8680  -46.1130 C   0  0  0  0  0  0  0  0  0  0  0  0
   91.0530   94.2080  -46.1450 C   0  0  0  0  0  3  0  0  0  0  0  0
   91.1810   95.0010  -45.0180 C   0  0  0  0  0  3  0  0  0  0  0  0
   91.6420   94.5030  -43.8140 C   0  0  0  0  0  0  0  0  0  0  0  0
   91.8110   95.4970  -42.3790 Cl  0  0  0  0  0  0  0  0  0  0  0  0
   91.9760   93.1580  -43.7840 C   0  0  0  0  0  3  0  0  0  0  0  0
   91.8470   92.3600  -44.9170 C   0  0  0  0  0  3  0  0  0  0  0  0
  1 24  1  0  0  0  0
  2  1  1  0  0  0  0
  3  4  1  0  0  0  0
  3  2  2  0  0  0  0
  4  5  1  0  0  0  0
  5  1  1  0  0  0  0
  5  6  2  0  0  0  0
  7  8  1  0  0  0  0
  7  4  1  0  0  0  0
  8  9  2  0  0  0  0
 10  8  1  0  0  0  0
 10 12  1  0  0  0  0
 11 10  1  0  0  0  0
 12 15  1  0  0  0  0
 13 11  1  0  0  0  0
 13 14  1  0  0  0  0
 14 16  1  0  0  0  0
 14 15  1  0  0  0  0
 15 17  2  0  0  0  0
 18 23  1  0  0  0  0
 18  3  1  0  0  0  0
 19 18  2  0  0  0  0
 20 21  2  0  0  0  0
 20 19  1  0  0  0  0
 21 22  1  0  0  0  0
 22 23  2  0  0  0  0
 24 30  1  0  0  0  0
 25 24  2  0  0  0  0
 25 26  1  0  0  0  0
 26 27  2  0  0  0  0
 27 29  1  0  0  0  0
 27 28  1  0  0  0  0
 30 29  2  0  0  0  0
M  END
>  <Pose>
1

>  <Score>
-6.912

$$$$
