/Users/jonathanwahrer/Desktop/Msc/3_Semester/Drug_Design_Praktikum/waehrer_HTS_screening/HTS_experiment/out/docking_results/vina_output/4agl/1789_docked.pdbqt
 OpenBabel03212200373D

 29 32  0  0  0  0  0  0  0  0999 V2000
   91.7120   92.7830  -44.8680 N   0  0  0  0  0  0  0  0  0  0  0  0
   91.8980   92.0900  -43.7700 N   0  0  0  0  0  0  0  0  0  0  0  0
   91.9400   92.9640  -42.7690 N   0  0  0  0  0  0  0  0  0  0  0  0
   91.7790   94.2220  -43.2240 C   0  0  0  0  0  0  0  0  0  0  0  0
   91.6360   94.0870  -44.5470 C   0  0  0  0  0  0  0  0  0  0  0  0
   91.4720   95.3820  -45.0190 C   0  0  0  0  0  0  0  0  0  0  0  0
   91.3060   95.6680  -46.2260 O   0  0  0  0  0  0  0  0  0  0  0  0
   91.5090   96.2850  -44.0280 N   0  0  0  0  0  0  0  0  0  0  0  0
   91.7010   95.5630  -42.9080 C   0  0  0  0  0  0  0  0  0  0  0  0
   91.7960   96.0420  -41.7390 O   0  0  0  0  0  0  0  0  0  0  0  0
   91.9980   91.0350  -43.6880 H   0  0  0  0  0  0  0  0  0  0  0  0
   92.0800   92.6800  -41.7700 H   0  0  0  0  0  0  0  0  0  0  0  0
   91.3790   97.7020  -44.0950 C   0  0  0  0  0  0  0  0  0  0  0  0
   90.1800   98.3570  -43.8940 C   0  0  0  0  0  3  0  0  0  0  0  0
   90.0630   99.7300  -43.9600 C   0  0  0  0  0  0  0  0  0  0  0  0
   91.1570  100.5220  -44.2380 C   0  0  0  0  0  0  0  0  0  0  0  0
   92.3620   99.8820  -44.4420 C   0  0  0  0  0  3  0  0  0  0  0  0
   92.4690   98.5050  -44.3720 C   0  0  0  0  0  3  0  0  0  0  0  0
   88.8550  100.3890  -43.7580 O   0  0  0  0  0  0  0  0  0  0  0  0
   88.2480  100.2570  -42.4860 C   0  0  0  0  0  1  0  0  0  0  0  0
   91.0290  101.9070  -44.3040 O   0  0  0  0  0  0  0  0  0  0  0  0
   91.6370  102.7840  -43.4060 C   0  0  0  0  0  1  0  0  0  0  0  0
   91.6060   92.2440  -46.1680 C   0  0  0  0  0  0  0  0  0  0  0  0
   90.6850   92.7670  -47.0700 C   0  0  0  0  0  3  0  0  0  0  0  0
   90.6380   92.1900  -48.3220 C   0  0  0  0  0  3  0  0  0  0  0  0
   91.4290   91.1510  -48.7220 C   0  0  0  0  0  0  0  0  0  0  0  0
   91.3310   90.4460  -50.3370 Cl  0  0  0  0  0  0  0  0  0  0  0  0
   92.3350   90.6420  -47.8250 C   0  0  0  0  0  3  0  0  0  0  0  0
   92.4210   91.1780  -46.5710 C   0  0  0  0  0  3  0  0  0  0  0  0
  1  5  1  0  0  0  0
  1  2  1  0  0  0  0
  2 11  1  0  0  0  0
  2  3  1  0  0  0  0
  3 12  1  0  0  0  0
  4  9  1  0  0  0  0
  4  3  1  0  0  0  0
  5  4  2  0  0  0  0
  6  5  1  0  0  0  0
  6  8  1  0  0  0  0
  7  6  2  0  0  0  0
  8  9  1  0  0  0  0
  9 10  2  0  0  0  0
 13  8  1  0  0  0  0
 13 14  1  0  0  0  0
 15 14  2  0  0  0  0
 15 19  1  0  0  0  0
 16 15  1  0  0  0  0
 17 18  1  0  0  0  0
 17 16  2  0  0  0  0
 18 13  2  0  0  0  0
 19 20  1  0  0  0  0
 21 16  1  0  0  0  0
 21 22  1  0  0  0  0
 23  1  1  0  0  0  0
 24 23  2  0  0  0  0
 25 24  1  0  0  0  0
 26 25  2  0  0  0  0
 26 28  1  0  0  0  0
 27 26  1  0  0  0  0
 28 29  2  0  0  0  0
 29 23  1  0  0  0  0
M  END
>  <Pose>
1

>  <Score>
-6.824

$$$$
