/Users/jonathanwahrer/Desktop/Msc/3_Semester/Drug_Design_Praktikum/waehrer_HTS_screening/HTS_experiment/out/docking_results/vina_output/4agl/1790_docked.pdbqt
 OpenBabel03212200373D

 29 32  0  0  0  0  0  0  0  0999 V2000
   91.1250  100.5860  -43.4460 N   0  0  0  0  0  0  0  0  0  0  0  0
   90.5000  101.2930  -44.3660 N   0  0  0  0  0  0  0  0  0  0  0  0
   90.1180  100.4260  -45.2960 N   0  0  0  0  0  0  0  0  0  0  0  0
   90.4900   99.1730  -44.9830 C   0  0  0  0  0  0  0  0  0  0  0  0
   91.1290   99.2870  -43.8070 C   0  0  0  0  0  0  0  0  0  0  0  0
   91.5100   97.9980  -43.4880 C   0  0  0  0  0  0  0  0  0  0  0  0
   92.1460   97.7210  -42.4270 O   0  0  0  0  0  0  0  0  0  0  0  0
   91.1260   97.1150  -44.4250 N   0  0  0  0  0  0  0  0  0  0  0  0
   90.4910   97.8450  -45.3560 C   0  0  0  0  0  0  0  0  0  0  0  0
   89.9790   97.3640  -46.4100 O   0  0  0  0  0  0  0  0  0  0  0  0
   90.3480  102.3300  -44.3460 H   0  0  0  0  0  0  0  0  0  0  0  0
   89.5950  100.6820  -46.1610 H   0  0  0  0  0  0  0  0  0  0  0  0
   91.3680   95.7100  -44.3860 C   0  0  0  0  0  0  0  0  0  0  0  0
   91.7690   95.0640  -43.2340 C   0  0  0  0  0  3  0  0  0  0  0  0
   92.0090   93.7060  -43.1710 C   0  0  0  0  0  0  0  0  0  0  0  0
   91.8400   92.9590  -44.3180 C   0  0  0  0  0  3  0  0  0  0  0  0
   91.4420   93.5520  -45.4980 C   0  0  0  0  0  0  0  0  0  0  0  0
   91.2120   94.9250  -45.5120 C   0  0  0  0  0  3  0  0  0  0  0  0
   92.4160   93.0940  -41.9700 O   0  0  0  0  0  0  0  0  0  0  0  0
   93.7840   92.8230  -41.7720 C   0  0  0  0  0  1  0  0  0  0  0  0
   91.2830   92.7670  -46.6320 O   0  0  0  0  0  0  0  0  0  0  0  0
   91.5430   91.3900  -46.6240 C   0  0  0  0  0  1  0  0  0  0  0  0
   91.7070  101.0990  -42.2600 C   0  0  0  0  0  0  0  0  0  0  0  0
   93.0520  101.4230  -42.1720 C   0  0  0  0  0  3  0  0  0  0  0  0
   93.5810  101.9170  -41.0090 C   0  0  0  0  0  3  0  0  0  0  0  0
   92.8100  102.1140  -39.8830 C   0  0  0  0  0  0  0  0  0  0  0  0
   93.5460  102.7540  -38.4080 Cl  0  0  0  0  0  0  0  0  0  0  0  0
   91.4770  101.8010  -39.9470 C   0  0  0  0  0  3  0  0  0  0  0  0
   90.9480  101.3030  -41.1190 C   0  0  0  0  0  3  0  0  0  0  0  0
  1 23  1  0  0  0  0
  2 11  1  0  0  0  0
  2  1  1  0  0  0  0
  3  4  1  0  0  0  0
  3  2  1  0  0  0  0
  4  5  2  0  0  0  0
  5  6  1  0  0  0  0
  5  1  1  0  0  0  0
  6  7  2  0  0  0  0
  8 13  1  0  0  0  0
  8  6  1  0  0  0  0
  9  4  1  0  0  0  0
  9  8  1  0  0  0  0
 10  9  2  0  0  0  0
 12  3  1  0  0  0  0
 13 14  1  0  0  0  0
 14 15  2  0  0  0  0
 15 19  1  0  0  0  0
 16 15  1  0  0  0  0
 17 16  2  0  0  0  0
 18 17  1  0  0  0  0
 18 13  2  0  0  0  0
 19 20  1  0  0  0  0
 21 22  1  0  0  0  0
 21 17  1  0  0  0  0
 23 24  2  0  0  0  0
 23 29  1  0  0  0  0
 24 25  1  0  0  0  0
 25 26  2  0  0  0  0
 26 27  1  0  0  0  0
 28 26  1  0  0  0  0
 29 28  2  0  0  0  0
M  END
>  <Pose>
1

>  <Score>
-7.305

$$$$
