/Users/jonathanwahrer/Desktop/Msc/3_Semester/Drug_Design_Praktikum/waehrer_HTS_screening/HTS_experiment/out/docking_results/vina_output/4agl/1802_docked.pdbqt
 OpenBabel03212200383D

 27 30  0  0  0  0  0  0  0  0999 V2000
   93.3410   92.8050  -42.5960 Cl  0  0  0  0  0  0  0  0  0  0  0  0
   92.3250   93.5820  -43.8140 C   0  0  0  0  0  0  0  0  0  0  0  0
   91.9090   94.8960  -43.5860 C   0  0  0  0  0  3  0  0  0  0  0  0
   91.1210   95.5670  -44.4990 C   0  0  0  0  0  0  0  0  0  0  0  0
   90.7680   94.8720  -45.6390 C   0  0  0  0  0  0  0  0  0  0  0  0
   91.1490   93.5980  -45.8990 C   0  0  0  0  0  3  0  0  0  0  0  0
   91.9510   92.9250  -44.9640 C   0  0  0  0  0  3  0  0  0  0  0  0
   89.9240   95.6100  -46.6120 C   0  0  0  0  0  0  0  0  0  0  0  0
   89.4270   95.2570  -47.7590 N   0  0  0  0  0  0  0  0  0  0  0  0
   88.6640   96.3390  -48.3370 C   0  0  0  0  0  3  0  0  0  0  0  0
   88.7490   97.4970  -47.3730 C   0  0  0  0  0  3  0  0  0  0  0  0
   89.5550   96.9300  -46.3040 N   0  0  0  0  0  0  0  0  0  0  0  0
   89.9620   97.5780  -45.1000 C   0  0  0  0  0  0  0  0  0  0  0  0
   89.7310   98.8180  -44.6220 N   0  0  0  0  0  0  0  0  0  0  0  0
   90.3420   98.9520  -43.4470 N   0  0  0  0  0  0  0  0  0  0  0  0
   90.9400   97.7840  -43.2260 C   0  0  0  0  0  0  0  0  0  0  0  0
   91.6320   97.5060  -42.2070 O   0  0  0  0  0  0  0  0  0  0  0  0
   90.7200   96.9020  -44.2410 N   0  0  0  0  0  0  0  0  0  0  0  0
   90.3530  100.1490  -42.6010 C   0  0  0  0  0  2  0  0  0  0  0  0
   91.7220  100.8060  -42.9600 C   0  0  0  0  0  0  0  0  0  0  0  0
   92.2710  101.1900  -41.8680 O   0  0  0  0  0  0  0  0  0  0  0  0
   92.1270  100.8950  -44.2340 N   0  0  0  0  0  0  0  0  0  0  0  0
   93.3120  101.4150  -43.8230 H   0  0  0  0  0  0  0  0  0  0  0  0
   92.5440  100.9870  -45.5440 C   0  0  0  0  0  2  0  0  0  0  0  0
   92.8800   99.6190  -46.1500 C   0  0  0  0  0  2  0  0  0  0  0  0
   92.7160   99.6200  -47.5150 O   0  0  0  0  0  0  0  0  0  0  0  0
   91.6460  100.3290  -47.9780 C   0  0  0  0  0  1  0  0  0  0  0  0
  2  3  1  0  0  0  0
  2  1  1  0  0  0  0
  4 18  1  0  0  0  0
  4  3  2  0  0  0  0
  5  4  1  0  0  0  0
  6  5  2  0  0  0  0
  6  7  1  0  0  0  0
  7  2  2  0  0  0  0
  8 12  1  0  0  0  0
  8  5  1  0  0  0  0
  9  8  2  0  0  0  0
 10  9  1  0  0  0  0
 10 11  2  0  0  0  0
 11 12  1  0  0  0  0
 12 13  1  0  0  0  0
 13 14  2  0  0  0  0
 13 18  1  0  0  0  0
 14 15  1  0  0  0  0
 15 16  1  0  0  0  0
 15 19  1  0  0  0  0
 16 17  2  0  0  0  0
 18 16  1  0  0  0  0
 20 19  1  0  0  0  0
 20 21  2  0  0  0  0
 22 23  1  0  0  0  0
 22 20  1  0  0  0  0
 24 22  1  0  0  0  0
 25 24  1  0  0  0  0
 26 25  1  0  0  0  0
 27 26  1  0  0  0  0
M  END
>  <Pose>
1

>  <Score>
-6.023

$$$$
