/Users/jonathanwahrer/Desktop/Msc/3_Semester/Drug_Design_Praktikum/waehrer_HTS_screening/HTS_experiment/out/docking_results/vina_output/4agl/1806_docked.pdbqt
 OpenBabel03212200383D

 32 35  0  0  0  0  0  0  0  0999 V2000
   91.4280   99.4090  -42.8040 N   0  0  0  0  0  0  0  0  0  0  0  0
   92.3590  100.0260  -43.7260 C   0  0  0  0  0  2  0  0  0  0  0  0
   91.5580  100.4450  -44.9690 C   0  0  0  0  0  2  0  0  0  0  0  0
   90.2190   99.9640  -44.9300 N   0  0  0  0  0  0  0  0  0  0  0  0
   89.4260  100.4800  -43.8150 C   0  0  0  0  0  2  0  0  0  0  0  0
   90.1720  100.0930  -42.5610 C   0  0  0  0  0  2  0  0  0  0  0  0
   91.6980   98.1970  -42.1140 C   0  0  0  0  0  3  0  0  0  0  0  0
   91.7180   96.9870  -42.6220 C   0  0  0  0  0  0  0  0  0  0  0  0
   91.4590   96.7240  -43.9870 N   0  0  0  0  0  0  0  0  0  0  0  0
   92.0140   95.8620  -41.7650 N   0  0  0  0  0  0  0  0  0  0  0  0
   91.4920   95.3750  -44.5060 C   0  0  0  0  0  0  0  0  0  0  0  0
   91.2440   97.5020  -44.6350 H   0  0  0  0  0  0  0  0  0  0  0  0
   91.7700   94.2930  -43.7100 C   0  0  0  0  0  0  0  0  0  0  0  0
   91.2350   95.1640  -45.8360 C   0  0  0  0  0  3  0  0  0  0  0  0
   91.7920   93.0180  -44.2380 C   0  0  0  0  0  3  0  0  0  0  0  0
   92.0370   94.5520  -42.3020 C   0  0  0  0  0  0  0  0  0  0  0  0
   91.5370   92.8110  -45.5590 C   0  0  0  0  0  0  0  0  0  0  0  0
   91.5510   91.2070  -46.2890 Cl  0  0  0  0  0  0  0  0  0  0  0  0
   91.2560   93.8880  -46.3690 C   0  0  0  0  0  3  0  0  0  0  0  0
   92.2970   93.5410  -41.5630 O   0  0  0  0  0  0  0  0  0  0  0  0
   92.2080   96.0180  -40.7560 H   0  0  0  0  0  0  0  0  0  0  0  0
   89.5680   99.0550  -45.8000 C   0  0  0  0  0  0  0  0  0  0  0  0
   88.8650   98.0040  -45.2350 N   0  0  0  0  0  0  0  0  0  0  0  0
   88.2230   97.0750  -45.9410 C   0  0  0  0  0  3  0  0  0  0  0  0
   88.2580   97.1620  -47.3050 C   0  0  0  0  0  3  0  0  0  0  0  0
   88.9410   98.1870  -47.8970 C   0  0  0  0  0  3  0  0  0  0  0  0
   89.6220   99.1730  -47.1560 C   0  0  0  0  0  0  0  0  0  0  0  0
   90.3010  100.2500  -47.8090 C   0  0  0  0  0  0  0  0  0  0  0  0
   89.8960  101.4070  -47.8970 O   0  0  0  0  0  0  0  0  0  0  0  0
   91.5580   99.9860  -48.4200 N   0  0  0  0  0  0  0  0  0  0  0  0
   92.3970   99.7590  -47.8390 H   0  0  0  0  0  0  0  0  0  0  0  0
   91.7140  100.0030  -49.4520 H   0  0  0  0  0  0  0  0  0  0  0  0
  1  6  1  0  0  0  0
  1  7  1  0  0  0  0
  2  1  1  0  0  0  0
  3  4  1  0  0  0  0
  3  2  1  0  0  0  0
  4  5  1  0  0  0  0
  5  6  1  0  0  0  0
  8  7  2  0  0  0  0
  8 10  1  0  0  0  0
  9  8  1  0  0  0  0
 10 21  1  0  0  0  0
 11  9  1  0  0  0  0
 11 13  1  0  0  0  0
 12  9  1  0  0  0  0
 13 16  1  0  0  0  0
 14 11  2  0  0  0  0
 15 13  2  0  0  0  0
 16 10  1  0  0  0  0
 16 20  2  0  0  0  0
 17 15  1  0  0  0  0
 18 17  1  0  0  0  0
 19 14  1  0  0  0  0
 19 17  2  0  0  0  0
 22 23  1  0  0  0  0
 22  4  1  0  0  0  0
 24 23  2  0  0  0  0
 25 24  1  0  0  0  0
 26 25  2  0  0  0  0
 26 27  1  0  0  0  0
 27 22  2  0  0  0  0
 28 27  1  0  0  0  0
 29 28  2  0  0  0  0
 30 31  1  0  0  0  0
 30 28  1  0  0  0  0
 32 30  1  0  0  0  0
M  END
>  <Pose>
1

>  <Score>
-6.852

$$$$
