/Users/jonathanwahrer/Desktop/Msc/3_Semester/Drug_Design_Praktikum/waehrer_HTS_screening/HTS_experiment/out/docking_results/vina_output/4agl/1825_docked.pdbqt
 OpenBabel03212200403D

 29 32  0  0  1  0  0  0  0  0999 V2000
   91.1870   96.9430  -44.2510 N   0  0  0  0  0  0  0  0  0  0  0  0
   91.5280   96.1820  -43.1690 C   0  0  1  0  0  3  0  0  0  0  0  0
   91.6150   94.8960  -43.5450 N   0  0  0  0  0  0  0  0  0  0  0  0
   91.3460   94.7730  -44.8510 C   0  0  0  0  0  0  0  0  0  0  0  0
   91.0790   96.0860  -45.2680 C   0  0  0  0  0  3  0  0  0  0  0  0
   91.9710   94.0900  -42.3780 C   0  0  0  0  0  2  0  0  0  0  0  0
   91.6900   94.9790  -41.1810 C   0  0  0  0  0  2  0  0  0  0  0  0
   91.8410   96.3540  -41.7270 C   0  0  0  0  0  2  0  0  0  0  0  0
   90.9780   98.3980  -44.2220 C   0  0  0  0  0  2  0  0  0  0  0  0
   89.5510   98.6650  -43.7890 C   0  0  0  0  0  0  0  0  0  0  0  0
   88.5080   98.6970  -44.7000 N   0  0  0  0  0  0  0  0  0  0  0  0
   88.7630   98.5160  -45.7180 H   0  0  0  0  0  0  0  0  0  0  0  0
   89.4010   98.8520  -42.5770 O   0  0  0  0  0  0  0  0  0  0  0  0
   87.1530   98.9470  -44.4060 C   0  0  0  0  0  0  0  0  0  0  0  0
   86.1990   97.9790  -44.7870 C   0  0  0  0  0  0  0  0  0  0  0  0
   84.8580   98.1590  -44.5360 C   0  0  0  0  0  0  0  0  0  0  0  0
   86.6410   96.7500  -45.4700 C   0  0  0  0  0  1  0  0  0  0  0  0
   83.6630   96.9650  -44.9980 Cl  0  0  0  0  0  0  0  0  0  0  0  0
   84.3870   99.2880  -43.9060 C   0  0  0  0  0  3  0  0  0  0  0  0
   85.2900  100.2470  -43.5250 C   0  0  0  0  0  3  0  0  0  0  0  0
   86.6620  100.0570  -43.7840 C   0  0  0  0  0  3  0  0  0  0  0  0
   91.2970   93.6220  -45.7380 C   0  0  0  0  0  0  0  0  0  0  0  0
   91.8430   92.4120  -45.4100 C   0  0  0  0  0  3  0  0  0  0  0  0
   91.7870   91.3030  -46.2350 C   0  0  0  0  0  3  0  0  0  0  0  0
   91.1590   91.3700  -47.4690 C   0  0  0  0  0  0  0  0  0  0  0  0
   90.6090   92.5840  -47.8000 C   0  0  0  0  0  3  0  0  0  0  0  0
   90.6650   93.6920  -46.9760 C   0  0  0  0  0  3  0  0  0  0  0  0
   91.0840   90.2810  -48.3210 O   0  0  0  0  0  0  0  0  0  0  0  0
   89.8640   89.8200  -48.8720 C   0  0  0  0  0  1  0  0  0  0  0  0
  1  9  1  0  0  0  0
  1  2  1  0  0  0  0
  2  8  1  6  0  0  0
  3  2  1  0  0  0  0
  3  6  1  0  0  0  0
  4  3  1  0  0  0  0
  5  4  2  0  0  0  0
  5  1  1  0  0  0  0
  6  7  1  0  0  0  0
  8  7  1  0  0  0  0
  9 10  1  0  0  0  0
 10 13  2  0  0  0  0
 11 14  1  0  0  0  0
 11 10  1  0  0  0  0
 12 11  1  0  0  0  0
 14 21  1  0  0  0  0
 15 16  1  0  0  0  0
 15 14  2  0  0  0  0
 16 19  2  0  0  0  0
 17 15  1  0  0  0  0
 18 16  1  0  0  0  0
 19 20  1  0  0  0  0
 21 20  2  0  0  0  0
 22 23  1  0  0  0  0
 22  4  1  0  0  0  0
 24 23  2  0  0  0  0
 25 24  1  0  0  0  0
 26 25  2  0  0  0  0
 26 27  1  0  0  0  0
 27 22  2  0  0  0  0
 28 25  1  0  0  0  0
 29 28  1  0  0  0  0
M  END
>  <Pose>
1

>  <Score>
-6.898

$$$$
