/Users/jonathanwahrer/Desktop/Msc/3_Semester/Drug_Design_Praktikum/waehrer_HTS_screening/HTS_experiment/out/docking_results/vina_output/4agl/1835_docked.pdbqt
 OpenBabel03212200403D

 36 39  0  0  1  0  0  0  0  0999 V2000
   91.4960   99.8240  -43.8100 C   0  0  0  0  0  0  0  0  0  0  0  0
   90.3910  100.4470  -43.3730 N   0  0  0  0  0  0  0  0  0  0  0  0
   90.7950  101.2800  -42.3980 C   0  0  0  0  0  0  0  0  0  0  0  0
   90.1350  102.1540  -41.6000 N   0  0  0  0  0  0  0  0  0  0  0  0
   90.7770  102.8940  -40.6750 C   0  0  0  0  0  3  0  0  0  0  0  0
   92.1140  102.7780  -40.5230 N   0  0  0  0  0  0  0  0  0  0  0  0
   92.8390  101.9310  -41.2770 C   0  0  0  0  0  0  0  0  0  0  0  0
   92.1580  101.1830  -42.2190 C   0  0  0  0  0  0  0  0  0  0  0  0
   92.5750  100.2610  -43.1180 N   0  0  0  0  0  0  0  0  0  0  0  0
   91.5420   98.8500  -44.8430 N   0  0  0  0  0  0  0  0  0  0  0  0
   91.2750   99.0900  -45.8270 H   0  0  0  0  0  0  0  0  0  0  0  0
   91.9380   97.5310  -44.6070 N   0  0  0  0  0  0  0  0  0  0  0  0
   91.2810   96.8370  -43.7530 C   0  0  0  0  0  3  0  0  0  0  0  0
   91.6270   95.4460  -43.4440 C   0  0  0  0  0  0  0  0  0  0  0  0
   91.5440   94.4570  -44.4000 C   0  0  0  0  0  0  0  0  0  0  0  0
   91.0100   94.9040  -46.0030 Cl  0  0  0  0  0  0  0  0  0  0  0  0
   91.8800   93.1400  -44.0820 C   0  0  0  0  0  3  0  0  0  0  0  0
   92.3010   92.7830  -42.8190 C   0  0  0  0  0  3  0  0  0  0  0  0
   92.3820   93.7790  -41.8680 C   0  0  0  0  0  3  0  0  0  0  0  0
   92.0480   95.0890  -42.1810 C   0  0  0  0  0  0  0  0  0  0  0  0
   92.1580   96.3480  -40.9560 Cl  0  0  0  0  0  0  0  0  0  0  0  0
   89.0270  100.3180  -43.7960 C   0  0  1  0  0  3  0  0  0  0  0  0
   88.8960   99.5820  -44.9710 O   0  0  0  0  0  0  0  0  0  0  0  0
   87.5260   99.3190  -44.9790 C   0  0  2  0  0  3  0  0  0  0  0  0
   87.3490   98.6710  -43.6140 C   0  0  1  0  0  3  0  0  0  0  0  0
   88.1960   99.5880  -42.7550 C   0  0  2  0  0  3  0  0  0  0  0  0
   87.1190   98.3950  -46.0950 C   0  0  0  0  0  2  0  0  0  0  0  0
   86.7710   97.1410  -45.6560 O   0  0  0  0  0  0  0  0  0  0  0  0
   85.8050   97.0580  -45.5020 H   0  0  0  0  0  0  0  0  0  0  0  0
   86.0210   98.6660  -43.2130 O   0  0  0  0  0  0  0  0  0  0  0  0
   86.0040   98.8590  -42.2380 H   0  0  0  0  0  0  0  0  0  0  0  0
   87.3210  100.4570  -42.1000 O   0  0  0  0  0  0  0  0  0  0  0  0
   86.9970  101.1680  -42.6890 H   0  0  0  0  0  0  0  0  0  0  0  0
   94.2370  101.8310  -41.0940 N   0  0  0  0  0  0  0  0  0  0  0  0
   94.6620  101.0680  -40.5390 H   0  0  0  0  0  0  0  0  0  0  0  0
   94.8530  102.5420  -41.5260 H   0  0  0  0  0  0  0  0  0  0  0  0
  1  2  1  0  0  0  0
  1  9  2  0  0  0  0
  2  3  1  0  0  0  0
  3  8  2  0  0  0  0
  3  4  1  0  0  0  0
  4  5  2  0  0  0  0
  5  6  1  0  0  0  0
  7 34  1  0  0  0  0
  7  6  2  0  0  0  0
  8  7  1  0  0  0  0
  9  8  1  0  0  0  0
 10 12  1  0  0  0  0
 10  1  1  0  0  0  0
 11 10  1  0  0  0  0
 12 13  2  0  0  0  0
 13 14  1  0  0  0  0
 14 20  1  0  0  0  0
 15 17  1  0  0  0  0
 15 14  2  0  0  0  0
 16 15  1  0  0  0  0
 17 18  2  0  0  0  0
 18 19  1  0  0  0  0
 20 19  2  0  0  0  0
 20 21  1  0  0  0  0
 22  2  1  1  0  0  0
 22 26  1  0  0  0  0
 23 22  1  0  0  0  0
 24 27  1  6  0  0  0
 24 23  1  0  0  0  0
 24 25  1  0  0  0  0
 25 30  1  1  0  0  0
 25 26  1  0  0  0  0
 26 32  1  6  0  0  0
 27 28  1  0  0  0  0
 28 29  1  0  0  0  0
 30 31  1  0  0  0  0
 33 32  1  0  0  0  0
 34 35  1  0  0  0  0
 36 34  1  0  0  0  0
M  END
>  <Pose>
1

>  <Score>
-6.497

$$$$
