/Users/jonathanwahrer/Desktop/Msc/3_Semester/Drug_Design_Praktikum/waehrer_HTS_screening/HTS_experiment/out/docking_results/vina_output/4agl/1846_docked.pdbqt
 OpenBabel03212200413D

 31 34  0  0  1  0  0  0  0  0999 V2000
   91.3750   95.7420  -43.9890 N   0  0  0  0  0  0  0  0  0  0  0  0
   90.8820   96.2660  -45.1330 C   0  0  0  0  0  2  0  0  0  0  0  0
   90.7130   95.4910  -46.2240 N   0  0  0  0  0  0  0  0  0  0  0  0
   91.0150   94.1870  -46.2430 C   0  0  0  0  0  0  0  0  0  0  0  0
   90.8500   93.4070  -47.3240 N   0  0  0  0  0  0  0  0  0  0  0  0
   91.1460   92.0970  -47.3700 C   0  0  0  0  0  0  0  0  0  0  0  0
   91.6440   91.5490  -46.2280 N   0  0  0  0  0  0  0  0  0  0  0  0
   91.8240   92.2930  -45.1250 C   0  0  0  0  0  3  0  0  0  0  0  0
   91.5180   93.6370  -45.0890 C   0  0  2  0  0  3  0  0  0  0  0  0
   91.6960   94.4180  -43.9660 C   0  0  0  0  0  0  0  0  0  0  0  0
   92.1590   93.8570  -42.9420 O   0  0  0  0  0  0  0  0  0  0  0  0
   91.5850   96.4920  -42.7920 C   0  0  0  0  0  2  0  0  0  0  0  0
   91.4250   97.9720  -43.0050 C   0  0  0  0  0  0  0  0  0  0  0  0
   92.5170   98.7750  -43.3710 N   0  0  0  0  0  0  0  0  0  0  0  0
   93.4750   98.3040  -43.4940 H   0  0  0  0  0  0  0  0  0  0  0  0
   90.2820   98.4260  -42.8400 O   0  0  0  0  0  0  0  0  0  0  0  0
   92.4260  100.1680  -43.5800 C   0  0  0  0  0  0  0  0  0  0  0  0
   92.2220  100.7850  -44.7880 C   0  0  0  0  0  3  0  0  0  0  0  0
   92.1650  102.1770  -44.8720 C   0  0  0  0  0  3  0  0  0  0  0  0
   92.3040  103.0050  -43.7850 C   0  0  0  0  0  0  0  0  0  0  0  0
   92.5080  102.3970  -42.5700 C   0  0  0  0  0  0  0  0  0  0  0  0
   92.6960  103.3610  -41.1200 Cl  0  0  0  0  0  0  0  0  0  0  0  0
   92.5660  101.0290  -42.4760 C   0  0  0  0  0  3  0  0  0  0  0  0
   92.2400  104.4000  -43.9090 O   0  0  0  0  0  0  0  0  0  0  0  0
   93.1030  105.0660  -44.8020 C   0  0  0  0  0  1  0  0  0  0  0  0
   90.9580   91.3100  -48.5300 N   0  0  0  0  0  0  0  0  0  0  0  0
   91.8070   90.1570  -48.7250 C   0  0  0  0  0  2  0  0  0  0  0  0
   90.9660   89.0170  -49.2960 C   0  0  0  0  0  2  0  0  0  0  0  0
   90.1970   89.4360  -50.3800 O   0  0  0  0  0  0  0  0  0  0  0  0
   89.2290   90.3020  -49.8710 C   0  0  0  0  0  2  0  0  0  0  0  0
   89.9580   91.6020  -49.5310 C   0  0  0  0  0  2  0  0  0  0  0  0
  1 10  1  0  0  0  0
  1 12  1  0  0  0  0
  2  1  1  0  0  0  0
  3  2  1  0  0  0  0
  4  3  2  0  0  0  0
  4  9  1  0  0  0  0
  5  4  1  0  0  0  0
  6  5  2  0  0  0  0
  6  7  1  0  0  0  0
  7  8  2  0  0  0  0
  9  8  1  1  0  0  0
  9 10  1  0  0  0  0
 10 11  2  0  0  0  0
 13 16  2  0  0  0  0
 13 12  1  0  0  0  0
 14 13  1  0  0  0  0
 15 14  1  0  0  0  0
 17 14  1  0  0  0  0
 17 23  1  0  0  0  0
 18 17  2  0  0  0  0
 19 18  1  0  0  0  0
 19 20  2  0  0  0  0
 20 21  1  0  0  0  0
 21 23  2  0  0  0  0
 21 22  1  0  0  0  0
 24 20  1  0  0  0  0
 25 24  1  0  0  0  0
 26  6  1  0  0  0  0
 27 26  1  0  0  0  0
 28 27  1  0  0  0  0
 29 30  1  0  0  0  0
 29 28  1  0  0  0  0
 30 31  1  0  0  0  0
 31 26  1  0  0  0  0
M  END
>  <Pose>
1

>  <Score>
-6.610

$$$$
