/Users/jonathanwahrer/Desktop/Msc/3_Semester/Drug_Design_Praktikum/waehrer_HTS_screening/HTS_experiment/out/docking_results/vina_output/4agl/1850_docked.pdbqt
 OpenBabel03212200413D

 24 27  0  0  0  0  0  0  0  0999 V2000
   91.6530   92.8090  -45.1200 Cl  0  0  0  0  0  0  0  0  0  0  0  0
   91.8670   93.7880  -43.6750 C   0  0  0  0  0  0  0  0  0  0  0  0
   91.6750   95.1540  -43.7190 C   0  0  0  0  0  0  0  0  0  0  0  0
   91.8410   95.9150  -42.5970 C   0  0  0  0  0  0  0  0  0  0  0  0
   92.2040   95.2860  -41.4280 C   0  0  0  0  0  3  0  0  0  0  0  0
   92.4020   93.9240  -41.3610 C   0  0  0  0  0  3  0  0  0  0  0  0
   92.2310   93.1640  -42.5010 C   0  0  0  0  0  3  0  0  0  0  0  0
   91.6530   97.3850  -42.5650 C   0  0  0  0  0  2  0  0  0  0  0  0
   91.0950   97.7710  -43.8380 N   0  0  0  0  0  0  0  0  0  0  0  0
   91.7080   97.2040  -45.0150 C   0  0  0  0  0  2  0  0  0  0  0  0
   91.2840   95.7310  -45.0380 C   0  0  0  0  0  2  0  0  0  0  0  0
   90.0000   98.6600  -43.9560 C   0  0  0  0  0  0  0  0  0  0  0  0
   89.5600   98.9560  -45.0980 O   0  0  0  0  0  0  0  0  0  0  0  0
   89.3240   99.2780  -42.7920 C   0  0  0  0  0  2  0  0  0  0  0  0
   89.6890  100.6120  -42.6170 O   0  0  0  0  0  0  0  0  0  0  0  0
   90.9960  101.0460  -42.4400 C   0  0  0  0  0  0  0  0  0  0  0  0
   91.5640  100.9430  -41.2230 N   0  0  0  0  0  0  0  0  0  0  0  0
   92.8120  101.3400  -40.9890 N   0  0  0  0  0  0  0  0  0  0  0  0
   93.5870  101.8680  -41.9460 C   0  0  0  0  0  0  0  0  0  0  0  0
   93.5430  101.3200  -39.8600 C   0  0  0  0  0  3  0  0  0  0  0  0
   94.7900  102.1740  -41.4210 N   0  0  0  0  0  0  0  0  0  0  0  0
   93.0340  101.9890  -43.2150 C   0  0  0  0  0  3  0  0  0  0  0  0
   94.7470  101.8360  -40.1550 N   0  0  0  0  0  0  0  0  0  0  0  0
   91.7450  101.5800  -43.4590 C   0  0  0  0  0  3  0  0  0  0  0  0
  1  2  1  0  0  0  0
  2  7  1  0  0  0  0
  3  2  2  0  0  0  0
  3  4  1  0  0  0  0
  4  8  1  0  0  0  0
  4  5  2  0  0  0  0
  5  6  1  0  0  0  0
  7  6  2  0  0  0  0
  9  8  1  0  0  0  0
 10  9  1  0  0  0  0
 11 10  1  0  0  0  0
 11  3  1  0  0  0  0
 12  9  1  0  0  0  0
 12 14  1  0  0  0  0
 13 12  2  0  0  0  0
 14 15  1  0  0  0  0
 15 16  1  0  0  0  0
 16 17  2  0  0  0  0
 17 18  1  0  0  0  0
 18 20  1  0  0  0  0
 19 21  2  0  0  0  0
 19 18  1  0  0  0  0
 21 23  1  0  0  0  0
 22 19  1  0  0  0  0
 23 20  2  0  0  0  0
 24 22  2  0  0  0  0
 24 16  1  0  0  0  0
M  END
>  <Pose>
1

>  <Score>
-6.684

$$$$
