/Users/jonathanwahrer/Desktop/Msc/3_Semester/Drug_Design_Praktikum/waehrer_HTS_screening/HTS_experiment/out/docking_results/vina_output/4agl/1852_docked.pdbqt
 OpenBabel03212200413D

 26 29  0  0  1  0  0  0  0  0999 V2000
   91.5670   98.9740  -45.9640 N   0  0  0  0  0  0  0  0  0  0  0  0
   91.8730   99.6220  -44.7280 C   0  0  0  0  0  2  0  0  0  0  0  0
   91.9060  101.1180  -44.9890 C   0  0  1  0  0  3  0  0  0  0  0  0
   90.9590  101.2460  -46.1640 C   0  0  0  0  0  2  0  0  0  0  0  0
   91.3020   99.9750  -46.9490 C   0  0  0  0  0  2  0  0  0  0  0  0
   90.2960   97.8230  -45.8110 S   0  0  0  0  0  0  0  0  0  0  0  0
   89.6800   97.5600  -47.1430 O   0  0  0  0  0  0  0  0  0  0  0  0
   89.2520   98.4170  -44.9020 O   0  0  0  0  0  0  0  0  0  0  0  0
   90.8620   96.3230  -45.1140 C   0  0  0  0  0  0  0  0  0  0  0  0
   91.2580   96.2720  -43.7920 C   0  0  0  0  0  3  0  0  0  0  0  0
   91.7140   95.1100  -43.1920 C   0  0  0  0  0  0  0  0  0  0  0  0
   91.7840   93.9400  -43.9260 C   0  0  0  0  0  0  0  0  0  0  0  0
   92.1110   95.0470  -41.8770 O   0  0  0  0  0  0  0  0  0  0  0  0
   91.3890   93.9990  -45.2380 C   0  0  0  0  0  3  0  0  0  0  0  0
   92.2450   92.8010  -43.2860 O   0  0  0  0  0  0  0  0  0  0  0  0
   90.9340   95.1530  -45.8380 C   0  0  0  0  0  3  0  0  0  0  0  0
   93.1000   92.8310  -42.1560 C   0  0  0  0  0  2  0  0  0  0  0  0
   92.9040   94.0530  -41.2980 C   0  0  0  0  0  2  0  0  0  0  0  0
   91.3180  101.7620  -43.8710 O   0  0  0  0  0  0  0  0  0  0  0  0
   91.9480  101.8150  -42.6380 C   0  0  0  0  0  0  0  0  0  0  0  0
   93.2450  102.2390  -42.6490 N   0  0  0  0  0  0  0  0  0  0  0  0
   93.8810  102.3010  -41.4680 C   0  0  0  0  0  3  0  0  0  0  0  0
   93.2720  101.9570  -40.2780 C   0  0  0  0  0  0  0  0  0  0  0  0
   91.9570  101.5350  -40.3280 C   0  0  0  0  0  2  0  0  0  0  0  0
   94.1150  102.0430  -38.7450 Cl  0  0  0  0  0  0  0  0  0  0  0  0
   91.3180  101.4730  -41.5150 N   0  0  0  0  0  0  0  0  0  0  0  0
  1  6  1  0  0  0  0
  1  2  1  0  0  0  0
  3  2  1  0  0  0  0
  3 19  1  1  0  0  0
  4  3  1  0  0  0  0
  5  4  1  0  0  0  0
  5  1  1  0  0  0  0
  6  9  1  0  0  0  0
  6  8  2  0  0  0  0
  7  6  2  0  0  0  0
  9 10  1  0  0  0  0
 10 11  2  0  0  0  0
 11 13  1  0  0  0  0
 12 15  1  0  0  0  0
 12 11  1  0  0  0  0
 13 18  1  0  0  0  0
 14 12  2  0  0  0  0
 15 17  1  0  0  0  0
 16 14  1  0  0  0  0
 16  9  2  0  0  0  0
 17 18  1  0  0  0  0
 19 20  1  0  0  0  0
 20 26  2  0  0  0  0
 21 20  2  0  0  0  0
 21 22  1  0  0  0  0
 22 23  2  0  0  0  0
 23 25  1  0  0  0  0
 24 23  1  0  0  0  0
 26 24  1  0  0  0  0
M  END
>  <Pose>
1

>  <Score>
-6.018

$$$$
