/Users/jonathanwahrer/Desktop/Msc/3_Semester/Drug_Design_Praktikum/waehrer_HTS_screening/HTS_experiment/out/docking_results/vina_output/4agl/1856_docked.pdbqt
 OpenBabel03212200413D

 31 34  0  0  0  0  0  0  0  0999 V2000
   92.0550   99.6910  -43.6630 C   0  0  0  0  0  0  0  0  0  0  0  0
   90.7950  100.0310  -43.9770 N   0  0  0  0  0  4  0  0  0  0  0  0
   89.7580   99.1540  -44.0070 C   0  0  0  0  0  0  0  0  0  0  0  0
   90.0810   97.8720  -43.6910 N   0  0  0  0  0  0  0  0  0  0  0  0
   91.3210   97.4720  -43.3700 C   0  0  0  0  0  0  0  0  0  0  0  0
   92.2800   98.3880  -43.3630 N   0  0  0  0  0  2  0  0  0  0  0  0
   93.1060  100.6460  -43.6460 N   0  0  0  0  0  0  0  0  0  0  0  0
   93.6640  100.8460  -44.4990 H   0  0  0  0  0  0  0  0  0  0  0  0
   93.4250  101.3490  -42.4840 N   0  0  0  0  0  0  0  0  0  0  0  0
   92.6840  101.1350  -41.4190 C   0  0  0  0  0  3  0  0  0  0  0  0
   92.9810  101.8480  -40.1860 C   0  0  0  0  0  0  0  0  0  0  0  0
   91.9410  102.4770  -39.4860 C   0  0  0  0  0  3  0  0  0  0  0  0
   92.2010  103.1490  -38.3290 C   0  0  0  0  0  0  0  0  0  0  0  0
   90.7900  104.0070  -37.3730 Br  0  0  0  0  0  0  0  0  0  0  0  0
   93.4790  103.2250  -37.8230 C   0  0  0  0  0  3  0  0  0  0  0  0
   94.5120  102.6180  -38.4900 C   0  0  0  0  0  3  0  0  0  0  0  0
   94.2510  101.9240  -39.6830 C   0  0  0  0  0  0  0  0  0  0  0  0
   95.3140  101.3240  -40.3290 O   0  0  0  0  0  0  0  0  0  0  0  0
   96.0750  101.8160  -40.7500 H   0  0  0  0  0  0  0  0  0  0  0  0
   88.4470   99.5450  -44.3400 N   0  0  0  0  0  0  0  0  0  0  0  0
   87.5070   98.5890  -44.8440 C   0  0  0  0  0  2  0  0  0  0  0  0
   86.2670   98.6770  -43.9710 C   0  0  0  0  0  2  0  0  0  0  0  0
   85.8030   99.9990  -44.0560 O   0  0  0  0  0  0  0  0  0  0  0  0
   86.6930  100.8620  -43.4170 C   0  0  0  0  0  2  0  0  0  0  0  0
   88.0210  100.9030  -44.1840 C   0  0  0  0  0  2  0  0  0  0  0  0
   91.5850   96.1190  -43.0520 N   0  0  0  0  0  0  0  0  0  0  0  0
   92.0610   95.6890  -41.7530 C   0  0  0  0  0  2  0  0  0  0  0  0
   91.5670   94.2880  -41.4660 C   0  0  0  0  0  2  0  0  0  0  0  0
   91.9220   93.3720  -42.4200 O   0  0  0  0  0  0  0  0  0  0  0  0
   92.3570   93.9410  -43.6100 C   0  0  0  0  0  2  0  0  0  0  0  0
   91.3910   95.0450  -44.0310 C   0  0  0  0  0  2  0  0  0  0  0  0
  1  7  1  0  0  0  0
  1  6  1  0  0  0  0
  2  1  2  0  0  0  0
  3  2  2  0  0  0  0
  3  4  1  0  0  0  0
  4  5  2  0  0  0  0
  5  6  1  0  0  0  0
  5 26  1  0  0  0  0
  7  9  1  0  0  0  0
  8  7  1  0  0  0  0
  9 10  2  0  0  0  0
 10 11  1  0  0  0  0
 11 17  2  0  0  0  0
 11 12  1  0  0  0  0
 12 13  2  0  0  0  0
 13 15  1  0  0  0  0
 13 14  1  0  0  0  0
 16 15  2  0  0  0  0
 17 16  1  0  0  0  0
 18 17  1  0  0  0  0
 19 18  1  0  0  0  0
 20 25  1  0  0  0  0
 20  3  1  0  0  0  0
 21 20  1  0  0  0  0
 21 22  1  0  0  0  0
 23 22  1  0  0  0  0
 23 24  1  0  0  0  0
 25 24  1  0  0  0  0
 26 27  1  0  0  0  0
 27 28  1  0  0  0  0
 29 28  1  0  0  0  0
 30 29  1  0  0  0  0
 31 30  1  0  0  0  0
 31 26  1  0  0  0  0
M  END
>  <Pose>
1

>  <Score>
-6.489

$$$$
