/Users/jonathanwahrer/Desktop/Msc/3_Semester/Drug_Design_Praktikum/waehrer_HTS_screening/HTS_experiment/out/docking_results/vina_output/4agl/1863_docked.pdbqt
 OpenBabel03212200423D

 33 36  0  0  0  0  0  0  0  0999 V2000
   90.7940   97.6750  -44.6430 N   0  0  0  0  0  0  0  0  0  0  0  0
   91.0950   96.3660  -44.4210 C   0  0  0  0  0  0  0  0  0  0  0  0
   91.4810   96.2460  -43.1120 C   0  0  0  0  0  0  0  0  0  0  0  0
   91.4030   97.4700  -42.5910 N   0  0  0  0  0  0  0  0  0  0  0  0
   90.9810   98.3700  -43.5190 C   0  0  0  0  0  0  0  0  0  0  0  0
   91.8460   95.0340  -42.6600 N   0  0  0  0  0  0  0  0  0  0  0  0
   91.8410   93.9400  -43.4690 C   0  0  0  0  0  0  0  0  0  0  0  0
   92.1840   92.7890  -43.0500 O   0  0  0  0  0  0  0  0  0  0  0  0
   91.4680   94.0260  -44.7570 N   0  0  0  0  0  0  0  0  0  0  0  0
   91.1000   95.2270  -45.2240 C   0  0  0  0  0  0  0  0  0  0  0  0
   90.7610   95.2750  -46.4270 O   0  0  0  0  0  0  0  0  0  0  0  0
   92.2640   94.8580  -41.2940 C   0  0  0  0  0  1  0  0  0  0  0  0
   91.4640   93.1670  -45.3860 H   0  0  0  0  0  0  0  0  0  0  0  0
   90.8360   99.7840  -43.2750 N   0  0  0  0  0  0  0  0  0  0  0  0
   89.6790  100.1600  -42.4950 C   0  0  0  0  0  2  0  0  0  0  0  0
   89.6080  101.6340  -42.1880 C   0  0  0  0  0  2  0  0  0  0  0  0
   90.8860  102.0480  -41.7390 N   0  0  0  0  0  0  0  0  0  0  0  0
   91.8780  101.9360  -42.7550 C   0  0  0  0  0  2  0  0  0  0  0  0
   91.7130  100.8080  -43.7300 C   0  0  0  0  0  2  0  0  0  0  0  0
   91.2280  101.4090  -40.5070 C   0  0  0  0  0  2  0  0  0  0  0  0
   92.6630  101.0110  -40.4060 C   0  0  0  0  0  0  0  0  0  0  0  0
   93.5950  101.8040  -40.1960 O   0  0  0  0  0  0  0  0  0  0  0  0
   92.9160   99.6090  -40.5730 N   0  0  0  0  0  0  0  0  0  0  0  0
   92.9930   99.1730  -41.5190 H   0  0  0  0  0  0  0  0  0  0  0  0
   93.0220   99.0310  -39.7420 H   0  0  0  0  0  0  0  0  0  0  0  0
   90.3250   98.1670  -45.8960 C   0  0  0  0  0  2  0  0  0  0  0  0
   88.8720   98.4750  -45.9640 C   0  0  0  0  0  0  0  0  0  0  0  0
   87.9690   97.4020  -45.9260 C   0  0  0  0  0  3  0  0  0  0  0  0
   86.6130   97.5660  -45.9880 C   0  0  0  0  0  0  0  0  0  0  0  0
   85.4710   96.2270  -45.9310 Cl  0  0  0  0  0  0  0  0  0  0  0  0
   86.0940   98.8380  -46.0960 C   0  0  0  0  0  3  0  0  0  0  0  0
   86.9750   99.9000  -46.1340 C   0  0  0  0  0  3  0  0  0  0  0  0
   88.3500   99.7280  -46.0700 C   0  0  0  0  0  3  0  0  0  0  0  0
  1  2  1  0  0  0  0
  1  5  1  0  0  0  0
  2  3  2  0  0  0  0
  3  6  1  0  0  0  0
  3  4  1  0  0  0  0
  5 14  1  0  0  0  0
  5  4  2  0  0  0  0
  6 12  1  0  0  0  0
  7  8  2  0  0  0  0
  7  6  1  0  0  0  0
  9  7  1  0  0  0  0
 10  9  1  0  0  0  0
 10  2  1  0  0  0  0
 11 10  2  0  0  0  0
 13  9  1  0  0  0  0
 14 15  1  0  0  0  0
 15 16  1  0  0  0  0
 16 17  1  0  0  0  0
 17 20  1  0  0  0  0
 18 17  1  0  0  0  0
 19 14  1  0  0  0  0
 19 18  1  0  0  0  0
 20 21  1  0  0  0  0
 21 22  2  0  0  0  0
 23 21  1  0  0  0  0
 23 25  1  0  0  0  0
 24 23  1  0  0  0  0
 26  1  1  0  0  0  0
 27 28  1  0  0  0  0
 27 26  1  0  0  0  0
 29 30  1  0  0  0  0
 29 28  2  0  0  0  0
 31 29  1  0  0  0  0
 32 31  2  0  0  0  0
 32 33  1  0  0  0  0
 33 27  2  0  0  0  0
M  END
>  <Pose>
1

>  <Score>
-6.662

$$$$
