/Users/jonathanwahrer/Desktop/Msc/3_Semester/Drug_Design_Praktikum/waehrer_HTS_screening/HTS_experiment/out/docking_results/vina_output/4agl/1893_docked.pdbqt
 OpenBabel03212200423D

 28 31  0  0  0  0  0  0  0  0999 V2000
   91.6790  100.8940  -42.6080 N   0  0  0  0  0  0  0  0  0  0  0  0
   90.9950   99.8010  -43.0210 C   0  0  0  0  0  0  0  0  0  0  0  0
   89.9330   99.3920  -42.4840 O   0  0  0  0  0  0  0  0  0  0  0  0
   91.6210   99.2050  -44.1030 C   0  0  0  0  0  0  0  0  0  0  0  0
   92.6950   99.9380  -44.3530 C   0  0  0  0  0  0  0  0  0  0  0  0
   93.3020   99.3540  -45.4080 N   0  0  0  0  0  0  0  0  0  0  0  0
   92.5890   98.2810  -45.7770 N   0  0  0  0  0  0  0  0  0  0  0  0
   91.5430   98.1810  -44.9730 N   0  0  0  0  0  0  0  0  0  0  0  0
   92.7320  100.9710  -43.4400 C   0  0  0  0  0  0  0  0  0  0  0  0
   93.6310  101.8410  -43.4150 O   0  0  0  0  0  0  0  0  0  0  0  0
   94.1770   99.6870  -45.8520 H   0  0  0  0  0  0  0  0  0  0  0  0
   92.7840   97.6140  -46.5540 H   0  0  0  0  0  0  0  0  0  0  0  0
   90.5090   97.1690  -45.0140 C   0  0  0  0  0  2  0  0  0  0  0  0
   91.0210   95.8040  -44.7380 C   0  0  0  0  0  0  0  0  0  0  0  0
   91.4560   95.3770  -43.5030 C   0  0  0  0  0  3  0  0  0  0  0  0
   91.9300   94.1050  -43.2510 C   0  0  0  0  0  0  0  0  0  0  0  0
   91.9780   93.2000  -44.2830 C   0  0  0  0  0  3  0  0  0  0  0  0
   91.5530   93.5840  -45.5330 C   0  0  0  0  0  3  0  0  0  0  0  0
   91.0820   94.8660  -45.7590 C   0  0  0  0  0  3  0  0  0  0  0  0
   92.3500   93.7740  -41.9560 O   0  0  0  0  0  0  0  0  0  0  0  0
   93.5680   93.0950  -41.7250 C   0  0  0  0  0  1  0  0  0  0  0  0
   91.3440  101.7490  -41.5370 C   0  0  0  0  0  0  0  0  0  0  0  0
   90.4850  102.8160  -41.7030 C   0  0  0  0  0  3  0  0  0  0  0  0
   90.1410  103.6680  -40.6700 C   0  0  0  0  0  3  0  0  0  0  0  0
   90.6840  103.4360  -39.4230 C   0  0  0  0  0  0  0  0  0  0  0  0
   90.2920  104.4820  -38.0530 Cl  0  0  0  0  0  0  0  0  0  0  0  0
   91.5490  102.3830  -39.2060 C   0  0  0  0  0  3  0  0  0  0  0  0
   91.8670  101.5500  -40.2750 C   0  0  0  0  0  3  0  0  0  0  0  0
  1 22  1  0  0  0  0
  2  1  1  0  0  0  0
  2  3  2  0  0  0  0
  4  2  1  0  0  0  0
  5  4  2  0  0  0  0
  5  9  1  0  0  0  0
  6  5  1  0  0  0  0
  7  6  1  0  0  0  0
  7  8  1  0  0  0  0
  8  4  1  0  0  0  0
  9 10  2  0  0  0  0
  9  1  1  0  0  0  0
 11  6  1  0  0  0  0
 12  7  1  0  0  0  0
 13  8  1  0  0  0  0
 13 14  1  0  0  0  0
 14 15  1  0  0  0  0
 15 16  2  0  0  0  0
 16 20  1  0  0  0  0
 17 16  1  0  0  0  0
 18 17  2  0  0  0  0
 19 18  1  0  0  0  0
 19 14  2  0  0  0  0
 20 21  1  0  0  0  0
 22 28  1  0  0  0  0
 23 22  2  0  0  0  0
 23 24  1  0  0  0  0
 24 25  2  0  0  0  0
 25 27  1  0  0  0  0
 25 26  1  0  0  0  0
 28 27  2  0  0  0  0
M  END
>  <Pose>
1

>  <Score>
-6.781

$$$$
