/Users/jonathanwahrer/Desktop/Msc/3_Semester/Drug_Design_Praktikum/waehrer_HTS_screening/HTS_experiment/out/docking_results/vina_output/4agl/1894_docked.pdbqt
 OpenBabel03212200423D

 26 29  0  0  0  0  0  0  0  0999 V2000
   91.4580   96.2170  -43.9750 N   0  0  0  0  0  0  0  0  0  0  0  0
   91.2430   95.5970  -45.1570 C   0  0  0  0  0  0  0  0  0  0  0  0
   90.9620   96.1920  -46.2190 O   0  0  0  0  0  0  0  0  0  0  0  0
   91.3780   94.2250  -45.0300 C   0  0  0  0  0  0  0  0  0  0  0  0
   91.6810   94.0060  -43.7420 C   0  0  0  0  0  0  0  0  0  0  0  0
   91.8110   92.6720  -43.6290 N   0  0  0  0  0  0  0  0  0  0  0  0
   91.5960   92.1050  -44.8020 N   0  0  0  0  0  0  0  0  0  0  0  0
   91.3270   93.0500  -45.6780 N   0  0  0  0  0  0  0  0  0  0  0  0
   91.7260   95.2310  -43.1100 C   0  0  0  0  0  0  0  0  0  0  0  0
   91.9850   95.3970  -41.8870 O   0  0  0  0  0  0  0  0  0  0  0  0
   92.0450   92.1360  -42.7680 H   0  0  0  0  0  0  0  0  0  0  0  0
   91.6310   91.0640  -45.0130 H   0  0  0  0  0  0  0  0  0  0  0  0
   91.4080   97.6170  -43.7070 C   0  0  0  0  0  0  0  0  0  0  0  0
   92.4340   98.4570  -44.0840 C   0  0  0  0  0  3  0  0  0  0  0  0
   92.3940   99.8150  -43.8290 C   0  0  0  0  0  3  0  0  0  0  0  0
   91.3200  100.3890  -43.1820 C   0  0  0  0  0  0  0  0  0  0  0  0
   91.2720  102.1200  -42.8570 Cl  0  0  0  0  0  0  0  0  0  0  0  0
   90.2880   99.5580  -42.7980 C   0  0  0  0  0  3  0  0  0  0  0  0
   90.3360   98.2020  -43.0580 C   0  0  0  0  0  3  0  0  0  0  0  0
   91.0240   92.8770  -47.0790 C   0  0  0  0  0  2  0  0  0  0  0  0
   91.4850   91.5870  -47.6340 C   0  0  0  0  0  0  0  0  0  0  0  0
   90.6590   90.8690  -48.4640 C   0  0  0  0  0  3  0  0  0  0  0  0
   91.1070   89.6690  -48.9670 C   0  0  0  0  0  3  0  0  0  0  0  0
   92.3620   89.1780  -48.6540 C   0  0  0  0  0  3  0  0  0  0  0  0
   93.1910   89.8960  -47.8220 C   0  0  0  0  0  3  0  0  0  0  0  0
   92.7310   91.0870  -47.3310 C   0  0  0  0  0  3  0  0  0  0  0  0
  1 13  1  0  0  0  0
  1  9  1  0  0  0  0
  2  4  1  0  0  0  0
  2  1  1  0  0  0  0
  3  2  2  0  0  0  0
  4  5  2  0  0  0  0
  5  6  1  0  0  0  0
  5  9  1  0  0  0  0
  6 11  1  0  0  0  0
  7  6  1  0  0  0  0
  8  4  1  0  0  0  0
  8  7  1  0  0  0  0
  9 10  2  0  0  0  0
 12  7  1  0  0  0  0
 13 19  1  0  0  0  0
 14 15  1  0  0  0  0
 14 13  2  0  0  0  0
 15 16  2  0  0  0  0
 16 17  1  0  0  0  0
 16 18  1  0  0  0  0
 19 18  2  0  0  0  0
 20  8  1  0  0  0  0
 21 26  1  0  0  0  0
 21 20  1  0  0  0  0
 22 21  2  0  0  0  0
 23 24  2  0  0  0  0
 23 22  1  0  0  0  0
 24 25  1  0  0  0  0
 25 26  2  0  0  0  0
M  END
>  <Pose>
1

>  <Score>
-7.360

$$$$
