/Users/jonathanwahrer/Desktop/Msc/3_Semester/Drug_Design_Praktikum/waehrer_HTS_screening/HTS_experiment/out/docking_results/vina_output/4agl/1913_docked.pdbqt
 OpenBabel03212200433D

 29 32  0  0  1  0  0  0  0  0999 V2000
   91.3910   97.3000  -44.8650 N   0  0  0  0  0  0  0  0  0  0  0  0
   90.0890   97.9200  -44.7790 C   0  0  0  0  0  2  0  0  0  0  0  0
   90.0480   99.3060  -45.3630 C   0  0  0  0  0  2  0  0  0  0  0  0
   91.2340  100.0770  -44.8980 C   0  0  2  0  0  3  0  0  0  0  0  0
   92.4810   99.4520  -45.4230 C   0  0  0  0  0  3  0  0  0  0  0  0
   92.5590   97.9710  -45.3460 C   0  0  0  0  0  3  0  0  0  0  0  0
   91.2240  100.3180  -43.4540 C   0  0  0  0  0  0  0  0  0  0  0  0
   92.0430   99.6920  -42.7380 O   0  0  0  0  0  0  0  0  0  0  0  0
   90.3380  101.2180  -42.8280 N   0  0  0  0  0  0  0  0  0  0  0  0
   89.6460  101.7480  -43.4330 H   0  0  0  0  0  0  0  0  0  0  0  0
   90.3170  101.4650  -41.4040 C   0  0  0  0  0  2  0  0  0  0  0  0
   90.6810  102.8740  -41.0320 C   0  0  0  0  0  2  0  0  0  0  0  0
   92.0350  102.9430  -40.5130 N   0  0  0  0  0  0  0  0  0  0  0  0
   92.9470  103.5650  -41.4140 C   0  0  0  0  0  2  0  0  0  0  0  0
   93.9020  102.5410  -41.9930 C   0  0  0  0  0  2  0  0  0  0  0  0
   94.6510  102.0340  -40.9600 O   0  0  0  0  0  0  0  0  0  0  0  0
   93.9510  101.5210  -39.9010 C   0  0  0  0  0  2  0  0  0  0  0  0
   92.4760  101.7300  -39.9240 C   0  0  0  0  0  2  0  0  0  0  0  0
   91.5110   95.9580  -44.4490 C   0  0  0  0  0  0  0  0  0  0  0  0
   91.6820   95.6500  -43.1250 C   0  0  0  0  0  0  0  0  0  0  0  0
   91.7790   94.3140  -42.7110 C   0  0  0  0  0  0  0  0  0  0  0  0
   91.7990   96.3930  -42.0130 N   0  0  0  0  0  0  0  0  0  0  0  0
   91.6990   93.3670  -43.6510 N   0  0  0  0  0  4  0  0  0  0  0  0
   91.9480   94.2660  -41.3950 N   0  0  0  0  0  0  0  0  0  0  0  0
   91.5320   93.6550  -44.9430 C   0  0  0  0  0  0  0  0  0  0  0  0
   91.4360   92.3750  -46.1090 Cl  0  0  0  0  0  0  0  0  0  0  0  0
   91.4390   94.9270  -45.3410 N   0  0  0  0  0  2  0  0  0  0  0  0
   91.9560   95.5430  -40.9910 C   0  0  0  0  0  3  0  0  0  0  0  0
   91.7730   97.4400  -41.9980 H   0  0  0  0  0  0  0  0  0  0  0  0
  1  2  1  0  0  0  0
  1 19  1  0  0  0  0
  3  4  1  0  0  0  0
  3  2  1  0  0  0  0
  4  7  1  1  0  0  0
  5  6  2  0  0  0  0
  5  4  1  0  0  0  0
  6  1  1  0  0  0  0
  7  9  1  0  0  0  0
  7  8  2  0  0  0  0
  9 11  1  0  0  0  0
 10  9  1  0  0  0  0
 11 12  1  0  0  0  0
 12 13  1  0  0  0  0
 13 18  1  0  0  0  0
 14 13  1  0  0  0  0
 15 14  1  0  0  0  0
 15 16  1  0  0  0  0
 16 17  1  0  0  0  0
 18 17  1  0  0  0  0
 19 20  2  0  0  0  0
 20 21  1  0  0  0  0
 20 22  1  0  0  0  0
 21 24  1  0  0  0  0
 22 29  1  0  0  0  0
 22 28  1  0  0  0  0
 23 21  2  0  0  0  0
 24 28  2  0  0  0  0
 25 23  2  0  0  0  0
 26 25  1  0  0  0  0
 27 25  1  0  0  0  0
 27 19  1  0  0  0  0
M  END
>  <Pose>
1

>  <Score>
-6.319

$$$$
