/Users/jonathanwahrer/Desktop/Msc/3_Semester/Drug_Design_Praktikum/waehrer_HTS_screening/HTS_experiment/out/docking_results/vina_output/4agl/1928_docked.pdbqt
 OpenBabel03212200443D

 28 31  0  0  0  0  0  0  0  0999 V2000
   91.1740   96.3950  -44.8920 N   0  0  0  0  0  0  0  0  0  0  0  0
   91.0920   95.4050  -45.8050 C   0  0  0  0  0  2  0  0  0  0  0  0
   91.3290   94.1010  -45.4530 C   0  0  0  0  0  0  0  0  0  0  0  0
   91.6740   93.7870  -44.0620 C   0  0  0  0  0  0  0  0  0  0  0  0
   91.8490   92.4490  -44.0040 N   0  0  0  0  0  2  0  0  0  0  0  0
   91.6490   91.9300  -45.1980 N   0  0  0  0  0  0  0  0  0  0  0  0
   91.3350   92.8690  -46.1030 C   0  0  0  0  0  0  0  0  0  0  0  0
   91.0860   92.7090  -47.3220 O   0  0  0  0  0  0  0  0  0  0  0  0
   91.7450   94.8310  -43.1640 C   0  0  0  0  0  0  0  0  0  0  0  0
   91.4890   96.0880  -43.6350 C   0  0  0  0  0  3  0  0  0  0  0  0
   91.7250   90.9180  -45.4100 H   0  0  0  0  0  0  0  0  0  0  0  0
   90.9120   97.7690  -45.3250 C   0  0  0  0  0  2  0  0  0  0  0  0
   90.6520   98.6240  -44.1510 C   0  0  0  0  0  0  0  0  0  0  0  0
   89.4700   98.8130  -43.6180 O   0  0  0  0  0  0  0  0  0  0  0  0
   89.5890   99.6160  -42.6030 N   0  0  0  0  0  0  0  0  0  0  0  0
   90.8710   99.9780  -42.4460 C   0  0  0  0  0  0  0  0  0  0  0  0
   91.5410   99.3510  -43.4230 N   0  0  0  0  0  0  0  0  0  0  0  0
   91.3790  100.8690  -41.4120 C   0  0  0  0  0  0  0  0  0  0  0  0
   90.6200  101.9000  -40.9090 C   0  0  0  0  0  3  0  0  0  0  0  0
   91.0930  102.7520  -39.9280 C   0  0  0  0  0  3  0  0  0  0  0  0
   92.3670  102.5880  -39.4150 C   0  0  0  0  0  0  0  0  0  0  0  0
   92.9900  103.6560  -38.1680 Cl  0  0  0  0  0  0  0  0  0  0  0  0
   93.1350  101.5490  -39.9200 C   0  0  0  0  0  3  0  0  0  0  0  0
   92.6500  100.7010  -40.9030 C   0  0  0  0  0  3  0  0  0  0  0  0
   92.0870   94.5560  -41.7690 C   0  0  0  0  0  0  0  0  0  0  0  0
   91.2010   94.4410  -40.9100 O   0  0  0  0  0  0  0  0  0  0  0  0
   93.4060   94.4180  -41.3700 O   0  0  0  0  0  0  0  0  0  0  0  0
   94.0880   93.1870  -41.3400 C   0  0  0  0  0  1  0  0  0  0  0  0
  1 10  1  0  0  0  0
  2  3  1  0  0  0  0
  2  1  1  0  0  0  0
  3  4  2  0  0  0  0
  4  5  1  0  0  0  0
  4  9  1  0  0  0  0
  6  5  1  0  0  0  0
  7  3  1  0  0  0  0
  7  6  1  0  0  0  0
  8  7  2  0  0  0  0
  9 25  1  0  0  0  0
 10  9  2  0  0  0  0
 11  6  1  0  0  0  0
 12  1  1  0  0  0  0
 12 13  1  0  0  0  0
 13 14  1  0  0  0  0
 13 17  2  0  0  0  0
 14 15  1  0  0  0  0
 15 16  2  0  0  0  0
 16 18  1  0  0  0  0
 17 16  1  0  0  0  0
 18 19  2  0  0  0  0
 18 24  1  0  0  0  0
 19 20  1  0  0  0  0
 20 21  2  0  0  0  0
 21 22  1  0  0  0  0
 23 21  1  0  0  0  0
 24 23  2  0  0  0  0
 25 27  1  0  0  0  0
 25 26  2  0  0  0  0
 27 28  1  0  0  0  0
M  END
>  <Pose>
1

>  <Score>
-6.998

$$$$
