/Users/jonathanwahrer/Desktop/Msc/3_Semester/Drug_Design_Praktikum/waehrer_HTS_screening/HTS_experiment/out/docking_results/vina_output/4agl/1930_docked.pdbqt
 OpenBabel03212200453D

 34 37  0  0  1  0  0  0  0  0999 V2000
   91.9430   99.2750  -43.6840 C   0  0  0  0  0  0  0  0  0  0  0  0
   93.0240   99.0780  -44.2950 O   0  0  0  0  0  0  0  0  0  0  0  0
   91.7090  100.5180  -43.0680 N   0  0  0  0  0  0  0  0  0  0  0  0
   92.6820  101.6100  -43.1070 C   0  0  0  0  0  2  0  0  0  0  0  0
   93.1140  101.8150  -41.6690 C   0  0  2  0  0  3  0  0  0  0  0  0
   91.9200  102.0710  -40.7790 C   0  0  2  0  0  0  0  0  0  0  0  0
   90.6370  102.1400  -41.6140 C   0  0  0  0  0  2  0  0  0  0  0  0
   90.4850  100.8170  -42.3460 C   0  0  0  0  0  2  0  0  0  0  0  0
   92.0470  103.3030  -39.9350 C   0  0  0  0  0  1  0  0  0  0  0  0
   90.9410   98.1830  -43.6300 C   0  0  0  0  0  2  0  0  0  0  0  0
   91.4600   96.9250  -43.0120 C   0  0  0  0  0  2  0  0  0  0  0  0
   91.4150   95.7490  -43.9160 C   0  0  0  0  0  0  0  0  0  0  0  0
   91.0040   95.6740  -45.1930 N   0  0  0  0  0  0  0  0  0  0  0  0
   91.1200   94.4220  -45.6650 C   0  0  0  0  0  0  0  0  0  0  0  0
   90.8560   93.7870  -46.8690 C   0  0  0  0  0  3  0  0  0  0  0  0
   91.6330   93.6590  -44.6370 C   0  0  0  0  0  0  0  0  0  0  0  0
   91.0850   92.4490  -47.0650 C   0  0  0  0  0  0  0  0  0  0  0  0
   90.7540   91.6350  -48.5860 Cl  0  0  0  0  0  0  0  0  0  0  0  0
   91.5980   91.7150  -46.0160 C   0  0  0  0  0  3  0  0  0  0  0  0
   91.8780   92.3100  -44.7910 C   0  0  0  0  0  3  0  0  0  0  0  0
   91.8020   94.4810  -43.5950 N   0  0  0  0  0  0  0  0  0  0  0  0
   92.3200   94.1430  -42.2700 C   0  0  0  0  0  1  0  0  0  0  0  0
   94.1880  102.7290  -41.4990 N   0  0  0  0  0  0  0  0  0  0  0  0
   94.2720  103.8780  -42.2330 C   0  0  0  0  0  3  0  0  0  0  0  0
   95.3140  104.7660  -42.0700 C   0  0  0  0  0  0  0  0  0  0  0  0
   96.2980  104.4950  -41.1460 C   0  0  0  0  0  0  0  0  0  0  0  0
   95.4360  106.0220  -42.8510 C   0  0  0  0  0  1  0  0  0  0  0  0
   97.2800  105.2920  -40.9650 O   0  0  0  0  0  0  0  0  0  0  0  0
   96.2080  103.3620  -40.4280 N   0  0  0  0  0  0  0  0  0  0  0  0
   95.1580  102.5140  -40.6240 C   0  0  0  0  0  0  0  0  0  0  0  0
   96.9470  103.1540  -39.7300 H   0  0  0  0  0  0  0  0  0  0  0  0
   95.1270  101.4750  -39.9260 O   0  0  0  0  0  0  0  0  0  0  0  0
   91.6900  101.0020  -39.8780 O   0  0  0  0  0  0  0  0  0  0  0  0
   92.5720  100.5780  -39.7350 H   0  0  0  0  0  0  0  0  0  0  0  0
  1 10  1  0  0  0  0
  1  3  1  0  0  0  0
  2  1  2  0  0  0  0
  3  8  1  0  0  0  0
  4  3  1  0  0  0  0
  5  4  1  6  0  0  0
  5 23  1  0  0  0  0
  5  6  1  0  0  0  0
  6  9  1  1  0  0  0
  6 33  1  0  0  0  0
  7  6  1  0  0  0  0
  8  7  1  0  0  0  0
 10 11  1  0  0  0  0
 12 21  1  0  0  0  0
 12 11  1  0  0  0  0
 13 12  2  0  0  0  0
 14 13  1  0  0  0  0
 14 16  1  0  0  0  0
 15 14  2  0  0  0  0
 16 21  1  0  0  0  0
 17 15  1  0  0  0  0
 17 19  2  0  0  0  0
 18 17  1  0  0  0  0
 19 20  1  0  0  0  0
 20 16  2  0  0  0  0
 21 22  1  0  0  0  0
 23 30  1  0  0  0  0
 24 25  2  0  0  0  0
 24 23  1  0  0  0  0
 25 26  1  0  0  0  0
 26 28  2  0  0  0  0
 26 29  1  0  0  0  0
 27 25  1  0  0  0  0
 29 31  1  0  0  0  0
 30 29  1  0  0  0  0
 30 32  2  0  0  0  0
 33 34  1  0  0  0  0
M  END
>  <Pose>
1

>  <Score>
-7.108

$$$$
