/Users/jonathanwahrer/Desktop/Msc/3_Semester/Drug_Design_Praktikum/waehrer_HTS_screening/HTS_experiment/out/docking_results/vina_output/4agl/1936_docked.pdbqt
 OpenBabel03212200453D

 25 28  0  0  0  0  0  0  0  0999 V2000
   90.7410   90.4860  -47.5590 N   0  0  0  0  0  0  0  0  0  0  0  0
   90.9620   89.9560  -48.8450 C   0  0  0  0  0  0  0  0  0  0  0  0
   92.1370   89.8710  -49.2390 O   0  0  0  0  0  0  0  0  0  0  0  0
   89.7580   90.5680  -47.2070 H   0  0  0  0  0  0  0  0  0  0  0  0
   91.8200   90.9290  -46.6960 C   0  0  0  0  0  2  0  0  0  0  0  0
   91.5520   92.3300  -46.2200 C   0  0  0  0  0  0  0  0  0  0  0  0
   92.0280   92.9110  -45.1020 N   0  0  0  0  0  0  0  0  0  0  0  0
   91.5790   94.1740  -44.9960 C   0  0  0  0  0  0  0  0  0  0  0  0
   91.7340   95.2060  -44.0960 C   0  0  0  0  0  3  0  0  0  0  0  0
   90.7700   94.4100  -46.1110 C   0  0  0  0  0  0  0  0  0  0  0  0
   91.1390   96.4480  -44.2340 C   0  0  0  0  0  0  0  0  0  0  0  0
   91.3710   97.7350  -43.0520 Cl  0  0  0  0  0  0  0  0  0  0  0  0
   90.3390   96.6550  -45.3540 C   0  0  0  0  0  3  0  0  0  0  0  0
   90.1730   95.6400  -46.2610 C   0  0  0  0  0  3  0  0  0  0  0  0
   90.7910   93.2620  -46.8160 N   0  0  0  0  0  0  0  0  0  0  0  0
   90.2790   93.1110  -47.7140 H   0  0  0  0  0  0  0  0  0  0  0  0
   89.8690   89.5080  -49.7250 C   0  0  0  0  0  0  0  0  0  0  0  0
   88.9050   90.5450  -50.1520 C   0  0  0  0  0  2  0  0  0  0  0  0
   89.8990   90.1280  -51.1620 C   0  0  0  0  0  2  0  0  0  0  0  0
   89.5170   88.1200  -49.7690 N   0  0  0  0  0  0  0  0  0  0  0  0
   88.2010   87.7940  -49.3830 C   0  0  0  0  0  2  0  0  0  0  0  0
   88.2420   87.3490  -47.9260 C   0  0  0  0  0  2  0  0  0  0  0  0
   88.8920   86.1430  -47.8190 O   0  0  0  0  0  0  0  0  0  0  0  0
   89.8700   85.9250  -48.7570 C   0  0  0  0  0  2  0  0  0  0  0  0
   90.4730   87.2120  -49.2840 C   0  0  0  0  0  2  0  0  0  0  0  0
  1  4  1  0  0  0  0
  1  5  1  0  0  0  0
  2  1  1  0  0  0  0
  3  2  2  0  0  0  0
  5  6  1  0  0  0  0
  6  7  2  0  0  0  0
  7  8  1  0  0  0  0
  8  9  1  0  0  0  0
 10  8  2  0  0  0  0
 11  9  2  0  0  0  0
 11 12  1  0  0  0  0
 13 11  1  0  0  0  0
 14 10  1  0  0  0  0
 14 13  2  0  0  0  0
 15  6  1  0  0  0  0
 15 10  1  0  0  0  0
 16 15  1  0  0  0  0
 17  2  1  0  0  0  0
 18 17  1  0  0  0  0
 19 18  1  0  0  0  0
 19 17  1  0  0  0  0
 20 17  1  0  0  0  0
 20 21  1  0  0  0  0
 20 25  1  0  0  0  0
 21 22  1  0  0  0  0
 22 23  1  0  0  0  0
 24 23  1  0  0  0  0
 25 24  1  0  0  0  0
M  END
>  <Pose>
1

>  <Score>
-6.465

$$$$
