/Users/jonathanwahrer/Desktop/Msc/3_Semester/Drug_Design_Praktikum/waehrer_HTS_screening/HTS_experiment/out/docking_results/vina_output/4agl/1937_docked.pdbqt
 OpenBabel03212200453D

 31 34  0  0  1  0  0  0  0  0999 V2000
   88.6120  100.0970  -44.1710 N   0  0  0  0  0  0  0  0  0  0  0  0
   88.5090  101.3390  -44.7840 C   0  0  0  0  0  2  0  0  0  0  0  0
   89.1050  102.4090  -43.7740 C   0  0  0  0  0  2  0  0  0  0  0  0
   90.0740  101.6060  -43.0780 N   0  0  0  0  0  0  0  0  0  0  0  0
   89.4210  100.8100  -41.9970 C   0  0  0  0  0  2  0  0  0  0  0  0
   88.2470  100.2040  -42.7140 C   0  0  0  0  0  2  0  0  0  0  0  0
   91.4190  101.6220  -43.2960 C   0  0  0  0  0  0  0  0  0  0  0  0
   92.0840  100.5780  -42.9750 O   0  0  0  0  0  0  0  0  0  0  0  0
   87.9480   98.9150  -44.6660 C   0  0  0  0  0  2  0  0  0  0  0  0
   89.0490   97.9330  -45.0790 C   0  0  0  0  0  0  0  0  0  0  0  0
   90.3270   98.1410  -44.5570 N   0  0  0  0  0  0  0  0  0  0  0  0
   90.4760   99.1160  -44.1130 H   0  0  0  0  0  0  0  0  0  0  0  0
   88.7860   97.0190  -45.8170 O   0  0  0  0  0  0  0  0  0  0  0  0
   91.4450   97.2720  -44.6390 C   0  0  0  0  0  2  0  0  0  0  0  0
   91.5060   96.2950  -43.5200 C   0  0  0  0  0  0  0  0  0  0  0  0
   91.5970   94.9440  -43.8360 C   0  0  0  0  0  0  0  0  0  0  0  0
   91.3560   94.4640  -45.4980 Cl  0  0  0  0  0  0  0  0  0  0  0  0
   91.8110   93.9950  -42.8910 C   0  0  0  0  0  3  0  0  0  0  0  0
   91.9740   94.2800  -41.5500 C   0  0  0  0  0  3  0  0  0  0  0  0
   91.8820   95.6520  -41.2340 C   0  0  0  0  0  3  0  0  0  0  0  0
   91.6480   96.6250  -42.1980 C   0  0  0  0  0  3  0  0  0  0  0  0
   92.2480  102.7360  -43.8540 C   0  0  1  0  0  3  0  0  0  0  0  0
   91.9070  103.8870  -43.0140 O   0  0  0  0  0  0  0  0  0  0  0  0
   91.7000  103.4690  -41.6670 C   0  0  0  0  0  0  0  0  0  0  0  0
   92.4750  102.4400  -41.2020 C   0  0  0  0  0  0  0  0  0  0  0  0
   90.7600  104.0730  -40.8390 C   0  0  0  0  0  3  0  0  0  0  0  0
   92.3410  101.9580  -39.9040 C   0  0  0  0  0  3  0  0  0  0  0  0
   93.4220  101.8600  -42.0530 O   0  0  0  0  0  0  0  0  0  0  0  0
   91.3830  102.5800  -39.1110 C   0  0  0  0  0  3  0  0  0  0  0  0
   90.5950  103.6230  -39.5450 C   0  0  0  0  0  3  0  0  0  0  0  0
   93.6860  102.4140  -43.3660 C   0  0  0  0  0  2  0  0  0  0  0  0
  1  6  1  0  0  0  0
  2  1  1  0  0  0  0
  2  3  1  0  0  0  0
  3  4  1  0  0  0  0
  4  5  1  0  0  0  0
  6  5  1  0  0  0  0
  7  4  1  0  0  0  0
  7  8  2  0  0  0  0
  9  1  1  0  0  0  0
 10  9  1  0  0  0  0
 10 11  1  0  0  0  0
 11 12  1  0  0  0  0
 13 10  2  0  0  0  0
 14 11  1  0  0  0  0
 14 15  1  0  0  0  0
 15 21  1  0  0  0  0
 16 15  2  0  0  0  0
 16 18  1  0  0  0  0
 17 16  1  0  0  0  0
 18 19  2  0  0  0  0
 19 20  1  0  0  0  0
 21 20  2  0  0  0  0
 22 31  1  0  0  0  0
 22  7  1  1  0  0  0
 22 23  1  0  0  0  0
 23 24  1  0  0  0  0
 24 25  2  0  0  0  0
 24 26  1  0  0  0  0
 25 27  1  0  0  0  0
 26 30  2  0  0  0  0
 27 29  2  0  0  0  0
 28 25  1  0  0  0  0
 30 29  1  0  0  0  0
 31 28  1  0  0  0  0
M  END
>  <Pose>
1

>  <Score>
-6.216

$$$$
