/Users/jonathanwahrer/Desktop/Msc/3_Semester/Drug_Design_Praktikum/waehrer_HTS_screening/HTS_experiment/out/docking_results/vina_output/4agl/1939_docked.pdbqt
 OpenBabel03212200453D

 28 31  0  0  0  0  0  0  0  0999 V2000
   90.8170   97.6680  -44.6150 N   0  0  0  0  0  0  0  0  0  0  0  0
   91.1140   96.3500  -44.4010 C   0  0  0  0  0  0  0  0  0  0  0  0
   91.5150   96.1680  -43.1060 C   0  0  0  0  0  0  0  0  0  0  0  0
   91.4530   97.3780  -42.5660 N   0  0  0  0  0  0  0  0  0  0  0  0
   91.0280   98.3190  -43.4700 C   0  0  0  0  0  0  0  0  0  0  0  0
   91.8720   94.9570  -42.6400 N   0  0  0  0  0  0  0  0  0  0  0  0
   91.8380   93.8800  -43.4680 C   0  0  0  0  0  0  0  0  0  0  0  0
   92.1770   92.7730  -42.9910 O   0  0  0  0  0  0  0  0  0  0  0  0
   91.4510   94.0090  -44.7490 N   0  0  0  0  0  0  0  0  0  0  0  0
   91.0980   95.2210  -45.2020 C   0  0  0  0  0  0  0  0  0  0  0  0
   90.7470   95.2890  -46.4010 O   0  0  0  0  0  0  0  0  0  0  0  0
   92.2840   94.8530  -41.2510 C   0  0  0  0  0  1  0  0  0  0  0  0
   91.4420   93.1520  -45.3410 H   0  0  0  0  0  0  0  0  0  0  0  0
   90.3680   98.1650  -45.8890 C   0  0  0  0  0  2  0  0  0  0  0  0
   88.9460   98.4740  -46.0150 C   0  0  0  0  0  0  0  0  0  0  0  0
   88.4460   99.7090  -46.2640 C   0  0  0  0  0  3  0  0  0  0  0  0
   87.0720   99.9660  -46.3260 C   0  0  0  0  0  3  0  0  0  0  0  0
   86.1730   98.9610  -46.1320 C   0  0  0  0  0  0  0  0  0  0  0  0
   84.4660   99.3330  -46.2180 Cl  0  0  0  0  0  0  0  0  0  0  0  0
   86.6390   97.6910  -45.8760 C   0  0  0  0  0  3  0  0  0  0  0  0
   87.9940   97.4620  -45.8200 C   0  0  0  0  0  3  0  0  0  0  0  0
   90.8920   99.6840  -43.1360 N   0  0  0  0  0  0  0  0  0  0  0  0
   89.5850  100.1460  -42.6890 C   0  0  0  0  0  2  0  0  0  0  0  0
   89.9250  101.2030  -41.6230 C   0  0  0  0  0  2  0  0  0  0  0  0
   91.1350  100.8670  -40.9080 N   0  0  0  0  0  0  0  0  0  0  0  0
   92.3310  100.9090  -41.7230 C   0  0  0  0  0  2  0  0  0  0  0  0
   91.2430  101.5710  -40.1590 H   0  0  0  0  0  0  0  0  0  0  0  0
   91.8710  100.7080  -43.1590 C   0  0  0  0  0  2  0  0  0  0  0  0
  1  2  1  0  0  0  0
  1  5  1  0  0  0  0
  2  3  2  0  0  0  0
  3  6  1  0  0  0  0
  3  4  1  0  0  0  0
  5 22  1  0  0  0  0
  5  4  2  0  0  0  0
  6 12  1  0  0  0  0
  7  8  2  0  0  0  0
  7  6  1  0  0  0  0
  9  7  1  0  0  0  0
 10  9  1  0  0  0  0
 10  2  1  0  0  0  0
 11 10  2  0  0  0  0
 13  9  1  0  0  0  0
 14  1  1  0  0  0  0
 15 14  1  0  0  0  0
 15 21  1  0  0  0  0
 16 15  2  0  0  0  0
 17 16  1  0  0  0  0
 17 18  2  0  0  0  0
 18 20  1  0  0  0  0
 19 18  1  0  0  0  0
 20 21  2  0  0  0  0
 22 23  1  0  0  0  0
 23 24  1  0  0  0  0
 24 25  1  0  0  0  0
 25 27  1  0  0  0  0
 26 25  1  0  0  0  0
 28 22  1  0  0  0  0
 28 26  1  0  0  0  0
M  END
>  <Pose>
1

>  <Score>
-6.445

$$$$
