/Users/jonathanwahrer/Desktop/Msc/3_Semester/Drug_Design_Praktikum/waehrer_HTS_screening/HTS_experiment/out/docking_results/vina_output/4agl/1941_docked.pdbqt
 OpenBabel03212200463D

 22 25  0  0  1  0  0  0  0  0999 V2000
   91.1270   97.8810  -44.1250 N   0  0  0  0  0  0  0  0  0  0  0  0
   90.0690   98.5690  -43.4430 C   0  0  0  0  0  0  0  0  0  0  0  0
   88.8370   98.3270  -43.6920 O   0  0  0  0  0  0  0  0  0  0  0  0
   90.6430   99.5260  -42.4840 C   0  0  1  0  0  3  0  0  0  0  0  0
   92.0500   99.7170  -42.9980 C   0  0  2  0  0  3  0  0  0  0  0  0
   92.2260  101.1590  -43.4240 C   0  0  2  0  0  3  0  0  0  0  0  0
   92.1540  101.9780  -42.1260 C   0  0  0  0  0  2  0  0  0  0  0  0
   90.7580  101.7800  -41.6110 C   0  0  0  0  0  0  0  0  0  0  0  0
   90.3770  102.3730  -40.6380 O   0  0  0  0  0  0  0  0  0  0  0  0
   89.8970  100.8110  -42.3750 C   0  0  1  0  0  3  0  0  0  0  0  0
   89.7090  101.4390  -43.7610 C   0  0  0  0  0  2  0  0  0  0  0  0
   91.1000  101.6270  -44.3040 C   0  0  0  0  0  0  0  0  0  0  0  0
   91.2610  102.1270  -45.3830 O   0  0  0  0  0  0  0  0  0  0  0  0
   92.2550   98.7440  -44.0690 C   0  0  0  0  0  0  0  0  0  0  0  0
   93.2590   98.6800  -44.8140 O   0  0  0  0  0  0  0  0  0  0  0  0
   91.0830   96.5970  -44.7360 C   0  0  0  0  0  0  0  0  0  0  0  0
   91.7930   95.5440  -44.1890 C   0  0  0  0  0  3  0  0  0  0  0  0
   91.7790   94.2840  -44.7430 C   0  0  0  0  0  3  0  0  0  0  0  0
   91.0510   94.0160  -45.8760 C   0  0  0  0  0  0  0  0  0  0  0  0
   91.0280   92.4090  -46.5910 Cl  0  0  0  0  0  0  0  0  0  0  0  0
   90.3320   95.0570  -46.4410 C   0  0  0  0  0  3  0  0  0  0  0  0
   90.3590   96.3090  -45.8720 C   0  0  0  0  0  3  0  0  0  0  0  0
  1 14  1  0  0  0  0
  1  2  1  0  0  0  0
  3  2  2  0  0  0  0
  4  2  1  6  0  0  0
  4 10  1  0  0  0  0
  5 14  1  6  0  0  0
  5  4  1  0  0  0  0
  6  5  1  0  0  0  0
  6  7  1  1  0  0  0
  7  8  1  0  0  0  0
  8  9  2  0  0  0  0
 10 11  1  6  0  0  0
 10  8  1  0  0  0  0
 12 11  1  0  0  0  0
 12  6  1  0  0  0  0
 13 12  2  0  0  0  0
 15 14  2  0  0  0  0
 16 17  1  0  0  0  0
 16  1  1  0  0  0  0
 18 17  2  0  0  0  0
 19 18  1  0  0  0  0
 20 19  1  0  0  0  0
 21 19  2  0  0  0  0
 21 22  1  0  0  0  0
 22 16  2  0  0  0  0
M  END
>  <Pose>
1

>  <Score>
-5.846

$$$$
