/Users/jonathanwahrer/Desktop/Msc/3_Semester/Drug_Design_Praktikum/waehrer_HTS_screening/HTS_experiment/out/docking_results/vina_output/4agl/1945_docked.pdbqt
 OpenBabel03212200463D

 24 27  0  0  0  0  0  0  0  0999 V2000
   92.4710   96.4560  -40.2310 Cl  0  0  0  0  0  0  0  0  0  0  0  0
   92.2060   95.4870  -41.6670 C   0  0  0  0  0  0  0  0  0  0  0  0
   91.6160   96.0080  -42.7950 C   0  0  0  0  0  3  0  0  0  0  0  0
   91.4090   95.2230  -43.9330 C   0  0  0  0  0  0  0  0  0  0  0  0
   91.8170   93.8980  -43.8990 C   0  0  0  0  0  0  0  0  0  0  0  0
   92.4070   93.3630  -42.7790 C   0  0  0  0  0  3  0  0  0  0  0  0
   92.6030   94.1430  -41.6680 C   0  0  0  0  0  3  0  0  0  0  0  0
   91.6200   93.0330  -45.0760 C   0  0  0  0  0  0  0  0  0  0  0  0
   91.8990   91.7950  -45.3070 N   0  0  0  0  0  0  0  0  0  0  0  0
   91.5140   91.3810  -46.6290 C   0  0  0  0  0  3  0  0  0  0  0  0
   90.9140   92.6100  -47.2390 C   0  0  0  0  0  3  0  0  0  0  0  0
   91.0110   93.6140  -46.2120 N   0  0  0  0  0  0  0  0  0  0  0  0
   90.6040   94.9760  -46.2160 C   0  0  0  0  0  0  0  0  0  0  0  0
   90.0600   95.5140  -47.2210 O   0  0  0  0  0  0  0  0  0  0  0  0
   90.7950   95.8230  -45.0680 N   0  0  0  0  0  0  0  0  0  0  0  0
   90.3710   97.2160  -45.0960 C   0  0  0  0  0  2  0  0  0  0  0  0
   91.4900   98.1080  -45.4770 C   0  0  0  0  0  0  0  0  0  0  0  0
   92.5530   97.5820  -45.8880 O   0  0  0  0  0  0  0  0  0  0  0  0
   91.4150   99.5190  -45.4020 N   0  0  0  0  0  0  0  0  0  0  0  0
   90.5270   99.9400  -45.0610 H   0  0  0  0  0  0  0  0  0  0  0  0
   92.5200  100.3660  -45.7810 C   0  0  0  0  0  2  0  0  0  0  0  0
   92.3090  100.8970  -47.1740 C   0  0  0  0  0  3  0  0  0  0  0  0
   93.0770  100.3110  -48.3050 C   0  0  0  0  0  2  0  0  0  0  0  0
   93.4470  101.6520  -47.7950 C   0  0  0  0  0  2  0  0  0  0  0  0
  2  1  1  0  0  0  0
  3  2  2  0  0  0  0
  4  5  2  0  0  0  0
  4  3  1  0  0  0  0
  5  6  1  0  0  0  0
  6  7  2  0  0  0  0
  7  2  1  0  0  0  0
  8  5  1  0  0  0  0
  9  8  2  0  0  0  0
 10  9  1  0  0  0  0
 11 10  2  0  0  0  0
 11 12  1  0  0  0  0
 12  8  1  0  0  0  0
 13 12  1  0  0  0  0
 13 15  1  0  0  0  0
 14 13  2  0  0  0  0
 15  4  1  0  0  0  0
 16 15  1  0  0  0  0
 17 19  1  0  0  0  0
 17 16  1  0  0  0  0
 18 17  2  0  0  0  0
 19 20  1  0  0  0  0
 21 19  1  0  0  0  0
 22 21  1  0  0  0  0
 23 24  1  0  0  0  0
 23 22  1  0  0  0  0
 24 22  1  0  0  0  0
M  END
>  <Pose>
1

>  <Score>
-6.087

$$$$
