/Users/jonathanwahrer/Desktop/Msc/3_Semester/Drug_Design_Praktikum/waehrer_HTS_screening/HTS_experiment/out/docking_results/vina_output/4agl/1956_docked.pdbqt
 OpenBabel03212200473D

 35 38  0  0  1  0  0  0  0  0999 V2000
   88.4670   98.4150  -44.5830 C   0  0  0  0  0  0  0  0  0  0  0  0
   89.7080   98.6250  -44.9890 C   0  0  0  0  0  0  0  0  0  0  0  0
   90.8910   98.8770  -44.0880 C   0  0  2  0  0  3  0  0  0  0  0  0
   91.9320   99.3600  -44.9490 N   0  0  0  0  0  0  0  0  0  0  0  0
   91.5840   99.1700  -46.3130 C   0  0  0  0  0  0  0  0  0  0  0  0
   92.3100   99.3530  -47.3010 O   0  0  0  0  0  0  0  0  0  0  0  0
   90.1770   98.7080  -46.3360 C   0  0  0  0  0  0  0  0  0  0  0  0
   89.5370   98.4450  -47.3810 O   0  0  0  0  0  0  0  0  0  0  0  0
   88.2600   98.4390  -43.1830 O   0  0  0  0  0  1  0  0  0  0  0  0
   91.2070   97.5770  -43.4360 C   0  0  0  0  0  0  0  0  0  0  0  0
   91.1940   96.4240  -44.1680 C   0  0  0  0  0  3  0  0  0  0  0  0
   91.4990   95.2380  -43.5640 C   0  0  0  0  0  3  0  0  0  0  0  0
   91.8220   95.1650  -42.2270 C   0  0  0  0  0  0  0  0  0  0  0  0
   91.8340   96.3310  -41.4840 C   0  0  0  0  0  3  0  0  0  0  0  0
   91.5250   97.5340  -42.1020 C   0  0  0  0  0  3  0  0  0  0  0  0
   92.1300   93.9530  -41.6190 O   0  0  0  0  0  0  0  0  0  0  0  0
   93.1660   93.1490  -42.2020 C   0  0  0  0  0  2  0  0  0  0  0  0
   94.3460   93.0950  -41.2340 C   0  0  0  0  0  2  0  0  0  0  0  0
   95.0900   91.7970  -41.5150 C   0  0  0  0  0  1  0  0  0  0  0  0
   93.1750   99.9770  -44.4990 C   0  0  0  0  0  2  0  0  0  0  0  0
   92.8710  101.2060  -43.7140 C   0  0  0  0  0  2  0  0  0  0  0  0
   93.3950  101.1120  -42.3410 N   0  0  0  0  0  4  0  0  0  0  0  0
   92.2840  101.1610  -41.4410 C   0  0  0  0  0  2  0  0  0  0  0  0
   92.7230  101.4670  -40.0110 C   0  0  0  0  0  2  0  0  0  0  0  0
   93.4070  102.6950  -40.0670 O   0  0  0  0  0  0  0  0  0  0  0  0
   94.6020  102.4680  -40.7170 C   0  0  0  0  0  2  0  0  0  0  0  0
   94.3240  102.2100  -42.1840 C   0  0  0  0  0  2  0  0  0  0  0  0
   93.9100  100.2030  -42.2070 H   0  0  0  0  0  0  0  0  0  0  0  0
   87.3700   98.1720  -45.4930 C   0  0  0  0  0  0  0  0  0  0  0  0
   87.0620   96.8570  -45.8700 C   0  0  0  0  0  3  0  0  0  0  0  0
   86.0570   96.5580  -46.7660 C   0  0  0  0  0  3  0  0  0  0  0  0
   85.3040   97.5570  -47.3340 C   0  0  0  0  0  0  0  0  0  0  0  0
   84.0160   97.2460  -48.4750 Cl  0  0  0  0  0  0  0  0  0  0  0  0
   85.5800   98.8490  -46.9890 C   0  0  0  0  0  3  0  0  0  0  0  0
   86.6020   99.1500  -46.0790 C   0  0  0  0  0  3  0  0  0  0  0  0
  1  9  1  0  0  0  0
  2  1  2  0  0  0  0
  2  3  1  0  0  0  0
  3 10  1  6  0  0  0
  4 20  1  0  0  0  0
  4  3  1  0  0  0  0
  5  4  1  0  0  0  0
  6  5  2  0  0  0  0
  7  5  1  0  0  0  0
  7  2  1  0  0  0  0
  8  7  2  0  0  0  0
 10 15  1  0  0  0  0
 11 12  1  0  0  0  0
 11 10  2  0  0  0  0
 12 13  2  0  0  0  0
 13 16  1  0  0  0  0
 13 14  1  0  0  0  0
 15 14  2  0  0  0  0
 17 16  1  0  0  0  0
 17 18  1  0  0  0  0
 19 18  1  0  0  0  0
 20 21  1  0  0  0  0
 21 22  1  0  0  0  0
 22 28  1  0  0  0  0
 22 27  1  0  0  0  0
 22 23  1  0  0  0  0
 23 24  1  0  0  0  0
 25 24  1  0  0  0  0
 26 25  1  0  0  0  0
 27 26  1  0  0  0  0
 29  1  1  0  0  0  0
 30 29  1  0  0  0  0
 31 30  2  0  0  0  0
 32 34  2  0  0  0  0
 32 31  1  0  0  0  0
 33 32  1  0  0  0  0
 34 35  1  0  0  0  0
 35 29  2  0  0  0  0
M  END
>  <Pose>
1

>  <Score>
-6.397

$$$$
