/Users/jonathanwahrer/Desktop/Msc/3_Semester/Drug_Design_Praktikum/waehrer_HTS_screening/HTS_experiment/out/docking_results/vina_output/4agl/1957_docked.pdbqt
 OpenBabel03212200473D

 36 40  0  0  1  0  0  0  0  0999 V2000
   91.4450   98.1780  -43.1250 C   0  0  2  0  0  3  0  0  0  0  0  0
   92.5650   98.9760  -42.6420 N   0  0  0  0  0  0  0  0  0  0  0  0
   92.1190  100.3540  -42.6250 C   0  0  1  0  0  0  0  0  0  0  0  0
   90.6620  100.2220  -42.2880 C   0  0  2  0  0  3  0  0  0  0  0  0
   90.2070   98.9810  -42.9890 C   0  0  1  0  0  3  0  0  0  0  0  0
   89.6480   99.4310  -44.2940 C   0  0  0  0  0  0  0  0  0  0  0  0
   89.3940   98.7090  -45.2870 O   0  0  0  0  0  0  0  0  0  0  0  0
   89.4590  100.8590  -44.1850 N   0  0  0  0  0  0  0  0  0  0  0  0
   89.8040  101.2650  -42.8770 C   0  0  0  0  0  0  0  0  0  0  0  0
   89.4570  102.3210  -42.2940 O   0  0  0  0  0  0  0  0  0  0  0  0
   92.8440  101.1620  -41.6140 C   0  0  0  0  0  0  0  0  0  0  0  0
   93.5110  102.1490  -42.3010 C   0  0  0  0  0  0  0  0  0  0  0  0
   94.2770  103.0610  -41.5890 C   0  0  0  0  0  3  0  0  0  0  0  0
   94.3480  102.9550  -40.2200 C   0  0  0  0  0  3  0  0  0  0  0  0
   93.6800  101.9660  -39.5190 C   0  0  0  0  0  3  0  0  0  0  0  0
   92.9230  101.0650  -40.2390 C   0  0  0  0  0  3  0  0  0  0  0  0
   93.2780  102.0390  -43.7170 N   0  0  0  0  0  0  0  0  0  0  0  0
   92.4230  100.9290  -43.9240 C   0  0  0  0  0  0  0  0  0  0  0  0
   92.0340  100.5540  -45.0420 O   0  0  0  0  0  0  0  0  0  0  0  0
   93.3880   98.8450  -43.2410 H   0  0  0  0  0  0  0  0  0  0  0  0
   93.6940  102.6950  -44.4170 H   0  0  0  0  0  0  0  0  0  0  0  0
   91.4620   96.9120  -42.3120 C   0  0  1  0  0  3  0  0  0  0  0  0
   91.5600   95.6820  -43.1480 C   0  0  0  0  0  0  0  0  0  0  0  0
   91.3880   95.7530  -44.5290 C   0  0  0  0  0  3  0  0  0  0  0  0
   91.4530   94.6330  -45.3170 C   0  0  0  0  0  3  0  0  0  0  0  0
   91.6910   93.3830  -44.7810 C   0  0  0  0  0  0  0  0  0  0  0  0
   91.7760   91.9400  -45.7780 Cl  0  0  0  0  0  0  0  0  0  0  0  0
   91.8560   93.3370  -43.4150 C   0  0  0  0  0  3  0  0  0  0  0  0
   91.7960   94.4440  -42.6020 C   0  0  0  0  0  3  0  0  0  0  0  0
   92.4400   96.8790  -41.3520 O   0  0  0  0  0  0  0  0  0  0  0  0
   93.2400   96.4420  -41.7420 H   0  0  0  0  0  0  0  0  0  0  0  0
   89.0080  101.7150  -45.2430 C   0  0  0  0  0  2  0  0  0  0  0  0
   87.5880  102.1370  -45.1770 C   0  0  0  0  0  2  0  0  0  0  0  0
   86.5640  101.0600  -45.2510 C   0  0  0  0  0  2  0  0  0  0  0  0
   86.1250  100.6300  -44.0060 O   0  0  0  0  0  0  0  0  0  0  0  0
   85.9620   99.2290  -44.0260 C   0  0  0  0  0  1  0  0  0  0  0  0
  1  5  1  0  0  0  0
  1  2  1  0  0  0  0
  1 22  1  1  0  0  0
  2  3  1  0  0  0  0
  3 18  1  6  0  0  0
  3  4  1  0  0  0  0
  3 11  1  0  0  0  0
  4  9  1  6  0  0  0
  5  6  1  6  0  0  0
  5  4  1  0  0  0  0
  6  8  1  0  0  0  0
  7  6  2  0  0  0  0
  8  9  1  0  0  0  0
  9 10  2  0  0  0  0
 11 16  1  0  0  0  0
 12 11  2  0  0  0  0
 12 13  1  0  0  0  0
 13 14  2  0  0  0  0
 14 15  1  0  0  0  0
 16 15  2  0  0  0  0
 17 12  1  0  0  0  0
 18 17  1  0  0  0  0
 19 18  2  0  0  0  0
 20  2  1  0  0  0  0
 21 17  1  0  0  0  0
 22 30  1  1  0  0  0
 23 29  1  0  0  0  0
 23 22  1  0  0  0  0
 24 23  2  0  0  0  0
 25 26  2  0  0  0  0
 25 24  1  0  0  0  0
 26 28  1  0  0  0  0
 27 26  1  0  0  0  0
 28 29  2  0  0  0  0
 31 30  1  0  0  0  0
 32 33  1  0  0  0  0
 32  8  1  0  0  0  0
 34 33  1  0  0  0  0
 34 35  1  0  0  0  0
 36 35  1  0  0  0  0
M  END
>  <Pose>
1

>  <Score>
-7.085

$$$$
