/Users/jonathanwahrer/Desktop/Msc/3_Semester/Drug_Design_Praktikum/waehrer_HTS_screening/HTS_experiment/out/docking_results/vina_output/4agl/1958_docked.pdbqt
 OpenBabel03212200473D

 28 31  0  0  1  0  0  0  0  0999 V2000
   90.5310   98.6980  -44.2530 C   0  0  0  0  0  0  0  0  0  0  0  0
   91.1470   98.4380  -45.3440 O   0  0  0  0  0  0  0  0  0  0  0  0
   89.2180   99.1910  -44.2430 N   0  0  0  0  0  0  0  0  0  0  0  0
   88.5250   99.4830  -43.0290 C   0  0  0  0  0  2  0  0  0  0  0  0
   87.0280   99.3840  -43.1300 C   0  0  0  0  0  2  0  0  0  0  0  0
   86.6500   98.4720  -44.2360 C   0  0  2  0  0  3  0  0  0  0  0  0
   87.3660   98.4610  -45.4190 C   0  0  0  0  0  0  0  0  0  0  0  0
   87.0290   97.6460  -46.4250 N   0  0  0  0  0  0  0  0  0  0  0  0
   85.9850   96.7920  -46.3550 C   0  0  2  0  0  3  0  0  0  0  0  0
   85.2810   96.8000  -45.1980 N   0  0  0  0  0  0  0  0  0  0  0  0
   85.5800   97.6000  -44.1600 C   0  0  0  0  0  0  0  0  0  0  0  0
   88.5360   99.4130  -45.4880 C   0  0  0  0  0  2  0  0  0  0  0  0
   91.2850   98.4460  -42.9830 C   0  0  0  0  0  2  0  0  0  0  0  0
   91.5580   97.0120  -42.8000 C   0  0  0  0  0  0  0  0  0  0  0  0
   91.5030   96.0890  -43.8230 C   0  0  0  0  0  3  0  0  0  0  0  0
   91.7620   94.7510  -43.6200 C   0  0  0  0  0  3  0  0  0  0  0  0
   92.0920   94.2890  -42.3500 C   0  0  0  0  0  0  0  0  0  0  0  0
   92.4250   92.5930  -42.0760 Cl  0  0  0  0  0  0  0  0  0  0  0  0
   92.1440   95.2250  -41.3350 C   0  0  0  0  0  3  0  0  0  0  0  0
   91.8840   96.5620  -41.5390 C   0  0  0  0  0  3  0  0  0  0  0  0
   84.8380   97.5820  -42.9880 O   0  0  0  0  0  0  0  0  0  0  0  0
   85.1940   97.9740  -42.1120 H   0  0  0  0  0  0  0  0  0  0  0  0
   85.6740   95.9550  -47.4400 N   0  0  0  0  0  0  0  0  0  0  0  0
   84.5000   95.1350  -47.4180 C   0  0  0  0  0  2  0  0  0  0  0  0
   84.1590   94.8340  -48.8850 C   0  0  0  0  0  2  0  0  0  0  0  0
   85.1640   94.1240  -49.4920 O   0  0  0  0  0  0  0  0  0  0  0  0
   86.4350   94.5940  -49.3020 C   0  0  0  0  0  2  0  0  0  0  0  0
   86.5350   95.9120  -48.5850 C   0  0  0  0  0  2  0  0  0  0  0  0
  1  3  1  0  0  0  0
  1 13  1  0  0  0  0
  2  1  2  0  0  0  0
  3  4  1  0  0  0  0
  5  4  1  0  0  0  0
  6 11  1  0  0  0  0
  6  5  1  6  0  0  0
  7  6  1  0  0  0  0
  8  9  1  0  0  0  0
  8  7  2  0  0  0  0
  9 23  1  1  0  0  0
  9 10  1  0  0  0  0
 10 11  2  0  0  0  0
 11 21  1  0  0  0  0
 12  7  1  0  0  0  0
 12  3  1  0  0  0  0
 13 14  1  0  0  0  0
 14 20  1  0  0  0  0
 15 16  1  0  0  0  0
 15 14  2  0  0  0  0
 16 17  2  0  0  0  0
 17 18  1  0  0  0  0
 17 19  1  0  0  0  0
 20 19  2  0  0  0  0
 21 22  1  0  0  0  0
 23 24  1  0  0  0  0
 25 24  1  0  0  0  0
 26 27  1  0  0  0  0
 26 25  1  0  0  0  0
 27 28  1  0  0  0  0
 28 23  1  0  0  0  0
M  END
>  <Pose>
1

>  <Score>
-6.342

$$$$
