/Users/jonathanwahrer/Desktop/Msc/3_Semester/Drug_Design_Praktikum/waehrer_HTS_screening/HTS_experiment/out/docking_results/vina_output/4agl/1966_docked.pdbqt
 OpenBabel03212200483D

 27 30  0  0  0  0  0  0  0  0999 V2000
   91.5390   94.6410  -43.3960 C   0  0  0  0  0  0  0  0  0  0  0  0
   91.4880   93.8990  -42.3390 O   0  0  0  0  0  0  0  0  0  0  0  0
   91.6550   96.0080  -43.3720 N   0  0  0  0  0  0  0  0  0  0  0  0
   91.7690   97.3670  -43.3480 C   0  0  0  0  0  2  0  0  0  0  0  0
   91.6580   95.9990  -42.0050 H   0  0  0  0  0  0  0  0  0  0  0  0
   91.4570   93.8020  -44.6210 C   0  0  0  0  0  0  0  0  0  0  0  0
   90.8110   94.0620  -45.8040 C   0  0  0  0  0  0  0  0  0  0  0  0
   90.0860   95.1630  -46.1190 F   0  0  0  0  0  0  0  0  0  0  0  0
   90.9840   93.0300  -46.6860 N   0  0  0  0  0  0  0  0  0  0  0  0
   91.7410   92.1320  -46.0350 C   0  0  0  0  0  0  0  0  0  0  0  0
   90.5540   92.8250  -47.9420 C   0  0  0  0  0  3  0  0  0  0  0  0
   92.0220   92.5930  -44.8060 N   0  0  0  0  0  0  0  0  0  0  0  0
   92.0650   90.9790  -46.7080 C   0  0  0  0  0  3  0  0  0  0  0  0
   91.6390   90.7270  -48.0130 C   0  0  0  0  0  3  0  0  0  0  0  0
   90.8690   91.6670  -48.6440 C   0  0  0  0  0  0  0  0  0  0  0  0
   90.3000   91.4180  -50.2950 Cl  0  0  0  0  0  0  0  0  0  0  0  0
   91.8050   98.0430  -44.6960 C   0  0  0  0  0  0  0  0  0  0  0  0
   90.7570   98.5740  -45.3310 N   0  0  0  0  0  0  0  0  0  0  0  0
   91.1900   99.0720  -46.4770 N   0  0  0  0  0  0  0  0  0  0  0  0
   92.4850   98.8740  -46.5920 N   0  0  0  0  0  0  0  0  0  0  0  0
   92.8590   98.2350  -45.4830 N   0  0  0  0  0  0  0  0  0  0  0  0
   89.4370   98.5710  -44.7840 C   0  0  0  0  0  0  0  0  0  0  0  0
   88.4630   97.8180  -45.4300 C   0  0  0  0  0  3  0  0  0  0  0  0
   87.1550   97.7860  -44.9600 C   0  0  0  0  0  3  0  0  0  0  0  0
   86.7820   98.5000  -43.8390 C   0  0  0  0  0  3  0  0  0  0  0  0
   87.7540   99.2440  -43.2040 C   0  0  0  0  0  3  0  0  0  0  0  0
   89.0560   99.2790  -43.6690 C   0  0  0  0  0  3  0  0  0  0  0  0
  1  3  1  0  0  0  0
  1  2  2  0  0  0  0
  3  4  1  0  0  0  0
  3  5  1  0  0  0  0
  6  1  1  0  0  0  0
  7  6  2  0  0  0  0
  8  7  1  0  0  0  0
  9 10  1  0  0  0  0
  9  7  1  0  0  0  0
 10 12  2  0  0  0  0
 11  9  1  0  0  0  0
 12  6  1  0  0  0  0
 13 10  1  0  0  0  0
 14 13  2  0  0  0  0
 15 14  1  0  0  0  0
 15 11  2  0  0  0  0
 16 15  1  0  0  0  0
 17  4  1  0  0  0  0
 18 22  1  0  0  0  0
 18 17  1  0  0  0  0
 19 18  1  0  0  0  0
 20 19  2  0  0  0  0
 20 21  1  0  0  0  0
 21 17  2  0  0  0  0
 22 27  1  0  0  0  0
 23 24  1  0  0  0  0
 23 22  2  0  0  0  0
 24 25  2  0  0  0  0
 25 26  1  0  0  0  0
 27 26  2  0  0  0  0
M  END
>  <Pose>
1

>  <Score>
-7.051

$$$$
