/Users/jonathanwahrer/Desktop/Msc/3_Semester/Drug_Design_Praktikum/waehrer_HTS_screening/HTS_experiment/out/docking_results/vina_output/4agl/1969_docked.pdbqt
 OpenBabel03212200483D

 26 29  0  0  0  0  0  0  0  0999 V2000
   91.4890   96.0200  -44.6300 C   0  0  0  0  0  0  0  0  0  0  0  0
   91.7710   96.0820  -45.9910 O   0  0  0  0  0  0  0  0  0  0  0  0
   91.1960   97.2480  -44.1380 N   0  0  0  0  0  0  0  0  0  0  0  0
   90.7530   97.6800  -42.8450 C   0  0  0  0  0  2  0  0  0  0  0  0
   89.9780   99.0050  -42.9900 C   0  0  0  0  0  2  0  0  0  0  0  0
   89.3310   98.8910  -44.3040 N   0  0  0  0  0  0  0  0  0  0  0  0
   90.1370   98.9800  -45.4760 C   0  0  0  0  0  2  0  0  0  0  0  0
   91.4490   98.3790  -45.0870 C   0  0  0  0  0  2  0  0  0  0  0  0
   91.6430   94.6040  -44.3510 C   0  0  0  0  0  0  0  0  0  0  0  0
   91.7740   93.4190  -44.1150 N   0  0  0  0  0  0  0  0  0  0  0  0
   91.7880   92.4220  -44.7560 N   0  0  0  0  0  0  0  0  0  0  0  0
   91.6300   92.8120  -46.0030 N   0  0  0  0  0  0  0  0  0  0  0  0
   91.5120   94.1120  -45.9600 C   0  0  0  0  0  3  0  0  0  0  0  0
   91.6010   91.8500  -47.0830 C   0  0  0  0  0  0  0  0  0  0  0  0
   90.6600   91.8050  -48.0530 C   0  0  0  0  0  3  0  0  0  0  0  0
   90.7080   90.8540  -49.0630 C   0  0  0  0  0  0  0  0  0  0  0  0
   89.5340   90.7240  -50.3350 Cl  0  0  0  0  0  0  0  0  0  0  0  0
   91.7700   89.8920  -49.0860 C   0  0  0  0  0  3  0  0  0  0  0  0
   92.7040   89.9550  -48.1100 C   0  0  0  0  0  3  0  0  0  0  0  0
   92.6050   90.9060  -47.1510 C   0  0  0  0  0  3  0  0  0  0  0  0
   87.9770   98.5850  -44.3760 C   0  0  0  0  0  0  0  0  0  0  0  0
   87.5190   97.5320  -45.1760 N   0  0  0  0  0  0  0  0  0  0  0  0
   86.2960   97.1490  -45.2950 C   0  0  0  0  0  3  0  0  0  0  0  0
   85.2530   97.7710  -44.5910 C   0  0  0  0  0  3  0  0  0  0  0  0
   85.6970   98.8220  -43.8000 C   0  0  0  0  0  3  0  0  0  0  0  0
   86.9300   99.1590  -43.7280 N   0  0  0  0  0  0  0  0  0  0  0  0
  1  9  1  0  0  0  0
  1  3  1  0  0  0  0
  2  1  2  0  0  0  0
  3  4  1  0  0  0  0
  5  4  1  0  0  0  0
  6  5  1  0  0  0  0
  7  8  1  0  0  0  0
  7  6  1  0  0  0  0
  8  3  1  0  0  0  0
  9 10  1  0  0  0  0
 11 10  2  0  0  0  0
 12 13  1  0  0  0  0
 12 11  1  0  0  0  0
 13  9  2  0  0  0  0
 14 12  1  0  0  0  0
 15 14  2  0  0  0  0
 16 15  1  0  0  0  0
 17 16  1  0  0  0  0
 18 16  2  0  0  0  0
 18 19  1  0  0  0  0
 19 20  2  0  0  0  0
 20 14  1  0  0  0  0
 21  6  1  0  0  0  0
 21 26  1  0  0  0  0
 22 21  2  0  0  0  0
 23 22  1  0  0  0  0
 23 24  2  0  0  0  0
 24 25  1  0  0  0  0
 25 26  2  0  0  0  0
M  END
>  <Pose>
1

>  <Score>
-7.227

$$$$
