/Users/jonathanwahrer/Desktop/Msc/3_Semester/Drug_Design_Praktikum/waehrer_HTS_screening/HTS_experiment/out/docking_results/vina_output/4agl/1982_docked.pdbqt
 OpenBabel03212200483D

 25 28  0  0  0  0  0  0  0  0999 V2000
   93.2350   92.7050  -42.5130 Cl  0  0  0  0  0  0  0  0  0  0  0  0
   92.2780   93.5920  -43.6810 C   0  0  0  0  0  0  0  0  0  0  0  0
   91.9180   94.9110  -43.5010 C   0  0  0  0  0  3  0  0  0  0  0  0
   91.1640   95.6220  -44.4130 C   0  0  0  0  0  0  0  0  0  0  0  0
   90.7590   94.9630  -45.5580 C   0  0  0  0  0  0  0  0  0  0  0  0
   91.1130   93.6440  -45.7490 C   0  0  0  0  0  3  0  0  0  0  0  0
   91.8660   92.9330  -44.8370 C   0  0  0  0  0  3  0  0  0  0  0  0
   89.9500   95.7050  -46.5500 C   0  0  0  0  0  0  0  0  0  0  0  0
   89.4600   95.3440  -47.6610 N   0  0  0  0  0  0  0  0  0  0  0  0
   88.7210   96.3900  -48.3350 C   0  0  0  0  0  3  0  0  0  0  0  0
   88.8140   97.5710  -47.4260 C   0  0  0  0  0  3  0  0  0  0  0  0
   89.6040   97.0630  -46.3200 N   0  0  0  0  0  0  0  0  0  0  0  0
   90.0640   97.6700  -45.1120 C   0  0  0  0  0  0  0  0  0  0  0  0
   89.8940   98.9160  -44.6360 N   0  0  0  0  0  0  0  0  0  0  0  0
   90.4920   99.0610  -43.4660 N   0  0  0  0  0  0  0  0  0  0  0  0
   91.0550   97.8550  -43.2080 C   0  0  0  0  0  0  0  0  0  0  0  0
   91.7130   97.6150  -42.1720 O   0  0  0  0  0  0  0  0  0  0  0  0
   90.8060   96.9870  -44.2030 N   0  0  0  0  0  0  0  0  0  0  0  0
   90.5350  100.2520  -42.6410 C   0  0  0  0  0  2  0  0  0  0  0  0
   91.8660  100.9800  -42.8730 C   0  0  0  0  0  2  0  0  0  0  0  0
   92.5890  101.1430  -41.5860 C   0  0  0  0  0  0  0  0  0  0  0  0
   93.1410  102.2080  -41.2130 O   0  0  0  0  0  0  0  0  0  0  0  0
   92.6610  100.0230  -40.7190 N   0  0  0  0  0  0  0  0  0  0  0  0
   92.7820   99.0480  -41.0510 H   0  0  0  0  0  0  0  0  0  0  0  0
   92.5870  100.1960  -39.6960 H   0  0  0  0  0  0  0  0  0  0  0  0
  2  3  1  0  0  0  0
  2  1  1  0  0  0  0
  4 18  1  0  0  0  0
  4  3  2  0  0  0  0
  5  4  1  0  0  0  0
  6  5  2  0  0  0  0
  6  7  1  0  0  0  0
  7  2  2  0  0  0  0
  8 12  1  0  0  0  0
  8  5  1  0  0  0  0
  9  8  2  0  0  0  0
 10  9  1  0  0  0  0
 10 11  2  0  0  0  0
 11 12  1  0  0  0  0
 12 13  1  0  0  0  0
 13 14  2  0  0  0  0
 13 18  1  0  0  0  0
 14 15  1  0  0  0  0
 15 16  1  0  0  0  0
 15 19  1  0  0  0  0
 16 17  2  0  0  0  0
 18 16  1  0  0  0  0
 20 19  1  0  0  0  0
 20 21  1  0  0  0  0
 21 22  2  0  0  0  0
 21 23  1  0  0  0  0
 23 25  1  0  0  0  0
 24 23  1  0  0  0  0
M  END
>  <Pose>
1

>  <Score>
-6.304

$$$$
