/Users/jonathanwahrer/Desktop/Msc/3_Semester/Drug_Design_Praktikum/waehrer_HTS_screening/HTS_experiment/out/docking_results/vina_output/4agl/1986_docked.pdbqt
 OpenBabel03212200493D

 30 33  0  0  0  0  0  0  0  0999 V2000
   91.5530   93.3170  -42.4780 Cl  0  0  0  0  0  0  0  0  0  0  0  0
   91.7300   95.0570  -42.3320 C   0  0  0  0  0  0  0  0  0  0  0  0
   91.4300   95.8930  -43.3890 C   0  0  0  0  0  2  0  0  0  0  0  0
   91.5720   97.2820  -43.2740 C   0  0  0  0  0  0  0  0  0  0  0  0
   92.0190   97.7580  -42.0680 C   0  0  0  0  0  0  0  0  0  0  0  0
   92.3230   96.9060  -40.9970 C   0  0  0  0  0  3  0  0  0  0  0  0
   92.1800   95.5410  -41.1210 C   0  0  0  0  0  3  0  0  0  0  0  0
   92.1680   99.1350  -41.9270 O   0  0  0  0  0  0  0  0  0  0  0  0
   91.8880  100.0360  -42.9400 C   0  0  0  0  0  0  0  0  0  0  0  0
   91.4360   99.5530  -44.1580 C   0  0  0  0  0  0  0  0  0  0  0  0
   91.2390   98.1260  -44.4370 C   0  0  0  0  0  0  0  0  0  0  0  0
   91.1690  100.4910  -45.1360 C   0  0  0  0  0  0  0  0  0  0  0  0
   90.7510  100.1070  -46.2740 O   0  0  0  0  0  0  0  0  0  0  0  0
   91.3200  101.8150  -44.9770 N   0  0  0  0  0  0  0  0  0  0  0  0
   91.7640  102.2410  -43.7690 C   0  0  0  0  0  0  0  0  0  0  0  0
   91.8990  103.4880  -43.6420 O   0  0  0  0  0  0  0  0  0  0  0  0
   92.0370  101.3630  -42.7870 N   0  0  0  0  0  0  0  0  0  0  0  0
   92.5080  101.8960  -41.5250 C   0  0  0  0  0  1  0  0  0  0  0  0
   91.0200  102.7670  -46.0470 C   0  0  0  0  0  1  0  0  0  0  0  0
   89.8070   97.8900  -44.8140 C   0  0  0  0  0  3  0  0  0  0  0  0
   89.4820   97.1520  -45.9310 C   0  0  0  0  0  0  0  0  0  0  0  0
   88.1790   96.9460  -46.2630 N   0  0  0  0  0  0  0  0  0  0  0  0
   90.4810   96.6270  -46.7020 O   0  0  0  0  0  0  0  0  0  0  0  0
   87.1840   97.4650  -45.5000 C   0  0  0  0  0  0  0  0  0  0  0  0
   87.9010   96.1530  -47.4570 C   0  0  0  0  0  1  0  0  0  0  0  0
   85.9860   97.2530  -45.8390 O   0  0  0  0  0  0  0  0  0  0  0  0
   87.4690   98.1880  -44.4060 N   0  0  0  0  0  0  0  0  0  0  0  0
   88.7570   98.3950  -44.0720 C   0  0  0  0  0  0  0  0  0  0  0  0
   86.3750   98.7330  -43.6080 C   0  0  0  0  0  1  0  0  0  0  0  0
   89.0040   99.0650  -43.0590 O   0  0  0  0  0  0  0  0  0  0  0  0
  1  2  1  0  0  0  0
  2  7  2  0  0  0  0
  3  4  1  0  0  0  0
  3  2  1  0  0  0  0
  4  5  1  0  0  0  0
  5  8  1  0  0  0  0
  5  6  2  0  0  0  0
  7  6  1  0  0  0  0
  9 17  1  0  0  0  0
  9  8  1  0  0  0  0
 10  9  2  0  0  0  0
 11 10  1  0  0  0  0
 11  4  2  0  0  0  0
 12 14  1  0  0  0  0
 12 10  1  0  0  0  0
 13 12  2  0  0  0  0
 14 15  1  0  0  0  0
 15 16  2  0  0  0  0
 15 17  1  0  0  0  0
 17 18  1  0  0  0  0
 19 14  1  0  0  0  0
 20 11  1  0  0  0  0
 20 28  1  0  0  0  0
 21 20  1  0  0  0  0
 22 21  1  0  0  0  0
 22 24  1  0  0  0  0
 23 21  2  0  0  0  0
 24 27  1  0  0  0  0
 25 22  1  0  0  0  0
 26 24  2  0  0  0  0
 27 28  1  0  0  0  0
 27 29  1  0  0  0  0
 28 30  2  0  0  0  0
M  END
>  <Pose>
1

>  <Score>
-7.009

$$$$
