/Users/jonathanwahrer/Desktop/Msc/3_Semester/Drug_Design_Praktikum/waehrer_HTS_screening/HTS_experiment/out/docking_results/vina_output/4agl/1991_docked.pdbqt
 OpenBabel03212200493D

 31 34  0  0  1  0  0  0  0  0999 V2000
   93.9300  104.0450  -39.3470 Cl  0  0  0  0  0  0  0  0  0  0  0  0
   93.1570  102.8140  -40.3160 C   0  0  0  0  0  0  0  0  0  0  0  0
   92.4510  103.1450  -41.4520 C   0  0  0  0  0  3  0  0  0  0  0  0
   91.8510  102.1660  -42.2000 C   0  0  0  0  0  0  0  0  0  0  0  0
   91.9600  100.8270  -41.8030 C   0  0  0  0  0  0  0  0  0  0  0  0
   92.6680  100.4850  -40.6620 C   0  0  0  0  0  3  0  0  0  0  0  0
   93.2520  101.4920  -39.9430 C   0  0  0  0  0  3  0  0  0  0  0  0
   91.4140   99.7270  -42.4460 O   0  0  0  0  0  0  0  0  0  0  0  0
   91.0480   99.6130  -43.8000 C   0  0  0  0  0  0  0  0  0  0  0  0
   89.9200  100.5220  -44.1640 C   0  0  0  0  0  2  0  0  0  0  0  0
   89.9790  101.8330  -43.5920 N   0  0  0  0  0  0  0  0  0  0  0  0
   91.1290  102.6770  -43.3930 C   0  0  0  0  0  2  0  0  0  0  0  0
   88.7480  102.4220  -43.1420 C   0  0  0  0  0  0  0  0  0  0  0  0
   88.8190  103.5740  -42.6470 O   0  0  0  0  0  0  0  0  0  0  0  0
   92.2730   99.8190  -44.6770 C   0  0  0  0  0  2  0  0  0  0  0  0
   92.9450   98.4880  -44.9630 C   0  0  0  0  0  2  0  0  0  0  0  0
   92.1650   97.6590  -45.7450 O   0  0  0  0  0  0  0  0  0  0  0  0
   90.8140   97.9250  -45.5570 C   0  0  0  0  0  2  0  0  0  0  0  0
   90.5760   98.1840  -44.0820 C   0  0  0  0  0  2  0  0  0  0  0  0
   87.4730  101.7170  -43.2520 C   0  0  0  0  0  2  0  0  0  0  0  0
   86.5330  102.1970  -44.1980 N   0  0  0  0  0  0  0  0  0  0  0  0
   85.1610  102.1270  -43.6880 C   0  0  0  0  0  2  0  0  0  0  0  0
   84.8420  100.7070  -43.4030 C   0  0  0  0  0  2  0  0  0  0  0  0
   85.2060   99.7170  -44.4580 C   0  0  1  0  0  3  0  0  0  0  0  0
   86.1050  100.1760  -45.5370 C   0  0  0  0  0  2  0  0  0  0  0  0
   86.5680  101.5830  -45.5020 C   0  0  0  0  0  2  0  0  0  0  0  0
   85.6920   98.4450  -43.8690 C   0  0  0  0  0  0  0  0  0  0  0  0
   86.8970   98.1420  -43.9770 O   0  0  0  0  0  0  0  0  0  0  0  0
   84.7940   97.5900  -43.1950 N   0  0  0  0  0  0  0  0  0  0  0  0
   84.8750   97.5810  -42.1350 H   0  0  0  0  0  0  0  0  0  0  0  0
   84.0820   96.9880  -43.6260 H   0  0  0  0  0  0  0  0  0  0  0  0
  2  7  1  0  0  0  0
  2  1  1  0  0  0  0
  3  2  2  0  0  0  0
  4  5  2  0  0  0  0
  4  3  1  0  0  0  0
  5  6  1  0  0  0  0
  6  7  2  0  0  0  0
  8  5  1  0  0  0  0
  9  8  1  0  0  0  0
 10  9  1  0  0  0  0
 10 11  1  0  0  0  0
 11 12  1  0  0  0  0
 11 13  1  0  0  0  0
 12  4  1  0  0  0  0
 13 14  2  0  0  0  0
 15  9  1  0  0  0  0
 16 15  1  0  0  0  0
 17 18  1  0  0  0  0
 17 16  1  0  0  0  0
 18 19  1  0  0  0  0
 19  9  1  0  0  0  0
 20 13  1  0  0  0  0
 21 22  1  0  0  0  0
 21 20  1  0  0  0  0
 22 23  1  0  0  0  0
 24 27  1  1  0  0  0
 24 23  1  0  0  0  0
 25 26  1  0  0  0  0
 25 24  1  0  0  0  0
 26 21  1  0  0  0  0
 27 29  1  0  0  0  0
 28 27  2  0  0  0  0
 29 30  1  0  0  0  0
 31 29  1  0  0  0  0
M  END
>  <Pose>
1

>  <Score>
-5.917

$$$$
