/Users/jonathanwahrer/Desktop/Msc/3_Semester/Drug_Design_Praktikum/waehrer_HTS_screening/HTS_experiment/out/docking_results/vina_output/4agl/2003_docked.pdbqt
 OpenBabel03212200493D

 28 31  0  0  0  0  0  0  0  0999 V2000
   86.8380   97.9550  -47.2570 N   0  0  0  0  0  0  0  0  0  0  0  0
   86.8930   97.8440  -45.8320 C   0  0  0  0  0  2  0  0  0  0  0  0
   88.2910   97.6630  -45.3010 C   0  0  0  0  0  2  0  0  0  0  0  0
   89.2670   98.4140  -46.0560 N   0  0  0  0  0  0  0  0  0  0  0  0
   88.9300   99.2650  -47.1660 C   0  0  0  0  0  3  0  0  0  0  0  0
   87.6350   98.9820  -47.8260 C   0  0  0  0  0  3  0  0  0  0  0  0
   90.6330   98.3070  -45.6790 C   0  0  0  0  0  0  0  0  0  0  0  0
   91.5430   98.9460  -46.3050 O   0  0  0  0  0  0  0  0  0  0  0  0
   91.0390   97.4580  -44.5590 C   0  0  0  0  0  0  0  0  0  0  0  0
   91.1790   97.9260  -43.2680 C   0  0  0  0  0  3  0  0  0  0  0  0
   91.5550   97.0860  -42.2860 N   0  0  0  0  0  0  0  0  0  0  0  0
   91.8120   95.7810  -42.4860 C   0  0  0  0  0  0  0  0  0  0  0  0
   91.6800   95.3090  -43.7390 N   0  0  0  0  0  0  0  0  0  0  0  0
   92.1990   94.9440  -41.4470 C   0  0  0  0  0  3  0  0  0  0  0  0
   91.9330   94.0030  -43.9600 C   0  0  0  0  0  3  0  0  0  0  0  0
   91.3060   96.1170  -44.7490 C   0  0  0  0  0  0  0  0  0  0  0  0
   92.3190   93.1480  -42.9490 C   0  0  0  0  0  3  0  0  0  0  0  0
   92.4630   93.6010  -41.6510 C   0  0  0  0  0  3  0  0  0  0  0  0
   91.1830   95.6770  -45.9190 O   0  0  0  0  0  0  0  0  0  0  0  0
   85.2880   97.7870  -47.9190 S   0  0  0  0  0  0  0  0  0  0  0  0
   84.3440   98.7610  -47.3270 O   0  0  0  0  0  0  0  0  0  0  0  0
   85.3730   98.0010  -49.4140 O   0  0  0  0  0  0  0  0  0  0  0  0
   84.7180   96.1360  -47.6210 C   0  0  0  0  0  0  0  0  0  0  0  0
   85.0420   94.7050  -48.4870 S   0  0  0  0  0  0  0  0  0  0  0  0
   84.1280   93.6100  -47.5520 C   0  0  0  0  0  0  0  0  0  0  0  0
   83.5920   94.4070  -46.5790 C   0  0  0  0  0  3  0  0  0  0  0  0
   83.9020   91.8610  -47.7540 Cl  0  0  0  0  0  0  0  0  0  0  0  0
   83.8930   95.7090  -46.6120 C   0  0  0  0  0  3  0  0  0  0  0  0
  1  2  1  0  0  0  0
  2  3  1  0  0  0  0
  4  7  1  0  0  0  0
  4  3  1  0  0  0  0
  5  4  1  0  0  0  0
  6  1  1  0  0  0  0
  6  5  2  0  0  0  0
  7  9  1  0  0  0  0
  8  7  2  0  0  0  0
  9 10  2  0  0  0  0
 10 11  1  0  0  0  0
 12 11  2  0  0  0  0
 12 14  1  0  0  0  0
 13 12  1  0  0  0  0
 15 13  1  0  0  0  0
 15 17  2  0  0  0  0
 16  9  1  0  0  0  0
 16 13  1  0  0  0  0
 17 18  1  0  0  0  0
 18 14  2  0  0  0  0
 19 16  2  0  0  0  0
 20 23  1  0  0  0  0
 20 21  2  0  0  0  0
 20  1  1  0  0  0  0
 22 20  2  0  0  0  0
 23 28  2  0  0  0  0
 24 23  1  0  0  0  0
 24 25  1  0  0  0  0
 25 26  2  0  0  0  0
 27 25  1  0  0  0  0
 28 26  1  0  0  0  0
M  END
>  <Pose>
1

>  <Score>
-6.435

$$$$
