/Users/jonathanwahrer/Desktop/Msc/3_Semester/Drug_Design_Praktikum/waehrer_HTS_screening/HTS_experiment/out/docking_results/vina_output/4agl/2004_docked.pdbqt
 OpenBabel03212200493D

 29 32  0  0  1  0  0  0  0  0999 V2000
   91.2570   97.5990  -44.7040 S   0  0  0  0  0  0  0  0  0  0  0  0
   91.4780   96.3550  -43.8570 O   0  0  0  0  0  0  0  0  0  0  0  0
   92.2060   97.4130  -45.8860 O   0  0  0  0  0  0  0  0  0  0  0  0
   91.6790   98.9910  -43.8750 N   0  0  0  0  0  0  0  0  0  0  0  0
   92.7310   99.7640  -44.3710 C   0  0  0  0  0  2  0  0  0  0  0  0
   92.8390  101.1350  -43.6870 C   0  0  0  0  0  2  0  0  0  0  0  0
   92.5580  101.0470  -42.2850 N   0  0  0  0  0  0  0  0  0  0  0  0
   91.4200  100.2580  -41.8670 C   0  0  0  0  0  2  0  0  0  0  0  0
   93.3690  101.7100  -41.3560 C   0  0  0  0  0  0  0  0  0  0  0  0
   91.6250   98.8680  -42.4370 C   0  0  0  0  0  2  0  0  0  0  0  0
   94.3530  102.3890  -41.7430 O   0  0  0  0  0  0  0  0  0  0  0  0
   93.1150  101.6480  -39.8820 C   0  0  0  0  0  3  0  0  0  0  0  0
   92.0240  102.5820  -39.4150 C   0  0  0  0  0  2  0  0  0  0  0  0
   93.1120  103.6290  -39.1830 C   0  0  0  0  0  2  0  0  0  0  0  0
   94.1130  102.4720  -39.1080 C   0  0  0  0  0  2  0  0  0  0  0  0
   89.6330   97.5350  -45.3530 C   0  0  0  0  0  0  0  0  0  0  0  0
   88.7420   98.5850  -45.0540 C   0  0  0  0  0  3  0  0  0  0  0  0
   87.4360   98.5620  -45.4860 C   0  0  0  0  0  0  0  0  0  0  0  0
   86.9200   97.5240  -46.2280 C   0  0  0  0  0  0  0  0  0  0  0  0
   86.5750   99.6160  -45.1770 O   0  0  0  0  0  0  0  0  0  0  0  0
   87.7840   96.4990  -46.5230 C   0  0  0  0  0  3  0  0  0  0  0  0
   85.5660   97.5610  -46.6390 N   0  0  0  0  0  0  0  0  0  0  0  0
   89.1190   96.5040  -46.0940 C   0  0  0  0  0  0  0  0  0  0  0  0
   90.1750   95.1980  -46.5760 Cl  0  0  0  0  0  0  0  0  0  0  0  0
   84.7000   98.6400  -46.3120 C   0  0  0  0  0  0  0  0  0  0  0  0
   85.1790   96.7680  -47.2030 H   0  0  0  0  0  0  0  0  0  0  0  0
   83.5960   98.8570  -46.8480 O   0  0  0  0  0  0  0  0  0  0  0  0
   85.1770   99.5620  -45.2480 C   0  0  1  0  0  3  0  0  0  0  0  0
   84.6500   99.1360  -43.8960 C   0  0  0  0  0  1  0  0  0  0  0  0
  1  4  1  0  0  0  0
  1  2  2  0  0  0  0
  3  1  2  0  0  0  0
  4 10  1  0  0  0  0
  5  4  1  0  0  0  0
  5  6  1  0  0  0  0
  6  7  1  0  0  0  0
  7  8  1  0  0  0  0
  7  9  1  0  0  0  0
  9 12  1  0  0  0  0
 10  8  1  0  0  0  0
 11  9  2  0  0  0  0
 12 13  1  0  0  0  0
 12 15  1  0  0  0  0
 13 14  1  0  0  0  0
 14 15  1  0  0  0  0
 16 17  1  0  0  0  0
 16  1  1  0  0  0  0
 18 20  1  0  0  0  0
 18 17  2  0  0  0  0
 19 18  1  0  0  0  0
 21 19  2  0  0  0  0
 21 23  1  0  0  0  0
 22 25  1  0  0  0  0
 22 19  1  0  0  0  0
 23 16  2  0  0  0  0
 24 23  1  0  0  0  0
 25 28  1  0  0  0  0
 26 22  1  0  0  0  0
 27 25  2  0  0  0  0
 28 20  1  0  0  0  0
 28 29  1  1  0  0  0
M  END
>  <Pose>
1

>  <Score>
-6.003

$$$$
