/Users/jonathanwahrer/Desktop/Msc/3_Semester/Drug_Design_Praktikum/waehrer_HTS_screening/HTS_experiment/out/docking_results/vina_output/4agl/2012_docked.pdbqt
 OpenBabel03212200493D

 25 28  0  0  1  0  0  0  0  0999 V2000
   88.7630   99.5490  -43.6550 N   0  0  0  0  0  0  0  0  0  0  0  0
   89.7400  100.0290  -42.7380 C   0  0  0  0  0  0  0  0  0  0  0  0
   89.5020  100.8100  -41.8020 O   0  0  0  0  0  0  0  0  0  0  0  0
   91.0520   99.4560  -43.0830 C   0  0  1  0  0  3  0  0  0  0  0  0
   91.8990   99.1390  -42.0700 O   0  0  0  0  0  0  0  0  0  0  0  0
   92.5210   97.9990  -42.5430 N   0  0  0  0  0  0  0  0  0  0  0  0
   91.5440   97.2150  -43.2340 C   0  0  0  0  0  0  0  0  0  0  0  0
   90.6190   98.1050  -43.5730 C   0  0  0  0  0  0  0  0  0  0  0  0
   89.3200   98.3210  -44.1930 C   0  0  0  0  0  0  0  0  0  0  0  0
   88.8160   97.5440  -45.0430 O   0  0  0  0  0  0  0  0  0  0  0  0
   93.5240   97.7920  -42.4070 H   0  0  0  0  0  0  0  0  0  0  0  0
   87.4910  100.0660  -44.0240 C   0  0  0  0  0  0  0  0  0  0  0  0
   86.3240   99.3730  -43.7990 C   0  0  0  0  0  3  0  0  0  0  0  0
   85.1240   99.9600  -44.1910 C   0  0  0  0  0  0  0  0  0  0  0  0
   83.5970   99.1210  -43.9340 Cl  0  0  0  0  0  0  0  0  0  0  0  0
   85.1170  101.2030  -44.7890 C   0  0  0  0  0  3  0  0  0  0  0  0
   86.2930  101.9000  -45.0120 C   0  0  0  0  0  3  0  0  0  0  0  0
   87.4710  101.3320  -44.6310 C   0  0  0  0  0  3  0  0  0  0  0  0
   91.5710   95.8000  -43.5460 C   0  0  0  0  0  0  0  0  0  0  0  0
   91.4520   95.3340  -44.8580 C   0  0  0  0  0  3  0  0  0  0  0  0
   91.4950   93.9940  -44.8660 N   0  0  0  0  0  0  0  0  0  0  0  0
   91.6360   93.5800  -43.6060 N   0  0  0  0  0  0  0  0  0  0  0  0
   91.4060   93.0770  -45.9980 C   0  0  0  0  0  1  0  0  0  0  0  0
   91.6830   94.6640  -42.7970 C   0  0  0  0  0  0  0  0  0  0  0  0
   91.8160   94.6330  -41.3190 C   0  0  0  0  0  1  0  0  0  0  0  0
  1  2  1  0  0  0  0
  2  3  2  0  0  0  0
  4  8  1  1  0  0  0
  4  2  1  0  0  0  0
  4  5  1  0  0  0  0
  6 11  1  0  0  0  0
  6  5  1  0  0  0  0
  7  6  1  0  0  0  0
  8  7  2  0  0  0  0
  9  1  1  0  0  0  0
  9  8  1  0  0  0  0
 10  9  2  0  0  0  0
 12 13  1  0  0  0  0
 12  1  1  0  0  0  0
 14 15  1  0  0  0  0
 14 13  2  0  0  0  0
 16 14  1  0  0  0  0
 17 16  2  0  0  0  0
 17 18  1  0  0  0  0
 18 12  2  0  0  0  0
 19  7  1  0  0  0  0
 19 24  1  0  0  0  0
 20 19  2  0  0  0  0
 21 20  1  0  0  0  0
 21 22  1  0  0  0  0
 22 24  2  0  0  0  0
 23 21  1  0  0  0  0
 24 25  1  0  0  0  0
M  END
>  <Pose>
1

>  <Score>
-6.426

$$$$
