/Users/jonathanwahrer/Desktop/Msc/3_Semester/Drug_Design_Praktikum/waehrer_HTS_screening/HTS_experiment/out/docking_results/vina_output/4agl/2014_docked.pdbqt
 OpenBabel03212200493D

 26 29  0  0  0  0  0  0  0  0999 V2000
   89.8510   97.2480  -45.8880 C   0  0  0  0  0  0  0  0  0  0  0  0
   90.4480   96.1810  -45.3640 N   0  0  0  0  0  0  0  0  0  0  0  0
   90.4070   95.1430  -46.2500 C   0  0  0  0  0  0  0  0  0  0  0  0
   89.7630   95.6300  -47.3360 N   0  0  0  0  0  0  0  0  0  0  0  0
   89.4270   96.8760  -47.1360 N   0  0  0  0  0  0  0  0  0  0  0  0
   91.0080   94.0590  -45.7370 N   0  0  0  0  0  0  0  0  0  0  0  0
   91.4550   94.3500  -44.5210 C   0  0  0  0  0  0  0  0  0  0  0  0
   91.1040   95.6900  -44.2830 C   0  0  0  0  0  0  0  0  0  0  0  0
   91.4440   96.2650  -43.1230 N   0  0  0  0  0  0  0  0  0  0  0  0
   92.1190   95.5140  -42.2110 C   0  0  0  0  0  0  0  0  0  0  0  0
   92.4270   96.0850  -41.1190 O   0  0  0  0  0  0  0  0  0  0  0  0
   92.4730   94.2440  -42.3860 N   0  0  0  0  0  0  0  0  0  0  0  0
   92.1390   93.6680  -43.5420 C   0  0  0  0  0  0  0  0  0  0  0  0
   92.4490   92.4680  -43.7590 O   0  0  0  0  0  0  0  0  0  0  0  0
   93.2040   93.5000  -41.3450 C   0  0  0  0  0  1  0  0  0  0  0  0
   91.1510   97.6380  -42.8300 C   0  0  0  0  0  1  0  0  0  0  0  0
   91.1590   92.7700  -46.3810 C   0  0  0  0  0  1  0  0  0  0  0  0
   89.6170   98.6020  -45.3970 C   0  0  0  0  0  0  0  0  0  0  0  0
   88.4540   98.9120  -44.6970 C   0  0  0  0  0  3  0  0  0  0  0  0
   88.2820  100.1650  -44.1760 C   0  0  0  0  0  0  0  0  0  0  0  0
   86.6870  100.6090  -43.2080 Br  0  0  0  0  0  0  0  0  0  0  0  0
   89.2200  101.1740  -44.3050 C   0  0  0  0  0  3  0  0  0  0  0  0
   90.3710  100.8520  -45.0040 C   0  0  0  0  0  3  0  0  0  0  0  0
   90.5530   99.6070  -45.5280 C   0  0  0  0  0  0  0  0  0  0  0  0
   91.7230   99.2650  -46.2420 O   0  0  0  0  0  0  0  0  0  0  0  0
   92.9750   99.1800  -45.5870 C   0  0  0  0  0  1  0  0  0  0  0  0
  1 18  1  0  0  0  0
  1  2  1  0  0  0  0
  2  8  1  0  0  0  0
  3  6  1  0  0  0  0
  3  2  1  0  0  0  0
  4  5  1  0  0  0  0
  4  3  2  0  0  0  0
  5  1  2  0  0  0  0
  6  7  1  0  0  0  0
  7  8  2  0  0  0  0
  7 13  1  0  0  0  0
  8  9  1  0  0  0  0
  9 16  1  0  0  0  0
  9 10  1  0  0  0  0
 10 11  2  0  0  0  0
 12 10  1  0  0  0  0
 12 15  1  0  0  0  0
 13 12  1  0  0  0  0
 14 13  2  0  0  0  0
 17  6  1  0  0  0  0
 18 19  1  0  0  0  0
 19 20  2  0  0  0  0
 20 21  1  0  0  0  0
 22 20  1  0  0  0  0
 23 22  2  0  0  0  0
 24 18  2  0  0  0  0
 24 23  1  0  0  0  0
 25 26  1  0  0  0  0
 25 24  1  0  0  0  0
M  END
>  <Pose>
1

>  <Score>
-6.562

$$$$
