/Users/jonathanwahrer/Desktop/Msc/3_Semester/Drug_Design_Praktikum/waehrer_HTS_screening/HTS_experiment/out/docking_results/vina_output/4agl/2017_docked.pdbqt
 OpenBabel03212200503D

 24 27  0  0  0  0  0  0  0  0999 V2000
   91.0820   91.4770  -47.6570 Cl  0  0  0  0  0  0  0  0  0  0  0  0
   91.2570   92.7180  -46.4270 C   0  0  0  0  0  0  0  0  0  0  0  0
   90.7380   93.9900  -46.5800 C   0  0  0  0  0  2  0  0  0  0  0  0
   90.8800   94.9430  -45.6230 N   0  0  0  0  0  0  0  0  0  0  0  0
   91.5290   94.7160  -44.4680 C   0  0  0  0  0  0  0  0  0  0  0  0
   91.6750   95.6540  -43.5130 N   0  0  0  0  0  0  0  0  0  0  0  0
   91.1740   96.8940  -43.6540 C   0  0  0  0  0  0  0  0  0  0  0  0
   90.4960   97.1380  -44.8500 C   0  0  0  0  0  2  0  0  0  0  0  0
   90.3540   96.1700  -45.8210 C   0  0  0  0  0  0  0  0  0  0  0  0
   89.7360   96.3990  -46.9100 O   0  0  0  0  0  0  0  0  0  0  0  0
   92.0610   93.4460  -44.2880 C   0  0  0  0  0  3  0  0  0  0  0  0
   91.9280   92.4640  -45.2490 C   0  0  0  0  0  3  0  0  0  0  0  0
   91.3080   97.9610  -42.6300 C   0  0  0  0  0  2  0  0  0  0  0  0
   91.3410   99.2230  -43.2710 N   0  0  0  0  0  0  0  0  0  0  0  0
   92.5620   99.6390  -43.8510 C   0  0  0  0  0  2  0  0  0  0  0  0
   92.7580  101.1470  -43.8870 C   0  0  0  0  0  2  0  0  0  0  0  0
   92.4630  101.6290  -42.5120 C   0  0  0  0  0  0  0  0  0  0  0  0
   91.2980  101.1550  -41.9470 C   0  0  0  0  0  0  0  0  0  0  0  0
   93.3180  102.4920  -41.8660 C   0  0  0  0  0  3  0  0  0  0  0  0
   90.9900  101.5610  -40.7060 N   0  0  0  0  0  0  0  0  0  0  0  0
   90.4720  100.2290  -42.7610 C   0  0  0  0  0  2  0  0  0  0  0  0
   91.8150  102.4200  -40.0320 C   0  0  0  0  0  0  0  0  0  0  0  0
   92.9520  102.8640  -40.6200 N   0  0  0  0  0  0  0  0  0  0  0  0
   91.4850  102.8760  -38.6570 C   0  0  0  0  0  1  0  0  0  0  0  0
  1  2  1  0  0  0  0
  2 12  2  0  0  0  0
  3  2  1  0  0  0  0
  3  4  1  0  0  0  0
  4  5  1  0  0  0  0
  5 11  2  0  0  0  0
  5  6  1  0  0  0  0
  7  6  2  0  0  0  0
  7 13  1  0  0  0  0
  8  7  1  0  0  0  0
  9  4  1  0  0  0  0
  9  8  1  0  0  0  0
 10  9  2  0  0  0  0
 12 11  1  0  0  0  0
 14 21  1  0  0  0  0
 14 13  1  0  0  0  0
 15 14  1  0  0  0  0
 16 15  1  0  0  0  0
 16 17  1  0  0  0  0
 17 18  2  0  0  0  0
 17 19  1  0  0  0  0
 18 20  1  0  0  0  0
 19 23  2  0  0  0  0
 20 22  2  0  0  0  0
 21 18  1  0  0  0  0
 22 24  1  0  0  0  0
 23 22  1  0  0  0  0
M  END
>  <Pose>
1

>  <Score>
-6.719

$$$$
