/Users/jonathanwahrer/Desktop/Msc/3_Semester/Drug_Design_Praktikum/waehrer_HTS_screening/HTS_experiment/out/docking_results/vina_output/4agl/2020_docked.pdbqt
 OpenBabel03212200503D

 22 24  0  0  1  0  0  0  0  0999 V2000
   90.2180   98.0320  -43.9570 C   0  0  2  0  0  3  0  0  0  0  0  0
   90.7680   98.6590  -45.2680 C   0  0  2  0  0  3  0  0  0  0  0  0
   92.2600   98.3570  -45.0280 C   0  0  0  0  0  0  0  0  0  0  0  0
   92.9920   97.8520  -45.8590 O   0  0  0  0  0  0  0  0  0  0  0  0
   92.6510   98.7570  -43.6940 N   0  0  0  0  0  0  0  0  0  0  0  0
   91.7370   99.7300  -43.0690 C   0  0  1  0  0  0  0  0  0  0  0  0
   91.5190  100.7180  -44.1350 N   0  0  0  0  0  0  0  0  0  0  0  0
   90.7680  100.1540  -45.2290 C   0  0  0  0  0  0  0  0  0  0  0  0
   90.1670  100.8380  -46.0770 O   0  0  0  0  0  0  0  0  0  0  0  0
   90.3730   99.0040  -42.9130 C   0  0  0  0  0  2  0  0  0  0  0  0
   92.1950  100.3120  -41.8050 C   0  0  0  0  0  1  0  0  0  0  0  0
   93.4740   98.3930  -43.2070 H   0  0  0  0  0  0  0  0  0  0  0  0
   91.8680  101.6820  -44.0910 H   0  0  0  0  0  0  0  0  0  0  0  0
   90.8620   96.7240  -43.9320 C   0  0  0  0  0  0  0  0  0  0  0  0
   90.7460   95.9400  -45.0870 C   0  0  0  0  0  3  0  0  0  0  0  0
   91.2500   94.6380  -45.1320 C   0  0  0  0  0  0  0  0  0  0  0  0
   91.0630   93.6000  -46.7140 Br  0  0  0  0  0  0  0  0  0  0  0  0
   91.8730   94.0850  -44.0590 C   0  0  0  0  0  3  0  0  0  0  0  0
   91.9940   94.8360  -42.9240 C   0  0  0  0  0  3  0  0  0  0  0  0
   91.5020   96.1280  -42.8590 C   0  0  0  0  0  0  0  0  0  0  0  0
   91.6170   96.9090  -41.7440 O   0  0  0  0  0  0  0  0  0  0  0  0
   92.4300   96.4940  -40.6800 C   0  0  0  0  0  1  0  0  0  0  0  0
  1 14  1  1  0  0  0
  1 10  1  0  0  0  0
  2  8  1  1  0  0  0
  2  3  1  0  0  0  0
  2  1  1  0  0  0  0
  3  5  1  0  0  0  0
  4  3  2  0  0  0  0
  5 12  1  0  0  0  0
  5  6  1  0  0  0  0
  6 10  1  0  0  0  0
  6 11  1  1  0  0  0
  7 13  1  0  0  0  0
  7  6  1  0  0  0  0
  8  7  1  0  0  0  0
  9  8  2  0  0  0  0
 14 20  1  0  0  0  0
 15 14  2  0  0  0  0
 16 15  1  0  0  0  0
 16 18  2  0  0  0  0
 17 16  1  0  0  0  0
 18 19  1  0  0  0  0
 19 20  2  0  0  0  0
 20 21  1  0  0  0  0
 21 22  1  0  0  0  0
M  END
>  <Pose>
1

>  <Score>
-5.388

$$$$
