/Users/jonathanwahrer/Desktop/Msc/3_Semester/Drug_Design_Praktikum/waehrer_HTS_screening/HTS_experiment/out/docking_results/vina_output/4agl/2032_docked.pdbqt
 OpenBabel03212200503D

 31 34  0  0  0  0  0  0  0  0999 V2000
   91.3610   97.0980  -44.9270 C   0  0  0  0  0  3  0  0  0  0  0  0
   90.2590   97.7370  -45.1530 C   0  0  0  0  0  0  0  0  0  0  0  0
   88.9990   97.2100  -45.1790 O   0  0  0  0  0  0  0  0  0  0  0  0
   88.0850   98.2280  -45.4470 C   0  0  0  0  0  0  0  0  0  0  0  0
   88.6930   99.4320  -45.6090 C   0  0  0  0  0  0  0  0  0  0  0  0
   87.9490  100.5890  -45.8680 C   0  0  0  0  0  3  0  0  0  0  0  0
   86.5830  100.5700  -45.9740 C   0  0  0  0  0  3  0  0  0  0  0  0
   86.0010   99.3000  -45.8040 C   0  0  0  0  0  0  0  0  0  0  0  0
   86.6910   98.1650  -45.5480 C   0  0  0  0  0  0  0  0  0  0  0  0
   84.5970   99.3320  -45.9410 O   0  0  0  0  0  1  0  0  0  0  0  0
   90.1240   99.1690  -45.4270 C   0  0  0  0  0  0  0  0  0  0  0  0
   91.0570  100.0210  -45.4940 O   0  0  0  0  0  0  0  0  0  0  0  0
   91.5090   95.6760  -44.6510 C   0  0  0  0  0  0  0  0  0  0  0  0
   91.4580   94.7640  -45.6730 C   0  0  0  0  0  3  0  0  0  0  0  0
   91.5610   93.3860  -45.4110 C   0  0  0  0  0  0  0  0  0  0  0  0
   91.5030   92.0920  -46.7970 Br  0  0  0  0  0  0  0  0  0  0  0  0
   91.7130   92.9580  -44.1110 C   0  0  0  0  0  3  0  0  0  0  0  0
   91.7600   93.8600  -43.0970 C   0  0  0  0  0  3  0  0  0  0  0  0
   91.6590   95.2350  -43.3570 C   0  0  0  0  0  0  0  0  0  0  0  0
   91.6980   96.1800  -42.3910 O   0  0  0  0  0  0  0  0  0  0  0  0
   92.0670   96.0200  -41.0650 C   0  0  0  0  0  1  0  0  0  0  0  0
   86.0880   96.8250  -45.4200 C   0  0  0  0  0  2  0  0  0  0  0  0
   85.4240   96.4230  -46.6380 N   0  0  0  0  0  4  0  0  0  0  0  0
   84.2030   95.7120  -46.3040 C   0  0  0  0  0  2  0  0  0  0  0  0
   83.9040   94.5540  -47.1600 C   0  0  0  0  0  2  0  0  0  0  0  0
   84.3550   94.6350  -48.5120 N   0  0  0  0  0  0  0  0  0  0  0  0
   85.1980   95.6860  -48.8630 C   0  0  0  0  0  2  0  0  0  0  0  0
   86.1840   95.9760  -47.7010 C   0  0  0  0  0  2  0  0  0  0  0  0
   85.0270   97.4130  -46.9850 H   0  0  0  0  0  0  0  0  0  0  0  0
   84.4770   93.4160  -49.2180 C   0  0  0  0  0  2  0  0  0  0  0  0
   84.2160   92.1850  -48.4240 C   0  0  0  0  0  1  0  0  0  0  0  0
  1 13  1  0  0  0  0
  2  1  2  0  0  0  0
  3  2  1  0  0  0  0
  4  3  1  0  0  0  0
  5  4  2  0  0  0  0
  5 11  1  0  0  0  0
  6  5  1  0  0  0  0
  7  6  2  0  0  0  0
  7  8  1  0  0  0  0
  8  9  2  0  0  0  0
  9  4  1  0  0  0  0
  9 22  1  0  0  0  0
 10  8  1  0  0  0  0
 11  2  1  0  0  0  0
 12 11  2  0  0  0  0
 13 19  1  0  0  0  0
 14 15  1  0  0  0  0
 14 13  2  0  0  0  0
 15 17  2  0  0  0  0
 16 15  1  0  0  0  0
 17 18  1  0  0  0  0
 19 18  2  0  0  0  0
 19 20  1  0  0  0  0
 20 21  1  0  0  0  0
 23 24  1  0  0  0  0
 23 22  1  0  0  0  0
 25 24  1  0  0  0  0
 26 25  1  0  0  0  0
 27 26  1  0  0  0  0
 27 28  1  0  0  0  0
 28 23  1  0  0  0  0
 29 23  1  0  0  0  0
 30 26  1  0  0  0  0
 30 31  1  0  0  0  0
M  END
>  <Pose>
1

>  <Score>
-6.080

$$$$
