/Users/jonathanwahrer/Desktop/Msc/3_Semester/Drug_Design_Praktikum/waehrer_HTS_screening/HTS_experiment/out/docking_results/vina_output/4agl/2041_docked.pdbqt
 OpenBabel03212200513D

 30 33  0  0  0  0  0  0  0  0999 V2000
   89.9990   98.0530  -44.1980 N   0  0  0  0  0  0  0  0  0  0  0  0
   88.6200   98.0360  -44.6410 C   0  0  0  0  0  2  0  0  0  0  0  0
   87.8170   99.1120  -43.9210 C   0  0  0  0  0  2  0  0  0  0  0  0
   88.4170  100.4060  -44.2460 N   0  0  0  0  0  0  0  0  0  0  0  0
   89.6880  100.3360  -44.9030 C   0  0  0  0  0  2  0  0  0  0  0  0
   90.5520   99.3720  -44.1330 C   0  0  0  0  0  2  0  0  0  0  0  0
   87.7290  101.5790  -43.9200 C   0  0  0  0  0  0  0  0  0  0  0  0
   86.5710  101.4820  -43.3410 O   0  0  0  0  0  0  0  0  0  0  0  0
   88.1360  102.9690  -44.1460 C   0  0  0  0  0  2  0  0  0  0  0  0
   89.1290  103.6750  -42.8370 S   0  0  0  0  0  0  0  0  0  0  0  0
   90.8080  103.0740  -42.7880 C   0  0  0  0  0  0  0  0  0  0  0  0
   91.5660  103.0580  -43.8770 N   0  0  0  0  0  0  0  0  0  0  0  0
   92.8330  102.6360  -43.8890 C   0  0  0  0  0  3  0  0  0  0  0  0
   93.3790  102.1950  -42.7130 N   0  0  0  0  0  0  0  0  0  0  0  0
   92.6410  102.1990  -41.5980 C   0  0  0  0  0  0  0  0  0  0  0  0
   92.9420  101.8280  -40.3200 N   0  0  0  0  0  0  0  0  0  0  0  0
   91.3300  102.6360  -41.5900 C   0  0  0  0  0  0  0  0  0  0  0  0
   91.8780  102.0260  -39.5700 N   0  0  0  0  0  0  0  0  0  0  0  0
   94.2070  101.3210  -39.8740 C   0  0  0  0  0  1  0  0  0  0  0  0
   90.8760  102.5170  -40.3030 C   0  0  0  0  0  3  0  0  0  0  0  0
   90.9530   97.0320  -45.1990 S   0  0  0  0  0  0  0  0  0  0  0  0
   90.0550   96.5500  -46.3140 O   0  0  0  0  0  0  0  0  0  0  0  0
   92.0850   97.7650  -45.8360 O   0  0  0  0  0  0  0  0  0  0  0  0
   91.5330   95.6720  -44.2650 C   0  0  0  0  0  0  0  0  0  0  0  0
   91.9110   94.4640  -44.8070 C   0  0  0  0  0  3  0  0  0  0  0  0
   92.3500   93.4290  -44.0180 C   0  0  0  0  0  3  0  0  0  0  0  0
   92.4240   93.5870  -42.6350 C   0  0  0  0  0  0  0  0  0  0  0  0
   92.0420   94.8080  -42.0700 C   0  0  0  0  0  3  0  0  0  0  0  0
   92.9840   92.2640  -41.6460 Cl  0  0  0  0  0  0  0  0  0  0  0  0
   91.6060   95.8320  -42.8820 C   0  0  0  0  0  3  0  0  0  0  0  0
  1  6  1  0  0  0  0
  2  1  1  0  0  0  0
  2  3  1  0  0  0  0
  4  3  1  0  0  0  0
  4  7  1  0  0  0  0
  5  4  1  0  0  0  0
  5  6  1  0  0  0  0
  7  8  2  0  0  0  0
  9  7  1  0  0  0  0
  9 10  1  0  0  0  0
 10 11  1  0  0  0  0
 11 17  1  0  0  0  0
 12 11  2  0  0  0  0
 13 12  1  0  0  0  0
 13 14  2  0  0  0  0
 14 15  1  0  0  0  0
 15 17  2  0  0  0  0
 15 16  1  0  0  0  0
 16 19  1  0  0  0  0
 16 18  1  0  0  0  0
 17 20  1  0  0  0  0
 20 18  2  0  0  0  0
 21 24  1  0  0  0  0
 21  1  1  0  0  0  0
 22 21  2  0  0  0  0
 23 21  2  0  0  0  0
 24 30  1  0  0  0  0
 25 24  2  0  0  0  0
 25 26  1  0  0  0  0
 26 27  2  0  0  0  0
 27 28  1  0  0  0  0
 27 29  1  0  0  0  0
 30 28  2  0  0  0  0
M  END
>  <Pose>
1

>  <Score>
-5.767

$$$$
