/Users/jonathanwahrer/Desktop/Msc/3_Semester/Drug_Design_Praktikum/waehrer_HTS_screening/HTS_experiment/out/docking_results/vina_output/4agl/2043_docked.pdbqt
 OpenBabel03212200513D

 32 35  0  0  0  0  0  0  0  0999 V2000
   90.7390  102.1200  -41.8670 N   0  0  0  0  0  0  0  0  0  0  0  0
   89.7700  101.0590  -41.7420 C   0  0  0  0  0  2  0  0  0  0  0  0
   89.3030  100.6840  -43.1470 C   0  0  0  0  0  2  0  0  0  0  0  0
   90.4120  100.6640  -44.0240 N   0  0  0  0  0  0  0  0  0  0  0  0
   90.8510  102.0930  -44.3510 C   0  0  0  0  0  2  0  0  0  0  0  0
   90.7020  102.8500  -43.0800 C   0  0  0  0  0  2  0  0  0  0  0  0
   91.1480   99.6450  -44.5560 C   0  0  0  0  0  0  0  0  0  0  0  0
   92.0190  100.1480  -45.4970 O   0  0  0  0  0  0  0  0  0  0  0  0
   91.3170   98.2480  -44.4680 C   0  0  0  0  0  3  0  0  0  0  0  0
   91.4790   97.3050  -43.6010 C   0  0  0  0  0  0  0  0  0  0  0  0
   91.5490   97.5180  -42.2160 N   0  0  0  0  0  0  0  0  0  0  0  0
   91.5360   95.8840  -44.0580 C   0  0  0  0  0  0  0  0  0  0  0  0
   91.6650   96.4960  -41.2480 N   0  0  0  0  0  0  0  0  0  0  0  0
   91.5590   98.4660  -41.8310 H   0  0  0  0  0  0  0  0  0  0  0  0
   91.7180   95.1650  -41.6730 C   0  0  0  0  0  0  0  0  0  0  0  0
   91.7080   96.7820  -40.2250 H   0  0  0  0  0  0  0  0  0  0  0  0
   91.8220   94.2430  -40.8210 O   0  0  0  0  0  0  0  0  0  0  0  0
   91.6500   94.8780  -43.1170 C   0  0  0  0  0  0  0  0  0  0  0  0
   91.7080   93.5420  -43.4740 C   0  0  0  0  0  3  0  0  0  0  0  0
   91.6510   93.1800  -44.8030 C   0  0  0  0  0  3  0  0  0  0  0  0
   91.5360   94.1820  -45.7320 C   0  0  0  0  0  3  0  0  0  0  0  0
   91.4790   95.5310  -45.3680 C   0  0  0  0  0  3  0  0  0  0  0  0
   92.2470  101.8050  -41.1990 S   0  0  0  0  0  0  0  0  0  0  0  0
   92.4910  100.3040  -41.2890 O   0  0  0  0  0  0  0  0  0  0  0  0
   93.3070  102.4200  -42.1050 O   0  0  0  0  0  0  0  0  0  0  0  0
   92.5020  102.4030  -39.6070 C   0  0  0  0  0  0  0  0  0  0  0  0
   91.4790  102.9540  -38.8770 C   0  0  0  0  0  3  0  0  0  0  0  0
   91.7080  103.4280  -37.5980 C   0  0  0  0  0  3  0  0  0  0  0  0
   92.9520  103.3710  -37.0110 C   0  0  0  0  0  0  0  0  0  0  0  0
   93.9890  102.8160  -37.7430 C   0  0  0  0  0  3  0  0  0  0  0  0
   93.1900  103.9870  -35.3880 Cl  0  0  0  0  0  0  0  0  0  0  0  0
   93.7450  102.3410  -39.0300 C   0  0  0  0  0  3  0  0  0  0  0  0
  1  2  1  0  0  0  0
  1 23  1  0  0  0  0
  3  2  1  0  0  0  0
  4  3  1  0  0  0  0
  5  4  1  0  0  0  0
  5  6  1  0  0  0  0
  6  1  1  0  0  0  0
  7  9  1  0  0  0  0
  7  4  1  0  0  0  0
  8  7  2  0  0  0  0
  9 10  2  0  0  0  0
 10 11  1  0  0  0  0
 11 14  1  0  0  0  0
 11 13  1  0  0  0  0
 12 10  1  0  0  0  0
 12 18  1  0  0  0  0
 13 16  1  0  0  0  0
 15 13  1  0  0  0  0
 15 17  2  0  0  0  0
 18 15  1  0  0  0  0
 19 18  2  0  0  0  0
 20 19  1  0  0  0  0
 21 22  1  0  0  0  0
 21 20  2  0  0  0  0
 22 12  2  0  0  0  0
 23 26  1  0  0  0  0
 24 23  2  0  0  0  0
 25 23  2  0  0  0  0
 26 32  2  0  0  0  0
 26 27  1  0  0  0  0
 27 28  2  0  0  0  0
 28 29  1  0  0  0  0
 29 31  1  0  0  0  0
 30 29  2  0  0  0  0
 32 30  1  0  0  0  0
M  END
>  <Pose>
1

>  <Score>
-8.060

$$$$
