/Users/jonathanwahrer/Desktop/Msc/3_Semester/Drug_Design_Praktikum/waehrer_HTS_screening/HTS_experiment/out/docking_results/vina_output/4agl/2046_docked.pdbqt
 OpenBabel03212200513D

 26 29  0  0  0  0  0  0  0  0999 V2000
   94.2880  103.3370  -42.5480 Cl  0  0  0  0  0  0  0  0  0  0  0  0
   93.2980  101.9120  -42.4830 C   0  0  0  0  0  0  0  0  0  0  0  0
   92.9690  101.3300  -41.2850 C   0  0  0  0  0  0  0  0  0  0  0  0
   92.1810  100.2010  -41.2990 C   0  0  0  0  0  3  0  0  0  0  0  0
   91.7030   99.6250  -42.4560 C   0  0  0  0  0  0  0  0  0  0  0  0
   92.0430  100.2220  -43.6490 C   0  0  0  0  0  3  0  0  0  0  0  0
   92.8320  101.3520  -43.6450 C   0  0  0  0  0  3  0  0  0  0  0  0
   90.8740   98.4360  -42.4400 N   0  0  0  0  0  0  0  0  0  0  0  0
   89.9290   98.4510  -42.0440 H   0  0  0  0  0  0  0  0  0  0  0  0
   91.4430   97.2600  -43.0020 C   0  0  0  0  0  2  0  0  0  0  0  0
   91.9010   96.2100  -42.0980 C   0  0  0  0  0  0  0  0  0  0  0  0
   92.4440   96.6910  -41.0070 O   0  0  0  0  0  0  0  0  0  0  0  0
   91.8670   94.8400  -42.1820 N   0  0  0  0  0  0  0  0  0  0  0  0
   91.2450   94.0700  -43.2110 C   0  0  0  0  0  2  0  0  0  0  0  0
   92.5540   94.0240  -41.1580 C   0  0  0  0  0  2  0  0  0  0  0  0
   92.3090   93.1920  -43.8650 C   0  0  0  0  0  2  0  0  0  0  0  0
   92.7350   92.3220  -42.8380 O   0  0  0  0  0  0  0  0  0  0  0  0
   93.4610   93.0540  -41.9240 C   0  0  0  0  0  2  0  0  0  0  0  0
   93.4140  101.8360  -40.0510 N   0  0  0  0  0  0  0  0  0  0  0  0
   94.6320  101.6820  -39.5750 N   0  0  0  0  0  0  0  0  0  0  0  0
   94.7410  102.2800  -38.4040 N   0  0  0  0  0  0  0  0  0  0  0  0
   93.5640  102.8150  -38.1490 N   0  0  0  0  0  0  0  0  0  0  0  0
   92.7090  102.5470  -39.1810 C   0  0  0  0  0  0  0  0  0  0  0  0
   91.3190  103.0010  -39.1880 C   0  0  0  0  0  3  0  0  0  0  0  0
   90.7840  104.1160  -38.4160 C   0  0  0  0  0  2  0  0  0  0  0  0
   91.0840  104.3630  -39.9040 C   0  0  0  0  0  2  0  0  0  0  0  0
  1  2  1  0  0  0  0
  2  3  1  0  0  0  0
  3 19  1  0  0  0  0
  4  3  2  0  0  0  0
  5  8  1  0  0  0  0
  5  4  1  0  0  0  0
  6  7  1  0  0  0  0
  6  5  2  0  0  0  0
  7  2  2  0  0  0  0
  8  9  1  0  0  0  0
 10  8  1  0  0  0  0
 10 11  1  0  0  0  0
 11 12  2  0  0  0  0
 13 11  1  0  0  0  0
 13 15  1  0  0  0  0
 14 13  1  0  0  0  0
 16 14  1  0  0  0  0
 16 17  1  0  0  0  0
 17 18  1  0  0  0  0
 18 15  1  0  0  0  0
 19 20  1  0  0  0  0
 19 23  1  0  0  0  0
 20 21  2  0  0  0  0
 21 22  1  0  0  0  0
 23 22  2  0  0  0  0
 24 23  1  0  0  0  0
 24 25  1  0  0  0  0
 26 24  1  0  0  0  0
 26 25  1  0  0  0  0
M  END
>  <Pose>
1

>  <Score>
-5.997

$$$$
