/Users/jonathanwahrer/Desktop/Msc/3_Semester/Drug_Design_Praktikum/waehrer_HTS_screening/HTS_experiment/out/docking_results/vina_output/4agl/2072_docked.pdbqt
 OpenBabel03212200523D

 27 30  0  0  0  0  0  0  0  0999 V2000
   87.3840  100.9520  -43.9470 N   0  0  0  0  0  0  0  0  0  0  0  0
   88.3260  101.4000  -44.9060 C   0  0  0  0  0  2  0  0  0  0  0  0
   89.7830  101.2350  -44.5790 C   0  0  0  0  0  2  0  0  0  0  0  0
   89.9550  100.0630  -43.7860 N   0  0  0  0  0  0  0  0  0  0  0  0
   89.2850  100.3330  -42.5150 C   0  0  0  0  0  2  0  0  0  0  0  0
   87.8220  100.3570  -42.7540 C   0  0  0  0  0  2  0  0  0  0  0  0
   91.3040   99.6590  -43.5830 C   0  0  0  0  0  2  0  0  0  0  0  0
   91.4420   98.7330  -42.4240 C   0  0  0  0  0  2  0  0  0  0  0  0
   91.5240   97.3460  -42.8310 N   0  0  0  0  0  0  0  0  0  0  0  0
   91.3280   96.8500  -44.0520 N   0  0  0  0  0  0  0  0  0  0  0  0
   91.5030   95.5210  -44.0500 C   0  0  0  0  0  0  0  0  0  0  0  0
   91.8160   95.1660  -42.7980 N   0  0  0  0  0  0  0  0  0  0  0  0
   91.4310   94.5220  -45.0030 C   0  0  0  0  0  3  0  0  0  0  0  0
   92.0540   93.8720  -42.4730 C   0  0  0  0  0  3  0  0  0  0  0  0
   91.8250   96.3080  -42.0500 C   0  0  0  0  0  0  0  0  0  0  0  0
   91.9880   92.8600  -43.4030 C   0  0  0  0  0  3  0  0  0  0  0  0
   91.6670   93.1980  -44.7030 C   0  0  0  0  0  3  0  0  0  0  0  0
   92.0870   96.2850  -40.8240 O   0  0  0  0  0  0  0  0  0  0  0  0
   86.2260   99.9360  -44.7190 S   0  0  0  0  0  0  0  0  0  0  0  0
   85.3700   99.2910  -43.6530 O   0  0  0  0  0  0  0  0  0  0  0  0
   85.3310  100.7030  -45.6180 O   0  0  0  0  0  0  0  0  0  0  0  0
   87.0460   98.7030  -45.6880 C   0  0  0  0  0  0  0  0  0  0  0  0
   87.0220   98.4630  -47.3760 S   0  0  0  0  0  0  0  0  0  0  0  0
   88.0450   97.1060  -47.4760 C   0  0  0  0  0  0  0  0  0  0  0  0
   88.3830   96.8750  -46.1690 C   0  0  0  0  0  3  0  0  0  0  0  0
   88.6120   96.1140  -49.0280 Br  0  0  0  0  0  0  0  0  0  0  0  0
   87.8680   97.6980  -45.2480 C   0  0  0  0  0  3  0  0  0  0  0  0
  1  6  1  0  0  0  0
  2  3  1  0  0  0  0
  2  1  1  0  0  0  0
  3  4  1  0  0  0  0
  4  7  1  0  0  0  0
  4  5  1  0  0  0  0
  6  5  1  0  0  0  0
  7  8  1  0  0  0  0
  9  8  1  0  0  0  0
  9 15  1  0  0  0  0
 10 11  2  0  0  0  0
 10  9  1  0  0  0  0
 11 12  1  0  0  0  0
 12 14  1  0  0  0  0
 12 15  1  0  0  0  0
 13 17  2  0  0  0  0
 13 11  1  0  0  0  0
 15 18  2  0  0  0  0
 16 14  2  0  0  0  0
 17 16  1  0  0  0  0
 19  1  1  0  0  0  0
 19 20  2  0  0  0  0
 21 19  2  0  0  0  0
 22 27  2  0  0  0  0
 22 19  1  0  0  0  0
 23 22  1  0  0  0  0
 24 23  1  0  0  0  0
 24 25  2  0  0  0  0
 25 27  1  0  0  0  0
 26 24  1  0  0  0  0
M  END
>  <Pose>
1

>  <Score>
-5.700

$$$$
