/Users/jonathanwahrer/Desktop/Msc/3_Semester/Drug_Design_Praktikum/waehrer_HTS_screening/HTS_experiment/out/docking_results/vina_output/4agl/2087_docked.pdbqt
 OpenBabel03212200533D

 32 35  0  0  0  0  0  0  0  0999 V2000
   90.7910   98.0230  -44.6110 N   0  0  0  0  0  0  0  0  0  0  0  0
   91.1020   96.7320  -44.2600 C   0  0  0  0  0  0  0  0  0  0  0  0
   91.4710   96.6920  -42.9300 C   0  0  0  0  0  0  0  0  0  0  0  0
   91.3790   97.9540  -42.5010 N   0  0  0  0  0  0  0  0  0  0  0  0
   90.9680   98.7710  -43.5220 C   0  0  0  0  0  0  0  0  0  0  0  0
   91.8310   95.5340  -42.3440 N   0  0  0  0  0  0  0  0  0  0  0  0
   91.8250   94.4180  -43.0880 C   0  0  0  0  0  0  0  0  0  0  0  0
   92.1630   93.3440  -42.5310 O   0  0  0  0  0  0  0  0  0  0  0  0
   91.4770   94.4180  -44.3790 N   0  0  0  0  0  0  0  0  0  0  0  0
   91.1040   95.5730  -45.0070 C   0  0  0  0  0  0  0  0  0  0  0  0
   90.7860   95.5390  -46.2200 O   0  0  0  0  0  0  0  0  0  0  0  0
   92.2050   95.5350  -40.9420 C   0  0  0  0  0  1  0  0  0  0  0  0
   91.4800   93.5330  -44.9480 H   0  0  0  0  0  0  0  0  0  0  0  0
   90.8840  100.1640  -43.3640 N   0  0  0  0  0  0  0  0  0  0  0  0
   91.7870  101.1830  -43.7620 C   0  0  0  0  0  2  0  0  0  0  0  0
   91.7010  102.4190  -42.8600 C   0  0  0  0  0  2  0  0  0  0  0  0
   91.2120  102.1930  -41.5630 N   0  0  0  0  0  0  0  0  0  0  0  0
   90.0430  101.4160  -41.4350 C   0  0  0  0  0  2  0  0  0  0  0  0
   89.6570  100.6790  -42.6970 C   0  0  0  0  0  2  0  0  0  0  0  0
   92.0580  102.3420  -40.4510 C   0  0  0  0  0  2  0  0  0  0  0  0
   93.1640  101.3840  -40.3060 C   0  0  0  0  0  0  0  0  0  0  0  0
   92.9830  100.1380  -40.2670 O   0  0  0  0  0  0  0  0  0  0  0  0
   94.4590  101.8430  -40.2050 O   0  0  0  0  0  0  0  0  0  0  0  0
   95.0800  102.5830  -41.2200 C   0  0  0  0  0  1  0  0  0  0  0  0
   90.3370   98.4130  -45.9210 C   0  0  0  0  0  2  0  0  0  0  0  0
   88.8540   98.7380  -45.9140 C   0  0  0  0  0  0  0  0  0  0  0  0
   87.9950   97.7110  -45.6580 C   0  0  0  0  0  3  0  0  0  0  0  0
   86.6250   97.9720  -45.6080 C   0  0  0  0  0  3  0  0  0  0  0  0
   86.1520   99.2490  -45.8150 C   0  0  0  0  0  0  0  0  0  0  0  0
   84.2850   99.6300  -45.7510 Br  0  0  0  0  0  0  0  0  0  0  0  0
   87.0550  100.2670  -46.0740 C   0  0  0  0  0  3  0  0  0  0  0  0
   88.4030  100.0090  -46.1220 C   0  0  0  0  0  3  0  0  0  0  0  0
  1  2  1  0  0  0  0
  1  5  1  0  0  0  0
  2  3  2  0  0  0  0
  3  4  1  0  0  0  0
  3  6  1  0  0  0  0
  5 14  1  0  0  0  0
  5  4  2  0  0  0  0
  6 12  1  0  0  0  0
  7  8  2  0  0  0  0
  7  6  1  0  0  0  0
  9  7  1  0  0  0  0
 10  9  1  0  0  0  0
 10  2  1  0  0  0  0
 11 10  2  0  0  0  0
 13  9  1  0  0  0  0
 14 19  1  0  0  0  0
 15 14  1  0  0  0  0
 15 16  1  0  0  0  0
 16 17  1  0  0  0  0
 17 18  1  0  0  0  0
 17 20  1  0  0  0  0
 19 18  1  0  0  0  0
 20 21  1  0  0  0  0
 21 22  2  0  0  0  0
 21 23  1  0  0  0  0
 24 23  1  0  0  0  0
 25 26  1  0  0  0  0
 25  1  1  0  0  0  0
 26 27  1  0  0  0  0
 27 28  2  0  0  0  0
 29 30  1  0  0  0  0
 29 28  1  0  0  0  0
 31 29  2  0  0  0  0
 32 31  1  0  0  0  0
 32 26  2  0  0  0  0
M  END
>  <Pose>
1

>  <Score>
-5.990

$$$$
