/Users/jonathanwahrer/Desktop/Msc/3_Semester/Drug_Design_Praktikum/waehrer_HTS_screening/HTS_experiment/out/docking_results/vina_output/4agl/2105_docked.pdbqt
 OpenBabel03212200533D

 29 32  0  0  1  0  0  0  0  0999 V2000
   88.7240  100.1660  -48.0070 Cl  0  0  0  0  0  0  0  0  0  0  0  0
   88.6790   99.3300  -46.4690 C   0  0  0  0  0  0  0  0  0  0  0  0
   89.8480   98.8250  -45.9010 C   0  0  0  0  0  0  0  0  0  0  0  0
   89.8550   98.1670  -44.7060 C   0  0  0  0  0  0  0  0  0  0  0  0
   88.6290   98.0230  -44.0720 C   0  0  0  0  0  3  0  0  0  0  0  0
   87.4640   98.5160  -44.6160 C   0  0  0  0  0  3  0  0  0  0  0  0
   87.4770   99.1760  -45.8240 C   0  0  0  0  0  3  0  0  0  0  0  0
   91.2400   97.7630  -44.3880 C   0  0  2  0  0  0  0  0  0  0  0  0
   91.3430   96.2600  -44.3250 C   0  0  0  0  0  0  0  0  0  0  0  0
   91.7910   95.6120  -43.2860 C   0  0  0  0  0  0  0  0  0  0  0  0
   92.2250   96.2900  -42.1090 N   0  0  0  0  0  0  0  0  0  0  0  0
   92.1620   97.7050  -42.0830 C   0  0  0  0  0  0  0  0  0  0  0  0
   91.7120   98.3670  -43.1240 C   0  0  0  0  0  0  0  0  0  0  0  0
   91.6640   99.8210  -43.0550 C   0  0  0  0  0  0  0  0  0  0  0  0
   91.6160  100.9760  -43.0150 N   0  0  0  0  0  0  0  0  0  0  0  0
   91.7530   94.1640  -43.5720 C   0  0  0  0  0  0  0  0  0  0  0  0
   91.2510   94.0460  -44.8450 O   0  0  0  0  0  0  0  0  0  0  0  0
   90.9830   95.2950  -45.3570 C   0  0  0  0  0  0  0  0  0  0  0  0
   90.5080   95.5880  -46.5090 O   0  0  0  0  0  0  0  0  0  0  0  0
   90.9250   93.4740  -42.5110 C   0  0  0  0  0  1  0  0  0  0  0  0
   93.1390   93.5450  -43.5420 C   0  0  0  0  0  1  0  0  0  0  0  0
   92.0410   98.2580  -45.5330 C   0  0  0  0  0  0  0  0  0  0  0  0
   93.3080   98.1330  -45.6900 O   0  0  0  0  0  0  0  0  0  0  0  0
   91.1610   98.8960  -46.4310 N   0  0  0  0  0  0  0  0  0  0  0  0
   92.5840   95.7790  -41.2740 H   0  0  0  0  0  0  0  0  0  0  0  0
   91.4730   99.3470  -47.3450 H   0  0  0  0  0  0  0  0  0  0  0  0
   92.5790   98.4550  -40.9380 N   0  0  0  0  0  0  0  0  0  0  0  0
   93.2360   99.2410  -41.0350 H   0  0  0  0  0  0  0  0  0  0  0  0
   92.2080   98.1900  -40.0180 H   0  0  0  0  0  0  0  0  0  0  0  0
  1  2  1  0  0  0  0
  2  3  2  0  0  0  0
  2  7  1  0  0  0  0
  3  4  1  0  0  0  0
  4  8  1  0  0  0  0
  4  5  2  0  0  0  0
  6  5  1  0  0  0  0
  7  6  2  0  0  0  0
  8 22  1  6  0  0  0
  8  9  1  0  0  0  0
  8 13  1  0  0  0  0
  9 10  2  0  0  0  0
 10 11  1  0  0  0  0
 11 12  1  0  0  0  0
 11 25  1  0  0  0  0
 12 27  1  0  0  0  0
 13 14  1  0  0  0  0
 13 12  2  0  0  0  0
 14 15  3  0  0  0  0
 16 21  1  0  0  0  0
 16 10  1  0  0  0  0
 16 20  1  0  0  0  0
 17 16  1  0  0  0  0
 18 17  1  0  0  0  0
 18  9  1  0  0  0  0
 19 18  2  0  0  0  0
 23 22  2  0  0  0  0
 24  3  1  0  0  0  0
 24 22  1  0  0  0  0
 26 24  1  0  0  0  0
 27 29  1  0  0  0  0
 28 27  1  0  0  0  0
M  END
>  <Pose>
1

>  <Score>
-6.416

$$$$
