/Users/jonathanwahrer/Desktop/Msc/3_Semester/Drug_Design_Praktikum/waehrer_HTS_screening/HTS_experiment/out/docking_results/vina_output/4agl/2109_docked.pdbqt
 OpenBabel03212200533D

 21 24  0  0  1  0  0  0  0  0999 V2000
   91.7550   96.7410  -44.1830 N   0  0  0  0  0  0  0  0  0  0  0  0
   92.2090   97.9500  -44.8100 C   0  0  0  0  0  0  0  0  0  0  0  0
   92.6120   98.0650  -45.9950 O   0  0  0  0  0  0  0  0  0  0  0  0
   92.1410   99.0730  -43.8480 C   0  0  1  0  0  3  0  0  0  0  0  0
   91.4660  100.1750  -44.3610 O   0  0  0  0  0  0  0  0  0  0  0  0
   90.1970   99.8380  -44.5280 N   0  0  1  0  0  0  0  0  0  0  0  0
   89.8370   98.7850  -43.6860 C   0  0  1  0  0  3  0  0  0  0  0  0
   91.1040   98.5410  -42.8650 C   0  0  1  0  0  3  0  0  0  0  0  0
   91.4570   97.1020  -42.8350 C   0  0  0  0  0  0  0  0  0  0  0  0
   91.5030   96.3000  -41.8540 O   0  0  0  0  0  0  0  0  0  0  0  0
   88.6310   98.9040  -42.8540 C   0  0  0  0  0  2  0  0  0  0  0  0
   87.8050  100.1210  -42.9970 C   0  0  0  0  0  2  0  0  0  0  0  0
   87.8620  100.5830  -44.4370 C   0  0  0  0  0  2  0  0  0  0  0  0
   89.3050  100.9050  -44.7250 C   0  0  0  0  0  2  0  0  0  0  0  0
   91.6220   95.4430  -44.7650 C   0  0  0  0  0  0  0  0  0  0  0  0
   92.2100   94.3140  -44.2370 C   0  0  0  0  0  3  0  0  0  0  0  0
   92.0750   93.0600  -44.8080 C   0  0  0  0  0  3  0  0  0  0  0  0
   91.3270   92.8960  -45.9550 C   0  0  0  0  0  0  0  0  0  0  0  0
   91.1490   91.3110  -46.6880 Cl  0  0  0  0  0  0  0  0  0  0  0  0
   90.7350   94.0190  -46.4930 C   0  0  0  0  0  3  0  0  0  0  0  0
   90.8720   95.2680  -45.9190 C   0  0  0  0  0  3  0  0  0  0  0  0
  1  9  1  0  0  0  0
  2  1  1  0  0  0  0
  3  2  2  0  0  0  0
  4  2  1  6  0  0  0
  4  8  1  0  0  0  0
  5  4  1  0  0  0  0
  6 14  1  1  0  0  0
  6  5  1  0  0  0  0
  6  7  1  0  0  0  0
  7  8  1  0  0  0  0
  7 11  1  1  0  0  0
  8  9  1  6  0  0  0
  9 10  2  0  0  0  0
 12 11  1  0  0  0  0
 13 12  1  0  0  0  0
 14 13  1  0  0  0  0
 15 16  1  0  0  0  0
 15  1  1  0  0  0  0
 17 16  2  0  0  0  0
 18 17  1  0  0  0  0
 19 18  1  0  0  0  0
 20 18  2  0  0  0  0
 20 21  1  0  0  0  0
 21 15  2  0  0  0  0
M  END
>  <Pose>
1

>  <Score>
-6.822

$$$$
