/Users/jonathanwahrer/Desktop/Msc/3_Semester/Drug_Design_Praktikum/waehrer_HTS_screening/HTS_experiment/out/docking_results/vina_output/4agl/2121_docked.pdbqt
 OpenBabel03212200543D

 31 34  0  0  1  0  0  0  0  0999 V2000
   90.1570   98.4010  -45.6070 C   0  0  0  0  0  0  0  0  0  0  0  0
   89.8720   98.6860  -46.8850 O   0  0  0  0  0  0  0  0  0  0  0  0
   89.9930   99.4780  -44.7620 N   0  0  0  0  0  0  0  0  0  0  0  0
   89.4940  100.6740  -45.4960 C   0  0  0  0  0  2  0  0  0  0  0  0
   87.9770  100.6620  -45.4850 C   0  0  0  0  0  2  0  0  0  0  0  0
   87.5380   99.8170  -44.3510 C   0  0  1  0  0  3  0  0  0  0  0  0
   88.0520  100.3450  -43.0510 C   0  0  2  0  0  3  0  0  0  0  0  0
   89.0150   99.2730  -42.5100 C   0  0  0  0  0  2  0  0  0  0  0  0
   90.2810   99.4540  -43.3690 C   0  0  0  0  0  2  0  0  0  0  0  0
   90.5680   97.0380  -45.4130 C   0  0  0  0  0  0  0  0  0  0  0  0
   91.2450   96.4690  -44.4130 N   0  0  0  0  0  0  0  0  0  0  0  0
   91.4500   95.1390  -44.6570 C   0  0  0  0  0  0  0  0  0  0  0  0
   91.5810   96.8990  -43.5420 H   0  0  0  0  0  0  0  0  0  0  0  0
   90.8830   94.8630  -45.8530 C   0  0  0  0  0  0  0  0  0  0  0  0
   92.0800   94.1460  -43.9570 C   0  0  0  0  0  3  0  0  0  0  0  0
   90.9120   93.5830  -46.4180 C   0  0  0  0  0  3  0  0  0  0  0  0
   90.3270   96.0280  -46.3430 C   0  0  0  0  0  3  0  0  0  0  0  0
   91.5410   92.6090  -45.7110 C   0  0  0  0  0  0  0  0  0  0  0  0
   91.6000   90.9820  -46.3930 Cl  0  0  0  0  0  0  0  0  0  0  0  0
   92.1270   92.8660  -44.4890 C   0  0  0  0  0  3  0  0  0  0  0  0
   86.1490   99.5010  -44.2440 N   0  0  0  0  0  0  0  0  0  0  0  0
   85.8550   98.1020  -44.0650 C   0  0  0  0  0  2  0  0  0  0  0  0
   86.2640   97.2940  -45.2380 C   0  0  0  0  0  2  0  0  0  0  0  0
   85.5920   97.8810  -46.4030 N   0  0  0  0  0  0  0  0  0  0  0  0
   84.7300   99.0020  -46.1300 C   0  0  0  0  0  2  0  0  0  0  0  0
   85.7970   97.3230  -47.7010 C   0  0  0  0  0  0  0  0  0  0  0  0
   85.3430  100.0790  -45.2860 C   0  0  0  0  0  2  0  0  0  0  0  0
   85.2360   97.8340  -48.6790 O   0  0  0  0  0  0  0  0  0  0  0  0
   86.6910   96.1290  -47.8300 C   0  0  0  0  0  1  0  0  0  0  0  0
   87.0550  100.6390  -42.1240 O   0  0  0  0  0  0  0  0  0  0  0  0
   87.3320  101.5130  -41.6970 H   0  0  0  0  0  0  0  0  0  0  0  0
  1 10  1  0  0  0  0
  1  3  1  0  0  0  0
  2  1  2  0  0  0  0
  3  9  1  0  0  0  0
  4  5  1  0  0  0  0
  4  3  1  0  0  0  0
  6  5  1  6  0  0  0
  6 21  1  0  0  0  0
  6  7  1  0  0  0  0
  7  8  1  0  0  0  0
  7 30  1  1  0  0  0
  9  8  1  0  0  0  0
 10 11  1  0  0  0  0
 11 13  1  0  0  0  0
 12 11  1  0  0  0  0
 12 15  1  0  0  0  0
 14 12  2  0  0  0  0
 16 14  1  0  0  0  0
 16 18  2  0  0  0  0
 17 14  1  0  0  0  0
 17 10  2  0  0  0  0
 18 20  1  0  0  0  0
 19 18  1  0  0  0  0
 20 15  2  0  0  0  0
 21 22  1  0  0  0  0
 23 22  1  0  0  0  0
 24 25  1  0  0  0  0
 24 23  1  0  0  0  0
 25 27  1  0  0  0  0
 26 24  1  0  0  0  0
 27 21  1  0  0  0  0
 28 26  2  0  0  0  0
 29 26  1  0  0  0  0
 30 31  1  0  0  0  0
M  END
>  <Pose>
1

>  <Score>
-7.124

$$$$
