/Users/jonathanwahrer/Desktop/Msc/3_Semester/Drug_Design_Praktikum/waehrer_HTS_screening/HTS_experiment/out/docking_results/vina_output/4agl/2122_docked.pdbqt
 OpenBabel03212200543D

 29 32  0  0  0  0  0  0  0  0999 V2000
   89.8340   97.6290  -45.7560 C   0  0  0  0  0  0  0  0  0  0  0  0
   89.5380   97.4150  -47.0500 N   0  0  0  0  0  0  0  0  0  0  0  0
   88.2530   97.2680  -47.2060 O   0  0  0  0  0  0  0  0  0  0  0  0
   87.7020   97.3840  -46.0150 C   0  0  0  0  0  0  0  0  0  0  0  0
   88.6600   97.6050  -45.1110 N   0  0  0  0  0  0  0  0  0  0  0  0
   91.1980   97.8710  -45.2130 C   0  0  0  0  0  2  0  0  0  0  0  0
   91.4260   97.0600  -44.0520 N   0  0  0  0  0  0  0  0  0  0  0  0
   91.5770   95.7370  -43.9390 C   0  0  0  0  0  0  0  0  0  0  0  0
   91.5680   94.7120  -44.8740 C   0  0  0  0  0  3  0  0  0  0  0  0
   91.7800   95.4070  -42.5970 C   0  0  0  0  0  0  0  0  0  0  0  0
   91.7610   93.4080  -44.4280 C   0  0  0  0  0  0  0  0  0  0  0  0
   91.7490   92.1050  -45.6060 Cl  0  0  0  0  0  0  0  0  0  0  0  0
   91.9600   93.1160  -43.0900 C   0  0  0  0  0  3  0  0  0  0  0  0
   91.9680   94.1230  -42.1760 C   0  0  0  0  0  3  0  0  0  0  0  0
   91.7390   96.5480  -41.9790 O   0  0  0  0  0  0  0  0  0  0  0  0
   91.5340   97.5440  -42.8020 C   0  0  0  0  0  0  0  0  0  0  0  0
   91.4560   98.7480  -42.4380 O   0  0  0  0  0  0  0  0  0  0  0  0
   86.2170   97.2700  -45.8250 C   0  0  0  0  0  0  0  0  0  0  0  0
   85.7160   96.4550  -46.6760 O   0  0  0  0  0  0  0  0  0  0  0  0
   85.5970   97.9720  -44.8590 N   0  0  0  0  0  0  0  0  0  0  0  0
   84.4110   97.3730  -45.1970 H   0  0  0  0  0  0  0  0  0  0  0  0
   84.9450   98.6850  -43.8710 C   0  0  0  0  0  2  0  0  0  0  0  0
   85.4530  100.1250  -43.7230 C   0  0  0  0  0  2  0  0  0  0  0  0
   86.8270  100.3010  -43.9790 N   0  0  0  0  0  0  0  0  0  0  0  0
   87.5740  100.3190  -42.7830 C   0  0  0  0  0  2  0  0  0  0  0  0
   88.8470  101.0890  -42.8940 C   0  0  0  0  0  2  0  0  0  0  0  0
   89.4310  100.8150  -44.1040 O   0  0  0  0  0  0  0  0  0  0  0  0
   88.7180  101.2850  -45.1910 C   0  0  0  0  0  2  0  0  0  0  0  0
   87.2350  101.1020  -45.0590 C   0  0  0  0  0  2  0  0  0  0  0  0
  1  6  1  0  0  0  0
  1  5  1  0  0  0  0
  2  1  2  0  0  0  0
  3  2  1  0  0  0  0
  3  4  1  0  0  0  0
  4 18  1  0  0  0  0
  4  5  2  0  0  0  0
  6  7  1  0  0  0  0
  7  8  1  0  0  0  0
  7 16  1  0  0  0  0
  8 10  1  0  0  0  0
  9 11  1  0  0  0  0
  9  8  2  0  0  0  0
 10 14  2  0  0  0  0
 10 15  1  0  0  0  0
 11 13  2  0  0  0  0
 12 11  1  0  0  0  0
 13 14  1  0  0  0  0
 16 17  2  0  0  0  0
 16 15  1  0  0  0  0
 18 20  1  0  0  0  0
 19 18  2  0  0  0  0
 20 22  1  0  0  0  0
 21 20  1  0  0  0  0
 22 23  1  0  0  0  0
 24 23  1  0  0  0  0
 24 25  1  0  0  0  0
 26 25  1  0  0  0  0
 27 26  1  0  0  0  0
 28 29  1  0  0  0  0
 28 27  1  0  0  0  0
 29 24  1  0  0  0  0
M  END
>  <Pose>
1

>  <Score>
-5.814

$$$$
