/Users/jonathanwahrer/Desktop/Msc/3_Semester/Drug_Design_Praktikum/waehrer_HTS_screening/HTS_experiment/out/docking_results/vina_output/4agl/2134_docked.pdbqt
 OpenBabel03212200553D

 36 39  0  0  0  0  0  0  0  0999 V2000
   90.8930   96.1490  -44.6280 C   0  0  0  0  0  0  0  0  0  0  0  0
   90.6650   97.4240  -44.4270 N   0  0  0  0  0  0  0  0  0  0  0  0
   91.0740   97.8430  -43.1870 N   0  0  0  0  0  0  0  0  0  0  0  0
   91.6230   96.6890  -42.5490 C   0  0  0  0  0  0  0  0  0  0  0  0
   92.1570   96.4970  -41.3790 N   0  0  0  0  0  0  0  0  0  0  0  0
   92.6350   95.2230  -40.9740 N   0  0  0  0  0  0  0  0  0  0  0  0
   92.5590   94.0970  -41.8140 C   0  0  0  0  0  0  0  0  0  0  0  0
   92.9930   92.8990  -41.4460 C   0  0  0  0  0  2  0  0  0  0  0  0
   91.9650   94.2920  -43.1320 C   0  0  0  0  0  0  0  0  0  0  0  0
   91.8880   93.3170  -43.8860 O   0  0  0  0  0  0  0  0  0  0  0  0
   91.5080   95.6030  -43.4670 N   0  0  0  0  0  0  0  0  0  0  0  0
   93.0460   95.1780  -40.0140 H   0  0  0  0  0  0  0  0  0  0  0  0
   90.5630   95.4350  -45.8460 C   0  0  0  0  0  0  0  0  0  0  0  0
   91.1170   94.1520  -46.0720 N   0  0  0  0  0  0  0  0  0  0  0  0
   91.7300   93.6810  -45.3910 H   0  0  0  0  0  0  0  0  0  0  0  0
   89.7910   95.9410  -46.7210 O   0  0  0  0  0  0  0  0  0  0  0  0
   90.8100   93.4960  -47.2580 N   0  0  0  0  0  0  0  0  0  0  0  0
   90.8230   92.1060  -47.4830 C   0  0  0  0  0  0  0  0  0  0  0  0
   90.4990   91.5060  -48.7120 N   0  0  0  0  0  0  0  0  0  0  0  0
   91.1400   91.3470  -46.5270 O   0  0  0  0  0  0  0  0  0  0  0  0
   90.2390   92.1120  -49.5300 H   0  0  0  0  0  0  0  0  0  0  0  0
   90.5510   94.1570  -48.0610 H   0  0  0  0  0  0  0  0  0  0  0  0
   90.4840   90.1060  -48.9710 C   0  0  0  0  0  0  0  0  0  0  0  0
   89.2800   89.4220  -49.1210 C   0  0  0  0  0  3  0  0  0  0  0  0
   89.2360   88.0680  -49.3720 C   0  0  0  0  0  3  0  0  0  0  0  0
   90.4360   87.4130  -49.4700 C   0  0  0  0  0  0  0  0  0  0  0  0
   90.4870   85.6750  -49.7960 Cl  0  0  0  0  0  0  0  0  0  0  0  0
   91.6420   88.0450  -49.3300 C   0  0  0  0  0  3  0  0  0  0  0  0
   91.6730   89.3980  -49.0790 C   0  0  0  0  0  3  0  0  0  0  0  0
   90.9250   99.1520  -42.6450 C   0  0  0  0  0  0  0  0  0  0  0  0
   89.6930   99.7520  -42.5500 C   0  0  0  0  0  3  0  0  0  0  0  0
   89.4860  101.0070  -41.9930 C   0  0  0  0  0  3  0  0  0  0  0  0
   90.5570  101.7230  -41.4970 C   0  0  0  0  0  0  0  0  0  0  0  0
   91.8050  101.1430  -41.5850 C   0  0  0  0  0  3  0  0  0  0  0  0
   90.3750  103.0610  -40.8560 C   0  0  0  0  0  1  0  0  0  0  0  0
   91.9820   99.8810  -42.1500 C   0  0  0  0  0  3  0  0  0  0  0  0
  1  2  2  0  0  0  0
  1 11  1  0  0  0  0
  2  3  1  0  0  0  0
  3 30  1  0  0  0  0
  3  4  1  0  0  0  0
  4  5  2  0  0  0  0
  5  6  1  0  0  0  0
  6 12  1  0  0  0  0
  7  8  2  0  0  0  0
  7  6  1  0  0  0  0
  9  7  1  0  0  0  0
 10  9  2  0  0  0  0
 11  9  1  0  0  0  0
 11  4  1  0  0  0  0
 13  1  1  0  0  0  0
 14 13  1  0  0  0  0
 14 15  1  0  0  0  0
 16 13  2  0  0  0  0
 17 14  1  0  0  0  0
 18 17  1  0  0  0  0
 18 20  2  0  0  0  0
 19 18  1  0  0  0  0
 21 19  1  0  0  0  0
 22 17  1  0  0  0  0
 23 19  1  0  0  0  0
 24 23  2  0  0  0  0
 25 24  1  0  0  0  0
 26 25  2  0  0  0  0
 26 28  1  0  0  0  0
 27 26  1  0  0  0  0
 28 29  2  0  0  0  0
 29 23  1  0  0  0  0
 30 31  2  0  0  0  0
 30 36  1  0  0  0  0
 31 32  1  0  0  0  0
 32 33  2  0  0  0  0
 33 35  1  0  0  0  0
 34 33  1  0  0  0  0
 36 34  2  0  0  0  0
M  END
>  <Pose>
1

>  <Score>
-8.479

$$$$
