/Users/jonathanwahrer/Desktop/Msc/3_Semester/Drug_Design_Praktikum/waehrer_HTS_screening/HTS_experiment/out/docking_results/vina_output/4agl/2136_docked.pdbqt
 OpenBabel03212200553D

 33 37  0  0  1  0  0  0  0  0999 V2000
   94.6630  102.1210  -41.8590 Cl  0  0  0  0  0  0  0  0  0  0  0  0
   92.9690  101.6770  -41.8560 C   0  0  0  0  0  0  0  0  0  0  0  0
   92.4020  100.8940  -42.8410 C   0  0  0  0  0  0  0  0  0  0  0  0
   91.0520  100.5610  -42.8070 C   0  0  0  0  0  0  0  0  0  0  0  0
   90.3260  101.0460  -41.7550 C   0  0  0  0  0  3  0  0  0  0  0  0
   90.8740  101.8250  -40.7640 C   0  0  0  0  0  3  0  0  0  0  0  0
   92.1970  102.1500  -40.8000 C   0  0  0  0  0  3  0  0  0  0  0  0
   90.7600   99.7290  -43.9810 C   0  0  2  0  0  0  0  0  0  0  0  0
   89.7340  100.3070  -44.8300 N   0  0  0  0  0  0  0  0  0  0  0  0
   89.3600   99.1670  -45.6720 C   0  0  1  0  0  3  0  0  0  0  0  0
   89.4430   97.9600  -44.8170 C   0  0  2  0  0  3  0  0  0  0  0  0
   90.1350   98.4210  -43.5750 C   0  0  1  0  0  3  0  0  0  0  0  0
   91.1200   97.4080  -43.1860 C   0  0  0  0  0  0  0  0  0  0  0  0
   91.6750   97.3660  -42.0590 O   0  0  0  0  0  0  0  0  0  0  0  0
   91.2850   96.5460  -44.3050 N   0  0  0  0  0  0  0  0  0  0  0  0
   90.4270   96.9520  -45.3620 C   0  0  0  0  0  0  0  0  0  0  0  0
   90.4250   96.5810  -46.5670 O   0  0  0  0  0  0  0  0  0  0  0  0
   92.0230   99.5900  -44.7230 C   0  0  0  0  0  0  0  0  0  0  0  0
   92.2410   98.9740  -45.7770 O   0  0  0  0  0  0  0  0  0  0  0  0
   93.0000  100.3160  -43.9910 N   0  0  0  0  0  0  0  0  0  0  0  0
   90.1100  101.1020  -45.4170 H   0  0  0  0  0  0  0  0  0  0  0  0
   94.0200  100.4250  -44.2380 H   0  0  0  0  0  0  0  0  0  0  0  0
   87.9860   99.3420  -46.2430 C   0  0  0  0  0  2  0  0  0  0  0  0
   86.8960   98.8610  -45.3790 C   0  0  0  0  0  0  0  0  0  0  0  0
   86.3200   99.7750  -44.4980 C   0  0  0  0  0  3  0  0  0  0  0  0
   85.2880   99.3630  -43.6940 C   0  0  0  0  0  3  0  0  0  0  0  0
   84.7910   98.0820  -43.7150 C   0  0  0  0  0  3  0  0  0  0  0  0
   85.3860   97.2090  -44.5990 C   0  0  0  0  0  3  0  0  0  0  0  0
   86.4260   97.5700  -45.4300 C   0  0  0  0  0  3  0  0  0  0  0  0
   92.2060   95.4130  -44.3470 C   0  0  0  0  0  2  0  0  0  0  0  0
   91.3960   94.1430  -44.1330 C   0  0  0  0  0  2  0  0  0  0  0  0
   92.0400   93.2880  -43.2540 O   0  0  0  0  0  0  0  0  0  0  0  0
   92.0060   93.8240  -41.9820 C   0  0  0  0  0  1  0  0  0  0  0  0
  1  2  1  0  0  0  0
  2  7  1  0  0  0  0
  3  4  1  0  0  0  0
  3  2  2  0  0  0  0
  4  5  2  0  0  0  0
  5  6  1  0  0  0  0
  7  6  2  0  0  0  0
  8 18  1  6  0  0  0
  8 12  1  0  0  0  0
  8  4  1  0  0  0  0
  9  8  1  0  0  0  0
 10 23  1  1  0  0  0
 10  9  1  0  0  0  0
 10 11  1  0  0  0  0
 11 16  1  6  0  0  0
 11 12  1  0  0  0  0
 12 13  1  6  0  0  0
 13 14  2  0  0  0  0
 15 13  1  0  0  0  0
 16 15  1  0  0  0  0
 17 16  2  0  0  0  0
 18 20  1  0  0  0  0
 19 18  2  0  0  0  0
 20  3  1  0  0  0  0
 21  9  1  0  0  0  0
 22 20  1  0  0  0  0
 23 24  1  0  0  0  0
 24 25  1  0  0  0  0
 25 26  2  0  0  0  0
 27 26  1  0  0  0  0
 28 27  2  0  0  0  0
 29 24  2  0  0  0  0
 29 28  1  0  0  0  0
 30 15  1  0  0  0  0
 30 31  1  0  0  0  0
 31 32  1  0  0  0  0
 32 33  1  0  0  0  0
M  END
>  <Pose>
1

>  <Score>
-6.657

$$$$
