/Users/jonathanwahrer/Desktop/Msc/3_Semester/Drug_Design_Praktikum/waehrer_HTS_screening/HTS_experiment/out/docking_results/vina_output/4agl/2164_docked.pdbqt
 OpenBabel03212200563D

 25 28  0  0  1  0  0  0  0  0999 V2000
   91.0850  100.4440  -43.7300 C   0  0  2  0  0  3  0  0  0  0  0  0
   90.2180   99.3180  -43.2320 C   0  0  0  0  0  2  0  0  0  0  0  0
   91.1980   98.3210  -43.6900 N   0  0  0  0  0  0  0  0  0  0  0  0
   91.7460   99.3650  -44.5370 C   0  0  0  0  0  2  0  0  0  0  0  0
   91.9610  101.0540  -42.6690 C   0  0  0  0  0  0  0  0  0  0  0  0
   91.4790  101.1420  -41.3540 N   0  0  0  0  0  0  0  0  0  0  0  0
   90.4840  100.7650  -41.1390 H   0  0  0  0  0  0  0  0  0  0  0  0
   93.0700  101.4420  -43.0620 O   0  0  0  0  0  0  0  0  0  0  0  0
   92.1840  101.6880  -40.2630 C   0  0  0  0  0  0  0  0  0  0  0  0
   91.4980  102.4930  -39.3420 C   0  0  0  0  0  3  0  0  0  0  0  0
   92.1090  103.0650  -38.2500 C   0  0  0  0  0  0  0  0  0  0  0  0
   91.1390  104.1530  -37.0230 Br  0  0  0  0  0  0  0  0  0  0  0  0
   93.4380  102.8540  -38.0320 C   0  0  0  0  0  3  0  0  0  0  0  0
   94.1260  102.0780  -38.9090 C   0  0  0  0  0  3  0  0  0  0  0  0
   93.5140  101.4930  -40.0210 C   0  0  0  0  0  3  0  0  0  0  0  0
   91.4270   96.9530  -43.3810 C   0  0  0  0  0  0  0  0  0  0  0  0
   91.6540   96.5280  -42.1100 N   0  0  0  0  0  0  0  0  0  0  0  0
   91.8710   95.2080  -41.8390 C   0  0  0  0  0  3  0  0  0  0  0  0
   91.8680   94.2910  -42.8120 N   0  0  0  0  0  0  0  0  0  0  0  0
   91.6510   94.6380  -44.0820 C   0  0  0  0  0  0  0  0  0  0  0  0
   91.5990   93.9200  -45.2210 N   0  0  0  0  0  0  0  0  0  0  0  0
   91.4320   95.9730  -44.3540 C   0  0  0  0  0  0  0  0  0  0  0  0
   91.3540   94.7760  -46.1890 N   0  0  0  0  0  0  0  0  0  0  0  0
   91.7750   92.4790  -45.3870 C   0  0  0  0  0  1  0  0  0  0  0  0
   91.2480   96.0170  -45.7010 N   0  0  0  0  0  0  0  0  0  0  0  0
  1  2  1  0  0  0  0
  1  5  1  1  0  0  0
  3 16  1  0  0  0  0
  3  2  1  0  0  0  0
  4  1  1  0  0  0  0
  4  3  1  0  0  0  0
  5  6  1  0  0  0  0
  6  7  1  0  0  0  0
  6  9  1  0  0  0  0
  8  5  2  0  0  0  0
  9 15  2  0  0  0  0
  9 10  1  0  0  0  0
 10 11  2  0  0  0  0
 11 13  1  0  0  0  0
 11 12  1  0  0  0  0
 14 13  2  0  0  0  0
 15 14  1  0  0  0  0
 16 17  1  0  0  0  0
 17 18  2  0  0  0  0
 19 18  1  0  0  0  0
 20 19  2  0  0  0  0
 21 20  1  0  0  0  0
 22 20  1  0  0  0  0
 22 16  2  0  0  0  0
 23 25  2  0  0  0  0
 23 21  1  0  0  0  0
 24 21  1  0  0  0  0
 25 22  1  0  0  0  0
M  END
>  <Pose>
1

>  <Score>
-6.585

$$$$
