/Users/jonathanwahrer/Desktop/Msc/3_Semester/Drug_Design_Praktikum/waehrer_HTS_screening/HTS_experiment/out/docking_results/vina_output/4agl/2213_docked.pdbqt
 OpenBabel03212200583D

 31 34  0  0  0  0  0  0  0  0999 V2000
   92.4920   96.2400  -40.6060 Cl  0  0  0  0  0  0  0  0  0  0  0  0
   91.9320   96.2440  -42.2640 C   0  0  0  0  0  0  0  0  0  0  0  0
   91.6320   97.4780  -42.8580 C   0  0  0  0  0  0  0  0  0  0  0  0
   91.1910   97.5140  -44.1550 C   0  0  0  0  0  0  0  0  0  0  0  0
   91.0660   96.2900  -44.8210 C   0  0  0  0  0  2  0  0  0  0  0  0
   91.3630   95.0840  -44.2270 C   0  0  0  0  0  0  0  0  0  0  0  0
   91.8090   95.0430  -42.9190 C   0  0  0  0  0  3  0  0  0  0  0  0
   91.1970   93.5580  -45.0860 Cl  0  0  0  0  0  0  0  0  0  0  0  0
   90.8530   98.7620  -44.8570 C   0  0  0  0  0  0  0  0  0  0  0  0
   91.0540   99.9310  -43.9840 C   0  0  0  0  0  0  0  0  0  0  0  0
   91.4930   99.8740  -42.6990 C   0  0  0  0  0  0  0  0  0  0  0  0
   91.6620  100.9900  -41.9320 N   0  0  0  0  0  0  0  0  0  0  0  0
   91.3790  102.1660  -42.4870 C   0  0  0  0  0  0  0  0  0  0  0  0
   91.5210  103.2340  -41.8120 O   0  0  0  0  0  0  0  0  0  0  0  0
   90.9420  102.2690  -43.7580 N   0  0  0  0  0  0  0  0  0  0  0  0
   90.7730  101.1820  -44.5190 C   0  0  0  0  0  0  0  0  0  0  0  0
   90.3660  101.2770  -45.7050 O   0  0  0  0  0  0  0  0  0  0  0  0
   90.6520  103.5860  -44.3090 C   0  0  0  0  0  1  0  0  0  0  0  0
   92.1300  100.8940  -40.5660 C   0  0  0  0  0  1  0  0  0  0  0  0
   91.7770   98.6550  -42.1460 O   0  0  0  0  0  0  0  0  0  0  0  0
   89.4580   98.7190  -45.4070 C   0  0  0  0  0  3  0  0  0  0  0  0
   88.3530   98.7340  -44.5900 C   0  0  0  0  0  0  0  0  0  0  0  0
   87.0940   98.6860  -45.0520 N   0  0  0  0  0  0  0  0  0  0  0  0
   88.5440   98.8020  -43.2250 O   0  0  0  0  0  0  0  0  0  0  0  0
   86.9090   98.6190  -46.3840 C   0  0  0  0  0  0  0  0  0  0  0  0
   85.9470   98.7070  -44.1630 C   0  0  0  0  0  1  0  0  0  0  0  0
   85.7170   98.5730  -46.8090 O   0  0  0  0  0  0  0  0  0  0  0  0
   87.9620   98.6010  -47.2210 N   0  0  0  0  0  0  0  0  0  0  0  0
   89.2260   98.6500  -46.7800 C   0  0  0  0  0  0  0  0  0  0  0  0
   87.7110   98.5280  -48.6420 C   0  0  0  0  0  1  0  0  0  0  0  0
   90.2270   98.6360  -47.5350 O   0  0  0  0  0  0  0  0  0  0  0  0
  2  1  1  0  0  0  0
  3  2  2  0  0  0  0
  3 20  1  0  0  0  0
  4  3  1  0  0  0  0
  5  6  1  0  0  0  0
  5  4  1  0  0  0  0
  6  7  2  0  0  0  0
  7  2  1  0  0  0  0
  8  6  1  0  0  0  0
  9  4  2  0  0  0  0
  9 10  1  0  0  0  0
 10 11  2  0  0  0  0
 11 20  1  0  0  0  0
 11 12  1  0  0  0  0
 12 19  1  0  0  0  0
 13 12  1  0  0  0  0
 13 14  2  0  0  0  0
 15 13  1  0  0  0  0
 16 10  1  0  0  0  0
 16 15  1  0  0  0  0
 17 16  2  0  0  0  0
 18 15  1  0  0  0  0
 21  9  1  0  0  0  0
 21 22  1  0  0  0  0
 22 24  2  0  0  0  0
 23 22  1  0  0  0  0
 23 26  1  0  0  0  0
 25 23  1  0  0  0  0
 27 25  2  0  0  0  0
 28 29  1  0  0  0  0
 28 25  1  0  0  0  0
 29 21  1  0  0  0  0
 30 28  1  0  0  0  0
 31 29  2  0  0  0  0
M  END
>  <Pose>
1

>  <Score>
-6.753

$$$$
