/Users/jonathanwahrer/Desktop/Msc/3_Semester/Drug_Design_Praktikum/waehrer_HTS_screening/HTS_experiment/out/docking_results/vina_output/4agl/2214_docked.pdbqt
 OpenBabel03212200583D

 34 38  0  0  1  0  0  0  0  0999 V2000
   93.4160  102.1270  -39.1490 Cl  0  0  0  0  0  0  0  0  0  0  0  0
   93.1910  102.0170  -40.8820 C   0  0  0  0  0  0  0  0  0  0  0  0
   92.6010  100.9350  -41.4760 C   0  0  0  0  0  3  0  0  0  0  0  0
   92.4420  100.8890  -42.8630 C   0  0  0  0  0  0  0  0  0  0  0  0
   92.8920  101.9480  -43.5950 C   0  0  0  0  0  0  0  0  0  0  0  0
   93.4980  103.0600  -42.9880 C   0  0  0  0  0  3  0  0  0  0  0  0
   93.6540  103.1050  -41.6310 C   0  0  0  0  0  3  0  0  0  0  0  0
   92.6340  101.6930  -44.9720 N   0  0  0  0  0  0  0  0  0  0  0  0
   92.0060  100.4410  -45.1090 C   0  0  0  0  0  0  0  0  0  0  0  0
   91.6550   99.9400  -46.2240 O   0  0  0  0  0  0  0  0  0  0  0  0
   91.8560   99.8810  -43.7630 C   0  0  1  0  0  0  0  0  0  0  0  0
   92.6200   98.6660  -43.5800 N   0  0  0  0  0  0  0  0  0  0  0  0
   91.7410   97.5650  -43.3470 C   0  0  2  0  0  3  0  0  0  0  0  0
   90.3820   98.0790  -43.6140 C   0  0  1  0  0  3  0  0  0  0  0  0
   90.4190   99.5690  -43.4170 C   0  0  2  0  0  3  0  0  0  0  0  0
   89.4670  100.0540  -44.4410 C   0  0  0  0  0  0  0  0  0  0  0  0
   88.8800  101.1630  -44.4980 O   0  0  0  0  0  0  0  0  0  0  0  0
   89.2700   99.0350  -45.4450 N   0  0  0  0  0  0  0  0  0  0  0  0
   90.1090   97.9430  -45.0880 C   0  0  0  0  0  0  0  0  0  0  0  0
   90.5150   97.0600  -45.8790 O   0  0  0  0  0  0  0  0  0  0  0  0
   92.8700  102.3350  -45.7880 H   0  0  0  0  0  0  0  0  0  0  0  0
   93.2850   98.7190  -42.7770 H   0  0  0  0  0  0  0  0  0  0  0  0
   91.9210   96.9520  -41.9830 C   0  0  0  0  0  2  0  0  0  0  0  0
   91.8380   95.5040  -41.9470 C   0  0  0  0  0  0  0  0  0  0  0  0
   91.7060   94.8560  -43.0070 O   0  0  0  0  0  0  0  0  0  0  0  0
   91.9020   94.8020  -40.7240 N   0  0  0  0  0  0  0  0  0  0  0  0
   92.5930   94.0230  -40.6160 H   0  0  0  0  0  0  0  0  0  0  0  0
   91.3020   95.0020  -39.9020 H   0  0  0  0  0  0  0  0  0  0  0  0
   88.3870   99.1320  -46.5880 C   0  0  0  0  0  2  0  0  0  0  0  0
   86.9450   98.8770  -46.2450 C   0  0  1  0  0  3  0  0  0  0  0  0
   86.2810   98.3780  -47.3630 O   0  0  0  0  0  0  0  0  0  0  0  0
   86.3580   97.0050  -47.3030 C   0  0  0  0  0  2  0  0  0  0  0  0
   86.4650   96.6040  -45.8480 C   0  0  0  0  0  2  0  0  0  0  0  0
   86.7330   97.9130  -45.1320 C   0  0  0  0  0  2  0  0  0  0  0  0
  2  1  1  0  0  0  0
  3  2  1  0  0  0  0
  4  3  2  0  0  0  0
  5  6  2  0  0  0  0
  5  4  1  0  0  0  0
  6  7  1  0  0  0  0
  7  2  2  0  0  0  0
  8  5  1  0  0  0  0
  9  8  1  0  0  0  0
 10  9  2  0  0  0  0
 11  9  1  6  0  0  0
 11 12  1  0  0  0  0
 11 15  1  0  0  0  0
 11  4  1  0  0  0  0
 12 13  1  0  0  0  0
 12 22  1  0  0  0  0
 13 23  1  1  0  0  0
 14 19  1  6  0  0  0
 14 15  1  0  0  0  0
 14 13  1  0  0  0  0
 15 16  1  6  0  0  0
 17 16  2  0  0  0  0
 18 19  1  0  0  0  0
 18 16  1  0  0  0  0
 20 19  2  0  0  0  0
 21  8  1  0  0  0  0
 23 24  1  0  0  0  0
 24 26  1  0  0  0  0
 25 24  2  0  0  0  0
 26 27  1  0  0  0  0
 26 28  1  0  0  0  0
 29 18  1  0  0  0  0
 30 29  1  6  0  0  0
 30 34  1  0  0  0  0
 31 32  1  0  0  0  0
 31 30  1  0  0  0  0
 32 33  1  0  0  0  0
 33 34  1  0  0  0  0
M  END
>  <Pose>
1

>  <Score>
-6.553

$$$$
