/Users/jonathanwahrer/Desktop/Msc/3_Semester/Drug_Design_Praktikum/waehrer_HTS_screening/HTS_experiment/out/docking_results/vina_output/4agl/2242_docked.pdbqt
 OpenBabel03212200593D

 32 35  0  0  0  0  0  0  0  0999 V2000
   90.7020   95.7000  -44.3600 N   0  0  0  0  0  0  0  0  0  0  0  0
   91.2900   96.9430  -44.6070 C   0  0  0  0  0  0  0  0  0  0  0  0
   92.1750   97.1150  -45.4570 O   0  0  0  0  0  0  0  0  0  0  0  0
   89.9470   95.6490  -43.6050 H   0  0  0  0  0  0  0  0  0  0  0  0
   90.8640   98.1460  -43.8400 C   0  0  0  0  0  0  0  0  0  0  0  0
   91.7750   98.8860  -43.2890 N   0  0  0  0  0  0  0  0  0  0  0  0
   91.4620  100.0280  -42.5540 N   0  0  0  0  0  0  0  0  0  0  0  0
   90.1090  100.3940  -42.4040 C   0  0  0  0  0  0  0  0  0  0  0  0
   89.8760  101.4940  -41.7980 O   0  0  0  0  0  0  0  0  0  0  0  0
   88.9970   99.5640  -42.9110 C   0  0  0  0  0  2  0  0  0  0  0  0
   89.4970   98.4940  -43.7010 N   0  0  0  0  0  0  0  0  0  0  0  0
   88.8090   97.8990  -44.2330 H   0  0  0  0  0  0  0  0  0  0  0  0
   92.5070  100.8280  -41.9480 C   0  0  0  0  0  0  0  0  0  0  0  0
   93.2670  101.6990  -42.6910 C   0  0  0  0  0  3  0  0  0  0  0  0
   94.2670  102.4640  -42.0820 C   0  0  0  0  0  3  0  0  0  0  0  0
   94.5130  102.3590  -40.7270 C   0  0  0  0  0  0  0  0  0  0  0  0
   93.7430  101.4820  -39.9980 C   0  0  0  0  0  3  0  0  0  0  0  0
   95.5650  103.1560  -40.0290 C   0  0  0  0  0  1  0  0  0  0  0  0
   92.7690  100.7400  -40.5980 C   0  0  0  0  0  3  0  0  0  0  0  0
   91.0260   94.5110  -45.0250 C   0  0  0  0  0  0  0  0  0  0  0  0
   91.7640   93.5520  -44.3250 C   0  0  0  0  0  0  0  0  0  0  0  0
   92.2590   93.8750  -42.6780 Cl  0  0  0  0  0  0  0  0  0  0  0  0
   92.1190   92.3600  -44.8900 C   0  0  0  0  0  3  0  0  0  0  0  0
   91.7690   92.0380  -46.1710 C   0  0  0  0  0  0  0  0  0  0  0  0
   91.0440   92.9500  -46.8900 C   0  0  0  0  0  0  0  0  0  0  0  0
   92.1180   90.7910  -46.7830 N   0  0  0  0  0  0  0  0  0  0  0  0
   90.6820   94.1760  -46.3050 C   0  0  0  0  0  3  0  0  0  0  0  0
   90.6470   92.7020  -48.2010 O   0  0  0  0  0  0  0  0  0  0  0  0
   90.6320   91.3800  -48.7590 C   0  0  0  0  0  2  0  0  0  0  0  0
   91.6950   90.5490  -48.1210 C   0  0  0  0  0  0  0  0  0  0  0  0
   92.2120   89.6260  -48.7920 O   0  0  0  0  0  0  0  0  0  0  0  0
   92.6690   90.0800  -46.2620 H   0  0  0  0  0  0  0  0  0  0  0  0
  1  4  1  0  0  0  0
  2  1  1  0  0  0  0
  2  5  1  0  0  0  0
  3  2  2  0  0  0  0
  5 11  1  0  0  0  0
  5  6  2  0  0  0  0
  6  7  1  0  0  0  0
  7  8  1  0  0  0  0
  7 13  1  0  0  0  0
  8  9  2  0  0  0  0
 10  8  1  0  0  0  0
 11 10  1  0  0  0  0
 12 11  1  0  0  0  0
 13 19  1  0  0  0  0
 14 15  1  0  0  0  0
 14 13  2  0  0  0  0
 15 16  2  0  0  0  0
 16 18  1  0  0  0  0
 16 17  1  0  0  0  0
 19 17  2  0  0  0  0
 20  1  1  0  0  0  0
 20 21  1  0  0  0  0
 21 22  1  0  0  0  0
 23 21  2  0  0  0  0
 24 23  1  0  0  0  0
 25 27  1  0  0  0  0
 25 24  2  0  0  0  0
 26 32  1  0  0  0  0
 26 24  1  0  0  0  0
 27 20  2  0  0  0  0
 28 25  1  0  0  0  0
 29 28  1  0  0  0  0
 29 30  1  0  0  0  0
 30 26  1  0  0  0  0
 31 30  2  0  0  0  0
M  END
>  <Pose>
1

>  <Score>
-7.380

$$$$
