/Users/jonathanwahrer/Desktop/Msc/3_Semester/Drug_Design_Praktikum/waehrer_HTS_screening/HTS_experiment/out/docking_results/vina_output/4agl/2267_docked.pdbqt
 OpenBabel03212200593D

 27 30  0  0  1  0  0  0  0  0999 V2000
   90.1940  100.0380  -43.3560 N   0  0  0  0  0  0  0  0  0  0  0  0
   89.1410   99.9730  -42.4460 C   0  0  0  0  0  2  0  0  0  0  0  0
   87.7990   99.7030  -43.0860 C   0  0  0  0  0  2  0  0  0  0  0  0
   87.8900   98.9440  -44.3550 C   0  0  2  0  0  3  0  0  0  0  0  0
   88.9590   99.2240  -45.1710 C   0  0  0  0  0  0  0  0  0  0  0  0
   89.1230   98.5900  -46.3380 N   0  0  0  0  0  0  0  0  0  0  0  0
   88.2060   97.6440  -46.7240 C   0  0  1  0  0  3  0  0  0  0  0  0
   87.1630   97.3830  -45.9100 N   0  0  0  0  0  0  0  0  0  0  0  0
   86.4280   96.4390  -46.5050 N   0  0  0  0  0  0  0  0  0  0  0  0
   86.9720   96.0970  -47.6660 C   0  0  0  0  0  3  0  0  0  0  0  0
   88.1280   96.8530  -47.8510 C   0  0  0  0  0  3  0  0  0  0  0  0
   86.9500   97.9860  -44.7330 C   0  0  0  0  0  0  0  0  0  0  0  0
   85.9800   97.7420  -43.9760 O   0  0  0  0  0  0  0  0  0  0  0  0
   89.9300  100.2400  -44.7320 C   0  0  0  0  0  2  0  0  0  0  0  0
   85.5490   96.0210  -46.1240 H   0  0  0  0  0  0  0  0  0  0  0  0
   91.6880   99.4360  -42.9250 S   0  0  0  0  0  0  0  0  0  0  0  0
   92.7010   99.7960  -43.9880 O   0  0  0  0  0  0  0  0  0  0  0  0
   92.1750  100.0440  -41.6430 O   0  0  0  0  0  0  0  0  0  0  0  0
   91.7460   97.6970  -42.7470 C   0  0  0  0  0  0  0  0  0  0  0  0
   91.4820   96.8250  -43.7900 C   0  0  0  0  0  3  0  0  0  0  0  0
   91.5420   95.4540  -43.5900 C   0  0  0  0  0  0  0  0  0  0  0  0
   91.8630   94.9020  -42.3720 C   0  0  0  0  0  0  0  0  0  0  0  0
   91.2040   94.3660  -44.9220 Cl  0  0  0  0  0  0  0  0  0  0  0  0
   92.1270   95.7680  -41.3330 C   0  0  0  0  0  3  0  0  0  0  0  0
   92.0660   97.1300  -41.5310 C   0  0  0  0  0  3  0  0  0  0  0  0
   91.9190   93.5100  -42.1930 O   0  0  0  0  0  0  0  0  0  0  0  0
   93.1680   92.8820  -41.9730 C   0  0  0  0  0  1  0  0  0  0  0  0
  1 16  1  0  0  0  0
  1  2  1  0  0  0  0
  3  2  1  0  0  0  0
  4  3  1  6  0  0  0
  5 14  1  0  0  0  0
  5  4  1  0  0  0  0
  6  5  2  0  0  0  0
  7 11  1  6  0  0  0
  7  6  1  0  0  0  0
  7  8  1  0  0  0  0
  8 12  1  0  0  0  0
  9 15  1  0  0  0  0
  9  8  1  0  0  0  0
 10  9  1  0  0  0  0
 11 10  2  0  0  0  0
 12  4  1  0  0  0  0
 12 13  2  0  0  0  0
 14  1  1  0  0  0  0
 16 19  1  0  0  0  0
 16 18  2  0  0  0  0
 17 16  2  0  0  0  0
 19 25  1  0  0  0  0
 20 21  1  0  0  0  0
 20 19  2  0  0  0  0
 21 22  2  0  0  0  0
 22 26  1  0  0  0  0
 22 24  1  0  0  0  0
 23 21  1  0  0  0  0
 25 24  2  0  0  0  0
 26 27  1  0  0  0  0
M  END
>  <Pose>
1

>  <Score>
-6.509

$$$$
