/Users/jonathanwahrer/Desktop/Msc/3_Semester/Drug_Design_Praktikum/waehrer_HTS_screening/HTS_experiment/out/docking_results/vina_output/4agl/2271_docked.pdbqt
 OpenBabel03212200593D

 27 30  0  0  1  0  0  0  0  0999 V2000
   89.7970   97.5690  -46.2220 C   0  0  2  0  0  0  0  0  0  0  0  0
   91.0170   97.3960  -45.6070 N   0  0  0  0  0  4  0  0  0  0  0  0
   91.3090   98.6710  -44.9860 C   0  0  0  0  0  0  0  0  0  0  0  0
   91.7830   99.0630  -43.8480 C   0  0  0  0  0  3  0  0  0  0  0  0
   91.9780  100.4770  -43.4790 C   0  0  0  0  0  2  0  0  0  0  0  0
   91.5720  101.4740  -44.5050 C   0  0  0  0  0  2  0  0  0  0  0  0
   91.5170  100.9440  -45.8980 C   0  0  0  0  0  2  0  0  0  0  0  0
   90.9380   99.6200  -45.9700 N   0  0  0  0  0  0  0  0  0  0  0  0
   89.9930   98.9680  -46.8730 C   0  0  0  0  0  2  0  0  0  0  0  0
   91.7550   97.3850  -46.4030 H   0  0  0  0  0  0  0  0  0  0  0  0
   88.5360   97.6550  -45.5130 C   0  0  0  0  0  0  0  0  0  0  0  0
   87.4860   96.8480  -45.9060 C   0  0  0  0  0  3  0  0  0  0  0  0
   86.2800   96.9200  -45.2730 C   0  0  0  0  0  3  0  0  0  0  0  0
   86.0520   97.7950  -44.2190 C   0  0  0  0  0  0  0  0  0  0  0  0
   84.5200   97.9070  -43.3910 Cl  0  0  0  0  0  0  0  0  0  0  0  0
   87.0930   98.5930  -43.8310 C   0  0  0  0  0  3  0  0  0  0  0  0
   88.3180   98.5220  -44.4720 C   0  0  0  0  0  3  0  0  0  0  0  0
   89.6500   96.7220  -47.3570 O   0  0  0  0  0  0  0  0  0  0  0  0
   90.1210   95.8810  -47.1220 H   0  0  0  0  0  0  0  0  0  0  0  0
   91.3450   96.3130  -44.8070 C   0  0  0  0  0  0  0  0  0  0  0  0
   91.3340   96.2630  -43.4540 C   0  0  0  0  0  3  0  0  0  0  0  0
   91.6800   95.0890  -42.7870 C   0  0  0  0  0  3  0  0  0  0  0  0
   92.0460   93.9340  -43.4570 C   0  0  0  0  0  0  0  0  0  0  0  0
   92.0480   94.0150  -44.8330 C   0  0  0  0  0  3  0  0  0  0  0  0
   91.7140   95.1530  -45.5180 C   0  0  0  0  0  3  0  0  0  0  0  0
   92.3840   92.7880  -42.7550 O   0  0  0  0  0  0  0  0  0  0  0  0
   93.3970   92.8480  -41.7840 C   0  0  0  0  0  1  0  0  0  0  0  0
  1 18  1  6  0  0  0
  1  2  1  0  0  0  0
  1 11  1  0  0  0  0
  2  3  1  0  0  0  0
  2 20  1  0  0  0  0
  3  4  2  0  0  0  0
  4  5  1  0  0  0  0
  6  5  1  0  0  0  0
  7  6  1  0  0  0  0
  8  7  1  0  0  0  0
  8  3  1  0  0  0  0
  9  1  1  0  0  0  0
  9  8  1  0  0  0  0
 10  2  1  0  0  0  0
 11 17  1  0  0  0  0
 12 11  2  0  0  0  0
 12 13  1  0  0  0  0
 13 14  2  0  0  0  0
 14 16  1  0  0  0  0
 14 15  1  0  0  0  0
 17 16  2  0  0  0  0
 18 19  1  0  0  0  0
 20 21  1  0  0  0  0
 21 22  2  0  0  0  0
 23 22  1  0  0  0  0
 23 26  1  0  0  0  0
 24 23  2  0  0  0  0
 25 24  1  0  0  0  0
 25 20  2  0  0  0  0
 26 27  1  0  0  0  0
M  END
>  <Pose>
1

>  <Score>
-6.552

$$$$
