/Users/jonathanwahrer/Desktop/Msc/3_Semester/Drug_Design_Praktikum/waehrer_HTS_screening/HTS_experiment/out/docking_results/vina_output/4agl/2272_docked.pdbqt
 OpenBabel03212201003D

 29 32  0  0  0  0  0  0  0  0999 V2000
   89.3350   98.6200  -44.0690 C   0  0  0  0  0  0  0  0  0  0  0  0
   88.1820   98.4280  -44.6160 O   0  0  0  0  0  0  0  0  0  0  0  0
   90.3500   97.7540  -44.4790 N   0  0  0  0  0  0  0  0  0  0  0  0
   91.6730   97.6530  -43.8360 C   0  0  0  0  0  2  0  0  0  0  0  0
   91.5050   96.2470  -43.1780 C   0  0  0  0  0  2  0  0  0  0  0  0
   91.4320   95.2670  -44.2530 N   0  0  0  0  0  0  0  0  0  0  0  0
   91.0080   95.6220  -45.4940 C   0  0  0  0  0  2  0  0  0  0  0  0
   90.2220   96.8950  -45.6240 C   0  0  0  0  0  2  0  0  0  0  0  0
   89.3840   99.7210  -43.1370 C   0  0  0  0  0  2  0  0  0  0  0  0
   90.0040  100.9990  -43.4750 C   0  0  0  0  0  2  0  0  0  0  0  0
   91.3460  101.2440  -42.9750 N   0  0  0  0  0  0  0  0  0  0  0  0
   91.7920  101.5900  -41.7710 C   0  0  0  0  0  0  0  0  0  0  0  0
   93.1520  101.7900  -41.8080 C   0  0  0  0  0  0  0  0  0  0  0  0
   91.1110  101.7490  -40.5510 C   0  0  0  0  0  3  0  0  0  0  0  0
   93.8850  102.1500  -40.6700 C   0  0  0  0  0  3  0  0  0  0  0  0
   93.4970  101.5600  -43.0470 O   0  0  0  0  0  0  0  0  0  0  0  0
   93.2340  102.3100  -39.4770 C   0  0  0  0  0  0  0  0  0  0  0  0
   94.1170  102.7430  -38.0350 Cl  0  0  0  0  0  0  0  0  0  0  0  0
   91.8660  102.1050  -39.4470 C   0  0  0  0  0  3  0  0  0  0  0  0
   92.4620  101.2330  -43.7800 C   0  0  0  0  0  0  0  0  0  0  0  0
   92.4670  100.9550  -45.0130 O   0  0  0  0  0  0  0  0  0  0  0  0
   91.4230   94.0060  -43.6800 C   0  0  0  0  0  2  0  0  0  0  0  0
   92.3550   93.0390  -44.4120 C   0  0  0  0  0  0  0  0  0  0  0  0
   93.5850   93.1290  -44.0350 O   0  0  0  0  0  0  0  0  0  0  0  0
   91.8980   92.2110  -45.3440 N   0  0  0  0  0  0  0  0  0  0  0  0
   93.0920   91.5680  -45.4140 H   0  0  0  0  0  0  0  0  0  0  0  0
   91.4110   91.3310  -46.3370 C   0  0  0  0  0  3  0  0  0  0  0  0
   92.3430   91.1860  -47.6010 C   0  0  0  0  0  2  0  0  0  0  0  0
   91.0860   91.9050  -47.7000 C   0  0  0  0  0  2  0  0  0  0  0  0
  1  9  1  0  0  0  0
  2  1  2  0  0  0  0
  3  1  1  0  0  0  0
  3  4  1  0  0  0  0
  4  5  1  0  0  0  0
  6 22  1  0  0  0  0
  6  5  1  0  0  0  0
  7  6  1  0  0  0  0
  8  7  1  0  0  0  0
  8  3  1  0  0  0  0
 10  9  1  0  0  0  0
 10 11  1  0  0  0  0
 11 12  1  0  0  0  0
 12 14  1  0  0  0  0
 13 12  2  0  0  0  0
 13 15  1  0  0  0  0
 14 19  2  0  0  0  0
 15 17  2  0  0  0  0
 16 13  1  0  0  0  0
 17 19  1  0  0  0  0
 17 18  1  0  0  0  0
 20 16  1  0  0  0  0
 20 11  1  0  0  0  0
 21 20  2  0  0  0  0
 23 24  2  0  0  0  0
 23 22  1  0  0  0  0
 25 23  1  0  0  0  0
 26 25  1  0  0  0  0
 27 25  1  0  0  0  0
 28 27  1  0  0  0  0
 29 28  1  0  0  0  0
 29 27  1  0  0  0  0
M  END
>  <Pose>
1

>  <Score>
-6.272

$$$$
