/Users/jonathanwahrer/Desktop/Msc/3_Semester/Drug_Design_Praktikum/waehrer_HTS_screening/HTS_experiment/out/docking_results/vina_output/4agl/2275_docked.pdbqt
 OpenBabel03212201003D

 21 23  0  0  1  0  0  0  0  0999 V2000
   89.9730   95.0080  -46.9970 Cl  0  0  0  0  0  0  0  0  0  0  0  0
   90.0120   96.3380  -45.8610 C   0  0  0  0  0  0  0  0  0  0  0  0
   90.9000   96.3200  -44.8050 C   0  0  0  0  0  0  0  0  0  0  0  0
   90.8780   97.4030  -43.9540 C   0  0  0  0  0  0  0  0  0  0  0  0
   91.6520   97.4880  -42.9520 O   0  0  0  0  0  0  0  0  0  0  0  0
   90.0190   98.4090  -44.1710 N   0  0  0  0  0  0  0  0  0  0  0  0
   89.1550   98.4680  -45.1650 N   0  0  0  0  0  0  0  0  0  0  0  0
   88.2410   99.5810  -45.3630 C   0  0  1  0  0  3  0  0  0  0  0  0
   87.1220   99.5970  -44.3430 C   0  0  0  0  0  2  0  0  0  0  0  0
   87.5940  100.2330  -43.0470 C   0  0  0  0  0  2  0  0  0  0  0  0
   88.7430   99.4600  -42.4420 C   0  0  0  0  0  2  0  0  0  0  0  0
   90.0130   99.5550  -43.2470 C   0  0  2  0  0  3  0  0  0  0  0  0
   89.9310  100.7710  -44.0990 C   0  0  0  0  0  3  0  0  0  0  0  0
   89.0570  100.8240  -45.0970 C   0  0  0  0  0  3  0  0  0  0  0  0
   89.1560   97.4060  -46.0240 C   0  0  0  0  0  0  0  0  0  0  0  0
   88.3290   97.4350  -46.9970 O   0  0  0  0  0  0  0  0  0  0  0  0
   91.8090   95.2490  -44.5720 N   0  0  0  0  0  0  0  0  0  0  0  0
   92.8020   95.4430  -44.9030 H   0  0  0  0  0  0  0  0  0  0  0  0
   91.4590   94.0030  -43.9470 C   0  0  0  0  0  3  0  0  0  0  0  0
   91.8840   92.8090  -44.7840 C   0  0  0  0  0  1  0  0  0  0  0  0
   92.0130   93.8220  -42.5730 C   0  0  0  0  0  1  0  0  0  0  0  0
  1  2  1  0  0  0  0
  2  3  2  0  0  0  0
  3 17  1  0  0  0  0
  3  4  1  0  0  0  0
  4  5  2  0  0  0  0
  6  4  1  0  0  0  0
  6 12  1  0  0  0  0
  7  6  1  0  0  0  0
  8  7  1  0  0  0  0
  8 14  1  1  0  0  0
  8  9  1  0  0  0  0
  9 10  1  0  0  0  0
 10 11  1  0  0  0  0
 12 13  1  6  0  0  0
 12 11  1  0  0  0  0
 14 13  2  0  0  0  0
 15  2  1  0  0  0  0
 15  7  1  0  0  0  0
 16 15  2  0  0  0  0
 17 19  1  0  0  0  0
 18 17  1  0  0  0  0
 19 21  1  0  0  0  0
 20 19  1  0  0  0  0
M  END
>  <Pose>
1

>  <Score>
-5.196

$$$$
