/Users/jonathanwahrer/Desktop/Msc/3_Semester/Drug_Design_Praktikum/waehrer_HTS_screening/HTS_experiment/out/docking_results/vina_output/4agl/2276_docked.pdbqt
 OpenBabel03212201003D

 21 24  0  0  1  0  0  0  0  0999 V2000
   89.8450   95.0640  -47.1230 Cl  0  0  0  0  0  0  0  0  0  0  0  0
   89.9660   96.3170  -45.9040 C   0  0  0  0  0  0  0  0  0  0  0  0
   90.9120   96.1660  -44.9130 C   0  0  0  0  0  0  0  0  0  0  0  0
   90.9490   97.2010  -43.9700 C   0  0  0  0  0  0  0  0  0  0  0  0
   91.7870   97.1150  -43.0510 O   0  0  0  0  0  0  0  0  0  0  0  0
   90.1170   98.2460  -44.0510 N   0  0  0  0  0  0  0  0  0  0  0  0
   89.2110   98.3850  -45.0070 N   0  0  0  0  0  0  0  0  0  0  0  0
   88.3900   99.5860  -44.9510 C   0  0  1  0  0  3  0  0  0  0  0  0
   87.7160   99.5850  -43.5910 C   0  0  1  0  0  3  0  0  0  0  0  0
   88.7010   99.3840  -42.5220 C   0  0  1  0  0  3  0  0  0  0  0  0
   90.1330   99.3370  -43.0740 C   0  0  2  0  0  3  0  0  0  0  0  0
   90.2890  100.5770  -43.9090 C   0  0  0  0  0  2  0  0  0  0  0  0
   89.3960  100.7110  -44.8750 C   0  0  0  0  0  2  0  0  0  0  0  0
   87.9390  100.7100  -42.6510 C   0  0  0  0  0  2  0  0  0  0  0  0
   89.1310   97.4310  -45.9280 C   0  0  0  0  0  0  0  0  0  0  0  0
   88.2730   97.5540  -46.8400 O   0  0  0  0  0  0  0  0  0  0  0  0
   91.8080   95.0620  -44.8160 N   0  0  0  0  0  0  0  0  0  0  0  0
   92.7690   95.2380  -45.1750 H   0  0  0  0  0  0  0  0  0  0  0  0
   91.4870   93.7880  -44.2840 C   0  0  0  0  0  3  0  0  0  0  0  0
   91.7760   92.6310  -45.2050 C   0  0  0  0  0  1  0  0  0  0  0  0
   92.2050   93.4860  -42.9760 C   0  0  0  0  0  1  0  0  0  0  0  0
  1  2  1  0  0  0  0
  2  3  2  0  0  0  0
  3 17  1  0  0  0  0
  3  4  1  0  0  0  0
  4  5  2  0  0  0  0
  6  4  1  0  0  0  0
  6 11  1  0  0  0  0
  7  8  1  0  0  0  0
  7  6  1  0  0  0  0
  8 13  1  1  0  0  0
  8  9  1  0  0  0  0
  9 14  1  1  0  0  0
  9 10  1  0  0  0  0
 10 14  1  1  0  0  0
 11 12  1  6  0  0  0
 11 10  1  0  0  0  0
 13 12  1  0  0  0  0
 15  2  1  0  0  0  0
 15  7  1  0  0  0  0
 16 15  2  0  0  0  0
 17 19  1  0  0  0  0
 18 17  1  0  0  0  0
 19 21  1  0  0  0  0
 20 19  1  0  0  0  0
M  END
>  <Pose>
1

>  <Score>
-5.417

$$$$
