/Users/jonathanwahrer/Desktop/Msc/3_Semester/Drug_Design_Praktikum/waehrer_HTS_screening/HTS_experiment/out/docking_results/vina_output/4agl/2282_docked.pdbqt
 OpenBabel03212201013D

 31 34  0  0  1  0  0  0  0  0999 V2000
   88.5620   99.2120  -45.1950 N   0  0  0  0  0  0  0  0  0  0  0  0
   87.6020   98.2480  -44.7110 C   0  0  0  0  0  2  0  0  0  0  0  0
   87.4070   97.1670  -45.7280 C   0  0  0  0  0  2  0  0  0  0  0  0
   88.4450   97.3150  -46.7170 N   0  0  0  0  0  0  0  0  0  0  0  0
   88.1920   98.4870  -47.4750 C   0  0  0  0  0  2  0  0  0  0  0  0
   88.4580   99.6810  -46.5540 C   0  0  0  0  0  2  0  0  0  0  0  0
   89.6080   99.7220  -44.3840 C   0  0  0  0  0  0  0  0  0  0  0  0
   89.4560  100.8810  -43.6280 C   0  0  0  0  0  0  0  0  0  0  0  0
   87.9110  101.7000  -43.7260 Cl  0  0  0  0  0  0  0  0  0  0  0  0
   90.4890  101.3520  -42.8420 C   0  0  0  0  0  0  0  0  0  0  0  0
   91.6740  100.7170  -42.7740 N   0  0  0  0  0  0  0  0  0  0  0  0
   90.3450  102.4050  -42.1590 O   0  0  0  0  0  0  0  0  0  0  0  0
   91.7980   99.6180  -43.4980 N   0  0  0  0  0  0  0  0  0  0  0  0
   90.8360   99.1040  -44.2840 C   0  0  0  0  0  3  0  0  0  0  0  0
   92.7440  101.2040  -41.9540 C   0  0  0  0  0  0  0  0  0  0  0  0
   92.8000  100.8720  -40.6210 C   0  0  0  0  0  3  0  0  0  0  0  0
   93.8400  101.3420  -39.8120 C   0  0  0  0  0  3  0  0  0  0  0  0
   94.8340  102.1460  -40.3210 C   0  0  0  0  0  3  0  0  0  0  0  0
   94.7870  102.4830  -41.6550 C   0  0  0  0  0  3  0  0  0  0  0  0
   93.7470  102.0110  -42.4490 C   0  0  0  0  0  3  0  0  0  0  0  0
   88.8400   96.1440  -47.3920 C   0  0  0  0  0  2  0  0  0  0  0  0
   89.9510   95.4180  -46.7680 C   0  0  0  0  0  0  0  0  0  0  0  0
   90.1310   94.2190  -47.1690 O   0  0  0  0  0  0  0  0  0  0  0  0
   90.8290   95.9210  -45.7780 N   0  0  0  0  0  0  0  0  0  0  0  0
   90.6860   96.9020  -45.4630 H   0  0  0  0  0  0  0  0  0  0  0  0
   91.9100   95.1680  -45.1950 C   0  0  0  0  0  2  0  0  0  0  0  0
   91.4350   94.4980  -43.9430 C   0  0  1  0  0  3  0  0  0  0  0  0
   92.0880   93.3050  -43.7880 O   0  0  0  0  0  0  0  0  0  0  0  0
   92.7480   93.2580  -42.5900 C   0  0  0  0  0  2  0  0  0  0  0  0
   91.9300   94.1760  -41.7060 C   0  0  0  0  0  2  0  0  0  0  0  0
   91.7390   95.3300  -42.7050 C   0  0  0  0  0  2  0  0  0  0  0  0
  1  2  1  0  0  0  0
  1  7  1  0  0  0  0
  3  2  1  0  0  0  0
  4  3  1  0  0  0  0
  5  4  1  0  0  0  0
  5  6  1  0  0  0  0
  6  1  1  0  0  0  0
  7 14  1  0  0  0  0
  7  8  2  0  0  0  0
  8 10  1  0  0  0  0
  9  8  1  0  0  0  0
 10 11  1  0  0  0  0
 10 12  2  0  0  0  0
 11 15  1  0  0  0  0
 13 11  1  0  0  0  0
 14 13  2  0  0  0  0
 15 16  1  0  0  0  0
 16 17  2  0  0  0  0
 18 17  1  0  0  0  0
 19 18  2  0  0  0  0
 20 15  2  0  0  0  0
 20 19  1  0  0  0  0
 21 22  1  0  0  0  0
 21  4  1  0  0  0  0
 22 24  1  0  0  0  0
 23 22  2  0  0  0  0
 24 25  1  0  0  0  0
 24 26  1  0  0  0  0
 27 26  1  6  0  0  0
 27 28  1  0  0  0  0
 27 31  1  0  0  0  0
 28 29  1  0  0  0  0
 29 30  1  0  0  0  0
 31 30  1  0  0  0  0
M  END
>  <Pose>
1

>  <Score>
-5.739

$$$$
