/Users/jonathanwahrer/Desktop/Msc/3_Semester/Drug_Design_Praktikum/waehrer_HTS_screening/HTS_experiment/out/docking_results/vina_output/4agl/2284_docked.pdbqt
 OpenBabel03212201013D

 33 37  0  0  0  0  0  0  0  0999 V2000
   91.4410   96.8560  -42.9810 C   0  0  0  0  0  0  0  0  0  0  0  0
   91.8210   95.7450  -42.2560 C   0  0  0  0  0  3  0  0  0  0  0  0
   91.9620   94.4840  -42.7780 C   0  0  0  0  0  0  0  0  0  0  0  0
   92.3200   93.5340  -42.0060 O   0  0  0  0  0  0  0  0  0  0  0  0
   91.7190   94.2740  -44.1050 N   0  0  0  0  0  0  0  0  0  0  0  0
   91.8130   93.1590  -44.7120 N   0  0  0  0  0  0  0  0  0  0  0  0
   91.5670   93.0290  -45.9820 C   0  0  0  0  0  0  0  0  0  0  0  0
   91.1550   94.6620  -46.3650 S   0  0  0  0  0  0  0  0  0  0  0  0
   91.3520   95.3510  -44.8040 C   0  0  0  0  0  0  0  0  0  0  0  0
   91.2130   96.5910  -44.2860 N   0  0  0  0  0  0  0  0  0  0  0  0
   91.3020   98.1980  -42.3670 C   0  0  0  0  0  2  0  0  0  0  0  0
   90.3230   98.9390  -43.0960 N   0  0  0  0  0  0  0  0  0  0  0  0
   90.7540  100.1360  -43.6990 C   0  0  0  0  0  2  0  0  0  0  0  0
   89.7340  100.5430  -44.7680 C   0  0  0  0  0  2  0  0  0  0  0  0
   88.4390  100.5400  -44.2430 N   0  0  0  0  0  0  0  0  0  0  0  0
   88.3740  100.3160  -42.8590 C   0  0  0  0  0  2  0  0  0  0  0  0
   89.0390   99.0040  -42.5100 C   0  0  0  0  0  2  0  0  0  0  0  0
   87.1150  100.2830  -45.2080 S   0  0  0  0  0  0  0  0  0  0  0  0
   87.5330   99.4070  -46.3850 O   0  0  0  0  0  0  0  0  0  0  0  0
   86.5130  101.5660  -45.7210 O   0  0  0  0  0  0  0  0  0  0  0  0
   85.8830   99.3700  -44.3660 C   0  0  0  0  0  0  0  0  0  0  0  0
   84.6840   99.8370  -43.9180 N   0  0  0  0  0  0  0  0  0  0  0  0
   84.0030   98.8600  -43.3170 C   0  0  0  0  0  3  0  0  0  0  0  0
   84.7210   97.7290  -43.3490 N   0  0  0  0  0  0  0  0  0  0  0  0
   85.8760   98.0470  -43.9950 C   0  0  0  0  0  3  0  0  0  0  0  0
   84.4500   96.8100  -42.9630 H   0  0  0  0  0  0  0  0  0  0  0  0
   91.6090   91.8660  -46.8760 C   0  0  0  0  0  0  0  0  0  0  0  0
   90.5310   91.6280  -47.7030 C   0  0  0  0  0  3  0  0  0  0  0  0
   90.5100   90.5460  -48.5720 C   0  0  0  0  0  3  0  0  0  0  0  0
   91.5850   89.6830  -48.6170 C   0  0  0  0  0  0  0  0  0  0  0  0
   92.6780   89.9020  -47.7960 C   0  0  0  0  0  3  0  0  0  0  0  0
   91.5720   88.3270  -49.6970 Cl  0  0  0  0  0  0  0  0  0  0  0  0
   92.6530   90.9880  -46.9520 C   0  0  0  0  0  3  0  0  0  0  0  0
  1 11  1  0  0  0  0
  1  2  2  0  0  0  0
  3  2  1  0  0  0  0
  3  4  2  0  0  0  0
  5  3  1  0  0  0  0
  6  5  1  0  0  0  0
  7  6  2  0  0  0  0
  8  7  1  0  0  0  0
  8  9  1  0  0  0  0
  9 10  2  0  0  0  0
  9  5  1  0  0  0  0
 10  1  1  0  0  0  0
 12 17  1  0  0  0  0
 12 11  1  0  0  0  0
 13 12  1  0  0  0  0
 14 15  1  0  0  0  0
 14 13  1  0  0  0  0
 15 16  1  0  0  0  0
 16 17  1  0  0  0  0
 18 21  1  0  0  0  0
 18 15  1  0  0  0  0
 19 18  2  0  0  0  0
 20 18  2  0  0  0  0
 21 25  2  0  0  0  0
 21 22  1  0  0  0  0
 22 23  2  0  0  0  0
 24 23  1  0  0  0  0
 24 26  1  0  0  0  0
 25 24  1  0  0  0  0
 27  7  1  0  0  0  0
 28 27  2  0  0  0  0
 29 28  1  0  0  0  0
 30 29  2  0  0  0  0
 30 31  1  0  0  0  0
 31 33  2  0  0  0  0
 32 30  1  0  0  0  0
 33 27  1  0  0  0  0
M  END
>  <Pose>
1

>  <Score>
-7.006

$$$$
