/Users/jonathanwahrer/Desktop/Msc/3_Semester/Drug_Design_Praktikum/waehrer_HTS_screening/HTS_experiment/out/docking_results/vina_output/4agl/2285_docked.pdbqt
 OpenBabel03212201023D

 32 35  0  0  0  0  0  0  0  0999 V2000
   85.6390   99.6950  -44.6100 N   0  0  0  0  0  0  0  0  0  0  0  0
   86.0090   99.8160  -45.9890 C   0  0  0  0  0  2  0  0  0  0  0  0
   85.9580   98.4910  -46.7720 C   0  0  0  0  0  2  0  0  0  0  0  0
   86.7900   97.5690  -46.0650 N   0  0  0  0  0  0  0  0  0  0  0  0
   86.1560   97.2750  -44.8100 C   0  0  0  0  0  2  0  0  0  0  0  0
   86.3540   98.5230  -43.9940 C   0  0  0  0  0  2  0  0  0  0  0  0
   86.4080  101.0720  -43.7880 S   0  0  0  0  0  0  0  0  0  0  0  0
   86.2960  102.2620  -44.7220 O   0  0  0  0  0  0  0  0  0  0  0  0
   85.6630  101.3490  -42.5310 O   0  0  0  0  0  0  0  0  0  0  0  0
   88.0700  100.7800  -43.4560 C   0  0  0  0  0  0  0  0  0  0  0  0
   88.9600  101.2120  -44.4490 C   0  0  0  0  0  3  0  0  0  0  0  0
   90.3490  101.1480  -44.3180 C   0  0  0  0  0  0  0  0  0  0  0  0
   90.8730  100.6290  -43.1370 C   0  0  0  0  0  0  0  0  0  0  0  0
   91.1970  101.5810  -45.3230 O   0  0  0  0  0  0  0  0  0  0  0  0
   89.9820  100.2000  -42.1700 C   0  0  0  0  0  3  0  0  0  0  0  0
   92.2530  100.6010  -43.0720 O   0  0  0  0  0  0  0  0  0  0  0  0
   88.6020  100.2720  -42.3110 C   0  0  0  0  0  3  0  0  0  0  0  0
   92.9700  101.7320  -43.6370 C   0  0  0  0  0  2  0  0  0  0  0  0
   92.4090  102.1860  -44.9430 C   0  0  0  0  0  2  0  0  0  0  0  0
   87.5300   96.6390  -46.7740 C   0  0  0  0  0  2  0  0  0  0  0  0
   88.9520   96.5130  -46.4500 C   0  0  0  0  0  0  0  0  0  0  0  0
   89.6090   95.8000  -47.3310 O   0  0  0  0  0  0  0  0  0  0  0  0
   89.7060   97.0030  -45.4230 N   0  0  0  0  0  0  0  0  0  0  0  0
   89.3140   97.5710  -44.6000 H   0  0  0  0  0  0  0  0  0  0  0  0
   91.1610   96.8730  -45.3130 C   0  0  0  0  0  2  0  0  0  0  0  0
   91.4890   96.2270  -44.0260 C   0  0  0  0  0  0  0  0  0  0  0  0
   91.6690   94.8270  -43.9400 C   0  0  0  0  0  0  0  0  0  0  0  0
   91.8320   94.1830  -42.7730 C   0  0  0  0  0  3  0  0  0  0  0  0
   91.6980   93.8960  -45.4580 Cl  0  0  0  0  0  0  0  0  0  0  0  0
   91.8340   94.9090  -41.5410 C   0  0  0  0  0  3  0  0  0  0  0  0
   91.6560   96.2330  -41.6040 C   0  0  0  0  0  3  0  0  0  0  0  0
   91.4790   96.9280  -42.8060 C   0  0  0  0  0  3  0  0  0  0  0  0
  1  6  1  0  0  0  0
  1  7  1  0  0  0  0
  2  1  1  0  0  0  0
  3  4  1  0  0  0  0
  3  2  1  0  0  0  0
  4  5  1  0  0  0  0
  5  6  1  0  0  0  0
  7 10  1  0  0  0  0
  7  9  2  0  0  0  0
  8  7  2  0  0  0  0
 10 17  1  0  0  0  0
 11 12  1  0  0  0  0
 11 10  2  0  0  0  0
 12 13  2  0  0  0  0
 13 16  1  0  0  0  0
 13 15  1  0  0  0  0
 14 19  1  0  0  0  0
 14 12  1  0  0  0  0
 17 15  2  0  0  0  0
 18 16  1  0  0  0  0
 19 18  1  0  0  0  0
 20 21  1  0  0  0  0
 20  4  1  0  0  0  0
 21 23  1  0  0  0  0
 22 21  2  0  0  0  0
 23 25  1  0  0  0  0
 23 24  1  0  0  0  0
 25 26  1  0  0  0  0
 26 27  2  0  0  0  0
 26 32  1  0  0  0  0
 27 28  1  0  0  0  0
 28 30  2  0  0  0  0
 29 27  1  0  0  0  0
 31 30  1  0  0  0  0
 32 31  2  0  0  0  0
M  END
>  <Pose>
1

>  <Score>
-6.125

$$$$
