/Users/jonathanwahrer/Desktop/Msc/3_Semester/Drug_Design_Praktikum/waehrer_HTS_screening/HTS_experiment/out/docking_results/vina_output/4agl/2304_docked.pdbqt
 OpenBabel03212201033D

 28 31  0  0  1  0  0  0  0  0999 V2000
   90.3560   97.6880  -44.0410 N   0  0  0  0  0  0  0  0  0  0  0  0
   89.5360   98.6090  -44.7310 C   0  0  0  0  0  2  0  0  0  0  0  0
   89.4720   99.9850  -44.1210 C   0  0  0  0  0  2  0  0  0  0  0  0
   90.7510  100.4650  -43.6770 N   0  0  0  0  0  0  0  0  0  0  0  0
   91.8260   99.5060  -43.6200 C   0  0  0  0  0  2  0  0  0  0  0  0
   91.2340   98.2170  -43.0560 C   0  0  0  0  0  2  0  0  0  0  0  0
   90.9120  101.8130  -43.3170 C   0  0  0  0  0  0  0  0  0  0  0  0
   89.8940  102.5580  -43.3950 O   0  0  0  0  0  0  0  0  0  0  0  0
   92.1950  102.4100  -42.8550 C   0  0  2  0  0  3  0  0  0  0  0  0
   92.2670  102.4760  -41.4420 N   0  0  0  0  0  0  0  0  0  0  0  0
   91.7670  103.6660  -40.8330 C   0  0  2  0  0  0  0  0  0  0  0  0
   92.7160  101.6580  -40.3370 C   0  0  0  0  0  0  0  0  0  0  0  0
   92.1070  104.9250  -42.0810 S   0  0  0  0  0  0  0  0  0  0  0  0
   92.7420  103.8930  -39.6930 C   0  0  0  0  0  2  0  0  0  0  0  0
   90.3630  103.6310  -40.3780 C   0  0  0  0  0  1  0  0  0  0  0  0
   92.4490  103.7590  -43.4580 C   0  0  0  0  0  2  0  0  0  0  0  0
   92.7780  102.4690  -39.1240 C   0  0  0  0  0  2  0  0  0  0  0  0
   93.0180  100.4270  -40.3740 O   0  0  0  0  0  0  0  0  0  0  0  0
   90.9760   96.4110  -44.9710 S   0  0  0  0  0  0  0  0  0  0  0  0
   89.9260   95.8460  -45.8740 O   0  0  0  0  0  0  0  0  0  0  0  0
   92.0660   96.9570  -45.8610 O   0  0  0  0  0  0  0  0  0  0  0  0
   91.7140   95.1440  -43.9950 C   0  0  0  0  0  0  0  0  0  0  0  0
   91.7540   95.2520  -42.6220 C   0  0  0  0  0  3  0  0  0  0  0  0
   92.3240   94.2820  -41.8310 C   0  0  0  0  0  3  0  0  0  0  0  0
   92.8860   93.1450  -42.3820 C   0  0  0  0  0  0  0  0  0  0  0  0
   92.8300   93.0650  -43.7640 C   0  0  0  0  0  3  0  0  0  0  0  0
   93.6200   91.8900  -41.4050 Cl  0  0  0  0  0  0  0  0  0  0  0  0
   92.2650   94.0250  -44.5660 C   0  0  0  0  0  3  0  0  0  0  0  0
  1  6  1  0  0  0  0
  2  3  1  0  0  0  0
  2  1  1  0  0  0  0
  3  4  1  0  0  0  0
  4  5  1  0  0  0  0
  4  7  1  0  0  0  0
  5  6  1  0  0  0  0
  8  7  2  0  0  0  0
  9  7  1  1  0  0  0
  9 10  1  0  0  0  0
 10 11  1  0  0  0  0
 10 12  1  0  0  0  0
 11 15  1  1  0  0  0
 11 14  1  0  0  0  0
 12 17  1  0  0  0  0
 13 11  1  0  0  0  0
 14 17  1  0  0  0  0
 16  9  1  0  0  0  0
 16 13  1  0  0  0  0
 18 12  2  0  0  0  0
 19  1  1  0  0  0  0
 19 22  1  0  0  0  0
 20 19  2  0  0  0  0
 21 19  2  0  0  0  0
 22 23  1  0  0  0  0
 23 24  2  0  0  0  0
 25 24  1  0  0  0  0
 25 27  1  0  0  0  0
 26 25  2  0  0  0  0
 28 22  2  0  0  0  0
 28 26  1  0  0  0  0
M  END
>  <Pose>
1

>  <Score>
-6.312

$$$$
