/Users/jonathanwahrer/Desktop/Msc/3_Semester/Drug_Design_Praktikum/waehrer_HTS_screening/HTS_experiment/out/docking_results/vina_output/4agl/2319_docked.pdbqt
 OpenBabel03212201033D

 33 36  0  0  0  0  0  0  0  0999 V2000
   90.1140   99.0740  -46.1710 N   0  0  0  0  0  0  0  0  0  0  0  0
   91.0280   99.9580  -46.7870 C   0  0  0  0  0  0  0  0  0  0  0  0
   92.0420   99.5180  -47.3670 O   0  0  0  0  0  0  0  0  0  0  0  0
   89.2490   99.3710  -45.6700 H   0  0  0  0  0  0  0  0  0  0  0  0
   90.8350  101.4430  -46.7780 C   0  0  0  0  0  2  0  0  0  0  0  0
   90.9590  101.9940  -45.4570 N   0  0  0  0  0  0  0  0  0  0  0  0
   89.8700  102.0680  -44.5460 C   0  0  0  0  0  0  0  0  0  0  0  0
   88.7570  101.6330  -44.9150 O   0  0  0  0  0  0  0  0  0  0  0  0
   91.8720  102.3670  -45.1070 H   0  0  0  0  0  0  0  0  0  0  0  0
   89.9820  102.6400  -43.1710 C   0  0  0  0  0  0  0  0  0  0  0  0
   91.2600  103.1440  -42.9180 O   0  0  0  0  0  0  0  0  0  0  0  0
   92.1820  102.5760  -42.0420 C   0  0  0  0  0  0  0  0  0  0  0  0
   91.6930  101.7010  -41.1080 C   0  0  0  0  0  0  0  0  0  0  0  0
   93.5150  102.8560  -42.0810 C   0  0  0  0  0  3  0  0  0  0  0  0
   92.5930  101.1180  -40.2160 C   0  0  0  0  0  3  0  0  0  0  0  0
   90.3540  101.4240  -41.0720 O   0  0  0  0  0  0  0  0  0  0  0  0
   93.9420  101.3910  -40.2430 C   0  0  0  0  0  3  0  0  0  0  0  0
   94.3980  102.2780  -41.1990 C   0  0  0  0  0  3  0  0  0  0  0  0
   89.4740  101.7130  -42.1230 C   0  0  0  0  0  3  0  0  0  0  0  0
   90.3840   97.7040  -46.2310 N   0  0  0  0  0  0  0  0  0  0  0  0
   90.8090   97.0360  -45.2250 C   0  0  0  0  0  0  0  0  0  0  0  0
   91.1390   95.6240  -45.1070 C   0  0  0  0  0  0  0  0  0  0  0  0
   91.0650   97.6140  -43.9010 C   0  0  0  0  0  0  0  0  0  0  0  0
   91.5680   95.3180  -43.8260 C   0  0  0  0  0  0  0  0  0  0  0  0
   91.1040   94.5820  -46.0080 C   0  0  0  0  0  3  0  0  0  0  0  0
   91.9420   94.0410  -43.4610 C   0  0  0  0  0  0  0  0  0  0  0  0
   91.5180   96.5410  -43.1000 N   0  0  0  0  0  0  0  0  0  0  0  0
   92.5350   93.6360  -41.6870 Br  0  0  0  0  0  0  0  0  0  0  0  0
   91.8960   93.0060  -44.3950 C   0  0  0  0  0  3  0  0  0  0  0  0
   91.4690   93.2950  -45.6800 C   0  0  0  0  0  0  0  0  0  0  0  0
   91.3980   91.8950  -46.9790 Br  0  0  0  0  0  0  0  0  0  0  0  0
   91.7820   96.6310  -42.1040 H   0  0  0  0  0  0  0  0  0  0  0  0
   90.8900   98.8300  -43.6200 O   0  0  0  0  0  0  0  0  0  0  0  0
  1  4  1  0  0  0  0
  2  5  1  0  0  0  0
  2  1  1  0  0  0  0
  3  2  2  0  0  0  0
  5  6  1  0  0  0  0
  6  9  1  0  0  0  0
  6  7  1  0  0  0  0
  7 10  1  0  0  0  0
  8  7  2  0  0  0  0
 10 11  1  0  0  0  0
 10 19  2  0  0  0  0
 11 12  1  0  0  0  0
 12 13  1  0  0  0  0
 13 16  1  0  0  0  0
 13 15  2  0  0  0  0
 14 12  2  0  0  0  0
 14 18  1  0  0  0  0
 17 15  1  0  0  0  0
 18 17  2  0  0  0  0
 19 16  1  0  0  0  0
 20  1  1  0  0  0  0
 20 21  2  0  0  0  0
 21 22  1  0  0  0  0
 21 23  1  0  0  0  0
 22 24  1  0  0  0  0
 23 33  2  0  0  0  0
 23 27  1  0  0  0  0
 24 26  2  0  0  0  0
 24 27  1  0  0  0  0
 25 30  1  0  0  0  0
 25 22  2  0  0  0  0
 26 28  1  0  0  0  0
 27 32  1  0  0  0  0
 29 26  1  0  0  0  0
 30 29  2  0  0  0  0
 31 30  1  0  0  0  0
M  END
>  <Pose>
1

>  <Score>
-7.057

$$$$
