/Users/jonathanwahrer/Desktop/Msc/3_Semester/Drug_Design_Praktikum/waehrer_HTS_screening/HTS_experiment/out/docking_results/vina_output/4agl/2330_docked.pdbqt
 OpenBabel03212201043D

 28 31  0  0  0  0  0  0  0  0999 V2000
   90.7870   97.1990  -45.4000 C   0  0  0  0  0  0  0  0  0  0  0  0
   89.5710   97.4970  -45.4490 O   0  0  0  0  0  0  0  0  0  0  0  0
   91.7410   98.1530  -45.7590 N   0  0  0  0  0  0  0  0  0  0  0  0
   92.7580   97.7970  -45.6700 H   0  0  0  0  0  0  0  0  0  0  0  0
   91.1280   95.8340  -44.9580 C   0  0  0  0  0  0  0  0  0  0  0  0
   91.5110   95.5620  -43.6610 C   0  0  0  0  0  0  0  0  0  0  0  0
   91.5800   96.9080  -42.5340 Cl  0  0  0  0  0  0  0  0  0  0  0  0
   91.8340   94.2730  -43.2440 C   0  0  0  0  0  3  0  0  0  0  0  0
   91.7680   93.2500  -44.1530 C   0  0  0  0  0  3  0  0  0  0  0  0
   91.3850   93.4740  -45.4800 C   0  0  0  0  0  0  0  0  0  0  0  0
   91.0810   94.7650  -45.8260 C   0  0  0  0  0  3  0  0  0  0  0  0
   91.3290   92.3590  -46.4140 C   0  0  0  0  0  0  0  0  0  0  0  0
   91.8580   91.1360  -46.3110 N   0  0  0  0  0  0  0  0  0  0  0  0
   91.5510   90.4340  -47.4130 N   0  0  0  0  0  0  0  0  0  0  0  0
   90.8330   91.2070  -48.2080 N   0  0  0  0  0  0  0  0  0  0  0  0
   91.8230   89.4460  -47.6260 H   0  0  0  0  0  0  0  0  0  0  0  0
   90.6950   92.3850  -47.5970 N   0  0  0  0  0  0  0  0  0  0  0  0
   91.6030   99.4770  -46.2100 C   0  0  0  0  0  2  0  0  0  0  0  0
   91.9500  100.6130  -45.3470 C   0  0  0  0  0  2  0  0  0  0  0  0
   91.5700  100.5920  -43.9370 C   0  0  0  0  0  0  0  0  0  0  0  0
   92.2500  101.0890  -42.8990 N   0  0  0  0  0  0  0  0  0  0  0  0
   91.5330  100.8980  -41.8020 C   0  0  0  0  0  0  0  0  0  0  0  0
   93.4490  101.6990  -42.8250 C   0  0  0  0  0  3  0  0  0  0  0  0
   90.4010  100.2790  -42.1590 N   0  0  0  0  0  0  0  0  0  0  0  0
   91.9630  101.3020  -40.5560 C   0  0  0  0  0  3  0  0  0  0  0  0
   90.4270  100.0960  -43.4510 N   0  0  0  0  0  0  0  0  0  0  0  0
   93.1950  101.9270  -40.4810 C   0  0  0  0  0  3  0  0  0  0  0  0
   93.9280  102.1200  -41.6200 C   0  0  0  0  0  3  0  0  0  0  0  0
  1  5  1  0  0  0  0
  2  1  2  0  0  0  0
  3  4  1  0  0  0  0
  3  1  1  0  0  0  0
  5  6  1  0  0  0  0
  6  8  2  0  0  0  0
  6  7  1  0  0  0  0
  9  8  1  0  0  0  0
 10  9  2  0  0  0  0
 11 10  1  0  0  0  0
 11  5  2  0  0  0  0
 12 13  2  0  0  0  0
 12 10  1  0  0  0  0
 14 13  1  0  0  0  0
 15 17  2  0  0  0  0
 15 14  1  0  0  0  0
 16 14  1  0  0  0  0
 17 12  1  0  0  0  0
 18  3  1  0  0  0  0
 18 19  1  0  0  0  0
 19 20  1  0  0  0  0
 20 26  2  0  0  0  0
 20 21  1  0  0  0  0
 21 23  1  0  0  0  0
 21 22  1  0  0  0  0
 22 25  1  0  0  0  0
 23 28  2  0  0  0  0
 24 22  2  0  0  0  0
 25 27  2  0  0  0  0
 26 24  1  0  0  0  0
 28 27  1  0  0  0  0
M  END
>  <Pose>
1

>  <Score>
-6.709

$$$$
