/Users/jonathanwahrer/Desktop/Msc/3_Semester/Drug_Design_Praktikum/waehrer_HTS_screening/HTS_experiment/out/docking_results/vina_output/4agl/2345_docked.pdbqt
 OpenBabel03212201053D

 27 30  0  0  1  0  0  0  0  0999 V2000
   91.6480  101.1570  -43.4570 C   0  0  0  0  0  0  0  0  0  0  0  0
   90.5370  101.7490  -43.1900 O   0  0  0  0  0  0  0  0  0  0  0  0
   91.5540   99.9710  -44.1930 N   0  0  0  0  0  0  0  0  0  0  0  0
   90.2540   99.4640  -44.6030 C   0  0  0  0  0  2  0  0  0  0  0  0
   90.0440   98.0460  -44.0810 C   0  0  0  0  0  2  0  0  0  0  0  0
   91.3000   97.3560  -44.0880 N   0  0  0  0  0  0  0  0  0  0  0  0
   92.3080   97.7710  -45.0160 C   0  0  0  0  0  2  0  0  0  0  0  0
   92.7070   99.1960  -44.5850 C   0  0  0  0  0  2  0  0  0  0  0  0
   92.8730  101.7930  -42.9580 C   0  0  2  0  0  3  0  0  0  0  0  0
   93.1970  101.5070  -41.5180 C   0  0  0  0  0  2  0  0  0  0  0  0
   93.0480  102.7690  -40.8030 N   0  0  0  0  0  0  0  0  0  0  0  0
   93.2760  103.7960  -41.7930 C   0  0  0  0  0  0  0  0  0  0  0  0
   92.9570  103.2720  -43.1410 C   0  0  0  0  0  2  0  0  0  0  0  0
   93.6920  104.9500  -41.4480 O   0  0  0  0  0  0  0  0  0  0  0  0
   92.7450  102.9710  -39.4270 C   0  0  0  0  0  0  0  0  0  0  0  0
   91.4550  103.1550  -38.9760 C   0  0  0  0  0  3  0  0  0  0  0  0
   91.1580  103.3560  -37.6410 C   0  0  0  0  0  3  0  0  0  0  0  0
   92.1600  103.3760  -36.7080 C   0  0  0  0  0  0  0  0  0  0  0  0
   91.7990  103.6300  -35.0010 Cl  0  0  0  0  0  0  0  0  0  0  0  0
   93.4520  103.1960  -37.1190 C   0  0  0  0  0  3  0  0  0  0  0  0
   93.7430  102.9940  -38.4760 C   0  0  0  0  0  3  0  0  0  0  0  0
   91.5480   96.2930  -43.1940 C   0  0  0  0  0  0  0  0  0  0  0  0
   91.6220   94.9690  -43.5040 N   0  0  0  0  0  0  0  0  0  0  0  0
   91.8790   94.2740  -42.3870 C   0  0  0  0  0  3  0  0  0  0  0  0
   91.4460   94.3980  -44.8460 C   0  0  0  0  0  1  0  0  0  0  0  0
   91.9700   95.1610  -41.3410 C   0  0  0  0  0  3  0  0  0  0  0  0
   91.7660   96.3560  -41.8650 N   0  0  0  0  0  0  0  0  0  0  0  0
  1  2  2  0  0  0  0
  3  1  1  0  0  0  0
  4  3  1  0  0  0  0
  4  5  1  0  0  0  0
  6  5  1  0  0  0  0
  6 22  1  0  0  0  0
  7  8  1  0  0  0  0
  7  6  1  0  0  0  0
  8  3  1  0  0  0  0
  9  1  1  1  0  0  0
  9 10  1  0  0  0  0
 10 11  1  0  0  0  0
 11 15  1  0  0  0  0
 12 14  2  0  0  0  0
 12 11  1  0  0  0  0
 13  9  1  0  0  0  0
 13 12  1  0  0  0  0
 15 16  2  0  0  0  0
 15 21  1  0  0  0  0
 16 17  1  0  0  0  0
 17 18  2  0  0  0  0
 18 19  1  0  0  0  0
 20 18  1  0  0  0  0
 21 20  2  0  0  0  0
 22 27  2  0  0  0  0
 23 22  1  0  0  0  0
 23 24  1  0  0  0  0
 24 26  2  0  0  0  0
 25 23  1  0  0  0  0
 27 26  1  0  0  0  0
M  END
>  <Pose>
1

>  <Score>
-5.980

$$$$
