/Users/jonathanwahrer/Desktop/Msc/3_Semester/Drug_Design_Praktikum/waehrer_HTS_screening/HTS_experiment/out/docking_results/vina_output/4agl/2349_docked.pdbqt
 OpenBabel03212201053D

 28 31  0  0  1  0  0  0  0  0999 V2000
   91.3990   99.9000  -46.6420 N   0  0  0  0  0  0  0  0  0  0  0  0
   90.1030   99.9020  -47.2570 C   0  0  0  0  0  0  0  0  0  0  0  0
   89.8920  100.6790  -48.2300 O   0  0  0  0  0  0  0  0  0  0  0  0
   89.1380   99.0140  -46.7170 N   0  0  0  0  0  2  0  0  0  0  0  0
   89.3270   98.2390  -45.7440 C   0  0  0  0  0  0  0  0  0  0  0  0
   90.6050   98.1080  -44.9610 C   0  0  1  0  0  0  0  0  0  0  0  0
   90.2580   98.6070  -43.5870 C   0  0  0  0  0  2  0  0  0  0  0  0
   91.0470   98.1480  -42.5100 N   0  0  0  0  0  4  0  0  0  0  0  0
   91.4220   96.7840  -42.5470 C   0  0  0  0  0  0  0  0  0  0  0  0
   91.4000   96.1040  -43.7210 C   0  0  0  0  0  0  0  0  0  0  0  0
   91.7770   94.7630  -43.7180 C   0  0  0  0  0  3  0  0  0  0  0  0
   92.1590   94.1580  -42.5380 C   0  0  0  0  0  0  0  0  0  0  0  0
   92.1790   94.8540  -41.3390 C   0  0  0  0  0  3  0  0  0  0  0  0
   91.8000   96.1950  -41.3570 C   0  0  0  0  0  3  0  0  0  0  0  0
   92.5590   92.7150  -42.5000 C   0  0  0  0  0  1  0  0  0  0  0  0
   91.0070   96.6850  -45.0230 C   0  0  0  0  0  2  0  0  0  0  0  0
   92.2070   98.9660  -42.1910 C   0  0  0  0  0  1  0  0  0  0  0  0
   91.6170   99.0120  -45.5600 C   0  0  0  0  0  0  0  0  0  0  0  0
   92.8160   99.0350  -45.1030 O   0  0  0  0  0  0  0  0  0  0  0  0
   88.2930   97.3950  -45.2980 O   0  0  0  0  0  0  0  0  0  0  0  0
   90.4380   98.2260  -41.6330 H   0  0  0  0  0  0  0  0  0  0  0  0
   92.3550  100.8120  -47.1450 C   0  0  0  0  0  0  0  0  0  0  0  0
   92.5030  102.0900  -46.6040 C   0  0  0  0  0  3  0  0  0  0  0  0
   93.4250  102.9880  -47.0690 C   0  0  0  0  0  3  0  0  0  0  0  0
   94.2800  102.6750  -48.1270 C   0  0  0  0  0  0  0  0  0  0  0  0
   95.4600  103.8380  -48.7010 Cl  0  0  0  0  0  0  0  0  0  0  0  0
   94.1330  101.4110  -48.6640 C   0  0  0  0  0  3  0  0  0  0  0  0
   93.2070  100.5110  -48.1950 C   0  0  0  0  0  3  0  0  0  0  0  0
  1 18  1  0  0  0  0
  2  4  1  0  0  0  0
  2  1  1  0  0  0  0
  3  2  2  0  0  0  0
  4  5  1  0  0  0  0
  5 20  2  0  0  0  0
  5  6  1  0  0  0  0
  6 16  1  1  0  0  0
  6  7  1  0  0  0  0
  7  8  1  0  0  0  0
  8 17  1  0  0  0  0
  8 21  1  0  0  0  0
  9  8  1  0  0  0  0
  9 14  1  0  0  0  0
 10 11  1  0  0  0  0
 10  9  2  0  0  0  0
 11 12  2  0  0  0  0
 12 15  1  0  0  0  0
 12 13  1  0  0  0  0
 14 13  2  0  0  0  0
 16 10  1  0  0  0  0
 18 19  2  0  0  0  0
 18  6  1  0  0  0  0
 22  1  1  0  0  0  0
 22 23  1  0  0  0  0
 24 23  2  0  0  0  0
 25 24  1  0  0  0  0
 26 25  1  0  0  0  0
 27 28  1  0  0  0  0
 27 25  2  0  0  0  0
 28 22  2  0  0  0  0
M  END
>  <Pose>
1

>  <Score>
-6.739

$$$$
