/Users/jonathanwahrer/Desktop/Msc/3_Semester/Drug_Design_Praktikum/waehrer_HTS_screening/HTS_experiment/out/docking_results/vina_output/4agl/2350_docked.pdbqt
 OpenBabel03212201053D

 23 26  0  0  1  0  0  0  0  0999 V2000
   91.7570   96.7370  -44.1500 N   0  0  0  0  0  0  0  0  0  0  0  0
   92.1470   97.9700  -44.7770 C   0  0  0  0  0  0  0  0  0  0  0  0
   92.6700   98.0290  -45.9180 O   0  0  0  0  0  0  0  0  0  0  0  0
   91.8470   99.1250  -43.8950 C   0  0  1  0  0  3  0  0  0  0  0  0
   90.8240  100.0600  -44.4540 C   0  0  1  0  0  3  0  0  0  0  0  0
   89.8870   99.2400  -45.3160 C   0  0  1  0  0  3  0  0  0  0  0  0
   89.2260   98.3400  -44.2740 C   0  0  1  0  0  3  0  0  0  0  0  0
   89.7300   98.8170  -42.9320 C   0  0  1  0  0  3  0  0  0  0  0  0
   91.1660   98.4780  -42.6830 C   0  0  1  0  0  3  0  0  0  0  0  0
   91.4780   97.0320  -42.7910 C   0  0  0  0  0  0  0  0  0  0  0  0
   91.4860   96.2350  -41.8210 O   0  0  0  0  0  0  0  0  0  0  0  0
   89.8840  100.3180  -43.2650 C   0  0  0  0  0  2  0  0  0  0  0  0
   91.6470   95.4420  -44.7260 C   0  0  0  0  0  0  0  0  0  0  0  0
   90.8600   95.2350  -45.8650 C   0  0  0  0  0  3  0  0  0  0  0  0
   90.7430   93.9830  -46.4210 C   0  0  0  0  0  3  0  0  0  0  0  0
   91.3950   92.8910  -45.8800 C   0  0  0  0  0  0  0  0  0  0  0  0
   91.2240   91.2960  -46.6120 Cl  0  0  0  0  0  0  0  0  0  0  0  0
   92.1810   93.0700  -44.7510 C   0  0  0  0  0  3  0  0  0  0  0  0
   92.2800   94.3330  -44.2160 C   0  0  0  0  0  3  0  0  0  0  0  0
   88.9170  100.0870  -45.8090 O   0  0  0  0  0  0  0  0  0  0  0  0
   88.0760   99.6490  -46.0750 H   0  0  0  0  0  0  0  0  0  0  0  0
   87.8450   98.5270  -44.2560 O   0  0  0  0  0  0  0  0  0  0  0  0
   87.4240   97.6460  -44.4900 H   0  0  0  0  0  0  0  0  0  0  0  0
  1 10  1  0  0  0  0
  2  1  1  0  0  0  0
  3  2  2  0  0  0  0
  4  2  1  6  0  0  0
  4  9  1  0  0  0  0
  5  4  1  0  0  0  0
  5 12  1  1  0  0  0
  6 20  1  1  0  0  0
  6  5  1  0  0  0  0
  6  7  1  0  0  0  0
  7 22  1  1  0  0  0
  7  8  1  0  0  0  0
  8 12  1  6  0  0  0
  8  9  1  0  0  0  0
  9 10  1  6  0  0  0
 10 11  2  0  0  0  0
 13 19  1  0  0  0  0
 13  1  1  0  0  0  0
 14 13  2  0  0  0  0
 15 16  2  0  0  0  0
 15 14  1  0  0  0  0
 16 18  1  0  0  0  0
 17 16  1  0  0  0  0
 18 19  2  0  0  0  0
 21 20  1  0  0  0  0
 23 22  1  0  0  0  0
M  END
>  <Pose>
1

>  <Score>
-6.521

$$$$
