/Users/jonathanwahrer/Desktop/Msc/3_Semester/Drug_Design_Praktikum/waehrer_HTS_screening/HTS_experiment/out/docking_results/vina_output/4agl/2357_docked.pdbqt
 OpenBabel03212201053D

 36 39  0  0  1  0  0  0  0  0999 V2000
   91.2250   99.3700  -43.3540 C   0  0  2  0  0  3  0  0  0  0  0  0
   90.5120   98.4230  -42.7760 C   0  0  0  0  0  2  0  0  0  0  0  0
   91.4060   97.4890  -42.0460 C   0  0  2  0  0  3  0  0  0  0  0  0
   92.6100   98.2580  -41.8940 N   0  0  0  0  0  0  0  0  0  0  0  0
   92.5810   99.0980  -43.0180 N   0  0  0  0  0  0  0  0  0  0  0  0
   93.4660   97.7140  -41.8000 H   0  0  0  0  0  0  0  0  0  0  0  0
   93.4240   99.4540  -43.5100 H   0  0  0  0  0  0  0  0  0  0  0  0
   90.7300  100.5170  -44.1920 C   0  0  1  0  0  3  0  0  0  0  0  0
   91.5650  100.6660  -45.4050 C   0  0  0  0  0  0  0  0  0  0  0  0
   91.2410   99.9430  -46.5750 N   0  0  0  0  0  0  0  0  0  0  0  0
   92.5500  101.4300  -45.3810 O   0  0  0  0  0  0  0  0  0  0  0  0
   89.9740   99.3740  -46.7370 C   0  0  0  0  0  0  0  0  0  0  0  0
   91.9440   99.8130  -47.3600 H   0  0  0  0  0  0  0  0  0  0  0  0
   88.9810   99.5090  -45.7300 N   0  0  0  0  0  0  0  0  0  0  0  0
   89.6530   98.7150  -47.7860 O   0  0  0  0  0  0  0  0  0  0  0  0
   89.3220  100.2370  -44.5600 C   0  0  0  0  0  0  0  0  0  0  0  0
   88.4170  100.6570  -43.8180 O   0  0  0  0  0  0  0  0  0  0  0  0
   87.7000   98.9230  -45.9130 C   0  0  0  0  0  0  0  0  0  0  0  0
   87.4230   97.6800  -45.4040 C   0  0  0  0  0  3  0  0  0  0  0  0
   86.1870   97.0860  -45.5620 C   0  0  0  0  0  3  0  0  0  0  0  0
   85.1920   97.7380  -46.2440 C   0  0  0  0  0  0  0  0  0  0  0  0
   83.6000   96.9970  -46.4600 Cl  0  0  0  0  0  0  0  0  0  0  0  0
   85.4470   98.9850  -46.7630 C   0  0  0  0  0  3  0  0  0  0  0  0
   86.7070   99.5730  -46.5920 C   0  0  0  0  0  3  0  0  0  0  0  0
   91.5540   96.2710  -42.8330 C   0  0  0  0  0  0  0  0  0  0  0  0
   92.0180   95.1350  -42.2060 C   0  0  0  0  0  3  0  0  0  0  0  0
   92.1900   93.9340  -42.8620 C   0  0  0  0  0  0  0  0  0  0  0  0
   91.8740   93.8860  -44.2260 C   0  0  0  0  0  0  0  0  0  0  0  0
   91.4080   94.9950  -44.8980 C   0  0  0  0  0  0  0  0  0  0  0  0
   91.2610   96.1620  -44.1760 C   0  0  0  0  0  3  0  0  0  0  0  0
   92.6560   92.7830  -42.2390 O   0  0  0  0  0  0  0  0  0  0  0  0
   93.8410   92.9060  -41.4790 C   0  0  0  0  0  1  0  0  0  0  0  0
   92.0280   92.7100  -44.9260 O   0  0  0  0  0  0  0  0  0  0  0  0
   92.8480   92.1380  -44.7750 H   0  0  0  0  0  0  0  0  0  0  0  0
   91.1160   94.8950  -46.2260 O   0  0  0  0  0  0  0  0  0  0  0  0
   89.9570   95.3460  -46.8630 C   0  0  0  0  0  1  0  0  0  0  0  0
  1  5  1  0  0  0  0
  1  2  1  1  0  0  0
  2  3  1  0  0  0  0
  3 25  1  6  0  0  0
  3  4  1  0  0  0  0
  4  6  1  0  0  0  0
  5  4  1  0  0  0  0
  7  5  1  0  0  0  0
  8  9  1  6  0  0  0
  8  1  1  0  0  0  0
  9 11  2  0  0  0  0
 10  9  1  0  0  0  0
 12 10  1  0  0  0  0
 12 14  1  0  0  0  0
 13 10  1  0  0  0  0
 14 16  1  0  0  0  0
 15 12  2  0  0  0  0
 16  8  1  0  0  0  0
 16 17  2  0  0  0  0
 18 14  1  0  0  0  0
 18 19  1  0  0  0  0
 20 19  2  0  0  0  0
 21 20  1  0  0  0  0
 22 21  1  0  0  0  0
 23 24  1  0  0  0  0
 23 21  2  0  0  0  0
 24 18  2  0  0  0  0
 25 26  1  0  0  0  0
 27 31  1  0  0  0  0
 27 26  2  0  0  0  0
 28 27  1  0  0  0  0
 29 28  2  0  0  0  0
 29 30  1  0  0  0  0
 30 25  2  0  0  0  0
 31 32  1  0  0  0  0
 33 34  1  0  0  0  0
 33 28  1  0  0  0  0
 35 29  1  0  0  0  0
 36 35  1  0  0  0  0
M  END
>  <Pose>
1

>  <Score>
-6.790

$$$$
