/Users/jonathanwahrer/Desktop/Msc/3_Semester/Drug_Design_Praktikum/waehrer_HTS_screening/HTS_experiment/out/docking_results/vina_output/4agl/2358_docked.pdbqt
 OpenBabel03212201063D

 34 37  0  0  1  0  0  0  0  0999 V2000
   91.6920   95.8930  -43.7460 N   0  0  0  0  0  0  0  0  0  0  0  0
   91.8230   95.7940  -42.3340 C   0  0  0  0  0  0  0  0  0  0  0  0
   91.8220   94.6400  -41.8130 O   0  0  0  0  0  0  0  0  0  0  0  0
   91.9510   96.9420  -41.5210 N   0  0  0  0  0  0  0  0  0  0  0  0
   91.9530   98.2340  -42.0960 C   0  0  0  0  0  0  0  0  0  0  0  0
   92.2460   99.2720  -41.4050 O   0  0  0  0  0  0  0  0  0  0  0  0
   91.6210   98.4460  -43.5050 C   0  0  1  0  0  3  0  0  0  0  0  0
   91.6970   97.2060  -44.2880 C   0  0  0  0  0  0  0  0  0  0  0  0
   91.7770   97.2770  -45.5630 O   0  0  0  0  0  0  0  0  0  0  0  0
   92.0460   96.8470  -40.4760 H   0  0  0  0  0  0  0  0  0  0  0  0
   90.2900   99.1110  -43.6280 C   0  0  1  0  0  3  0  0  0  0  0  0
   89.7340   99.6140  -44.6980 C   0  0  0  0  0  2  0  0  0  0  0  0
   88.4140  100.1560  -44.2920 C   0  0  2  0  0  3  0  0  0  0  0  0
   88.5180  100.2870  -42.8540 N   0  0  0  0  0  0  0  0  0  0  0  0
   89.4240   99.2770  -42.5110 N   0  0  0  0  0  0  0  0  0  0  0  0
   88.8730  101.2340  -42.5810 H   0  0  0  0  0  0  0  0  0  0  0  0
   89.4160   98.7730  -41.5870 H   0  0  0  0  0  0  0  0  0  0  0  0
   87.3240   99.2050  -44.6460 C   0  0  0  0  0  0  0  0  0  0  0  0
   86.3660   98.8140  -43.7390 C   0  0  0  0  0  3  0  0  0  0  0  0
   85.3510   97.9300  -44.0570 C   0  0  0  0  0  0  0  0  0  0  0  0
   85.2700   97.4040  -45.3260 C   0  0  0  0  0  0  0  0  0  0  0  0
   86.2160   97.7830  -46.2460 C   0  0  0  0  0  3  0  0  0  0  0  0
   87.2240   98.6630  -45.9190 C   0  0  0  0  0  3  0  0  0  0  0  0
   84.4180   97.5750  -43.1020 O   0  0  0  0  0  0  0  0  0  0  0  0
   84.6550   96.9670  -42.3440 H   0  0  0  0  0  0  0  0  0  0  0  0
   84.2650   96.5210  -45.6650 O   0  0  0  0  0  0  0  0  0  0  0  0
   84.5130   95.5170  -46.6230 C   0  0  0  0  0  1  0  0  0  0  0  0
   91.5650   94.7570  -44.5900 C   0  0  0  0  0  0  0  0  0  0  0  0
   92.1860   93.5480  -44.2990 C   0  0  0  0  0  3  0  0  0  0  0  0
   92.0670   92.4560  -45.1040 C   0  0  0  0  0  3  0  0  0  0  0  0
   91.3020   92.5350  -46.2590 C   0  0  0  0  0  0  0  0  0  0  0  0
   91.1230   91.1520  -47.3220 Cl  0  0  0  0  0  0  0  0  0  0  0  0
   90.6690   93.7250  -46.5790 C   0  0  0  0  0  3  0  0  0  0  0  0
   90.8070   94.8310  -45.7370 C   0  0  0  0  0  3  0  0  0  0  0  0
  1  2  1  0  0  0  0
  2  3  2  0  0  0  0
  2  4  1  0  0  0  0
  4 10  1  0  0  0  0
  5  4  1  0  0  0  0
  5  6  2  0  0  0  0
  7  8  1  6  0  0  0
  7  5  1  0  0  0  0
  8  1  1  0  0  0  0
  9  8  2  0  0  0  0
 11 12  1  6  0  0  0
 11  7  1  0  0  0  0
 11 15  1  0  0  0  0
 12 13  1  0  0  0  0
 13 18  1  1  0  0  0
 13 14  1  0  0  0  0
 14 16  1  0  0  0  0
 14 15  1  0  0  0  0
 15 17  1  0  0  0  0
 18 19  1  0  0  0  0
 20 19  2  0  0  0  0
 20 24  1  0  0  0  0
 21 20  1  0  0  0  0
 22 23  1  0  0  0  0
 22 21  2  0  0  0  0
 23 18  2  0  0  0  0
 24 25  1  0  0  0  0
 26 21  1  0  0  0  0
 27 26  1  0  0  0  0
 28 29  1  0  0  0  0
 28  1  1  0  0  0  0
 30 29  2  0  0  0  0
 31 30  1  0  0  0  0
 32 31  1  0  0  0  0
 33 31  2  0  0  0  0
 33 34  1  0  0  0  0
 34 28  2  0  0  0  0
M  END
>  <Pose>
1

>  <Score>
-7.818

$$$$
