/Users/jonathanwahrer/Desktop/Msc/3_Semester/Drug_Design_Praktikum/waehrer_HTS_screening/HTS_experiment/out/docking_results/vina_output/4agl/2359_docked.pdbqt
 OpenBabel03212201063D

 32 35  0  0  1  0  0  0  0  0999 V2000
   91.6720   94.6590  -43.8040 N   0  0  0  0  0  0  0  0  0  0  0  0
   91.8980   93.9490  -42.5760 C   0  0  0  0  0  0  0  0  0  0  0  0
   91.9010   92.6800  -42.5360 O   0  0  0  0  0  0  0  0  0  0  0  0
   92.1170   94.7350  -41.4150 N   0  0  0  0  0  0  0  0  0  0  0  0
   92.1080   96.1790  -41.4890 C   0  0  0  0  0  0  0  0  0  0  0  0
   92.7270   96.7860  -40.6060 O   0  0  0  0  0  0  0  0  0  0  0  0
   91.3930   96.8310  -42.5690 C   0  0  2  0  0  3  0  0  0  0  0  0
   91.6740   96.0770  -43.8270 C   0  0  0  0  0  0  0  0  0  0  0  0
   91.9170   96.6260  -44.9320 O   0  0  0  0  0  0  0  0  0  0  0  0
   92.2830   94.2430  -40.5200 H   0  0  0  0  0  0  0  0  0  0  0  0
   91.5480   98.2600  -42.7190 C   0  0  2  0  0  3  0  0  0  0  0  0
   90.7010   99.2220  -42.4340 C   0  0  0  0  0  2  0  0  0  0  0  0
   91.2740  100.5550  -42.7470 C   0  0  2  0  0  3  0  0  0  0  0  0
   92.6640  100.2520  -42.9980 N   0  0  0  0  0  0  0  0  0  0  0  0
   92.7360   98.8840  -43.2500 N   0  0  0  0  0  0  0  0  0  0  0  0
   93.2930  100.5630  -42.2270 H   0  0  0  0  0  0  0  0  0  0  0  0
   93.5390   98.4440  -43.7470 H   0  0  0  0  0  0  0  0  0  0  0  0
   91.2150  101.4880  -41.6160 C   0  0  0  0  0  0  0  0  0  0  0  0
   90.2440  102.4780  -41.6360 C   0  0  0  0  0  3  0  0  0  0  0  0
   90.1610  103.3690  -40.5910 C   0  0  0  0  0  0  0  0  0  0  0  0
   91.0190  103.3060  -39.5180 C   0  0  0  0  0  3  0  0  0  0  0  0
   91.9880  102.3310  -39.4840 C   0  0  0  0  0  3  0  0  0  0  0  0
   92.0690  101.4300  -40.5460 C   0  0  0  0  0  3  0  0  0  0  0  0
   89.1830  104.3730  -40.5980 O   0  0  0  0  0  0  0  0  0  0  0  0
   89.4080  105.2720  -40.9860 H   0  0  0  0  0  0  0  0  0  0  0  0
   91.4470   93.8630  -44.9900 C   0  0  0  0  0  0  0  0  0  0  0  0
   91.9320   92.5740  -45.1000 C   0  0  0  0  0  3  0  0  0  0  0  0
   91.7370   91.7900  -46.2210 C   0  0  0  0  0  3  0  0  0  0  0  0
   91.0230   92.3060  -47.2930 C   0  0  0  0  0  0  0  0  0  0  0  0
   90.7940   91.2950  -48.6910 Cl  0  0  0  0  0  0  0  0  0  0  0  0
   90.5240   93.6030  -47.2060 C   0  0  0  0  0  3  0  0  0  0  0  0
   90.7400   94.3590  -46.0680 C   0  0  0  0  0  3  0  0  0  0  0  0
  1  2  1  0  0  0  0
  2  3  2  0  0  0  0
  2  4  1  0  0  0  0
  4 10  1  0  0  0  0
  5  4  1  0  0  0  0
  5  6  2  0  0  0  0
  7  8  1  6  0  0  0
  7  5  1  0  0  0  0
  8  1  1  0  0  0  0
  9  8  2  0  0  0  0
 11  7  1  0  0  0  0
 11 12  1  6  0  0  0
 13 12  1  0  0  0  0
 13 18  1  1  0  0  0
 14 13  1  0  0  0  0
 14 16  1  0  0  0  0
 15 14  1  0  0  0  0
 15 11  1  0  0  0  0
 17 15  1  0  0  0  0
 18 23  1  0  0  0  0
 19 18  2  0  0  0  0
 19 20  1  0  0  0  0
 20 21  2  0  0  0  0
 21 22  1  0  0  0  0
 23 22  2  0  0  0  0
 24 20  1  0  0  0  0
 25 24  1  0  0  0  0
 26  1  1  0  0  0  0
 27 26  1  0  0  0  0
 28 27  2  0  0  0  0
 29 31  2  0  0  0  0
 29 28  1  0  0  0  0
 30 29  1  0  0  0  0
 31 32  1  0  0  0  0
 32 26  2  0  0  0  0
M  END
>  <Pose>
1

>  <Score>
-8.260

$$$$
