/Users/jonathanwahrer/Desktop/Msc/3_Semester/Drug_Design_Praktikum/waehrer_HTS_screening/HTS_experiment/out/docking_results/vina_output/4agl/2361_docked.pdbqt
 OpenBabel03212201063D

 30 33  0  0  1  0  0  0  0  0999 V2000
   87.7460   98.2420  -45.5020 N   0  0  0  0  0  0  0  0  0  0  0  0
   86.8210   98.0080  -44.4550 C   0  0  0  0  0  0  0  0  0  0  0  0
   86.1550   96.9440  -44.4250 O   0  0  0  0  0  0  0  0  0  0  0  0
   86.6620   99.0080  -43.4330 N   0  0  0  0  0  0  0  0  0  0  0  0
   87.4140  100.2130  -43.4650 C   0  0  0  0  0  0  0  0  0  0  0  0
   87.0330  101.1980  -42.7840 O   0  0  0  0  0  0  0  0  0  0  0  0
   88.6270  100.2870  -44.2960 C   0  0  2  0  0  3  0  0  0  0  0  0
   88.4780   99.4540  -45.5030 C   0  0  0  0  0  0  0  0  0  0  0  0
   89.0260   99.8250  -46.5980 O   0  0  0  0  0  0  0  0  0  0  0  0
   85.9920   98.8780  -42.6450 H   0  0  0  0  0  0  0  0  0  0  0  0
   89.8360   99.8550  -43.5180 C   0  0  1  0  0  3  0  0  0  0  0  0
   90.9750   99.4020  -43.9720 C   0  0  0  0  0  2  0  0  0  0  0  0
   91.8640   99.1040  -42.8380 C   0  0  1  0  0  3  0  0  0  0  0  0
   91.2430   99.7670  -41.7260 N   0  0  0  0  0  0  0  0  0  0  0  0
   89.8970   99.8940  -42.1020 N   0  0  0  0  0  0  0  0  0  0  0  0
   91.6680  100.6760  -41.5200 H   0  0  0  0  0  0  0  0  0  0  0  0
   89.1290   99.9970  -41.3990 H   0  0  0  0  0  0  0  0  0  0  0  0
   91.8360   97.6320  -42.6380 C   0  0  0  0  0  0  0  0  0  0  0  0
   92.1530   97.0940  -41.4140 C   0  0  0  0  0  3  0  0  0  0  0  0
   92.1290   95.7450  -41.2240 N   0  0  0  0  0  0  0  0  0  0  0  0
   91.8020   94.8850  -42.2010 C   0  0  0  0  0  3  0  0  0  0  0  0
   91.4790   95.3910  -43.4400 C   0  0  0  0  0  3  0  0  0  0  0  0
   91.4990   96.7770  -43.6530 C   0  0  0  0  0  3  0  0  0  0  0  0
   87.9340   97.2650  -46.5540 C   0  0  0  0  0  0  0  0  0  0  0  0
   87.0510   97.1430  -47.6050 C   0  0  0  0  0  3  0  0  0  0  0  0
   87.2450   96.1990  -48.6070 C   0  0  0  0  0  3  0  0  0  0  0  0
   88.3310   95.3500  -48.5840 C   0  0  0  0  0  0  0  0  0  0  0  0
   88.5810   94.1580  -49.8480 Cl  0  0  0  0  0  0  0  0  0  0  0  0
   89.2110   95.4740  -47.5300 C   0  0  0  0  0  3  0  0  0  0  0  0
   89.0170   96.4140  -46.5340 C   0  0  0  0  0  3  0  0  0  0  0  0
  1  2  1  0  0  0  0
  2  3  2  0  0  0  0
  2  4  1  0  0  0  0
  4 10  1  0  0  0  0
  5  4  1  0  0  0  0
  5  6  2  0  0  0  0
  7  8  1  6  0  0  0
  7 11  1  0  0  0  0
  7  5  1  0  0  0  0
  8  1  1  0  0  0  0
  9  8  2  0  0  0  0
 11 12  1  6  0  0  0
 11 15  1  0  0  0  0
 12 13  1  0  0  0  0
 13 18  1  1  0  0  0
 13 14  1  0  0  0  0
 14 16  1  0  0  0  0
 15 14  1  0  0  0  0
 15 17  1  0  0  0  0
 18 19  1  0  0  0  0
 19 20  2  0  0  0  0
 21 20  1  0  0  0  0
 22 21  2  0  0  0  0
 23 22  1  0  0  0  0
 23 18  2  0  0  0  0
 24 30  1  0  0  0  0
 24  1  1  0  0  0  0
 25 24  2  0  0  0  0
 26 27  2  0  0  0  0
 26 25  1  0  0  0  0
 27 29  1  0  0  0  0
 28 27  1  0  0  0  0
 29 30  2  0  0  0  0
M  END
>  <Pose>
1

>  <Score>
-6.439

$$$$
