/Users/jonathanwahrer/Desktop/Msc/3_Semester/Drug_Design_Praktikum/waehrer_HTS_screening/HTS_experiment/out/docking_results/vina_output/4agl/2363_docked.pdbqt
 OpenBabel03212201063D

 33 36  0  0  1  0  0  0  0  0999 V2000
   91.4150   96.9220  -43.5710 N   0  0  0  0  0  0  0  0  0  0  0  0
   91.2980   96.4650  -44.9090 C   0  0  2  0  0  0  0  0  0  0  0  0
   91.4050   95.0230  -45.0710 C   0  0  0  0  0  0  0  0  0  0  0  0
   91.6920   94.1840  -44.0370 C   0  0  0  0  0  0  0  0  0  0  0  0
   91.8030   92.8000  -44.2710 C   0  0  0  0  0  3  0  0  0  0  0  0
   91.6320   92.2390  -45.5110 C   0  0  0  0  0  3  0  0  0  0  0  0
   91.3400   93.1070  -46.5510 C   0  0  0  0  0  3  0  0  0  0  0  0
   91.2320   94.4420  -46.3320 C   0  0  0  0  0  3  0  0  0  0  0  0
   91.8650   94.6610  -42.6920 N   0  0  0  0  0  0  0  0  0  0  0  0
   91.7160   96.0540  -42.5100 C   0  0  0  0  0  0  0  0  0  0  0  0
   91.8560   96.5570  -41.3470 O   0  0  0  0  0  0  0  0  0  0  0  0
   92.0860   93.9940  -41.9320 H   0  0  0  0  0  0  0  0  0  0  0  0
   92.4320   97.0450  -45.5810 O   0  0  0  0  0  0  0  0  0  0  0  0
   93.2500   96.8890  -45.0420 H   0  0  0  0  0  0  0  0  0  0  0  0
   90.1090   97.0280  -45.5980 C   0  0  0  0  0  0  0  0  0  0  0  0
   88.9880   96.5660  -45.3760 O   0  0  0  0  0  0  0  0  0  0  0  0
   90.3100   98.0920  -46.4980 N   0  0  0  0  0  0  0  0  0  0  0  0
   91.2680   98.4950  -46.6950 H   0  0  0  0  0  0  0  0  0  0  0  0
   89.2110   98.7220  -47.2300 C   0  0  0  0  0  2  0  0  0  0  0  0
   88.8300  100.0370  -46.6660 C   0  0  0  0  0  2  0  0  0  0  0  0
   87.8720  100.0500  -45.6290 N   0  0  0  0  0  0  0  0  0  0  0  0
   87.4360  101.2850  -45.1230 C   0  0  0  0  0  2  0  0  0  0  0  0
   86.2200  101.0420  -44.2240 C   0  0  0  0  0  2  0  0  0  0  0  0
   86.3480   99.8120  -43.5540 O   0  0  0  0  0  0  0  0  0  0  0  0
   86.1840   98.7410  -44.4290 C   0  0  0  0  0  2  0  0  0  0  0  0
   86.8150   99.1030  -45.7460 C   0  0  0  0  0  2  0  0  0  0  0  0
   91.2120   98.3460  -43.2720 C   0  0  0  0  0  0  0  0  0  0  0  0
   92.2200   99.2610  -43.4240 C   0  0  0  0  0  3  0  0  0  0  0  0
   92.0140  100.6070  -43.1380 C   0  0  0  0  0  3  0  0  0  0  0  0
   90.7780  101.0220  -42.6970 C   0  0  0  0  0  0  0  0  0  0  0  0
   90.5240  102.7340  -42.3360 Cl  0  0  0  0  0  0  0  0  0  0  0  0
   89.7470  100.1220  -42.5360 C   0  0  0  0  0  3  0  0  0  0  0  0
   89.9860   98.7910  -42.8300 C   0  0  0  0  0  3  0  0  0  0  0  0
  1 27  1  0  0  0  0
  1 10  1  0  0  0  0
  2 15  1  6  0  0  0
  2  1  1  0  0  0  0
  3  2  1  0  0  0  0
  3  4  1  0  0  0  0
  4  9  1  0  0  0  0
  5  4  2  0  0  0  0
  6  5  1  0  0  0  0
  7  8  1  0  0  0  0
  7  6  2  0  0  0  0
  8  3  2  0  0  0  0
  9 10  1  0  0  0  0
  9 12  1  0  0  0  0
 10 11  2  0  0  0  0
 13 14  1  0  0  0  0
 13  2  1  0  0  0  0
 15 16  2  0  0  0  0
 17 15  1  0  0  0  0
 18 17  1  0  0  0  0
 19 20  1  0  0  0  0
 19 17  1  0  0  0  0
 20 21  1  0  0  0  0
 21 22  1  0  0  0  0
 22 23  1  0  0  0  0
 23 24  1  0  0  0  0
 25 24  1  0  0  0  0
 26 21  1  0  0  0  0
 26 25  1  0  0  0  0
 27 33  1  0  0  0  0
 28 27  2  0  0  0  0
 28 29  1  0  0  0  0
 29 30  2  0  0  0  0
 30 32  1  0  0  0  0
 30 31  1  0  0  0  0
 33 32  2  0  0  0  0
M  END
>  <Pose>
1

>  <Score>
-6.537

$$$$
