/Users/jonathanwahrer/Desktop/Msc/3_Semester/Drug_Design_Praktikum/waehrer_HTS_screening/HTS_experiment/out/docking_results/vina_output/4agl/2373_docked.pdbqt
 OpenBabel03212201083D

 28 31  0  0  1  0  0  0  0  0999 V2000
   89.4430   97.1020  -46.5760 N   0  0  0  0  0  0  0  0  0  0  0  0
   89.9590   98.0710  -45.8410 C   0  0  2  0  0  3  0  0  0  0  0  0
   90.7770   97.5680  -44.8780 N   0  0  0  0  0  0  0  0  0  0  0  0
   90.7790   96.2590  -44.9980 C   0  0  0  0  0  0  0  0  0  0  0  0
   89.9290   95.9640  -46.0840 C   0  0  0  0  0  3  0  0  0  0  0  0
   91.5200   98.3820  -43.9570 C   0  0  0  0  0  2  0  0  0  0  0  0
   90.5930   98.9550  -42.8870 C   0  0  0  0  0  2  0  0  0  0  0  0
   89.2780   99.2380  -43.6210 C   0  0  0  0  0  2  0  0  0  0  0  0
   89.5610  100.2360  -44.7090 C   0  0  0  0  0  2  0  0  0  0  0  0
   89.6340   99.5130  -46.0640 C   0  0  0  0  0  2  0  0  0  0  0  0
   88.5170   97.1370  -47.7120 C   0  0  0  0  0  2  0  0  0  0  0  0
   87.1530   96.8780  -47.2030 C   0  0  0  0  0  0  0  0  0  0  0  0
   86.5450   95.8560  -47.6640 O   0  0  0  0  0  0  0  0  0  0  0  0
   86.4840   97.7100  -46.2270 C   0  0  0  0  0  0  0  0  0  0  0  0
   86.2870   97.2050  -44.9360 C   0  0  0  0  0  3  0  0  0  0  0  0
   85.6540   97.9440  -43.9680 C   0  0  0  0  0  3  0  0  0  0  0  0
   85.1860   99.2090  -44.2190 C   0  0  0  0  0  0  0  0  0  0  0  0
   84.3730  100.2010  -43.0360 Cl  0  0  0  0  0  0  0  0  0  0  0  0
   85.3860   99.7000  -45.5000 C   0  0  0  0  0  3  0  0  0  0  0  0
   86.0190   98.9660  -46.4780 C   0  0  0  0  0  3  0  0  0  0  0  0
   91.4980   95.2300  -44.2400 C   0  0  0  0  0  0  0  0  0  0  0  0
   92.1020   94.1300  -44.7570 C   0  0  0  0  0  3  0  0  0  0  0  0
   92.7110   93.1500  -43.9730 C   0  0  0  0  0  3  0  0  0  0  0  0
   92.7260   93.2650  -42.6100 C   0  0  0  0  0  0  0  0  0  0  0  0
   92.1260   94.3690  -42.0550 C   0  0  0  0  0  3  0  0  0  0  0  0
   91.5270   95.3270  -42.8450 C   0  0  0  0  0  3  0  0  0  0  0  0
   93.3330   92.2930  -41.7960 O   0  0  0  0  0  0  0  0  0  0  0  0
   94.6620   92.3910  -41.3610 C   0  0  0  0  0  1  0  0  0  0  0  0
  1  5  1  0  0  0  0
  1  2  1  0  0  0  0
  2 10  1  1  0  0  0
  2  3  1  0  0  0  0
  3  6  1  0  0  0  0
  4  3  1  0  0  0  0
  4 21  1  0  0  0  0
  5  4  2  0  0  0  0
  6  7  1  0  0  0  0
  8  7  1  0  0  0  0
  9  8  1  0  0  0  0
 10  9  1  0  0  0  0
 11 12  1  0  0  0  0
 11  1  1  0  0  0  0
 12 14  1  0  0  0  0
 13 12  2  0  0  0  0
 14 15  1  0  0  0  0
 15 16  2  0  0  0  0
 17 16  1  0  0  0  0
 17 18  1  0  0  0  0
 19 17  2  0  0  0  0
 20 14  2  0  0  0  0
 20 19  1  0  0  0  0
 21 26  1  0  0  0  0
 22 21  2  0  0  0  0
 22 23  1  0  0  0  0
 23 24  2  0  0  0  0
 24 25  1  0  0  0  0
 24 27  1  0  0  0  0
 26 25  2  0  0  0  0
 27 28  1  0  0  0  0
M  END
>  <Pose>
1

>  <Score>
-5.976

$$$$
