/Users/jonathanwahrer/Desktop/Msc/3_Semester/Drug_Design_Praktikum/waehrer_HTS_screening/HTS_experiment/out/docking_results/vina_output/4agl/2375_docked.pdbqt
 OpenBabel03212201083D

 37 40  0  0  1  0  0  0  0  0999 V2000
   87.4760   96.3320  -47.7780 C   0  0  0  0  0  0  0  0  0  0  0  0
   87.7170   95.7850  -49.0810 C   0  0  0  0  0  1  0  0  0  0  0  0
   86.0520   96.3050  -47.2380 C   0  0  0  0  0  0  0  0  0  0  0  0
   85.5790   97.3680  -46.4310 N   0  0  0  0  0  0  0  0  0  0  0  0
   84.4360   97.3460  -45.5790 C   0  0  0  0  0  3  0  0  0  0  0  0
   86.1100   98.7210  -46.6890 C   0  0  0  0  0  2  0  0  0  0  0  0
   84.5320   98.1900  -44.3320 C   0  0  0  0  0  3  0  0  0  0  0  0
   85.7010   99.0720  -44.1990 C   0  0  1  0  0  0  0  0  0  0  0  0
   86.4030   99.4580  -45.4770 C   0  0  0  0  0  2  0  0  0  0  0  0
   85.3310   95.3520  -47.5210 O   0  0  0  0  0  0  0  0  0  0  0  0
   85.4180  100.3550  -43.5150 C   0  0  0  0  0  0  0  0  0  0  0  0
   84.2220  100.4260  -42.8170 C   0  0  0  0  0  3  0  0  0  0  0  0
   83.8500  101.5750  -42.1020 C   0  0  0  0  0  3  0  0  0  0  0  0
   84.6850  102.6680  -42.0800 C   0  0  0  0  0  0  0  0  0  0  0  0
   84.2400  104.1270  -41.1630 Cl  0  0  0  0  0  0  0  0  0  0  0  0
   85.8790  102.5960  -42.7770 C   0  0  0  0  0  3  0  0  0  0  0  0
   86.2210  101.4480  -43.4800 C   0  0  0  0  0  3  0  0  0  0  0  0
   86.6520   98.3820  -43.3870 O   0  0  0  0  0  0  0  0  0  0  0  0
   87.5010   98.2760  -43.8470 H   0  0  0  0  0  0  0  0  0  0  0  0
   88.4070   96.1760  -46.6860 N   0  0  0  0  0  4  0  0  0  0  0  0
   89.4680   97.0360  -46.4080 C   0  0  0  0  0  0  0  0  0  0  0  0
   89.5270   98.0180  -47.3770 O   0  0  0  0  0  0  0  0  0  0  0  0
   90.4570   97.2250  -45.4540 C   0  0  0  0  0  2  0  0  0  0  0  0
   88.2090   95.2650  -46.1510 H   0  0  0  0  0  0  0  0  0  0  0  0
   90.9830   96.9170  -44.3060 C   0  0  1  0  0  3  0  0  0  0  0  0
   91.0210   97.9300  -43.2420 N   0  0  0  0  0  0  0  0  0  0  0  0
   91.4750   97.6700  -41.9640 N   0  0  0  0  0  0  0  0  0  0  0  0
   90.6710   98.8880  -43.5140 H   0  0  0  0  0  0  0  0  0  0  0  0
   91.9360   96.4190  -41.5860 C   0  0  0  0  0  0  0  0  0  0  0  0
   91.4740   98.4480  -41.2490 H   0  0  0  0  0  0  0  0  0  0  0  0
   92.3640   96.1390  -40.4370 O   0  0  0  0  0  0  0  0  0  0  0  0
   91.9370   95.3300  -42.5920 C   0  0  0  0  0  0  0  0  0  0  0  0
   91.4740   95.6310  -43.8510 C   0  0  0  0  0  0  0  0  0  0  0  0
   92.3220   94.0730  -42.1940 C   0  0  0  0  0  3  0  0  0  0  0  0
   91.3980   94.5490  -44.7350 C   0  0  0  0  0  3  0  0  0  0  0  0
   91.7830   93.2740  -44.3480 C   0  0  0  0  0  3  0  0  0  0  0  0
   92.2490   93.0230  -43.0840 C   0  0  0  0  0  3  0  0  0  0  0  0
  1  3  1  0  0  0  0
  1 20  2  3  0  0  0
  2  1  1  0  0  0  0
  3  4  1  0  0  0  0
  4  5  1  0  0  0  0
  5  7  2  0  0  0  0
  6  4  1  0  0  0  0
  6  9  1  0  0  0  0
  7  8  1  0  0  0  0
  8 11  1  0  0  0  0
  8 18  1  1  0  0  0
  9  8  1  0  0  0  0
 10  3  2  0  0  0  0
 11 17  2  0  0  0  0
 11 12  1  0  0  0  0
 12 13  2  0  0  0  0
 13 14  1  0  0  0  0
 14 15  1  0  0  0  0
 16 14  2  0  0  0  0
 17 16  1  0  0  0  0
 19 18  1  0  0  0  0
 20 21  1  0  0  0  0
 20 24  1  0  0  0  0
 21 23  1  0  0  0  0
 22 21  2  0  0  0  0
 25 23  1  1  0  0  0
 25 33  1  0  0  0  0
 25 26  1  0  0  0  0
 26 27  1  0  0  0  0
 27 29  1  0  0  0  0
 27 30  1  0  0  0  0
 28 26  1  0  0  0  0
 29 31  2  0  0  0  0
 32 34  1  0  0  0  0
 32 29  1  0  0  0  0
 33 32  2  0  0  0  0
 35 36  2  0  0  0  0
 35 33  1  0  0  0  0
 36 37  1  0  0  0  0
 37 34  2  0  0  0  0
M  END
>  <Pose>
1

>  <Score>
-7.412

$$$$
