/Users/jonathanwahrer/Desktop/Msc/3_Semester/Drug_Design_Praktikum/waehrer_HTS_screening/HTS_experiment/out/docking_results/vina_output/4agl/2377_docked.pdbqt
 OpenBabel03212201093D

 33 36  0  0  0  0  0  0  0  0999 V2000
   86.2980   97.2660  -46.7700 N   0  0  0  0  0  0  0  0  0  0  0  0
   85.8400   96.8290  -45.4540 C   0  0  0  0  0  2  0  0  0  0  0  0
   86.4650   97.6360  -44.3390 C   0  0  0  0  0  2  0  0  0  0  0  0
   86.9850   98.8540  -44.9110 N   0  0  0  0  0  0  0  0  0  0  0  0
   86.1170   99.5260  -45.8610 C   0  0  0  0  0  2  0  0  0  0  0  0
   86.1130   98.6780  -47.1310 C   0  0  0  0  0  2  0  0  0  0  0  0
   88.2470   99.4010  -44.6010 C   0  0  0  0  0  0  0  0  0  0  0  0
   88.6010  100.4650  -45.1540 O   0  0  0  0  0  0  0  0  0  0  0  0
   86.9300   96.3540  -47.6360 C   0  0  0  0  0  0  0  0  0  0  0  0
   86.2530   95.5280  -48.5070 C   0  0  0  0  0  0  0  0  0  0  0  0
   84.5080   95.5720  -48.4890 Cl  0  0  0  0  0  0  0  0  0  0  0  0
   86.9450   94.6700  -49.3660 C   0  0  0  0  0  0  0  0  0  0  0  0
   88.2810   94.5980  -49.3950 N   0  0  0  0  0  0  0  0  0  0  0  0
   86.2580   93.9480  -50.1310 O   0  0  0  0  0  0  0  0  0  0  0  0
   88.9220   95.3900  -48.5600 N   0  0  0  0  0  0  0  0  0  0  0  0
   88.3260   96.2410  -47.7050 C   0  0  0  0  0  3  0  0  0  0  0  0
   88.9930   93.7260  -50.2680 C   0  0  0  0  0  0  0  0  0  0  0  0
   89.3850   92.4540  -49.8790 C   0  0  0  0  0  3  0  0  0  0  0  0
   90.0740   91.5960  -50.7120 C   0  0  0  0  0  3  0  0  0  0  0  0
   90.3830   92.0310  -51.9840 C   0  0  0  0  0  3  0  0  0  0  0  0
   90.0080   93.2940  -52.4040 C   0  0  0  0  0  3  0  0  0  0  0  0
   89.3090   94.1410  -51.5360 C   0  0  0  0  0  3  0  0  0  0  0  0
   89.1920   98.7780  -43.6420 C   0  0  0  0  0  2  0  0  0  0  0  0
   90.2350   97.9630  -44.3710 C   0  0  0  0  0  2  0  0  0  0  0  0
   91.3180   97.4690  -43.4580 C   0  0  0  0  0  2  0  0  0  0  0  0
   91.4950   96.0340  -43.4790 N   0  0  0  0  0  0  0  0  0  0  0  0
   91.5320   95.2140  -44.6330 C   0  0  0  0  0  0  0  0  0  0  0  0
   91.4140   95.6010  -45.8440 O   0  0  0  0  0  0  0  0  0  0  0  0
   91.7230   93.8580  -44.2940 N   0  0  0  0  0  0  0  0  0  0  0  0
   91.8050   93.7590  -42.8530 C   0  0  0  0  0  2  0  0  0  0  0  0
   91.8220   92.7450  -45.2160 C   0  0  0  0  0  1  0  0  0  0  0  0
   91.6700   95.1500  -42.3670 C   0  0  0  0  0  0  0  0  0  0  0  0
   91.7020   95.5100  -41.1710 O   0  0  0  0  0  0  0  0  0  0  0  0
  1  2  1  0  0  0  0
  2  3  1  0  0  0  0
  4  7  1  0  0  0  0
  4  3  1  0  0  0  0
  5  4  1  0  0  0  0
  6  1  1  0  0  0  0
  6  5  1  0  0  0  0
  7 23  1  0  0  0  0
  8  7  2  0  0  0  0
  9  1  1  0  0  0  0
 10 11  1  0  0  0  0
 10  9  2  0  0  0  0
 12 10  1  0  0  0  0
 13 12  1  0  0  0  0
 13 15  1  0  0  0  0
 14 12  2  0  0  0  0
 15 16  2  0  0  0  0
 16  9  1  0  0  0  0
 17 18  1  0  0  0  0
 17 13  1  0  0  0  0
 19 18  2  0  0  0  0
 20 19  1  0  0  0  0
 21 20  2  0  0  0  0
 21 22  1  0  0  0  0
 22 17  2  0  0  0  0
 24 23  1  0  0  0  0
 24 25  1  0  0  0  0
 26 25  1  0  0  0  0
 26 32  1  0  0  0  0
 27 29  1  0  0  0  0
 27 26  1  0  0  0  0
 28 27  2  0  0  0  0
 29 30  1  0  0  0  0
 30 32  1  0  0  0  0
 31 29  1  0  0  0  0
 32 33  2  0  0  0  0
M  END
>  <Pose>
1

>  <Score>
-6.306

$$$$
