/Users/jonathanwahrer/Desktop/Msc/3_Semester/Drug_Design_Praktikum/waehrer_HTS_screening/HTS_experiment/out/docking_results/vina_output/4agl/2380_docked.pdbqt
 OpenBabel03212201093D

 27 30  0  0  1  0  0  0  0  0999 V2000
   89.9900  100.0530  -45.4190 Cl  0  0  0  0  0  0  0  0  0  0  0  0
   90.7250   98.7930  -44.4330 C   0  0  0  0  0  0  0  0  0  0  0  0
   91.2170   99.1510  -43.2010 C   0  0  0  0  0  0  0  0  0  0  0  0
   91.7900   98.1360  -42.4510 C   0  0  0  0  0  3  0  0  0  0  0  0
   91.8410   96.8840  -42.9380 N   0  0  0  0  0  0  0  0  0  0  0  0
   91.3710   96.5270  -44.1220 N   0  0  0  0  0  0  0  0  0  0  0  0
   90.8090   97.4880  -44.8760 C   0  0  0  0  0  0  0  0  0  0  0  0
   90.3370   97.2200  -46.0170 O   0  0  0  0  0  0  0  0  0  0  0  0
   91.1230  100.4910  -42.7680 N   0  0  0  0  0  0  0  0  0  0  0  0
   92.0550  101.5130  -43.2290 C   0  0  0  0  0  2  0  0  0  0  0  0
   92.8740  101.8930  -41.9800 C   0  0  0  0  0  2  0  0  0  0  0  0
   92.0030  102.2370  -40.9000 N   0  0  0  0  0  0  0  0  0  0  0  0
   90.5540  102.2680  -41.1900 C   0  0  0  0  0  2  0  0  0  0  0  0
   92.4570  102.5470  -39.5910 C   0  0  0  0  0  0  0  0  0  0  0  0
   90.1130  100.9730  -41.8440 C   0  0  0  0  0  2  0  0  0  0  0  0
   91.6460  102.8470  -38.6640 O   0  0  0  0  0  0  0  0  0  0  0  0
   93.8820  102.5440  -39.2190 C   0  0  1  0  0  3  0  0  0  0  0  0
   94.5320  103.6140  -39.7530 O   0  0  0  0  0  0  0  0  0  0  0  0
   95.5510  103.9850  -38.8850 C   0  0  0  0  0  2  0  0  0  0  0  0
   94.8450  103.8740  -37.5400 C   0  0  0  0  0  2  0  0  0  0  0  0
   94.0840  102.5780  -37.7210 C   0  0  0  0  0  2  0  0  0  0  0  0
   91.4560   95.1710  -44.5860 C   0  0  0  0  0  0  0  0  0  0  0  0
   91.8530   94.1660  -43.7280 C   0  0  0  0  0  3  0  0  0  0  0  0
   91.9390   92.8410  -44.1660 C   0  0  0  0  0  3  0  0  0  0  0  0
   91.6290   92.5200  -45.4630 C   0  0  0  0  0  3  0  0  0  0  0  0
   91.2340   93.5090  -46.3270 C   0  0  0  0  0  3  0  0  0  0  0  0
   91.1530   94.8050  -45.8810 C   0  0  0  0  0  3  0  0  0  0  0  0
  1  2  1  0  0  0  0
  2  3  2  0  0  0  0
  3  9  1  0  0  0  0
  3  4  1  0  0  0  0
  5  4  2  0  0  0  0
  6  5  1  0  0  0  0
  7  2  1  0  0  0  0
  7  6  1  0  0  0  0
  8  7  2  0  0  0  0
  9 15  1  0  0  0  0
 10  9  1  0  0  0  0
 10 11  1  0  0  0  0
 11 12  1  0  0  0  0
 12 14  1  0  0  0  0
 13 12  1  0  0  0  0
 14 16  2  0  0  0  0
 15 13  1  0  0  0  0
 17 14  1  1  0  0  0
 17 21  1  0  0  0  0
 18 17  1  0  0  0  0
 18 19  1  0  0  0  0
 19 20  1  0  0  0  0
 21 20  1  0  0  0  0
 22  6  1  0  0  0  0
 22 23  1  0  0  0  0
 24 23  2  0  0  0  0
 25 24  1  0  0  0  0
 26 27  1  0  0  0  0
 26 25  2  0  0  0  0
 27 22  2  0  0  0  0
M  END
>  <Pose>
1

>  <Score>
-6.829

$$$$
