/Users/jonathanwahrer/Desktop/Msc/3_Semester/Drug_Design_Praktikum/waehrer_HTS_screening/HTS_experiment/out/docking_results/vina_output/4agl/2381_docked.pdbqt
 OpenBabel03212201093D

 30 33  0  0  0  0  0  0  0  0999 V2000
   92.0230  100.0890  -42.6790 N   0  0  0  0  0  0  0  0  0  0  0  0
   92.7030  100.5160  -43.8700 C   0  0  0  0  0  2  0  0  0  0  0  0
   92.0280   99.9840  -45.1150 C   0  0  0  0  0  2  0  0  0  0  0  0
   91.4560   98.6780  -44.9010 N   0  0  0  0  0  0  0  0  0  0  0  0
   91.8290   97.9430  -43.7170 C   0  0  0  0  0  2  0  0  0  0  0  0
   91.4390   98.7720  -42.5210 C   0  0  0  0  0  2  0  0  0  0  0  0
   90.5450   98.1360  -45.8430 C   0  0  0  0  0  0  0  0  0  0  0  0
   90.2110   98.7800  -46.8890 O   0  0  0  0  0  0  0  0  0  0  0  0
   91.9150  101.0100  -41.5920 C   0  0  0  0  0  0  0  0  0  0  0  0
   90.8980  101.9390  -41.5080 C   0  0  0  0  0  0  0  0  0  0  0  0
   89.6920  101.9940  -42.7730 Cl  0  0  0  0  0  0  0  0  0  0  0  0
   90.8620  102.7990  -40.4210 C   0  0  0  0  0  0  0  0  0  0  0  0
   91.7740  102.7780  -39.4320 N   0  0  0  0  0  0  0  0  0  0  0  0
   89.9460  103.6440  -40.3390 O   0  0  0  0  0  0  0  0  0  0  0  0
   92.7420  101.8810  -39.5280 N   0  0  0  0  0  0  0  0  0  0  0  0
   92.8340  101.0180  -40.5570 C   0  0  0  0  0  3  0  0  0  0  0  0
   91.6850  103.6930  -38.3360 C   0  0  0  0  0  0  0  0  0  0  0  0
   91.0490  103.3330  -37.1650 C   0  0  0  0  0  3  0  0  0  0  0  0
   90.9580  104.2090  -36.1020 C   0  0  0  0  0  3  0  0  0  0  0  0
   91.4940  105.4790  -36.1580 C   0  0  0  0  0  3  0  0  0  0  0  0
   92.1320  105.8440  -37.3260 C   0  0  0  0  0  3  0  0  0  0  0  0
   92.2190  104.9670  -38.3820 C   0  0  0  0  0  3  0  0  0  0  0  0
   89.9270   96.7940  -45.6710 C   0  0  0  0  0  2  0  0  0  0  0  0
   90.6510   95.7950  -46.3360 O   0  0  0  0  0  0  0  0  0  0  0  0
   91.1420   94.7050  -45.6440 C   0  0  0  0  0  0  0  0  0  0  0  0
   91.3620   93.4530  -46.0600 N   0  0  0  0  0  0  0  0  0  0  0  0
   91.8310   92.7340  -45.0940 O   0  0  0  0  0  0  0  0  0  0  0  0
   91.9560   93.4380  -43.9870 C   0  0  0  0  0  0  0  0  0  0  0  0
   91.5220   94.7080  -44.3090 C   0  0  0  0  0  3  0  0  0  0  0  0
   92.4660   92.8860  -42.7190 C   0  0  0  0  0  1  0  0  0  0  0  0
  1  6  1  0  0  0  0
  1  9  1  0  0  0  0
  2  1  1  0  0  0  0
  3  4  1  0  0  0  0
  3  2  1  0  0  0  0
  4  5  1  0  0  0  0
  5  6  1  0  0  0  0
  7 23  1  0  0  0  0
  7  4  1  0  0  0  0
  8  7  2  0  0  0  0
  9 10  2  0  0  0  0
  9 16  1  0  0  0  0
 10 12  1  0  0  0  0
 11 10  1  0  0  0  0
 12 14  2  0  0  0  0
 12 13  1  0  0  0  0
 13 17  1  0  0  0  0
 15 13  1  0  0  0  0
 16 15  2  0  0  0  0
 17 18  1  0  0  0  0
 18 19  2  0  0  0  0
 20 19  1  0  0  0  0
 21 20  2  0  0  0  0
 22 17  2  0  0  0  0
 22 21  1  0  0  0  0
 24 23  1  0  0  0  0
 24 25  1  0  0  0  0
 25 29  1  0  0  0  0
 26 25  2  0  0  0  0
 26 27  1  0  0  0  0
 27 28  1  0  0  0  0
 28 30  1  0  0  0  0
 29 28  2  0  0  0  0
M  END
>  <Pose>
1

>  <Score>
-6.185

$$$$
