/Users/jonathanwahrer/Desktop/Msc/3_Semester/Drug_Design_Praktikum/waehrer_HTS_screening/HTS_experiment/out/docking_results/vina_output/4agl/2386_docked.pdbqt
 OpenBabel03212201093D

 30 33  0  0  0  0  0  0  0  0999 V2000
   84.8550   99.8170  -43.6730 Cl  0  0  0  0  0  0  0  0  0  0  0  0
   86.5450  100.3100  -43.6760 C   0  0  0  0  0  0  0  0  0  0  0  0
   87.5000   99.3040  -43.5390 C   0  0  0  0  0  3  0  0  0  0  0  0
   88.8260   99.6730  -43.5400 C   0  0  0  0  0  0  0  0  0  0  0  0
   89.1820  101.0080  -43.6730 C   0  0  0  0  0  0  0  0  0  0  0  0
   88.2240  102.0050  -43.8090 C   0  0  0  0  0  3  0  0  0  0  0  0
   86.8920  101.6340  -43.8080 C   0  0  0  0  0  3  0  0  0  0  0  0
   90.4920  101.4580  -43.6830 O   0  0  0  0  0  0  0  0  0  0  0  0
   91.6330  100.9150  -43.0770 C   0  0  0  0  0  0  0  0  0  0  0  0
   92.0120   99.5450  -43.5050 C   0  0  0  0  0  2  0  0  0  0  0  0
   90.9730   98.7310  -44.0490 N   0  0  0  0  0  0  0  0  0  0  0  0
   89.6880   98.4710  -43.3870 C   0  0  0  0  0  2  0  0  0  0  0  0
   91.1760   98.1120  -45.3130 C   0  0  0  0  0  0  0  0  0  0  0  0
   92.2760   98.3190  -45.8750 O   0  0  0  0  0  0  0  0  0  0  0  0
   92.8140  101.8630  -43.3570 C   0  0  0  0  0  2  0  0  0  0  0  0
   92.3510  103.2430  -42.9770 C   0  0  0  0  0  2  0  0  0  0  0  0
   91.1040  103.2400  -42.3760 O   0  0  0  0  0  0  0  0  0  0  0  0
   91.0530  102.4320  -41.2540 C   0  0  0  0  0  2  0  0  0  0  0  0
   91.4640  101.0070  -41.5520 C   0  0  0  0  0  2  0  0  0  0  0  0
   90.1710   97.2690  -45.9420 C   0  0  0  0  0  2  0  0  0  0  0  0
   90.3400   95.8070  -45.8720 C   0  0  0  0  0  2  0  0  0  0  0  0
   91.6450   95.2370  -45.4980 C   0  0  0  0  0  2  0  0  0  0  0  0
   91.7500   94.3380  -44.4100 N   0  0  0  0  0  0  0  0  0  0  0  0
   91.7460   92.9250  -44.5050 C   0  0  0  0  0  0  0  0  0  0  0  0
   91.6600   92.2030  -45.5430 O   0  0  0  0  0  0  0  0  0  0  0  0
   91.8620   92.4180  -43.1870 N   0  0  0  0  0  0  0  0  0  0  0  0
   92.3130   93.4960  -42.3090 C   0  0  0  0  0  2  0  0  0  0  0  0
   91.6700   91.4520  -42.8570 H   0  0  0  0  0  0  0  0  0  0  0  0
   91.8660   94.6960  -43.0470 C   0  0  0  0  0  0  0  0  0  0  0  0
   91.6330   95.8430  -42.5190 O   0  0  0  0  0  0  0  0  0  0  0  0
  2  1  1  0  0  0  0
  2  3  1  0  0  0  0
  4  3  2  0  0  0  0
  4 12  1  0  0  0  0
  5  4  1  0  0  0  0
  6  7  1  0  0  0  0
  6  5  2  0  0  0  0
  7  2  2  0  0  0  0
  8  5  1  0  0  0  0
  8  9  1  0  0  0  0
  9 19  1  0  0  0  0
 10  9  1  0  0  0  0
 11 10  1  0  0  0  0
 11 12  1  0  0  0  0
 13 11  1  0  0  0  0
 14 13  2  0  0  0  0
 15  9  1  0  0  0  0
 15 16  1  0  0  0  0
 16 17  1  0  0  0  0
 17 18  1  0  0  0  0
 19 18  1  0  0  0  0
 20 21  1  0  0  0  0
 20 13  1  0  0  0  0
 21 22  1  0  0  0  0
 22 23  1  0  0  0  0
 23 29  1  0  0  0  0
 24 23  1  0  0  0  0
 24 26  1  0  0  0  0
 25 24  2  0  0  0  0
 26 28  1  0  0  0  0
 26 27  1  0  0  0  0
 29 30  2  0  0  0  0
 29 27  1  0  0  0  0
M  END
>  <Pose>
1

>  <Score>
-6.477

$$$$
