/Users/jonathanwahrer/Desktop/Msc/3_Semester/Drug_Design_Praktikum/waehrer_HTS_screening/HTS_experiment/out/docking_results/vina_output/4agl/2402_docked.pdbqt
 OpenBabel03212201103D

 33 36  0  0  1  0  0  0  0  0999 V2000
   90.4610   98.6530  -44.4770 C   0  0  2  0  0  3  0  0  0  0  0  0
   89.0520   98.7510  -44.7190 N   0  0  0  0  0  0  0  0  0  0  0  0
   88.7950   98.9660  -46.0980 C   0  0  0  0  0  0  0  0  0  0  0  0
   87.7190   98.9300  -46.7430 O   0  0  0  0  0  0  0  0  0  0  0  0
   90.0820   99.2720  -46.7650 C   0  0  0  0  0  0  0  0  0  0  0  0
   90.2590   99.5200  -47.9840 O   0  0  0  0  0  0  0  0  0  0  0  0
   91.0750   99.2210  -45.7090 C   0  0  0  0  0  0  0  0  0  0  0  0
   92.3420   99.6170  -45.8830 C   0  0  0  0  0  0  0  0  0  0  0  0
   93.1560   99.4600  -44.7540 O   0  0  0  0  0  1  0  0  0  0  0  0
   90.9350   97.3310  -44.1050 C   0  0  0  0  0  0  0  0  0  0  0  0
   91.3110   97.0870  -42.7970 C   0  0  0  0  0  3  0  0  0  0  0  0
   91.7640   95.8820  -42.3480 C   0  0  0  0  0  3  0  0  0  0  0  0
   91.8640   94.8340  -43.2160 C   0  0  0  0  0  0  0  0  0  0  0  0
   92.5040   93.1650  -42.5360 Br  0  0  0  0  0  0  0  0  0  0  0  0
   91.5060   95.0120  -44.5310 C   0  0  0  0  0  3  0  0  0  0  0  0
   91.0470   96.2560  -44.9600 C   0  0  0  0  0  3  0  0  0  0  0  0
   92.8460  100.1720  -47.1340 C   0  0  0  0  0  0  0  0  0  0  0  0
   93.3170   99.5940  -48.1850 O   0  0  0  0  0  0  0  0  0  0  0  0
   93.6860  100.4050  -49.1310 C   0  0  0  0  0  0  0  0  0  0  0  0
   93.4460  101.6980  -48.6930 C   0  0  0  0  0  0  0  0  0  0  0  0
   94.2280  100.2240  -50.3910 C   0  0  0  0  0  0  0  0  0  0  0  0
   92.9100  101.5220  -47.4160 C   0  0  0  0  0  3  0  0  0  0  0  0
   93.7490  102.7620  -49.5090 C   0  0  0  0  0  3  0  0  0  0  0  0
   94.2890  102.5610  -50.7580 C   0  0  0  0  0  3  0  0  0  0  0  0
   94.5330  101.2690  -51.2050 C   0  0  0  0  0  3  0  0  0  0  0  0
   94.4570   98.9290  -50.8060 O   0  0  0  0  0  0  0  0  0  0  0  0
   95.6280   98.4940  -51.4840 C   0  0  0  0  0  1  0  0  0  0  0  0
   88.0150   98.6500  -43.7290 C   0  0  0  0  0  2  0  0  0  0  0  0
   88.3230   99.5000  -42.5100 C   0  0  0  0  0  2  0  0  0  0  0  0
   87.5920  100.7200  -42.4660 N   0  0  0  0  0  4  0  0  0  0  0  0
   88.3220  101.8990  -42.8170 C   0  0  0  0  0  1  0  0  0  0  0  0
   86.3670  100.6220  -43.2480 C   0  0  0  0  0  1  0  0  0  0  0  0
   87.2750  100.8590  -41.4600 H   0  0  0  0  0  0  0  0  0  0  0  0
  1 10  1  6  0  0  0
  2  1  1  0  0  0  0
  2 28  1  0  0  0  0
  3  2  1  0  0  0  0
  4  3  2  0  0  0  0
  5  3  1  0  0  0  0
  5  7  1  0  0  0  0
  6  5  2  0  0  0  0
  7  1  1  0  0  0  0
  8  7  2  0  0  0  0
  8  9  1  0  0  0  0
 10 11  1  0  0  0  0
 11 12  2  0  0  0  0
 13 14  1  0  0  0  0
 13 12  1  0  0  0  0
 15 13  2  0  0  0  0
 16 15  1  0  0  0  0
 16 10  2  0  0  0  0
 17  8  1  0  0  0  0
 18 17  1  0  0  0  0
 19 20  1  0  0  0  0
 19 18  1  0  0  0  0
 20 22  1  0  0  0  0
 21 19  2  0  0  0  0
 22 17  2  0  0  0  0
 23 20  2  0  0  0  0
 24 23  1  0  0  0  0
 25 24  2  0  0  0  0
 25 21  1  0  0  0  0
 26 21  1  0  0  0  0
 27 26  1  0  0  0  0
 28 29  1  0  0  0  0
 29 30  1  0  0  0  0
 30 33  1  0  0  0  0
 31 30  1  0  0  0  0
 32 30  1  0  0  0  0
M  END
>  <Pose>
1

>  <Score>
-6.255

$$$$
