/Users/jonathanwahrer/Desktop/Msc/3_Semester/Drug_Design_Praktikum/waehrer_HTS_screening/HTS_experiment/out/docking_results/vina_output/4agl/2416_docked.pdbqt
 OpenBabel03212201103D

 34 37  0  0  1  0  0  0  0  0999 V2000
   85.1310   98.7530  -46.0820 N   0  0  0  0  0  0  0  0  0  0  0  0
   85.4750  100.0990  -46.1660 C   0  0  0  0  0  2  0  0  0  0  0  0
   85.9470  100.5800  -44.7870 C   0  0  0  0  0  2  0  0  0  0  0  0
   86.7760   99.5460  -44.1670 N   0  0  0  0  0  0  0  0  0  0  0  0
   86.1550   98.2480  -43.9950 C   0  0  0  0  0  2  0  0  0  0  0  0
   84.8410   98.2910  -44.7890 C   0  0  0  0  0  2  0  0  0  0  0  0
   88.1180   99.8320  -43.7880 C   0  0  0  0  0  0  0  0  0  0  0  0
   88.5470  100.9880  -44.0080 O   0  0  0  0  0  0  0  0  0  0  0  0
   88.9540   98.8060  -43.1660 C   0  0  0  0  0  2  0  0  0  0  0  0
   90.3500   98.6960  -43.7630 C   0  0  2  0  0  3  0  0  0  0  0  0
   90.4610   97.6870  -44.7820 N   0  0  0  0  0  0  0  0  0  0  0  0
   91.1340   96.4360  -44.8220 C   0  0  0  0  0  0  0  0  0  0  0  0
   89.9570   97.8710  -45.7060 H   0  0  0  0  0  0  0  0  0  0  0  0
   91.4240   95.9110  -45.9300 O   0  0  0  0  0  0  0  0  0  0  0  0
   91.5660   95.6200  -43.6670 C   0  0  0  0  0  0  0  0  0  0  0  0
   91.8480   96.0790  -42.3760 C   0  0  0  0  0  0  0  0  0  0  0  0
   91.6780   94.2800  -43.9380 C   0  0  0  0  0  3  0  0  0  0  0  0
   92.2300   95.1870  -41.4140 C   0  0  0  0  0  3  0  0  0  0  0  0
   91.7770   97.4270  -41.9370 N   0  0  0  0  0  0  0  0  0  0  0  0
   92.3530   93.8190  -41.6610 C   0  0  0  0  0  3  0  0  0  0  0  0
   92.0630   93.3920  -42.9580 C   0  0  0  0  0  3  0  0  0  0  0  0
   91.3400   98.5750  -42.6710 C   0  0  0  0  0  0  0  0  0  0  0  0
   92.0760   97.5830  -40.9750 H   0  0  0  0  0  0  0  0  0  0  0  0
   91.9250   99.6490  -42.2880 O   0  0  0  0  0  0  0  0  0  0  0  0
   84.7760   97.8430  -47.4210 S   0  0  0  0  0  0  0  0  0  0  0  0
   83.5910   96.9490  -47.1060 O   0  0  0  0  0  0  0  0  0  0  0  0
   84.3580   98.6560  -48.6290 O   0  0  0  0  0  0  0  0  0  0  0  0
   86.0860   96.7710  -47.9270 C   0  0  0  0  0  0  0  0  0  0  0  0
   87.3450   96.8630  -47.3810 C   0  0  0  0  0  3  0  0  0  0  0  0
   88.3350   96.0070  -47.8120 C   0  0  0  0  0  3  0  0  0  0  0  0
   88.1340   95.0410  -48.7800 C   0  0  0  0  0  0  0  0  0  0  0  0
   86.8610   94.9500  -49.3300 C   0  0  0  0  0  3  0  0  0  0  0  0
   89.3720   93.9600  -49.3260 Cl  0  0  0  0  0  0  0  0  0  0  0  0
   85.8750   95.8070  -48.8960 C   0  0  0  0  0  3  0  0  0  0  0  0
  1  6  1  0  0  0  0
  2  1  1  0  0  0  0
  2  3  1  0  0  0  0
  3  4  1  0  0  0  0
  4  5  1  0  0  0  0
  4  7  1  0  0  0  0
  6  5  1  0  0  0  0
  7  9  1  0  0  0  0
  8  7  2  0  0  0  0
 10  9  1  1  0  0  0
 10 22  1  0  0  0  0
 11 10  1  0  0  0  0
 12 11  1  0  0  0  0
 12 15  1  0  0  0  0
 13 11  1  0  0  0  0
 14 12  2  0  0  0  0
 15 16  1  0  0  0  0
 16 19  1  0  0  0  0
 16 18  2  0  0  0  0
 17 15  2  0  0  0  0
 17 21  1  0  0  0  0
 19 23  1  0  0  0  0
 20 18  1  0  0  0  0
 21 20  2  0  0  0  0
 22 24  2  0  0  0  0
 22 19  1  0  0  0  0
 25 26  2  0  0  0  0
 25  1  1  0  0  0  0
 27 25  2  0  0  0  0
 28 25  1  0  0  0  0
 28 29  1  0  0  0  0
 30 29  2  0  0  0  0
 31 30  1  0  0  0  0
 32 34  1  0  0  0  0
 32 31  2  0  0  0  0
 33 31  1  0  0  0  0
 34 28  2  0  0  0  0
M  END
>  <Pose>
1

>  <Score>
-6.991

$$$$
