/Users/jonathanwahrer/Desktop/Msc/3_Semester/Drug_Design_Praktikum/waehrer_HTS_screening/HTS_experiment/out/docking_results/vina_output/4agl/2417_docked.pdbqt
 OpenBabel03212201113D

 27 30  0  0  1  0  0  0  0  0999 V2000
   89.9670   98.9270  -44.4700 N   0  0  0  0  0  0  0  0  0  0  0  0
   90.2780  100.3380  -44.1450 C   0  0  0  0  0  2  0  0  0  0  0  0
   90.1690  100.3630  -42.6900 C   0  0  2  0  0  3  0  0  0  0  0  0
   88.8010   99.7270  -42.4980 C   0  0  2  0  0  3  0  0  0  0  0  0
   89.0460   98.5190  -43.4990 C   0  0  0  0  0  2  0  0  0  0  0  0
   91.2630   98.2350  -44.5510 C   0  0  0  0  0  2  0  0  0  0  0  0
   91.2340   96.7950  -44.5920 C   0  0  0  0  0  0  0  0  0  0  0  0
   91.5750   95.8570  -43.6430 C   0  0  0  0  0  0  0  0  0  0  0  0
   91.8480   95.9900  -42.3020 C   0  0  0  0  0  0  0  0  0  0  0  0
   91.5330   94.5820  -44.1580 C   0  0  0  0  0  0  0  0  0  0  0  0
   92.0280   97.6210  -41.6650 Cl  0  0  0  0  0  0  0  0  0  0  0  0
   92.0580   94.9070  -41.4920 C   0  0  0  0  0  3  0  0  0  0  0  0
   92.0080   93.6260  -42.0330 C   0  0  0  0  0  3  0  0  0  0  0  0
   91.7370   93.4720  -43.3960 C   0  0  0  0  0  3  0  0  0  0  0  0
   91.1770   94.7410  -45.4510 N   0  0  0  0  0  0  0  0  0  0  0  0
   90.9970   96.0100  -45.7050 N   0  0  0  0  0  0  0  0  0  0  0  0
   91.1300   93.6450  -46.4350 C   0  0  0  0  0  1  0  0  0  0  0  0
   90.2060  101.7280  -42.0500 C   0  0  0  0  0  2  0  0  0  0  0  0
   90.9070  101.6270  -40.8090 N   0  0  0  0  0  0  0  0  0  0  0  0
   92.2440  101.0920  -40.9560 C   0  0  0  0  0  2  0  0  0  0  0  0
   93.3270  102.0170  -40.4510 C   0  0  0  0  0  2  0  0  0  0  0  0
   93.1400  102.4430  -39.1560 O   0  0  0  0  0  0  0  0  0  0  0  0
   91.8000  102.6440  -38.8410 C   0  0  0  0  0  2  0  0  0  0  0  0
   91.0240  102.8810  -40.1010 C   0  0  0  0  0  2  0  0  0  0  0  0
   87.7230  100.5280  -43.1680 C   0  0  0  0  0  2  0  0  0  0  0  0
   86.6810  100.7790  -42.2370 O   0  0  0  0  0  0  0  0  0  0  0  0
   86.1160  101.5320  -42.6610 H   0  0  0  0  0  0  0  0  0  0  0  0
  1  2  1  0  0  0  0
  1  5  1  0  0  0  0
  2  3  1  0  0  0  0
  3  4  1  0  0  0  0
  3 18  1  6  0  0  0
  4 25  1  6  0  0  0
  5  4  1  0  0  0  0
  6  1  1  0  0  0  0
  7  6  1  0  0  0  0
  7  8  1  0  0  0  0
  8  9  1  0  0  0  0
  9 11  1  0  0  0  0
  9 12  2  0  0  0  0
 10  8  2  0  0  0  0
 10 14  1  0  0  0  0
 13 12  1  0  0  0  0
 14 13  2  0  0  0  0
 15 10  1  0  0  0  0
 16 15  1  0  0  0  0
 16  7  2  0  0  0  0
 17 15  1  0  0  0  0
 18 19  1  0  0  0  0
 19 24  1  0  0  0  0
 20 19  1  0  0  0  0
 20 21  1  0  0  0  0
 21 22  1  0  0  0  0
 22 23  1  0  0  0  0
 24 23  1  0  0  0  0
 25 26  1  0  0  0  0
 27 26  1  0  0  0  0
M  END
>  <Pose>
1

>  <Score>
-6.344

$$$$
