/Users/jonathanwahrer/Desktop/Msc/3_Semester/Drug_Design_Praktikum/waehrer_HTS_screening/HTS_experiment/out/docking_results/vina_output/4agl/2432_docked.pdbqt
 OpenBabel03212201113D

 26 29  0  0  0  0  0  0  0  0999 V2000
   89.9260  100.2420  -42.6850 C   0  0  0  0  0  0  0  0  0  0  0  0
   88.7580   99.9970  -42.1210 O   0  0  0  0  0  0  0  0  0  0  0  0
   90.0260  100.0070  -44.0480 N   0  0  0  0  0  0  0  0  0  0  0  0
   88.8360   99.4620  -44.7450 C   0  0  0  0  0  2  0  0  0  0  0  0
   89.2600   98.1320  -45.3090 C   0  0  0  0  0  2  0  0  0  0  0  0
   90.6500   97.8370  -45.1650 N   0  0  0  0  0  0  0  0  0  0  0  0
   91.7050   98.8390  -45.1760 C   0  0  0  0  0  2  0  0  0  0  0  0
   91.1200  100.2200  -44.9210 C   0  0  0  0  0  2  0  0  0  0  0  0
   90.9000  100.7210  -41.7390 C   0  0  0  0  0  0  0  0  0  0  0  0
   92.1420  100.3130  -41.4760 N   0  0  0  0  0  0  0  0  0  0  0  0
   92.7280  101.0670  -40.5050 C   0  0  0  0  0  0  0  0  0  0  0  0
   92.6840   99.5280  -41.8900 H   0  0  0  0  0  0  0  0  0  0  0  0
   94.3370  100.9120  -39.8320 Cl  0  0  0  0  0  0  0  0  0  0  0  0
   91.8310  102.0200  -40.1040 C   0  0  0  0  0  0  0  0  0  0  0  0
   90.7090  101.8010  -40.8670 C   0  0  0  0  0  3  0  0  0  0  0  0
   92.0840  103.2450  -38.8790 Cl  0  0  0  0  0  0  0  0  0  0  0  0
   91.0730   96.4900  -44.9970 C   0  0  0  0  0  0  0  0  0  0  0  0
   91.1200   95.6400  -46.0400 N   0  0  0  0  0  0  0  0  0  0  0  0
   91.5180   94.3540  -45.8970 C   0  0  0  0  0  3  0  0  0  0  0  0
   91.8830   93.8850  -44.6920 N   0  0  0  0  0  0  0  0  0  0  0  0
   91.8640   94.6690  -43.6020 C   0  0  0  0  0  0  0  0  0  0  0  0
   92.1740   94.4500  -42.3110 N   0  0  0  0  0  0  0  0  0  0  0  0
   91.4500   95.9950  -43.7670 C   0  0  0  0  0  0  0  0  0  0  0  0
   91.9710   95.5810  -41.6660 N   0  0  0  0  0  0  0  0  0  0  0  0
   92.6490   93.2070  -41.7010 C   0  0  0  0  0  1  0  0  0  0  0  0
   91.5320   96.5420  -42.5130 C   0  0  0  0  0  3  0  0  0  0  0  0
  1  2  2  0  0  0  0
  1  9  1  0  0  0  0
  3  1  1  0  0  0  0
  4  3  1  0  0  0  0
  5  6  1  0  0  0  0
  5  4  1  0  0  0  0
  6 17  1  0  0  0  0
  7  6  1  0  0  0  0
  7  8  1  0  0  0  0
  8  3  1  0  0  0  0
  9 10  1  0  0  0  0
  9 15  2  0  0  0  0
 10 11  1  0  0  0  0
 11 14  2  0  0  0  0
 11 13  1  0  0  0  0
 12 10  1  0  0  0  0
 14 16  1  0  0  0  0
 15 14  1  0  0  0  0
 17 23  1  0  0  0  0
 18 19  1  0  0  0  0
 18 17  2  0  0  0  0
 19 20  2  0  0  0  0
 20 21  1  0  0  0  0
 21 22  1  0  0  0  0
 22 25  1  0  0  0  0
 22 24  1  0  0  0  0
 23 21  2  0  0  0  0
 23 26  1  0  0  0  0
 26 24  2  0  0  0  0
M  END
>  <Pose>
1

>  <Score>
-6.700

$$$$
