/Users/jonathanwahrer/Desktop/Msc/3_Semester/Drug_Design_Praktikum/waehrer_HTS_screening/HTS_experiment/out/docking_results/vina_output/4agl/2439_docked.pdbqt
 OpenBabel03212201123D

 30 34  0  0  1  0  0  0  0  0999 V2000
   91.0090   98.5640  -43.4050 C   0  0  0  0  0  0  0  0  0  0  0  0
   91.4310   97.2770  -43.0270 C   0  0  0  0  0  3  0  0  0  0  0  0
   91.2710   96.4480  -44.0560 N   0  0  0  0  0  0  0  0  0  0  0  0
   91.4320   95.1530  -44.4320 C   0  0  0  0  0  0  0  0  0  0  0  0
   91.0120   95.0660  -45.7150 C   0  0  0  0  0  0  0  0  0  0  0  0
   90.6120   96.2910  -46.0850 N   0  0  0  0  0  0  0  0  0  0  0  0
   90.7670   97.1630  -45.0640 C   0  0  1  0  0  3  0  0  0  0  0  0
   90.6000   98.4700  -44.6780 N   0  0  0  0  0  0  0  0  0  0  0  0
   91.0520   93.8580  -46.3890 C   0  0  0  0  0  3  0  0  0  0  0  0
   91.5220   92.7140  -45.7630 C   0  0  0  0  0  3  0  0  0  0  0  0
   91.9530   92.8040  -44.4460 C   0  0  0  0  0  3  0  0  0  0  0  0
   91.9000   94.0220  -43.8080 C   0  0  0  0  0  3  0  0  0  0  0  0
   90.2210   96.5470  -47.0290 H   0  0  0  0  0  0  0  0  0  0  0  0
   90.0590   99.4840  -45.5220 C   0  0  0  0  0  2  0  0  0  0  0  0
   88.6210   99.2910  -45.9310 C   0  0  0  0  0  2  0  0  0  0  0  0
   87.6450   99.0920  -44.8590 C   0  0  0  0  0  2  0  0  0  0  0  0
   87.0700   97.7950  -44.6540 N   0  0  0  0  0  4  0  0  0  0  0  0
   85.8280   97.8510  -43.9030 C   0  0  0  0  0  3  0  0  0  0  0  0
   84.6000   98.0400  -44.6880 C   0  0  0  0  0  3  0  0  0  0  0  0
   84.7160   97.8870  -46.1590 C   0  0  0  0  0  2  0  0  0  0  0  0
   85.7310   96.8610  -46.5160 C   0  0  0  0  0  3  0  0  0  0  0  0
   87.0270   96.9620  -45.8030 C   0  0  0  0  0  3  0  0  0  0  0  0
   87.7120   97.3310  -43.9730 H   0  0  0  0  0  0  0  0  0  0  0  0
   91.0450   99.6940  -42.4690 C   0  0  0  0  0  0  0  0  0  0  0  0
   92.2160   99.9150  -41.7450 C   0  0  0  0  0  3  0  0  0  0  0  0
   92.3760  100.9500  -40.8450 C   0  0  0  0  0  3  0  0  0  0  0  0
   91.3560  101.8290  -40.6210 C   0  0  0  0  0  0  0  0  0  0  0  0
   91.5280  103.2660  -39.3950 Br  0  0  0  0  0  0  0  0  0  0  0  0
   90.1940  101.6400  -41.3160 C   0  0  0  0  0  3  0  0  0  0  0  0
   90.0360  100.5760  -42.2370 C   0  0  0  0  0  3  0  0  0  0  0  0
  1  2  2  0  0  0  0
  1 24  1  0  0  0  0
  3  2  1  0  0  0  0
  4  3  1  0  0  0  0
  4 12  1  0  0  0  0
  5  4  2  0  0  0  0
  6  5  1  0  0  0  0
  7  6  1  1  0  0  0
  7  8  1  0  0  0  0
  7  3  1  0  0  0  0
  8  1  1  0  0  0  0
  9 10  2  0  0  0  0
  9  5  1  0  0  0  0
 10 11  1  0  0  0  0
 11 12  2  0  0  0  0
 13  6  1  0  0  0  0
 14  8  1  0  0  0  0
 15 14  1  0  0  0  0
 15 16  1  0  0  0  0
 16 17  1  0  0  0  0
 17 23  1  0  0  0  0
 17 18  1  0  0  0  0
 19 18  2  0  0  0  0
 20 19  1  0  0  0  0
 21 20  1  0  0  0  0
 21 22  2  0  0  0  0
 22 17  1  0  0  0  0
 24 30  2  0  0  0  0
 24 25  1  0  0  0  0
 25 26  2  0  0  0  0
 26 27  1  0  0  0  0
 27 28  1  0  0  0  0
 29 27  2  0  0  0  0
 30 29  1  0  0  0  0
M  END
>  <Pose>
1

>  <Score>
-6.730

$$$$
