/Users/jonathanwahrer/Desktop/Msc/3_Semester/Drug_Design_Praktikum/waehrer_HTS_screening/HTS_experiment/out/docking_results/vina_output/4agl/2447_docked.pdbqt
 OpenBabel03212201123D

 33 36  0  0  1  0  0  0  0  0999 V2000
   85.9200   99.8800  -45.2660 C   0  0  1  0  0  3  0  0  0  0  0  0
   85.2340  101.0710  -44.6860 C   0  0  0  0  0  0  0  0  0  0  0  0
   84.0300  101.3360  -44.9170 O   0  0  0  0  0  0  0  0  0  0  0  0
   86.0530  101.8500  -43.8730 O   0  0  0  0  0  0  0  0  0  0  0  0
   87.1280  101.3720  -43.1530 C   0  0  0  0  0  3  0  0  0  0  0  0
   87.4090  100.0540  -43.2400 C   0  0  0  0  0  0  0  0  0  0  0  0
   86.5700   99.2220  -44.0760 C   0  0  0  0  0  0  0  0  0  0  0  0
   86.3780   98.0170  -43.8410 O   0  0  0  0  0  0  0  0  0  0  0  0
   88.5270   99.4660  -42.4900 C   0  0  0  0  0  2  0  0  0  0  0  0
   89.7010   99.2450  -43.2300 N   0  0  0  0  0  0  0  0  0  0  0  0
   89.6750   98.5320  -44.4340 C   0  0  0  0  0  2  0  0  0  0  0  0
   91.0780   97.9720  -44.7590 C   0  0  0  0  0  2  0  0  0  0  0  0
   91.5200   97.3500  -43.5380 N   0  0  0  0  0  0  0  0  0  0  0  0
   91.8240   98.2850  -42.4640 C   0  0  0  0  0  2  0  0  0  0  0  0
   90.9490   99.5210  -42.6170 C   0  0  0  0  0  2  0  0  0  0  0  0
   91.6350   95.9530  -43.3920 C   0  0  0  0  0  0  0  0  0  0  0  0
   91.5680   95.0650  -44.4410 C   0  0  0  0  0  3  0  0  0  0  0  0
   91.6900   93.7100  -44.2410 C   0  0  0  0  0  0  0  0  0  0  0  0
   91.8850   93.1670  -42.9930 C   0  0  0  0  0  3  0  0  0  0  0  0
   91.5950   92.6350  -45.6100 Cl  0  0  0  0  0  0  0  0  0  0  0  0
   91.9560   94.0260  -41.9270 C   0  0  0  0  0  3  0  0  0  0  0  0
   91.8330   95.3940  -42.1250 C   0  0  0  0  0  3  0  0  0  0  0  0
   84.9930   98.9510  -45.9670 C   0  0  0  0  0  2  0  0  0  0  0  0
   85.6330   98.4490  -47.1320 N   0  0  0  0  0  0  0  0  0  0  0  0
   85.9810   97.0510  -47.0890 C   0  0  0  0  0  2  0  0  0  0  0  0
   87.4930   96.9660  -47.0210 C   0  0  0  0  0  2  0  0  0  0  0  0
   88.0300   97.3790  -48.2740 N   0  0  0  0  0  0  0  0  0  0  0  0
   87.2900   98.4570  -48.8450 C   0  0  0  0  0  2  0  0  0  0  0  0
   86.5690   99.2880  -47.7830 C   0  0  0  0  0  2  0  0  0  0  0  0
   88.3980   96.1110  -49.3430 S   0  0  0  0  0  0  0  0  0  0  0  0
   89.5410   96.4310  -50.2820 O   0  0  0  0  0  0  0  0  0  0  0  0
   88.8600   94.9180  -48.5170 O   0  0  0  0  0  0  0  0  0  0  0  0
   87.0330   95.5760  -50.3050 C   0  0  0  0  0  1  0  0  0  0  0  0
  1 23  1  1  0  0  0
  1  2  1  0  0  0  0
  1  7  1  0  0  0  0
  2  4  1  0  0  0  0
  3  2  2  0  0  0  0
  4  5  1  0  0  0  0
  6  5  2  0  0  0  0
  6  9  1  0  0  0  0
  7  8  2  0  0  0  0
  7  6  1  0  0  0  0
 10 15  1  0  0  0  0
 10  9  1  0  0  0  0
 11 10  1  0  0  0  0
 12 11  1  0  0  0  0
 12 13  1  0  0  0  0
 13 16  1  0  0  0  0
 13 14  1  0  0  0  0
 15 14  1  0  0  0  0
 16 22  1  0  0  0  0
 17 18  1  0  0  0  0
 17 16  2  0  0  0  0
 18 19  2  0  0  0  0
 19 21  1  0  0  0  0
 20 18  1  0  0  0  0
 22 21  2  0  0  0  0
 24 25  1  0  0  0  0
 24 23  1  0  0  0  0
 25 26  1  0  0  0  0
 27 26  1  0  0  0  0
 28 27  1  0  0  0  0
 28 29  1  0  0  0  0
 29 24  1  0  0  0  0
 30 32  2  0  0  0  0
 30 27  1  0  0  0  0
 31 30  2  0  0  0  0
 33 30  1  0  0  0  0
M  END
>  <Pose>
1

>  <Score>
-6.249

$$$$
