/Users/jonathanwahrer/Desktop/Msc/3_Semester/Drug_Design_Praktikum/waehrer_HTS_screening/HTS_experiment/out/docking_results/vina_output/6e43/0003_docked.pdbqt
 OpenBabel03142213553D

 38 41  0  0  0  0  0  0  0  0999 V2000
   19.1360   76.2670    8.1120 C   0  0  0  0  0  0  0  0  0  0  0  0
   19.8100   75.2220    7.5300 N   0  0  0  0  0  0  0  0  0  0  0  0
   19.2210   74.8950    6.4140 N   0  0  0  0  0  0  0  0  0  0  0  0
   18.1670   75.6590    6.1810 N   0  0  0  0  0  0  0  0  0  0  0  0
   18.0910   76.5140    7.2150 C   0  0  0  0  0  0  0  0  0  0  0  0
   19.4950   76.8990    9.3670 C   0  0  0  0  0  0  0  0  0  0  0  0
   19.2200   76.4850   10.6640 N   0  0  0  0  0  0  0  0  0  0  0  0
   18.6920   75.6300   10.9590 H   0  0  0  0  0  0  0  0  0  0  0  0
   20.1610   77.9950    9.2410 O   0  0  0  0  0  0  0  0  0  0  0  0
   19.7040   77.3140   11.7320 N   0  0  0  0  0  0  0  0  0  0  0  0
   20.3520   76.7730   12.7010 C   0  0  0  0  0  3  0  0  0  0  0  0
   20.8850   77.5200   13.8300 C   0  0  0  0  0  0  0  0  0  0  0  0
   20.6580   77.1160   15.1190 C   0  0  0  0  0  3  0  0  0  0  0  0
   21.1590   77.8170   16.2110 C   0  0  0  0  0  0  0  0  0  0  0  0
   21.9180   78.9660   16.0030 C   0  0  0  0  0  0  0  0  0  0  0  0
   20.8190   77.2220   17.9790 Br  0  0  0  0  0  0  0  0  0  0  0  0
   22.1490   79.3750   14.7220 C   0  0  0  0  0  0  0  0  0  0  0  0
   23.1770   80.9320   14.3950 Br  0  0  0  0  0  0  0  0  0  0  0  0
   21.6370   78.6580   13.6390 C   0  0  0  0  0  0  0  0  0  0  0  0
   22.4080   79.6500   17.1060 O   0  0  0  0  0  0  0  0  0  0  0  0
   22.9220   80.5090   16.9980 H   0  0  0  0  0  0  0  0  0  0  0  0
   21.8600   79.0570   12.3310 O   0  0  0  0  0  0  0  0  0  0  0  0
   21.1300   79.5250   11.8090 H   0  0  0  0  0  0  0  0  0  0  0  0
   17.1080   77.5850    7.4010 C   0  0  0  0  0  2  0  0  0  0  0  0
   16.3710   77.9460    6.1870 N   0  0  0  0  0  0  0  0  0  0  0  0
   16.5260   79.3960    5.9590 C   0  0  0  0  0  2  0  0  0  0  0  0
   16.2810   80.1350    7.2280 C   0  0  0  0  0  2  0  0  0  0  0  0
   15.0590   79.7770    7.7430 O   0  0  0  0  0  0  0  0  0  0  0  0
   14.2910   79.0180    6.9000 C   0  0  0  0  0  2  0  0  0  0  0  0
   14.9280   77.7310    6.4460 C   0  0  0  0  0  2  0  0  0  0  0  0
   17.3520   75.5550    5.0280 C   0  0  0  0  0  0  0  0  0  0  0  0
   17.5740   76.0130    3.7770 N   0  0  0  0  0  0  0  0  0  0  0  0
   16.5690   75.6940    3.0050 O   0  0  0  0  0  0  0  0  0  0  0  0
   15.6640   75.0340    3.6820 N   0  0  0  0  0  0  0  0  0  0  0  0
   16.1180   74.9290    4.9420 C   0  0  0  0  0  0  0  0  0  0  0  0
   15.4230   74.2780    5.9850 N   0  0  0  0  0  0  0  0  0  0  0  0
   15.7870   73.3770    6.3420 H   0  0  0  0  0  0  0  0  0  0  0  0
   14.5610   74.6660    6.4080 H   0  0  0  0  0  0  0  0  0  0  0  0
  1  6  1  0  0  0  0
  2  1  1  0  0  0  0
  3  2  2  0  0  0  0
  4  3  1  0  0  0  0
  4  5  1  0  0  0  0
  5 24  1  0  0  0  0
  5  1  2  0  0  0  0
  6  7  1  0  0  0  0
  7  8  1  0  0  0  0
  7 10  1  0  0  0  0
  9  6  2  0  0  0  0
 10 11  2  0  0  0  0
 11 12  1  0  0  0  0
 12 13  1  0  0  0  0
 13 14  2  0  0  0  0
 14 16  1  0  0  0  0
 15 14  1  0  0  0  0
 15 20  1  0  0  0  0
 17 15  2  0  0  0  0
 18 17  1  0  0  0  0
 19 12  2  0  0  0  0
 19 17  1  0  0  0  0
 21 20  1  0  0  0  0
 22 19  1  0  0  0  0
 23 22  1  0  0  0  0
 25 30  1  0  0  0  0
 25 24  1  0  0  0  0
 26 25  1  0  0  0  0
 26 27  1  0  0  0  0
 27 28  1  0  0  0  0
 29 28  1  0  0  0  0
 30 29  1  0  0  0  0
 31  4  1  0  0  0  0
 32 31  2  0  0  0  0
 33 34  1  0  0  0  0
 33 32  1  0  0  0  0
 34 35  2  0  0  0  0
 35 31  1  0  0  0  0
 35 36  1  0  0  0  0
 36 37  1  0  0  0  0
 36 38  1  0  0  0  0
M  END
>  <Pose>
1

>  <Score>
-8.470

$$$$
