/Users/jonathanwahrer/Desktop/Msc/3_Semester/Drug_Design_Praktikum/waehrer_HTS_screening/HTS_experiment/out/docking_results/vina_output/6e43/0004_docked.pdbqt
 OpenBabel03212219343D

 34 37  0  0  0  0  0  0  0  0999 V2000
   20.1470   78.3410   17.2060 C   0  0  0  0  0  0  0  0  0  0  0  0
   19.7920   79.3420   18.0090 N   0  0  0  0  0  4  0  0  0  0  0  0
   20.5300   80.4830   18.1330 C   0  0  0  0  0  0  0  0  0  0  0  0
   21.6390   80.5450   17.4000 N   0  0  0  0  0  0  0  0  0  0  0  0
   22.0720   79.5770   16.5610 C   0  0  0  0  0  0  0  0  0  0  0  0
   21.2740   78.4700   16.4970 N   0  0  0  0  0  2  0  0  0  0  0  0
   19.3500   77.1680   17.1050 N   0  0  0  0  0  0  0  0  0  0  0  0
   19.0170   76.6240   17.9080 H   0  0  0  0  0  0  0  0  0  0  0  0
   18.9770   76.7010   15.8290 N   0  0  0  0  0  0  0  0  0  0  0  0
   19.7580   76.0330   15.0760 C   0  0  0  0  0  3  0  0  0  0  0  0
   19.3980   75.5400   13.7570 C   0  0  0  0  0  0  0  0  0  0  0  0
   18.8180   74.3010   13.6230 C   0  0  0  0  0  3  0  0  0  0  0  0
   18.4650   73.8090   12.3790 C   0  0  0  0  0  0  0  0  0  0  0  0
   18.6810   74.5370   11.2300 C   0  0  0  0  0  0  0  0  0  0  0  0
   17.6580   72.0800   12.2200 Br  0  0  0  0  0  0  0  0  0  0  0  0
   19.2630   75.7840   11.3550 C   0  0  0  0  0  0  0  0  0  0  0  0
   19.5590   76.7880    9.7560 Br  0  0  0  0  0  0  0  0  0  0  0  0
   19.6130   76.2690   12.6050 C   0  0  0  0  0  0  0  0  0  0  0  0
   18.3320   74.0580    9.9690 O   0  0  0  0  0  0  0  0  0  0  0  0
   17.3940   74.1930    9.6300 H   0  0  0  0  0  0  0  0  0  0  0  0
   20.1930   77.5100   12.7150 O   0  0  0  0  0  0  0  0  0  0  0  0
   19.8020   78.2170   13.3460 H   0  0  0  0  0  0  0  0  0  0  0  0
   20.1360   81.5320   18.9890 N   0  0  0  0  0  0  0  0  0  0  0  0
   19.9880   82.8670   18.4800 C   0  0  0  0  0  2  0  0  0  0  0  0
   20.6980   83.8010   19.4480 C   0  0  0  0  0  2  0  0  0  0  0  0
   20.3680   83.5290   20.7700 O   0  0  0  0  0  0  0  0  0  0  0  0
   20.7270   82.2640   21.1770 C   0  0  0  0  0  2  0  0  0  0  0  0
   19.8810   81.2660   20.3760 C   0  0  0  0  0  2  0  0  0  0  0  0
   23.2530   79.6880   15.8040 N   0  0  0  0  0  0  0  0  0  0  0  0
   23.2080   80.0750   14.4290 C   0  0  0  0  0  2  0  0  0  0  0  0
   24.0150   79.0380   13.6420 C   0  0  0  0  0  2  0  0  0  0  0  0
   24.4700   78.0170   14.4490 O   0  0  0  0  0  0  0  0  0  0  0  0
   25.2500   78.4280   15.5010 C   0  0  0  0  0  2  0  0  0  0  0  0
   24.5210   79.4130   16.4070 C   0  0  0  0  0  2  0  0  0  0  0  0
  1  2  2  0  0  0  0
  2  3  2  0  0  0  0
  3 23  1  0  0  0  0
  4  3  1  0  0  0  0
  5  4  2  0  0  0  0
  6  5  1  0  0  0  0
  6  1  1  0  0  0  0
  7  1  1  0  0  0  0
  7  8  1  0  0  0  0
  9  7  1  0  0  0  0
 10  9  2  0  0  0  0
 11 10  1  0  0  0  0
 12 11  1  0  0  0  0
 13 12  2  0  0  0  0
 14 16  2  0  0  0  0
 14 13  1  0  0  0  0
 15 13  1  0  0  0  0
 16 18  1  0  0  0  0
 17 16  1  0  0  0  0
 18 21  1  0  0  0  0
 18 11  2  0  0  0  0
 19 14  1  0  0  0  0
 20 19  1  0  0  0  0
 21 22  1  0  0  0  0
 23 28  1  0  0  0  0
 24 23  1  0  0  0  0
 24 25  1  0  0  0  0
 25 26  1  0  0  0  0
 26 27  1  0  0  0  0
 28 27  1  0  0  0  0
 29 34  1  0  0  0  0
 29  5  1  0  0  0  0
 30 29  1  0  0  0  0
 31 30  1  0  0  0  0
 31 32  1  0  0  0  0
 32 33  1  0  0  0  0
 33 34  1  0  0  0  0
M  END
>  <Pose>
1

>  <Score>
-9.554

$$$$
