/Users/jonathanwahrer/Desktop/Msc/3_Semester/Drug_Design_Praktikum/waehrer_HTS_screening/HTS_experiment/out/docking_results/vina_output/6e43/0006_docked.pdbqt
 OpenBabel03212219353D

 34 37  0  0  0  0  0  0  0  0999 V2000
   20.8040   79.7100   17.9530 N   0  0  0  0  0  0  0  0  0  0  0  0
   20.2280   80.7120   18.6680 C   0  0  0  0  0  0  0  0  0  0  0  0
   20.5590   81.9240   18.1270 C   0  0  0  0  0  0  0  0  0  0  0  0
   21.3430   81.6400   17.0750 N   0  0  0  0  0  0  0  0  0  0  0  0
   21.4950   80.2830   16.9650 C   0  0  0  0  0  0  0  0  0  0  0  0
   20.0670   83.0700   18.7160 C   0  0  0  0  0  3  0  0  0  0  0  0
   19.2520   83.0270   19.8350 C   0  0  0  0  0  3  0  0  0  0  0  0
   18.9350   81.7870   20.3600 C   0  0  0  0  0  3  0  0  0  0  0  0
   19.4250   80.6380   19.7720 C   0  0  0  0  0  3  0  0  0  0  0  0
   20.7050   78.3030   18.1880 C   0  0  0  0  0  2  0  0  0  0  0  0
   20.1230   77.5170   17.1280 C   0  0  0  0  0  0  0  0  0  0  0  0
   20.8910   76.7690   16.2010 N   0  0  0  0  0  0  0  0  0  0  0  0
   21.9280   76.7990   16.3030 H   0  0  0  0  0  0  0  0  0  0  0  0
   18.8780   77.4730   16.9930 O   0  0  0  0  0  0  0  0  0  0  0  0
   20.3600   76.0060   15.1750 N   0  0  0  0  0  0  0  0  0  0  0  0
   20.0350   76.4760   14.0320 C   0  0  0  0  0  3  0  0  0  0  0  0
   19.4870   75.5820   13.0300 C   0  0  0  0  0  0  0  0  0  0  0  0
   19.4280   75.9740   11.7280 C   0  0  0  0  0  0  0  0  0  0  0  0
   18.9040   75.1170   10.7830 C   0  0  0  0  0  0  0  0  0  0  0  0
   19.8860   77.2220   11.3440 O   0  0  0  0  0  1  0  0  0  0  0  0
   18.8310   75.6830    8.9730 Br  0  0  0  0  0  0  0  0  0  0  0  0
   18.4420   73.8660   11.1550 C   0  0  0  0  0  3  0  0  0  0  0  0
   18.5120   73.4910   12.4740 C   0  0  0  0  0  0  0  0  0  0  0  0
   19.0290   74.3240   13.4350 C   0  0  0  0  0  3  0  0  0  0  0  0
   17.8700   71.7590   12.9730 Br  0  0  0  0  0  0  0  0  0  0  0  0
   22.2870   79.6370   15.9250 C   0  0  0  0  0  0  0  0  0  0  0  0
   21.8690   79.3710   14.6810 N   0  0  0  0  0  0  0  0  0  0  0  0
   22.8500   78.7830   14.0190 O   0  0  0  0  0  0  0  0  0  0  0  0
   23.8910   78.6550   14.7800 N   0  0  0  0  0  0  0  0  0  0  0  0
   23.5830   79.1770   15.9880 C   0  0  0  0  0  0  0  0  0  0  0  0
   24.4340   79.2440   17.1170 N   0  0  0  0  0  4  0  0  0  0  0  0
   25.3520   78.8090   16.9510 H   0  0  0  0  0  0  0  0  0  0  0  0
   23.9640   78.6720   17.8710 H   0  0  0  0  0  0  0  0  0  0  0  0
   24.5330   80.2220   17.4950 H   0  0  0  0  0  0  0  0  0  0  0  0
  1 10  1  0  0  0  0
  1  2  1  0  0  0  0
  2  9  1  0  0  0  0
  3  2  2  0  0  0  0
  3  6  1  0  0  0  0
  4  3  1  0  0  0  0
  5  4  2  0  0  0  0
  5  1  1  0  0  0  0
  6  7  2  0  0  0  0
  7  8  1  0  0  0  0
  9  8  2  0  0  0  0
 11 10  1  0  0  0  0
 12 13  1  0  0  0  0
 12 11  1  0  0  0  0
 14 11  2  0  0  0  0
 15 12  1  0  0  0  0
 16 15  2  0  0  0  0
 17 24  1  0  0  0  0
 17 16  1  0  0  0  0
 18 17  2  0  0  0  0
 19 22  2  0  0  0  0
 19 18  1  0  0  0  0
 20 18  1  0  0  0  0
 21 19  1  0  0  0  0
 22 23  1  0  0  0  0
 23 25  1  0  0  0  0
 23 24  2  0  0  0  0
 26 30  1  0  0  0  0
 26  5  1  0  0  0  0
 27 26  2  0  0  0  0
 28 27  1  0  0  0  0
 28 29  1  0  0  0  0
 29 30  2  0  0  0  0
 30 31  1  0  0  0  0
 31 34  1  0  0  0  0
 31 33  1  0  0  0  0
 32 31  1  0  0  0  0
M  END
>  <Pose>
1

>  <Score>
-10.355

$$$$
