/Users/jonathanwahrer/Desktop/Msc/3_Semester/Drug_Design_Praktikum/waehrer_HTS_screening/HTS_experiment/out/docking_results/vina_output/6e43/0011_docked.pdbqt
 OpenBabel03212219353D

 36 39  0  0  0  0  0  0  0  0999 V2000
   21.6760   78.7100   16.4580 N   0  0  0  0  0  0  0  0  0  0  0  0
   23.0330   78.5790   16.2040 C   0  0  0  0  0  0  0  0  0  0  0  0
   23.6830   78.9980   17.3040 C   0  0  0  0  0  0  0  0  0  0  0  0
   22.7620   79.3630   18.1830 N   0  0  0  0  0  0  0  0  0  0  0  0
   21.4900   79.1870   17.6590 C   0  0  0  0  0  0  0  0  0  0  0  0
   25.0660   79.0000   17.4020 C   0  0  0  0  0  3  0  0  0  0  0  0
   25.7570   78.5480   16.3040 C   0  0  0  0  0  3  0  0  0  0  0  0
   25.1400   78.1090   15.1480 C   0  0  0  0  0  3  0  0  0  0  0  0
   23.7470   78.1280   15.1050 C   0  0  0  0  0  3  0  0  0  0  0  0
   20.7430   78.3200   15.4830 C   0  0  0  0  0  2  0  0  0  0  0  0
   20.3290   76.8400   15.6340 C   0  0  0  0  0  0  0  0  0  0  0  0
   19.8980   76.3330   14.4520 N   0  0  0  0  0  0  0  0  0  0  0  0
   19.7070   75.1010   15.1010 H   0  0  0  0  0  0  0  0  0  0  0  0
   20.4690   76.4220   16.7810 O   0  0  0  0  0  0  0  0  0  0  0  0
   19.5060   75.8690   13.3780 N   0  0  0  0  0  2  0  0  0  0  0  0
   19.1670   75.4950   12.3100 C   0  0  0  0  0  2  0  0  0  0  0  0
   19.2860   76.0070   10.9880 C   0  0  0  0  0  0  0  0  0  0  0  0
   19.6040   77.3570   10.7810 C   0  0  0  0  0  3  0  0  0  0  0  0
   19.7590   77.9490    9.5620 C   0  0  0  0  0  0  0  0  0  0  0  0
   19.5860   77.1390    8.4140 C   0  0  0  0  0  0  0  0  0  0  0  0
   19.2720   75.8070    8.5720 C   0  0  0  0  0  0  0  0  0  0  0  0
   19.7470   77.7350    7.1970 O   0  0  0  0  0  1  0  0  0  0  0  0
   19.0610   74.6870    7.0540 Br  0  0  0  0  0  0  0  0  0  0  0  0
   19.1290   75.2690    9.8360 C   0  0  0  0  0  3  0  0  0  0  0  0
   20.0770   79.2810    9.3730 O   0  0  0  0  0  0  0  0  0  0  0  0
   21.2620   79.8460    9.8190 C   0  0  0  0  0  2  0  0  0  0  0  0
   22.5230   79.1150    9.4570 C   0  0  0  0  0  1  0  0  0  0  0  0
   20.3830   79.5360   18.5320 C   0  0  0  0  0  0  0  0  0  0  0  0
   19.9040   80.8400   18.6430 N   0  0  0  0  0  0  0  0  0  0  0  0
   18.9210   80.8870   19.4470 O   0  0  0  0  0  0  0  0  0  0  0  0
   18.6690   79.7290   19.9110 N   0  0  0  0  0  0  0  0  0  0  0  0
   19.5700   78.8480   19.3570 C   0  0  0  0  0  0  0  0  0  0  0  0
   19.5420   77.4690   19.6530 N   0  0  0  0  0  4  0  0  0  0  0  0
   20.2980   77.2700   20.4110 H   0  0  0  0  0  0  0  0  0  0  0  0
   19.8700   76.9270   18.8450 H   0  0  0  0  0  0  0  0  0  0  0  0
   18.6830   77.2010   20.1260 H   0  0  0  0  0  0  0  0  0  0  0  0
  1  5  1  0  0  0  0
  2  1  1  0  0  0  0
  2  3  1  0  0  0  0
  3  6  2  0  0  0  0
  3  4  1  0  0  0  0
  5  4  2  0  0  0  0
  5 28  1  0  0  0  0
  7  6  1  0  0  0  0
  8  7  2  0  0  0  0
  9  8  1  0  0  0  0
  9  2  2  0  0  0  0
 10 11  1  0  0  0  0
 10  1  1  0  0  0  0
 11 14  2  0  0  0  0
 12 13  1  0  0  0  0
 12 11  1  0  0  0  0
 15 12  1  0  0  0  0
 16 15  1  0  0  0  0
 17 16  1  0  0  0  0
 18 17  1  0  0  0  0
 19 18  2  0  0  0  0
 20 21  2  0  0  0  0
 20 19  1  0  0  0  0
 21 24  1  0  0  0  0
 22 20  1  0  0  0  0
 23 21  1  0  0  0  0
 24 17  2  0  0  0  0
 25 19  1  0  0  0  0
 25 26  1  0  0  0  0
 27 26  1  0  0  0  0
 28 29  2  0  0  0  0
 28 32  1  0  0  0  0
 29 30  1  0  0  0  0
 30 31  1  0  0  0  0
 32 33  1  0  0  0  0
 32 31  2  0  0  0  0
 33 36  1  0  0  0  0
 33 34  1  0  0  0  0
 35 33  1  0  0  0  0
M  END
>  <Pose>
1

>  <Score>
-10.492

$$$$
