/Users/jonathanwahrer/Desktop/Msc/3_Semester/Drug_Design_Praktikum/waehrer_HTS_screening/HTS_experiment/out/docking_results/vina_output/6e43/0018_docked.pdbqt
 OpenBabel03212219363D

 37 40  0  0  0  0  0  0  0  0999 V2000
   20.1060   78.2530   18.7690 C   0  0  0  0  0  0  0  0  0  0  0  0
   19.3210   78.6060   19.7250 N   0  0  0  0  0  0  0  0  0  0  0  0
   19.4250   79.9060   19.9380 N   0  0  0  0  0  0  0  0  0  0  0  0
   20.3170   80.4060   19.0940 N   0  0  0  0  0  0  0  0  0  0  0  0
   20.8350   79.4700   18.3120 C   0  0  0  0  0  0  0  0  0  0  0  0
   20.1600   77.1610   17.8230 C   0  0  0  0  0  0  0  0  0  0  0  0
   19.5910   77.3110   16.5020 N   0  0  0  0  0  0  0  0  0  0  0  0
   18.9800   77.7770   15.9750 H   0  0  0  0  0  0  0  0  0  0  0  0
   20.7620   76.1310   18.1230 O   0  0  0  0  0  0  0  0  0  0  0  0
   20.4040   76.2260   15.6600 N   0  0  0  0  0  2  0  0  0  0  0  0
   19.5490   76.2090   14.6210 C   0  0  0  0  0  2  0  0  0  0  0  0
   19.2770   75.6710   13.3950 C   0  0  0  0  0  0  0  0  0  0  0  0
   18.7220   74.4420   13.0850 C   0  0  0  0  0  3  0  0  0  0  0  0
   18.4890   73.9950   11.8050 C   0  0  0  0  0  0  0  0  0  0  0  0
   18.8240   74.8210   10.7680 C   0  0  0  0  0  0  0  0  0  0  0  0
   19.3820   76.0550   11.0220 C   0  0  0  0  0  0  0  0  0  0  0  0
   19.8690   77.1800    9.5300 Br  0  0  0  0  0  0  0  0  0  0  0  0
   19.6110   76.4920   12.2560 C   0  0  0  0  0  3  0  0  0  0  0  0
   17.9360   72.7280   11.5870 O   0  0  0  0  0  0  0  0  0  0  0  0
   16.9860   72.2130   12.5420 C   0  0  0  0  0  1  0  0  0  0  0  0
   18.6040   74.4220    9.4460 O   0  0  0  0  0  0  0  0  0  0  0  0
   17.6250   74.2200    9.1530 H   0  0  0  0  0  0  0  0  0  0  0  0
   21.6990   79.4630   17.1670 C   0  0  0  0  0  2  0  0  0  0  0  0
   23.1440   79.4120   17.3960 N   0  0  0  0  0  0  0  0  0  0  0  0
   23.8910   79.8610   16.2670 C   0  0  0  0  0  2  0  0  0  0  0  0
   23.8200   78.9630   15.0650 C   0  0  0  0  0  2  0  0  0  0  0  0
   24.5800   77.8280   15.2900 O   0  0  0  0  0  0  0  0  0  0  0  0
   24.7110   77.5840   16.6620 C   0  0  0  0  0  2  0  0  0  0  0  0
   23.4300   77.9120   17.3530 C   0  0  0  0  0  2  0  0  0  0  0  0
   20.3300   81.8260   18.8070 C   0  0  0  0  0  0  0  0  0  0  0  0
   20.3630   82.5120   17.7420 N   0  0  0  0  0  0  0  0  0  0  0  0
   20.4150   83.8230   17.9810 O   0  0  0  0  0  0  0  0  0  0  0  0
   20.4120   83.9560   19.2580 N   0  0  0  0  0  0  0  0  0  0  0  0
   20.3620   82.7750   19.8740 C   0  0  0  0  0  0  0  0  0  0  0  0
   20.3610   82.5110   21.2540 N   0  0  0  0  0  0  0  0  0  0  0  0
   19.4990   82.5140   21.8280 H   0  0  0  0  0  0  0  0  0  0  0  0
   21.2630   82.2760   21.7910 H   0  0  0  0  0  0  0  0  0  0  0  0
  1  2  1  0  0  0  0
  2  3  2  0  0  0  0
  4  3  1  0  0  0  0
  5  1  2  0  0  0  0
  5  4  1  0  0  0  0
  6  9  2  0  0  0  0
  6  1  1  0  0  0  0
  7  6  1  0  0  0  0
  8  7  1  0  0  0  0
 10  7  1  0  0  0  0
 11 10  1  0  0  0  0
 12 11  1  0  0  0  0
 13 12  1  0  0  0  0
 14 13  2  0  0  0  0
 15 16  2  0  0  0  0
 15 14  1  0  0  0  0
 16 18  1  0  0  0  0
 17 16  1  0  0  0  0
 18 12  2  0  0  0  0
 19 14  1  0  0  0  0
 19 20  1  0  0  0  0
 21 15  1  0  0  0  0
 22 21  1  0  0  0  0
 23 24  1  0  0  0  0
 23  5  1  0  0  0  0
 25 24  1  0  0  0  0
 26 27  1  0  0  0  0
 26 25  1  0  0  0  0
 27 28  1  0  0  0  0
 28 29  1  0  0  0  0
 29 24  1  0  0  0  0
 30  4  1  0  0  0  0
 30 34  1  0  0  0  0
 31 32  1  0  0  0  0
 31 30  2  0  0  0  0
 32 33  1  0  0  0  0
 33 34  2  0  0  0  0
 34 35  1  0  0  0  0
 35 37  1  0  0  0  0
 35 36  1  0  0  0  0
M  END
>  <Pose>
1

>  <Score>
-10.429

$$$$
