/Users/jonathanwahrer/Desktop/Msc/3_Semester/Drug_Design_Praktikum/waehrer_HTS_screening/HTS_experiment/out/docking_results/vina_output/6e43/0026_docked.pdbqt
 OpenBabel03212219373D

 29 32  0  0  1  0  0  0  0  0999 V2000
   20.7480   76.9420   16.1770 C   0  0  2  0  0  3  0  0  0  0  0  0
   19.8420   77.8310   16.7760 N   0  0  0  0  0  4  0  0  0  0  0  0
   20.3250   78.8630   17.6120 C   0  0  1  0  0  3  0  0  0  0  0  0
   21.7050   78.6500   18.1710 C   0  0  0  0  0  2  0  0  0  0  0  0
   22.6530   78.1630   17.1410 C   0  0  0  0  0  0  0  0  0  0  0  0
   23.9890   78.3800   16.9380 C   0  0  0  0  0  0  0  0  0  0  0  0
   24.3030   77.6480   15.8070 C   0  0  0  0  0  0  0  0  0  0  0  0
   23.1840   77.0190   15.3610 N   0  0  0  0  0  0  0  0  0  0  0  0
   22.1690   77.3320   16.1770 C   0  0  0  0  0  0  0  0  0  0  0  0
   25.6130   77.6960   15.3790 C   0  0  0  0  0  3  0  0  0  0  0  0
   26.5660   78.4380   16.0440 C   0  0  0  0  0  3  0  0  0  0  0  0
   26.2510   79.1680   17.1720 C   0  0  0  0  0  3  0  0  0  0  0  0
   24.9400   79.1300   17.6160 C   0  0  0  0  0  3  0  0  0  0  0  0
   19.1870   78.2660   16.0650 H   0  0  0  0  0  0  0  0  0  0  0  0
   19.1560   77.2490   17.3570 H   0  0  0  0  0  0  0  0  0  0  0  0
   23.2090   76.4110   14.5130 H   0  0  0  0  0  0  0  0  0  0  0  0
   20.3660   76.7350   14.7510 C   0  0  0  0  0  0  0  0  0  0  0  0
   20.7360   77.6120   13.7550 C   0  0  0  0  0  3  0  0  0  0  0  0
   20.3210   77.3200   12.4730 C   0  0  0  0  0  0  0  0  0  0  0  0
   19.5680   76.2130   12.1450 C   0  0  0  0  0  0  0  0  0  0  0  0
   20.8160   78.5120   11.0710 Br  0  0  0  0  0  0  0  0  0  0  0  0
   19.2030   75.3430   13.1440 C   0  0  0  0  0  0  0  0  0  0  0  0
   18.1640   73.8050   12.7310 Br  0  0  0  0  0  0  0  0  0  0  0  0
   19.6130   75.6210   14.4510 C   0  0  0  0  0  3  0  0  0  0  0  0
   19.1830   75.9850   10.8080 O   0  0  0  0  0  0  0  0  0  0  0  0
   19.9120   75.7810   10.1380 H   0  0  0  0  0  0  0  0  0  0  0  0
   20.3210   80.1940   16.9450 C   0  0  0  0  0  0  0  0  0  0  0  0
   19.5540   81.1150   17.3900 O   0  0  0  0  0  1  0  0  0  0  0  0
   21.1450   80.4180   15.8540 O   0  0  0  0  0  0  0  0  0  0  0  0
  1 17  1  6  0  0  0
  1  9  1  0  0  0  0
  1  2  1  0  0  0  0
  2 15  1  0  0  0  0
  2  3  1  0  0  0  0
  3 27  1  6  0  0  0
  3  4  1  0  0  0  0
  5  4  1  0  0  0  0
  6  5  1  0  0  0  0
  6 13  1  0  0  0  0
  7  6  2  0  0  0  0
  8  7  1  0  0  0  0
  8  9  1  0  0  0  0
  9  5  2  0  0  0  0
 10  7  1  0  0  0  0
 10 11  2  0  0  0  0
 11 12  1  0  0  0  0
 12 13  2  0  0  0  0
 14  2  1  0  0  0  0
 16  8  1  0  0  0  0
 18 17  2  0  0  0  0
 19 18  1  0  0  0  0
 20 19  2  0  0  0  0
 20 22  1  0  0  0  0
 21 19  1  0  0  0  0
 22 24  2  0  0  0  0
 23 22  1  0  0  0  0
 24 17  1  0  0  0  0
 25 20  1  0  0  0  0
 26 25  1  0  0  0  0
 27 28  1  0  0  0  0
 29 27  2  0  0  0  0
M  END
>  <Pose>
1

>  <Score>
-9.935

$$$$
