/Users/jonathanwahrer/Desktop/Msc/3_Semester/Drug_Design_Praktikum/waehrer_HTS_screening/HTS_experiment/out/docking_results/vina_output/6e43/0031_docked.pdbqt
 OpenBabel03212219373D

 24 27  0  0  1  0  0  0  0  0999 V2000
   21.1320   77.1390   17.8910 Br  0  0  0  0  0  0  0  0  0  0  0  0
   21.6630   78.4770   16.6180 C   0  0  0  0  0  0  0  0  0  0  0  0
   21.7210   78.2050   15.2980 C   0  0  0  0  0  0  0  0  0  0  0  0
   22.1780   79.1870   14.3710 C   0  0  0  0  0  0  0  0  0  0  0  0
   22.5540   80.3880   14.8640 C   0  0  0  0  0  3  0  0  0  0  0  0
   22.4970   80.6430   16.2200 C   0  0  0  0  0  3  0  0  0  0  0  0
   22.0550   79.7060   17.1030 C   0  0  0  0  0  3  0  0  0  0  0  0
   22.5610   78.6160   13.0650 C   0  0  0  0  0  2  0  0  0  0  0  0
   22.2100   79.2420   11.8570 N   0  0  2  0  0  4  0  0  0  0  0  0
   22.2450   80.6080   11.6990 C   0  0  0  0  0  2  0  0  0  0  0  0
   21.9700   81.0120   10.3220 N   0  0  2  0  0  0  0  0  0  0  0  0
   20.6580   80.4970    9.9690 C   0  0  0  0  0  2  0  0  0  0  0  0
   22.9060   80.4700    9.3680 C   0  0  0  0  0  2  0  0  0  0  0  0
   20.5650   79.0630   10.1550 N   0  0  2  0  0  0  0  0  0  0  0  0
   20.8920   78.6380   11.4580 C   0  0  0  0  0  2  0  0  0  0  0  0
   21.4400   78.4300    9.1900 C   0  0  0  0  0  2  0  0  0  0  0  0
   22.8280   78.9490    9.4730 C   0  0  2  0  0  3  0  0  0  0  0  0
   23.1600   78.6060   10.8780 C   0  0  0  0  0  2  0  0  0  0  0  0
   21.3530   77.0010   14.8140 O   0  0  0  0  0  0  0  0  0  0  0  0
   19.9900   76.6430   14.5080 C   0  0  0  0  0  2  0  0  0  0  0  0
   19.7390   75.2710   14.0720 C   0  0  0  0  0  0  0  0  0  0  0  0
   20.4500   74.3090   14.3250 O   0  0  0  0  0  0  0  0  0  0  0  0
   18.5740   75.0360   13.3340 O   0  0  0  0  0  0  0  0  0  0  0  0
   18.5650   74.3340   12.1190 C   0  0  0  0  0  1  0  0  0  0  0  0
  2  7  1  0  0  0  0
  2  1  1  0  0  0  0
  3  2  2  0  0  0  0
  4  5  2  0  0  0  0
  4  3  1  0  0  0  0
  5  6  1  0  0  0  0
  6  7  2  0  0  0  0
  8  4  1  0  0  0  0
  9  8  1  1  0  0  0
 10  9  1  0  0  0  0
 11 13  1  6  0  0  0
 11 10  1  0  0  0  0
 12 14  1  0  0  0  0
 12 11  1  0  0  0  0
 13 17  1  0  0  0  0
 14 16  1  6  0  0  0
 14 15  1  0  0  0  0
 15  9  1  0  0  0  0
 17 16  1  1  0  0  0
 17 18  1  0  0  0  0
 18  9  1  0  0  0  0
 19  3  1  0  0  0  0
 20 19  1  0  0  0  0
 21 22  2  0  0  0  0
 21 20  1  0  0  0  0
 23 21  1  0  0  0  0
 24 23  1  0  0  0  0
M  END
>  <Pose>
1

>  <Score>
-7.682

$$$$
