/Users/jonathanwahrer/Desktop/Msc/3_Semester/Drug_Design_Praktikum/waehrer_HTS_screening/HTS_experiment/out/docking_results/vina_output/6e43/0037_docked.pdbqt
 OpenBabel03212219383D

 27 30  0  0  1  0  0  0  0  0999 V2000
   20.3990   80.0460   18.4310 N   0  0  0  0  0  0  0  0  0  0  0  0
   21.1030   79.9200   17.1770 C   0  0  0  0  0  2  0  0  0  0  0  0
   21.8640   78.6270   17.3770 C   0  0  1  0  0  3  0  0  0  0  0  0
   20.7850   77.7410   17.9740 C   0  0  0  0  0  2  0  0  0  0  0  0
   20.1280   78.7270   18.8720 C   0  0  0  0  0  0  0  0  0  0  0  0
   19.4400   78.4230   19.8690 O   0  0  0  0  0  0  0  0  0  0  0  0
   22.3830   78.0830   16.1050 C   0  0  0  0  0  0  0  0  0  0  0  0
   23.2000   77.1310   16.0890 O   0  0  0  0  0  0  0  0  0  0  0  0
   21.9470   78.6510   14.8900 N   0  0  0  0  0  0  0  0  0  0  0  0
   21.2740   79.4380   14.8930 H   0  0  0  0  0  0  0  0  0  0  0  0
   22.4250   78.1500   13.6250 C   0  0  0  0  0  2  0  0  0  0  0  0
   21.3700   78.2380   12.5760 C   0  0  0  0  0  0  0  0  0  0  0  0
   21.3060   79.1000   11.5310 N   0  0  0  0  0  0  0  0  0  0  0  0
   20.1970   78.8510   10.8140 C   0  0  0  0  0  0  0  0  0  0  0  0
   22.0710   80.1980   10.9670 C   0  0  0  0  0  2  0  0  0  0  0  0
   19.5870   77.8170   11.4470 N   0  0  0  0  0  0  0  0  0  0  0  0
   20.0950   79.7890    9.6480 C   0  0  0  0  0  2  0  0  0  0  0  0
   20.2860   77.4490   12.5010 N   0  0  0  0  0  0  0  0  0  0  0  0
   21.1020   80.8580   10.0090 C   0  0  0  0  0  2  0  0  0  0  0  0
   20.0730   81.2890   19.0380 C   0  0  0  0  0  0  0  0  0  0  0  0
   20.3220   82.5180   18.4650 C   0  0  0  0  0  3  0  0  0  0  0  0
   20.0130   83.7240   19.0330 C   0  0  0  0  0  0  0  0  0  0  0  0
   19.4030   83.7050   20.2820 C   0  0  0  0  0  0  0  0  0  0  0  0
   20.2950   85.0330   18.3850 C   0  0  0  0  0  1  0  0  0  0  0  0
   18.9610   85.3680   21.1030 Br  0  0  0  0  0  0  0  0  0  0  0  0
   19.1270   82.5070   20.9070 C   0  0  0  0  0  3  0  0  0  0  0  0
   19.4590   81.3150   20.2920 C   0  0  0  0  0  3  0  0  0  0  0  0
  1  5  1  0  0  0  0
  1 20  1  0  0  0  0
  2  3  1  0  0  0  0
  2  1  1  0  0  0  0
  3  7  1  6  0  0  0
  3  4  1  0  0  0  0
  4  5  1  0  0  0  0
  5  6  2  0  0  0  0
  8  7  2  0  0  0  0
  9 10  1  0  0  0  0
  9  7  1  0  0  0  0
 11  9  1  0  0  0  0
 12 11  1  0  0  0  0
 13 12  1  0  0  0  0
 14 16  2  0  0  0  0
 14 13  1  0  0  0  0
 15 13  1  0  0  0  0
 16 18  1  0  0  0  0
 17 19  1  0  0  0  0
 17 14  1  0  0  0  0
 18 12  2  0  0  0  0
 19 15  1  0  0  0  0
 20 27  1  0  0  0  0
 21 22  1  0  0  0  0
 21 20  2  0  0  0  0
 22 23  2  0  0  0  0
 23 26  1  0  0  0  0
 23 25  1  0  0  0  0
 24 22  1  0  0  0  0
 27 26  2  0  0  0  0
M  END
>  <Pose>
1

>  <Score>
-10.342

$$$$
