/Users/jonathanwahrer/Desktop/Msc/3_Semester/Drug_Design_Praktikum/waehrer_HTS_screening/HTS_experiment/out/docking_results/vina_output/6e43/0039_docked.pdbqt
 OpenBabel03212219383D

 21 23  0  0  1  0  0  0  0  0999 V2000
   20.3960   80.2380   17.4480 N   0  0  0  0  0  0  0  0  0  0  0  0
   21.4960   79.3800   17.3990 C   0  0  0  0  0  0  0  0  0  0  0  0
   22.4120   79.4540   18.2300 O   0  0  0  0  0  0  0  0  0  0  0  0
   19.6620   80.0960   16.6910 H   0  0  0  0  0  0  0  0  0  0  0  0
   21.5610   78.3630   16.3310 C   0  0  0  0  0  2  0  0  0  0  0  0
   22.2690   78.7410   15.1510 N   0  0  1  0  0  4  0  0  0  0  0  0
   21.7890   77.8870   14.0540 C   0  0  0  0  0  2  0  0  0  0  0  0
   22.0510   78.6290   12.7660 C   0  0  0  0  0  2  0  0  0  0  0  0
   23.3510   79.2760   12.9330 N   0  0  1  0  0  0  0  0  0  0  0  0
   23.0880   80.4880   13.7030 C   0  0  0  0  0  2  0  0  0  0  0  0
   24.2010   78.4330   13.7580 C   0  0  0  0  0  2  0  0  0  0  0  0
   22.0770   80.1430   14.7880 C   0  0  0  0  0  2  0  0  0  0  0  0
   23.6990   78.5130   15.2090 C   0  0  0  0  0  2  0  0  0  0  0  0
   20.1280   81.2750   18.3710 C   0  0  0  0  0  0  0  0  0  0  0  0
   19.5940   80.9800   19.6350 C   0  0  0  0  0  0  0  0  0  0  0  0
   19.2660   79.1220   20.0000 Br  0  0  0  0  0  0  0  0  0  0  0  0
   19.3130   81.9430   20.5730 C   0  0  0  0  0  3  0  0  0  0  0  0
   19.5420   83.2750   20.3260 C   0  0  0  0  0  0  0  0  0  0  0  0
   20.0650   83.5880   19.0960 C   0  0  0  0  0  3  0  0  0  0  0  0
   19.2390   84.3310   21.3400 C   0  0  0  0  0  1  0  0  0  0  0  0
   20.3520   82.6140   18.1360 C   0  0  0  0  0  3  0  0  0  0  0  0
  1 14  1  0  0  0  0
  2  1  1  0  0  0  0
  2  3  2  0  0  0  0
  4  1  1  0  0  0  0
  5  2  1  0  0  0  0
  6 13  1  0  0  0  0
  6  5  1  1  0  0  0
  7  6  1  0  0  0  0
  8  7  1  0  0  0  0
  9  8  1  1  0  0  0
  9 10  1  0  0  0  0
  9 11  1  0  0  0  0
 10 12  1  0  0  0  0
 11 13  1  0  0  0  0
 12  6  1  0  0  0  0
 14 15  1  0  0  0  0
 15 16  1  0  0  0  0
 15 17  2  0  0  0  0
 18 17  1  0  0  0  0
 18 20  1  0  0  0  0
 19 18  2  0  0  0  0
 21 14  2  0  0  0  0
 21 19  1  0  0  0  0
M  END
>  <Pose>
1

>  <Score>
-7.694

$$$$
