/Users/jonathanwahrer/Desktop/Msc/3_Semester/Drug_Design_Praktikum/waehrer_HTS_screening/HTS_experiment/out/docking_results/vina_output/6e43/0064_docked.pdbqt
 OpenBabel03212219383D

 22 25  0  0  1  0  0  0  0  0999 V2000
   19.8060   81.5520   19.5450 N   0  0  0  0  0  0  0  0  0  0  0  0
   19.0540   80.3890   19.2380 C   0  0  0  0  0  0  0  0  0  0  0  0
   18.4090   79.7310   20.0730 O   0  0  0  0  0  0  0  0  0  0  0  0
   19.1390   80.0650   17.7950 C   0  0  2  0  0  3  0  0  0  0  0  0
   19.8270   78.7730   17.5210 C   0  0  1  0  0  0  0  0  0  0  0  0
   20.8400   79.0810   16.5750 O   0  0  0  0  0  0  0  0  0  0  0  0
   21.4210   80.1460   17.3120 C   0  0  1  0  0  3  0  0  0  0  0  0
   20.1960   81.0680   17.3000 C   0  0  2  0  0  3  0  0  0  0  0  0
   20.2970   82.1170   18.3260 C   0  0  0  0  0  0  0  0  0  0  0  0
   20.7210   83.2860   18.1980 O   0  0  0  0  0  0  0  0  0  0  0  0
   21.6090   79.4950   18.6260 C   0  0  0  0  0  2  0  0  0  0  0  0
   20.7220   78.5020   18.6880 C   0  0  0  0  0  2  0  0  0  0  0  0
   20.0880   82.1300   20.8120 C   0  0  0  0  0  0  0  0  0  0  0  0
   19.4410   83.2390   21.3080 C   0  0  0  0  0  0  0  0  0  0  0  0
   18.0810   84.0280   20.1950 Br  0  0  0  0  0  0  0  0  0  0  0  0
   19.7340   83.7820   22.5390 C   0  0  0  0  0  3  0  0  0  0  0  0
   20.6990   83.2350   23.3420 C   0  0  0  0  0  3  0  0  0  0  0  0
   21.3730   82.1140   22.8720 C   0  0  0  0  0  3  0  0  0  0  0  0
   21.0660   81.5820   21.6350 C   0  0  0  0  0  3  0  0  0  0  0  0
   18.9950   77.6290   17.1200 C   0  0  0  0  0  2  0  0  0  0  0  0
   19.8060   76.7280   16.4050 O   0  0  0  0  0  0  0  0  0  0  0  0
   20.3980   76.2360   17.0470 H   0  0  0  0  0  0  0  0  0  0  0  0
  1 13  1  0  0  0  0
  2  1  1  0  0  0  0
  2  3  2  0  0  0  0
  4  2  1  1  0  0  0
  5 20  1  6  0  0  0
  5  4  1  0  0  0  0
  5 12  1  0  0  0  0
  6  7  1  0  0  0  0
  6  5  1  0  0  0  0
  7 11  1  1  0  0  0
  8  7  1  0  0  0  0
  8  4  1  0  0  0  0
  8  9  1  1  0  0  0
  9  1  1  0  0  0  0
 10  9  2  0  0  0  0
 11 12  1  0  0  0  0
 13 14  2  0  0  0  0
 13 19  1  0  0  0  0
 14 16  1  0  0  0  0
 15 14  1  0  0  0  0
 16 17  2  0  0  0  0
 18 17  1  0  0  0  0
 19 18  2  0  0  0  0
 21 22  1  0  0  0  0
 21 20  1  0  0  0  0
M  END
>  <Pose>
1

>  <Score>
-8.901

$$$$
