/Users/jonathanwahrer/Desktop/Msc/3_Semester/Drug_Design_Praktikum/waehrer_HTS_screening/HTS_experiment/out/docking_results/vina_output/6e43/0081_docked.pdbqt
 OpenBabel03212219383D

 22 25  0  0  0  0  0  0  0  0999 V2000
   21.0610   80.6000   16.9480 C   0  0  0  0  0  0  0  0  0  0  0  0
   20.7810   79.9130   18.0700 N   0  0  0  0  0  0  0  0  0  0  0  0
   20.3510   80.7560   19.0110 N   0  0  0  0  0  0  0  0  0  0  0  0
   20.3450   82.0070   18.5060 C   0  0  0  0  0  0  0  0  0  0  0  0
   20.7860   81.8830   17.2400 N   0  0  0  0  0  0  0  0  0  0  0  0
   19.9340   83.0550   19.3070 C   0  0  0  0  0  0  0  0  0  0  0  0
   19.5240   82.8700   20.6120 C   0  0  0  0  0  0  0  0  0  0  0  0
   19.1770   84.0510   21.1600 N   0  0  0  0  0  0  0  0  0  0  0  0
   19.3560   84.9770   20.2380 N   0  0  0  0  0  0  0  0  0  0  0  0
   19.8200   84.4120   19.0840 C   0  0  0  0  0  3  0  0  0  0  0  0
   18.6910   84.3080   22.5060 C   0  0  0  0  0  1  0  0  0  0  0  0
   19.5440   81.6070   21.0760 N   0  0  0  0  0  0  0  0  0  0  0  0
   19.9510   80.5810   20.2830 C   0  0  0  0  0  3  0  0  0  0  0  0
   21.5720   80.0480   15.6460 C   0  0  0  0  0  2  0  0  0  0  0  0
   22.8400   79.3770   15.8180 N   0  0  0  0  0  0  0  0  0  0  0  0
   23.1310   78.1630   15.3310 C   0  0  0  0  0  0  0  0  0  0  0  0
   24.4200   77.8910   15.7100 C   0  0  0  0  0  0  0  0  0  0  0  0
   22.2570   77.2510   14.5260 C   0  0  0  0  0  1  0  0  0  0  0  0
   25.4090   76.3170   15.3220 Br  0  0  0  0  0  0  0  0  0  0  0  0
   24.8970   78.9540   16.4310 C   0  0  0  0  0  0  0  0  0  0  0  0
   23.8830   79.8490   16.4720 N   0  0  0  0  0  0  0  0  0  0  0  0
   26.2590   79.1160   17.0560 C   0  0  0  0  0  1  0  0  0  0  0  0
  1  5  1  0  0  0  0
  1  2  2  0  0  0  0
  2  3  1  0  0  0  0
  3 13  1  0  0  0  0
  4  3  1  0  0  0  0
  4  6  1  0  0  0  0
  5  4  2  0  0  0  0
  6  7  2  0  0  0  0
  7 12  1  0  0  0  0
  7  8  1  0  0  0  0
  8 11  1  0  0  0  0
  9  8  1  0  0  0  0
 10  6  1  0  0  0  0
 10  9  2  0  0  0  0
 13 12  2  0  0  0  0
 14 15  1  0  0  0  0
 14  1  1  0  0  0  0
 15 21  1  0  0  0  0
 16 17  2  0  0  0  0
 16 15  1  0  0  0  0
 17 20  1  0  0  0  0
 18 16  1  0  0  0  0
 19 17  1  0  0  0  0
 20 21  2  0  0  0  0
 20 22  1  0  0  0  0
M  END
>  <Pose>
1

>  <Score>
-8.753

$$$$
