/Users/jonathanwahrer/Desktop/Msc/3_Semester/Drug_Design_Praktikum/waehrer_HTS_screening/HTS_experiment/out/docking_results/vina_output/6e43/0095_docked.pdbqt
 OpenBabel03212219393D

 26 29  0  0  0  0  0  0  0  0999 V2000
   21.0880   77.0130   14.6900 C   0  0  0  0  0  0  0  0  0  0  0  0
   21.0310   75.7980   14.3120 O   0  0  0  0  0  0  0  0  0  0  0  0
   20.6560   77.5060   15.8980 N   0  0  0  0  0  0  0  0  0  0  0  0
   20.2550   76.2620   16.2780 H   0  0  0  0  0  0  0  0  0  0  0  0
   21.6920   77.9730   13.6920 C   0  0  0  0  0  0  0  0  0  0  0  0
   20.9660   78.4450   12.6280 C   0  0  0  0  0  3  0  0  0  0  0  0
   21.5830   79.3240   11.7300 C   0  0  0  0  0  0  0  0  0  0  0  0
   20.6040   79.9890   10.2530 Br  0  0  0  0  0  0  0  0  0  0  0  0
   22.8900   79.7060   11.9120 C   0  0  0  0  0  3  0  0  0  0  0  0
   23.6190   79.2300   12.9830 C   0  0  0  0  0  3  0  0  0  0  0  0
   22.9950   78.3490   13.8820 C   0  0  0  0  0  0  0  0  0  0  0  0
   23.6800   77.8280   15.0070 N   0  0  0  0  0  0  0  0  0  0  0  0
   24.2770   76.6520   15.0200 N   0  0  0  0  0  0  0  0  0  0  0  0
   24.8330   76.4230   16.1910 N   0  0  0  0  0  0  0  0  0  0  0  0
   24.6000   77.4680   16.9680 N   0  0  0  0  0  0  0  0  0  0  0  0
   23.8890   78.3290   16.2330 C   0  0  0  0  0  3  0  0  0  0  0  0
   20.2270   77.9970   17.0990 C   0  0  0  0  0  2  0  0  0  0  0  0
   20.4570   79.4880   17.2760 C   0  0  0  0  0  0  0  0  0  0  0  0
   20.0300   80.2190   18.3290 N   0  0  0  0  0  0  0  0  0  0  0  0
   20.3950   81.4990   18.1820 C   0  0  0  0  0  0  0  0  0  0  0  0
   19.3300   79.8460   19.4370 C   0  0  0  0  0  3  0  0  0  0  0  0
   21.0600   81.5570   17.0170 N   0  0  0  0  0  0  0  0  0  0  0  0
   20.0640   82.4520   19.1540 C   0  0  0  0  0  3  0  0  0  0  0  0
   21.0990   80.3360   16.4640 N   0  0  0  0  0  0  0  0  0  0  0  0
   19.3620   82.0840   20.2680 C   0  0  0  0  0  3  0  0  0  0  0  0
   18.9860   80.7640   20.4190 C   0  0  0  0  0  3  0  0  0  0  0  0
  1  3  1  0  0  0  0
  2  1  2  0  0  0  0
  3  4  1  0  0  0  0
  3 17  1  0  0  0  0
  5 11  1  0  0  0  0
  5  1  1  0  0  0  0
  6  5  2  0  0  0  0
  7  9  2  0  0  0  0
  7  6  1  0  0  0  0
  8  7  1  0  0  0  0
  9 10  1  0  0  0  0
 10 11  2  0  0  0  0
 11 12  1  0  0  0  0
 12 13  1  0  0  0  0
 12 16  1  0  0  0  0
 13 14  2  0  0  0  0
 14 15  1  0  0  0  0
 16 15  2  0  0  0  0
 17 18  1  0  0  0  0
 18 19  1  0  0  0  0
 19 21  1  0  0  0  0
 20 19  1  0  0  0  0
 20 23  1  0  0  0  0
 21 26  2  0  0  0  0
 22 20  2  0  0  0  0
 23 25  2  0  0  0  0
 24 22  1  0  0  0  0
 24 18  2  0  0  0  0
 25 26  1  0  0  0  0
M  END
>  <Pose>
1

>  <Score>
-9.079

$$$$
