/Users/jonathanwahrer/Desktop/Msc/3_Semester/Drug_Design_Praktikum/waehrer_HTS_screening/HTS_experiment/out/docking_results/vina_output/6e43/0111_docked.pdbqt
 OpenBabel03212219393D

 29 32  0  0  0  0  0  0  0  0999 V2000
   20.7320   77.1160   14.8970 C   0  0  0  0  0  0  0  0  0  0  0  0
   20.5060   77.1960   13.6040 N   0  0  0  0  0  0  0  0  0  0  0  0
   19.7820   76.1150   13.1750 C   0  0  0  0  0  0  0  0  0  0  0  0
   19.5680   75.3430   14.2640 N   0  0  0  0  0  0  0  0  0  0  0  0
   20.1190   75.9150   15.2800 N   0  0  0  0  0  0  0  0  0  0  0  0
   19.5630   76.2120   11.8610 N   0  0  0  0  0  0  0  0  0  0  0  0
   20.1480   77.3480   11.4490 C   0  0  0  0  0  0  0  0  0  0  0  0
   20.7530   77.9850   12.5260 C   0  0  0  0  0  0  0  0  0  0  0  0
   21.4230   79.1140   12.4030 N   0  0  0  0  0  0  0  0  0  0  0  0
   21.4950   79.6540   11.1460 C   0  0  0  0  0  0  0  0  0  0  0  0
   22.1060   80.7290   10.9160 O   0  0  0  0  0  0  0  0  0  0  0  0
   20.9170   79.0670   10.0780 N   0  0  0  0  0  0  0  0  0  0  0  0
   20.2460   77.9270   10.1980 C   0  0  0  0  0  0  0  0  0  0  0  0
   19.6870   77.3320    9.2430 O   0  0  0  0  0  0  0  0  0  0  0  0
   22.1580   79.8390   13.3950 C   0  0  0  0  0  1  0  0  0  0  0  0
   20.9810   79.4910    9.1280 H   0  0  0  0  0  0  0  0  0  0  0  0
   21.3820   77.8620   15.9360 C   0  0  0  0  0  0  0  0  0  0  0  0
   20.8420   78.7290   16.8370 C   0  0  0  0  0  3  0  0  0  0  0  0
   21.5170   79.4250   17.7970 C   0  0  0  0  0  0  0  0  0  0  0  0
   20.5630   80.5950   18.9630 Br  0  0  0  0  0  0  0  0  0  0  0  0
   22.8680   79.2720   17.9040 C   0  0  0  0  0  3  0  0  0  0  0  0
   23.5040   78.4080   17.0270 C   0  0  0  0  0  3  0  0  0  0  0  0
   22.7830   77.7260   16.0750 C   0  0  0  0  0  0  0  0  0  0  0  0
   23.4570   76.8740   15.2180 O   0  0  0  0  0  0  0  0  0  0  0  0
   24.8440   76.7550   15.1530 C   0  0  0  0  0  1  0  0  0  0  0  0
   18.8440   75.2960   11.0260 C   0  0  0  0  0  2  0  0  0  0  0  0
   18.6960   73.9700   11.7430 C   0  0  0  0  0  2  0  0  0  0  0  0
   17.3740   73.8220   12.1120 O   0  0  0  0  0  0  0  0  0  0  0  0
   17.1690   72.6410   12.8460 C   0  0  0  0  0  1  0  0  0  0  0  0
  1  5  2  0  0  0  0
  1 17  1  0  0  0  0
  2  1  1  0  0  0  0
  3  2  1  0  0  0  0
  3  4  2  0  0  0  0
  4  5  1  0  0  0  0
  6  3  1  0  0  0  0
  7  6  1  0  0  0  0
  7  8  2  0  0  0  0
  8  2  1  0  0  0  0
  9  8  1  0  0  0  0
  9 15  1  0  0  0  0
 10  9  1  0  0  0  0
 11 10  2  0  0  0  0
 12 13  1  0  0  0  0
 12 10  1  0  0  0  0
 13  7  1  0  0  0  0
 14 13  2  0  0  0  0
 16 12  1  0  0  0  0
 17 23  2  0  0  0  0
 17 18  1  0  0  0  0
 18 19  2  0  0  0  0
 19 21  1  0  0  0  0
 19 20  1  0  0  0  0
 22 21  2  0  0  0  0
 23 22  1  0  0  0  0
 24 23  1  0  0  0  0
 25 24  1  0  0  0  0
 26 27  1  0  0  0  0
 26  6  1  0  0  0  0
 27 28  1  0  0  0  0
 28 29  1  0  0  0  0
M  END
>  <Pose>
1

>  <Score>
-9.122

$$$$
