/Users/jonathanwahrer/Desktop/Msc/3_Semester/Drug_Design_Praktikum/waehrer_HTS_screening/HTS_experiment/out/docking_results/vina_output/6e43/0131_docked.pdbqt
 OpenBabel03212219403D

 30 33  0  0  1  0  0  0  0  0999 V2000
   20.2920   77.7560   18.1720 C   0  0  0  0  0  0  0  0  0  0  0  0
   19.9870   76.9720   19.1040 O   0  0  0  0  0  0  0  0  0  0  0  0
   19.8140   79.0750   18.2000 N   0  0  0  0  0  0  0  0  0  0  0  0
   20.1210   80.0330   17.1670 C   0  0  0  0  0  2  0  0  0  0  0  0
   20.9390   81.1290   17.8140 C   0  0  0  0  0  2  0  0  0  0  0  0
   20.2380   81.6220   19.0570 C   0  0  1  0  0  0  0  0  0  0  0  0
   21.0900   81.3410   20.1930 N   0  0  0  0  0  0  0  0  0  0  0  0
   20.6260   81.8590   21.4320 C   0  0  0  0  0  2  0  0  0  0  0  0
   20.0070   83.2080   21.4140 C   0  0  0  0  0  2  0  0  0  0  0  0
   20.0460   83.8870   20.1010 C   0  0  0  0  0  0  0  0  0  0  0  0
   19.9910   85.2060   19.7420 N   0  0  0  0  0  0  0  0  0  0  0  0
   20.0650   85.2420   18.4060 C   0  0  0  0  0  3  0  0  0  0  0  0
   20.1640   83.9890   17.9350 N   0  0  0  0  0  0  0  0  0  0  0  0
   20.1550   83.1110   18.9690 C   0  0  0  0  0  0  0  0  0  0  0  0
   18.8730   81.0490   19.2650 C   0  0  0  0  0  2  0  0  0  0  0  0
   18.9820   79.5210   19.2890 C   0  0  0  0  0  2  0  0  0  0  0  0
   21.1760   80.2950   20.2880 H   0  0  0  0  0  0  0  0  0  0  0  0
   19.9060   86.0100   20.4300 H   0  0  0  0  0  0  0  0  0  0  0  0
   21.1540   77.2140   17.0890 C   0  0  0  0  0  2  0  0  0  0  0  0
   20.3770   76.5110   16.0900 N   0  0  0  0  0  0  0  0  0  0  0  0
   20.8190   76.3800   14.7540 C   0  0  0  0  0  0  0  0  0  0  0  0
   21.9250   76.9000   14.4550 O   0  0  0  0  0  0  0  0  0  0  0  0
   19.4670   76.0890   16.3610 H   0  0  0  0  0  0  0  0  0  0  0  0
   20.0570   75.6790   13.7300 C   0  0  0  0  0  0  0  0  0  0  0  0
   19.6370   74.3680   13.8620 C   0  0  0  0  0  3  0  0  0  0  0  0
   18.9130   73.7270   12.8720 C   0  0  0  0  0  0  0  0  0  0  0  0
   18.3760   71.9300   13.1370 Br  0  0  0  0  0  0  0  0  0  0  0  0
   18.5860   74.4010   11.6950 C   0  0  0  0  0  3  0  0  0  0  0  0
   19.0140   75.7050   11.5800 C   0  0  0  0  0  3  0  0  0  0  0  0
   19.7330   76.3490   12.5600 C   0  0  0  0  0  3  0  0  0  0  0  0
  1  3  1  0  0  0  0
  1  2  2  0  0  0  0
  3 16  1  0  0  0  0
  4  5  1  0  0  0  0
  4  3  1  0  0  0  0
  6  5  1  6  0  0  0
  6 15  1  0  0  0  0
  6  7  1  0  0  0  0
  7 17  1  0  0  0  0
  7  8  1  0  0  0  0
  9  8  1  0  0  0  0
 10  9  1  0  0  0  0
 11 10  1  0  0  0  0
 11 18  1  0  0  0  0
 12 11  1  0  0  0  0
 13 12  2  0  0  0  0
 13 14  1  0  0  0  0
 14  6  1  0  0  0  0
 14 10  2  0  0  0  0
 15 16  1  0  0  0  0
 19  1  1  0  0  0  0
 20 23  1  0  0  0  0
 20 19  1  0  0  0  0
 21 20  1  0  0  0  0
 22 21  2  0  0  0  0
 24 25  1  0  0  0  0
 24 21  1  0  0  0  0
 26 27  1  0  0  0  0
 26 25  2  0  0  0  0
 28 26  1  0  0  0  0
 29 28  2  0  0  0  0
 29 30  1  0  0  0  0
 30 24  2  0  0  0  0
M  END
>  <Pose>
1

>  <Score>
-10.358

$$$$
