/Users/jonathanwahrer/Desktop/Msc/3_Semester/Drug_Design_Praktikum/waehrer_HTS_screening/HTS_experiment/out/docking_results/vina_output/6e43/0136_docked.pdbqt
 OpenBabel03212219403D

 30 33  0  0  1  0  0  0  0  0999 V2000
   19.9340   80.2410   17.8580 C   0  0  2  0  0  3  0  0  0  0  0  0
   19.1960   78.9200   17.7700 C   0  0  0  0  0  2  0  0  0  0  0  0
   19.9110   78.2180   16.7230 N   0  0  0  0  0  0  0  0  0  0  0  0
   21.1140   78.9330   16.3460 C   0  0  1  0  0  3  0  0  0  0  0  0
   21.3490   79.8180   17.5780 C   0  0  0  0  0  2  0  0  0  0  0  0
   22.1940   77.9640   16.1620 C   0  0  0  0  0  0  0  0  0  0  0  0
   23.2800   78.0840   16.7470 O   0  0  0  0  0  0  0  0  0  0  0  0
   21.9620   76.8740   15.2840 N   0  0  0  0  0  0  0  0  0  0  0  0
   20.6120   76.4050   15.0720 C   0  0  1  0  0  3  0  0  0  0  0  0
   19.6440   76.9920   16.0260 C   0  0  0  0  0  0  0  0  0  0  0  0
   18.5490   76.4090   16.2420 O   0  0  0  0  0  0  0  0  0  0  0  0
   22.7360   76.3850   14.7780 H   0  0  0  0  0  0  0  0  0  0  0  0
   19.7780   80.8520   19.1650 N   0  0  0  0  0  0  0  0  0  0  0  0
   19.7980   82.2600   19.2320 C   0  0  0  0  0  0  0  0  0  0  0  0
   19.9520   82.9420   18.1520 O   0  0  0  0  0  0  0  0  0  0  0  0
   19.6610   80.3010   20.0260 H   0  0  0  0  0  0  0  0  0  0  0  0
   19.6500   82.9780   20.4860 C   0  0  0  0  0  0  0  0  0  0  0  0
   20.2340   82.4910   21.6490 C   0  0  0  0  0  3  0  0  0  0  0  0
   20.1020   83.1660   22.8300 C   0  0  0  0  0  0  0  0  0  0  0  0
   20.9110   82.4840   24.4250 Br  0  0  0  0  0  0  0  0  0  0  0  0
   19.3990   84.3340   22.9110 C   0  0  0  0  0  3  0  0  0  0  0  0
   18.8210   84.8180   21.7640 C   0  0  0  0  0  3  0  0  0  0  0  0
   18.9490   84.1410   20.5610 C   0  0  0  0  0  3  0  0  0  0  0  0
   20.1610   76.5620   13.6360 C   0  0  0  0  0  2  0  0  0  0  0  0
   19.5900   75.3290   13.0680 C   0  0  0  0  0  0  0  0  0  0  0  0
   19.6450   74.1500   13.7890 C   0  0  0  0  0  3  0  0  0  0  0  0
   19.1130   72.9940   13.2650 C   0  0  0  0  0  3  0  0  0  0  0  0
   18.5110   72.9460   12.0220 C   0  0  0  0  0  3  0  0  0  0  0  0
   18.4560   74.1200   11.3010 C   0  0  0  0  0  3  0  0  0  0  0  0
   18.9840   75.2900   11.8110 C   0  0  0  0  0  3  0  0  0  0  0  0
  1 13  1  1  0  0  0
  2  1  1  0  0  0  0
  3  2  1  0  0  0  0
  4  3  1  0  0  0  0
  4  5  1  1  0  0  0
  5  1  1  0  0  0  0
  6  4  1  0  0  0  0
  6  7  2  0  0  0  0
  8  6  1  0  0  0  0
  9 24  1  6  0  0  0
  9  8  1  0  0  0  0
  9 10  1  0  0  0  0
 10 11  2  0  0  0  0
 10  3  1  0  0  0  0
 12  8  1  0  0  0  0
 13 14  1  0  0  0  0
 13 16  1  0  0  0  0
 14 17  1  0  0  0  0
 15 14  2  0  0  0  0
 17 23  2  0  0  0  0
 17 18  1  0  0  0  0
 18 19  2  0  0  0  0
 19 21  1  0  0  0  0
 19 20  1  0  0  0  0
 22 21  2  0  0  0  0
 23 22  1  0  0  0  0
 25 24  1  0  0  0  0
 25 26  1  0  0  0  0
 27 26  2  0  0  0  0
 28 27  1  0  0  0  0
 29 30  1  0  0  0  0
 29 28  2  0  0  0  0
 30 25  2  0  0  0  0
M  END
>  <Pose>
1

>  <Score>
-10.557

$$$$
