/Users/jonathanwahrer/Desktop/Msc/3_Semester/Drug_Design_Praktikum/waehrer_HTS_screening/HTS_experiment/out/docking_results/vina_output/6e43/0137_docked.pdbqt
 OpenBabel03212219403D

 25 28  0  0  1  0  0  0  0  0999 V2000
   19.9830   79.9230   17.4310 C   0  0  2  0  0  3  0  0  0  0  0  0
   20.7760   81.2820   17.4100 C   0  0  0  0  0  2  0  0  0  0  0  0
   20.1990   82.0220   18.4790 N   0  0  0  0  0  0  0  0  0  0  0  0
   19.5410   81.1020   19.3960 C   0  0  1  0  0  3  0  0  0  0  0  0
   20.0030   79.7650   18.9820 C   0  0  0  0  0  2  0  0  0  0  0  0
   19.7910   81.5050   20.7890 C   0  0  0  0  0  0  0  0  0  0  0  0
   20.0120   80.6330   21.6470 O   0  0  0  0  0  0  0  0  0  0  0  0
   19.7790   82.8710   21.1500 N   0  0  0  0  0  0  0  0  0  0  0  0
   20.2100   83.8670   20.1940 C   0  0  2  0  0  3  0  0  0  0  0  0
   19.3750   85.0980   20.4840 C   0  0  0  0  0  2  0  0  0  0  0  0
   18.5810   84.7470   21.6940 C   0  0  0  0  0  2  0  0  0  0  0  0
   19.4070   83.6260   22.3420 C   0  0  0  0  0  2  0  0  0  0  0  0
   20.1440   83.4040   18.8120 C   0  0  0  0  0  0  0  0  0  0  0  0
   20.0330   84.2530   17.8590 O   0  0  0  0  0  0  0  0  0  0  0  0
   20.5580   78.9690   16.7090 N   0  0  0  0  0  0  0  0  0  0  0  0
   21.1490   77.9780   15.9640 C   0  0  0  0  0  0  0  0  0  0  0  0
   20.7400   76.8060   15.6960 O   0  0  0  0  0  0  0  0  0  0  0  0
   19.4930   78.1280   16.9450 H   0  0  0  0  0  0  0  0  0  0  0  0
   22.4970   78.2390   15.3290 C   0  0  0  0  0  0  0  0  0  0  0  0
   23.6110   78.4690   16.0990 C   0  0  0  0  0  3  0  0  0  0  0  0
   24.8490   78.7050   15.5530 C   0  0  0  0  0  0  0  0  0  0  0  0
   26.3970   78.9950   16.6170 Br  0  0  0  0  0  0  0  0  0  0  0  0
   24.9400   78.7050   14.1640 C   0  0  0  0  0  3  0  0  0  0  0  0
   23.8510   78.4790   13.3690 C   0  0  0  0  0  3  0  0  0  0  0  0
   22.6180   78.2440   13.9630 C   0  0  0  0  0  3  0  0  0  0  0  0
  1 15  1  6  0  0  0
  1  5  1  0  0  0  0
  2  1  1  0  0  0  0
  2  3  1  0  0  0  0
  3 13  1  0  0  0  0
  3  4  1  0  0  0  0
  4  5  1  1  0  0  0
  4  6  1  0  0  0  0
  6  8  1  0  0  0  0
  6  7  2  0  0  0  0
  8 12  1  0  0  0  0
  9 10  1  6  0  0  0
  9  8  1  0  0  0  0
 10 11  1  0  0  0  0
 11 12  1  0  0  0  0
 13  9  1  0  0  0  0
 14 13  2  0  0  0  0
 15 18  1  0  0  0  0
 16 15  1  0  0  0  0
 17 16  2  0  0  0  0
 19 16  1  0  0  0  0
 19 20  1  0  0  0  0
 21 20  2  0  0  0  0
 21 22  1  0  0  0  0
 23 21  1  0  0  0  0
 24 25  1  0  0  0  0
 24 23  2  0  0  0  0
 25 19  2  0  0  0  0
M  END
>  <Pose>
1

>  <Score>
-9.172

$$$$
