/Users/jonathanwahrer/Desktop/Msc/3_Semester/Drug_Design_Praktikum/waehrer_HTS_screening/HTS_experiment/out/docking_results/vina_output/6e43/0152_docked.pdbqt
 OpenBabel03212219403D

 27 30  0  0  0  0  0  0  0  0999 V2000
   19.2620   75.1000   13.8410 C   0  0  0  0  0  3  0  0  0  0  0  0
   19.1800   75.2770   12.5170 C   0  0  0  0  0  0  0  0  0  0  0  0
   19.4070   76.4120   11.8570 O   0  0  0  0  0  0  0  0  0  0  0  0
   19.2530   76.1990   10.4640 C   0  0  0  0  0  0  0  0  0  0  0  0
   18.9250   74.9110   10.2050 C   0  0  0  0  0  0  0  0  0  0  0  0
   18.8110   74.5190    8.8730 C   0  0  0  0  0  3  0  0  0  0  0  0
   19.0020   75.4170    7.8700 C   0  0  0  0  0  3  0  0  0  0  0  0
   19.3050   76.7310    8.1680 C   0  0  0  0  0  0  0  0  0  0  0  0
   19.4400   77.1860    9.4570 C   0  0  0  0  0  0  0  0  0  0  0  0
   19.4820   77.6180    7.1040 O   0  0  0  0  0  1  0  0  0  0  0  0
   18.8490   74.2450   11.5260 C   0  0  0  0  0  0  0  0  0  0  0  0
   18.5570   73.0550   11.7460 O   0  0  0  0  0  0  0  0  0  0  0  0
   19.6500   76.2360   14.7200 C   0  0  0  0  0  0  0  0  0  0  0  0
   20.8910   76.8600   14.5200 C   0  0  0  0  0  3  0  0  0  0  0  0
   21.4750   77.6680   15.5040 C   0  0  0  0  0  0  0  0  0  0  0  0
   23.1780   78.4410   15.1240 Br  0  0  0  0  0  0  0  0  0  0  0  0
   20.8560   77.8780   16.6820 C   0  0  0  0  0  3  0  0  0  0  0  0
   19.5970   77.2690   16.9240 C   0  0  0  0  0  3  0  0  0  0  0  0
   19.0300   76.4600   15.9160 C   0  0  0  0  0  3  0  0  0  0  0  0
   19.2910   78.5410    9.9480 C   0  0  0  0  0  2  0  0  0  0  0  0
   19.9650   79.5180   10.5860 N   0  0  0  0  0  4  0  0  0  0  0  0
   20.7450   79.3960   11.7380 C   0  0  0  0  0  2  0  0  0  0  0  0
   22.2540   79.2190   11.4580 C   0  0  0  0  0  2  0  0  0  0  0  0
   22.8340   80.3200   10.8750 O   0  0  0  0  0  0  0  0  0  0  0  0
   21.9520   80.8750    9.9400 C   0  0  0  0  0  2  0  0  0  0  0  0
   20.9610   79.9450    9.4710 C   0  0  0  0  0  2  0  0  0  0  0  0
   19.3280   80.3960   10.6800 H   0  0  0  0  0  0  0  0  0  0  0  0
  1 13  1  0  0  0  0
  2  1  2  0  0  0  0
  3  2  1  0  0  0  0
  4  3  1  0  0  0  0
  5  4  1  0  0  0  0
  5 11  1  0  0  0  0
  6  5  2  0  0  0  0
  7  8  2  0  0  0  0
  7  6  1  0  0  0  0
  8  9  1  0  0  0  0
  9 20  1  0  0  0  0
  9  4  2  0  0  0  0
 10  8  1  0  0  0  0
 11 12  2  0  0  0  0
 11  2  1  0  0  0  0
 13 19  1  0  0  0  0
 14 13  2  0  0  0  0
 14 15  1  0  0  0  0
 15 17  2  0  0  0  0
 16 15  1  0  0  0  0
 17 18  1  0  0  0  0
 19 18  2  0  0  0  0
 20 21  1  0  0  0  0
 21 27  1  0  0  0  0
 21 22  1  0  0  0  0
 23 22  1  0  0  0  0
 24 23  1  0  0  0  0
 25 24  1  0  0  0  0
 26 25  1  0  0  0  0
 26 21  1  0  0  0  0
M  END
>  <Pose>
1

>  <Score>
-9.607

$$$$
