/Users/jonathanwahrer/Desktop/Msc/3_Semester/Drug_Design_Praktikum/waehrer_HTS_screening/HTS_experiment/out/docking_results/vina_output/6e43/0153_docked.pdbqt
 OpenBabel03212219413D

 34 37  0  0  0  0  0  0  0  0999 V2000
   19.4570   78.9040   18.6710 C   0  0  0  0  0  0  0  0  0  0  0  0
   18.8150   79.2270   19.7410 N   0  0  0  0  0  0  0  0  0  0  0  0
   18.8370   80.5470   19.9020 N   0  0  0  0  0  0  0  0  0  0  0  0
   19.5410   81.0980   18.8790 N   0  0  0  0  0  0  0  0  0  0  0  0
   19.9170   80.1490   18.0870 C   0  0  0  0  0  0  0  0  0  0  0  0
   19.8960   77.5520   18.1280 C   0  0  0  0  0  0  0  0  0  0  0  0
   19.3530   77.2100   16.9230 N   0  0  0  0  0  0  0  0  0  0  0  0
   18.7490   78.2240   16.5980 H   0  0  0  0  0  0  0  0  0  0  0  0
   20.7110   76.9040   18.8210 O   0  0  0  0  0  0  0  0  0  0  0  0
   19.1540   76.4260   15.8860 N   0  0  0  0  0  0  0  0  0  0  0  0
   20.0200   76.0460   14.9890 C   0  0  0  0  0  3  0  0  0  0  0  0
   19.6610   75.1740   13.8540 C   0  0  0  0  0  0  0  0  0  0  0  0
   19.5190   73.8010   13.9210 C   0  0  0  0  0  3  0  0  0  0  0  0
   19.0420   73.1090   12.8080 C   0  0  0  0  0  0  0  0  0  0  0  0
   18.7760   71.2100   12.8440 Br  0  0  0  0  0  0  0  0  0  0  0  0
   18.6920   73.7280   11.6140 C   0  0  0  0  0  3  0  0  0  0  0  0
   18.8660   75.0870   11.6040 C   0  0  0  0  0  3  0  0  0  0  0  0
   19.3260   75.8050   12.6700 C   0  0  0  0  0  3  0  0  0  0  0  0
   20.6270   80.0670   16.8140 C   0  0  0  0  0  2  0  0  0  0  0  0
   22.0010   79.8730   16.7130 N   0  0  0  0  0  0  0  0  0  0  0  0
   22.8420   78.8330   16.8200 C   0  0  0  0  0  2  0  0  0  0  0  0
   23.3800   78.4900   15.4040 C   0  0  0  0  0  2  0  0  0  0  0  0
   22.4200   78.9490   14.4660 N   0  0  0  0  0  0  0  0  0  0  0  0
   22.4040   80.3800   14.4040 C   0  0  0  0  0  2  0  0  0  0  0  0
   22.2470   78.2640   13.2550 C   0  0  0  0  0  1  0  0  0  0  0  0
   22.6140   80.9080   15.8290 C   0  0  0  0  0  2  0  0  0  0  0  0
   20.0850   82.4290   19.1030 C   0  0  0  0  0  0  0  0  0  0  0  0
   20.3820   83.1410   17.8830 N   0  0  0  0  0  0  0  0  0  0  0  0
   20.8500   84.2710   18.1260 O   0  0  0  0  0  0  0  0  0  0  0  0
   20.9230   84.4350   19.4110 N   0  0  0  0  0  0  0  0  0  0  0  0
   20.4380   83.2720   20.0100 C   0  0  0  0  0  0  0  0  0  0  0  0
   20.3990   83.1850   21.4160 N   0  0  0  0  0  0  0  0  0  0  0  0
   19.3930   83.2280   21.8070 H   0  0  0  0  0  0  0  0  0  0  0  0
   21.1190   83.0930   22.1060 H   0  0  0  0  0  0  0  0  0  0  0  0
  1  2  1  0  0  0  0
  2  3  2  0  0  0  0
  4 27  1  0  0  0  0
  4  3  1  0  0  0  0
  5  1  2  0  0  0  0
  5  4  1  0  0  0  0
  6  1  1  0  0  0  0
  6  9  2  0  0  0  0
  7  6  1  0  0  0  0
  8  7  1  0  0  0  0
 10  7  1  0  0  0  0
 11 10  2  0  0  0  0
 12 13  1  0  0  0  0
 12 11  1  0  0  0  0
 14 15  1  0  0  0  0
 14 13  2  0  0  0  0
 16 14  1  0  0  0  0
 17 16  2  0  0  0  0
 17 18  1  0  0  0  0
 18 12  2  0  0  0  0
 19  5  1  0  0  0  0
 20 19  1  0  0  0  0
 20 21  1  0  0  0  0
 22 21  1  0  0  0  0
 23 22  1  0  0  0  0
 24 23  1  0  0  0  0
 24 26  1  0  0  0  0
 25 23  1  0  0  0  0
 26 20  1  0  0  0  0
 27 31  1  0  0  0  0
 28 29  1  0  0  0  0
 28 27  2  0  0  0  0
 29 30  1  0  0  0  0
 30 31  2  0  0  0  0
 31 32  1  0  0  0  0
 32 33  1  0  0  0  0
 32 34  1  0  0  0  0
M  END
>  <Pose>
1

>  <Score>
-10.726

$$$$
