/Users/jonathanwahrer/Desktop/Msc/3_Semester/Drug_Design_Praktikum/waehrer_HTS_screening/HTS_experiment/out/docking_results/vina_output/6e43/0156_docked.pdbqt
 OpenBabel03212219413D

 29 32  0  0  0  0  0  0  0  0999 V2000
   20.7710   76.7600   14.3240 C   0  0  0  0  0  0  0  0  0  0  0  0
   20.1660   75.5680   14.3080 N   0  0  0  0  0  4  0  0  0  0  0  0
   19.4620   75.1070   13.2370 C   0  0  0  0  0  0  0  0  0  0  0  0
   19.4080   75.9380   12.1730 N   0  0  0  0  0  0  0  0  0  0  0  0
   19.9940   77.1470   12.1300 C   0  0  0  0  0  0  0  0  0  0  0  0
   20.6750   77.5260   13.2390 N   0  0  0  0  0  2  0  0  0  0  0  0
   21.4920   77.1790   15.4770 N   0  0  0  0  0  0  0  0  0  0  0  0
   22.4980   76.9360   15.5870 H   0  0  0  0  0  0  0  0  0  0  0  0
   20.8800   77.9210   16.4900 N   0  0  0  0  0  0  0  0  0  0  0  0
   21.0530   79.1690   16.6860 C   0  0  0  0  0  3  0  0  0  0  0  0
   20.4020   79.9170   17.7530 C   0  0  0  0  0  0  0  0  0  0  0  0
   20.5830   81.2800   17.9110 C   0  0  0  0  0  3  0  0  0  0  0  0
   19.9840   82.0130   18.9070 C   0  0  0  0  0  0  0  0  0  0  0  0
   20.2770   83.8990   19.0690 Br  0  0  0  0  0  0  0  0  0  0  0  0
   19.1570   81.3650   19.8010 C   0  0  0  0  0  3  0  0  0  0  0  0
   18.9450   80.0070   19.6860 C   0  0  0  0  0  3  0  0  0  0  0  0
   19.5710   79.2990   18.6620 C   0  0  0  0  0  3  0  0  0  0  0  0
   18.8310   73.8440   13.2430 N   0  0  0  0  0  0  0  0  0  0  0  0
   17.4530   73.7100   12.8610 C   0  0  0  0  0  2  0  0  0  0  0  0
   17.3980   72.6530   11.7640 C   0  0  0  0  0  2  0  0  0  0  0  0
   17.9040   71.4830   12.3250 O   0  0  0  0  0  0  0  0  0  0  0  0
   19.2570   71.5730   12.5990 C   0  0  0  0  0  2  0  0  0  0  0  0
   19.5470   72.6600   13.6300 C   0  0  0  0  0  2  0  0  0  0  0  0
   19.9220   77.9930   11.0100 N   0  0  0  0  0  0  0  0  0  0  0  0
   19.2530   77.6020    9.7990 C   0  0  0  0  0  2  0  0  0  0  0  0
   18.5590   78.8670    9.2770 C   0  0  0  0  0  2  0  0  0  0  0  0
   18.2770   79.7330   10.3310 O   0  0  0  0  0  0  0  0  0  0  0  0
   19.3860   80.3060   10.8990 C   0  0  0  0  0  2  0  0  0  0  0  0
   20.5290   79.2930   11.0520 C   0  0  0  0  0  2  0  0  0  0  0  0
  1  7  1  0  0  0  0
  2  1  2  0  0  0  0
  3 18  1  0  0  0  0
  3  2  2  0  0  0  0
  4  3  1  0  0  0  0
  5  4  2  0  0  0  0
  5  6  1  0  0  0  0
  6  1  1  0  0  0  0
  7  8  1  0  0  0  0
  7  9  1  0  0  0  0
  9 10  2  0  0  0  0
 10 11  1  0  0  0  0
 11 12  2  0  0  0  0
 11 17  1  0  0  0  0
 12 13  1  0  0  0  0
 13 14  1  0  0  0  0
 13 15  2  0  0  0  0
 16 15  1  0  0  0  0
 17 16  2  0  0  0  0
 18 23  1  0  0  0  0
 19 18  1  0  0  0  0
 20 21  1  0  0  0  0
 20 19  1  0  0  0  0
 21 22  1  0  0  0  0
 22 23  1  0  0  0  0
 24 29  1  0  0  0  0
 24  5  1  0  0  0  0
 25 24  1  0  0  0  0
 26 25  1  0  0  0  0
 26 27  1  0  0  0  0
 27 28  1  0  0  0  0
 28 29  1  0  0  0  0
M  END
>  <Pose>
1

>  <Score>
-9.979

$$$$
