/Users/jonathanwahrer/Desktop/Msc/3_Semester/Drug_Design_Praktikum/waehrer_HTS_screening/HTS_experiment/out/docking_results/vina_output/6e43/0169_docked.pdbqt
 OpenBabel03212219423D

 37 40  0  0  1  0  0  0  0  0999 V2000
   22.4310   79.9560   15.0530 C   0  0  2  0  0  3  0  0  0  0  0  0
   21.2360   79.5410   15.7620 N   0  0  0  0  0  0  0  0  0  0  0  0
   20.9260   78.2380   15.2900 C   0  0  0  0  0  0  0  0  0  0  0  0
   20.2870   77.3450   15.8880 O   0  0  0  0  0  0  0  0  0  0  0  0
   21.5110   78.1240   13.9360 C   0  0  0  0  0  0  0  0  0  0  0  0
   21.4610   77.1380   13.1680 O   0  0  0  0  0  0  0  0  0  0  0  0
   22.1550   79.4060   13.6800 C   0  0  0  0  0  0  0  0  0  0  0  0
   22.3720   79.9280   12.5120 C   0  0  0  0  0  0  0  0  0  0  0  0
   22.9510   81.2130   12.4580 O   0  0  0  0  0  1  0  0  0  0  0  0
   23.5960   79.2670   15.6590 C   0  0  0  0  0  0  0  0  0  0  0  0
   24.0710   78.0620   15.1590 C   0  0  0  0  0  3  0  0  0  0  0  0
   25.1480   77.4120   15.7220 C   0  0  0  0  0  0  0  0  0  0  0  0
   25.7490   75.7580   14.9850 Br  0  0  0  0  0  0  0  0  0  0  0  0
   25.8060   77.9320   16.8150 C   0  0  0  0  0  3  0  0  0  0  0  0
   25.3520   79.1270   17.3300 C   0  0  0  0  0  3  0  0  0  0  0  0
   24.2750   79.7700   16.7590 C   0  0  0  0  0  3  0  0  0  0  0  0
   22.0730   79.3030   11.2320 C   0  0  0  0  0  0  0  0  0  0  0  0
   22.8030   78.5730   10.3570 C   0  0  0  0  0  0  0  0  0  0  0  0
   21.9950   78.1970    9.3440 N   0  0  0  0  0  0  0  0  0  0  0  0
   24.2680   78.2510   10.4220 C   0  0  0  0  0  1  0  0  0  0  0  0
   20.7500   78.6570    9.5190 C   0  0  0  0  0  0  0  0  0  0  0  0
   22.3150   77.6130    8.5170 H   0  0  0  0  0  0  0  0  0  0  0  0
   20.7700   79.3550   10.6970 C   0  0  0  0  0  0  0  0  0  0  0  0
   19.5980   80.0550   11.3060 C   0  0  0  0  0  1  0  0  0  0  0  0
   19.5920   78.4550    8.6260 C   0  0  0  0  0  0  0  0  0  0  0  0
   18.5300   79.0470    8.8690 O   0  0  0  0  0  0  0  0  0  0  0  0
   19.6830   77.6170    7.5310 O   0  0  0  0  0  0  0  0  0  0  0  0
   19.4710   76.2250    7.5890 C   0  0  0  0  0  1  0  0  0  0  0  0
   20.4860   80.3040   16.7630 C   0  0  0  0  0  2  0  0  0  0  0  0
   21.0350   80.0680   18.1530 C   0  0  0  0  0  2  0  0  0  0  0  0
   20.8930   81.1850   19.0290 N   0  0  0  0  0  4  0  0  0  0  0  0
   20.0700   80.9130   20.2020 C   0  0  0  0  0  2  0  0  0  0  0  0
   20.3770   81.9720   21.2260 C   0  0  0  0  0  2  0  0  0  0  0  0
   20.8740   83.0850   20.5950 O   0  0  0  0  0  0  0  0  0  0  0  0
   20.2050   83.4320   19.4340 C   0  0  0  0  0  2  0  0  0  0  0  0
   20.2680   82.3290   18.3780 C   0  0  0  0  0  2  0  0  0  0  0  0
   21.8310   81.5120   19.3230 H   0  0  0  0  0  0  0  0  0  0  0  0
  1 10  1  1  0  0  0
  1  2  1  0  0  0  0
  2 29  1  0  0  0  0
  3  2  1  0  0  0  0
  3  4  2  0  0  0  0
  5  3  1  0  0  0  0
  6  5  2  0  0  0  0
  7  5  1  0  0  0  0
  7  1  1  0  0  0  0
  8  7  2  0  0  0  0
  9  8  1  0  0  0  0
 10 16  1  0  0  0  0
 11 10  2  0  0  0  0
 11 12  1  0  0  0  0
 12 14  2  0  0  0  0
 13 12  1  0  0  0  0
 14 15  1  0  0  0  0
 16 15  2  0  0  0  0
 17  8  1  0  0  0  0
 18 20  1  0  0  0  0
 18 17  2  0  0  0  0
 19 21  1  0  0  0  0
 19 18  1  0  0  0  0
 21 23  2  0  0  0  0
 22 19  1  0  0  0  0
 23 17  1  0  0  0  0
 23 24  1  0  0  0  0
 25 26  2  0  0  0  0
 25 21  1  0  0  0  0
 27 28  1  0  0  0  0
 27 25  1  0  0  0  0
 29 30  1  0  0  0  0
 30 31  1  0  0  0  0
 31 37  1  0  0  0  0
 31 32  1  0  0  0  0
 32 33  1  0  0  0  0
 34 33  1  0  0  0  0
 35 34  1  0  0  0  0
 36 31  1  0  0  0  0
 36 35  1  0  0  0  0
M  END
>  <Pose>
1

>  <Score>
-8.964

$$$$
