/Users/jonathanwahrer/Desktop/Msc/3_Semester/Drug_Design_Praktikum/waehrer_HTS_screening/HTS_experiment/out/docking_results/vina_output/6e43/0175_docked.pdbqt
 OpenBabel03212219423D

 32 35  0  0  1  0  0  0  0  0999 V2000
   22.4790   79.5180   15.7440 C   0  0  2  0  0  3  0  0  0  0  0  0
   21.4790   79.0120   16.6360 N   0  0  0  0  0  0  0  0  0  0  0  0
   20.9210   77.8700   16.0040 C   0  0  0  0  0  0  0  0  0  0  0  0
   20.2690   76.9600   16.5730 O   0  0  0  0  0  0  0  0  0  0  0  0
   21.2270   77.9180   14.5540 C   0  0  0  0  0  0  0  0  0  0  0  0
   20.9030   77.0960   13.6800 O   0  0  0  0  0  0  0  0  0  0  0  0
   21.9910   79.1370   14.3700 C   0  0  0  0  0  0  0  0  0  0  0  0
   22.1830   79.8120   13.2580 C   0  0  0  0  0  0  0  0  0  0  0  0
   22.8880   80.9970   13.2880 O   0  0  0  0  0  1  0  0  0  0  0  0
   21.0810   79.5390   17.9570 C   0  0  0  0  0  2  0  0  0  0  0  0
   20.7260   80.9880   17.7710 C   0  0  0  0  0  2  0  0  0  0  0  0
   19.7620   81.4960   18.6770 N   0  0  0  0  0  4  0  0  0  0  0  0
   19.8660   81.0390   20.0320 C   0  0  0  0  0  2  0  0  0  0  0  0
   20.7150   81.9100   20.9170 C   0  0  0  0  0  2  0  0  0  0  0  0
   20.5200   83.2590   20.7190 O   0  0  0  0  0  0  0  0  0  0  0  0
   20.7300   83.6310   19.4110 C   0  0  0  0  0  2  0  0  0  0  0  0
   19.7020   82.9320   18.5630 C   0  0  0  0  0  2  0  0  0  0  0  0
   18.8140   81.1660   18.3240 H   0  0  0  0  0  0  0  0  0  0  0  0
   23.8250   78.9300   15.9910 C   0  0  0  0  0  0  0  0  0  0  0  0
   24.2190   77.7280   15.4420 C   0  0  0  0  0  3  0  0  0  0  0  0
   25.4750   77.1770   15.6710 C   0  0  0  0  0  0  0  0  0  0  0  0
   25.9790   75.5080   14.8900 Br  0  0  0  0  0  0  0  0  0  0  0  0
   26.3520   77.8480   16.4650 C   0  0  0  0  0  3  0  0  0  0  0  0
   26.0060   79.0470   17.0330 C   0  0  0  0  0  3  0  0  0  0  0  0
   24.7550   79.5760   16.7940 C   0  0  0  0  0  3  0  0  0  0  0  0
   21.6810   79.3430   11.9920 C   0  0  0  0  0  0  0  0  0  0  0  0
   20.4010   79.4580   11.5320 C   0  0  0  0  0  3  0  0  0  0  0  0
   20.0670   78.9970   10.2720 C   0  0  0  0  0  3  0  0  0  0  0  0
   20.9680   78.4060    9.4150 C   0  0  0  0  0  0  0  0  0  0  0  0
   22.2600   78.2910    9.8810 C   0  0  0  0  0  3  0  0  0  0  0  0
   20.5810   77.9170    8.0620 C   0  0  0  0  0  1  0  0  0  0  0  0
   22.6130   78.7420   11.1290 C   0  0  0  0  0  3  0  0  0  0  0  0
  1 19  1  1  0  0  0
  1  2  1  0  0  0  0
  2 10  1  0  0  0  0
  3  4  2  0  0  0  0
  3  2  1  0  0  0  0
  5  3  1  0  0  0  0
  6  5  2  0  0  0  0
  7  5  1  0  0  0  0
  7  1  1  0  0  0  0
  8  9  1  0  0  0  0
  8  7  2  0  0  0  0
 11 10  1  0  0  0  0
 11 12  1  0  0  0  0
 12 13  1  0  0  0  0
 13 14  1  0  0  0  0
 15 14  1  0  0  0  0
 16 15  1  0  0  0  0
 17 12  1  0  0  0  0
 17 16  1  0  0  0  0
 18 12  1  0  0  0  0
 19 25  1  0  0  0  0
 20 21  1  0  0  0  0
 20 19  2  0  0  0  0
 21 23  2  0  0  0  0
 22 21  1  0  0  0  0
 23 24  1  0  0  0  0
 25 24  2  0  0  0  0
 26  8  1  0  0  0  0
 27 26  1  0  0  0  0
 28 27  2  0  0  0  0
 29 30  2  0  0  0  0
 29 28  1  0  0  0  0
 30 32  1  0  0  0  0
 31 29  1  0  0  0  0
 32 26  2  0  0  0  0
M  END
>  <Pose>
1

>  <Score>
-10.180

$$$$
