/Users/jonathanwahrer/Desktop/Msc/3_Semester/Drug_Design_Praktikum/waehrer_HTS_screening/HTS_experiment/out/docking_results/vina_output/6e43/0176_docked.pdbqt
 OpenBabel03212219433D

 33 36  0  0  1  0  0  0  0  0999 V2000
   20.4400   79.5560   17.1530 C   0  0  1  0  0  3  0  0  0  0  0  0
   19.7700   78.2850   17.3730 N   0  0  0  0  0  0  0  0  0  0  0  0
   19.8480   78.0090   18.7870 C   0  0  0  0  0  0  0  0  0  0  0  0
   19.6810   76.8780   19.3050 O   0  0  0  0  0  0  0  0  0  0  0  0
   20.1470   79.2620   19.4470 C   0  0  0  0  0  0  0  0  0  0  0  0
   20.3060   79.4770   20.6900 O   0  0  0  0  0  0  0  0  0  0  0  0
   20.2440   80.2880   18.4180 C   0  0  0  0  0  0  0  0  0  0  0  0
   20.1990   81.5950   18.6310 C   0  0  0  0  0  0  0  0  0  0  0  0
   20.3720   82.3750   17.4680 O   0  0  0  0  0  1  0  0  0  0  0  0
   19.2400   77.4350   16.3560 C   0  0  0  0  0  2  0  0  0  0  0  0
   20.1070   76.4120   15.7450 C   0  0  0  0  0  2  0  0  0  0  0  0
   19.8290   75.9220   14.3730 C   0  0  0  0  0  2  0  0  0  0  0  0
   19.0840   74.7170   14.2240 N   0  0  0  0  0  4  0  0  0  0  0  0
   18.1420   74.8260   13.1400 C   0  0  0  0  0  2  0  0  0  0  0  0
   18.6860   74.3220   11.8200 C   0  0  0  0  0  2  0  0  0  0  0  0
   18.9180   72.9470   11.8910 O   0  0  0  0  0  0  0  0  0  0  0  0
   19.1410   72.5480   13.2100 C   0  0  0  0  0  2  0  0  0  0  0  0
   20.0050   73.5990   13.8500 C   0  0  0  0  0  2  0  0  0  0  0  0
   18.6700   74.3940   15.0950 H   0  0  0  0  0  0  0  0  0  0  0  0
   21.8710   79.3440   16.8190 C   0  0  0  0  0  0  0  0  0  0  0  0
   22.2710   79.2660   15.5040 C   0  0  0  0  0  3  0  0  0  0  0  0
   23.5960   79.0660   15.1420 C   0  0  0  0  0  0  0  0  0  0  0  0
   24.1600   78.9610   13.3310 Br  0  0  0  0  0  0  0  0  0  0  0  0
   24.5630   78.9390   16.1170 C   0  0  0  0  0  3  0  0  0  0  0  0
   24.1650   79.0170   17.4320 C   0  0  0  0  0  3  0  0  0  0  0  0
   22.8240   79.2200   17.7850 C   0  0  0  0  0  3  0  0  0  0  0  0
   19.9880   82.2190   19.9270 C   0  0  0  0  0  0  0  0  0  0  0  0
   20.8960   82.2350   20.9600 C   0  0  0  0  0  3  0  0  0  0  0  0
   20.6530   82.8740   22.1590 C   0  0  0  0  0  3  0  0  0  0  0  0
   19.4640   83.5340   22.3720 C   0  0  0  0  0  0  0  0  0  0  0  0
   18.5400   83.5280   21.3460 C   0  0  0  0  0  3  0  0  0  0  0  0
   19.1300   84.3600   23.8980 Cl  0  0  0  0  0  0  0  0  0  0  0  0
   18.7930   82.8860   20.1500 C   0  0  0  0  0  3  0  0  0  0  0  0
  1 20  1  1  0  0  0
  1  2  1  0  0  0  0
  1  7  1  0  0  0  0
  2  3  1  0  0  0  0
  3  4  2  0  0  0  0
  3  5  1  0  0  0  0
  5  6  2  0  0  0  0
  7  8  2  0  0  0  0
  7  5  1  0  0  0  0
  8 27  1  0  0  0  0
  9  8  1  0  0  0  0
 10  2  1  0  0  0  0
 11 10  1  0  0  0  0
 12 11  1  0  0  0  0
 13 12  1  0  0  0  0
 13 19  1  0  0  0  0
 14 13  1  0  0  0  0
 15 16  1  0  0  0  0
 15 14  1  0  0  0  0
 16 17  1  0  0  0  0
 17 18  1  0  0  0  0
 18 13  1  0  0  0  0
 20 26  1  0  0  0  0
 21 20  2  0  0  0  0
 22 21  1  0  0  0  0
 22 24  2  0  0  0  0
 23 22  1  0  0  0  0
 24 25  1  0  0  0  0
 25 26  2  0  0  0  0
 27 33  2  0  0  0  0
 27 28  1  0  0  0  0
 28 29  2  0  0  0  0
 29 30  1  0  0  0  0
 30 32  1  0  0  0  0
 31 30  2  0  0  0  0
 33 31  1  0  0  0  0
M  END
>  <Pose>
1

>  <Score>
-10.018

$$$$
