/Users/jonathanwahrer/Desktop/Msc/3_Semester/Drug_Design_Praktikum/waehrer_HTS_screening/HTS_experiment/out/docking_results/vina_output/6e43/0182_docked.pdbqt
 OpenBabel03212219433D

 36 40  0  0  1  0  0  0  0  0999 V2000
   21.4710   77.5580   13.1110 C   0  0  2  0  0  3  0  0  0  0  0  0
   20.2770   76.7900   13.0480 N   0  0  0  0  0  0  0  0  0  0  0  0
   20.2840   76.0510   14.3130 C   0  0  0  0  0  0  0  0  0  0  0  0
   19.7500   74.9490   14.5220 O   0  0  0  0  0  0  0  0  0  0  0  0
   21.0430   76.8760   15.2670 C   0  0  0  0  0  0  0  0  0  0  0  0
   21.2950   76.6340   16.4700 O   0  0  0  0  0  0  0  0  0  0  0  0
   21.4510   78.0610   14.5160 C   0  0  0  0  0  0  0  0  0  0  0  0
   21.6820   79.2550   14.9970 C   0  0  0  0  0  0  0  0  0  0  0  0
   22.0030   80.2690   14.0690 O   0  0  0  0  0  1  0  0  0  0  0  0
   21.7940   78.5070   12.0880 C   0  0  0  0  0  0  0  0  0  0  0  0
   20.8210   79.4430   11.6840 C   0  0  0  0  0  3  0  0  0  0  0  0
   21.0390   80.3770   10.7050 C   0  0  0  0  0  0  0  0  0  0  0  0
   19.6680   81.6200   10.2090 Br  0  0  0  0  0  0  0  0  0  0  0  0
   22.2400   80.4510   10.0540 C   0  0  0  0  0  3  0  0  0  0  0  0
   23.2230   79.5560   10.4130 C   0  0  0  0  0  3  0  0  0  0  0  0
   22.9810   78.6250   11.4000 C   0  0  0  0  0  3  0  0  0  0  0  0
   21.6300   79.5620   16.4180 C   0  0  0  0  0  0  0  0  0  0  0  0
   20.6060   79.8500   17.2340 N   0  0  0  0  0  0  0  0  0  0  0  0
   21.0660   80.1060   18.4620 C   0  0  0  0  0  0  0  0  0  0  0  0
   19.2770   79.8780   16.9330 C   0  0  0  0  0  3  0  0  0  0  0  0
   22.4180   79.9740   18.4210 N   0  0  0  0  0  0  0  0  0  0  0  0
   20.2100   80.4210   19.5140 C   0  0  0  0  0  0  0  0  0  0  0  0
   22.8050   79.6390   17.1830 C   0  0  0  0  0  0  0  0  0  0  0  0
   24.1980   79.4000   16.7110 C   0  0  0  0  0  1  0  0  0  0  0  0
   18.8570   80.4560   19.2370 C   0  0  0  0  0  3  0  0  0  0  0  0
   20.7780   80.6970   20.8570 C   0  0  0  0  0  1  0  0  0  0  0  0
   18.4130   80.1850   17.9560 C   0  0  0  0  0  3  0  0  0  0  0  0
   19.2330   76.6080   12.0550 C   0  0  0  0  0  2  0  0  0  0  0  0
   19.6730   75.9780   10.7780 C   0  0  0  0  0  2  0  0  0  0  0  0
   18.7420   76.1990    9.6890 N   0  0  0  0  0  4  0  0  0  0  0  0
   18.8810   77.5270    9.1340 C   0  0  0  0  0  2  0  0  0  0  0  0
   20.1770   77.6120    8.3220 C   0  0  0  0  0  2  0  0  0  0  0  0
   20.0010   76.7470    7.2360 O   0  0  0  0  0  0  0  0  0  0  0  0
   20.0500   75.4450    7.7770 C   0  0  0  0  0  2  0  0  0  0  0  0
   18.8630   75.1750    8.6700 C   0  0  0  0  0  2  0  0  0  0  0  0
   17.7630   76.1340   10.0610 H   0  0  0  0  0  0  0  0  0  0  0  0
  1 10  1  6  0  0  0
  1  7  1  0  0  0  0
  2  1  1  0  0  0  0
  2  3  1  0  0  0  0
  3  4  2  0  0  0  0
  3  5  1  0  0  0  0
  5  6  2  0  0  0  0
  7  8  2  0  0  0  0
  7  5  1  0  0  0  0
  8 17  1  0  0  0  0
  9  8  1  0  0  0  0
 11 10  1  0  0  0  0
 12 11  2  0  0  0  0
 13 12  1  0  0  0  0
 14 15  2  0  0  0  0
 14 12  1  0  0  0  0
 15 16  1  0  0  0  0
 16 10  2  0  0  0  0
 17 23  2  0  0  0  0
 17 18  1  0  0  0  0
 18 19  1  0  0  0  0
 19 22  1  0  0  0  0
 20 18  1  0  0  0  0
 20 27  2  0  0  0  0
 21 19  2  0  0  0  0
 22 26  1  0  0  0  0
 23 21  1  0  0  0  0
 24 23  1  0  0  0  0
 25 22  2  0  0  0  0
 27 25  1  0  0  0  0
 28  2  1  0  0  0  0
 29 28  1  0  0  0  0
 30 36  1  0  0  0  0
 30 29  1  0  0  0  0
 31 30  1  0  0  0  0
 32 31  1  0  0  0  0
 33 34  1  0  0  0  0
 33 32  1  0  0  0  0
 34 35  1  0  0  0  0
 35 30  1  0  0  0  0
M  END
>  <Pose>
1

>  <Score>
-7.182

$$$$
