/Users/jonathanwahrer/Desktop/Msc/3_Semester/Drug_Design_Praktikum/waehrer_HTS_screening/HTS_experiment/out/docking_results/vina_output/6e43/0184_docked.pdbqt
 OpenBabel03212219433D

 33 36  0  0  1  0  0  0  0  0999 V2000
   21.3990   77.5400   12.9770 C   0  0  2  0  0  3  0  0  0  0  0  0
   20.2450   76.6630   13.0180 N   0  0  0  0  0  0  0  0  0  0  0  0
   20.3550   75.9600   14.2630 C   0  0  0  0  0  0  0  0  0  0  0  0
   19.8800   74.8470   14.5510 O   0  0  0  0  0  0  0  0  0  0  0  0
   21.1410   76.8020   15.1580 C   0  0  0  0  0  0  0  0  0  0  0  0
   21.5060   76.6130   16.3560 O   0  0  0  0  0  0  0  0  0  0  0  0
   21.4750   77.9980   14.3990 C   0  0  0  0  0  0  0  0  0  0  0  0
   21.8060   79.1690   14.9070 C   0  0  0  0  0  0  0  0  0  0  0  0
   22.1530   80.1630   13.9820 O   0  0  0  0  0  1  0  0  0  0  0  0
   21.2780   78.6740   12.0530 C   0  0  0  0  0  0  0  0  0  0  0  0
   20.1420   79.3870   11.8660 C   0  0  0  0  0  3  0  0  0  0  0  0
   20.1090   80.4490   10.9600 C   0  0  0  0  0  0  0  0  0  0  0  0
   18.4960   81.4240   10.7260 Br  0  0  0  0  0  0  0  0  0  0  0  0
   21.2300   80.8100   10.2260 C   0  0  0  0  0  3  0  0  0  0  0  0
   22.3750   80.0720   10.4320 C   0  0  0  0  0  3  0  0  0  0  0  0
   22.4110   79.0340   11.3150 C   0  0  0  0  0  3  0  0  0  0  0  0
   21.8290   79.4930   16.3250 C   0  0  0  0  0  0  0  0  0  0  0  0
   20.7830   79.7620   17.1200 N   0  0  0  0  0  0  0  0  0  0  0  0
   21.1890   79.9760   18.3980 C   0  0  0  0  0  0  0  0  0  0  0  0
   19.4440   79.8680   16.8690 C   0  0  0  0  0  3  0  0  0  0  0  0
   22.5420   79.8300   18.3660 N   0  0  0  0  0  0  0  0  0  0  0  0
   20.3110   80.2870   19.4240 C   0  0  0  0  0  3  0  0  0  0  0  0
   22.9650   79.5420   17.1470 C   0  0  0  0  0  0  0  0  0  0  0  0
   24.3250   79.2950   16.6170 C   0  0  0  0  0  1  0  0  0  0  0  0
   18.9600   80.3910   19.1630 C   0  0  0  0  0  3  0  0  0  0  0  0
   18.5540   80.1710   17.8520 C   0  0  0  0  0  3  0  0  0  0  0  0
   19.1900   76.4970   12.0160 C   0  0  0  0  0  2  0  0  0  0  0  0
   19.3930   75.3240   11.1280 C   0  0  0  0  0  2  0  0  0  0  0  0
   18.4670   74.1850   11.2450 C   0  0  0  0  0  2  0  0  0  0  0  0
   18.4060   73.5380   12.5090 N   0  0  0  0  0  4  0  0  0  0  0  0
   18.9610   72.2090   12.4140 C   0  0  0  0  0  1  0  0  0  0  0  0
   16.9940   73.3550   12.8930 C   0  0  0  0  0  1  0  0  0  0  0  0
   18.8090   74.0900   13.2970 H   0  0  0  0  0  0  0  0  0  0  0  0
  1 10  1  6  0  0  0
  1  2  1  0  0  0  0
  1  7  1  0  0  0  0
  2  3  1  0  0  0  0
  3  4  2  0  0  0  0
  3  5  1  0  0  0  0
  5  6  2  0  0  0  0
  7  8  2  0  0  0  0
  7  5  1  0  0  0  0
  8 17  1  0  0  0  0
  9  8  1  0  0  0  0
 11 10  1  0  0  0  0
 12 11  2  0  0  0  0
 13 12  1  0  0  0  0
 14 15  2  0  0  0  0
 14 12  1  0  0  0  0
 15 16  1  0  0  0  0
 16 10  2  0  0  0  0
 17 18  1  0  0  0  0
 17 23  2  0  0  0  0
 18 19  1  0  0  0  0
 19 22  1  0  0  0  0
 20 18  1  0  0  0  0
 20 26  2  0  0  0  0
 21 19  2  0  0  0  0
 23 21  1  0  0  0  0
 24 23  1  0  0  0  0
 25 22  2  0  0  0  0
 26 25  1  0  0  0  0
 27  2  1  0  0  0  0
 28 29  1  0  0  0  0
 28 27  1  0  0  0  0
 29 30  1  0  0  0  0
 30 32  1  0  0  0  0
 30 33  1  0  0  0  0
 31 30  1  0  0  0  0
M  END
>  <Pose>
1

>  <Score>
-7.345

$$$$
