/Users/jonathanwahrer/Desktop/Msc/3_Semester/Drug_Design_Praktikum/waehrer_HTS_screening/HTS_experiment/out/docking_results/vina_output/6e43/0191_docked.pdbqt
 OpenBabel03212219443D

 34 37  0  0  1  0  0  0  0  0999 V2000
   22.7310   79.7180   15.9060 C   0  0  2  0  0  3  0  0  0  0  0  0
   21.6950   79.2340   16.7970 N   0  0  0  0  0  0  0  0  0  0  0  0
   21.1780   78.0350   16.1800 C   0  0  0  0  0  0  0  0  0  0  0  0
   20.5780   77.1090   16.7780 O   0  0  0  0  0  0  0  0  0  0  0  0
   21.4940   78.1290   14.7520 C   0  0  0  0  0  0  0  0  0  0  0  0
   21.2300   77.3060   13.8370 O   0  0  0  0  0  0  0  0  0  0  0  0
   22.1990   79.3860   14.5320 C   0  0  0  0  0  0  0  0  0  0  0  0
   22.3390   80.0480   13.3960 C   0  0  0  0  0  0  0  0  0  0  0  0
   23.0600   81.2150   13.3830 O   0  0  0  0  0  1  0  0  0  0  0  0
   24.0490   79.0720   16.1280 C   0  0  0  0  0  0  0  0  0  0  0  0
   24.3600   77.8360   15.5570 C   0  0  0  0  0  3  0  0  0  0  0  0
   25.5560   77.2050   15.7370 C   0  0  0  0  0  0  0  0  0  0  0  0
   25.8940   75.5020   14.9070 Br  0  0  0  0  0  0  0  0  0  0  0  0
   26.5210   77.7840   16.5080 C   0  0  0  0  0  3  0  0  0  0  0  0
   26.2710   78.9930   17.0910 C   0  0  0  0  0  3  0  0  0  0  0  0
   25.0460   79.6270   16.9000 C   0  0  0  0  0  3  0  0  0  0  0  0
   21.7330   79.5600   12.1430 C   0  0  0  0  0  0  0  0  0  0  0  0
   20.5000   79.7650   11.7670 O   0  0  0  0  0  0  0  0  0  0  0  0
   20.2110   79.2330   10.6270 C   0  0  0  0  0  0  0  0  0  0  0  0
   21.3500   78.6070   10.1820 C   0  0  0  0  0  0  0  0  0  0  0  0
   19.0260   79.2290    9.9020 C   0  0  0  0  0  0  0  0  0  0  0  0
   22.3140   78.8150   11.1450 C   0  0  0  0  0  3  0  0  0  0  0  0
   21.3030   77.9530    8.9700 C   0  0  0  0  0  3  0  0  0  0  0  0
   20.1520   77.9160    8.2090 C   0  0  0  0  0  3  0  0  0  0  0  0
   19.0170   78.5680    8.7000 C   0  0  0  0  0  3  0  0  0  0  0  0
   17.8910   79.8570   10.3470 O   0  0  0  0  0  0  0  0  0  0  0  0
   17.8120   81.1040   10.9600 C   0  0  0  0  0  1  0  0  0  0  0  0
   21.2600   79.7890   18.0560 C   0  0  0  0  0  2  0  0  0  0  0  0
   20.3800   80.9990   17.8530 C   0  0  0  0  0  2  0  0  0  0  0  0
   19.4840   81.3260   18.9920 C   0  0  0  0  0  2  0  0  0  0  0  0
   19.7260   82.5930   19.6090 N   0  0  0  0  0  4  0  0  0  0  0  0
   20.3440   83.5210   18.6590 C   0  0  0  0  0  1  0  0  0  0  0  0
   20.5430   82.4940   20.7800 C   0  0  0  0  0  1  0  0  0  0  0  0
   18.8290   83.0800   19.8950 H   0  0  0  0  0  0  0  0  0  0  0  0
  1 10  1  1  0  0  0
  1  2  1  0  0  0  0
  2 28  1  0  0  0  0
  3  4  2  0  0  0  0
  3  2  1  0  0  0  0
  5  3  1  0  0  0  0
  6  5  2  0  0  0  0
  7  5  1  0  0  0  0
  7  1  1  0  0  0  0
  8  7  2  0  0  0  0
  9  8  1  0  0  0  0
 10 16  1  0  0  0  0
 11 12  1  0  0  0  0
 11 10  2  0  0  0  0
 12 14  2  0  0  0  0
 13 12  1  0  0  0  0
 14 15  1  0  0  0  0
 16 15  2  0  0  0  0
 17  8  1  0  0  0  0
 18 17  1  0  0  0  0
 19 18  1  0  0  0  0
 20 19  1  0  0  0  0
 20 22  1  0  0  0  0
 21 26  1  0  0  0  0
 21 19  2  0  0  0  0
 22 17  2  0  0  0  0
 23 20  2  0  0  0  0
 24 25  2  0  0  0  0
 24 23  1  0  0  0  0
 25 21  1  0  0  0  0
 26 27  1  0  0  0  0
 29 28  1  0  0  0  0
 29 30  1  0  0  0  0
 30 31  1  0  0  0  0
 31 34  1  0  0  0  0
 31 33  1  0  0  0  0
 32 31  1  0  0  0  0
M  END
>  <Pose>
1

>  <Score>
-9.852

$$$$
