/Users/jonathanwahrer/Desktop/Msc/3_Semester/Drug_Design_Praktikum/waehrer_HTS_screening/HTS_experiment/out/docking_results/vina_output/6e43/0201_docked.pdbqt
 OpenBabel03212219443D

 25 28  0  0  0  0  0  0  0  0999 V2000
   19.8590   77.8830   17.6370 C   0  0  0  0  0  0  0  0  0  0  0  0
   19.6300   77.1780   18.6500 O   0  0  0  0  0  0  0  0  0  0  0  0
   19.7510   79.2850   17.7440 N   0  0  0  0  0  0  0  0  0  0  0  0
   19.9450   79.8550   16.8900 H   0  0  0  0  0  0  0  0  0  0  0  0
   20.2270   77.2100   16.3970 C   0  0  0  0  0  0  0  0  0  0  0  0
   21.4300   77.2150   15.7730 N   0  0  0  0  0  0  0  0  0  0  0  0
   21.3320   76.4780   14.6790 N   0  0  0  0  0  0  0  0  0  0  0  0
   20.1250   75.9910   14.5570 N   0  0  0  0  0  0  0  0  0  0  0  0
   19.4140   76.4280   15.6090 C   0  0  0  0  0  3  0  0  0  0  0  0
   19.5830   75.1480   13.5320 C   0  0  0  0  0  0  0  0  0  0  0  0
   19.3730   73.8020   13.7060 C   0  0  0  0  0  3  0  0  0  0  0  0
   18.8400   73.0210   12.6740 C   0  0  0  0  0  0  0  0  0  0  0  0
   18.5470   71.1530   12.9130 Br  0  0  0  0  0  0  0  0  0  0  0  0
   18.5150   73.5830   11.4590 C   0  0  0  0  0  3  0  0  0  0  0  0
   18.7220   74.9310   11.2730 C   0  0  0  0  0  3  0  0  0  0  0  0
   19.2550   75.7010   12.3130 C   0  0  0  0  0  3  0  0  0  0  0  0
   19.3890   79.9870   18.9530 C   0  0  0  0  0  2  0  0  0  0  0  0
   19.7060   81.4540   18.8440 C   0  0  0  0  0  0  0  0  0  0  0  0
   19.4680   82.4330   19.7490 N   0  0  0  0  0  0  0  0  0  0  0  0
   19.9040   83.6020   19.2680 C   0  0  0  0  0  0  0  0  0  0  0  0
   18.8840   82.5910   21.0700 C   0  0  0  0  0  2  0  0  0  0  0  0
   20.4170   83.3310   18.0440 N   0  0  0  0  0  0  0  0  0  0  0  0
   19.6560   84.7190   20.2500 C   0  0  0  0  0  2  0  0  0  0  0  0
   20.2980   82.0430   17.7900 N   0  0  0  0  0  0  0  0  0  0  0  0
   18.6170   84.0820   21.1500 C   0  0  0  0  0  2  0  0  0  0  0  0
  1  3  1  0  0  0  0
  1  2  2  0  0  0  0
  3 17  1  0  0  0  0
  4  3  1  0  0  0  0
  5  1  1  0  0  0  0
  6  5  1  0  0  0  0
  7  6  2  0  0  0  0
  8  7  1  0  0  0  0
  8  9  1  0  0  0  0
  9  5  2  0  0  0  0
 10 11  1  0  0  0  0
 10  8  1  0  0  0  0
 12 13  1  0  0  0  0
 12 11  2  0  0  0  0
 14 12  1  0  0  0  0
 15 14  2  0  0  0  0
 15 16  1  0  0  0  0
 16 10  2  0  0  0  0
 18 17  1  0  0  0  0
 18 19  1  0  0  0  0
 19 21  1  0  0  0  0
 20 19  1  0  0  0  0
 20 23  1  0  0  0  0
 21 25  1  0  0  0  0
 22 20  2  0  0  0  0
 23 25  1  0  0  0  0
 24 22  1  0  0  0  0
 24 18  2  0  0  0  0
M  END
>  <Pose>
1

>  <Score>
-10.250

$$$$
