/Users/jonathanwahrer/Desktop/Msc/3_Semester/Drug_Design_Praktikum/waehrer_HTS_screening/HTS_experiment/out/docking_results/vina_output/6e43/0205_docked.pdbqt
 OpenBabel03212219443D

 25 28  0  0  1  0  0  0  0  0999 V2000
   19.7650   81.0670   18.5930 N   0  0  0  0  0  0  0  0  0  0  0  0
   19.0140   79.8780   18.9110 C   0  0  0  0  0  0  0  0  0  0  0  0
   18.4720   79.6710   20.0330 O   0  0  0  0  0  0  0  0  0  0  0  0
   18.9970   78.9960   17.7450 C   0  0  2  0  0  3  0  0  0  0  0  0
   19.0470   77.6470   17.9580 O   0  0  0  0  0  0  0  0  0  0  0  0
   19.7850   77.2040   16.8630 N   0  0  0  0  0  0  0  0  0  0  0  0
   20.8100   78.1370   16.6210 C   0  0  0  0  0  0  0  0  0  0  0  0
   20.3620   79.2780   17.1640 C   0  0  0  0  0  0  0  0  0  0  0  0
   20.6070   80.6770   17.4940 C   0  0  0  0  0  0  0  0  0  0  0  0
   21.4240   81.4220   16.9130 O   0  0  0  0  0  0  0  0  0  0  0  0
   19.6120   76.3440   16.3270 H   0  0  0  0  0  0  0  0  0  0  0  0
   19.7240   82.3420   19.2020 C   0  0  0  0  0  0  0  0  0  0  0  0
   19.3930   82.5080   20.5450 C   0  0  0  0  0  3  0  0  0  0  0  0
   19.3410   83.7250   21.1750 C   0  0  0  0  0  0  0  0  0  0  0  0
   18.8800   83.9140   23.0160 Br  0  0  0  0  0  0  0  0  0  0  0  0
   19.6270   84.8800   20.4760 C   0  0  0  0  0  3  0  0  0  0  0  0
   19.9610   84.7340   19.1330 C   0  0  0  0  0  3  0  0  0  0  0  0
   20.0080   83.5100   18.5120 C   0  0  0  0  0  3  0  0  0  0  0  0
   22.0620   77.9650   15.9000 C   0  0  0  0  0  0  0  0  0  0  0  0
   23.3310   78.1590   16.4540 C   0  0  0  0  0  0  0  0  0  0  0  0
   24.2330   77.8900   15.5320 N   0  0  0  0  0  0  0  0  0  0  0  0
   23.6210   78.6160   17.8330 C   0  0  0  0  0  1  0  0  0  0  0  0
   23.6010   77.5350   14.4160 N   0  0  0  0  0  0  0  0  0  0  0  0
   25.6860   77.9670   15.6780 C   0  0  0  0  0  1  0  0  0  0  0  0
   22.2940   77.5740   14.6110 C   0  0  0  0  0  3  0  0  0  0  0  0
  1  2  1  0  0  0  0
  1 12  1  0  0  0  0
  2  3  2  0  0  0  0
  4  8  1  6  0  0  0
  4  5  1  0  0  0  0
  4  2  1  0  0  0  0
  6  5  1  0  0  0  0
  7  6  1  0  0  0  0
  7  8  2  0  0  0  0
  8  9  1  0  0  0  0
  9  1  1  0  0  0  0
 10  9  2  0  0  0  0
 11  6  1  0  0  0  0
 12 13  1  0  0  0  0
 13 14  2  0  0  0  0
 14 15  1  0  0  0  0
 16 14  1  0  0  0  0
 17 16  2  0  0  0  0
 18 17  1  0  0  0  0
 18 12  2  0  0  0  0
 19 20  2  0  0  0  0
 19  7  1  0  0  0  0
 20 22  1  0  0  0  0
 21 24  1  0  0  0  0
 21 20  1  0  0  0  0
 23 25  2  0  0  0  0
 23 21  1  0  0  0  0
 25 19  1  0  0  0  0
M  END
>  <Pose>
1

>  <Score>
-10.484

$$$$
