/Users/jonathanwahrer/Desktop/Msc/3_Semester/Drug_Design_Praktikum/waehrer_HTS_screening/HTS_experiment/out/docking_results/vina_output/6e43/0216_docked.pdbqt
 OpenBabel03212219453D

 28 31  0  0  1  0  0  0  0  0999 V2000
   21.7340   77.8090   17.3310 C   0  0  0  0  0  0  0  0  0  0  0  0
   21.1100   76.7960   16.9280 O   0  0  0  0  0  0  0  0  0  0  0  0
   23.0460   78.0950   16.8970 N   0  0  0  0  0  0  0  0  0  0  0  0
   23.7990   79.2600   17.3410 C   0  0  0  0  0  2  0  0  0  0  0  0
   24.7890   79.6490   16.2500 C   0  0  0  0  0  2  0  0  0  0  0  0
   24.3470   79.2600   14.9260 N   0  0  0  0  0  0  0  0  0  0  0  0
   24.3680   77.8440   14.8230 C   0  0  0  0  0  2  0  0  0  0  0  0
   23.6650   77.1620   15.9470 C   0  0  0  0  0  2  0  0  0  0  0  0
   21.0720   78.6960   18.2660 C   0  0  1  0  0  3  0  0  0  0  0  0
   20.4070   79.8980   17.5650 C   0  0  0  0  0  2  0  0  0  0  0  0
   19.8210   80.4920   18.7570 N   0  0  0  0  0  0  0  0  0  0  0  0
   19.2180   79.3800   19.4090 C   0  0  0  0  0  0  0  0  0  0  0  0
   19.7990   78.1120   18.8870 C   0  0  0  0  0  2  0  0  0  0  0  0
   18.3310   79.4580   20.2900 O   0  0  0  0  0  0  0  0  0  0  0  0
   19.8990   81.8620   19.0960 C   0  0  0  0  0  0  0  0  0  0  0  0
   19.4530   82.2920   20.3320 C   0  0  0  0  0  3  0  0  0  0  0  0
   19.4970   83.6260   20.7220 C   0  0  0  0  0  0  0  0  0  0  0  0
   18.8620   84.1090   22.4340 Br  0  0  0  0  0  0  0  0  0  0  0  0
   20.0100   84.5640   19.8270 C   0  0  0  0  0  3  0  0  0  0  0  0
   20.4660   84.1810   18.5840 C   0  0  0  0  0  3  0  0  0  0  0  0
   20.3930   82.8420   18.2630 C   0  0  0  0  0  3  0  0  0  0  0  0
   23.1560   79.9250   14.5330 C   0  0  0  0  0  2  0  0  0  0  0  0
   23.2060   80.5110   13.1450 C   0  0  0  0  0  2  0  0  0  0  0  0
   22.3500   79.8530   12.2010 N   0  0  0  0  0  0  0  0  0  0  0  0
   22.0960   80.1900   10.9350 C   0  0  0  0  0  3  0  0  0  0  0  0
   21.2260   79.3070   10.3990 N   0  0  0  0  0  0  0  0  0  0  0  0
   20.9250   78.3980   11.3340 C   0  0  0  0  0  3  0  0  0  0  0  0
   21.6340   78.7500   12.4590 C   0  0  0  0  0  3  0  0  0  0  0  0
  2  1  2  0  0  0  0
  3  1  1  0  0  0  0
  3  4  1  0  0  0  0
  5  4  1  0  0  0  0
  6  5  1  0  0  0  0
  7  6  1  0  0  0  0
  7  8  1  0  0  0  0
  8  3  1  0  0  0  0
  9  1  1  6  0  0  0
  9 13  1  0  0  0  0
 10  9  1  0  0  0  0
 10 11  1  0  0  0  0
 11 15  1  0  0  0  0
 11 12  1  0  0  0  0
 12 14  2  0  0  0  0
 13 12  1  0  0  0  0
 15 16  1  0  0  0  0
 16 17  2  0  0  0  0
 17 18  1  0  0  0  0
 19 17  1  0  0  0  0
 20 19  2  0  0  0  0
 21 20  1  0  0  0  0
 21 15  2  0  0  0  0
 22  6  1  0  0  0  0
 23 22  1  0  0  0  0
 24 28  1  0  0  0  0
 24 23  1  0  0  0  0
 25 24  1  0  0  0  0
 26 25  2  0  0  0  0
 26 27  1  0  0  0  0
 27 28  2  0  0  0  0
M  END
>  <Pose>
1

>  <Score>
-10.020

$$$$
