/Users/jonathanwahrer/Desktop/Msc/3_Semester/Drug_Design_Praktikum/waehrer_HTS_screening/HTS_experiment/out/docking_results/vina_output/6e43/0219_docked.pdbqt
 OpenBabel03212219453D

 27 30  0  0  1  0  0  0  0  0999 V2000
   20.1040   76.2140   14.1210 N   0  0  0  0  0  0  0  0  0  0  0  0
   20.3490   76.8510   15.3680 C   0  0  0  0  0  0  0  0  0  0  0  0
   20.2420   76.0910   16.3930 O   0  0  0  0  0  0  0  0  0  0  0  0
   20.1820   76.7840   13.2520 H   0  0  0  0  0  0  0  0  0  0  0  0
   20.7020   78.2760   15.5390 C   0  0  0  0  0  2  0  0  0  0  0  0
   22.0990   78.5250   15.7670 N   0  0  0  0  0  0  0  0  0  0  0  0
   23.0020   78.8400   14.6940 C   0  0  0  0  0  0  0  0  0  0  0  0
   22.8280   78.6590   13.4630 O   0  0  0  0  0  0  0  0  0  0  0  0
   24.2050   79.4250   15.2860 C   0  0  1  0  0  3  0  0  0  0  0  0
   23.9840   79.4600   16.8110 C   0  0  2  0  0  3  0  0  0  0  0  0
   25.4340   78.5610   15.2120 C   0  0  1  0  0  3  0  0  0  0  0  0
   25.1970   78.8520   17.4200 C   0  0  2  0  0  3  0  0  0  0  0  0
   22.8350   78.5360   16.9980 C   0  0  0  0  0  0  0  0  0  0  0  0
   26.2580   79.1920   16.3520 C   0  0  0  0  0  2  0  0  0  0  0  0
   25.1260   77.3880   17.1870 C   0  0  0  0  0  2  0  0  0  0  0  0
   25.1210   77.2450   15.8660 C   0  0  0  0  0  2  0  0  0  0  0  0
   22.5400   77.8800   18.0120 O   0  0  0  0  0  0  0  0  0  0  0  0
   19.7580   74.8300   14.0130 C   0  0  0  0  0  2  0  0  0  0  0  0
   18.5890   74.6430   13.0330 C   0  0  0  0  0  2  0  0  0  0  0  0
   18.8550   75.1330   11.8650 O   0  0  0  0  0  0  0  0  0  0  0  0
   19.2100   75.6170   10.7330 C   0  0  0  0  0  0  0  0  0  0  0  0
   19.6290   76.9560   10.6370 C   0  0  0  0  0  3  0  0  0  0  0  0
   20.0210   77.5360    9.4620 C   0  0  0  0  0  0  0  0  0  0  0  0
   20.5830   79.3590    9.3710 Br  0  0  0  0  0  0  0  0  0  0  0  0
   20.0170   76.8070    8.3040 C   0  0  0  0  0  3  0  0  0  0  0  0
   19.6150   75.4870    8.3340 C   0  0  0  0  0  3  0  0  0  0  0  0
   19.2230   74.9070    9.5150 C   0  0  0  0  0  3  0  0  0  0  0  0
  1  2  1  0  0  0  0
  2  5  1  0  0  0  0
  2  3  2  0  0  0  0
  4  1  1  0  0  0  0
  5  6  1  0  0  0  0
  6 13  1  0  0  0  0
  7  6  1  0  0  0  0
  8  7  2  0  0  0  0
  9  7  1  6  0  0  0
  9 10  1  0  0  0  0
 10 13  1  6  0  0  0
 10 12  1  0  0  0  0
 11  9  1  0  0  0  0
 11 16  1  1  0  0  0
 11 14  1  0  0  0  0
 12 14  1  6  0  0  0
 13 17  2  0  0  0  0
 15 12  1  0  0  0  0
 16 15  1  0  0  0  0
 18  1  1  0  0  0  0
 19 18  1  0  0  0  0
 20 19  1  0  0  0  0
 21 20  1  0  0  0  0
 22 21  1  0  0  0  0
 23 22  2  0  0  0  0
 24 23  1  0  0  0  0
 25 26  2  0  0  0  0
 25 23  1  0  0  0  0
 26 27  1  0  0  0  0
 27 21  2  0  0  0  0
M  END
>  <Pose>
1

>  <Score>
-9.531

$$$$
