/Users/jonathanwahrer/Desktop/Msc/3_Semester/Drug_Design_Praktikum/waehrer_HTS_screening/HTS_experiment/out/docking_results/vina_output/6e43/0226_docked.pdbqt
 OpenBabel03212219453D

 30 33  0  0  0  0  0  0  0  0999 V2000
   19.9220   76.6400   13.2090 N   0  0  0  0  0  0  0  0  0  0  0  0
   19.9980   76.8580   11.8860 C   0  0  0  0  0  0  0  0  0  0  0  0
   20.9200   77.8550   11.6300 C   0  0  0  0  0  0  0  0  0  0  0  0
   21.3830   78.2150   12.8330 N   0  0  0  0  0  0  0  0  0  0  0  0
   20.7970   77.4970   13.8070 C   0  0  0  0  0  0  0  0  0  0  0  0
   21.1650   78.2400   10.3650 N   0  0  0  0  0  0  0  0  0  0  0  0
   20.5190   77.6650    9.3350 C   0  0  0  0  0  0  0  0  0  0  0  0
   20.7170   77.9950    8.1390 O   0  0  0  0  0  0  0  0  0  0  0  0
   19.6090   76.6810    9.5730 N   0  0  0  0  0  0  0  0  0  0  0  0
   19.3290   76.2610   10.8190 C   0  0  0  0  0  0  0  0  0  0  0  0
   18.4690   75.3390   11.0010 O   0  0  0  0  0  0  0  0  0  0  0  0
   22.1240   79.2830   10.0640 C   0  0  0  0  0  1  0  0  0  0  0  0
   19.1290   76.2590    8.7440 H   0  0  0  0  0  0  0  0  0  0  0  0
   19.0920   75.6840   13.8870 C   0  0  0  0  0  2  0  0  0  0  0  0
   19.6030   74.2820   13.7820 C   0  0  0  0  0  0  0  0  0  0  0  0
   20.7460   73.9930   14.1720 O   0  0  0  0  0  0  0  0  0  0  0  0
   18.7690   73.2230   13.2190 C   0  0  0  0  0  0  0  0  0  0  0  0
   19.3020   72.0230   12.8150 C   0  0  0  0  0  3  0  0  0  0  0  0
   18.5080   71.0230   12.2790 C   0  0  0  0  0  3  0  0  0  0  0  0
   17.1390   71.1860   12.1230 C   0  0  0  0  0  0  0  0  0  0  0  0
   16.0860   69.7860   11.3830 Br  0  0  0  0  0  0  0  0  0  0  0  0
   16.6020   72.3880   12.5270 C   0  0  0  0  0  3  0  0  0  0  0  0
   17.4030   73.3730   13.0580 C   0  0  0  0  0  3  0  0  0  0  0  0
   21.0040   77.5600   15.2060 N   0  0  0  0  0  0  0  0  0  0  0  0
   20.0210   77.0050   16.0790 C   0  0  0  0  0  2  0  0  0  0  0  0
   20.4200   76.7690   17.4880 C   0  0  0  0  0  2  0  0  0  0  0  0
   21.4910   77.5860   17.9780 N   0  0  0  0  0  0  0  0  0  0  0  0
   22.5920   77.4920   17.0390 C   0  0  0  0  0  2  0  0  0  0  0  0
   21.1040   78.9410   18.2510 C   0  0  0  0  0  1  0  0  0  0  0  0
   22.1890   78.1690   15.7280 C   0  0  0  0  0  2  0  0  0  0  0  0
  1  5  1  0  0  0  0
  1 14  1  0  0  0  0
  2  1  1  0  0  0  0
  3  2  2  0  0  0  0
  3  4  1  0  0  0  0
  4  5  2  0  0  0  0
  5 24  1  0  0  0  0
  6  3  1  0  0  0  0
  7  9  1  0  0  0  0
  7  6  1  0  0  0  0
  8  7  2  0  0  0  0
  9 10  1  0  0  0  0
 10 11  2  0  0  0  0
 10  2  1  0  0  0  0
 12  6  1  0  0  0  0
 13  9  1  0  0  0  0
 15 14  1  0  0  0  0
 15 16  2  0  0  0  0
 17 15  1  0  0  0  0
 18 17  2  0  0  0  0
 19 18  1  0  0  0  0
 20 19  2  0  0  0  0
 20 22  1  0  0  0  0
 21 20  1  0  0  0  0
 22 23  2  0  0  0  0
 23 17  1  0  0  0  0
 24 30  1  0  0  0  0
 24 25  1  0  0  0  0
 25 26  1  0  0  0  0
 26 27  1  0  0  0  0
 27 29  1  0  0  0  0
 28 27  1  0  0  0  0
 30 28  1  0  0  0  0
M  END
>  <Pose>
1

>  <Score>
-10.250

$$$$
