/Users/jonathanwahrer/Desktop/Msc/3_Semester/Drug_Design_Praktikum/waehrer_HTS_screening/HTS_experiment/out/docking_results/vina_output/6e43/0235_docked.pdbqt
 OpenBabel03212219463D

 25 28  0  0  1  0  0  0  0  0999 V2000
   21.8390   80.4730   16.9180 C   0  0  1  0  0  3  0  0  0  0  0  0
   23.0840   79.7370   16.7650 N   0  0  0  0  0  0  0  0  0  0  0  0
   23.9520   79.0380   17.5780 N   0  0  0  0  0  2  0  0  0  0  0  0
   24.9570   78.3670   17.1370 C   0  0  0  0  0  3  0  0  0  0  0  0
   25.2270   78.3330   15.7180 C   0  0  0  0  0  3  0  0  0  0  0  0
   24.4620   78.9970   14.8820 C   0  0  0  0  0  3  0  0  0  0  0  0
   23.3340   79.7940   15.3270 C   0  0  0  0  0  0  0  0  0  0  0  0
   22.0020   79.4130   14.7860 C   0  0  2  0  0  3  0  0  0  0  0  0
   20.9860   79.7930   15.8700 C   0  0  1  0  0  3  0  0  0  0  0  0
   20.4480   78.5090   16.3140 C   0  0  0  0  0  0  0  0  0  0  0  0
   19.7800   78.3190   17.3680 O   0  0  0  0  0  0  0  0  0  0  0  0
   20.8000   77.5140   15.3730 N   0  0  0  0  0  0  0  0  0  0  0  0
   21.8510   77.9750   14.5340 C   0  0  0  0  0  0  0  0  0  0  0  0
   22.5280   77.2900   13.7290 O   0  0  0  0  0  0  0  0  0  0  0  0
   21.2960   80.3320   18.2770 C   0  0  0  0  0  0  0  0  0  0  0  0
   21.5200   79.2240   18.8640 O   0  0  0  0  0  0  0  0  0  0  0  0
   20.5410   81.3390   18.9870 C   0  0  0  0  0  0  0  0  0  0  0  0
   19.9230   81.0900   20.1850 C   0  0  0  0  0  3  0  0  0  0  0  0
   19.2210   82.0890   20.8200 C   0  0  0  0  0  3  0  0  0  0  0  0
   19.0930   83.3640   20.3120 C   0  0  0  0  0  0  0  0  0  0  0  0
   18.1030   84.7040   21.2440 Br  0  0  0  0  0  0  0  0  0  0  0  0
   19.7140   83.6100   19.1080 C   0  0  0  0  0  3  0  0  0  0  0  0
   20.4190   82.6180   18.4660 C   0  0  0  0  0  3  0  0  0  0  0  0
   20.1920   76.2090   15.2570 C   0  0  0  0  0  2  0  0  0  0  0  0
   19.6050   75.9390   13.9060 C   0  0  0  0  0  1  0  0  0  0  0  0
  1 15  1  1  0  0  0
  2  1  1  0  0  0  0
  2  3  1  0  0  0  0
  4  3  1  0  0  0  0
  5  4  2  0  0  0  0
  6  7  2  0  0  0  0
  6  5  1  0  0  0  0
  7  2  1  0  0  0  0
  8 13  1  1  0  0  0
  8  7  1  0  0  0  0
  8  9  1  0  0  0  0
  9 10  1  1  0  0  0
  9  1  1  0  0  0  0
 10 11  2  0  0  0  0
 12 10  1  0  0  0  0
 13 12  1  0  0  0  0
 14 13  2  0  0  0  0
 15 16  2  0  0  0  0
 15 17  1  0  0  0  0
 17 18  1  0  0  0  0
 18 19  2  0  0  0  0
 20 19  1  0  0  0  0
 20 21  1  0  0  0  0
 22 20  2  0  0  0  0
 23 17  2  0  0  0  0
 23 22  1  0  0  0  0
 24 12  1  0  0  0  0
 25 24  1  0  0  0  0
M  END
>  <Pose>
1

>  <Score>
-8.574

$$$$
