/Users/jonathanwahrer/Desktop/Msc/3_Semester/Drug_Design_Praktikum/waehrer_HTS_screening/HTS_experiment/out/docking_results/vina_output/6e43/0243_docked.pdbqt
 OpenBabel03212219463D

 30 33  0  0  1  0  0  0  0  0999 V2000
   20.3270   76.8760   17.0080 C   0  0  2  0  0  3  0  0  0  0  0  0
   19.2480   77.4870   17.8670 C   0  0  0  0  0  2  0  0  0  0  0  0
   19.8960   78.6090   18.5100 N   0  0  0  0  0  0  0  0  0  0  0  0
   21.3390   78.4520   18.4470 C   0  0  1  0  0  3  0  0  0  0  0  0
   21.6440   77.2440   17.6330 C   0  0  0  0  0  2  0  0  0  0  0  0
   21.8620   79.7070   17.8610 C   0  0  0  0  0  0  0  0  0  0  0  0
   22.6830   79.6500   16.9190 O   0  0  0  0  0  0  0  0  0  0  0  0
   21.4050   80.9350   18.3980 N   0  0  0  0  0  0  0  0  0  0  0  0
   20.2070   81.0670   19.1940 C   0  0  1  0  0  3  0  0  0  0  0  0
   19.4430   79.7870   19.1650 C   0  0  0  0  0  0  0  0  0  0  0  0
   18.3050   79.7140   19.7540 O   0  0  0  0  0  0  0  0  0  0  0  0
   21.9960   81.7820   18.1860 H   0  0  0  0  0  0  0  0  0  0  0  0
   20.3150   77.3880   15.6620 N   0  0  0  0  0  0  0  0  0  0  0  0
   20.3410   76.5240   14.5640 C   0  0  0  0  0  0  0  0  0  0  0  0
   20.3770   75.2580   14.7290 O   0  0  0  0  0  0  0  0  0  0  0  0
   20.2850   78.4120   15.5250 H   0  0  0  0  0  0  0  0  0  0  0  0
   20.3300   76.9850   13.1680 C   0  0  0  0  0  0  0  0  0  0  0  0
   21.0600   78.0830   12.7610 C   0  0  0  0  0  3  0  0  0  0  0  0
   21.0510   78.5160   11.4510 C   0  0  0  0  0  3  0  0  0  0  0  0
   20.3100   77.8760   10.4780 C   0  0  0  0  0  0  0  0  0  0  0  0
   20.2670   78.4370    8.6630 Br  0  0  0  0  0  0  0  0  0  0  0  0
   19.5760   76.7700   10.8910 C   0  0  0  0  0  3  0  0  0  0  0  0
   19.5920   76.3470   12.1990 C   0  0  0  0  0  3  0  0  0  0  0  0
   20.5290   81.5130   20.6000 C   0  0  0  0  0  2  0  0  0  0  0  0
   19.7170   82.6980   20.9950 C   0  0  0  0  0  0  0  0  0  0  0  0
   19.5850   83.0500   22.3390 C   0  0  0  0  0  3  0  0  0  0  0  0
   18.8220   84.1550   22.6460 C   0  0  0  0  0  3  0  0  0  0  0  0
   18.1870   84.9240   21.6860 C   0  0  0  0  0  3  0  0  0  0  0  0
   18.3460   84.5370   20.3760 C   0  0  0  0  0  3  0  0  0  0  0  0
   19.0960   83.4420   20.0090 C   0  0  0  0  0  3  0  0  0  0  0  0
  1 13  1  6  0  0  0
  1  5  1  0  0  0  0
  1  2  1  0  0  0  0
  2  3  1  0  0  0  0
  3 10  1  0  0  0  0
  4  5  1  6  0  0  0
  4  3  1  0  0  0  0
  6  8  1  0  0  0  0
  6  4  1  0  0  0  0
  7  6  2  0  0  0  0
  8  9  1  0  0  0  0
  9 24  1  1  0  0  0
 10  9  1  0  0  0  0
 10 11  2  0  0  0  0
 12  8  1  0  0  0  0
 14 15  2  0  0  0  0
 14 13  1  0  0  0  0
 16 13  1  0  0  0  0
 17 14  1  0  0  0  0
 18 17  1  0  0  0  0
 19 18  2  0  0  0  0
 20 22  2  0  0  0  0
 20 19  1  0  0  0  0
 21 20  1  0  0  0  0
 22 23  1  0  0  0  0
 23 17  2  0  0  0  0
 24 25  1  0  0  0  0
 25 26  1  0  0  0  0
 26 27  2  0  0  0  0
 28 27  1  0  0  0  0
 29 28  2  0  0  0  0
 30 29  1  0  0  0  0
 30 25  2  0  0  0  0
M  END
>  <Pose>
1

>  <Score>
-10.651

$$$$
