/Users/jonathanwahrer/Desktop/Msc/3_Semester/Drug_Design_Praktikum/waehrer_HTS_screening/HTS_experiment/out/docking_results/vina_output/6e43/0244_docked.pdbqt
 OpenBabel03212219463D

 25 28  0  0  1  0  0  0  0  0999 V2000
   21.9220   77.4260   17.0110 C   0  0  2  0  0  3  0  0  0  0  0  0
   20.9840   77.2500   18.1830 C   0  0  0  0  0  2  0  0  0  0  0  0
   20.8060   78.6080   18.6650 N   0  0  0  0  0  0  0  0  0  0  0  0
   21.9690   79.3950   18.3030 C   0  0  1  0  0  3  0  0  0  0  0  0
   22.8230   78.5730   17.3980 C   0  0  0  0  0  2  0  0  0  0  0  0
   21.4600   80.6330   17.6600 C   0  0  0  0  0  0  0  0  0  0  0  0
   21.9270   81.1050   16.5980 O   0  0  0  0  0  0  0  0  0  0  0  0
   20.3890   81.3410   18.2570 N   0  0  0  0  0  0  0  0  0  0  0  0
   19.4050   80.6940   19.1000 C   0  0  2  0  0  3  0  0  0  0  0  0
   19.4220   81.5940   20.2950 C   0  0  0  0  0  2  0  0  0  0  0  0
   19.5040   82.9760   19.6350 C   0  0  0  0  0  2  0  0  0  0  0  0
   20.0150   82.7260   18.2130 C   0  0  0  0  0  2  0  0  0  0  0  0
   19.7810   79.2860   19.3810 C   0  0  0  0  0  0  0  0  0  0  0  0
   19.1720   78.6370   20.2990 O   0  0  0  0  0  0  0  0  0  0  0  0
   21.2550   77.7730   15.8000 N   0  0  0  0  0  0  0  0  0  0  0  0
   21.9170   77.5970   14.5580 C   0  0  0  0  0  0  0  0  0  0  0  0
   23.0780   77.1390   14.5360 O   0  0  0  0  0  0  0  0  0  0  0  0
   20.2780   78.1560   15.8650 H   0  0  0  0  0  0  0  0  0  0  0  0
   21.2600   77.9460   13.2830 C   0  0  0  0  0  0  0  0  0  0  0  0
   20.3300   77.0810   12.7490 C   0  0  0  0  0  3  0  0  0  0  0  0
   19.7000   77.3760   11.5610 C   0  0  0  0  0  3  0  0  0  0  0  0
   19.9630   78.5390   10.8580 C   0  0  0  0  0  0  0  0  0  0  0  0
   19.0550   78.8800    9.2270 Br  0  0  0  0  0  0  0  0  0  0  0  0
   20.8950   79.4080   11.3940 C   0  0  0  0  0  3  0  0  0  0  0  0
   21.5240   79.0920   12.5960 C   0  0  0  0  0  3  0  0  0  0  0  0
  1 15  1  6  0  0  0
  1  5  1  0  0  0  0
  1  2  1  0  0  0  0
  2  3  1  0  0  0  0
  3 13  1  0  0  0  0
  4  5  1  6  0  0  0
  4  3  1  0  0  0  0
  6  8  1  0  0  0  0
  6  4  1  0  0  0  0
  7  6  2  0  0  0  0
  8  9  1  0  0  0  0
  9 13  1  0  0  0  0
  9 10  1  1  0  0  0
 11 10  1  0  0  0  0
 12  8  1  0  0  0  0
 12 11  1  0  0  0  0
 13 14  2  0  0  0  0
 15 18  1  0  0  0  0
 16 15  1  0  0  0  0
 17 16  2  0  0  0  0
 19 16  1  0  0  0  0
 20 19  1  0  0  0  0
 21 20  2  0  0  0  0
 22 24  2  0  0  0  0
 22 21  1  0  0  0  0
 23 22  1  0  0  0  0
 24 25  1  0  0  0  0
 25 19  2  0  0  0  0
M  END
>  <Pose>
1

>  <Score>
-9.220

$$$$
