/Users/jonathanwahrer/Desktop/Msc/3_Semester/Drug_Design_Praktikum/waehrer_HTS_screening/HTS_experiment/out/docking_results/vina_output/6e43/0247_docked.pdbqt
 OpenBabel03212219463D

 23 26  0  0  1  0  0  0  0  0999 V2000
   22.0750   77.5420   14.9610 N   0  0  0  0  0  0  0  0  0  0  0  0
   22.2700   77.8730   16.3320 C   0  0  0  0  0  0  0  0  0  0  0  0
   21.7730   77.1590   17.2680 O   0  0  0  0  0  0  0  0  0  0  0  0
   23.0940   79.1030   16.4600 C   0  0  2  0  0  3  0  0  0  0  0  0
   23.4980   79.3620   15.0220 C   0  0  1  0  0  3  0  0  0  0  0  0
   24.8920   78.7720   15.0100 C   0  0  1  0  0  3  0  0  0  0  0  0
   25.4210   79.4980   16.2650 C   0  0  0  0  0  2  0  0  0  0  0  0
   24.3830   78.8240   17.1810 C   0  0  2  0  0  3  0  0  0  0  0  0
   24.7330   77.3940   16.8630 C   0  0  0  0  0  2  0  0  0  0  0  0
   24.8920   77.3820   15.5450 C   0  0  0  0  0  2  0  0  0  0  0  0
   22.5610   78.6080   14.1700 C   0  0  0  0  0  0  0  0  0  0  0  0
   22.2730   78.8790   12.9840 O   0  0  0  0  0  0  0  0  0  0  0  0
   21.5020   76.3730   14.3970 N   0  0  0  0  0  0  0  0  0  0  0  0
   20.1450   76.0450   14.6050 C   0  0  0  0  0  0  0  0  0  0  0  0
   19.3770   76.7820   15.3040 O   0  0  0  0  0  0  0  0  0  0  0  0
   22.1010   75.7590   13.8160 H   0  0  0  0  0  0  0  0  0  0  0  0
   19.5810   74.8500   14.0240 C   0  0  0  0  0  0  0  0  0  0  0  0
   18.3330   74.9230   13.4120 C   0  0  0  0  0  3  0  0  0  0  0  0
   17.7490   73.8050   12.8530 C   0  0  0  0  0  3  0  0  0  0  0  0
   18.3860   72.5990   12.8900 C   0  0  0  0  0  0  0  0  0  0  0  0
   17.5530   71.0630   12.1120 Br  0  0  0  0  0  0  0  0  0  0  0  0
   19.6370   72.5090   13.4990 C   0  0  0  0  0  3  0  0  0  0  0  0
   20.2080   73.6260   14.0510 C   0  0  0  0  0  3  0  0  0  0  0  0
  1  2  1  0  0  0  0
  2  3  2  0  0  0  0
  4  2  1  6  0  0  0
  4  8  1  0  0  0  0
  5 11  1  6  0  0  0
  5  4  1  0  0  0  0
  6  5  1  0  0  0  0
  6 10  1  1  0  0  0
  6  7  1  0  0  0  0
  8  7  1  6  0  0  0
  9  8  1  0  0  0  0
 10  9  1  0  0  0  0
 11  1  1  0  0  0  0
 12 11  2  0  0  0  0
 13 14  1  0  0  0  0
 13  1  1  0  0  0  0
 14 15  2  0  0  0  0
 16 13  1  0  0  0  0
 17 23  1  0  0  0  0
 17 14  1  0  0  0  0
 18 17  2  0  0  0  0
 19 20  2  0  0  0  0
 19 18  1  0  0  0  0
 20 22  1  0  0  0  0
 21 20  1  0  0  0  0
 22 23  2  0  0  0  0
M  END
>  <Pose>
1

>  <Score>
-10.602

$$$$
