/Users/jonathanwahrer/Desktop/Msc/3_Semester/Drug_Design_Praktikum/waehrer_HTS_screening/HTS_experiment/out/docking_results/vina_output/6e43/0257_docked.pdbqt
 OpenBabel03212219463D

 31 34  0  0  1  0  0  0  0  0999 V2000
   20.4300   77.0940   15.8150 C   0  0  2  0  0  3  0  0  0  0  0  0
   21.5510   77.3560   16.7740 C   0  0  2  0  0  3  0  0  0  0  0  0
   20.9570   78.3900   17.6120 N   0  0  0  0  0  0  0  0  0  0  0  0
   19.5900   77.9680   17.7850 C   0  0  0  0  0  0  0  0  0  0  0  0
   18.8750   78.2810   18.7510 O   0  0  0  0  0  0  0  0  0  0  0  0
   19.2280   77.1260   16.6350 C   0  0  0  0  0  0  0  0  0  0  0  0
   18.1290   76.5560   16.4070 O   0  0  0  0  0  0  0  0  0  0  0  0
   20.4960   76.8500   14.5320 C   0  0  2  0  0  3  0  0  0  0  0  0
   21.0460   77.8330   13.6860 O   0  0  0  0  0  1  0  0  0  0  0  0
   20.0070   75.5880   14.0040 C   0  0  0  0  0  0  0  0  0  0  0  0
   19.0330   75.5910   12.9970 C   0  0  0  0  0  3  0  0  0  0  0  0
   18.5290   74.4100   12.4980 C   0  0  0  0  0  3  0  0  0  0  0  0
   18.9480   73.1780   12.9530 C   0  0  0  0  0  0  0  0  0  0  0  0
   18.2670   71.5320   12.2780 Br  0  0  0  0  0  0  0  0  0  0  0  0
   19.9070   73.1520   13.9430 C   0  0  0  0  0  3  0  0  0  0  0  0
   20.4150   74.3480   14.4480 C   0  0  0  0  0  3  0  0  0  0  0  0
   22.7630   77.8180   16.0530 C   0  0  0  0  0  0  0  0  0  0  0  0
   23.7290   76.9190   15.8060 N   0  0  0  0  0  0  0  0  0  0  0  0
   24.8570   77.2150   15.1560 C   0  0  0  0  0  3  0  0  0  0  0  0
   25.0330   78.5090   14.7230 C   0  0  0  0  0  3  0  0  0  0  0  0
   24.0700   79.4630   14.9550 C   0  0  0  0  0  3  0  0  0  0  0  0
   22.9290   79.1060   15.6260 C   0  0  0  0  0  3  0  0  0  0  0  0
   21.6060   79.5530   18.1460 C   0  0  0  0  0  2  0  0  0  0  0  0
   20.7180   80.7850   18.0770 C   0  0  0  0  0  2  0  0  0  0  0  0
   20.4020   81.2090   19.5110 C   0  0  0  0  0  2  0  0  0  0  0  0
   19.9770   82.5940   19.5780 N   0  0  0  0  0  0  0  0  0  0  0  0
   20.3250   83.6020   18.7440 C   0  0  0  0  0  2  0  0  0  0  0  0
   19.7180   84.7310   19.1480 N   0  0  0  0  0  0  0  0  0  0  0  0
   18.9760   84.4770   20.2360 C   0  0  0  0  0  3  0  0  0  0  0  0
   19.7980   85.6840   18.6940 H   0  0  0  0  0  0  0  0  0  0  0  0
   19.1530   83.1310   20.4890 C   0  0  0  0  0  3  0  0  0  0  0  0
  1  8  1  1  0  0  0
  1  6  1  0  0  0  0
  1  2  1  0  0  0  0
  2 17  1  6  0  0  0
  2  3  1  0  0  0  0
  3  4  1  0  0  0  0
  3 23  1  0  0  0  0
  4  5  2  0  0  0  0
  6  4  1  0  0  0  0
  7  6  2  0  0  0  0
  8  9  1  6  0  0  0
 10 16  1  0  0  0  0
 10  8  1  0  0  0  0
 11 10  2  0  0  0  0
 12 13  2  0  0  0  0
 12 11  1  0  0  0  0
 13 15  1  0  0  0  0
 14 13  1  0  0  0  0
 15 16  2  0  0  0  0
 18 17  1  0  0  0  0
 19 18  2  0  0  0  0
 20 21  2  0  0  0  0
 20 19  1  0  0  0  0
 21 22  1  0  0  0  0
 22 17  2  0  0  0  0
 24 23  1  0  0  0  0
 24 25  1  0  0  0  0
 25 26  1  0  0  0  0
 26 31  1  0  0  0  0
 27 28  1  0  0  0  0
 27 26  1  0  0  0  0
 28 29  1  0  0  0  0
 29 31  2  0  0  0  0
 30 28  1  0  0  0  0
M  END
>  <Pose>
1

>  <Score>
-9.592

$$$$
