/Users/jonathanwahrer/Desktop/Msc/3_Semester/Drug_Design_Praktikum/waehrer_HTS_screening/HTS_experiment/out/docking_results/vina_output/6e43/0263_docked.pdbqt
 OpenBabel03212219473D

 34 37  0  0  1  0  0  0  0  0999 V2000
   21.1320   80.3320   17.1540 C   0  0  0  0  0  0  0  0  0  0  0  0
   20.3510   79.3830   16.7080 C   0  0  0  0  0  0  0  0  0  0  0  0
   20.5240   78.5800   15.4450 C   0  0  2  0  0  3  0  0  0  0  0  0
   19.9750   77.3120   15.7840 N   0  0  0  0  0  0  0  0  0  0  0  0
   18.9430   77.5480   16.7730 C   0  0  0  0  0  0  0  0  0  0  0  0
   18.0010   76.7820   17.0890 O   0  0  0  0  0  0  0  0  0  0  0  0
   19.1760   78.8600   17.3660 C   0  0  0  0  0  0  0  0  0  0  0  0
   18.4610   79.3940   18.2800 O   0  0  0  0  0  0  0  0  0  0  0  0
   22.2770   80.6620   16.3960 O   0  0  0  0  0  1  0  0  0  0  0  0
   20.8350   81.0300   18.3930 C   0  0  0  0  0  0  0  0  0  0  0  0
   20.2990   82.3100   18.2520 C   0  0  0  0  0  3  0  0  0  0  0  0
   19.9390   83.0420   19.3480 C   0  0  0  0  0  3  0  0  0  0  0  0
   20.1140   82.4950   20.5990 C   0  0  0  0  0  0  0  0  0  0  0  0
   19.5970   83.5540   22.1180 Br  0  0  0  0  0  0  0  0  0  0  0  0
   20.6420   81.2290   20.7450 C   0  0  0  0  0  3  0  0  0  0  0  0
   21.0020   80.5010   19.6310 C   0  0  0  0  0  3  0  0  0  0  0  0
   21.9010   78.6240   14.9690 C   0  0  0  0  0  0  0  0  0  0  0  0
   22.9680   77.9790   15.5350 C   0  0  0  0  0  3  0  0  0  0  0  0
   24.2350   78.0640   15.0190 C   0  0  0  0  0  0  0  0  0  0  0  0
   24.4570   78.8190   13.9000 C   0  0  0  0  0  3  0  0  0  0  0  0
   23.4130   79.4980   13.2800 C   0  0  0  0  0  3  0  0  0  0  0  0
   22.1580   79.3910   13.8220 C   0  0  0  0  0  3  0  0  0  0  0  0
   25.2870   77.3730   15.6530 N   0  0  0  0  0  0  0  0  0  0  0  0
   26.2930   77.9640   16.1220 O   0  0  0  0  0  0  0  0  0  0  0  0
   25.2020   76.0040   15.7580 O   0  0  0  0  0  0  0  0  0  0  0  0
   20.2130   75.9600   15.3150 C   0  0  0  0  0  2  0  0  0  0  0  0
   20.0040   75.7400   13.8510 C   0  0  0  0  0  2  0  0  0  0  0  0
   19.1870   74.5720   13.5660 N   0  0  0  0  0  4  0  0  0  0  0  0
   19.9800   73.3440   13.6830 C   0  0  0  0  0  2  0  0  0  0  0  0
   18.9660   72.2030   13.5170 C   0  0  0  0  0  2  0  0  0  0  0  0
   18.3270   72.2450   12.3020 O   0  0  0  0  0  0  0  0  0  0  0  0
   17.7490   73.4690   12.0050 C   0  0  0  0  0  2  0  0  0  0  0  0
   18.7080   74.6150   12.2080 C   0  0  0  0  0  2  0  0  0  0  0  0
   18.3910   74.4490   14.1970 H   0  0  0  0  0  0  0  0  0  0  0  0
  1 10  1  0  0  0  0
  2  1  2  0  0  0  0
  2  7  1  0  0  0  0
  3 17  1  1  0  0  0
  3  4  1  0  0  0  0
  3  2  1  0  0  0  0
  4  5  1  0  0  0  0
  5  6  2  0  0  0  0
  5  7  1  0  0  0  0
  7  8  2  0  0  0  0
  9  1  1  0  0  0  0
 10 16  1  0  0  0  0
 11 10  2  0  0  0  0
 11 12  1  0  0  0  0
 12 13  2  0  0  0  0
 13 15  1  0  0  0  0
 13 14  1  0  0  0  0
 16 15  2  0  0  0  0
 17 18  1  0  0  0  0
 19 18  2  0  0  0  0
 19 23  1  0  0  0  0
 20 19  1  0  0  0  0
 21 22  1  0  0  0  0
 21 20  2  0  0  0  0
 22 17  2  0  0  0  0
 23 25  2  0  0  0  0
 23 24  2  0  0  0  0
 26  4  1  0  0  0  0
 27 26  1  0  0  0  0
 28 29  1  0  0  0  0
 28 27  1  0  0  0  0
 28 34  1  0  0  0  0
 30 29  1  0  0  0  0
 31 30  1  0  0  0  0
 32 33  1  0  0  0  0
 32 31  1  0  0  0  0
 33 28  1  0  0  0  0
M  END
>  <Pose>
1

>  <Score>
-9.078

$$$$
