/Users/jonathanwahrer/Desktop/Msc/3_Semester/Drug_Design_Praktikum/waehrer_HTS_screening/HTS_experiment/out/docking_results/vina_output/6e43/0265_docked.pdbqt
 OpenBabel03212219473D

 35 38  0  0  1  0  0  0  0  0999 V2000
   20.5480   77.8880   12.3230 C   0  0  0  0  0  0  0  0  0  0  0  0
   20.9000   77.6660   13.5700 C   0  0  0  0  0  0  0  0  0  0  0  0
   20.0190   77.0830   14.6460 C   0  0  2  0  0  3  0  0  0  0  0  0
   20.7890   77.1060   15.8410 N   0  0  0  0  0  0  0  0  0  0  0  0
   22.1430   77.5320   15.5800 C   0  0  0  0  0  0  0  0  0  0  0  0
   23.0970   77.6060   16.3660 O   0  0  0  0  0  0  0  0  0  0  0  0
   22.2080   77.8830   14.1430 C   0  0  0  0  0  0  0  0  0  0  0  0
   23.2510   78.2990   13.5420 O   0  0  0  0  0  0  0  0  0  0  0  0
   19.2210   77.5320   11.9890 O   0  0  0  0  0  1  0  0  0  0  0  0
   19.7510   75.6840   14.1910 C   0  0  0  0  0  0  0  0  0  0  0  0
   18.5460   75.4120   13.6240 C   0  0  0  0  0  3  0  0  0  0  0  0
   18.2430   74.1370   13.1920 C   0  0  0  0  0  3  0  0  0  0  0  0
   19.1620   73.1330   13.3320 C   0  0  0  0  0  0  0  0  0  0  0  0
   20.3770   73.4090   13.9020 C   0  0  0  0  0  3  0  0  0  0  0  0
   20.6870   74.6870   14.3390 C   0  0  0  0  0  3  0  0  0  0  0  0
   18.8510   71.7750   12.8790 C   0  0  0  0  0  0  0  0  0  0  0  0
   19.6960   71.1420   12.1960 O   0  0  0  0  0  0  0  0  0  0  0  0
   17.6700   71.1440   13.1620 O   0  0  0  0  0  0  0  0  0  0  0  0
   16.7520   70.7510   12.1680 C   0  0  0  0  0  1  0  0  0  0  0  0
   20.3690   76.7600   17.1720 C   0  0  0  0  0  2  0  0  0  0  0  0
   19.3170   77.6380   17.7570 C   0  0  0  0  0  2  0  0  0  0  0  0
   19.7740   78.9090   18.2350 N   0  0  0  0  0  4  0  0  0  0  0  0
   19.3040   79.2430   19.5640 C   0  0  0  0  0  2  0  0  0  0  0  0
   20.0270   80.5050   19.9880 C   0  0  0  0  0  2  0  0  0  0  0  0
   19.5340   81.5300   19.1450 O   0  0  0  0  0  0  0  0  0  0  0  0
   20.0330   81.2440   17.8710 C   0  0  0  0  0  2  0  0  0  0  0  0
   19.3110   80.0070   17.3620 C   0  0  0  0  0  2  0  0  0  0  0  0
   20.8230   78.9970   18.1820 H   0  0  0  0  0  0  0  0  0  0  0  0
   21.4350   78.4590   11.3200 C   0  0  0  0  0  0  0  0  0  0  0  0
   21.4300   79.8390   11.0770 C   0  0  0  0  0  3  0  0  0  0  0  0
   22.2710   80.4410   10.1660 C   0  0  0  0  0  3  0  0  0  0  0  0
   23.1720   79.6910    9.4420 C   0  0  0  0  0  0  0  0  0  0  0  0
   24.3250   80.5510    8.1810 Br  0  0  0  0  0  0  0  0  0  0  0  0
   23.1970   78.3340    9.6620 C   0  0  0  0  0  3  0  0  0  0  0  0
   22.3410   77.7270   10.5890 C   0  0  0  0  0  3  0  0  0  0  0  0
  1  2  2  0  0  0  0
  2  7  1  0  0  0  0
  2  3  1  0  0  0  0
  3 10  1  6  0  0  0
  3  4  1  0  0  0  0
  4 20  1  0  0  0  0
  5  4  1  0  0  0  0
  5  6  2  0  0  0  0
  7  5  1  0  0  0  0
  8  7  2  0  0  0  0
  9  1  1  0  0  0  0
 10 15  1  0  0  0  0
 11 10  2  0  0  0  0
 12 13  2  0  0  0  0
 12 11  1  0  0  0  0
 13 14  1  0  0  0  0
 14 15  2  0  0  0  0
 16 18  1  0  0  0  0
 16 13  1  0  0  0  0
 17 16  2  0  0  0  0
 19 18  1  0  0  0  0
 20 21  1  0  0  0  0
 21 22  1  0  0  0  0
 22 23  1  0  0  0  0
 23 24  1  0  0  0  0
 25 24  1  0  0  0  0
 26 25  1  0  0  0  0
 27 26  1  0  0  0  0
 27 22  1  0  0  0  0
 28 22  1  0  0  0  0
 29  1  1  0  0  0  0
 30 29  1  0  0  0  0
 31 30  2  0  0  0  0
 32 34  2  0  0  0  0
 32 31  1  0  0  0  0
 33 32  1  0  0  0  0
 34 35  1  0  0  0  0
 35 29  2  0  0  0  0
M  END
>  <Pose>
1

>  <Score>
-6.923

$$$$
