/Users/jonathanwahrer/Desktop/Msc/3_Semester/Drug_Design_Praktikum/waehrer_HTS_screening/HTS_experiment/out/docking_results/vina_output/6e43/0274_docked.pdbqt
 OpenBabel03212219473D

 31 34  0  0  1  0  0  0  0  0999 V2000
   22.0010   79.6890   13.1260 C   0  0  0  0  0  0  0  0  0  0  0  0
   21.9030   79.0260   14.2610 C   0  0  0  0  0  0  0  0  0  0  0  0
   22.4050   79.3740   15.6210 C   0  0  1  0  0  3  0  0  0  0  0  0
   21.3760   78.8040   16.5070 N   0  0  0  0  0  0  0  0  0  0  0  0
   20.9600   77.6170   15.8600 C   0  0  0  0  0  0  0  0  0  0  0  0
   20.4160   76.6590   16.4240 O   0  0  0  0  0  0  0  0  0  0  0  0
   21.2770   77.7180   14.4400 C   0  0  0  0  0  0  0  0  0  0  0  0
   21.0910   76.9030   13.5020 O   0  0  0  0  0  0  0  0  0  0  0  0
   22.6820   80.9230   13.1530 O   0  0  0  0  0  1  0  0  0  0  0  0
   21.4610   79.2440   11.8530 C   0  0  0  0  0  0  0  0  0  0  0  0
   22.2570   78.6430   10.9030 C   0  0  0  0  0  3  0  0  0  0  0  0
   21.7520   78.2420    9.6760 C   0  0  0  0  0  3  0  0  0  0  0  0
   20.4260   78.4320    9.3620 C   0  0  0  0  0  0  0  0  0  0  0  0
   19.7170   77.8790    7.6670 Br  0  0  0  0  0  0  0  0  0  0  0  0
   19.6200   79.0310   10.3000 C   0  0  0  0  0  3  0  0  0  0  0  0
   20.1350   79.4330   11.5360 C   0  0  0  0  0  3  0  0  0  0  0  0
   23.7510   78.8740   15.9120 C   0  0  0  0  0  0  0  0  0  0  0  0
   24.5170   79.4310   16.9430 C   0  0  0  0  0  3  0  0  0  0  0  0
   25.7710   79.0120   17.2640 C   0  0  0  0  0  3  0  0  0  0  0  0
   26.3540   77.9800   16.5520 C   0  0  0  0  0  3  0  0  0  0  0  0
   25.6320   77.4170   15.5390 C   0  0  0  0  0  3  0  0  0  0  0  0
   24.3430   77.8480   15.2110 C   0  0  0  0  0  3  0  0  0  0  0  0
   20.9880   79.4190   17.7230 C   0  0  0  0  0  2  0  0  0  0  0  0
   21.2170   80.8640   17.8930 C   0  0  0  0  0  2  0  0  0  0  0  0
   20.0680   81.6580   18.2080 N   0  0  0  0  0  4  0  0  0  0  0  0
   20.2970   83.0520   18.3550 C   0  0  0  0  0  2  0  0  0  0  0  0
   20.2280   83.4070   19.8250 C   0  0  0  0  0  2  0  0  0  0  0  0
   20.8320   82.4450   20.6300 O   0  0  0  0  0  0  0  0  0  0  0  0
   20.1450   81.2460   20.6280 C   0  0  0  0  0  2  0  0  0  0  0  0
   19.3340   81.1660   19.3540 C   0  0  0  0  0  2  0  0  0  0  0  0
   19.4130   81.5330   17.3760 H   0  0  0  0  0  0  0  0  0  0  0  0
  1  9  1  0  0  0  0
  1  2  2  0  0  0  0
  2  7  1  0  0  0  0
  2  3  1  0  0  0  0
  3 17  1  1  0  0  0
  3  4  1  0  0  0  0
  4 23  1  0  0  0  0
  5  6  2  0  0  0  0
  5  4  1  0  0  0  0
  7  5  1  0  0  0  0
  8  7  2  0  0  0  0
 10  1  1  0  0  0  0
 11 10  2  0  0  0  0
 12 11  1  0  0  0  0
 13 12  2  0  0  0  0
 13 15  1  0  0  0  0
 14 13  1  0  0  0  0
 15 16  2  0  0  0  0
 16 10  1  0  0  0  0
 17 18  1  0  0  0  0
 18 19  2  0  0  0  0
 20 19  1  0  0  0  0
 21 20  2  0  0  0  0
 22 21  1  0  0  0  0
 22 17  2  0  0  0  0
 23 24  1  0  0  0  0
 24 25  1  0  0  0  0
 25 26  1  0  0  0  0
 25 30  1  0  0  0  0
 26 27  1  0  0  0  0
 27 28  1  0  0  0  0
 29 28  1  0  0  0  0
 30 29  1  0  0  0  0
 31 25  1  0  0  0  0
M  END
>  <Pose>
1

>  <Score>
-9.853

$$$$
