/Users/jonathanwahrer/Desktop/Msc/3_Semester/Drug_Design_Praktikum/waehrer_HTS_screening/HTS_experiment/out/docking_results/vina_output/6e43/0278_docked.pdbqt
 OpenBabel03212219473D

 30 33  0  0  1  0  0  0  0  0999 V2000
   20.2220   76.7410   13.6260 N   0  0  0  0  0  0  0  0  0  0  0  0
   20.7720   77.6730   12.8130 C   0  0  0  0  0  0  0  0  0  0  0  0
   21.5100   78.5130   13.6320 C   0  0  0  0  0  0  0  0  0  0  0  0
   22.1830   79.5750   13.0590 C   0  0  0  0  0  3  0  0  0  0  0  0
   22.1390   79.8230   11.6810 C   0  0  0  0  0  3  0  0  0  0  0  0
   21.3860   78.9540   10.9030 C   0  0  0  0  0  3  0  0  0  0  0  0
   20.7080   77.8910   11.4460 C   0  0  0  0  0  3  0  0  0  0  0  0
   21.4160   78.0980   14.9310 N   0  0  0  0  0  0  0  0  0  0  0  0
   20.6110   77.0020   14.8880 C   0  0  1  0  0  3  0  0  0  0  0  0
   19.3840   75.6910   13.1220 C   0  0  0  0  0  2  0  0  0  0  0  0
   19.4820   74.4200   13.9100 C   0  0  1  0  0  3  0  0  0  0  0  0
   18.6470   73.3330   13.2740 C   0  0  0  0  0  0  0  0  0  0  0  0
   17.3160   73.5470   13.0170 C   0  0  0  0  0  3  0  0  0  0  0  0
   16.5580   72.5640   12.4380 C   0  0  0  0  0  3  0  0  0  0  0  0
   17.1520   71.3640   12.1190 C   0  0  0  0  0  0  0  0  0  0  0  0
   16.1010   69.9850   11.3080 Br  0  0  0  0  0  0  0  0  0  0  0  0
   18.4810   71.0980   12.3540 C   0  0  0  0  0  3  0  0  0  0  0  0
   19.2060   72.1220   12.9420 C   0  0  0  0  0  3  0  0  0  0  0  0
   20.7660   73.9250   14.0300 O   0  0  0  0  0  0  0  0  0  0  0  0
   21.0400   73.7620   14.9540 H   0  0  0  0  0  0  0  0  0  0  0  0
   20.2820   76.3260   15.9380 N   0  0  0  0  0  0  0  0  0  0  0  0
   20.7460   76.5620   16.8660 H   0  0  0  0  0  0  0  0  0  0  0  0
   19.6080   75.5590   15.9830 H   0  0  0  0  0  0  0  0  0  0  0  0
   22.0740   78.7400   16.0280 C   0  0  0  0  0  2  0  0  0  0  0  0
   23.5630   78.5280   16.0450 C   0  0  0  0  0  0  0  0  0  0  0  0
   24.3750   79.5180   16.5700 C   0  0  0  0  0  3  0  0  0  0  0  0
   25.7500   79.3960   16.6230 C   0  0  0  0  0  3  0  0  0  0  0  0
   26.3030   78.2410   16.1290 C   0  0  0  0  0  3  0  0  0  0  0  0
   25.5220   77.2460   15.6030 C   0  0  0  0  0  3  0  0  0  0  0  0
   24.1620   77.3970   15.5660 C   0  0  0  0  0  3  0  0  0  0  0  0
  1  9  1  0  0  0  0
  2  1  1  0  0  0  0
  2  3  1  0  0  0  0
  3  8  1  0  0  0  0
  4  3  2  0  0  0  0
  5  4  1  0  0  0  0
  6  7  1  0  0  0  0
  6  5  2  0  0  0  0
  7  2  2  0  0  0  0
  8 24  1  0  0  0  0
  9  8  1  0  0  0  0
  9 21  1  1  0  0  0
 10  1  1  0  0  0  0
 11 10  1  6  0  0  0
 11 19  1  0  0  0  0
 12 11  1  0  0  0  0
 13 12  1  0  0  0  0
 14 13  2  0  0  0  0
 15 17  2  0  0  0  0
 15 14  1  0  0  0  0
 16 15  1  0  0  0  0
 17 18  1  0  0  0  0
 18 12  2  0  0  0  0
 19 20  1  0  0  0  0
 21 23  1  0  0  0  0
 21 22  1  0  0  0  0
 24 25  1  0  0  0  0
 25 26  1  0  0  0  0
 26 27  2  0  0  0  0
 28 27  1  0  0  0  0
 29 28  2  0  0  0  0
 30 29  1  0  0  0  0
 30 25  2  0  0  0  0
M  END
>  <Pose>
1

>  <Score>
-10.819

$$$$
