/Users/jonathanwahrer/Desktop/Msc/3_Semester/Drug_Design_Praktikum/waehrer_HTS_screening/HTS_experiment/out/docking_results/vina_output/6e43/0293_docked.pdbqt
 OpenBabel03212219483D

 27 30  0  0  0  0  0  0  0  0999 V2000
   20.2520   75.9490   14.8410 C   0  0  0  0  0  3  0  0  0  0  0  0
   20.7640   76.9710   14.1450 C   0  0  0  0  0  0  0  0  0  0  0  0
   20.6980   77.0640   12.7640 O   0  0  0  0  0  0  0  0  0  0  0  0
   21.3070   78.2250   12.2980 C   0  0  0  0  0  0  0  0  0  0  0  0
   21.7820   78.9120   13.3740 C   0  0  0  0  0  0  0  0  0  0  0  0
   22.4370   80.1130   13.1920 C   0  0  0  0  0  3  0  0  0  0  0  0
   22.5810   80.5680   11.9070 C   0  0  0  0  0  3  0  0  0  0  0  0
   22.0920   79.8630   10.7990 C   0  0  0  0  0  0  0  0  0  0  0  0
   21.4400   78.6660   10.9590 C   0  0  0  0  0  0  0  0  0  0  0  0
   22.2810   80.3960    9.5230 O   0  0  0  0  0  1  0  0  0  0  0  0
   21.4610   78.1490   14.5880 C   0  0  0  0  0  0  0  0  0  0  0  0
   21.7210   78.4320   15.7850 O   0  0  0  0  0  0  0  0  0  0  0  0
   19.5850   74.8600   14.1350 C   0  0  0  0  0  0  0  0  0  0  0  0
   20.1840   73.6160   14.0390 C   0  0  0  0  0  3  0  0  0  0  0  0
   19.5810   72.5640   13.3760 C   0  0  0  0  0  3  0  0  0  0  0  0
   18.3500   72.7130   12.7790 C   0  0  0  0  0  0  0  0  0  0  0  0
   17.5100   71.2480   11.8590 Br  0  0  0  0  0  0  0  0  0  0  0  0
   17.7380   73.9460   12.8640 C   0  0  0  0  0  3  0  0  0  0  0  0
   18.3530   75.0050   13.5370 C   0  0  0  0  0  3  0  0  0  0  0  0
   20.8770   77.8180    9.9020 C   0  0  0  0  0  2  0  0  0  0  0  0
   20.1720   78.4370    8.8470 N   0  0  0  0  0  4  0  0  0  0  0  0
   20.1710   77.6380    7.6390 C   0  0  0  0  0  2  0  0  0  0  0  0
   19.0160   76.6540    7.6840 C   0  0  0  0  0  2  0  0  0  0  0  0
   17.8560   77.3410    7.3650 O   0  0  0  0  0  0  0  0  0  0  0  0
   17.9640   78.6330    7.8910 C   0  0  0  0  0  2  0  0  0  0  0  0
   18.7490   78.6000    9.1930 C   0  0  0  0  0  2  0  0  0  0  0  0
   20.5050   79.4050    8.6660 H   0  0  0  0  0  0  0  0  0  0  0  0
  2 11  1  0  0  0  0
  2  1  2  0  0  0  0
  3  2  1  0  0  0  0
  4  3  1  0  0  0  0
  4  5  1  0  0  0  0
  5 11  1  0  0  0  0
  6  5  2  0  0  0  0
  7  6  1  0  0  0  0
  8  9  1  0  0  0  0
  8  7  2  0  0  0  0
  9  4  2  0  0  0  0
 10  8  1  0  0  0  0
 11 12  2  0  0  0  0
 13  1  1  0  0  0  0
 14 13  1  0  0  0  0
 15 14  2  0  0  0  0
 16 18  2  0  0  0  0
 16 15  1  0  0  0  0
 17 16  1  0  0  0  0
 18 19  1  0  0  0  0
 19 13  2  0  0  0  0
 20  9  1  0  0  0  0
 21 26  1  0  0  0  0
 21 20  1  0  0  0  0
 22 23  1  0  0  0  0
 22 21  1  0  0  0  0
 24 23  1  0  0  0  0
 24 25  1  0  0  0  0
 25 26  1  0  0  0  0
 27 21  1  0  0  0  0
M  END
>  <Pose>
1

>  <Score>
-9.501

$$$$
