/Users/jonathanwahrer/Desktop/Msc/3_Semester/Drug_Design_Praktikum/waehrer_HTS_screening/HTS_experiment/out/docking_results/vina_output/6e43/0320_docked.pdbqt
 OpenBabel03212219493D

 32 36  0  0  1  0  0  0  0  0999 V2000
   21.6350   79.2350   15.2310 C   0  0  0  0  0  0  0  0  0  0  0  0
   21.4790   80.4830   15.8550 C   0  0  0  0  0  3  0  0  0  0  0  0
   20.8180   80.2640   16.9850 N   0  0  0  0  0  0  0  0  0  0  0  0
   20.3260   80.9680   18.0500 C   0  0  0  0  0  0  0  0  0  0  0  0
   19.7290   80.0320   18.8570 C   0  0  0  0  0  0  0  0  0  0  0  0
   19.8780   78.8530   18.2720 N   0  0  0  0  0  0  0  0  0  0  0  0
   20.5600   78.9830   17.0980 C   0  0  1  0  0  3  0  0  0  0  0  0
   21.0600   78.3170   16.0150 N   0  0  0  0  0  0  0  0  0  0  0  0
   19.1080   80.3940   20.0560 C   0  0  0  0  0  3  0  0  0  0  0  0
   19.0930   81.7160   20.4440 C   0  0  0  0  0  3  0  0  0  0  0  0
   19.6990   82.6350   19.6170 C   0  0  0  0  0  3  0  0  0  0  0  0
   20.3170   82.2840   18.4230 C   0  0  0  0  0  3  0  0  0  0  0  0
   19.5040   77.9730   18.6750 H   0  0  0  0  0  0  0  0  0  0  0  0
   20.9040   76.9020   15.8750 C   0  0  0  0  0  2  0  0  0  0  0  0
   19.6660   76.4150   15.2370 C   0  0  0  0  0  2  0  0  0  0  0  0
   19.7630   75.6880   13.9440 C   0  0  0  0  0  2  0  0  0  0  0  0
   20.1200   74.2990   14.1280 N   0  0  0  0  0  4  0  0  0  0  0  0
   21.0510   74.0260   13.8260 H   0  0  0  0  0  0  0  0  0  0  0  0
   20.1510   74.1580   15.2030 H   0  0  0  0  0  0  0  0  0  0  0  0
   19.1100   73.3900   13.6720 C   0  0  0  0  0  3  0  0  0  0  0  0
   18.0560   73.9990   12.7930 C   0  0  0  0  0  2  0  0  0  0  0  0
   16.8610   73.0340   12.8290 C   0  0  0  0  0  2  0  0  0  0  0  0
   17.2910   71.7270   12.2590 C   0  0  0  0  0  2  0  0  0  0  0  0
   18.5350   71.1600   12.9030 C   0  0  0  0  0  2  0  0  0  0  0  0
   19.6630   72.1980   12.9000 C   0  0  0  0  0  2  0  0  0  0  0  0
   22.3000   79.0740   13.9560 C   0  0  0  0  0  0  0  0  0  0  0  0
   21.5540   79.1960   12.8010 C   0  0  0  0  0  3  0  0  0  0  0  0
   22.1110   79.0680   11.5610 C   0  0  0  0  0  3  0  0  0  0  0  0
   23.4380   78.8120   11.4030 C   0  0  0  0  0  0  0  0  0  0  0  0
   24.2310   78.6290    9.6570 Br  0  0  0  0  0  0  0  0  0  0  0  0
   24.2130   78.6840   12.5220 C   0  0  0  0  0  3  0  0  0  0  0  0
   23.6200   78.8190   13.8000 C   0  0  0  0  0  3  0  0  0  0  0  0
  1  2  2  0  0  0  0
  1  8  1  0  0  0  0
  2  3  1  0  0  0  0
  3  7  1  0  0  0  0
  3  4  1  0  0  0  0
  4 12  2  0  0  0  0
  4  5  1  0  0  0  0
  5  9  2  0  0  0  0
  6 13  1  0  0  0  0
  6  5  1  0  0  0  0
  7  8  1  6  0  0  0
  7  6  1  0  0  0  0
  9 10  1  0  0  0  0
 11 10  2  0  0  0  0
 12 11  1  0  0  0  0
 14  8  1  0  0  0  0
 15 14  1  0  0  0  0
 16 17  1  0  0  0  0
 16 15  1  0  0  0  0
 17 19  1  0  0  0  0
 18 17  1  0  0  0  0
 20 17  1  0  0  0  0
 21 22  1  0  0  0  0
 21 20  1  0  0  0  0
 23 22  1  0  0  0  0
 23 24  1  0  0  0  0
 25 24  1  0  0  0  0
 25 20  1  0  0  0  0
 26  1  1  0  0  0  0
 27 26  2  0  0  0  0
 28 27  1  0  0  0  0
 29 28  2  0  0  0  0
 29 31  1  0  0  0  0
 30 29  1  0  0  0  0
 31 32  2  0  0  0  0
 32 26  1  0  0  0  0
M  END
>  <Pose>
1

>  <Score>
-10.164

$$$$
