/Users/jonathanwahrer/Desktop/Msc/3_Semester/Drug_Design_Praktikum/waehrer_HTS_screening/HTS_experiment/out/docking_results/vina_output/6e43/0346_docked.pdbqt
 OpenBabel03212219503D

 35 38  0  0  1  0  0  0  0  0999 V2000
   20.5840   78.1150   12.8120 C   0  0  2  0  0  3  0  0  0  0  0  0
   20.8050   78.6280   11.4880 N   0  0  0  0  0  0  0  0  0  0  0  0
   22.1520   79.0220   11.3120 C   0  0  0  0  0  0  0  0  0  0  0  0
   22.6940   79.5350   10.2840 O   0  0  0  0  0  0  0  0  0  0  0  0
   22.9020   78.7410   12.5570 C   0  0  0  0  0  0  0  0  0  0  0  0
   24.1180   78.9750   12.7340 O   0  0  0  0  0  0  0  0  0  0  0  0
   21.9330   78.1650   13.4660 C   0  0  1  0  0  3  0  0  0  0  0  0
   22.2340   77.8020   14.6930 C   0  0  1  0  0  3  0  0  0  0  0  0
   23.1450   76.7370   14.8560 O   0  0  0  0  0  1  0  0  0  0  0  0
   21.7280   78.3960   15.9040 C   0  0  0  0  0  0  0  0  0  0  0  0
   21.2470   77.7450   16.9860 C   0  0  0  0  0  3  0  0  0  0  0  0
   20.8230   78.4380   18.1000 C   0  0  0  0  0  0  0  0  0  0  0  0
   20.8590   79.8130   18.1910 C   0  0  0  0  0  0  0  0  0  0  0  0
   20.2990   77.6690   19.2760 C   0  0  0  0  0  1  0  0  0  0  0  0
   21.3540   80.4550   17.0730 C   0  0  0  0  0  3  0  0  0  0  0  0
   21.7810   79.7980   15.9530 C   0  0  0  0  0  3  0  0  0  0  0  0
   20.4310   80.5060   19.3170 O   0  0  0  0  0  0  0  0  0  0  0  0
   19.2430   81.2820   19.2650 C   0  0  0  0  0  1  0  0  0  0  0  0
   20.0130   76.7660   12.8250 C   0  0  0  0  0  0  0  0  0  0  0  0
   19.4770   76.2140   11.6810 C   0  0  0  0  0  3  0  0  0  0  0  0
   18.9290   74.9270   11.6910 C   0  0  0  0  0  3  0  0  0  0  0  0
   18.9120   74.1790   12.8460 C   0  0  0  0  0  0  0  0  0  0  0  0
   18.1500   72.4150   12.8230 Br  0  0  0  0  0  0  0  0  0  0  0  0
   19.4420   74.7190   13.9850 C   0  0  0  0  0  3  0  0  0  0  0  0
   19.9760   75.9860   13.9580 C   0  0  0  0  0  3  0  0  0  0  0  0
   19.7630   78.7260   10.4820 C   0  0  0  0  0  2  0  0  0  0  0  0
   20.1600   78.1460    9.1520 C   0  0  0  0  0  2  0  0  0  0  0  0
   19.1170   78.3930    8.1050 C   0  0  0  0  0  2  0  0  0  0  0  0
   18.8450   77.2430    7.2930 N   0  0  0  0  0  4  0  0  0  0  0  0
   17.4550   77.1310    6.9030 C   0  0  0  0  0  2  0  0  0  0  0  0
   17.3790   76.0160    5.8550 C   0  0  0  0  0  2  0  0  0  0  0  0
   18.5740   75.3140    5.7980 O   0  0  0  0  0  0  0  0  0  0  0  0
   18.9400   74.8660    7.0870 C   0  0  0  0  0  2  0  0  0  0  0  0
   19.3200   76.0610    7.9530 C   0  0  0  0  0  2  0  0  0  0  0  0
   19.3950   77.3350    6.3870 H   0  0  0  0  0  0  0  0  0  0  0  0
  1 19  1  6  0  0  0
  1  7  1  0  0  0  0
  2  1  1  0  0  0  0
  3  2  1  0  0  0  0
  3  5  1  0  0  0  0
  4  3  2  0  0  0  0
  5  6  2  0  0  0  0
  5  7  1  0  0  0  0
  7  8  1  1  0  0  0
  8  9  1  1  0  0  0
  8 10  1  0  0  0  0
 10 16  2  0  0  0  0
 10 11  1  0  0  0  0
 11 12  2  0  0  0  0
 12 13  1  0  0  0  0
 12 14  1  0  0  0  0
 13 17  1  0  0  0  0
 15 13  2  0  0  0  0
 16 15  1  0  0  0  0
 18 17  1  0  0  0  0
 19 25  1  0  0  0  0
 20 21  1  0  0  0  0
 20 19  2  0  0  0  0
 21 22  2  0  0  0  0
 22 24  1  0  0  0  0
 23 22  1  0  0  0  0
 25 24  2  0  0  0  0
 26  2  1  0  0  0  0
 27 26  1  0  0  0  0
 28 27  1  0  0  0  0
 29 34  1  0  0  0  0
 29 28  1  0  0  0  0
 30 29  1  0  0  0  0
 31 30  1  0  0  0  0
 32 31  1  0  0  0  0
 32 33  1  0  0  0  0
 33 34  1  0  0  0  0
 35 29  1  0  0  0  0
M  END
>  <Pose>
1

>  <Score>
-10.005

$$$$
