/Users/jonathanwahrer/Desktop/Msc/3_Semester/Drug_Design_Praktikum/waehrer_HTS_screening/HTS_experiment/out/docking_results/vina_output/6e43/0351_docked.pdbqt
 OpenBabel03212219513D

 32 35  0  0  1  0  0  0  0  0999 V2000
   21.4870   76.9110   14.3830 C   0  0  1  0  0  3  0  0  0  0  0  0
   21.9920   77.9460   13.5560 N   0  0  0  0  0  0  0  0  0  0  0  0
   22.8650   78.6970   14.4530 C   0  0  0  0  0  0  0  0  0  0  0  0
   23.8840   79.3590   14.1150 O   0  0  0  0  0  0  0  0  0  0  0  0
   22.3090   78.5170   15.7930 C   0  0  0  0  0  0  0  0  0  0  0  0
   22.7280   78.9880   16.8820 O   0  0  0  0  0  0  0  0  0  0  0  0
   21.1330   77.6600   15.6250 C   0  0  0  0  0  0  0  0  0  0  0  0
   20.0440   77.6260   16.3730 C   0  0  0  0  0  0  0  0  0  0  0  0
   18.9880   76.7950   16.0340 O   0  0  0  0  0  1  0  0  0  0  0  0
   21.8320   78.2830   12.1390 C   0  0  0  0  0  2  0  0  0  0  0  0
   20.9250   79.4450   11.8790 C   0  0  0  0  0  2  0  0  0  0  0  0
   20.9300   79.8610   10.4940 N   0  0  0  0  0  4  0  0  0  0  0  0
   19.9490   80.8710   10.2090 C   0  0  0  0  0  2  0  0  0  0  0  0
   18.5340   80.3750   10.2530 C   0  0  0  0  0  2  0  0  0  0  0  0
   18.3490   79.2400    9.4600 O   0  0  0  0  0  0  0  0  0  0  0  0
   19.2040   78.2570    9.9810 C   0  0  0  0  0  2  0  0  0  0  0  0
   20.6190   78.7010    9.6790 C   0  0  0  0  0  2  0  0  0  0  0  0
   21.8580   80.2110   10.1850 H   0  0  0  0  0  0  0  0  0  0  0  0
   20.5540   75.9510   13.9320 C   0  0  0  0  0  0  0  0  0  0  0  0
   19.5980   76.2190   12.9930 C   0  0  0  0  0  3  0  0  0  0  0  0
   18.7050   75.2230   12.5700 C   0  0  0  0  0  3  0  0  0  0  0  0
   18.7560   73.9460   13.0800 C   0  0  0  0  0  0  0  0  0  0  0  0
   17.5690   72.5620   12.5400 Br  0  0  0  0  0  0  0  0  0  0  0  0
   19.7120   73.6750   14.0220 C   0  0  0  0  0  3  0  0  0  0  0  0
   20.5800   74.6630   14.4260 C   0  0  0  0  0  3  0  0  0  0  0  0
   19.8690   78.4250   17.5780 C   0  0  0  0  0  0  0  0  0  0  0  0
   19.5610   79.7720   17.3450 C   0  0  0  0  0  3  0  0  0  0  0  0
   19.3250   80.6540   18.3740 C   0  0  0  0  0  3  0  0  0  0  0  0
   19.3980   80.1770   19.6780 C   0  0  0  0  0  0  0  0  0  0  0  0
   19.7010   78.8510   19.8990 C   0  0  0  0  0  3  0  0  0  0  0  0
   19.0970   81.3070   20.9790 Cl  0  0  0  0  0  0  0  0  0  0  0  0
   19.9350   77.9750   18.8600 C   0  0  0  0  0  3  0  0  0  0  0  0
  1 19  1  6  0  0  0
  1  7  1  0  0  0  0
  2  1  1  0  0  0  0
  2  3  1  0  0  0  0
  3  5  1  0  0  0  0
  4  3  2  0  0  0  0
  5  6  2  0  0  0  0
  7  5  1  0  0  0  0
  7  8  2  0  0  0  0
  8 26  1  0  0  0  0
  9  8  1  0  0  0  0
 10  2  1  0  0  0  0
 11 10  1  0  0  0  0
 12 11  1  0  0  0  0
 13 14  1  0  0  0  0
 13 12  1  0  0  0  0
 15 16  1  0  0  0  0
 15 14  1  0  0  0  0
 17 16  1  0  0  0  0
 17 12  1  0  0  0  0
 18 12  1  0  0  0  0
 19 25  1  0  0  0  0
 20 19  2  0  0  0  0
 21 20  1  0  0  0  0
 21 22  2  0  0  0  0
 22 24  1  0  0  0  0
 23 22  1  0  0  0  0
 24 25  2  0  0  0  0
 26 32  1  0  0  0  0
 27 26  2  0  0  0  0
 27 28  1  0  0  0  0
 28 29  2  0  0  0  0
 29 30  1  0  0  0  0
 29 31  1  0  0  0  0
 32 30  2  0  0  0  0
M  END
>  <Pose>
1

>  <Score>
-8.726

$$$$
