/Users/jonathanwahrer/Desktop/Msc/3_Semester/Drug_Design_Praktikum/waehrer_HTS_screening/HTS_experiment/out/docking_results/vina_output/6e43/0364_docked.pdbqt
 OpenBabel03212219523D

 32 35  0  0  1  0  0  0  0  0999 V2000
   20.4180   80.0130   17.3650 C   0  0  1  0  0  3  0  0  0  0  0  0
   19.7160   78.7600   17.4170 N   0  0  0  0  0  0  0  0  0  0  0  0
   19.4010   78.5050   18.7750 C   0  0  0  0  0  0  0  0  0  0  0  0
   18.9650   77.4120   19.2370 O   0  0  0  0  0  0  0  0  0  0  0  0
   19.6610   79.7120   19.5630 C   0  0  0  0  0  0  0  0  0  0  0  0
   19.4970   79.8720   20.7980 O   0  0  0  0  0  0  0  0  0  0  0  0
   20.1510   80.7180   18.6370 C   0  0  0  0  0  0  0  0  0  0  0  0
   20.2680   82.0110   18.8920 C   0  0  0  0  0  0  0  0  0  0  0  0
   20.6920   82.8390   17.8340 O   0  0  0  0  0  1  0  0  0  0  0  0
   21.8750   79.8300   17.1280 C   0  0  0  0  0  0  0  0  0  0  0  0
   22.6730   79.0700   17.9530 C   0  0  0  0  0  3  0  0  0  0  0  0
   24.0220   78.8810   17.7630 C   0  0  0  0  0  3  0  0  0  0  0  0
   24.6390   79.4690   16.6960 C   0  0  0  0  0  0  0  0  0  0  0  0
   26.5140   79.1940   16.4490 Br  0  0  0  0  0  0  0  0  0  0  0  0
   23.8850   80.2380   15.8430 C   0  0  0  0  0  3  0  0  0  0  0  0
   22.5370   80.4170   16.0480 C   0  0  0  0  0  3  0  0  0  0  0  0
   20.0140   82.6600   20.1540 C   0  0  0  0  0  0  0  0  0  0  0  0
   20.4860   82.4700   21.3920 N   0  0  0  0  0  0  0  0  0  0  0  0
   19.9040   83.3140   22.2620 C   0  0  0  0  0  0  0  0  0  0  0  0
   21.4200   81.6180   21.8660 C   0  0  0  0  0  3  0  0  0  0  0  0
   19.0380   84.0650   21.5610 N   0  0  0  0  0  0  0  0  0  0  0  0
   20.2130   83.3540   23.6180 C   0  0  0  0  0  3  0  0  0  0  0  0
   19.0780   83.6950   20.2790 C   0  0  0  0  0  0  0  0  0  0  0  0
   18.2620   84.2960   19.1870 C   0  0  0  0  0  1  0  0  0  0  0  0
   21.1600   82.4890   24.0910 C   0  0  0  0  0  3  0  0  0  0  0  0
   21.7610   81.6200   23.1990 C   0  0  0  0  0  3  0  0  0  0  0  0
   19.3770   77.8880   16.2710 C   0  0  0  0  0  2  0  0  0  0  0  0
   20.2850   76.6770   16.2570 C   0  0  0  0  0  2  0  0  0  0  0  0
   20.8000   76.3700   14.9690 N   0  0  0  0  0  4  0  0  0  0  0  0
   19.7480   75.6780   14.2240 C   0  0  0  0  0  1  0  0  0  0  0  0
   21.2400   77.4950   14.2030 C   0  0  0  0  0  1  0  0  0  0  0  0
   21.6110   75.6900   15.0180 H   0  0  0  0  0  0  0  0  0  0  0  0
  1 10  1  1  0  0  0
  1  2  1  0  0  0  0
  1  7  1  0  0  0  0
  2  3  1  0  0  0  0
  3  4  2  0  0  0  0
  3  5  1  0  0  0  0
  5  6  2  0  0  0  0
  7  8  2  0  0  0  0
  7  5  1  0  0  0  0
  8 17  1  0  0  0  0
  9  8  1  0  0  0  0
 10 11  1  0  0  0  0
 12 11  2  0  0  0  0
 13 12  1  0  0  0  0
 14 13  1  0  0  0  0
 15 16  1  0  0  0  0
 15 13  2  0  0  0  0
 16 10  2  0  0  0  0
 17 23  2  0  0  0  0
 17 18  1  0  0  0  0
 18 20  1  0  0  0  0
 18 19  1  0  0  0  0
 19 22  1  0  0  0  0
 20 26  2  0  0  0  0
 21 19  2  0  0  0  0
 22 25  2  0  0  0  0
 23 21  1  0  0  0  0
 24 23  1  0  0  0  0
 26 25  1  0  0  0  0
 27  2  1  0  0  0  0
 28 27  1  0  0  0  0
 29 32  1  0  0  0  0
 29 28  1  0  0  0  0
 30 29  1  0  0  0  0
 31 29  1  0  0  0  0
M  END
>  <Pose>
1

>  <Score>
-8.961

$$$$
