/Users/jonathanwahrer/Desktop/Msc/3_Semester/Drug_Design_Praktikum/waehrer_HTS_screening/HTS_experiment/out/docking_results/vina_output/6e43/0385_docked.pdbqt
 OpenBabel03212219523D

 32 35  0  0  1  0  0  0  0  0999 V2000
   21.8160   78.8050   17.0910 C   0  0  2  0  0  3  0  0  0  0  0  0
   23.3130   78.8870   17.1180 C   0  0  0  0  0  2  0  0  0  0  0  0
   23.9680   78.5040   15.8600 C   0  0  0  0  0  0  0  0  0  0  0  0
   25.0630   79.0600   15.5720 O   0  0  0  0  0  0  0  0  0  0  0  0
   23.3720   77.5410   15.0090 N   0  0  0  0  0  0  0  0  0  0  0  0
   22.0160   77.1890   15.1820 C   0  0  0  0  0  0  0  0  0  0  0  0
   21.4650   76.2460   14.3560 N   0  0  0  0  0  0  0  0  0  0  0  0
   20.1940   75.8560   14.4720 C   0  0  0  0  0  0  0  0  0  0  0  0
   19.4550   76.4220   15.4340 N   0  0  0  0  0  0  0  0  0  0  0  0
   19.9540   77.3680   16.2820 C   0  0  0  0  0  0  0  0  0  0  0  0
   21.2660   77.7880   16.1840 C   0  0  0  0  0  0  0  0  0  0  0  0
   23.9200   77.0670   14.2340 H   0  0  0  0  0  0  0  0  0  0  0  0
   21.3400   80.2250   16.7170 C   0  0  0  0  0  0  0  0  0  0  0  0
   20.8410   81.0180   17.6510 N   0  0  0  0  0  0  0  0  0  0  0  0
   20.4830   81.9220   16.6980 H   0  0  0  0  0  0  0  0  0  0  0  0
   21.5200   80.4210   15.4500 O   0  0  0  0  0  0  0  0  0  0  0  0
   20.3230   81.8410   18.6190 C   0  0  0  0  0  0  0  0  0  0  0  0
   19.7280   81.1970   19.7500 C   0  0  0  0  0  3  0  0  0  0  0  0
   19.2530   81.9020   20.7950 C   0  0  0  0  0  3  0  0  0  0  0  0
   19.3140   83.2730   20.8250 C   0  0  0  0  0  0  0  0  0  0  0  0
   18.6380   84.2610   22.3250 Br  0  0  0  0  0  0  0  0  0  0  0  0
   19.8780   83.9330   19.7550 C   0  0  0  0  0  3  0  0  0  0  0  0
   20.3650   83.2170   18.6890 C   0  0  0  0  0  3  0  0  0  0  0  0
   19.1240   77.9500   17.2820 N   0  0  0  0  0  0  0  0  0  0  0  0
   18.1230   77.7510   17.3670 H   0  0  0  0  0  0  0  0  0  0  0  0
   19.5590   78.6230   17.9640 H   0  0  0  0  0  0  0  0  0  0  0  0
   19.6330   74.8600   13.5860 N   0  0  0  0  0  0  0  0  0  0  0  0
   19.8540   73.4970   13.9230 C   0  0  0  0  0  2  0  0  0  0  0  0
   18.9080   72.5360   13.2620 C   0  0  0  0  0  2  0  0  0  0  0  0
   17.9320   73.1810   12.5110 O   0  0  0  0  0  0  0  0  0  0  0  0
   18.4820   74.1040   11.6310 C   0  0  0  0  0  2  0  0  0  0  0  0
   18.8880   75.3150   12.4310 C   0  0  0  0  0  2  0  0  0  0  0  0
  1 13  1  6  0  0  0
  1  2  1  0  0  0  0
  3  2  1  0  0  0  0
  4  3  2  0  0  0  0
  5  6  1  0  0  0  0
  5  3  1  0  0  0  0
  6 11  2  0  0  0  0
  7  8  2  0  0  0  0
  7  6  1  0  0  0  0
  8  9  1  0  0  0  0
  9 10  2  0  0  0  0
 10 24  1  0  0  0  0
 11 10  1  0  0  0  0
 11  1  1  0  0  0  0
 12  5  1  0  0  0  0
 13 14  1  0  0  0  0
 14 17  1  0  0  0  0
 15 14  1  0  0  0  0
 16 13  2  0  0  0  0
 17 23  2  0  0  0  0
 17 18  1  0  0  0  0
 18 19  2  0  0  0  0
 19 20  1  0  0  0  0
 20 21  1  0  0  0  0
 22 20  2  0  0  0  0
 23 22  1  0  0  0  0
 24 25  1  0  0  0  0
 24 26  1  0  0  0  0
 27 28  1  0  0  0  0
 27  8  1  0  0  0  0
 29 28  1  0  0  0  0
 30 29  1  0  0  0  0
 31 32  1  0  0  0  0
 31 30  1  0  0  0  0
 32 27  1  0  0  0  0
M  END
>  <Pose>
1

>  <Score>
-10.397

$$$$
