/Users/jonathanwahrer/Desktop/Msc/3_Semester/Drug_Design_Praktikum/waehrer_HTS_screening/HTS_experiment/out/docking_results/vina_output/6e43/0386_docked.pdbqt
 OpenBabel03212219533D

 36 39  0  0  1  0  0  0  0  0999 V2000
   22.9410   78.2660   16.4810 C   0  0  2  0  0  3  0  0  0  0  0  0
   23.9930   79.2220   17.0110 C   0  0  0  0  0  2  0  0  0  0  0  0
   25.2370   79.0220   16.2070 C   0  0  0  0  0  0  0  0  0  0  0  0
   26.3160   78.8730   16.7530 O   0  0  0  0  0  0  0  0  0  0  0  0
   25.0870   79.0200   14.8130 N   0  0  0  0  0  0  0  0  0  0  0  0
   23.8330   78.7450   14.2200 C   0  0  0  0  0  0  0  0  0  0  0  0
   23.6520   78.8360   12.8870 N   0  0  0  0  0  0  0  0  0  0  0  0
   22.4880   78.6840   12.2540 C   0  0  0  0  0  0  0  0  0  0  0  0
   21.4270   78.4180   13.0590 N   0  0  0  0  0  0  0  0  0  0  0  0
   21.5350   78.3090   14.4080 C   0  0  0  0  0  0  0  0  0  0  0  0
   22.7250   78.4600   15.0520 C   0  0  0  0  0  0  0  0  0  0  0  0
   25.8830   79.2240   14.1510 H   0  0  0  0  0  0  0  0  0  0  0  0
   21.7730   78.0860   17.3860 C   0  0  0  0  0  0  0  0  0  0  0  0
   21.1550   79.1240   17.9810 N   0  0  0  0  0  0  0  0  0  0  0  0
   20.2060   78.2960   18.4600 H   0  0  0  0  0  0  0  0  0  0  0  0
   21.4820   76.8160   17.4770 O   0  0  0  0  0  0  0  0  0  0  0  0
   20.5240   80.1810   18.5890 C   0  0  0  0  0  0  0  0  0  0  0  0
   20.6790   81.4290   17.9030 C   0  0  0  0  0  3  0  0  0  0  0  0
   20.1430   82.5320   18.4780 C   0  0  0  0  0  3  0  0  0  0  0  0
   19.4600   82.5080   19.6820 C   0  0  0  0  0  0  0  0  0  0  0  0
   18.7510   84.1120   20.3940 Br  0  0  0  0  0  0  0  0  0  0  0  0
   19.3040   81.3260   20.3480 C   0  0  0  0  0  3  0  0  0  0  0  0
   19.8420   80.1910   19.7820 C   0  0  0  0  0  3  0  0  0  0  0  0
   20.3950   78.0380   15.1590 O   0  0  0  0  0  0  0  0  0  0  0  0
   19.9250   77.1350   15.1300 H   0  0  0  0  0  0  0  0  0  0  0  0
   22.3340   78.7340   10.8490 N   0  0  0  0  0  0  0  0  0  0  0  0
   21.6360   77.7800   10.0270 C   0  0  0  0  0  2  0  0  0  0  0  0
   20.8990   78.5430    8.9300 C   0  0  0  0  0  2  0  0  0  0  0  0
   20.5030   79.9230    9.3670 C   0  0  2  0  0  3  0  0  0  0  0  0
   21.6890   80.7390    9.7440 C   0  0  0  0  0  2  0  0  0  0  0  0
   22.9110   79.8660   10.1140 C   0  0  0  0  0  2  0  0  0  0  0  0
   19.4610   79.8950   10.4190 C   0  0  0  0  0  0  0  0  0  0  0  0
   18.8880   78.8080   10.6390 O   0  0  0  0  0  0  0  0  0  0  0  0
   19.0780   81.0230   11.1790 N   0  0  0  0  0  0  0  0  0  0  0  0
   19.7530   81.7510   11.4780 H   0  0  0  0  0  0  0  0  0  0  0  0
   18.0780   81.1280   11.4480 H   0  0  0  0  0  0  0  0  0  0  0  0
  1  2  1  0  0  0  0
  1 13  1  1  0  0  0
  3  4  2  0  0  0  0
  3  2  1  0  0  0  0
  5  3  1  0  0  0  0
  6  5  1  0  0  0  0
  6 11  2  0  0  0  0
  7  6  1  0  0  0  0
  8  7  2  0  0  0  0
  8  9  1  0  0  0  0
  9 10  2  0  0  0  0
 10 11  1  0  0  0  0
 10 24  1  0  0  0  0
 11  1  1  0  0  0  0
 12  5  1  0  0  0  0
 13 16  2  0  0  0  0
 13 14  1  0  0  0  0
 14 15  1  0  0  0  0
 14 17  1  0  0  0  0
 17 23  1  0  0  0  0
 18 19  1  0  0  0  0
 18 17  2  0  0  0  0
 19 20  2  0  0  0  0
 20 22  1  0  0  0  0
 20 21  1  0  0  0  0
 23 22  2  0  0  0  0
 25 24  1  0  0  0  0
 26  8  1  0  0  0  0
 27 26  1  0  0  0  0
 28 29  1  0  0  0  0
 28 27  1  0  0  0  0
 29 30  1  0  0  0  0
 29 32  1  1  0  0  0
 30 31  1  0  0  0  0
 31 26  1  0  0  0  0
 32 33  2  0  0  0  0
 32 34  1  0  0  0  0
 34 36  1  0  0  0  0
 34 35  1  0  0  0  0
M  END
>  <Pose>
1

>  <Score>
-10.499

$$$$
