/Users/jonathanwahrer/Desktop/Msc/3_Semester/Drug_Design_Praktikum/waehrer_HTS_screening/HTS_experiment/out/docking_results/vina_output/6e43/0395_docked.pdbqt
 OpenBabel03212219533D

 28 31  0  0  1  0  0  0  0  0999 V2000
   20.3650   76.3090   14.1480 N   0  0  0  0  0  0  0  0  0  0  0  0
   21.0730   77.1200   13.3800 N   0  0  0  0  0  0  0  0  0  0  0  0
   21.5310   78.1550   14.0620 N   0  0  0  0  0  0  0  0  0  0  0  0
   21.1140   78.0440   15.3520 C   0  0  0  0  0  0  0  0  0  0  0  0
   20.3820   76.8700   15.3700 C   0  0  0  0  0  0  0  0  0  0  0  0
   19.8430   76.5080   16.5400 N   0  0  0  0  0  0  0  0  0  0  0  0
   20.0130   77.2620   17.6400 C   0  0  0  0  0  3  0  0  0  0  0  0
   20.7270   78.4110   17.6310 N   0  0  0  0  0  0  0  0  0  0  0  0
   21.2840   78.8100   16.4810 C   0  0  0  0  0  0  0  0  0  0  0  0
   21.9440   79.8720   16.4690 O   0  0  0  0  0  0  0  0  0  0  0  0
   20.8540   79.1570   18.8690 C   0  0  0  0  0  2  0  0  0  0  0  0
   19.7880   80.2200   18.9460 C   0  0  0  0  0  0  0  0  0  0  0  0
   18.8240   80.2220   18.1340 O   0  0  0  0  0  0  0  0  0  0  0  0
   19.8460   81.2350   19.9300 N   0  0  0  0  0  0  0  0  0  0  0  0
   18.8320   82.2590   20.0130 C   0  0  0  0  0  2  0  0  0  0  0  0
   20.9350   81.2680   20.8780 C   0  0  0  0  0  2  0  0  0  0  0  0
   19.5550   83.5820   20.2010 C   0  0  2  0  0  3  0  0  0  0  0  0
   20.4070   83.5930   21.2740 O   0  0  0  0  0  0  0  0  0  0  0  0
   18.4670   84.6240   20.4790 C   0  0  0  0  0  1  0  0  0  0  0  0
   20.6120   82.3710   21.8650 C   0  0  2  0  0  3  0  0  0  0  0  0
   21.6470   82.3960   22.9500 C   0  0  0  0  0  1  0  0  0  0  0  0
   19.7100   75.0930   13.7820 C   0  0  0  0  0  0  0  0  0  0  0  0
   18.4910   75.1270   13.1370 C   0  0  0  0  0  3  0  0  0  0  0  0
   17.8500   73.9510   12.7780 C   0  0  0  0  0  3  0  0  0  0  0  0
   18.3930   72.7110   13.0450 C   0  0  0  0  0  0  0  0  0  0  0  0
   17.4870   71.1020   12.5390 Br  0  0  0  0  0  0  0  0  0  0  0  0
   19.6110   72.6770   13.6900 C   0  0  0  0  0  3  0  0  0  0  0  0
   20.2470   73.8480   14.0450 C   0  0  0  0  0  3  0  0  0  0  0  0
  1  5  1  0  0  0  0
  2  3  2  0  0  0  0
  2  1  1  0  0  0  0
  3  4  1  0  0  0  0
  4  5  2  0  0  0  0
  4  9  1  0  0  0  0
  5  6  1  0  0  0  0
  6  7  2  0  0  0  0
  8  7  1  0  0  0  0
  8 11  1  0  0  0  0
  9  8  1  0  0  0  0
 10  9  2  0  0  0  0
 11 12  1  0  0  0  0
 12 14  1  0  0  0  0
 13 12  2  0  0  0  0
 14 15  1  0  0  0  0
 14 16  1  0  0  0  0
 15 17  1  0  0  0  0
 16 20  1  0  0  0  0
 17 19  1  1  0  0  0
 17 18  1  0  0  0  0
 18 20  1  0  0  0  0
 20 21  1  1  0  0  0
 22 28  1  0  0  0  0
 22  1  1  0  0  0  0
 23 22  2  0  0  0  0
 24 25  2  0  0  0  0
 24 23  1  0  0  0  0
 25 27  1  0  0  0  0
 26 25  1  0  0  0  0
 27 28  2  0  0  0  0
M  END
>  <Pose>
1

>  <Score>
-10.017

$$$$
