/Users/jonathanwahrer/Desktop/Msc/3_Semester/Drug_Design_Praktikum/waehrer_HTS_screening/HTS_experiment/out/docking_results/vina_output/6e43/0399_docked.pdbqt
 OpenBabel03212219533D

 28 31  0  0  1  0  0  0  0  0999 V2000
   20.9870   78.8050    9.9310 N   0  0  0  0  0  0  0  0  0  0  0  0
   20.5400   79.3390   11.1720 C   0  0  0  0  0  0  0  0  0  0  0  0
   19.3990   79.1720   11.6550 O   0  0  0  0  0  0  0  0  0  0  0  0
   21.5970   80.1240   11.8270 C   0  0  2  0  0  3  0  0  0  0  0  0
   22.4780   80.5180   10.6470 C   0  0  0  0  0  2  0  0  0  0  0  0
   22.2970   79.3650    9.7100 C   0  0  0  0  0  0  0  0  0  0  0  0
   23.1970   79.0340    8.9160 O   0  0  0  0  0  0  0  0  0  0  0  0
   22.3720   79.4090   12.8160 N   0  0  1  0  0  4  0  0  0  0  0  0
   23.1520   80.2930   13.6480 C   0  0  0  0  0  2  0  0  0  0  0  0
   22.5170   80.6160   14.9820 C   0  0  0  0  0  2  0  0  0  0  0  0
   21.9020   79.4520   15.5670 N   0  0  0  0  0  0  0  0  0  0  0  0
   22.2220   78.2110   14.9030 C   0  0  0  0  0  2  0  0  0  0  0  0
   21.6490   78.3880   13.4840 C   0  0  0  0  0  2  0  0  0  0  0  0
   23.1160   78.9000   12.2280 H   0  0  0  0  0  0  0  0  0  0  0  0
   21.0460   79.4930   16.6730 C   0  0  0  0  0  0  0  0  0  0  0  0
   20.4380   78.3990   17.2550 C   0  0  0  0  0  3  0  0  0  0  0  0
   19.5780   78.4990   18.3370 C   0  0  0  0  0  3  0  0  0  0  0  0
   19.2950   79.7240   18.8780 C   0  0  0  0  0  0  0  0  0  0  0  0
   19.8750   80.8520   18.3340 C   0  0  0  0  0  3  0  0  0  0  0  0
   18.4380   79.8940   19.9670 O   0  0  0  0  0  1  0  0  0  0  0  0
   20.7310   80.7270   17.2550 C   0  0  0  0  0  3  0  0  0  0  0  0
   20.3230   77.8970    9.0490 C   0  0  0  0  0  0  0  0  0  0  0  0
   19.4400   78.3330    8.1050 C   0  0  0  0  0  3  0  0  0  0  0  0
   18.7910   77.4410    7.2450 C   0  0  0  0  0  3  0  0  0  0  0  0
   19.0160   76.0930    7.3150 C   0  0  0  0  0  0  0  0  0  0  0  0
   18.1330   74.8640    6.1410 Br  0  0  0  0  0  0  0  0  0  0  0  0
   19.9070   75.6490    8.2640 C   0  0  0  0  0  3  0  0  0  0  0  0
   20.5520   76.5530    9.1220 C   0  0  0  0  0  3  0  0  0  0  0  0
  1  2  1  0  0  0  0
  2  3  2  0  0  0  0
  2  4  1  0  0  0  0
  4  5  1  6  0  0  0
  4  8  1  0  0  0  0
  6  1  1  0  0  0  0
  6  5  1  0  0  0  0
  7  6  2  0  0  0  0
  8 14  1  6  0  0  0
  8 13  1  0  0  0  0
  8  9  1  0  0  0  0
  9 10  1  0  0  0  0
 10 11  1  0  0  0  0
 11 15  1  0  0  0  0
 12 11  1  0  0  0  0
 13 12  1  0  0  0  0
 15 21  2  0  0  0  0
 15 16  1  0  0  0  0
 16 17  2  0  0  0  0
 17 18  1  0  0  0  0
 18 20  1  0  0  0  0
 19 18  2  0  0  0  0
 21 19  1  0  0  0  0
 22 28  1  0  0  0  0
 22  1  1  0  0  0  0
 23 22  2  0  0  0  0
 24 25  2  0  0  0  0
 24 23  1  0  0  0  0
 25 27  1  0  0  0  0
 26 25  1  0  0  0  0
 27 28  2  0  0  0  0
M  END
>  <Pose>
1

>  <Score>
-9.476

$$$$
