/Users/jonathanwahrer/Desktop/Msc/3_Semester/Drug_Design_Praktikum/waehrer_HTS_screening/HTS_experiment/out/docking_results/vina_output/6e43/0408_docked.pdbqt
 OpenBabel03212219543D

 31 34  0  0  0  0  0  0  0  0999 V2000
   21.4950   78.2570   14.8430 N   0  0  0  0  0  0  0  0  0  0  0  0
   21.7630   78.9870   15.9390 C   0  0  0  0  0  0  0  0  0  0  0  0
   22.4650   80.0450   15.9260 O   0  0  0  0  0  0  0  0  0  0  0  0
   21.1710   78.4270   17.0710 C   0  0  0  0  0  0  0  0  0  0  0  0
   20.5370   77.3420   16.6370 C   0  0  0  0  0  0  0  0  0  0  0  0
   19.9750   76.8190   17.7420 N   0  0  0  0  0  0  0  0  0  0  0  0
   20.2590   77.5620   18.7980 N   0  0  0  0  0  0  0  0  0  0  0  0
   21.0010   78.5640   18.3920 N   0  0  0  0  0  0  0  0  0  0  0  0
   20.7300   77.2290   15.2750 C   0  0  0  0  0  0  0  0  0  0  0  0
   20.2870   76.3350   14.5210 O   0  0  0  0  0  0  0  0  0  0  0  0
   19.4010   75.9390   17.6980 H   0  0  0  0  0  0  0  0  0  0  0  0
   19.9220   77.3380   19.7630 H   0  0  0  0  0  0  0  0  0  0  0  0
   21.5480   79.6280   19.1950 C   0  0  0  0  0  2  0  0  0  0  0  0
   20.4900   80.6000   19.6300 C   0  0  0  0  0  0  0  0  0  0  0  0
   19.3210   80.2650   19.3230 O   0  0  0  0  0  0  0  0  0  0  0  0
   20.7880   81.7780   20.3200 N   0  0  0  0  0  0  0  0  0  0  0  0
   21.8360   81.9260   20.5100 H   0  0  0  0  0  0  0  0  0  0  0  0
   19.8860   82.7480   20.7710 C   0  0  0  0  0  0  0  0  0  0  0  0
   19.9260   83.0770   22.1360 C   0  0  0  0  0  0  0  0  0  0  0  0
   19.0600   84.0240   22.6210 C   0  0  0  0  0  3  0  0  0  0  0  0
   20.8790   82.4270   23.0560 C   0  0  0  0  0  1  0  0  0  0  0  0
   18.1420   84.6760   21.8250 C   0  0  0  0  0  3  0  0  0  0  0  0
   18.0960   84.3620   20.5000 C   0  0  0  0  0  3  0  0  0  0  0  0
   18.9620   83.4110   20.0010 C   0  0  0  0  0  3  0  0  0  0  0  0
   21.9240   78.5090   13.5080 C   0  0  0  0  0  0  0  0  0  0  0  0
   23.2710   78.6350   13.2140 C   0  0  0  0  0  3  0  0  0  0  0  0
   23.7100   78.8800   11.9260 C   0  0  0  0  0  3  0  0  0  0  0  0
   22.8200   79.0090   10.8820 C   0  0  0  0  0  0  0  0  0  0  0  0
   23.4330   79.3490    9.0940 Br  0  0  0  0  0  0  0  0  0  0  0  0
   21.4780   78.8860   11.1620 C   0  0  0  0  0  3  0  0  0  0  0  0
   21.0500   78.6420   12.4470 C   0  0  0  0  0  3  0  0  0  0  0  0
  1  9  1  0  0  0  0
  1  2  1  0  0  0  0
  2  4  1  0  0  0  0
  3  2  2  0  0  0  0
  4  8  1  0  0  0  0
  5  4  2  0  0  0  0
  5  6  1  0  0  0  0
  6  7  1  0  0  0  0
  7 12  1  0  0  0  0
  8  7  1  0  0  0  0
  8 13  1  0  0  0  0
  9  5  1  0  0  0  0
 10  9  2  0  0  0  0
 11  6  1  0  0  0  0
 13 14  1  0  0  0  0
 14 16  1  0  0  0  0
 15 14  2  0  0  0  0
 16 17  1  0  0  0  0
 16 18  1  0  0  0  0
 18 19  1  0  0  0  0
 19 20  2  0  0  0  0
 19 21  1  0  0  0  0
 22 20  1  0  0  0  0
 23 22  2  0  0  0  0
 24 23  1  0  0  0  0
 24 18  2  0  0  0  0
 25  1  1  0  0  0  0
 26 25  1  0  0  0  0
 27 26  2  0  0  0  0
 28 30  2  0  0  0  0
 28 27  1  0  0  0  0
 29 28  1  0  0  0  0
 30 31  1  0  0  0  0
 31 25  2  0  0  0  0
M  END
>  <Pose>
1

>  <Score>
-10.251

$$$$
