/Users/jonathanwahrer/Desktop/Msc/3_Semester/Drug_Design_Praktikum/waehrer_HTS_screening/HTS_experiment/out/docking_results/vina_output/6e43/0412_docked.pdbqt
 OpenBabel03212219543D

 34 37  0  0  0  0  0  0  0  0999 V2000
   20.6240   79.9910   18.5870 N   0  0  0  0  0  0  0  0  0  0  0  0
   21.1040   80.1420   17.3500 C   0  0  0  0  0  0  0  0  0  0  0  0
   21.3310   81.2740   16.8040 O   0  0  0  0  0  0  0  0  0  0  0  0
   21.3320   78.9510   16.7010 C   0  0  0  0  0  0  0  0  0  0  0  0
   20.9710   78.0150   17.6000 C   0  0  0  0  0  0  0  0  0  0  0  0
   21.1880   76.8270   16.9850 N   0  0  0  0  0  0  0  0  0  0  0  0
   21.6620   77.0260   15.7680 N   0  0  0  0  0  0  0  0  0  0  0  0
   21.7530   78.3280   15.5890 N   0  0  0  0  0  0  0  0  0  0  0  0
   20.5380   78.6340   18.7500 C   0  0  0  0  0  0  0  0  0  0  0  0
   20.1210   78.1090   19.8100 O   0  0  0  0  0  0  0  0  0  0  0  0
   20.9960   75.9000   17.4330 H   0  0  0  0  0  0  0  0  0  0  0  0
   21.9010   76.2380   15.1080 H   0  0  0  0  0  0  0  0  0  0  0  0
   22.2300   78.9560   14.3910 C   0  0  0  0  0  2  0  0  0  0  0  0
   21.3960   78.7020   13.2190 C   0  0  0  0  0  0  0  0  0  0  0  0
   20.7230   77.6390   13.0790 O   0  0  0  0  0  0  0  0  0  0  0  0
   21.3510   79.6870   12.2070 N   0  0  0  0  0  0  0  0  0  0  0  0
   21.9150   80.5870   12.3000 H   0  0  0  0  0  0  0  0  0  0  0  0
   20.5470   79.4570   11.0620 C   0  0  0  0  0  0  0  0  0  0  0  0
   19.3180   80.0690   11.0430 C   0  0  0  0  0  3  0  0  0  0  0  0
   18.4510   79.8690    9.9620 C   0  0  0  0  0  0  0  0  0  0  0  0
   18.8310   79.0600    8.9240 C   0  0  0  0  0  3  0  0  0  0  0  0
   20.0750   78.4310    8.9290 C   0  0  0  0  0  0  0  0  0  0  0  0
   20.9100   78.6520   10.0130 C   0  0  0  0  0  3  0  0  0  0  0  0
   17.2500   80.5320   10.0470 O   0  0  0  0  0  0  0  0  0  0  0  0
   16.8320   81.2600   11.1430 C   0  0  0  0  0  1  0  0  0  0  0  0
   20.3870   77.6280    7.8530 O   0  0  0  0  0  0  0  0  0  0  0  0
   19.8260   76.3930    7.5340 C   0  0  0  0  0  1  0  0  0  0  0  0
   20.2690   80.9760   19.5620 C   0  0  0  0  0  0  0  0  0  0  0  0
   19.1040   81.6940   19.4460 C   0  0  0  0  0  3  0  0  0  0  0  0
   18.7620   82.6570   20.4080 C   0  0  0  0  0  3  0  0  0  0  0  0
   19.5790   82.9050   21.4840 C   0  0  0  0  0  0  0  0  0  0  0  0
   19.1100   84.2250   22.8090 Br  0  0  0  0  0  0  0  0  0  0  0  0
   20.7460   82.1850   21.5970 C   0  0  0  0  0  3  0  0  0  0  0  0
   21.0730   81.2440   20.6490 C   0  0  0  0  0  3  0  0  0  0  0  0
  1  9  1  0  0  0  0
  1 28  1  0  0  0  0
  2  1  1  0  0  0  0
  3  2  2  0  0  0  0
  4  2  1  0  0  0  0
  4  5  2  0  0  0  0
  5  9  1  0  0  0  0
  6 11  1  0  0  0  0
  6  5  1  0  0  0  0
  7  6  1  0  0  0  0
  8  7  1  0  0  0  0
  8  4  1  0  0  0  0
  9 10  2  0  0  0  0
 12  7  1  0  0  0  0
 13  8  1  0  0  0  0
 14 13  1  0  0  0  0
 15 14  2  0  0  0  0
 16 17  1  0  0  0  0
 16 14  1  0  0  0  0
 18 16  1  0  0  0  0
 19 18  1  0  0  0  0
 20 24  1  0  0  0  0
 20 19  2  0  0  0  0
 21 22  2  0  0  0  0
 21 20  1  0  0  0  0
 22 23  1  0  0  0  0
 23 18  2  0  0  0  0
 24 25  1  0  0  0  0
 26 22  1  0  0  0  0
 27 26  1  0  0  0  0
 28 34  1  0  0  0  0
 29 28  2  0  0  0  0
 29 30  1  0  0  0  0
 30 31  2  0  0  0  0
 31 33  1  0  0  0  0
 31 32  1  0  0  0  0
 34 33  2  0  0  0  0
M  END
>  <Pose>
1

>  <Score>
-9.171

$$$$
