/Users/jonathanwahrer/Desktop/Msc/3_Semester/Drug_Design_Praktikum/waehrer_HTS_screening/HTS_experiment/out/docking_results/vina_output/6e43/0414_docked.pdbqt
 OpenBabel03212219543D

 35 38  0  0  0  0  0  0  0  0999 V2000
   20.6400   78.6520   10.6750 N   0  0  0  0  0  0  0  0  0  0  0  0
   20.6480   78.1600   11.9400 C   0  0  0  0  0  0  0  0  0  0  0  0
   20.0180   77.1360   12.3500 O   0  0  0  0  0  0  0  0  0  0  0  0
   21.4570   78.9490   12.7390 C   0  0  0  0  0  0  0  0  0  0  0  0
   21.9250   79.9060   11.9400 C   0  0  0  0  0  0  0  0  0  0  0  0
   22.7220   80.6950   12.7000 N   0  0  0  0  0  0  0  0  0  0  0  0
   22.7170   80.1960   13.9330 N   0  0  0  0  0  0  0  0  0  0  0  0
   21.9500   79.1240   13.9950 N   0  0  0  0  0  0  0  0  0  0  0  0
   21.4300   79.7350   10.6690 C   0  0  0  0  0  0  0  0  0  0  0  0
   21.6600   80.4470    9.6670 O   0  0  0  0  0  0  0  0  0  0  0  0
   23.2390   81.5330   12.3660 H   0  0  0  0  0  0  0  0  0  0  0  0
   23.2420   80.5990   14.7280 H   0  0  0  0  0  0  0  0  0  0  0  0
   21.6540   78.2650   15.1350 C   0  0  0  0  0  2  0  0  0  0  0  0
   21.5300   79.1160   16.3750 C   0  0  0  0  0  0  0  0  0  0  0  0
   22.6070   79.1930   17.0160 O   0  0  0  0  0  0  0  0  0  0  0  0
   20.3100   79.7120   16.6900 N   0  0  0  0  0  0  0  0  0  0  0  0
   19.5120   79.5180   16.0050 H   0  0  0  0  0  0  0  0  0  0  0  0
   20.0200   80.5350   17.8060 C   0  0  0  0  0  0  0  0  0  0  0  0
   19.4120   80.1140   18.9650 C   0  0  0  0  0  3  0  0  0  0  0  0
   19.1590   80.9930   20.0270 C   0  0  0  0  0  3  0  0  0  0  0  0
   19.5100   82.3190   19.9570 C   0  0  0  0  0  0  0  0  0  0  0  0
   20.1190   82.7510   18.8040 C   0  0  0  0  0  3  0  0  0  0  0  0
   20.3670   81.8830   17.7580 C   0  0  0  0  0  3  0  0  0  0  0  0
   19.2270   83.1970   21.0880 C   0  0  0  0  0  0  0  0  0  0  0  0
   18.2400   83.9700   21.0050 O   0  0  0  0  0  0  0  0  0  0  0  0
   19.9660   83.2390   22.2370 O   0  0  0  0  0  0  0  0  0  0  0  0
   21.0750   82.4420   22.5380 C   0  0  0  0  0  2  0  0  0  0  0  0
   21.0680   82.2430   24.0610 C   0  0  0  0  0  1  0  0  0  0  0  0
   19.9010   78.0680    9.6050 C   0  0  0  0  0  0  0  0  0  0  0  0
   20.3210   76.8630    9.0610 C   0  0  0  0  0  3  0  0  0  0  0  0
   19.6410   76.2780    8.0400 C   0  0  0  0  0  3  0  0  0  0  0  0
   18.5080   76.8500    7.5000 C   0  0  0  0  0  0  0  0  0  0  0  0
   17.5270   76.0650    6.0730 Br  0  0  0  0  0  0  0  0  0  0  0  0
   18.1020   78.0450    8.0490 C   0  0  0  0  0  3  0  0  0  0  0  0
   18.7760   78.6470    9.0770 C   0  0  0  0  0  3  0  0  0  0  0  0
  1  2  1  0  0  0  0
  2  3  2  0  0  0  0
  2  4  1  0  0  0  0
  4  8  1  0  0  0  0
  5  6  1  0  0  0  0
  5  4  2  0  0  0  0
  6  7  1  0  0  0  0
  7  8  1  0  0  0  0
  7 12  1  0  0  0  0
  8 13  1  0  0  0  0
  9  1  1  0  0  0  0
  9  5  1  0  0  0  0
 10  9  2  0  0  0  0
 11  6  1  0  0  0  0
 13 14  1  0  0  0  0
 14 16  1  0  0  0  0
 14 15  2  0  0  0  0
 16 18  1  0  0  0  0
 17 16  1  0  0  0  0
 18 19  1  0  0  0  0
 19 20  2  0  0  0  0
 21 20  1  0  0  0  0
 21 24  1  0  0  0  0
 22 21  2  0  0  0  0
 23 18  2  0  0  0  0
 23 22  1  0  0  0  0
 24 26  1  0  0  0  0
 25 24  2  0  0  0  0
 26 27  1  0  0  0  0
 27 28  1  0  0  0  0
 29  1  1  0  0  0  0
 30 29  2  0  0  0  0
 31 30  1  0  0  0  0
 32 31  2  0  0  0  0
 32 34  1  0  0  0  0
 33 32  1  0  0  0  0
 34 35  2  0  0  0  0
 35 29  1  0  0  0  0
M  END
>  <Pose>
1

>  <Score>
-9.982

$$$$
