/Users/jonathanwahrer/Desktop/Msc/3_Semester/Drug_Design_Praktikum/waehrer_HTS_screening/HTS_experiment/out/docking_results/vina_output/6e43/0416_docked.pdbqt
 OpenBabel03212219553D

 33 36  0  0  0  0  0  0  0  0999 V2000
   20.6020   77.9800   10.5480 N   0  0  0  0  0  0  0  0  0  0  0  0
   20.4630   77.6040   11.8500 C   0  0  0  0  0  0  0  0  0  0  0  0
   19.5810   76.8090   12.2540 O   0  0  0  0  0  0  0  0  0  0  0  0
   21.4120   78.2110   12.6420 C   0  0  0  0  0  0  0  0  0  0  0  0
   22.1370   78.9630   11.8270 C   0  0  0  0  0  0  0  0  0  0  0  0
   23.0750   79.5720   12.5750 N   0  0  0  0  0  0  0  0  0  0  0  0
   22.9110   79.1860   13.8320 N   0  0  0  0  0  0  0  0  0  0  0  0
   21.8950   78.3470   13.9090 N   0  0  0  0  0  0  0  0  0  0  0  0
   21.6450   78.8230   10.5490 C   0  0  0  0  0  0  0  0  0  0  0  0
   22.0840   79.3900    9.4990 O   0  0  0  0  0  0  0  0  0  0  0  0
   23.8110   80.2280   12.2610 H   0  0  0  0  0  0  0  0  0  0  0  0
   23.5130   79.5080   14.6450 H   0  0  0  0  0  0  0  0  0  0  0  0
   21.3660   77.7000   15.0740 C   0  0  0  0  0  2  0  0  0  0  0  0
   21.3290   78.5930   16.2920 C   0  0  0  0  0  0  0  0  0  0  0  0
   22.4160   78.7310   16.8940 O   0  0  0  0  0  0  0  0  0  0  0  0
   20.1580   79.2220   16.7090 N   0  0  0  0  0  0  0  0  0  0  0  0
   19.2860   79.0150   16.1070 H   0  0  0  0  0  0  0  0  0  0  0  0
   19.9300   80.0840   17.7950 C   0  0  0  0  0  0  0  0  0  0  0  0
   19.2630   79.6200   18.9280 C   0  0  0  0  0  3  0  0  0  0  0  0
   19.0040   80.4300   20.0010 C   0  0  0  0  0  3  0  0  0  0  0  0
   19.4080   81.7660   19.9890 C   0  0  0  0  0  0  0  0  0  0  0  0
   20.0640   82.1920   18.8600 C   0  0  0  0  0  3  0  0  0  0  0  0
   20.3280   81.3820   17.7800 C   0  0  0  0  0  3  0  0  0  0  0  0
   19.1240   82.5450   21.0860 O   0  0  0  0  0  0  0  0  0  0  0  0
   20.0310   83.2700   21.8510 C   0  0  0  0  0  2  0  0  0  0  0  0
   21.0990   82.4470   22.4860 C   0  0  0  0  0  1  0  0  0  0  0  0
   19.8130   77.5750    9.4330 C   0  0  0  0  0  0  0  0  0  0  0  0
   18.8580   78.3750    8.8400 C   0  0  0  0  0  3  0  0  0  0  0  0
   18.1060   77.9420    7.7580 C   0  0  0  0  0  3  0  0  0  0  0  0
   18.2790   76.6850    7.2190 C   0  0  0  0  0  0  0  0  0  0  0  0
   17.2540   76.0660    5.7340 Br  0  0  0  0  0  0  0  0  0  0  0  0
   19.2430   75.8820    7.8170 C   0  0  0  0  0  3  0  0  0  0  0  0
   19.9900   76.3130    8.8940 C   0  0  0  0  0  3  0  0  0  0  0  0
  1  9  1  0  0  0  0
  1  2  1  0  0  0  0
  2  3  2  0  0  0  0
  2  4  1  0  0  0  0
  4  8  1  0  0  0  0
  5  6  1  0  0  0  0
  5  4  2  0  0  0  0
  6  7  1  0  0  0  0
  7  8  1  0  0  0  0
  7 12  1  0  0  0  0
  8 13  1  0  0  0  0
  9  5  1  0  0  0  0
 10  9  2  0  0  0  0
 11  6  1  0  0  0  0
 13 14  1  0  0  0  0
 14 16  1  0  0  0  0
 14 15  2  0  0  0  0
 16 18  1  0  0  0  0
 17 16  1  0  0  0  0
 18 19  1  0  0  0  0
 19 20  2  0  0  0  0
 21 20  1  0  0  0  0
 21 24  1  0  0  0  0
 22 21  2  0  0  0  0
 23 18  2  0  0  0  0
 23 22  1  0  0  0  0
 24 25  1  0  0  0  0
 25 26  1  0  0  0  0
 27  1  1  0  0  0  0
 28 27  2  0  0  0  0
 29 28  1  0  0  0  0
 30 29  2  0  0  0  0
 30 32  1  0  0  0  0
 31 30  1  0  0  0  0
 32 33  2  0  0  0  0
 33 27  1  0  0  0  0
M  END
>  <Pose>
1

>  <Score>
-9.624

$$$$
