/Users/jonathanwahrer/Desktop/Msc/3_Semester/Drug_Design_Praktikum/waehrer_HTS_screening/HTS_experiment/out/docking_results/vina_output/6e43/0429_docked.pdbqt
 OpenBabel03212219563D

 36 39  0  0  0  0  0  0  0  0999 V2000
   18.9630   76.2870    7.8110 N   0  0  0  0  0  0  0  0  0  0  0  0
   19.4490   75.0110    7.3900 C   0  0  0  0  0  0  0  0  0  0  0  0
   20.4910   74.5620    7.9650 O   0  0  0  0  0  0  0  0  0  0  0  0
   18.7700   74.3020    6.3690 N   0  0  0  0  0  0  0  0  0  0  0  0
   17.6020   74.7850    5.7120 C   0  0  0  0  0  0  0  0  0  0  0  0
   17.0180   74.1300    4.8040 O   0  0  0  0  0  0  0  0  0  0  0  0
   17.0730   76.0980    6.1210 C   0  0  0  0  0  0  0  0  0  0  0  0
   15.9910   76.6020    5.5470 C   0  0  0  0  0  3  0  0  0  0  0  0
   17.7940   76.8020    7.1750 C   0  0  0  0  0  0  0  0  0  0  0  0
   17.3800   77.9260    7.5580 O   0  0  0  0  0  0  0  0  0  0  0  0
   19.1580   73.3710    6.0900 H   0  0  0  0  0  0  0  0  0  0  0  0
   15.5050   77.8700    5.9640 N   0  0  0  0  0  0  0  0  0  0  0  0
   16.0440   78.7030    5.6000 H   0  0  0  0  0  0  0  0  0  0  0  0
   14.4110   78.0780    6.7870 N   0  0  0  0  0  0  0  0  0  0  0  0
   14.2020   77.2840    7.4600 H   0  0  0  0  0  0  0  0  0  0  0  0
   13.5960   79.2440    6.7700 C   0  0  0  0  0  0  0  0  0  0  0  0
   13.9100   80.4110    7.3410 N   0  0  0  0  0  0  0  0  0  0  0  0
   12.9210   81.2950    7.1310 C   0  0  0  0  0  0  0  0  0  0  0  0
   15.1130   80.7780    8.0980 C   0  0  0  0  0  1  0  0  0  0  0  0
   11.9410   80.6460    6.3920 C   0  0  0  0  0  0  0  0  0  0  0  0
   12.6830   82.6010    7.4630 C   0  0  0  0  0  0  0  0  0  0  0  0
   12.4010   79.4100    6.2020 N   0  0  0  0  0  0  0  0  0  0  0  0
   10.8090   81.2690    6.0170 N   0  0  0  0  0  0  0  0  0  0  0  0
   10.6300   82.5430    6.3680 C   0  0  0  0  0  0  0  0  0  0  0  0
    9.8430   80.5340    5.2570 C   0  0  0  0  0  1  0  0  0  0  0  0
    9.5770   83.1680    6.0350 O   0  0  0  0  0  0  0  0  0  0  0  0
   11.5480   83.2380    7.0910 N   0  0  0  0  0  0  0  0  0  0  0  0
   11.3080   84.6150    7.4430 C   0  0  0  0  0  1  0  0  0  0  0  0
   13.5280   83.2360    8.1270 O   0  0  0  0  0  0  0  0  0  0  0  0
   19.6360   76.9860    8.8190 C   0  0  0  0  0  0  0  0  0  0  0  0
   20.6340   77.8810    8.4880 C   0  0  0  0  0  3  0  0  0  0  0  0
   21.3240   78.5950    9.4490 C   0  0  0  0  0  3  0  0  0  0  0  0
   21.0280   78.4300   10.7910 C   0  0  0  0  0  0  0  0  0  0  0  0
   21.9780   79.4130   12.1320 Br  0  0  0  0  0  0  0  0  0  0  0  0
   20.0290   77.5310   11.0980 C   0  0  0  0  0  3  0  0  0  0  0  0
   19.3300   76.8100   10.1520 C   0  0  0  0  0  3  0  0  0  0  0  0
  1 30  1  0  0  0  0
  2  1  1  0  0  0  0
  2  3  2  0  0  0  0
  4  2  1  0  0  0  0
  5  7  1  0  0  0  0
  5  4  1  0  0  0  0
  6  5  2  0  0  0  0
  7  9  1  0  0  0  0
  8 12  1  0  0  0  0
  8  7  2  0  0  0  0
  9 10  2  0  0  0  0
  9  1  1  0  0  0  0
 11  4  1  0  0  0  0
 12 14  1  0  0  0  0
 13 12  1  0  0  0  0
 14 15  1  0  0  0  0
 16 14  1  0  0  0  0
 16 17  1  0  0  0  0
 17 19  1  0  0  0  0
 18 17  1  0  0  0  0
 18 21  1  0  0  0  0
 20 18  2  0  0  0  0
 21 29  2  0  0  0  0
 22 20  1  0  0  0  0
 22 16  2  0  0  0  0
 23 24  1  0  0  0  0
 23 20  1  0  0  0  0
 24 27  1  0  0  0  0
 25 23  1  0  0  0  0
 26 24  2  0  0  0  0
 27 28  1  0  0  0  0
 27 21  1  0  0  0  0
 30 36  1  0  0  0  0
 31 30  2  0  0  0  0
 31 32  1  0  0  0  0
 32 33  2  0  0  0  0
 33 35  1  0  0  0  0
 33 34  1  0  0  0  0
 36 35  2  0  0  0  0
M  END
>  <Pose>
1

>  <Score>
-9.685

$$$$
