/Users/jonathanwahrer/Desktop/Msc/3_Semester/Drug_Design_Praktikum/waehrer_HTS_screening/HTS_experiment/out/docking_results/vina_output/6e43/0436_docked.pdbqt
 OpenBabel03212219563D

 29 32  0  0  0  0  0  0  0  0999 V2000
   20.4670   78.4690    9.9850 N   0  0  0  0  0  0  0  0  0  0  0  0
   20.7640   79.7980    9.4890 C   0  0  0  0  0  2  0  0  0  0  0  0
   21.3570   80.7030   10.5440 C   0  0  0  0  0  2  0  0  0  0  0  0
   22.4190   79.8790   11.2890 C   0  0  0  0  0  2  0  0  0  0  0  0
   21.6730   78.9110   12.0490 N   0  0  0  0  0  0  0  0  0  0  0  0
   20.7060   78.2250   11.3660 C   0  0  0  0  0  0  0  0  0  0  0  0
   20.1110   77.3720   12.2150 N   0  0  0  0  0  0  0  0  0  0  0  0
   20.7170   77.5370   13.4180 C   0  0  0  0  0  0  0  0  0  0  0  0
   21.7050   78.5050   13.3220 C   0  0  0  0  0  0  0  0  0  0  0  0
   22.4630   78.8500   14.4230 C   0  0  0  0  0  0  0  0  0  0  0  0
   23.3630   79.7470   14.2920 O   0  0  0  0  0  0  0  0  0  0  0  0
   22.2370   78.2360   15.5970 N   0  0  0  0  0  0  0  0  0  0  0  0
   21.2740   77.3000   15.6630 C   0  0  0  0  0  0  0  0  0  0  0  0
   21.0960   76.7490   16.7830 O   0  0  0  0  0  0  0  0  0  0  0  0
   20.5300   76.9510   14.6140 N   0  0  0  0  0  0  0  0  0  0  0  0
   19.4950   75.9340   14.7210 C   0  0  0  0  0  1  0  0  0  0  0  0
   19.9620   77.4970    9.0930 C   0  0  0  0  0  0  0  0  0  0  0  0
   20.3460   76.1750    9.0950 C   0  0  0  0  0  3  0  0  0  0  0  0
   19.7890   75.2880    8.1730 C   0  0  0  0  0  3  0  0  0  0  0  0
   18.8530   75.7090    7.2510 C   0  0  0  0  0  0  0  0  0  0  0  0
   18.0810   74.5370    5.9920 Br  0  0  0  0  0  0  0  0  0  0  0  0
   18.4640   77.0330    7.2440 C   0  0  0  0  0  3  0  0  0  0  0  0
   19.0270   77.8810    8.1600 C   0  0  0  0  0  3  0  0  0  0  0  0
   23.0310   78.5910   16.7610 C   0  0  0  0  0  2  0  0  0  0  0  0
   24.4040   78.0090   16.5980 C   0  0  0  0  0  0  0  0  0  0  0  0
   24.5730   76.7680   16.5890 O   0  0  0  0  0  0  0  0  0  0  0  0
   25.5400   78.8370   16.4510 N   0  0  0  0  0  0  0  0  0  0  0  0
   26.3430   78.5880   15.8290 H   0  0  0  0  0  0  0  0  0  0  0  0
   25.6240   79.7470   16.9670 H   0  0  0  0  0  0  0  0  0  0  0  0
  1  6  1  0  0  0  0
  2  1  1  0  0  0  0
  2  3  1  0  0  0  0
  3  4  1  0  0  0  0
  4  5  1  0  0  0  0
  5  9  1  0  0  0  0
  6  5  1  0  0  0  0
  6  7  2  0  0  0  0
  7  8  1  0  0  0  0
  8 15  1  0  0  0  0
  9  8  2  0  0  0  0
  9 10  1  0  0  0  0
 10 12  1  0  0  0  0
 11 10  2  0  0  0  0
 12 13  1  0  0  0  0
 12 24  1  0  0  0  0
 13 14  2  0  0  0  0
 15 16  1  0  0  0  0
 15 13  1  0  0  0  0
 17 18  1  0  0  0  0
 17  1  1  0  0  0  0
 19 18  2  0  0  0  0
 20 19  1  0  0  0  0
 21 20  1  0  0  0  0
 22 20  2  0  0  0  0
 22 23  1  0  0  0  0
 23 17  2  0  0  0  0
 25 24  1  0  0  0  0
 26 25  2  0  0  0  0
 27 25  1  0  0  0  0
 27 29  1  0  0  0  0
 28 27  1  0  0  0  0
M  END
>  <Pose>
1

>  <Score>
-9.527

$$$$
