/Users/jonathanwahrer/Desktop/Msc/3_Semester/Drug_Design_Praktikum/waehrer_HTS_screening/HTS_experiment/out/docking_results/vina_output/6e43/0454_docked.pdbqt
 OpenBabel03212219573D

 21 25  0  0  1  0  0  0  0  0999 V2000
   20.7270   79.8460   16.7760 C   0  0  0  0  0  2  0  0  0  0  0  0
   20.3510   80.6050   17.9690 C   0  0  0  0  0  0  0  0  0  0  0  0
   19.8130   79.8880   19.0510 C   0  0  0  0  0  0  0  0  0  0  0  0
   19.7080   77.9790   19.0980 Br  0  0  0  0  0  0  0  0  0  0  0  0
   19.3330   80.6390   20.1090 C   0  0  0  0  0  3  0  0  0  0  0  0
   19.3960   82.0180   20.0880 C   0  0  0  0  0  0  0  0  0  0  0  0
   19.9150   82.7490   19.0460 C   0  0  0  0  0  0  0  0  0  0  0  0
   18.9510   82.9430   21.0810 O   0  0  0  0  0  0  0  0  0  0  0  0
   20.3860   82.0010   18.0020 C   0  0  0  0  0  3  0  0  0  0  0  0
   19.7710   84.0740   19.4270 O   0  0  0  0  0  0  0  0  0  0  0  0
   18.6320   84.1510   20.3290 C   0  0  0  0  0  2  0  0  0  0  0  0
   22.0040   79.2740   16.6720 N   0  0  2  0  0  4  0  0  0  0  0  0
   22.6660   80.2360   15.7200 C   0  0  0  0  0  2  0  0  0  0  0  0
   23.8740   79.7820   15.1730 N   0  0  2  0  0  0  0  0  0  0  0  0
   23.6030   78.5150   14.5170 C   0  0  0  0  0  2  0  0  0  0  0  0
   24.8080   79.6570   16.2980 C   0  0  0  0  0  2  0  0  0  0  0  0
   23.2130   77.5780   15.5420 N   0  0  2  0  0  0  0  0  0  0  0  0
   21.9500   77.9250   16.1100 C   0  0  0  0  0  2  0  0  0  0  0  0
   24.1900   77.4560   16.6300 C   0  0  0  0  0  2  0  0  0  0  0  0
   24.2630   78.7530   17.2820 N   0  0  2  0  0  0  0  0  0  0  0  0
   22.9340   79.1960   17.7540 C   0  0  0  0  0  2  0  0  0  0  0  0
  1  2  1  0  0  0  0
  2  9  2  0  0  0  0
  2  3  1  0  0  0  0
  3  4  1  0  0  0  0
  3  5  2  0  0  0  0
  6  5  1  0  0  0  0
  6  8  1  0  0  0  0
  7 10  1  0  0  0  0
  7  6  2  0  0  0  0
  9  7  1  0  0  0  0
 10 11  1  0  0  0  0
 11  8  1  0  0  0  0
 12  1  1  1  0  0  0
 12 21  1  0  0  0  0
 13 12  1  0  0  0  0
 14 15  1  1  0  0  0
 14 13  1  0  0  0  0
 14 16  1  0  0  0  0
 17 15  1  6  0  0  0
 17 18  1  0  0  0  0
 17 19  1  0  0  0  0
 18 12  1  0  0  0  0
 19 20  1  0  0  0  0
 20 16  1  6  0  0  0
 20 21  1  0  0  0  0
M  END
>  <Pose>
1

>  <Score>
-8.433

$$$$
