/Users/jonathanwahrer/Desktop/Msc/3_Semester/Drug_Design_Praktikum/waehrer_HTS_screening/HTS_experiment/out/docking_results/vina_output/6e43/0455_docked.pdbqt
 OpenBabel03212219573D

 26 29  0  0  0  0  0  0  0  0999 V2000
   21.2170   77.6320   16.6640 N   0  0  0  0  0  0  0  0  0  0  0  0
   20.0900   76.7690   16.2230 C   0  0  0  0  0  2  0  0  0  0  0  0
   18.9190   77.2760   17.0590 C   0  0  0  0  0  2  0  0  0  0  0  0
   19.2970   78.1470   18.1110 N   0  0  0  0  0  0  0  0  0  0  0  0
   20.3860   77.6360   18.9020 C   0  0  0  0  0  2  0  0  0  0  0  0
   21.4830   77.1280   18.0130 C   0  0  0  0  0  2  0  0  0  0  0  0
   22.3600   77.4060   15.8000 C   0  0  0  0  0  2  0  0  0  0  0  0
   22.3220   78.3280   14.6380 C   0  0  0  0  0  0  0  0  0  0  0  0
   23.1210   79.4690   14.5960 C   0  0  0  0  0  0  0  0  0  0  0  0
   24.2390   79.8060   16.1080 Br  0  0  0  0  0  0  0  0  0  0  0  0
   23.1220   80.3290   13.5230 C   0  0  0  0  0  3  0  0  0  0  0  0
   22.3250   80.1000   12.4290 C   0  0  0  0  0  0  0  0  0  0  0  0
   21.5290   78.9900   12.4380 C   0  0  0  0  0  0  0  0  0  0  0  0
   22.2980   80.9440   11.3260 O   0  0  0  0  0  0  0  0  0  0  0  0
   21.5300   78.1200   13.5270 C   0  0  0  0  0  3  0  0  0  0  0  0
   20.7170   78.7410   11.3430 O   0  0  0  0  0  0  0  0  0  0  0  0
   20.4580   79.6850   10.3360 C   0  0  0  0  0  2  0  0  0  0  0  0
   21.6160   80.6110   10.1440 C   0  0  0  0  0  2  0  0  0  0  0  0
   19.3210   79.5360   17.8490 C   0  0  0  0  0  2  0  0  0  0  0  0
   19.0960   80.4110   18.9850 C   0  0  0  0  0  0  0  0  0  0  0  0
   18.4030   80.0420   19.9570 O   0  0  0  0  0  0  0  0  0  0  0  0
   19.6570   81.7080   19.0260 N   0  0  0  0  0  0  0  0  0  0  0  0
   20.2590   82.0930   18.2420 H   0  0  0  0  0  0  0  0  0  0  0  0
   19.4530   82.6150   20.1490 C   0  0  0  0  0  3  0  0  0  0  0  0
   20.2480   83.8470   20.2710 C   0  0  0  0  0  2  0  0  0  0  0  0
   20.6150   82.6790   21.1370 C   0  0  0  0  0  2  0  0  0  0  0  0
  1  6  1  0  0  0  0
  2  1  1  0  0  0  0
  2  3  1  0  0  0  0
  3  4  1  0  0  0  0
  4  5  1  0  0  0  0
  6  5  1  0  0  0  0
  7  1  1  0  0  0  0
  8  7  1  0  0  0  0
  9  8  1  0  0  0  0
  9 10  1  0  0  0  0
 11  9  2  0  0  0  0
 12 13  2  0  0  0  0
 12 11  1  0  0  0  0
 13 15  1  0  0  0  0
 14 12  1  0  0  0  0
 15  8  2  0  0  0  0
 16 13  1  0  0  0  0
 17 16  1  0  0  0  0
 18 17  1  0  0  0  0
 18 14  1  0  0  0  0
 19  4  1  0  0  0  0
 19 20  1  0  0  0  0
 20 22  1  0  0  0  0
 20 21  2  0  0  0  0
 22 24  1  0  0  0  0
 23 22  1  0  0  0  0
 24 25  1  0  0  0  0
 24 26  1  0  0  0  0
 25 26  1  0  0  0  0
M  END
>  <Pose>
1

>  <Score>
-9.169

$$$$
