/Users/jonathanwahrer/Desktop/Msc/3_Semester/Drug_Design_Praktikum/waehrer_HTS_screening/HTS_experiment/out/docking_results/vina_output/6e43/0459_docked.pdbqt
 OpenBabel03212219573D

 29 32  0  0  0  0  0  0  0  0999 V2000
   21.5900   78.6690   11.7200 C   0  0  0  0  0  0  0  0  0  0  0  0
   20.4350   77.8840   11.8490 C   0  0  0  0  0  3  0  0  0  0  0  0
   19.7950   77.3140   10.7730 C   0  0  0  0  0  3  0  0  0  0  0  0
   20.2760   77.4980    9.4950 C   0  0  0  0  0  0  0  0  0  0  0  0
   21.4100   78.2690    9.3490 C   0  0  0  0  0  3  0  0  0  0  0  0
   22.0620   78.8480   10.4390 C   0  0  0  0  0  3  0  0  0  0  0  0
   22.1910   79.2220   12.8370 O   0  0  0  0  0  0  0  0  0  0  0  0
   23.1460   78.5650   13.6150 C   0  0  0  0  0  2  0  0  0  0  0  0
   22.6930   78.2380   14.9780 C   0  0  0  0  0  0  0  0  0  0  0  0
   23.6040   78.2270   16.0430 C   0  0  0  0  0  0  0  0  0  0  0  0
   25.4370   78.5970   15.6290 Br  0  0  0  0  0  0  0  0  0  0  0  0
   23.1960   77.9610   17.3270 C   0  0  0  0  0  3  0  0  0  0  0  0
   21.8710   77.6960   17.6070 C   0  0  0  0  0  0  0  0  0  0  0  0
   20.9540   77.7010   16.5770 C   0  0  0  0  0  0  0  0  0  0  0  0
   21.1690   77.3980   18.7770 O   0  0  0  0  0  0  0  0  0  0  0  0
   21.3760   77.9730   15.2770 C   0  0  0  0  0  3  0  0  0  0  0  0
   19.7240   77.4090   17.1330 O   0  0  0  0  0  0  0  0  0  0  0  0
   19.7820   77.5130   18.5450 C   0  0  0  0  0  2  0  0  0  0  0  0
   19.6060   76.8980    8.3390 C   0  0  0  0  0  0  0  0  0  0  0  0
   19.5170   75.6020    7.9980 N   0  0  0  0  0  0  0  0  0  0  0  0
   18.8120   75.5050    6.8660 N   0  0  0  0  0  0  0  0  0  0  0  0
   18.4550   76.7240    6.4900 N   0  0  0  0  0  0  0  0  0  0  0  0
   18.9390   77.5670    7.3860 N   0  0  0  0  0  0  0  0  0  0  0  0
   18.4630   74.3090    6.1280 C   0  0  0  0  0  2  0  0  0  0  0  0
   17.1800   74.5030    5.4170 C   0  0  0  0  0  0  0  0  0  0  0  0
   17.1840   74.7410    4.1980 O   0  0  0  0  0  0  0  0  0  0  0  0
   15.9700   74.4140    6.1380 N   0  0  0  0  0  0  0  0  0  0  0  0
   15.8950   74.6740    7.1610 H   0  0  0  0  0  0  0  0  0  0  0  0
   15.1040   74.0820    5.6630 H   0  0  0  0  0  0  0  0  0  0  0  0
  1  2  1  0  0  0  0
  1  7  1  0  0  0  0
  3  2  2  0  0  0  0
  4  3  1  0  0  0  0
  5  4  2  0  0  0  0
  5  6  1  0  0  0  0
  6  1  2  0  0  0  0
  7  8  1  0  0  0  0
  8  9  1  0  0  0  0
  9 16  2  0  0  0  0
  9 10  1  0  0  0  0
 10 12  2  0  0  0  0
 11 10  1  0  0  0  0
 12 13  1  0  0  0  0
 13 15  1  0  0  0  0
 14 17  1  0  0  0  0
 14 13  2  0  0  0  0
 16 14  1  0  0  0  0
 17 18  1  0  0  0  0
 18 15  1  0  0  0  0
 19  4  1  0  0  0  0
 20 19  2  0  0  0  0
 21 20  1  0  0  0  0
 22 21  1  0  0  0  0
 22 23  2  0  0  0  0
 23 19  1  0  0  0  0
 24 21  1  0  0  0  0
 25 24  1  0  0  0  0
 25 27  1  0  0  0  0
 26 25  2  0  0  0  0
 27 28  1  0  0  0  0
 29 27  1  0  0  0  0
M  END
>  <Pose>
1

>  <Score>
-9.923

$$$$
