/Users/jonathanwahrer/Desktop/Msc/3_Semester/Drug_Design_Praktikum/waehrer_HTS_screening/HTS_experiment/out/docking_results/vina_output/6e43/0469_docked.pdbqt
 OpenBabel03212219573D

 32 36  0  0  0  0  0  0  0  0999 V2000
   21.8930   78.6260   11.1020 N   0  0  0  0  0  0  0  0  0  0  0  0
   22.1620   79.4000    9.9850 C   0  0  0  0  0  2  0  0  0  0  0  0
   21.0610   79.9830    9.1860 C   0  0  0  0  0  2  0  0  0  0  0  0
   19.8480   79.2760    9.4810 N   0  0  0  0  0  0  0  0  0  0  0  0
   19.5160   79.2360   10.8830 C   0  0  0  0  0  2  0  0  0  0  0  0
   20.5750   78.3960   11.5500 C   0  0  0  0  0  2  0  0  0  0  0  0
   22.8830   78.6600   12.1530 C   0  0  0  0  0  2  0  0  0  0  0  0
   22.2640   79.0100   13.4880 C   0  0  0  0  0  0  0  0  0  0  0  0
   21.7960   77.9470   14.2870 N   0  0  0  0  0  0  0  0  0  0  0  0
   21.9100   76.9580   13.9010 H   0  0  0  0  0  0  0  0  0  0  0  0
   22.2130   80.2160   13.7810 O   0  0  0  0  0  0  0  0  0  0  0  0
   21.1890   78.0840   15.5590 C   0  0  0  0  0  0  0  0  0  0  0  0
   20.1930   77.1620   15.9130 C   0  0  0  0  0  0  0  0  0  0  0  0
   19.7310   75.8030   14.6710 Br  0  0  0  0  0  0  0  0  0  0  0  0
   19.5780   77.2620   17.1380 C   0  0  0  0  0  3  0  0  0  0  0  0
   19.9010   78.2310   18.0360 C   0  0  0  0  0  0  0  0  0  0  0  0
   20.8770   79.1500   17.7170 C   0  0  0  0  0  0  0  0  0  0  0  0
   19.3070   78.3690   19.2820 O   0  0  0  0  0  0  0  0  0  0  0  0
   21.5160   79.0690   16.4750 C   0  0  0  0  0  3  0  0  0  0  0  0
   21.1870   80.1180   18.6380 O   0  0  0  0  0  0  0  0  0  0  0  0
   20.3100   80.5630   19.6440 C   0  0  0  0  0  2  0  0  0  0  0  0
   19.1100   79.6860   19.8130 C   0  0  0  0  0  2  0  0  0  0  0  0
   18.9990   78.6490    8.5540 C   0  0  0  0  0  0  0  0  0  0  0  0
   17.9190   79.2490    7.9920 N   0  0  0  0  0  0  0  0  0  0  0  0
   17.1250   78.6220    7.1050 C   0  0  0  0  0  3  0  0  0  0  0  0
   17.3680   77.3530    6.7310 N   0  0  0  0  0  0  0  0  0  0  0  0
   18.4200   76.6790    7.2380 C   0  0  0  0  0  0  0  0  0  0  0  0
   18.8960   75.4220    7.0480 N   0  0  0  0  0  0  0  0  0  0  0  0
   19.2210   77.3310    8.1410 C   0  0  0  0  0  0  0  0  0  0  0  0
   19.9640   75.3120    7.8180 N   0  0  0  0  0  0  0  0  0  0  0  0
   18.3180   74.4130    6.1590 C   0  0  0  0  0  1  0  0  0  0  0  0
   20.2030   76.4350    8.4990 C   0  0  0  0  0  3  0  0  0  0  0  0
  1  6  1  0  0  0  0
  1  7  1  0  0  0  0
  2  1  1  0  0  0  0
  3  4  1  0  0  0  0
  3  2  1  0  0  0  0
  4  5  1  0  0  0  0
  5  6  1  0  0  0  0
  7  8  1  0  0  0  0
  8 11  2  0  0  0  0
  8  9  1  0  0  0  0
  9 12  1  0  0  0  0
 10  9  1  0  0  0  0
 12 13  2  0  0  0  0
 12 19  1  0  0  0  0
 13 15  1  0  0  0  0
 14 13  1  0  0  0  0
 15 16  2  0  0  0  0
 16 18  1  0  0  0  0
 17 16  1  0  0  0  0
 17 20  1  0  0  0  0
 18 22  1  0  0  0  0
 19 17  2  0  0  0  0
 20 21  1  0  0  0  0
 21 22  1  0  0  0  0
 23  4  1  0  0  0  0
 24 23  2  0  0  0  0
 25 24  1  0  0  0  0
 26 25  2  0  0  0  0
 26 27  1  0  0  0  0
 27 29  2  0  0  0  0
 28 27  1  0  0  0  0
 28 30  1  0  0  0  0
 29 32  1  0  0  0  0
 29 23  1  0  0  0  0
 30 32  2  0  0  0  0
 31 28  1  0  0  0  0
M  END
>  <Pose>
1

>  <Score>
-9.668

$$$$
