/Users/jonathanwahrer/Desktop/Msc/3_Semester/Drug_Design_Praktikum/waehrer_HTS_screening/HTS_experiment/out/docking_results/vina_output/6e43/0471_docked.pdbqt
 OpenBabel03212219583D

 27 30  0  0  0  0  0  0  0  0999 V2000
   21.4060   77.9520   17.7350 C   0  0  0  0  0  0  0  0  0  0  0  0
   21.8580   77.0410   18.4870 O   0  0  0  0  0  0  0  0  0  0  0  0
   20.2720   78.6830   18.1420 N   0  0  0  0  0  0  0  0  0  0  0  0
   19.6580   78.3700   19.4070 C   0  0  0  0  0  2  0  0  0  0  0  0
   19.5300   79.5760   20.3130 C   0  0  0  0  0  2  0  0  0  0  0  0
   19.3690   80.7280   19.5070 N   0  0  0  0  0  0  0  0  0  0  0  0
   18.6710   80.4690   18.3100 C   0  0  0  0  0  2  0  0  0  0  0  0
   19.6600   79.7440   17.3780 C   0  0  0  0  0  2  0  0  0  0  0  0
   22.0970   78.1990   16.4640 C   0  0  0  0  0  0  0  0  0  0  0  0
   23.4500   78.4480   16.4540 C   0  0  0  0  0  3  0  0  0  0  0  0
   24.1400   78.6850   15.2850 C   0  0  0  0  0  0  0  0  0  0  0  0
   23.4500   78.6730   14.0860 C   0  0  0  0  0  0  0  0  0  0  0  0
   25.3950   78.9130   15.2860 O   0  0  0  0  0  0  0  0  0  0  0  0
   22.0940   78.4200   14.1610 C   0  0  0  0  0  0  0  0  0  0  0  0
   24.1120   78.9070   12.9060 C   0  0  0  0  0  3  0  0  0  0  0  0
   21.4070   78.4090   12.9560 C   0  0  0  0  0  3  0  0  0  0  0  0
   21.4900   78.2000   15.3030 O   0  0  0  0  0  0  0  0  0  0  0  0
   22.0490   78.6410   11.7510 C   0  0  0  0  0  0  0  0  0  0  0  0
   21.0670   78.6190   10.1160 Br  0  0  0  0  0  0  0  0  0  0  0  0
   23.4080   78.8910   11.7260 C   0  0  0  0  0  3  0  0  0  0  0  0
   20.4430   81.6370   19.4580 C   0  0  0  0  0  2  0  0  0  0  0  0
   20.0900   83.0200   19.1520 C   0  0  0  0  0  0  0  0  0  0  0  0
   20.4120   83.6760   18.0250 N   0  0  0  0  0  0  0  0  0  0  0  0
   19.9300   84.8630   18.1230 O   0  0  0  0  0  0  0  0  0  0  0  0
   19.3010   85.0310   19.2600 N   0  0  0  0  0  0  0  0  0  0  0  0
   19.3800   83.8730   19.9520 C   0  0  0  0  0  0  0  0  0  0  0  0
   18.8080   83.5940   21.3030 C   0  0  0  0  0  1  0  0  0  0  0  0
  1  3  1  0  0  0  0
  1  2  2  0  0  0  0
  3  4  1  0  0  0  0
  4  5  1  0  0  0  0
  6  5  1  0  0  0  0
  7  6  1  0  0  0  0
  8  3  1  0  0  0  0
  8  7  1  0  0  0  0
  9  1  1  0  0  0  0
 10  9  2  0  0  0  0
 11 13  2  0  0  0  0
 11 10  1  0  0  0  0
 12 14  1  0  0  0  0
 12 11  1  0  0  0  0
 14 17  1  0  0  0  0
 15 12  2  0  0  0  0
 16 14  2  0  0  0  0
 17  9  1  0  0  0  0
 18 16  1  0  0  0  0
 19 18  1  0  0  0  0
 20 18  2  0  0  0  0
 20 15  1  0  0  0  0
 21  6  1  0  0  0  0
 22 21  1  0  0  0  0
 22 26  1  0  0  0  0
 23 24  1  0  0  0  0
 23 22  2  0  0  0  0
 24 25  1  0  0  0  0
 25 26  2  0  0  0  0
 26 27  1  0  0  0  0
M  END
>  <Pose>
1

>  <Score>
-10.014

$$$$
