/Users/jonathanwahrer/Desktop/Msc/3_Semester/Drug_Design_Praktikum/waehrer_HTS_screening/HTS_experiment/out/docking_results/vina_output/6e43/0473_docked.pdbqt
 OpenBabel03212219583D

 29 32  0  0  0  0  0  0  0  0999 V2000
   22.7880   78.5200   17.7520 C   0  0  0  0  0  2  0  0  0  0  0  0
   21.4670   77.8430   17.9840 C   0  0  0  0  0  2  0  0  0  0  0  0
   20.3650   78.7140   17.5080 C   0  0  0  0  0  2  0  0  0  0  0  0
   20.1450   79.8780   18.3380 N   0  0  0  0  0  0  0  0  0  0  0  0
   20.5010   81.1930   17.9390 C   0  0  0  0  0  0  0  0  0  0  0  0
   20.1400   82.1060   19.0100 C   0  0  0  0  0  0  0  0  0  0  0  0
   21.0420   81.5610   16.8480 O   0  0  0  0  0  0  0  0  0  0  0  0
   19.5830   81.3470   20.0210 C   0  0  0  0  0  0  0  0  0  0  0  0
   20.2620   83.4740   19.1450 C   0  0  0  0  0  3  0  0  0  0  0  0
   19.1580   82.0070   21.1590 C   0  0  0  0  0  3  0  0  0  0  0  0
   19.5740   79.9310   19.6220 C   0  0  0  0  0  0  0  0  0  0  0  0
   19.2850   83.3750   21.2830 C   0  0  0  0  0  0  0  0  0  0  0  0
   18.6760   84.2190   22.8830 Br  0  0  0  0  0  0  0  0  0  0  0  0
   19.8400   84.1390   20.2780 C   0  0  0  0  0  3  0  0  0  0  0  0
   19.1320   78.9760   20.3180 O   0  0  0  0  0  0  0  0  0  0  0  0
   23.5590   77.9790   16.6090 C   0  0  0  0  0  0  0  0  0  0  0  0
   23.9190   76.7770   16.5170 O   0  0  0  0  0  0  0  0  0  0  0  0
   23.9420   78.8360   15.5150 N   0  0  0  0  0  0  0  0  0  0  0  0
   24.6920   78.3180   14.3940 C   0  0  0  0  0  2  0  0  0  0  0  0
   23.5980   80.2450   15.4830 C   0  0  0  0  0  2  0  0  0  0  0  0
   24.1900   78.7910   13.0710 C   0  0  0  0  0  2  0  0  0  0  0  0
   23.0580   79.6840   13.1490 N   0  0  0  0  0  0  0  0  0  0  0  0
   22.7890   80.5680   14.2510 C   0  0  0  0  0  2  0  0  0  0  0  0
   22.1410   79.6920   12.0510 C   0  0  0  0  0  0  0  0  0  0  0  0
   22.2000   80.6420   11.0780 N   0  0  0  0  0  0  0  0  0  0  0  0
   21.3660   80.6840   10.0410 C   0  0  0  0  0  3  0  0  0  0  0  0
   20.3800   79.7140    9.9360 C   0  0  0  0  0  3  0  0  0  0  0  0
   20.2930   78.7540   10.8870 N   0  0  0  0  0  0  0  0  0  0  0  0
   21.1520   78.7440   11.9180 C   0  0  0  0  0  3  0  0  0  0  0  0
  1  2  1  0  0  0  0
  3  2  1  0  0  0  0
  3  4  1  0  0  0  0
  4 11  1  0  0  0  0
  5  4  1  0  0  0  0
  5  6  1  0  0  0  0
  6  9  2  0  0  0  0
  6  8  1  0  0  0  0
  7  5  2  0  0  0  0
  8 10  2  0  0  0  0
  9 14  1  0  0  0  0
 10 12  1  0  0  0  0
 11  8  1  0  0  0  0
 11 15  2  0  0  0  0
 12 13  1  0  0  0  0
 14 12  2  0  0  0  0
 16  1  1  0  0  0  0
 17 16  2  0  0  0  0
 18 16  1  0  0  0  0
 19 18  1  0  0  0  0
 20 18  1  0  0  0  0
 21 22  1  0  0  0  0
 21 19  1  0  0  0  0
 22 23  1  0  0  0  0
 23 20  1  0  0  0  0
 24 22  1  0  0  0  0
 25 24  2  0  0  0  0
 26 25  1  0  0  0  0
 27 26  2  0  0  0  0
 27 28  1  0  0  0  0
 28 29  2  0  0  0  0
 29 24  1  0  0  0  0
M  END
>  <Pose>
1

>  <Score>
-10.325

$$$$
