/Users/jonathanwahrer/Desktop/Msc/3_Semester/Drug_Design_Praktikum/waehrer_HTS_screening/HTS_experiment/out/docking_results/vina_output/6e43/0483_docked.pdbqt
 OpenBabel03212219583D

 31 34  0  0  0  0  0  0  0  0999 V2000
   19.5540   77.3410    9.8940 C   0  0  0  0  0  2  0  0  0  0  0  0
   19.8310   76.0520    9.2800 C   0  0  0  0  0  0  0  0  0  0  0  0
   20.0460   74.9870    8.7630 C   0  0  0  0  0  3  0  0  0  0  0  0
   19.9900   77.3470   11.2770 N   0  0  0  0  0  0  0  0  0  0  0  0
   20.8340   78.2680   11.9580 C   0  0  0  0  0  0  0  0  0  0  0  0
   20.9900   77.8900   13.2970 C   0  0  0  0  0  0  0  0  0  0  0  0
   21.4810   79.4130   11.5170 C   0  0  0  0  0  3  0  0  0  0  0  0
   21.7780   78.6620   14.1250 C   0  0  0  0  0  3  0  0  0  0  0  0
   20.2270   76.6720   13.5280 C   0  0  0  0  0  0  0  0  0  0  0  0
   22.4260   79.8150   13.6680 C   0  0  0  0  0  0  0  0  0  0  0  0
   23.5100   80.8740   14.8150 Br  0  0  0  0  0  0  0  0  0  0  0  0
   22.2620   80.1700   12.3580 C   0  0  0  0  0  3  0  0  0  0  0  0
   19.6070   76.3600   12.2220 C   0  0  0  0  0  0  0  0  0  0  0  0
   20.1080   76.0020   14.6230 N   0  0  0  0  0  0  0  0  0  0  0  0
   18.8680   75.3480   12.0800 O   0  0  0  0  0  0  0  0  0  0  0  0
   20.7420   76.3900   15.8060 N   0  0  0  0  0  0  0  0  0  0  0  0
   20.0390   76.9560   16.8980 C   0  0  0  0  0  0  0  0  0  0  0  0
   18.8010   77.1190   16.8070 O   0  0  0  0  0  0  0  0  0  0  0  0
   21.7720   76.2620   15.8760 H   0  0  0  0  0  0  0  0  0  0  0  0
   20.7500   77.3430   18.1080 C   0  0  0  0  0  2  0  0  0  0  0  0
   20.1630   78.4920   18.7690 N   0  0  0  0  0  0  0  0  0  0  0  0
   19.2350   78.4860   19.7110 N   0  0  0  0  0  2  0  0  0  0  0  0
   18.9430   79.7220   20.0790 N   0  0  0  0  0  0  0  0  0  0  0  0
   19.7040   80.5610   19.3540 C   0  0  0  0  0  0  0  0  0  0  0  0
   20.4410   79.7720   18.5620 N   0  0  0  0  0  2  0  0  0  0  0  0
   19.6890   82.0170   19.4520 C   0  0  0  0  0  0  0  0  0  0  0  0
   19.0340   82.6330   20.4960 C   0  0  0  0  0  3  0  0  0  0  0  0
   19.0180   84.0260   20.5930 C   0  0  0  0  0  3  0  0  0  0  0  0
   19.6470   84.8220   19.6630 C   0  0  0  0  0  3  0  0  0  0  0  0
   20.3060   84.2050   18.6130 C   0  0  0  0  0  3  0  0  0  0  0  0
   20.3170   82.8200   18.5250 C   0  0  0  0  0  3  0  0  0  0  0  0
  1  4  1  0  0  0  0
  2  1  1  0  0  0  0
  3  2  3  0  0  0  0
  4  5  1  0  0  0  0
  4 13  1  0  0  0  0
  5  6  1  0  0  0  0
  6  9  1  0  0  0  0
  6  8  2  0  0  0  0
  7  5  2  0  0  0  0
  7 12  1  0  0  0  0
  9 14  2  0  0  0  0
 10  8  1  0  0  0  0
 10 11  1  0  0  0  0
 12 10  2  0  0  0  0
 13  9  1  0  0  0  0
 14 16  1  0  0  0  0
 15 13  2  0  0  0  0
 16 19  1  0  0  0  0
 16 17  1  0  0  0  0
 17 20  1  0  0  0  0
 18 17  2  0  0  0  0
 20 21  1  0  0  0  0
 21 22  1  0  0  0  0
 22 23  1  0  0  0  0
 24 26  1  0  0  0  0
 24 23  2  0  0  0  0
 25 21  1  0  0  0  0
 25 24  1  0  0  0  0
 26 27  1  0  0  0  0
 27 28  2  0  0  0  0
 29 28  1  0  0  0  0
 30 29  2  0  0  0  0
 31 30  1  0  0  0  0
 31 26  2  0  0  0  0
M  END
>  <Pose>
1

>  <Score>
-11.423

$$$$
