/Users/jonathanwahrer/Desktop/Msc/3_Semester/Drug_Design_Praktikum/waehrer_HTS_screening/HTS_experiment/out/docking_results/vina_output/6e43/0484_docked.pdbqt
 OpenBabel03212219583D

 35 38  0  0  1  0  0  0  0  0999 V2000
   21.4730   80.2160    9.5940 Br  0  0  0  0  0  0  0  0  0  0  0  0
   20.7990   78.7880   10.6680 C   0  0  0  0  0  0  0  0  0  0  0  0
   21.2060   78.6140   11.9990 C   0  0  0  0  0  3  0  0  0  0  0  0
   20.6520   77.5650   12.6730 C   0  0  0  0  0  0  0  0  0  0  0  0
   19.7380   76.6880   12.1270 C   0  0  0  0  0  0  0  0  0  0  0  0
   19.3450   76.8580   10.8190 C   0  0  0  0  0  3  0  0  0  0  0  0
   19.8880   77.9290   10.0940 C   0  0  0  0  0  3  0  0  0  0  0  0
   19.3320   75.6940   13.0590 N   0  0  0  0  0  0  0  0  0  0  0  0
   20.0600   75.9720   14.2830 C   0  0  0  0  0  0  0  0  0  0  0  0
   19.9580   75.3200   15.3430 O   0  0  0  0  0  0  0  0  0  0  0  0
   20.8840   77.1300   14.0150 C   0  0  1  0  0  3  0  0  0  0  0  0
   21.8040   77.6350   14.7420 N   0  0  0  0  0  2  0  0  0  0  0  0
   22.2700   78.5980   15.2090 N   0  0  0  0  0  0  0  0  0  0  0  0
   22.8300   79.7740   15.7560 C   0  0  0  0  0  0  0  0  0  0  0  0
   22.1440   79.3140   14.0260 H   0  0  0  0  0  0  0  0  0  0  0  0
   22.9690   80.8950   15.3210 O   0  0  0  0  0  0  0  0  0  0  0  0
   23.3550   79.4720   17.1780 C   0  0  0  0  0  2  0  0  0  0  0  0
   22.1710   79.0870   17.9100 O   0  0  0  0  0  0  0  0  0  0  0  0
   21.5850   80.1350   18.6750 N   0  0  0  0  0  0  0  0  0  0  0  0
   20.6640   80.8750   18.1950 C   0  0  0  0  0  3  0  0  0  0  0  0
   20.0970   81.9430   18.9860 C   0  0  0  0  0  0  0  0  0  0  0  0
   19.3350   81.7820   20.0950 C   0  0  0  0  0  3  0  0  0  0  0  0
   18.8130   82.9640   20.6810 C   0  0  0  0  0  3  0  0  0  0  0  0
   19.0030   84.2150   20.2660 C   0  0  0  0  0  0  0  0  0  0  0  0
   19.7740   84.3230   19.1590 C   0  0  0  0  0  3  0  0  0  0  0  0
   20.3440   83.3280   18.4600 C   0  0  0  0  0  3  0  0  0  0  0  0
   18.4300   85.2930   20.9490 O   0  0  0  0  0  0  0  0  0  0  0  0
   17.4320   85.0770   21.9400 C   0  0  0  0  0  1  0  0  0  0  0  0
   18.3650   74.6130   12.9720 C   0  0  0  0  0  2  0  0  0  0  0  0
   18.8730   73.5140   12.3110 N   0  0  0  0  0  0  0  0  0  0  0  0
   19.4880   72.5950   13.1810 C   0  0  0  0  0  2  0  0  0  0  0  0
   19.0530   71.1730   12.8170 C   0  0  0  0  0  2  0  0  0  0  0  0
   17.6340   71.2660   12.7930 O   0  0  0  0  0  0  0  0  0  0  0  0
   17.2380   71.9070   11.6120 C   0  0  0  0  0  2  0  0  0  0  0  0
   18.1430   73.0300   11.2100 C   0  0  0  0  0  2  0  0  0  0  0  0
  1  2  1  0  0  0  0
  2  3  1  0  0  0  0
  3  4  2  0  0  0  0
  4 11  1  0  0  0  0
  5  4  1  0  0  0  0
  5  8  1  0  0  0  0
  6  5  2  0  0  0  0
  7  2  2  0  0  0  0
  7  6  1  0  0  0  0
  8  9  1  0  0  0  0
  9 10  2  0  0  0  0
 11  9  1  0  0  0  0
 11 12  1  6  0  0  0
 12 13  1  0  0  0  0
 13 14  1  0  0  0  0
 14 17  1  0  0  0  0
 15 13  1  0  0  0  0
 16 14  2  0  0  0  0
 17 18  1  0  0  0  0
 18 19  1  0  0  0  0
 20 19  2  0  0  0  0
 20 21  1  0  0  0  0
 21 22  1  0  0  0  0
 22 23  2  0  0  0  0
 24 23  1  0  0  0  0
 24 27  1  0  0  0  0
 25 24  2  0  0  0  0
 26 21  2  0  0  0  0
 26 25  1  0  0  0  0
 27 28  1  0  0  0  0
 29  8  1  0  0  0  0
 30 29  1  0  0  0  0
 30 31  1  0  0  0  0
 32 31  1  0  0  0  0
 33 32  1  0  0  0  0
 34 33  1  0  0  0  0
 35 34  1  0  0  0  0
 35 30  1  0  0  0  0
M  END
>  <Pose>
1

>  <Score>
-10.077

$$$$
