/Users/jonathanwahrer/Desktop/Msc/3_Semester/Drug_Design_Praktikum/waehrer_HTS_screening/HTS_experiment/out/docking_results/vina_output/6e43/0485_docked.pdbqt
 OpenBabel03212219593D

 34 37  0  0  0  0  0  0  0  0999 V2000
   17.7980   70.8220   13.4310 Br  0  0  0  0  0  0  0  0  0  0  0  0
   18.2980   72.5500   12.7530 C   0  0  0  0  0  0  0  0  0  0  0  0
   18.9060   73.4880   13.5550 C   0  0  0  0  0  3  0  0  0  0  0  0
   19.2850   74.7500   13.1100 C   0  0  0  0  0  0  0  0  0  0  0  0
   19.0350   75.0810   11.7750 C   0  0  0  0  0  0  0  0  0  0  0  0
   18.4260   74.1400   10.9700 C   0  0  0  0  0  3  0  0  0  0  0  0
   18.0550   72.8820   11.4370 C   0  0  0  0  0  3  0  0  0  0  0  0
   19.4960   76.4130   11.5060 N   0  0  0  0  0  0  0  0  0  0  0  0
   20.0430   76.9080   12.7210 C   0  0  0  0  0  0  0  0  0  0  0  0
   20.5460   78.0420   12.8790 O   0  0  0  0  0  0  0  0  0  0  0  0
   19.9260   75.8870   13.7450 C   0  0  0  0  0  0  0  0  0  0  0  0
   20.3080   75.9640   14.9690 N   0  0  0  0  0  0  0  0  0  0  0  0
   20.9170   77.0920   15.5070 N   0  0  0  0  0  0  0  0  0  0  0  0
   20.9290   77.2830   16.9050 C   0  0  0  0  0  0  0  0  0  0  0  0
   20.3910   76.4380   17.7010 O   0  0  0  0  0  0  0  0  0  0  0  0
   21.3550   77.7810   14.8800 H   0  0  0  0  0  0  0  0  0  0  0  0
   21.5570   78.4560   17.5630 C   0  0  0  0  0  2  0  0  0  0  0  0
   22.2610   79.2400   16.6010 O   0  0  0  0  0  0  0  0  0  0  0  0
   23.6250   79.0680   16.4360 C   0  0  0  0  0  0  0  0  0  0  0  0
   24.1360   78.7350   15.1990 C   0  0  0  0  0  0  0  0  0  0  0  0
   25.5080   78.5630   15.0410 C   0  0  0  0  0  3  0  0  0  0  0  0
   26.3630   78.7220   16.1140 C   0  0  0  0  0  3  0  0  0  0  0  0
   25.8430   79.0510   17.3310 C   0  0  0  0  0  3  0  0  0  0  0  0
   24.4770   79.2220   17.4870 C   0  0  0  0  0  3  0  0  0  0  0  0
   23.3140   78.5690   14.1140 O   0  0  0  0  0  0  0  0  0  0  0  0
   23.8210   78.6840   12.8080 C   0  0  0  0  0  1  0  0  0  0  0  0
   19.4000   77.0810   10.2190 C   0  0  0  0  0  2  0  0  0  0  0  0
   20.1800   78.2590   10.0980 N   0  0  0  0  0  0  0  0  0  0  0  0
   21.3900   78.1310    9.3590 C   0  0  0  0  0  2  0  0  0  0  0  0
   22.1970   79.4320    9.3500 C   0  0  0  0  0  2  0  0  0  0  0  0
   21.6250   80.2820   10.3550 N   0  0  0  0  0  0  0  0  0  0  0  0
   20.2960   80.7070   10.0390 C   0  0  0  0  0  2  0  0  0  0  0  0
   22.4980   81.3320   10.7950 C   0  0  0  0  0  1  0  0  0  0  0  0
   19.4460   79.4650    9.8420 C   0  0  0  0  0  2  0  0  0  0  0  0
  2  1  1  0  0  0  0
  2  3  1  0  0  0  0
  4  3  2  0  0  0  0
  4 11  1  0  0  0  0
  5  4  1  0  0  0  0
  6  7  1  0  0  0  0
  6  5  2  0  0  0  0
  7  2  2  0  0  0  0
  8  5  1  0  0  0  0
  8  9  1  0  0  0  0
  9 10  2  0  0  0  0
  9 11  1  0  0  0  0
 11 12  2  0  0  0  0
 12 13  1  0  0  0  0
 13 14  1  0  0  0  0
 14 17  1  0  0  0  0
 14 15  2  0  0  0  0
 16 13  1  0  0  0  0
 18 17  1  0  0  0  0
 19 18  1  0  0  0  0
 19 24  1  0  0  0  0
 20 19  2  0  0  0  0
 21 20  1  0  0  0  0
 21 22  2  0  0  0  0
 22 23  1  0  0  0  0
 23 24  2  0  0  0  0
 25 20  1  0  0  0  0
 26 25  1  0  0  0  0
 27  8  1  0  0  0  0
 28 27  1  0  0  0  0
 29 28  1  0  0  0  0
 30 29  1  0  0  0  0
 30 31  1  0  0  0  0
 31 33  1  0  0  0  0
 32 31  1  0  0  0  0
 34 32  1  0  0  0  0
 34 28  1  0  0  0  0
M  END
>  <Pose>
1

>  <Score>
-10.084

$$$$
