/Users/jonathanwahrer/Desktop/Msc/3_Semester/Drug_Design_Praktikum/waehrer_HTS_screening/HTS_experiment/out/docking_results/vina_output/6e43/0500_docked.pdbqt
 OpenBabel03212219593D

 32 35  0  0  1  0  0  0  0  0999 V2000
   20.5200   80.4200   10.2400 Br  0  0  0  0  0  0  0  0  0  0  0  0
   21.4930   79.5870   11.6760 C   0  0  0  0  0  0  0  0  0  0  0  0
   21.0480   79.5500   12.9660 C   0  0  0  0  0  3  0  0  0  0  0  0
   21.7870   78.9730   13.9660 C   0  0  0  0  0  0  0  0  0  0  0  0
   22.9930   78.4310   13.6220 C   0  0  0  0  0  0  0  0  0  0  0  0
   23.4720   78.4530   12.3060 C   0  0  0  0  0  3  0  0  0  0  0  0
   22.7200   79.0380   11.3070 C   0  0  0  0  0  3  0  0  0  0  0  0
   23.6640   77.9100   14.7520 N   0  0  0  0  0  0  0  0  0  0  0  0
   22.8480   78.1330   15.8600 C   0  0  0  0  0  0  0  0  0  0  0  0
   23.1600   77.8060   17.0350 O   0  0  0  0  0  0  0  0  0  0  0  0
   21.5750   78.8110   15.4160 C   0  0  2  0  0  0  0  0  0  0  0  0
   20.5100   77.9080   15.8260 C   0  0  0  0  0  0  0  0  0  0  0  0
   19.6260   78.2860   16.7890 C   0  0  0  0  0  0  0  0  0  0  0  0
   18.7670   77.2420   16.9600 N   0  0  0  0  0  0  0  0  0  0  0  0
   19.1000   76.2700   16.1500 N   0  0  0  0  0  0  0  0  0  0  0  0
   20.1800   76.6090   15.4080 C   0  0  0  0  0  0  0  0  0  0  0  0
   19.6810   79.5410   17.4280 O   0  0  0  0  0  0  0  0  0  0  0  0
   20.6930   80.3940   17.0330 C   0  0  0  0  0  0  0  0  0  0  0  0
   21.5690   80.0850   16.1190 C   0  0  0  0  0  0  0  0  0  0  0  0
   22.6100   81.0580   15.7750 C   0  0  0  0  0  0  0  0  0  0  0  0
   23.4120   81.8250   15.4910 N   0  0  0  0  0  0  0  0  0  0  0  0
   24.9840   77.2470   14.7560 C   0  0  0  0  0  1  0  0  0  0  0  0
   18.6220   75.3280   16.0500 H   0  0  0  0  0  0  0  0  0  0  0  0
   20.7530   81.6840   17.6880 N   0  0  0  0  0  0  0  0  0  0  0  0
   20.7460   82.5850   17.1790 H   0  0  0  0  0  0  0  0  0  0  0  0
   20.8030   81.6950   18.7190 H   0  0  0  0  0  0  0  0  0  0  0  0
   20.8090   75.7480   14.3750 C   0  0  0  0  0  2  0  0  0  0  0  0
   19.9520   74.5900   14.0400 C   0  0  0  0  0  0  0  0  0  0  0  0
   20.2480   73.3830   14.2350 O   0  0  0  0  0  0  0  0  0  0  0  0
   18.7280   74.8550   13.4670 O   0  0  0  0  0  0  0  0  0  0  0  0
   18.1390   74.1560   12.4020 C   0  0  0  0  0  2  0  0  0  0  0  0
   16.9840   73.3280   12.9140 C   0  0  0  0  0  1  0  0  0  0  0  0
  1  2  1  0  0  0  0
  2  3  1  0  0  0  0
  3  4  2  0  0  0  0
  5  4  1  0  0  0  0
  5  8  1  0  0  0  0
  6  5  2  0  0  0  0
  7  2  2  0  0  0  0
  7  6  1  0  0  0  0
  8 22  1  0  0  0  0
  8  9  1  0  0  0  0
  9 10  2  0  0  0  0
 11  4  1  6  0  0  0
 11 12  1  0  0  0  0
 11  9  1  0  0  0  0
 11 19  1  0  0  0  0
 12 13  1  0  0  0  0
 13 14  2  0  0  0  0
 13 17  1  0  0  0  0
 15 14  1  0  0  0  0
 16 12  2  0  0  0  0
 16 15  1  0  0  0  0
 18 17  1  0  0  0  0
 18 24  1  0  0  0  0
 19 18  2  0  0  0  0
 20 19  1  0  0  0  0
 21 20  3  0  0  0  0
 23 15  1  0  0  0  0
 24 26  1  0  0  0  0
 25 24  1  0  0  0  0
 27 16  1  0  0  0  0
 28 29  2  0  0  0  0
 28 27  1  0  0  0  0
 30 28  1  0  0  0  0
 31 32  1  0  0  0  0
 31 30  1  0  0  0  0
M  END
>  <Pose>
1

>  <Score>
-7.798

$$$$
