/Users/jonathanwahrer/Desktop/Msc/3_Semester/Drug_Design_Praktikum/waehrer_HTS_screening/HTS_experiment/out/docking_results/vina_output/6e43/0504_docked.pdbqt
 OpenBabel03212219593D

 29 32  0  0  1  0  0  0  0  0999 V2000
   26.3290   75.6540   15.1260 Br  0  0  0  0  0  0  0  0  0  0  0  0
   25.0190   76.8960   15.7180 C   0  0  0  0  0  0  0  0  0  0  0  0
   23.8690   77.1650   15.0160 C   0  0  0  0  0  3  0  0  0  0  0  0
   22.9570   78.0920   15.5190 C   0  0  0  0  0  0  0  0  0  0  0  0
   23.1400   78.7570   16.6840 C   0  0  0  0  0  0  0  0  0  0  0  0
   24.3100   78.4830   17.3990 C   0  0  0  0  0  3  0  0  0  0  0  0
   25.2220   77.5710   16.9170 C   0  0  0  0  0  3  0  0  0  0  0  0
   22.0720   79.6380   16.9710 N   0  0  0  0  0  0  0  0  0  0  0  0
   21.1410   79.5320   15.9200 C   0  0  0  0  0  0  0  0  0  0  0  0
   20.0540   80.1660   15.8220 O   0  0  0  0  0  0  0  0  0  0  0  0
   21.6520   78.5390   14.9340 C   0  0  1  0  0  0  0  0  0  0  0  0
   21.8900   79.1890   13.6200 C   0  0  0  0  0  0  0  0  0  0  0  0
   21.3940   78.7400   12.5250 C   0  0  0  0  0  0  0  0  0  0  0  0
   20.5530   77.5540   12.4710 N   0  0  0  0  0  0  0  0  0  0  0  0
   20.3190   76.9250   13.7140 C   0  0  0  0  0  0  0  0  0  0  0  0
   20.8130   77.3650   14.8380 C   0  0  0  0  0  0  0  0  0  0  0  0
   20.4840   76.6120   16.0430 C   0  0  0  0  0  0  0  0  0  0  0  0
   20.2330   76.0270   17.0110 N   0  0  0  0  0  0  0  0  0  0  0  0
   21.8280   79.6260   11.4010 C   0  0  0  0  0  0  0  0  0  0  0  0
   22.6090   80.6020   11.9850 O   0  0  0  0  0  0  0  0  0  0  0  0
   22.7020   80.4160   13.3310 C   0  0  0  0  0  0  0  0  0  0  0  0
   23.3200   81.0920   14.2080 O   0  0  0  0  0  0  0  0  0  0  0  0
   20.6150   80.1750   10.6760 C   0  0  0  0  0  1  0  0  0  0  0  0
   22.6920   78.8580   10.4170 C   0  0  0  0  0  1  0  0  0  0  0  0
   21.9220   80.5200   18.1390 C   0  0  0  0  0  1  0  0  0  0  0  0
   20.1790   77.2350   11.5610 H   0  0  0  0  0  0  0  0  0  0  0  0
   19.4850   75.7340   13.7210 N   0  0  0  0  0  0  0  0  0  0  0  0
   19.6860   75.0150   12.9970 H   0  0  0  0  0  0  0  0  0  0  0  0
   18.7290   75.6090   14.4090 H   0  0  0  0  0  0  0  0  0  0  0  0
  1  2  1  0  0  0  0
  2  7  1  0  0  0  0
  3  4  1  0  0  0  0
  3  2  2  0  0  0  0
  4  5  2  0  0  0  0
  5  8  1  0  0  0  0
  5  6  1  0  0  0  0
  7  6  2  0  0  0  0
  8 25  1  0  0  0  0
  9  8  1  0  0  0  0
 10  9  2  0  0  0  0
 11 12  1  6  0  0  0
 11  4  1  0  0  0  0
 11  9  1  0  0  0  0
 13 12  2  0  0  0  0
 14 13  1  0  0  0  0
 14 15  1  0  0  0  0
 15 27  1  0  0  0  0
 15 16  2  0  0  0  0
 16 11  1  0  0  0  0
 16 17  1  0  0  0  0
 17 18  3  0  0  0  0
 19 20  1  0  0  0  0
 19 13  1  0  0  0  0
 20 21  1  0  0  0  0
 21 12  1  0  0  0  0
 21 22  2  0  0  0  0
 23 19  1  0  0  0  0
 24 19  1  0  0  0  0
 26 14  1  0  0  0  0
 27 29  1  0  0  0  0
 28 27  1  0  0  0  0
M  END
>  <Pose>
1

>  <Score>
-6.972

$$$$
