/Users/jonathanwahrer/Desktop/Msc/3_Semester/Drug_Design_Praktikum/waehrer_HTS_screening/HTS_experiment/out/docking_results/vina_output/6e43/0505_docked.pdbqt
 OpenBabel03212219593D

 30 33  0  0  1  0  0  0  0  0999 V2000
   16.1000   81.6460   11.4380 Br  0  0  0  0  0  0  0  0  0  0  0  0
   17.8980   81.2170   10.9860 C   0  0  0  0  0  0  0  0  0  0  0  0
   18.3040   79.9010   10.9650 C   0  0  0  0  0  3  0  0  0  0  0  0
   19.6200   79.5600   10.6370 C   0  0  0  0  0  0  0  0  0  0  0  0
   20.4780   80.5690   10.3400 C   0  0  0  0  0  0  0  0  0  0  0  0
   20.0610   81.9160   10.3620 C   0  0  0  0  0  3  0  0  0  0  0  0
   18.7650   82.2440   10.6860 C   0  0  0  0  0  3  0  0  0  0  0  0
   21.7520   80.0170   10.0370 N   0  0  0  0  0  0  0  0  0  0  0  0
   21.7000   78.6150   10.1440 C   0  0  0  0  0  0  0  0  0  0  0  0
   22.6320   77.7950    9.9500 O   0  0  0  0  0  0  0  0  0  0  0  0
   20.3110   78.2390   10.5410 C   0  0  1  0  0  0  0  0  0  0  0  0
   20.3030   77.5420   11.8320 C   0  0  0  0  0  0  0  0  0  0  0  0
   19.7350   76.3190   11.9780 C   0  0  0  0  0  0  0  0  0  0  0  0
   19.1350   75.6860   10.8850 O   0  0  0  0  0  0  0  0  0  0  0  0
   19.1160   76.2990    9.6480 C   0  0  0  0  0  0  0  0  0  0  0  0
   19.6530   77.4690    9.4810 C   0  0  0  0  0  0  0  0  0  0  0  0
   19.5870   78.0460    8.1300 C   0  0  0  0  0  0  0  0  0  0  0  0
   19.5280   78.4980    7.0860 N   0  0  0  0  0  0  0  0  0  0  0  0
   19.7510   75.6940   13.2280 C   0  0  0  0  0  0  0  0  0  0  0  0
   19.2250   74.5680   13.3490 O   0  0  0  0  0  0  0  0  0  0  0  0
   20.3440   76.3290   14.2930 C   0  0  0  0  0  3  0  0  0  0  0  0
   20.9060   77.5710   14.0860 C   0  0  0  0  0  0  0  0  0  0  0  0
   20.8610   78.1000   12.9100 O   0  0  0  0  0  0  0  0  0  0  0  0
   22.9200   80.8410    9.6700 C   0  0  0  0  0  1  0  0  0  0  0  0
   18.4820   75.5880    8.5720 N   0  0  0  0  0  0  0  0  0  0  0  0
   18.6890   75.8660    7.6140 H   0  0  0  0  0  0  0  0  0  0  0  0
   17.8450   74.8280    8.8030 H   0  0  0  0  0  0  0  0  0  0  0  0
   21.5660   78.2900   15.2440 C   0  0  0  0  0  2  0  0  0  0  0  0
   22.0580   77.3460   16.1440 O   0  0  0  0  0  0  0  0  0  0  0  0
   23.0620   77.3720   16.1290 H   0  0  0  0  0  0  0  0  0  0  0  0
  2  1  1  0  0  0  0
  3  2  1  0  0  0  0
  4  3  2  0  0  0  0
  5  6  2  0  0  0  0
  5  4  1  0  0  0  0
  6  7  1  0  0  0  0
  7  2  2  0  0  0  0
  8  9  1  0  0  0  0
  8  5  1  0  0  0  0
  9 11  1  0  0  0  0
 10  9  2  0  0  0  0
 11 16  1  6  0  0  0
 11  4  1  0  0  0  0
 11 12  1  0  0  0  0
 12 13  2  0  0  0  0
 12 23  1  0  0  0  0
 13 19  1  0  0  0  0
 14 13  1  0  0  0  0
 15 14  1  0  0  0  0
 16 15  2  0  0  0  0
 17 16  1  0  0  0  0
 18 17  3  0  0  0  0
 19 20  2  0  0  0  0
 19 21  1  0  0  0  0
 22 21  2  0  0  0  0
 22 28  1  0  0  0  0
 23 22  1  0  0  0  0
 24  8  1  0  0  0  0
 25 27  1  0  0  0  0
 25 15  1  0  0  0  0
 26 25  1  0  0  0  0
 28 29  1  0  0  0  0
 30 29  1  0  0  0  0
M  END
>  <Pose>
1

>  <Score>
-6.738

$$$$
