/Users/jonathanwahrer/Desktop/Msc/3_Semester/Drug_Design_Praktikum/waehrer_HTS_screening/HTS_experiment/out/docking_results/vina_output/6e43/0513_docked.pdbqt
 OpenBabel03212220003D

 33 36  0  0  0  0  0  0  0  0999 V2000
   20.5360   76.8290   14.7210 N   0  0  0  0  0  0  0  0  0  0  0  0
   21.7580   77.4890   15.0180 C   0  0  0  0  0  0  0  0  0  0  0  0
   22.3590   78.0210   14.0720 O   0  0  0  0  0  0  0  0  0  0  0  0
   20.0390   76.3700   15.5150 H   0  0  0  0  0  0  0  0  0  0  0  0
   19.9870   76.7640   13.4530 N   0  0  0  0  0  0  0  0  0  0  0  0
   20.0160   77.6150   12.8270 H   0  0  0  0  0  0  0  0  0  0  0  0
   19.3760   75.6240   12.9150 C   0  0  0  0  0  3  0  0  0  0  0  0
   19.2010   75.3900   11.6320 C   0  0  0  0  0  0  0  0  0  0  0  0
   19.5770   76.2150   10.4790 C   0  0  0  0  0  0  0  0  0  0  0  0
   18.5600   74.1990   11.0500 C   0  0  0  0  0  0  0  0  0  0  0  0
   20.2060   77.4370   10.3720 C   0  0  0  0  0  3  0  0  0  0  0  0
   19.2090   75.6010    9.3060 C   0  0  0  0  0  0  0  0  0  0  0  0
   20.4750   78.0510    9.1500 C   0  0  0  0  0  0  0  0  0  0  0  0
   21.3590   79.7480    9.0880 Br  0  0  0  0  0  0  0  0  0  0  0  0
   20.0930   77.4060    8.0020 C   0  0  0  0  0  3  0  0  0  0  0  0
   19.4640   76.1890    8.0580 C   0  0  0  0  0  3  0  0  0  0  0  0
   18.5880   74.3690    9.6440 N   0  0  0  0  0  0  0  0  0  0  0  0
   18.2000   73.6750    8.9630 H   0  0  0  0  0  0  0  0  0  0  0  0
   18.0940   73.2440   11.7160 O   0  0  0  0  0  0  0  0  0  0  0  0
   22.3280   77.5660   16.3820 C   0  0  0  0  0  2  0  0  0  0  0  0
   21.3720   77.8770   17.3390 N   0  0  0  0  0  0  0  0  0  0  0  0
   20.9050   79.0400   17.7900 C   0  0  0  0  0  0  0  0  0  0  0  0
   19.9910   78.7930   18.8060 C   0  0  0  0  0  0  0  0  0  0  0  0
   21.1930   80.2950   17.3890 N   0  0  0  0  0  0  0  0  0  0  0  0
   19.9240   77.4560   18.9480 N   0  0  0  0  0  0  0  0  0  0  0  0
   19.3540   79.8460   19.4330 C   0  0  0  0  0  0  0  0  0  0  0  0
   20.7420   76.9100   18.0780 C   0  0  0  0  0  3  0  0  0  0  0  0
   18.5340   79.5910   20.3520 O   0  0  0  0  0  0  0  0  0  0  0  0
   19.6530   81.0710   19.0270 N   0  0  0  0  0  0  0  0  0  0  0  0
   20.5380   81.2980   18.0410 C   0  0  0  0  0  0  0  0  0  0  0  0
   19.0050   82.2290   19.6650 C   0  0  0  0  0  1  0  0  0  0  0  0
   20.7910   82.4740   17.6860 O   0  0  0  0  0  0  0  0  0  0  0  0
   22.1050   80.5690   16.3160 C   0  0  0  0  0  1  0  0  0  0  0  0
  1  2  1  0  0  0  0
  1  4  1  0  0  0  0
  2 20  1  0  0  0  0
  3  2  2  0  0  0  0
  5  1  1  0  0  0  0
  6  5  1  0  0  0  0
  7  5  1  0  0  0  0
  8  7  2  0  0  0  0
  9  8  1  0  0  0  0
 10  8  1  0  0  0  0
 10 19  2  0  0  0  0
 11  9  1  0  0  0  0
 12 17  1  0  0  0  0
 12  9  2  0  0  0  0
 13 11  2  0  0  0  0
 14 13  1  0  0  0  0
 15 16  2  0  0  0  0
 15 13  1  0  0  0  0
 16 12  1  0  0  0  0
 17 10  1  0  0  0  0
 18 17  1  0  0  0  0
 20 21  1  0  0  0  0
 21 22  1  0  0  0  0
 21 27  1  0  0  0  0
 22 23  2  0  0  0  0
 23 25  1  0  0  0  0
 23 26  1  0  0  0  0
 24 22  1  0  0  0  0
 24 30  1  0  0  0  0
 26 28  2  0  0  0  0
 27 25  2  0  0  0  0
 29 26  1  0  0  0  0
 29 31  1  0  0  0  0
 30 29  1  0  0  0  0
 32 30  2  0  0  0  0
 33 24  1  0  0  0  0
M  END
>  <Pose>
1

>  <Score>
-10.298

$$$$
