/Users/jonathanwahrer/Desktop/Msc/3_Semester/Drug_Design_Praktikum/waehrer_HTS_screening/HTS_experiment/out/docking_results/vina_output/6e43/0526_docked.pdbqt
 OpenBabel03212220003D

 31 34  0  0  0  0  0  0  0  0999 V2000
   20.9980   76.8200   16.4030 N   0  0  0  0  0  0  0  0  0  0  0  0
   20.2030   77.2120   17.4960 C   0  0  0  0  0  0  0  0  0  0  0  0
   18.9390   77.0070   17.4280 O   0  0  0  0  0  0  0  0  0  0  0  0
   22.0390   76.9930   16.4380 H   0  0  0  0  0  0  0  0  0  0  0  0
   20.6490   77.8360   18.7450 C   0  0  0  0  0  2  0  0  0  0  0  0
   20.6750   79.2710   18.7650 N   0  0  0  0  0  0  0  0  0  0  0  0
   19.6710   80.0270   19.4320 C   0  0  0  0  0  0  0  0  0  0  0  0
   18.7420   79.3380   20.0080 O   0  0  0  0  0  0  0  0  0  0  0  0
   21.4090   79.8140   18.2840 H   0  0  0  0  0  0  0  0  0  0  0  0
   19.5970   81.4540   19.5180 C   0  0  0  0  0  0  0  0  0  0  0  0
   18.8440   82.1660   20.4390 C   0  0  0  0  0  3  0  0  0  0  0  0
   18.8250   83.5190   20.4720 C   0  0  0  0  0  0  0  0  0  0  0  0
   19.5640   84.2640   19.5760 C   0  0  0  0  0  0  0  0  0  0  0  0
   18.1660   84.5060   21.2950 O   0  0  0  0  0  0  0  0  0  0  0  0
   20.3140   83.6080   18.6510 C   0  0  0  0  0  3  0  0  0  0  0  0
   19.3570   85.6260   19.8510 O   0  0  0  0  0  0  0  0  0  0  0  0
   20.3500   82.2060   18.6040 C   0  0  0  0  0  3  0  0  0  0  0  0
   19.1360   85.6130   21.2820 C   0  0  0  0  0  2  0  0  0  0  0  0
   20.4370   76.2320   15.3250 N   0  0  0  0  0  0  0  0  0  0  0  0
   20.2480   76.3890   14.1600 C   0  0  0  0  0  0  0  0  0  0  0  0
   19.5740   75.5590   13.1530 C   0  0  0  0  0  0  0  0  0  0  0  0
   20.7560   77.6080   13.4630 C   0  0  0  0  0  0  0  0  0  0  0  0
   18.9380   74.3430   13.2730 C   0  0  0  0  0  3  0  0  0  0  0  0
   19.6660   76.2180   11.9680 C   0  0  0  0  0  0  0  0  0  0  0  0
   18.3590   73.7320   12.1970 C   0  0  0  0  0  0  0  0  0  0  0  0
   17.4740   72.0600   12.3460 Br  0  0  0  0  0  0  0  0  0  0  0  0
   18.4410   74.3880   10.9750 C   0  0  0  0  0  3  0  0  0  0  0  0
   19.0770   75.5990   10.8610 C   0  0  0  0  0  3  0  0  0  0  0  0
   20.3610   77.4400   12.0990 N   0  0  0  0  0  0  0  0  0  0  0  0
   20.5700   78.1400   11.3470 H   0  0  0  0  0  0  0  0  0  0  0  0
   21.3730   78.5190   14.0180 O   0  0  0  0  0  0  0  0  0  0  0  0
  1  4  1  0  0  0  0
  1  2  1  0  0  0  0
  2  5  1  0  0  0  0
  3  2  2  0  0  0  0
  5  6  1  0  0  0  0
  6  7  1  0  0  0  0
  7 10  1  0  0  0  0
  7  8  2  0  0  0  0
  9  6  1  0  0  0  0
 10 11  1  0  0  0  0
 11 12  2  0  0  0  0
 12 14  1  0  0  0  0
 13 16  1  0  0  0  0
 13 12  1  0  0  0  0
 15 13  2  0  0  0  0
 16 18  1  0  0  0  0
 17 15  1  0  0  0  0
 17 10  2  0  0  0  0
 18 14  1  0  0  0  0
 19  1  1  0  0  0  0
 20 19  2  0  0  0  0
 21 23  1  0  0  0  0
 21 20  1  0  0  0  0
 22 31  2  0  0  0  0
 22 20  1  0  0  0  0
 24 29  1  0  0  0  0
 24 21  2  0  0  0  0
 25 26  1  0  0  0  0
 25 23  2  0  0  0  0
 27 25  1  0  0  0  0
 28 27  2  0  0  0  0
 28 24  1  0  0  0  0
 29 22  1  0  0  0  0
 30 29  1  0  0  0  0
M  END
>  <Pose>
1

>  <Score>
-10.890

$$$$
