/Users/jonathanwahrer/Desktop/Msc/3_Semester/Drug_Design_Praktikum/waehrer_HTS_screening/HTS_experiment/out/docking_results/vina_output/6e43/0558_docked.pdbqt
 OpenBabel03212220003D

 29 32  0  0  1  0  0  0  0  0999 V2000
   26.4890   75.6270   15.0720 Br  0  0  0  0  0  0  0  0  0  0  0  0
   25.3180   77.0030   15.6570 C   0  0  0  0  0  0  0  0  0  0  0  0
   24.0640   77.2100   15.0740 C   0  0  0  0  0  3  0  0  0  0  0  0
   23.2250   78.2040   15.5030 C   0  0  0  0  0  0  0  0  0  0  0  0
   23.6210   79.0180   16.5240 C   0  0  0  0  0  0  0  0  0  0  0  0
   24.8690   78.8510   17.1400 C   0  0  0  0  0  3  0  0  0  0  0  0
   25.6880   77.8450   16.6900 C   0  0  0  0  0  3  0  0  0  0  0  0
   22.6220   79.9790   16.8200 N   0  0  0  0  0  0  0  0  0  0  0  0
   21.5490   79.7540   15.9400 C   0  0  0  0  0  0  0  0  0  0  0  0
   20.4620   80.3860   15.8660 O   0  0  0  0  0  0  0  0  0  0  0  0
   21.8810   78.6140   15.0580 C   0  0  1  0  0  0  0  0  0  0  0  0
   21.9100   79.0760   13.6330 C   0  0  0  0  0  0  0  0  0  0  0  0
   21.2060   78.5670   12.6560 C   0  0  0  0  0  0  0  0  0  0  0  0
   20.3390   77.4890   12.9480 N   0  0  0  0  0  0  0  0  0  0  0  0
   20.2440   76.9820   14.2700 C   0  0  0  0  0  0  0  0  0  0  0  0
   20.9480   77.4900   15.2520 C   0  0  0  0  0  0  0  0  0  0  0  0
   20.7920   76.9090   16.5890 C   0  0  0  0  0  0  0  0  0  0  0  0
   20.6760   76.4670   17.6510 N   0  0  0  0  0  0  0  0  0  0  0  0
   21.5250   79.3070   11.4100 C   0  0  0  0  0  0  0  0  0  0  0  0
   22.4730   80.2870   11.7440 O   0  0  0  0  0  0  0  0  0  0  0  0
   22.7320   80.1760   13.0960 C   0  0  0  0  0  0  0  0  0  0  0  0
   23.5480   80.9100   13.7520 O   0  0  0  0  0  0  0  0  0  0  0  0
   20.2960   80.0570   10.8940 C   0  0  0  0  0  1  0  0  0  0  0  0
   22.0490   78.3660   10.3340 C   0  0  0  0  0  1  0  0  0  0  0  0
   22.6910   80.7270   17.5780 H   0  0  0  0  0  0  0  0  0  0  0  0
   19.7480   77.0390   12.2020 H   0  0  0  0  0  0  0  0  0  0  0  0
   19.3450   75.8740   14.5470 N   0  0  0  0  0  0  0  0  0  0  0  0
   18.9890   75.6530   15.4910 H   0  0  0  0  0  0  0  0  0  0  0  0
   19.0540   75.2830   13.7510 H   0  0  0  0  0  0  0  0  0  0  0  0
  1  2  1  0  0  0  0
  2  7  1  0  0  0  0
  3  4  1  0  0  0  0
  3  2  2  0  0  0  0
  4  5  2  0  0  0  0
  5  8  1  0  0  0  0
  5  6  1  0  0  0  0
  7  6  2  0  0  0  0
  8 25  1  0  0  0  0
  9  8  1  0  0  0  0
 10  9  2  0  0  0  0
 11 12  1  6  0  0  0
 11 16  1  0  0  0  0
 11  4  1  0  0  0  0
 11  9  1  0  0  0  0
 13 14  1  0  0  0  0
 13 12  2  0  0  0  0
 14 15  1  0  0  0  0
 15 27  1  0  0  0  0
 15 16  2  0  0  0  0
 16 17  1  0  0  0  0
 17 18  3  0  0  0  0
 19 20  1  0  0  0  0
 19 13  1  0  0  0  0
 20 21  1  0  0  0  0
 21 12  1  0  0  0  0
 21 22  2  0  0  0  0
 23 19  1  0  0  0  0
 24 19  1  0  0  0  0
 26 14  1  0  0  0  0
 27 28  1  0  0  0  0
 29 27  1  0  0  0  0
M  END
>  <Pose>
1

>  <Score>
-8.413

$$$$
