/Users/jonathanwahrer/Desktop/Msc/3_Semester/Drug_Design_Praktikum/waehrer_HTS_screening/HTS_experiment/out/docking_results/vina_output/6e43/0559_docked.pdbqt
 OpenBabel03212220003D

 32 35  0  0  1  0  0  0  0  0999 V2000
   18.8880   74.2320   10.7500 Br  0  0  0  0  0  0  0  0  0  0  0  0
   19.0270   75.0380   12.4860 C   0  0  0  0  0  0  0  0  0  0  0  0
   20.0770   75.8740   12.8180 C   0  0  0  0  0  3  0  0  0  0  0  0
   20.1850   76.4580   14.0630 C   0  0  0  0  0  0  0  0  0  0  0  0
   19.1860   76.1640   14.9680 C   0  0  0  0  0  0  0  0  0  0  0  0
   18.1280   75.3230   14.6370 C   0  0  0  0  0  3  0  0  0  0  0  0
   18.0440   74.7600   13.4010 C   0  0  0  0  0  3  0  0  0  0  0  0
   19.4630   76.8470   16.2010 N   0  0  0  0  0  0  0  0  0  0  0  0
   20.6660   77.5840   16.0610 C   0  0  0  0  0  0  0  0  0  0  0  0
   21.1750   78.2770   16.9720 O   0  0  0  0  0  0  0  0  0  0  0  0
   21.1680   77.3740   14.6870 C   0  0  1  0  0  0  0  0  0  0  0  0
   22.4990   76.8310   14.7000 N   0  0  0  0  0  0  0  0  0  0  0  0
   23.3440   77.9850   14.9250 C   0  0  2  0  0  3  0  0  0  0  0  0
   22.7410   79.0440   14.0400 C   0  0  2  0  0  3  0  0  0  0  0  0
   21.2740   78.6900   14.0010 C   0  0  1  0  0  3  0  0  0  0  0  0
   20.9090   78.6960   12.5780 C   0  0  0  0  0  0  0  0  0  0  0  0
   19.7540   78.5740   12.0960 O   0  0  0  0  0  0  0  0  0  0  0  0
   22.0960   78.8680   11.7710 N   0  0  0  0  0  0  0  0  0  0  0  0
   23.2130   78.9660   12.6400 C   0  0  0  0  0  0  0  0  0  0  0  0
   24.4060   78.9820   12.2530 O   0  0  0  0  0  0  0  0  0  0  0  0
   18.8470   76.7790   17.0390 H   0  0  0  0  0  0  0  0  0  0  0  0
   22.7130   76.4460   13.7650 H   0  0  0  0  0  0  0  0  0  0  0  0
   24.7750   77.6610   14.5920 C   0  0  0  0  0  2  0  0  0  0  0  0
   25.2600   76.5240   15.3910 C   0  0  0  0  0  0  0  0  0  0  0  0
   24.9750   76.4830   16.6190 O   0  0  0  0  0  0  0  0  0  0  0  0
   26.0340   75.4510   14.8810 N   0  0  0  0  0  0  0  0  0  0  0  0
   26.8640   75.5490   14.2780 H   0  0  0  0  0  0  0  0  0  0  0  0
   25.7300   74.4780   15.1450 H   0  0  0  0  0  0  0  0  0  0  0  0
   22.1590   78.9330   10.3320 C   0  0  0  0  0  0  0  0  0  0  0  0
   21.2640   77.9050    9.6810 C   0  0  0  0  0  1  0  0  0  0  0  0
   21.7420   80.3360    9.8810 C   0  0  0  0  0  1  0  0  0  0  0  0
   23.5660   78.6740    9.8410 C   0  0  0  0  0  1  0  0  0  0  0  0
  1  2  1  0  0  0  0
  2  3  2  0  0  0  0
  2  7  1  0  0  0  0
  3  4  1  0  0  0  0
  4  5  2  0  0  0  0
  5  8  1  0  0  0  0
  6  5  1  0  0  0  0
  7  6  2  0  0  0  0
  8 21  1  0  0  0  0
  9  8  1  0  0  0  0
  9 10  2  0  0  0  0
 11  4  1  6  0  0  0
 11 12  1  0  0  0  0
 11  9  1  0  0  0  0
 12 13  1  0  0  0  0
 13 23  1  6  0  0  0
 14 19  1  6  0  0  0
 14 13  1  0  0  0  0
 15 16  1  6  0  0  0
 15 14  1  0  0  0  0
 15 11  1  0  0  0  0
 17 16  2  0  0  0  0
 18 16  1  0  0  0  0
 18 19  1  0  0  0  0
 20 19  2  0  0  0  0
 22 12  1  0  0  0  0
 23 24  1  0  0  0  0
 24 25  2  0  0  0  0
 26 28  1  0  0  0  0
 26 24  1  0  0  0  0
 27 26  1  0  0  0  0
 29 18  1  0  0  0  0
 30 29  1  0  0  0  0
 31 29  1  0  0  0  0
 32 29  1  0  0  0  0
M  END
>  <Pose>
1

>  <Score>
-7.802

$$$$
