/Users/jonathanwahrer/Desktop/Msc/3_Semester/Drug_Design_Praktikum/waehrer_HTS_screening/HTS_experiment/out/docking_results/vina_output/6e43/0566_docked.pdbqt
 OpenBabel03212220003D

 30 33  0  0  1  0  0  0  0  0999 V2000
   20.3580   84.4280   18.4930 Br  0  0  0  0  0  0  0  0  0  0  0  0
   20.0590   82.6070   18.9810 C   0  0  0  0  0  0  0  0  0  0  0  0
   20.7140   81.5910   18.3320 C   0  0  0  0  0  3  0  0  0  0  0  0
   20.5010   80.2450   18.6830 C   0  0  0  0  0  0  0  0  0  0  0  0
   19.6340   79.9030   19.6820 C   0  0  0  0  0  0  0  0  0  0  0  0
   18.9650   80.9420   20.3450 C   0  0  0  0  0  3  0  0  0  0  0  0
   19.1880   82.2510   19.9860 C   0  0  0  0  0  3  0  0  0  0  0  0
   19.5870   78.4940   19.8540 N   0  0  0  0  0  0  0  0  0  0  0  0
   20.4720   77.9250   18.9090 C   0  0  0  0  0  0  0  0  0  0  0  0
   20.6470   76.6650   18.8190 O   0  0  0  0  0  0  0  0  0  0  0  0
   21.0790   78.9960   18.1390 C   0  0  2  0  0  0  0  0  0  0  0  0
   22.5280   79.0000   18.1910 N   0  0  0  0  0  0  0  0  0  0  0  0
   22.9630   78.1580   17.0910 C   0  0  1  0  0  3  0  0  0  0  0  0
   22.0230   78.5670   15.9940 C   0  0  2  0  0  3  0  0  0  0  0  0
   20.7230   78.8270   16.6760 C   0  0  1  0  0  3  0  0  0  0  0  0
   19.8920   77.6400   16.4210 C   0  0  0  0  0  0  0  0  0  0  0  0
   18.8260   77.2700   17.0130 O   0  0  0  0  0  0  0  0  0  0  0  0
   20.4550   76.8880   15.3530 N   0  0  0  0  0  0  0  0  0  0  0  0
   21.7160   77.4580   15.0650 C   0  0  0  0  0  0  0  0  0  0  0  0
   22.5100   77.0990   14.1440 O   0  0  0  0  0  0  0  0  0  0  0  0
   18.9830   78.0150   20.5700 H   0  0  0  0  0  0  0  0  0  0  0  0
   22.8980   78.6920   19.1080 H   0  0  0  0  0  0  0  0  0  0  0  0
   24.3980   78.4510   16.7840 C   0  0  1  0  0  3  0  0  0  0  0  0
   25.1290   77.1740   16.4500 C   0  0  0  0  0  1  0  0  0  0  0  0
   24.4340   79.2600   15.6420 O   0  0  0  0  0  0  0  0  0  0  0  0
   24.1670   78.7460   14.8360 H   0  0  0  0  0  0  0  0  0  0  0  0
   19.8560   75.7520   14.6810 C   0  0  0  0  0  2  0  0  0  0  0  0
   19.6310   76.0030   13.2250 C   0  0  0  0  0  2  0  0  0  0  0  0
   18.8940   74.7760   12.6720 C   0  0  0  0  0  2  0  0  0  0  0  0
   19.2800   73.5420   13.4400 C   0  0  0  0  0  1  0  0  0  0  0  0
  1  2  1  0  0  0  0
  2  7  1  0  0  0  0
  3  4  1  0  0  0  0
  3  2  2  0  0  0  0
  4  5  2  0  0  0  0
  5  8  1  0  0  0  0
  5  6  1  0  0  0  0
  7  6  2  0  0  0  0
  8 21  1  0  0  0  0
  9  8  1  0  0  0  0
 10  9  2  0  0  0  0
 11 12  1  0  0  0  0
 11  4  1  1  0  0  0
 11  9  1  0  0  0  0
 12 22  1  0  0  0  0
 13 23  1  6  0  0  0
 13 12  1  0  0  0  0
 14 19  1  6  0  0  0
 14 15  1  0  0  0  0
 14 13  1  0  0  0  0
 15 16  1  1  0  0  0
 15 11  1  0  0  0  0
 16 17  2  0  0  0  0
 18 16  1  0  0  0  0
 19 18  1  0  0  0  0
 20 19  2  0  0  0  0
 23 24  1  6  0  0  0
 25 23  1  0  0  0  0
 26 25  1  0  0  0  0
 27 18  1  0  0  0  0
 28 27  1  0  0  0  0
 29 28  1  0  0  0  0
 29 30  1  0  0  0  0
M  END
>  <Pose>
1

>  <Score>
-10.314

$$$$
