/Users/jonathanwahrer/Desktop/Msc/3_Semester/Drug_Design_Praktikum/waehrer_HTS_screening/HTS_experiment/out/docking_results/vina_output/6e43/0571_docked.pdbqt
 OpenBabel03212220013D

 34 38  0  0  1  0  0  0  0  0999 V2000
   26.0800   77.2830   10.1440 Br  0  0  0  0  0  0  0  0  0  0  0  0
   24.5110   78.3690   10.0590 C   0  0  0  0  0  0  0  0  0  0  0  0
   23.4510   78.2090   10.9240 C   0  0  0  0  0  3  0  0  0  0  0  0
   22.2980   79.0060   10.8530 C   0  0  0  0  0  0  0  0  0  0  0  0
   22.2580   79.9700    9.8760 C   0  0  0  0  0  0  0  0  0  0  0  0
   23.3220   80.1370    9.0010 C   0  0  0  0  0  3  0  0  0  0  0  0
   24.4490   79.3480    9.0800 C   0  0  0  0  0  3  0  0  0  0  0  0
   21.0350   80.6800    9.9160 N   0  0  0  0  0  0  0  0  0  0  0  0
   20.2660   80.1400   10.9670 C   0  0  0  0  0  0  0  0  0  0  0  0
   19.1130   80.5680   11.2550 O   0  0  0  0  0  0  0  0  0  0  0  0
   21.0420   79.0550   11.6020 C   0  0  1  0  0  0  0  0  0  0  0  0
   20.3210   77.7830   11.5000 N   0  0  0  0  0  0  0  0  0  0  0  0
   20.6640   77.0450   12.6960 C   0  0  1  0  0  3  0  0  0  0  0  0
   21.0280   78.0170   13.7480 C   0  0  2  0  0  3  0  0  0  0  0  0
   21.1410   79.3600   13.0500 C   0  0  1  0  0  3  0  0  0  0  0  0
   22.3790   79.9540   13.5410 C   0  0  0  0  0  0  0  0  0  0  0  0
   22.9160   81.0110   13.1260 O   0  0  0  0  0  0  0  0  0  0  0  0
   22.9310   79.1450   14.6020 N   0  0  0  0  0  0  0  0  0  0  0  0
   22.3550   77.8430   14.3700 C   0  0  0  0  0  0  0  0  0  0  0  0
   22.9030   76.7670   14.6550 O   0  0  0  0  0  0  0  0  0  0  0  0
   20.7540   81.4720    9.2740 H   0  0  0  0  0  0  0  0  0  0  0  0
   20.5920   77.2580   10.6370 H   0  0  0  0  0  0  0  0  0  0  0  0
   19.5340   76.1210   13.0820 C   0  0  2  0  0  3  0  0  0  0  0  0
   19.9160   75.1830   14.2010 C   0  0  0  0  0  1  0  0  0  0  0  0
   19.0700   75.4520   11.9660 O   0  0  0  0  0  0  0  0  0  0  0  0
   18.1280   75.6350   11.7840 H   0  0  0  0  0  0  0  0  0  0  0  0
   23.8100   79.5210   15.6620 C   0  0  0  0  0  2  0  0  0  0  0  0
   23.3510   79.1860   17.0510 C   0  0  0  0  0  2  0  0  0  0  0  0
   21.9080   79.3640   17.2900 C   0  0  0  0  0  0  0  0  0  0  0  0
   21.1590   78.2940   17.7650 C   0  0  0  0  0  3  0  0  0  0  0  0
   19.8370   78.4520   18.0130 C   0  0  0  0  0  3  0  0  0  0  0  0
   19.1880   79.6360   17.8160 C   0  0  0  0  0  3  0  0  0  0  0  0
   19.9450   80.6970   17.3420 C   0  0  0  0  0  3  0  0  0  0  0  0
   21.2780   80.5630   17.0840 C   0  0  0  0  0  3  0  0  0  0  0  0
  2  1  1  0  0  0  0
  2  3  1  0  0  0  0
  4  3  2  0  0  0  0
  5  8  1  0  0  0  0
  5  4  1  0  0  0  0
  6  7  1  0  0  0  0
  6  5  2  0  0  0  0
  7  2  2  0  0  0  0
  8  9  1  0  0  0  0
  9 10  2  0  0  0  0
  9 11  1  0  0  0  0
 11  4  1  6  0  0  0
 11 15  1  0  0  0  0
 12 11  1  0  0  0  0
 12 13  1  0  0  0  0
 13 23  1  1  0  0  0
 13 14  1  0  0  0  0
 14 19  1  6  0  0  0
 15 16  1  6  0  0  0
 15 14  1  0  0  0  0
 16 18  1  0  0  0  0
 17 16  2  0  0  0  0
 18 27  1  0  0  0  0
 19 18  1  0  0  0  0
 19 20  2  0  0  0  0
 21  8  1  0  0  0  0
 22 12  1  0  0  0  0
 23 24  1  1  0  0  0
 25 23  1  0  0  0  0
 26 25  1  0  0  0  0
 27 28  1  0  0  0  0
 28 29  1  0  0  0  0
 29 30  1  0  0  0  0
 30 31  2  0  0  0  0
 32 31  1  0  0  0  0
 33 32  2  0  0  0  0
 34 29  2  0  0  0  0
 34 33  1  0  0  0  0
M  END
>  <Pose>
1

>  <Score>
-8.882

$$$$
