/Users/jonathanwahrer/Desktop/Msc/3_Semester/Drug_Design_Praktikum/waehrer_HTS_screening/HTS_experiment/out/docking_results/vina_output/6e43/0579_docked.pdbqt
 OpenBabel03212220013D

 32 35  0  0  1  0  0  0  0  0999 V2000
   19.6990   82.2190   19.5010 Br  0  0  0  0  0  0  0  0  0  0  0  0
   19.8560   80.6490   18.4300 C   0  0  0  0  0  0  0  0  0  0  0  0
   20.8590   80.4730   17.5030 C   0  0  0  0  0  3  0  0  0  0  0  0
   20.9690   79.3220   16.7230 C   0  0  0  0  0  0  0  0  0  0  0  0
   20.0450   78.3190   16.8770 C   0  0  0  0  0  0  0  0  0  0  0  0
   19.0240   78.4670   17.8020 C   0  0  0  0  0  3  0  0  0  0  0  0
   18.9370   79.6330   18.5720 C   0  0  0  0  0  3  0  0  0  0  0  0
   20.3440   77.2360   15.9920 N   0  0  0  0  0  0  0  0  0  0  0  0
   21.5040   77.5750   15.2520 C   0  0  0  0  0  0  0  0  0  0  0  0
   22.0190   76.8220   14.4030 O   0  0  0  0  0  0  0  0  0  0  0  0
   21.9360   78.9000   15.6690 C   0  0  2  0  0  0  0  0  0  0  0  0
   23.2790   78.7610   16.2300 N   0  0  0  0  0  0  0  0  0  0  0  0
   23.9980   79.9260   15.8070 C   0  0  2  0  0  3  0  0  0  0  0  0
   23.4900   80.1790   14.4340 C   0  0  2  0  0  3  0  0  0  0  0  0
   22.0070   79.9280   14.5800 C   0  0  1  0  0  3  0  0  0  0  0  0
   21.5760   79.4880   13.2600 C   0  0  0  0  0  0  0  0  0  0  0  0
   20.3990   79.4660   12.8430 O   0  0  0  0  0  0  0  0  0  0  0  0
   22.7330   79.0880   12.5360 N   0  0  0  0  0  0  0  0  0  0  0  0
   23.8760   79.1660   13.4210 C   0  0  0  0  0  0  0  0  0  0  0  0
   24.8980   78.4810   13.2580 O   0  0  0  0  0  0  0  0  0  0  0  0
   19.7760   76.3460   15.9240 H   0  0  0  0  0  0  0  0  0  0  0  0
   23.7580   77.9230   15.8230 H   0  0  0  0  0  0  0  0  0  0  0  0
   25.4770   79.7980   15.9290 C   0  0  0  0  0  2  0  0  0  0  0  0
   25.8150   78.5340   16.5920 C   0  0  0  0  0  0  0  0  0  0  0  0
   25.9710   78.5080   17.8460 O   0  0  0  0  0  0  0  0  0  0  0  0
   25.9700   77.3320   15.8410 N   0  0  0  0  0  0  0  0  0  0  0  0
   25.7510   76.4110   16.2730 H   0  0  0  0  0  0  0  0  0  0  0  0
   26.3050   77.3830   14.8570 H   0  0  0  0  0  0  0  0  0  0  0  0
   22.7270   78.6840   11.1590 C   0  0  0  0  0  2  0  0  0  0  0  0
   22.6540   79.7970   10.1670 C   0  0  0  0  0  2  0  0  0  0  0  0
   21.4110   79.9170    9.5690 O   0  0  0  0  0  0  0  0  0  0  0  0
   20.8830   78.6750    9.2230 C   0  0  0  0  0  1  0  0  0  0  0  0
  2  7  1  0  0  0  0
  2  1  1  0  0  0  0
  3  2  2  0  0  0  0
  4  5  2  0  0  0  0
  4  3  1  0  0  0  0
  5  6  1  0  0  0  0
  6  7  2  0  0  0  0
  8  5  1  0  0  0  0
  9  8  1  0  0  0  0
 10  9  2  0  0  0  0
 11  9  1  6  0  0  0
 11 12  1  0  0  0  0
 11  4  1  0  0  0  0
 13 23  1  6  0  0  0
 13 12  1  0  0  0  0
 14 19  1  6  0  0  0
 14 15  1  0  0  0  0
 14 13  1  0  0  0  0
 15 16  1  6  0  0  0
 15 11  1  0  0  0  0
 17 16  2  0  0  0  0
 18 16  1  0  0  0  0
 18 19  1  0  0  0  0
 20 19  2  0  0  0  0
 21  8  1  0  0  0  0
 22 12  1  0  0  0  0
 23 24  1  0  0  0  0
 24 25  2  0  0  0  0
 26 27  1  0  0  0  0
 26 24  1  0  0  0  0
 28 26  1  0  0  0  0
 29 18  1  0  0  0  0
 30 29  1  0  0  0  0
 31 30  1  0  0  0  0
 32 31  1  0  0  0  0
M  END
>  <Pose>
1

>  <Score>
-7.613

$$$$
