/Users/jonathanwahrer/Desktop/Msc/3_Semester/Drug_Design_Praktikum/waehrer_HTS_screening/HTS_experiment/out/docking_results/vina_output/6e43/0588_docked.pdbqt
 OpenBabel03212220013D

 24 27  0  0  1  0  0  0  0  0999 V2000
   20.5480   78.9960    9.7520 Br  0  0  0  0  0  0  0  0  0  0  0  0
   21.4440   78.8480   11.4270 C   0  0  0  0  0  0  0  0  0  0  0  0
   20.9030   78.0360   12.3810 C   0  0  0  0  0  3  0  0  0  0  0  0
   21.5330   77.9100   13.6080 C   0  0  0  0  0  0  0  0  0  0  0  0
   22.7090   78.6040   13.8670 C   0  0  0  0  0  0  0  0  0  0  0  0
   23.2680   79.4280   12.9120 C   0  0  0  0  0  3  0  0  0  0  0  0
   22.6070   79.5230   11.7080 C   0  0  0  0  0  3  0  0  0  0  0  0
   23.4380   78.5530   15.0770 N   0  0  0  0  0  0  0  0  0  0  0  0
   24.7390   78.8630   15.1120 N   0  0  0  0  0  0  0  0  0  0  0  0
   25.1080   78.7180   16.3560 N   0  0  0  0  0  0  0  0  0  0  0  0
   24.0860   78.3290   17.1000 N   0  0  0  0  0  0  0  0  0  0  0  0
   23.0010   78.2200   16.2790 C   0  0  0  0  0  0  0  0  0  0  0  0
   21.6560   77.7940   16.8000 C   0  0  2  0  0  0  0  0  0  0  0  0
   21.0190   76.8560   15.8810 N   0  0  0  0  0  0  0  0  0  0  0  0
   20.7910   76.9950   14.4830 C   0  0  0  0  0  0  0  0  0  0  0  0
   19.8900   76.2850   13.9550 O   0  0  0  0  0  0  0  0  0  0  0  0
   20.7990   79.0310   16.7980 C   0  0  0  0  0  2  0  0  0  0  0  0
   19.6470   78.8490   17.7310 C   0  0  0  0  0  0  0  0  0  0  0  0
   20.1640   78.7020   18.9910 O   0  0  0  0  0  0  0  0  0  0  0  0
   20.9000   77.5670   19.2000 C   0  0  0  0  0  3  0  0  0  0  0  0
   21.8220   77.1600   18.1330 C   0  0  0  0  0  3  0  0  0  0  0  0
   18.8000   80.1280   17.7460 C   0  0  0  0  0  1  0  0  0  0  0  0
   18.7180   77.7350   17.3290 C   0  0  0  0  0  1  0  0  0  0  0  0
   20.6700   75.9380   16.2930 H   0  0  0  0  0  0  0  0  0  0  0  0
  1  2  1  0  0  0  0
  2  7  2  0  0  0  0
  2  3  1  0  0  0  0
  3  4  2  0  0  0  0
  4  5  1  0  0  0  0
  4 15  1  0  0  0  0
  5  8  1  0  0  0  0
  6  5  2  0  0  0  0
  7  6  1  0  0  0  0
  8  9  1  0  0  0  0
  8 12  1  0  0  0  0
  9 10  2  0  0  0  0
 10 11  1  0  0  0  0
 12 13  1  0  0  0  0
 12 11  2  0  0  0  0
 13 17  1  1  0  0  0
 13 21  1  0  0  0  0
 14 24  1  0  0  0  0
 14 13  1  0  0  0  0
 15 14  1  0  0  0  0
 16 15  2  0  0  0  0
 17 18  1  0  0  0  0
 18 22  1  0  0  0  0
 18 19  1  0  0  0  0
 19 20  1  0  0  0  0
 21 20  2  0  0  0  0
 23 18  1  0  0  0  0
M  END
>  <Pose>
1

>  <Score>
-9.733

$$$$
