/Users/jonathanwahrer/Desktop/Msc/3_Semester/Drug_Design_Praktikum/waehrer_HTS_screening/HTS_experiment/out/docking_results/vina_output/6e43/0592_docked.pdbqt
 OpenBabel03212220013D

 27 30  0  0  1  0  0  0  0  0999 V2000
   22.9910   80.8360   10.4610 Br  0  0  0  0  0  0  0  0  0  0  0  0
   22.1510   79.5900   11.6240 C   0  0  0  0  0  0  0  0  0  0  0  0
   22.4730   79.6040   12.9520 C   0  0  0  0  0  3  0  0  0  0  0  0
   21.8540   78.6860   13.8070 C   0  0  0  0  0  0  0  0  0  0  0  0
   20.9550   77.8130   13.2910 C   0  0  0  0  0  0  0  0  0  0  0  0
   20.6260   77.8010   11.9200 C   0  0  0  0  0  3  0  0  0  0  0  0
   21.2360   78.7040   11.0830 C   0  0  0  0  0  3  0  0  0  0  0  0
   20.3160   76.8860   14.0950 O   0  0  0  0  0  0  0  0  0  0  0  0
   20.6120   76.8650   15.4410 C   0  0  0  0  0  0  0  0  0  0  0  0
   21.4690   77.6780   16.0110 C   0  0  0  0  0  0  0  0  0  0  0  0
   22.1900   78.6870   15.2470 C   0  0  1  0  0  0  0  0  0  0  0  0
   23.6560   78.6320   15.4610 C   0  0  0  0  0  0  0  0  0  0  0  0
   24.0540   79.8020   16.0450 C   0  0  0  0  0  0  0  0  0  0  0  0
   25.4050   79.7480   16.2420 N   0  0  0  0  0  0  0  0  0  0  0  0
   25.8020   78.5740   15.7850 N   0  0  0  0  0  0  0  0  0  0  0  0
   24.7750   77.8630   15.3020 C   0  0  0  0  0  0  0  0  0  0  0  0
   24.9000   76.4950   14.7150 C   0  0  0  0  0  1  0  0  0  0  0  0
   22.9580   80.6670   16.2520 N   0  0  0  0  0  0  0  0  0  0  0  0
   21.8100   80.0150   15.7740 C   0  0  0  0  0  0  0  0  0  0  0  0
   20.6290   80.4550   15.7770 O   0  0  0  0  0  0  0  0  0  0  0  0
   21.7250   77.5950   17.4290 C   0  0  0  0  0  0  0  0  0  0  0  0
   21.9210   77.5450   18.5690 N   0  0  0  0  0  0  0  0  0  0  0  0
   26.8150   78.2830   15.8220 H   0  0  0  0  0  0  0  0  0  0  0  0
   23.0180   81.6440   16.6950 H   0  0  0  0  0  0  0  0  0  0  0  0
   19.9400   75.8960   16.2620 N   0  0  0  0  0  0  0  0  0  0  0  0
   19.7580   76.1120   17.2660 H   0  0  0  0  0  0  0  0  0  0  0  0
   19.6220   74.9730   15.8910 H   0  0  0  0  0  0  0  0  0  0  0  0
  1  2  1  0  0  0  0
  2  3  1  0  0  0  0
  3  4  2  0  0  0  0
  5  4  1  0  0  0  0
  5  8  1  0  0  0  0
  6  5  2  0  0  0  0
  7  2  2  0  0  0  0
  7  6  1  0  0  0  0
  8  9  1  0  0  0  0
  9 10  2  0  0  0  0
  9 25  1  0  0  0  0
 10 21  1  0  0  0  0
 11  4  1  6  0  0  0
 11 12  1  0  0  0  0
 11 19  1  0  0  0  0
 11 10  1  0  0  0  0
 12 13  1  0  0  0  0
 13 14  2  0  0  0  0
 13 18  1  0  0  0  0
 15 23  1  0  0  0  0
 15 14  1  0  0  0  0
 16 12  2  0  0  0  0
 16 15  1  0  0  0  0
 17 16  1  0  0  0  0
 18 24  1  0  0  0  0
 19 20  2  0  0  0  0
 19 18  1  0  0  0  0
 21 22  3  0  0  0  0
 25 26  1  0  0  0  0
 27 25  1  0  0  0  0
M  END
>  <Pose>
1

>  <Score>
-7.018

$$$$
