/Users/jonathanwahrer/Desktop/Msc/3_Semester/Drug_Design_Praktikum/waehrer_HTS_screening/HTS_experiment/out/docking_results/vina_output/6e43/0611_docked.pdbqt
 OpenBabel03212220023D

 33 36  0  0  0  0  0  0  0  0999 V2000
   19.0460   75.0330    7.7530 Br  0  0  0  0  0  0  0  0  0  0  0  0
   19.4200   75.7940    9.4670 C   0  0  0  0  0  0  0  0  0  0  0  0
   19.1380   75.1240   10.6440 C   0  0  0  0  0  3  0  0  0  0  0  0
   19.3950   75.6450   11.8940 C   0  0  0  0  0  0  0  0  0  0  0  0
   19.9640   76.9000   12.0090 C   0  0  0  0  0  0  0  0  0  0  0  0
   20.2170   77.4340   13.2290 N   0  0  0  0  0  0  0  0  0  0  0  0
   19.9370   76.7860   14.3720 C   0  0  0  0  0  0  0  0  0  0  0  0
   19.3850   75.5640   14.2620 N   0  0  0  0  0  0  0  0  0  0  0  0
   19.1120   74.9860   13.0680 C   0  0  0  0  0  0  0  0  0  0  0  0
   20.2480   77.5740   10.8420 C   0  0  0  0  0  3  0  0  0  0  0  0
   19.9860   77.0440    9.5840 C   0  0  0  0  0  3  0  0  0  0  0  0
   20.2180   77.3780   15.6350 N   0  0  0  0  0  4  0  0  0  0  0  0
   21.5730   77.8810   15.6820 C   0  0  0  0  0  2  0  0  0  0  0  0
   21.6760   78.8640   16.8050 C   0  0  0  0  0  2  0  0  0  0  0  0
   20.5230   78.7040   17.6680 N   0  0  0  0  0  0  0  0  0  0  0  0
   20.1330   77.3480   18.0100 C   0  0  0  0  0  2  0  0  0  0  0  0
   19.8490   79.8480   18.1250 C   0  0  0  0  0  0  0  0  0  0  0  0
   20.0450   76.4810   16.7480 C   0  0  0  0  0  2  0  0  0  0  0  0
   18.8500   79.6830   18.8690 O   0  0  0  0  0  0  0  0  0  0  0  0
   19.5520   78.1680   15.7580 H   0  0  0  0  0  0  0  0  0  0  0  0
   20.2680   81.2050   17.7660 C   0  0  0  0  0  2  0  0  0  0  0  0
   19.8960   82.1610   18.8620 C   0  0  0  0  0  2  0  0  0  0  0  0
   20.7000   83.4420   18.8150 C   0  0  0  0  0  2  0  0  0  0  0  0
   19.8660   84.6440   18.6210 C   0  0  0  0  0  0  0  0  0  0  0  0
   19.0110   84.9010   19.5010 O   0  0  0  0  0  1  0  0  0  0  0  0
   20.0420   85.4390   17.4990 O   0  0  0  0  0  0  0  0  0  0  0  0
   18.5120   73.6620   13.0070 C   0  0  0  0  0  0  0  0  0  0  0  0
   19.2370   72.5160   13.2920 C   0  0  0  0  0  0  0  0  0  0  0  0
   18.6830   71.2500   13.2180 C   0  0  0  0  0  3  0  0  0  0  0  0
   20.9230   72.6640   13.7630 Cl  0  0  0  0  0  0  0  0  0  0  0  0
   17.3390   71.1550   12.8410 C   0  0  0  0  0  3  0  0  0  0  0  0
   16.5890   72.2760   12.5510 C   0  0  0  0  0  3  0  0  0  0  0  0
   17.1750   73.4980   12.6350 C   0  0  0  0  0  3  0  0  0  0  0  0
  1  2  1  0  0  0  0
  2 11  2  0  0  0  0
  2  3  1  0  0  0  0
  3  4  2  0  0  0  0
  4  5  1  0  0  0  0
  4  9  1  0  0  0  0
  5  6  1  0  0  0  0
  6  7  2  0  0  0  0
  7 12  1  0  0  0  0
  8  7  1  0  0  0  0
  9  8  2  0  0  0  0
 10  5  2  0  0  0  0
 11 10  1  0  0  0  0
 12 13  1  0  0  0  0
 12 20  1  0  0  0  0
 12 18  1  0  0  0  0
 13 14  1  0  0  0  0
 14 15  1  0  0  0  0
 15 16  1  0  0  0  0
 15 17  1  0  0  0  0
 17 19  2  0  0  0  0
 18 16  1  0  0  0  0
 21 17  1  0  0  0  0
 21 22  1  0  0  0  0
 23 22  1  0  0  0  0
 24 23  1  0  0  0  0
 24 25  1  0  0  0  0
 26 24  2  0  0  0  0
 27  9  1  0  0  0  0
 27 28  1  0  0  0  0
 28 30  1  0  0  0  0
 29 28  2  0  0  0  0
 31 29  1  0  0  0  0
 32 33  1  0  0  0  0
 32 31  2  0  0  0  0
 33 27  2  0  0  0  0
M  END
>  <Pose>
1

>  <Score>
-10.798

$$$$
