/Users/jonathanwahrer/Desktop/Msc/3_Semester/Drug_Design_Praktikum/waehrer_HTS_screening/HTS_experiment/out/docking_results/vina_output/6e43/0617_docked.pdbqt
 OpenBabel03212220023D

 25 28  0  0  0  0  0  0  0  0999 V2000
   19.3140   84.0550   20.3100 Br  0  0  0  0  0  0  0  0  0  0  0  0
   19.5820   82.3190   19.5800 C   0  0  0  0  0  0  0  0  0  0  0  0
   20.3690   82.1220   18.4650 C   0  0  0  0  0  3  0  0  0  0  0  0
   20.5730   80.8690   17.9230 C   0  0  0  0  0  0  0  0  0  0  0  0
   19.9600   79.7900   18.5310 C   0  0  0  0  0  0  0  0  0  0  0  0
   20.3240   78.7150   17.8090 N   0  0  0  0  0  0  0  0  0  0  0  0
   21.1340   79.0710   16.7800 C   0  0  0  0  0  0  0  0  0  0  0  0
   21.3040   80.4380   16.8370 C   0  0  0  0  0  0  0  0  0  0  0  0
   22.0790   81.0270   15.9050 N   0  0  0  0  0  0  0  0  0  0  0  0
   22.6850   80.3230   14.9310 C   0  0  0  0  0  3  0  0  0  0  0  0
   22.5380   78.9940   14.8510 N   0  0  0  0  0  0  0  0  0  0  0  0
   21.7700   78.3880   15.7690 C   0  0  0  0  0  0  0  0  0  0  0  0
   21.6210   77.1410   15.7100 O   0  0  0  0  0  0  0  0  0  0  0  0
   19.1730   80.0020   19.6480 C   0  0  0  0  0  3  0  0  0  0  0  0
   18.9630   81.2510   20.1970 C   0  0  0  0  0  3  0  0  0  0  0  0
   20.0380   77.7360   17.9910 H   0  0  0  0  0  0  0  0  0  0  0  0
   23.1970   78.2170   13.7870 C   0  0  0  0  0  2  0  0  0  0  0  0
   23.3210   79.0290   12.5550 C   0  0  0  0  0  2  0  0  0  0  0  0
   22.3960   78.7600   11.5150 N   0  0  0  0  0  0  0  0  0  0  0  0
   22.5670   79.5280   10.3310 C   0  0  0  0  0  2  0  0  0  0  0  0
   21.6760   80.7360   10.2650 C   0  0  0  0  0  2  0  0  0  0  0  0
   20.3650   80.4910   10.8260 N   0  0  0  0  0  0  0  0  0  0  0  0
   20.0980   79.0660   10.9380 C   0  0  0  0  0  2  0  0  0  0  0  0
   20.2310   80.9680   11.7470 H   0  0  0  0  0  0  0  0  0  0  0  0
   21.0690   78.5290   11.9610 C   0  0  0  0  0  2  0  0  0  0  0  0
  2 15  1  0  0  0  0
  2  1  1  0  0  0  0
  3  2  2  0  0  0  0
  4  3  1  0  0  0  0
  4  5  2  0  0  0  0
  5 14  1  0  0  0  0
  6 16  1  0  0  0  0
  6  5  1  0  0  0  0
  7  8  2  0  0  0  0
  7  6  1  0  0  0  0
  8  4  1  0  0  0  0
  9  8  1  0  0  0  0
 10  9  2  0  0  0  0
 11 10  1  0  0  0  0
 11 12  1  0  0  0  0
 12  7  1  0  0  0  0
 13 12  2  0  0  0  0
 14 15  2  0  0  0  0
 17 11  1  0  0  0  0
 18 17  1  0  0  0  0
 19 25  1  0  0  0  0
 19 18  1  0  0  0  0
 20 19  1  0  0  0  0
 21 20  1  0  0  0  0
 21 22  1  0  0  0  0
 22 23  1  0  0  0  0
 22 24  1  0  0  0  0
 23 25  1  0  0  0  0
M  END
>  <Pose>
1

>  <Score>
-8.858

$$$$
