/Users/jonathanwahrer/Desktop/Msc/3_Semester/Drug_Design_Praktikum/waehrer_HTS_screening/HTS_experiment/out/docking_results/vina_output/6e43/0624_docked.pdbqt
 OpenBabel03212220023D

 22 25  0  0  0  0  0  0  0  0999 V2000
   19.9870   82.8080   19.5710 Br  0  0  0  0  0  0  0  0  0  0  0  0
   20.3470   81.2460   18.5420 C   0  0  0  0  0  0  0  0  0  0  0  0
   19.8410   80.0360   18.9690 C   0  0  0  0  0  3  0  0  0  0  0  0
   20.0880   78.8690   18.2340 C   0  0  0  0  0  0  0  0  0  0  0  0
   20.8320   78.9690   17.1030 C   0  0  0  0  0  0  0  0  0  0  0  0
   21.3570   80.1550   16.6370 C   0  0  0  0  0  0  0  0  0  0  0  0
   21.1030   81.2830   17.3730 C   0  0  0  0  0  3  0  0  0  0  0  0
   22.0900   80.1110   15.4810 C   0  0  0  0  0  0  0  0  0  0  0  0
   22.5690   81.1730   15.0500 O   0  0  0  0  0  0  0  0  0  0  0  0
   22.3140   78.9360   14.7800 C   0  0  0  0  0  0  0  0  0  0  0  0
   21.7600   77.7850   15.2990 C   0  0  0  0  0  3  0  0  0  0  0  0
   21.0250   77.8180   16.4570 N   0  0  0  0  0  0  0  0  0  0  0  0
   20.3470   76.7850   17.2070 C   0  0  0  0  0  3  0  0  0  0  0  0
   19.7140   77.4540   18.3960 C   0  0  0  0  0  3  0  0  0  0  0  0
   23.0960   78.9070   13.5480 C   0  0  0  0  0  0  0  0  0  0  0  0
   24.3420   79.0130   13.6140 O   0  0  0  0  0  0  0  0  0  0  0  0
   22.4540   78.7600   12.2740 N   0  0  0  0  0  0  0  0  0  0  0  0
   23.2060   78.7290   11.0380 C   0  0  0  0  0  2  0  0  0  0  0  0
   21.0130   78.6370   12.1730 C   0  0  0  0  0  2  0  0  0  0  0  0
   22.5910   79.8110   10.1400 C   0  0  0  0  0  2  0  0  0  0  0  0
   21.2360   79.6070   10.0470 O   0  0  0  0  0  0  0  0  0  0  0  0
   20.5570   79.7600   11.2380 C   0  0  0  0  0  2  0  0  0  0  0  0
  2  3  1  0  0  0  0
  2  1  1  0  0  0  0
  4 14  1  0  0  0  0
  4  3  2  0  0  0  0
  5  4  1  0  0  0  0
  6  5  2  0  0  0  0
  6  7  1  0  0  0  0
  7  2  2  0  0  0  0
  8  6  1  0  0  0  0
  9  8  2  0  0  0  0
 10 11  2  0  0  0  0
 10  8  1  0  0  0  0
 11 12  1  0  0  0  0
 12  5  1  0  0  0  0
 12 13  1  0  0  0  0
 13 14  2  0  0  0  0
 15 16  2  0  0  0  0
 15 10  1  0  0  0  0
 17 15  1  0  0  0  0
 18 17  1  0  0  0  0
 19 17  1  0  0  0  0
 20 18  1  0  0  0  0
 21 20  1  0  0  0  0
 21 22  1  0  0  0  0
 22 19  1  0  0  0  0
M  END
>  <Pose>
1

>  <Score>
-8.824

$$$$
