/Users/jonathanwahrer/Desktop/Msc/3_Semester/Drug_Design_Praktikum/waehrer_HTS_screening/HTS_experiment/out/docking_results/vina_output/6e43/0662_docked.pdbqt
 OpenBabel03212220033D

 25 29  0  0  0  0  0  0  0  0999 V2000
   19.9580   75.9160   14.1140 C   0  0  0  0  0  0  0  0  0  0  0  0
   19.7050   76.2290   12.8330 N   0  0  0  0  0  0  0  0  0  0  0  0
   19.1150   75.2050   12.2170 N   0  0  0  0  0  0  0  0  0  0  0  0
   18.9830   74.2010   13.1310 C   0  0  0  0  0  0  0  0  0  0  0  0
   19.5070   74.6620   14.2830 N   0  0  0  0  0  0  0  0  0  0  0  0
   18.3930   73.0220   12.7280 C   0  0  0  0  0  0  0  0  0  0  0  0
   17.9330   72.8200   11.4390 C   0  0  0  0  0  0  0  0  0  0  0  0
   17.4120   71.5850   11.3450 N   0  0  0  0  0  0  0  0  0  0  0  0
   17.5350   71.0180   12.5350 N   0  0  0  0  0  0  0  0  0  0  0  0
   18.1290   71.8610   13.4050 C   0  0  0  0  0  3  0  0  0  0  0  0
   18.0850   73.8360   10.5750 N   0  0  0  0  0  0  0  0  0  0  0  0
   18.6590   74.9830   10.9710 C   0  0  0  0  0  3  0  0  0  0  0  0
   16.9850   71.1320   10.5090 H   0  0  0  0  0  0  0  0  0  0  0  0
   20.5940   76.7800   15.1070 C   0  0  0  0  0  0  0  0  0  0  0  0
   20.5280   76.6950   16.4470 N   0  0  0  0  0  0  0  0  0  0  0  0
   21.2340   77.6540   17.0200 N   0  0  0  0  0  0  0  0  0  0  0  0
   21.7980   78.4120   16.0650 C   0  0  0  0  0  3  0  0  0  0  0  0
   21.3990   77.8690   14.8480 C   0  0  0  0  0  3  0  0  0  0  0  0
   21.3770   77.8530   18.4650 C   0  0  0  0  0  2  0  0  0  0  0  0
   20.5260   78.9250   18.9380 N   0  0  0  0  0  0  0  0  0  0  0  0
   20.8540   80.2250   19.0100 C   0  0  0  0  0  3  0  0  0  0  0  0
   19.7710   80.9160   19.5130 C   0  0  0  0  0  0  0  0  0  0  0  0
   19.6660   82.7780   19.8290 Br  0  0  0  0  0  0  0  0  0  0  0  0
   18.7840   79.9830   19.7400 C   0  0  0  0  0  3  0  0  0  0  0  0
   19.2880   78.7820   19.3750 N   0  0  0  0  0  0  0  0  0  0  0  0
  1  5  1  0  0  0  0
  1 14  1  0  0  0  0
  2  1  2  0  0  0  0
  3  2  1  0  0  0  0
  3  4  1  0  0  0  0
  4  5  2  0  0  0  0
  6  4  1  0  0  0  0
  6 10  1  0  0  0  0
  7  6  2  0  0  0  0
  8  7  1  0  0  0  0
  8  9  1  0  0  0  0
  9 10  2  0  0  0  0
 11 12  2  0  0  0  0
 11  7  1  0  0  0  0
 12  3  1  0  0  0  0
 13  8  1  0  0  0  0
 14 15  2  0  0  0  0
 15 16  1  0  0  0  0
 16 19  1  0  0  0  0
 17 16  1  0  0  0  0
 18 14  1  0  0  0  0
 18 17  2  0  0  0  0
 19 20  1  0  0  0  0
 20 21  1  0  0  0  0
 20 25  1  0  0  0  0
 21 22  2  0  0  0  0
 22 24  1  0  0  0  0
 22 23  1  0  0  0  0
 25 24  2  0  0  0  0
M  END
>  <Pose>
1

>  <Score>
-9.298

$$$$
