/Users/jonathanwahrer/Desktop/Msc/3_Semester/Drug_Design_Praktikum/waehrer_HTS_screening/HTS_experiment/out/docking_results/vina_output/6e43/0663_docked.pdbqt
 OpenBabel03212220043D

 28 31  0  0  1  0  0  0  0  0999 V2000
   22.9980   78.2270   14.6870 C   0  0  0  0  0  0  0  0  0  0  0  0
   23.6900   77.1520   14.8910 O   0  0  0  0  0  0  0  0  0  0  0  0
   23.0020   79.1490   15.7200 N   0  0  0  0  0  0  0  0  0  0  0  0
   22.4090   80.4530   15.8350 C   0  0  0  0  0  2  0  0  0  0  0  0
   21.1350   80.2940   16.6420 C   0  0  0  0  0  2  0  0  0  0  0  0
   21.3320   79.2730   17.7450 C   0  0  1  0  0  0  0  0  0  0  0  0
   20.6270   79.7610   18.9100 N   0  0  0  0  0  0  0  0  0  0  0  0
   19.2710   79.3550   18.8010 C   0  0  0  0  0  0  0  0  0  0  0  0
   18.2550   79.8430   19.3940 O   0  0  0  0  0  0  0  0  0  0  0  0
   19.2450   78.2580   17.8730 N   0  0  0  0  0  0  0  0  0  0  0  0
   20.6030   78.0290   17.4400 C   0  0  0  0  0  0  0  0  0  0  0  0
   21.0050   76.9650   16.9210 O   0  0  0  0  0  0  0  0  0  0  0  0
   22.7660   79.0630   18.1120 C   0  0  0  0  0  2  0  0  0  0  0  0
   23.6920   78.7480   16.9870 C   0  0  0  0  0  2  0  0  0  0  0  0
   21.0030   80.3120   19.7060 H   0  0  0  0  0  0  0  0  0  0  0  0
   18.4300   77.6990   17.5390 H   0  0  0  0  0  0  0  0  0  0  0  0
   22.3380   78.2740   13.4020 C   0  0  0  0  0  0  0  0  0  0  0  0
   21.0870   77.6420   13.2460 C   0  0  0  0  0  3  0  0  0  0  0  0
   20.3820   77.6760   12.0720 C   0  0  0  0  0  3  0  0  0  0  0  0
   20.8510   78.3340   10.9620 C   0  0  0  0  0  0  0  0  0  0  0  0
   22.0630   78.9570   11.0860 C   0  0  0  0  0  3  0  0  0  0  0  0
   22.7950   78.9310   12.2840 C   0  0  0  0  0  3  0  0  0  0  0  0
   20.0980   78.3520    9.7580 N   0  0  0  0  0  0  0  0  0  0  0  0
   18.8310   78.7630    9.5660 C   0  0  0  0  0  3  0  0  0  0  0  0
   18.4960   78.6060    8.2390 C   0  0  0  0  0  0  0  0  0  0  0  0
   16.8160   79.0300    7.4000 Br  0  0  0  0  0  0  0  0  0  0  0  0
   19.6190   78.0820    7.6370 C   0  0  0  0  0  3  0  0  0  0  0  0
   20.5430   77.9500    8.5860 N   0  0  0  0  0  0  0  0  0  0  0  0
  1  2  2  0  0  0  0
  1  3  1  0  0  0  0
  3  4  1  0  0  0  0
  3 14  1  0  0  0  0
  4  5  1  0  0  0  0
  6  5  1  6  0  0  0
  6 13  1  0  0  0  0
  6  7  1  0  0  0  0
  7 15  1  0  0  0  0
  8  7  1  0  0  0  0
  8  9  2  0  0  0  0
 10  8  1  0  0  0  0
 11  6  1  0  0  0  0
 11 10  1  0  0  0  0
 12 11  2  0  0  0  0
 14 13  1  0  0  0  0
 16 10  1  0  0  0  0
 17  1  1  0  0  0  0
 18 17  1  0  0  0  0
 19 18  2  0  0  0  0
 20 21  2  0  0  0  0
 20 19  1  0  0  0  0
 21 22  1  0  0  0  0
 22 17  2  0  0  0  0
 23 20  1  0  0  0  0
 24 23  1  0  0  0  0
 25 24  2  0  0  0  0
 26 25  1  0  0  0  0
 27 25  1  0  0  0  0
 27 28  2  0  0  0  0
 28 23  1  0  0  0  0
M  END
>  <Pose>
1

>  <Score>
-9.804

$$$$
