/Users/jonathanwahrer/Desktop/Msc/3_Semester/Drug_Design_Praktikum/waehrer_HTS_screening/HTS_experiment/out/docking_results/vina_output/6e43/0670_docked.pdbqt
 OpenBabel03212220043D

 23 27  0  0  1  0  0  0  0  0999 V2000
   22.3980   78.4830   17.1090 C   0  0  0  0  0  2  0  0  0  0  0  0
   21.7520   78.3270   15.7690 C   0  0  1  0  0  3  0  0  0  0  0  0
   21.9630   79.4710   14.7970 C   0  0  2  0  0  3  0  0  0  0  0  0
   21.9340   78.4620   13.7780 N   0  0  0  0  0  0  0  0  0  0  0  0
   22.5980   77.6110   14.7230 C   0  0  2  0  0  3  0  0  0  0  0  0
   21.4670   78.3690   12.4620 C   0  0  0  0  0  0  0  0  0  0  0  0
   20.2820   77.8190   12.1190 N   0  0  0  0  0  0  0  0  0  0  0  0
   19.8190   77.7210   10.8800 C   0  0  0  0  0  3  0  0  0  0  0  0
   20.5730   78.2050    9.8350 C   0  0  0  0  0  0  0  0  0  0  0  0
   19.9330   78.0790    8.0360 Br  0  0  0  0  0  0  0  0  0  0  0  0
   21.7890   78.7750   10.1440 C   0  0  0  0  0  3  0  0  0  0  0  0
   22.2090   78.8480   11.4200 N   0  0  0  0  0  0  0  0  0  0  0  0
   21.3900   78.9160   18.0400 N   0  0  0  0  0  0  0  0  0  0  0  0
   21.1680   80.2760   18.2580 N   0  0  0  0  0  0  0  0  0  0  0  0
   20.1840   80.7510   19.1670 C   0  0  0  0  0  0  0  0  0  0  0  0
   21.7720   80.9540   17.7080 H   0  0  0  0  0  0  0  0  0  0  0  0
   20.0150   82.0480   19.3340 C   0  0  0  0  0  0  0  0  0  0  0  0
   19.3640   79.8150   19.9120 C   0  0  0  0  0  3  0  0  0  0  0  0
   20.2760   83.4830   19.1070 C   0  0  0  0  0  2  0  0  0  0  0  0
   19.2360   83.1280   20.0590 C   0  0  0  0  0  2  0  0  0  0  0  0
   19.5580   78.5200   19.7220 C   0  0  0  0  0  3  0  0  0  0  0  0
   20.5770   78.0160   18.7790 C   0  0  0  0  0  0  0  0  0  0  0  0
   20.7420   76.7780   18.6170 O   0  0  0  0  0  0  0  0  0  0  0  0
  1 13  1  0  0  0  0
  2  1  1  1  0  0  0
  3  4  1  6  0  0  0
  3  2  1  0  0  0  0
  5  4  1  6  0  0  0
  5  3  1  0  0  0  0
  5  2  1  0  0  0  0
  6  4  1  0  0  0  0
  7  6  2  0  0  0  0
  8  7  1  0  0  0  0
  9 11  1  0  0  0  0
  9  8  2  0  0  0  0
 10  9  1  0  0  0  0
 11 12  2  0  0  0  0
 12  6  1  0  0  0  0
 13 14  1  0  0  0  0
 13 22  1  0  0  0  0
 14 15  1  0  0  0  0
 15 17  2  0  0  0  0
 15 18  1  0  0  0  0
 16 14  1  0  0  0  0
 17 20  1  0  0  0  0
 19 17  1  0  0  0  0
 19 20  1  0  0  0  0
 21 18  2  0  0  0  0
 22 21  1  0  0  0  0
 23 22  2  0  0  0  0
M  END
>  <Pose>
1

>  <Score>
-8.812

$$$$
