/Users/jonathanwahrer/Desktop/Msc/3_Semester/Drug_Design_Praktikum/waehrer_HTS_screening/HTS_experiment/out/docking_results/vina_output/6e43/0680_docked.pdbqt
 OpenBabel03212220043D

 24 27  0  0  1  0  0  0  0  0999 V2000
   21.5900   79.6480   11.0860 C   0  0  0  0  0  0  0  0  0  0  0  0
   22.2410   80.5910   10.5030 O   0  0  0  0  0  0  0  0  0  0  0  0
   21.8900   79.3970   12.4380 N   0  0  0  0  0  0  0  0  0  0  0  0
   21.5070   78.5110   13.4930 C   0  0  0  0  0  2  0  0  0  0  0  0
   22.9100   78.7260   14.0890 C   0  0  1  0  0  3  0  0  0  0  0  0
   22.7980   80.0390   13.4110 C   0  0  0  0  0  2  0  0  0  0  0  0
   22.8880   78.7150   15.5250 N   0  0  0  0  0  0  0  0  0  0  0  0
   23.3570   77.6880   16.4190 C   0  0  0  0  0  0  0  0  0  0  0  0
   24.2340   76.8520   16.1420 O   0  0  0  0  0  0  0  0  0  0  0  0
   22.5720   77.8710   17.6890 C   0  0  1  0  0  3  0  0  0  0  0  0
   22.5340   79.3790   17.7610 C   0  0  2  0  0  3  0  0  0  0  0  0
   21.2410   77.2360   17.4740 C   0  0  0  0  0  2  0  0  0  0  0  0
   21.4090   79.8560   18.6370 C   0  0  0  0  0  2  0  0  0  0  0  0
   22.3780   79.7620   16.3450 C   0  0  0  0  0  0  0  0  0  0  0  0
   20.1140   79.3560   18.1010 C   0  0  0  0  0  3  0  0  0  0  0  0
   20.0920   78.1470   17.5790 C   0  0  0  0  0  3  0  0  0  0  0  0
   21.8680   80.8490   15.9770 O   0  0  0  0  0  0  0  0  0  0  0  0
   20.6240   78.9650   10.2600 C   0  0  0  0  0  0  0  0  0  0  0  0
   19.4340   79.6030    9.8840 C   0  0  0  0  0  3  0  0  0  0  0  0
   18.5000   79.0100    9.1330 N   0  0  0  0  0  0  0  0  0  0  0  0
   18.6630   77.7380    8.6870 C   0  0  0  0  0  3  0  0  0  0  0  0
   19.8010   77.0380    9.0080 C   0  0  0  0  0  0  0  0  0  0  0  0
   20.0060   75.2550    8.3730 Br  0  0  0  0  0  0  0  0  0  0  0  0
   20.7500   77.6770    9.7890 C   0  0  0  0  0  3  0  0  0  0  0  0
  1  3  1  0  0  0  0
  2  1  2  0  0  0  0
  3  6  1  0  0  0  0
  3  4  1  0  0  0  0
  4  5  1  0  0  0  0
  5  6  1  1  0  0  0
  5  7  1  0  0  0  0
  7 14  1  0  0  0  0
  7  8  1  0  0  0  0
  8 10  1  0  0  0  0
  9  8  2  0  0  0  0
 10 12  1  6  0  0  0
 10 11  1  0  0  0  0
 11 13  1  1  0  0  0
 12 16  1  0  0  0  0
 14 11  1  0  0  0  0
 15 13  1  0  0  0  0
 16 15  2  0  0  0  0
 17 14  2  0  0  0  0
 18  1  1  0  0  0  0
 19 18  1  0  0  0  0
 20 19  2  0  0  0  0
 21 22  2  0  0  0  0
 21 20  1  0  0  0  0
 22 24  1  0  0  0  0
 23 22  1  0  0  0  0
 24 18  2  0  0  0  0
M  END
>  <Pose>
1

>  <Score>
-9.640

$$$$
