/Users/jonathanwahrer/Desktop/Msc/3_Semester/Drug_Design_Praktikum/waehrer_HTS_screening/HTS_experiment/out/docking_results/vina_output/6e43/0681_docked.pdbqt
 OpenBabel03212220043D

 25 28  0  0  1  0  0  0  0  0999 V2000
   21.2820   77.7540   17.5910 C   0  0  0  0  0  0  0  0  0  0  0  0
   20.7560   76.6180   17.8030 O   0  0  0  0  0  0  0  0  0  0  0  0
   20.8300   78.8520   18.3340 N   0  0  0  0  0  0  0  0  0  0  0  0
   21.0680   80.2610   18.4980 C   0  0  0  0  0  2  0  0  0  0  0  0
   20.1610   80.3370   19.7180 C   0  0  2  0  0  3  0  0  0  0  0  0
   19.7650   78.9380   19.3530 C   0  0  0  0  0  2  0  0  0  0  0  0
   19.1470   81.2920   19.6910 O   0  0  0  0  0  0  0  0  0  0  0  0
   19.2200   82.5700   20.2070 C   0  0  2  0  0  3  0  0  0  0  0  0
   18.8740   82.7920   21.4720 C   0  0  0  0  0  3  0  0  0  0  0  0
   18.9290   84.1180   22.0740 C   0  0  0  0  0  0  0  0  0  0  0  0
   18.5800   84.3030   23.3350 C   0  0  0  0  0  1  0  0  0  0  0  0
   19.3690   85.1930   21.2560 N   0  0  0  0  0  0  0  0  0  0  0  0
   19.7350   84.9230   19.8940 C   0  0  0  0  0  0  0  0  0  0  0  0
   19.4130   86.1380   21.6730 H   0  0  0  0  0  0  0  0  0  0  0  0
   19.6620   83.6790   19.3990 N   0  0  0  0  0  0  0  0  0  0  0  0
   20.1700   85.7210   18.9140 N   0  0  0  0  0  0  0  0  0  0  0  0
   20.0500   83.7020   18.1200 N   0  0  0  0  0  0  0  0  0  0  0  0
   20.3620   84.9690   17.8260 C   0  0  0  0  0  3  0  0  0  0  0  0
   22.3170   77.8440   16.5910 C   0  0  0  0  0  0  0  0  0  0  0  0
   22.1950   77.5470   15.2570 C   0  0  0  0  0  3  0  0  0  0  0  0
   23.2260   77.6680   14.3710 N   0  0  0  0  0  0  0  0  0  0  0  0
   24.4410   78.0890   14.7400 C   0  0  0  0  0  3  0  0  0  0  0  0
   24.6260   78.4040   16.0670 C   0  0  0  0  0  0  0  0  0  0  0  0
   26.3590   79.0130   16.6320 Br  0  0  0  0  0  0  0  0  0  0  0  0
   23.5990   78.2860   16.9690 C   0  0  0  0  0  3  0  0  0  0  0  0
  1  2  2  0  0  0  0
  1  3  1  0  0  0  0
  3  4  1  0  0  0  0
  3  6  1  0  0  0  0
  4  5  1  0  0  0  0
  5  7  1  6  0  0  0
  6  5  1  0  0  0  0
  8  7  1  6  0  0  0
  8  9  1  0  0  0  0
  9 10  2  0  0  0  0
 10 11  1  0  0  0  0
 12 14  1  0  0  0  0
 12 10  1  0  0  0  0
 13 12  1  0  0  0  0
 15 13  1  0  0  0  0
 15  8  1  0  0  0  0
 16 13  2  0  0  0  0
 17 15  1  0  0  0  0
 18 17  2  0  0  0  0
 18 16  1  0  0  0  0
 19 25  1  0  0  0  0
 19  1  1  0  0  0  0
 20 19  2  0  0  0  0
 21 22  2  0  0  0  0
 21 20  1  0  0  0  0
 22 23  1  0  0  0  0
 23 24  1  0  0  0  0
 23 25  2  0  0  0  0
M  END
>  <Pose>
1

>  <Score>
-9.412

$$$$
