/Users/jonathanwahrer/Desktop/Msc/3_Semester/Drug_Design_Praktikum/waehrer_HTS_screening/HTS_experiment/out/docking_results/vina_output/6e43/0684_docked.pdbqt
 OpenBabel03212220043D

 10 10  0  0  0  0  0  0  0  0999 V2000
   21.1230   82.3340   23.3510 Br  0  0  0  0  0  0  0  0  0  0  0  0
   20.0570   83.2640   22.0740 C   0  0  0  0  0  0  0  0  0  0  0  0
   18.8610   83.8580   22.4130 C   0  0  0  0  0  3  0  0  0  0  0  0
   18.1040   84.5160   21.5170 N   0  0  0  0  0  0  0  0  0  0  0  0
   18.5300   84.5960   20.2480 C   0  0  0  0  0  3  0  0  0  0  0  0
   19.7140   84.0300   19.8300 C   0  0  0  0  0  0  0  0  0  0  0  0
   20.4660   83.3650   20.7630 C   0  0  0  0  0  3  0  0  0  0  0  0
   20.1640   84.1270   18.4470 C   0  0  0  0  0  0  0  0  0  0  0  0
   20.5610   83.0960   17.8510 O   0  0  0  0  0  1  0  0  0  0  0  0
   20.1350   85.3690   17.8310 O   0  0  0  0  0  0  0  0  0  0  0  0
  2  3  1  0  0  0  0
  2  1  1  0  0  0  0
  4  3  2  0  0  0  0
  5  4  1  0  0  0  0
  6  5  2  0  0  0  0
  6  7  1  0  0  0  0
  7  2  2  0  0  0  0
  8  6  1  0  0  0  0
  9  8  1  0  0  0  0
 10  8  2  0  0  0  0
M  END
>  <Pose>
1

>  <Score>
-6.012

$$$$
