/Users/jonathanwahrer/Desktop/Msc/3_Semester/Drug_Design_Praktikum/waehrer_HTS_screening/HTS_experiment/out/docking_results/vina_output/6e43/0695_docked.pdbqt
 OpenBabel03212220053D

 22 25  0  0  0  0  0  0  0  0999 V2000
   19.0920   80.1300   19.6310 C   0  0  0  0  0  2  0  0  0  0  0  0
   19.8110   79.3410   18.5990 C   0  0  0  0  0  0  0  0  0  0  0  0
   19.2020   78.4080   17.7920 C   0  0  0  0  0  3  0  0  0  0  0  0
   19.9020   77.6770   16.8300 C   0  0  0  0  0  0  0  0  0  0  0  0
   21.2500   77.8710   16.6530 C   0  0  0  0  0  0  0  0  0  0  0  0
   19.5220   76.6980   15.9100 O   0  0  0  0  0  0  0  0  0  0  0  0
   21.8690   78.8040   17.4570 C   0  0  0  0  0  0  0  0  0  0  0  0
   21.6730   77.0110   15.6330 O   0  0  0  0  0  0  0  0  0  0  0  0
   23.7550   79.0740   17.2090 Br  0  0  0  0  0  0  0  0  0  0  0  0
   21.1830   79.5300   18.4100 C   0  0  0  0  0  3  0  0  0  0  0  0
   20.5040   76.6990   14.8620 C   0  0  0  0  0  2  0  0  0  0  0  0
   20.0250   81.0000   20.3050 N   0  0  0  0  0  0  0  0  0  0  0  0
   20.9350   80.6600   20.6600 H   0  0  0  0  0  0  0  0  0  0  0  0
   19.6650   82.3830   20.4810 C   0  0  0  0  0  0  0  0  0  0  0  0
   19.0160   82.7940   21.5780 N   0  0  0  0  0  0  0  0  0  0  0  0
   18.6830   84.0880   21.7350 C   0  0  0  0  0  3  0  0  0  0  0  0
   19.0010   85.0380   20.7700 C   0  0  0  0  0  3  0  0  0  0  0  0
   19.6480   84.6220   19.6810 N   0  0  0  0  0  0  0  0  0  0  0  0
   19.9850   83.3160   19.5190 C   0  0  0  0  0  0  0  0  0  0  0  0
   20.0980   85.2500   18.5800 C   0  0  0  0  0  3  0  0  0  0  0  0
   20.6190   83.2010   18.3410 N   0  0  0  0  0  0  0  0  0  0  0  0
   20.6950   84.3850   17.7560 N   0  0  0  0  0  0  0  0  0  0  0  0
  1 12  1  0  0  0  0
  2  1  1  0  0  0  0
  3  2  2  0  0  0  0
  4  3  1  0  0  0  0
  5  4  2  0  0  0  0
  5  7  1  0  0  0  0
  6  4  1  0  0  0  0
  7 10  2  0  0  0  0
  8  5  1  0  0  0  0
  9  7  1  0  0  0  0
 10  2  1  0  0  0  0
 11  8  1  0  0  0  0
 11  6  1  0  0  0  0
 12 14  1  0  0  0  0
 12 13  1  0  0  0  0
 14 15  2  0  0  0  0
 15 16  1  0  0  0  0
 17 16  2  0  0  0  0
 18 17  1  0  0  0  0
 19 18  1  0  0  0  0
 19 14  1  0  0  0  0
 20 18  1  0  0  0  0
 21 19  2  0  0  0  0
 22 21  1  0  0  0  0
 22 20  2  0  0  0  0
M  END
>  <Pose>
1

>  <Score>
-8.809

$$$$
