/Users/jonathanwahrer/Desktop/Msc/3_Semester/Drug_Design_Praktikum/waehrer_HTS_screening/HTS_experiment/out/docking_results/vina_output/6e43/0696_docked.pdbqt
 OpenBabel03212220053D

 28 31  0  0  1  0  0  0  0  0999 V2000
   18.5740   74.4920   13.1040 Br  0  0  0  0  0  0  0  0  0  0  0  0
   19.5680   76.0550   12.6900 C   0  0  0  0  0  0  0  0  0  0  0  0
   20.3610   76.6440   13.6840 C   0  0  0  0  0  0  0  0  0  0  0  0
   21.1020   77.7610   13.4430 C   0  0  0  0  0  0  0  0  0  0  0  0
   21.0620   78.3220   12.1790 C   0  0  0  0  0  3  0  0  0  0  0  0
   20.2770   77.7440   11.1870 C   0  0  0  0  0  0  0  0  0  0  0  0
   19.5310   76.6160   11.4330 C   0  0  0  0  0  3  0  0  0  0  0  0
   20.2060   78.3180    9.8130 C   0  0  0  0  0  1  0  0  0  0  0  0
   21.9700   78.3440   14.5020 C   0  0  1  0  0  3  0  0  0  0  0  0
   21.5140   78.1750   15.9070 C   0  0  0  0  0  0  0  0  0  0  0  0
   20.3720   77.1350   16.0000 C   0  0  0  0  0  2  0  0  0  0  0  0
   20.4600   76.1550   14.9790 O   0  0  0  0  0  0  0  0  0  0  0  0
   20.8710   79.4250   16.4750 C   0  0  0  0  0  2  0  0  0  0  0  0
   20.3420   79.2760   17.8140 N   0  0  0  0  0  4  0  0  0  0  0  0
   18.9610   79.7560   17.8500 C   0  0  0  0  0  2  0  0  0  0  0  0
   18.6510   80.1370   19.2500 C   0  0  0  0  0  2  0  0  0  0  0  0
   19.9690   80.0730   19.9450 C   0  0  0  0  0  2  0  0  0  0  0  0
   20.9420   80.1960   18.7650 C   0  0  0  0  0  2  0  0  0  0  0  0
   20.4260   78.3330   18.2220 H   0  0  0  0  0  0  0  0  0  0  0  0
   22.5680   77.6120   16.7840 C   0  0  0  0  0  2  0  0  0  0  0  0
   23.7190   78.1860   17.2570 N   0  0  0  0  0  4  0  0  0  0  0  0
   24.8930   77.3720   16.8690 C   0  0  0  0  0  2  0  0  0  0  0  0
   26.0050   78.3180   16.6340 C   0  0  0  0  0  2  0  0  0  0  0  0
   25.3890   79.6240   16.3050 C   0  0  0  0  0  2  0  0  0  0  0  0
   24.0040   79.5250   16.9410 C   0  0  0  0  0  2  0  0  0  0  0  0
   23.8030   78.0670   18.3600 H   0  0  0  0  0  0  0  0  0  0  0  0
   23.2270   77.7320   14.2360 O   0  0  0  0  0  0  0  0  0  0  0  0
   23.5490   77.9590   13.3470 H   0  0  0  0  0  0  0  0  0  0  0  0
  2  1  1  0  0  0  0
  2  3  1  0  0  0  0
  3 12  1  0  0  0  0
  4  3  2  0  0  0  0
  4  9  1  0  0  0  0
  5  4  1  0  0  0  0
  6  7  1  0  0  0  0
  6  5  2  0  0  0  0
  7  2  2  0  0  0  0
  8  6  1  0  0  0  0
  9 27  1  1  0  0  0
  9 10  1  0  0  0  0
 10 11  1  0  0  0  0
 10 13  1  0  0  0  0
 10 20  1  0  0  0  0
 12 11  1  0  0  0  0
 13 14  1  0  0  0  0
 14 15  1  0  0  0  0
 14 19  1  0  0  0  0
 14 18  1  0  0  0  0
 15 16  1  0  0  0  0
 16 17  1  0  0  0  0
 18 17  1  0  0  0  0
 20 21  1  0  0  0  0
 21 26  1  0  0  0  0
 22 21  1  0  0  0  0
 23 22  1  0  0  0  0
 24 23  1  0  0  0  0
 24 25  1  0  0  0  0
 25 21  1  0  0  0  0
 28 27  1  0  0  0  0
M  END
>  <Pose>
1

>  <Score>
-9.052

$$$$
