/Users/jonathanwahrer/Desktop/Msc/3_Semester/Drug_Design_Praktikum/waehrer_HTS_screening/HTS_experiment/out/docking_results/vina_output/6e43/0706_docked.pdbqt
 OpenBabel03212220053D

 30 33  0  0  0  0  0  0  0  0999 V2000
   20.4460   77.9800    9.4410 C   0  0  0  0  0  2  0  0  0  0  0  0
   19.1900   78.3190    8.8620 N   0  0  0  0  0  0  0  0  0  0  0  0
   18.4790   79.4000    9.2340 C   0  0  0  0  0  0  0  0  0  0  0  0
   18.9600   80.7050   10.5700 Br  0  0  0  0  0  0  0  0  0  0  0  0
   17.3580   79.3980    8.4910 N   0  0  0  0  0  0  0  0  0  0  0  0
   17.3520   78.3430    7.6660 C   0  0  0  0  0  0  0  0  0  0  0  0
   18.5250   77.6540    7.9040 C   0  0  0  0  0  0  0  0  0  0  0  0
   16.4990   77.8670    6.7360 N   0  0  0  0  0  0  0  0  0  0  0  0
   18.7320   76.5120    7.1600 C   0  0  0  0  0  0  0  0  0  0  0  0
   17.8750   76.0460    6.2350 N   0  0  0  0  0  0  0  0  0  0  0  0
   19.7850   75.8720    7.3610 O   0  0  0  0  0  0  0  0  0  0  0  0
   16.7420   76.7420    6.0270 C   0  0  0  0  0  0  0  0  0  0  0  0
   18.1130   74.8420    5.4630 C   0  0  0  0  0  1  0  0  0  0  0  0
   15.9140   76.3300    5.1620 O   0  0  0  0  0  0  0  0  0  0  0  0
   15.2720   78.5970    6.4910 C   0  0  0  0  0  1  0  0  0  0  0  0
   20.4420   77.5060   10.8480 C   0  0  0  0  0  2  0  0  0  0  0  0
   21.3290   78.1460   11.7610 N   0  0  0  0  0  0  0  0  0  0  0  0
   21.3270   77.9820   13.1070 C   0  0  0  0  0  0  0  0  0  0  0  0
   22.3140   78.7590   13.6610 C   0  0  0  0  0  0  0  0  0  0  0  0
   20.5660   77.2240   13.9880 C   0  0  0  0  0  0  0  0  0  0  0  0
   22.8960   79.3810   12.6230 N   0  0  0  0  0  0  0  0  0  0  0  0
   22.5610   78.8090   14.9980 N   0  0  0  0  0  0  0  0  0  0  0  0
   22.3040   79.0140   11.4780 C   0  0  0  0  0  0  0  0  0  0  0  0
   22.7380   79.6050    9.6940 Br  0  0  0  0  0  0  0  0  0  0  0  0
   21.7810   78.0460   15.7860 C   0  0  0  0  0  0  0  0  0  0  0  0
   23.6180   79.6450   15.5510 C   0  0  0  0  0  1  0  0  0  0  0  0
   22.0000   78.0830   17.0270 O   0  0  0  0  0  0  0  0  0  0  0  0
   20.8000   77.2660   15.2990 N   0  0  0  0  0  0  0  0  0  0  0  0
   19.9890   76.4640   16.1900 C   0  0  0  0  0  1  0  0  0  0  0  0
   19.6630   76.5150   13.4680 O   0  0  0  0  0  0  0  0  0  0  0  0
  1 16  1  0  0  0  0
  2  3  1  0  0  0  0
  2  1  1  0  0  0  0
  3  4  1  0  0  0  0
  5  3  2  0  0  0  0
  6  7  2  0  0  0  0
  6  5  1  0  0  0  0
  7  2  1  0  0  0  0
  8  6  1  0  0  0  0
  9 11  2  0  0  0  0
  9  7  1  0  0  0  0
 10  9  1  0  0  0  0
 12 10  1  0  0  0  0
 12  8  1  0  0  0  0
 13 10  1  0  0  0  0
 14 12  2  0  0  0  0
 15  8  1  0  0  0  0
 16 17  1  0  0  0  0
 17 18  1  0  0  0  0
 18 19  2  0  0  0  0
 18 20  1  0  0  0  0
 19 22  1  0  0  0  0
 20 28  1  0  0  0  0
 21 19  1  0  0  0  0
 22 26  1  0  0  0  0
 22 25  1  0  0  0  0
 23 17  1  0  0  0  0
 23 21  2  0  0  0  0
 24 23  1  0  0  0  0
 25 27  2  0  0  0  0
 28 25  1  0  0  0  0
 28 29  1  0  0  0  0
 30 20  2  0  0  0  0
M  END
>  <Pose>
1

>  <Score>
-8.994

$$$$
