/Users/jonathanwahrer/Desktop/Msc/3_Semester/Drug_Design_Praktikum/waehrer_HTS_screening/HTS_experiment/out/docking_results/vina_output/6e43/0708_docked.pdbqt
 OpenBabel03212220063D

 31 34  0  0  0  0  0  0  0  0999 V2000
   23.4910   79.2180   13.4950 C   0  0  0  0  0  2  0  0  0  0  0  0
   22.1320   79.7440   13.1320 C   0  0  0  0  0  2  0  0  0  0  0  0
   21.4730   78.9930   12.0840 N   0  0  0  0  0  0  0  0  0  0  0  0
   21.4740   79.3350   10.7590 C   0  0  0  0  0  0  0  0  0  0  0  0
   22.3810   80.8690   10.0890 Br  0  0  0  0  0  0  0  0  0  0  0  0
   20.7620   78.4470   10.0500 N   0  0  0  0  0  0  0  0  0  0  0  0
   20.2780   77.5050   10.8890 C   0  0  0  0  0  0  0  0  0  0  0  0
   20.7330   77.8680   12.1460 C   0  0  0  0  0  0  0  0  0  0  0  0
   19.5110   76.4290   10.6440 N   0  0  0  0  0  0  0  0  0  0  0  0
   20.3750   77.0800   13.1970 C   0  0  0  0  0  0  0  0  0  0  0  0
   19.5980   75.9900   12.9460 N   0  0  0  0  0  0  0  0  0  0  0  0
   20.7540   77.3610   14.3530 O   0  0  0  0  0  0  0  0  0  0  0  0
   19.1780   75.6740   11.7070 C   0  0  0  0  0  0  0  0  0  0  0  0
   19.3490   75.4160   13.7790 H   0  0  0  0  0  0  0  0  0  0  0  0
   18.4520   74.6390   11.5260 O   0  0  0  0  0  0  0  0  0  0  0  0
   19.0410   76.0570    9.3270 C   0  0  0  0  0  1  0  0  0  0  0  0
   23.9990   79.6680   14.8340 C   0  0  0  0  0  2  0  0  0  0  0  0
   23.3290   78.9290   15.8960 N   0  0  0  0  0  0  0  0  0  0  0  0
   22.3210   79.3400   16.6970 C   0  0  0  0  0  0  0  0  0  0  0  0
   21.9690   78.3390   17.5730 C   0  0  0  0  0  0  0  0  0  0  0  0
   21.6350   80.5240   16.7710 C   0  0  0  0  0  0  0  0  0  0  0  0
   22.7850   77.3070   17.2890 N   0  0  0  0  0  0  0  0  0  0  0  0
   20.9940   78.4610   18.4930 N   0  0  0  0  0  0  0  0  0  0  0  0
   23.6020   77.6710   16.2770 C   0  0  0  0  0  0  0  0  0  0  0  0
   24.9610   76.6030   15.4640 Br  0  0  0  0  0  0  0  0  0  0  0  0
   20.3430   79.6490   18.5300 C   0  0  0  0  0  0  0  0  0  0  0  0
   20.6550   77.3690   19.4030 C   0  0  0  0  0  1  0  0  0  0  0  0
   19.4220   79.7670   19.3950 O   0  0  0  0  0  0  0  0  0  0  0  0
   20.6560   80.6570   17.6900 N   0  0  0  0  0  0  0  0  0  0  0  0
   20.1220   81.5460   17.7640 H   0  0  0  0  0  0  0  0  0  0  0  0
   21.9510   81.4420   15.9760 O   0  0  0  0  0  0  0  0  0  0  0  0
  1 17  1  0  0  0  0
  2  1  1  0  0  0  0
  3  8  1  0  0  0  0
  3  2  1  0  0  0  0
  4  3  1  0  0  0  0
  5  4  1  0  0  0  0
  6  4  2  0  0  0  0
  6  7  1  0  0  0  0
  7  8  2  0  0  0  0
  8 10  1  0  0  0  0
  9  7  1  0  0  0  0
  9 13  1  0  0  0  0
 10 12  2  0  0  0  0
 11 10  1  0  0  0  0
 11 14  1  0  0  0  0
 13 11  1  0  0  0  0
 15 13  2  0  0  0  0
 16  9  1  0  0  0  0
 17 18  1  0  0  0  0
 18 24  1  0  0  0  0
 18 19  1  0  0  0  0
 19 21  1  0  0  0  0
 19 20  2  0  0  0  0
 20 23  1  0  0  0  0
 21 29  1  0  0  0  0
 22 20  1  0  0  0  0
 23 26  1  0  0  0  0
 23 27  1  0  0  0  0
 24 22  2  0  0  0  0
 25 24  1  0  0  0  0
 26 28  2  0  0  0  0
 29 30  1  0  0  0  0
 29 26  1  0  0  0  0
 31 21  2  0  0  0  0
M  END
>  <Pose>
1

>  <Score>
-8.874

$$$$
