/Users/jonathanwahrer/Desktop/Msc/3_Semester/Drug_Design_Praktikum/waehrer_HTS_screening/HTS_experiment/out/docking_results/vina_output/6e43/0716_docked.pdbqt
 OpenBabel03212220063D

 31 35  0  0  1  0  0  0  0  0999 V2000
   22.3280   79.0480   11.6100 C   0  0  1  0  0  0  0  0  0  0  0  0
   20.9930   78.5930   11.0640 C   0  0  0  0  0  2  0  0  0  0  0  0
   20.6760   79.3620    9.8150 C   0  0  2  0  0  0  0  0  0  0  0  0
   21.7230   78.9380    8.7760 C   0  0  0  0  0  2  0  0  0  0  0  0
   23.0940   79.2650    9.3100 C   0  0  2  0  0  3  0  0  0  0  0  0
   23.3860   78.5950   10.6280 C   0  0  0  0  0  2  0  0  0  0  0  0
   23.2100   80.7500    9.4490 C   0  0  0  0  0  2  0  0  0  0  0  0
   22.1710   81.2230   10.4400 C   0  0  2  0  0  3  0  0  0  0  0  0
   22.4210   80.5360   11.7410 C   0  0  0  0  0  2  0  0  0  0  0  0
   20.7880   80.8430    9.9590 C   0  0  0  0  0  2  0  0  0  0  0  0
   19.3320   79.0280    9.2980 C   0  0  0  0  0  0  0  0  0  0  0  0
   18.3820   78.9630   10.1200 O   0  0  0  0  0  0  0  0  0  0  0  0
   19.1190   78.7860    7.9110 N   0  0  0  0  0  0  0  0  0  0  0  0
   19.9530   78.8570    7.2980 H   0  0  0  0  0  0  0  0  0  0  0  0
   17.8680   78.4580    7.3240 C   0  0  0  0  0  0  0  0  0  0  0  0
   17.5310   77.2170    6.8640 C   0  0  0  0  0  0  0  0  0  0  0  0
   16.2690   77.3000    6.3800 N   0  0  0  0  0  0  0  0  0  0  0  0
   15.8380   78.5340    6.5300 N   0  0  0  0  0  0  0  0  0  0  0  0
   15.4750   76.2400    5.7850 C   0  0  0  0  0  1  0  0  0  0  0  0
   16.7840   79.2830    7.1050 C   0  0  0  0  0  3  0  0  0  0  0  0
   18.2770   75.9750    6.8370 C   0  0  0  0  0  0  0  0  0  0  0  0
   18.6600   75.4680    5.7540 O   0  0  0  0  0  0  0  0  0  0  0  0
   18.6260   75.2470    8.0070 N   0  0  0  0  0  0  0  0  0  0  0  0
   19.6180   75.3450    8.3720 H   0  0  0  0  0  0  0  0  0  0  0  0
   17.9860   74.6240    8.5350 H   0  0  0  0  0  0  0  0  0  0  0  0
   22.5360   78.4560   12.9300 N   0  0  0  0  0  0  0  0  0  0  0  0
   23.6810   78.3380   13.5910 N   0  0  0  0  0  0  0  0  0  0  0  0
   23.4850   77.7400   14.7800 C   0  0  0  0  0  0  0  0  0  0  0  0
   24.7980   77.3290   16.1160 Br  0  0  0  0  0  0  0  0  0  0  0  0
   22.1630   77.4720   14.8680 N   0  0  0  0  0  0  0  0  0  0  0  0
   21.6010   77.9150   13.7340 C   0  0  0  0  0  3  0  0  0  0  0  0
  1  6  1  6  0  0  0
  1  9  1  0  0  0  0
  1 26  1  0  0  0  0
  2  1  1  0  0  0  0
  3 11  1  6  0  0  0
  3 10  1  0  0  0  0
  3  2  1  0  0  0  0
  4  3  1  0  0  0  0
  5  4  1  1  0  0  0
  5  7  1  0  0  0  0
  5  6  1  0  0  0  0
  8  7  1  6  0  0  0
  8  9  1  0  0  0  0
 10  8  1  0  0  0  0
 11 12  2  0  0  0  0
 13 11  1  0  0  0  0
 14 13  1  0  0  0  0
 15 13  1  0  0  0  0
 16 15  2  0  0  0  0
 17 18  1  0  0  0  0
 17 16  1  0  0  0  0
 18 20  2  0  0  0  0
 19 17  1  0  0  0  0
 20 15  1  0  0  0  0
 21 16  1  0  0  0  0
 21 23  1  0  0  0  0
 22 21  2  0  0  0  0
 23 24  1  0  0  0  0
 23 25  1  0  0  0  0
 26 27  1  0  0  0  0
 26 31  1  0  0  0  0
 27 28  2  0  0  0  0
 28 30  1  0  0  0  0
 28 29  1  0  0  0  0
 31 30  2  0  0  0  0
M  END
>  <Pose>
1

>  <Score>
-9.943

$$$$
