/Users/jonathanwahrer/Desktop/Msc/3_Semester/Drug_Design_Praktikum/waehrer_HTS_screening/HTS_experiment/out/docking_results/vina_output/6e43/0723_docked.pdbqt
 OpenBabel03212220063D

 23 26  0  0  1  0  0  0  0  0999 V2000
   21.4400   79.0560   16.8960 N   0  0  0  0  0  0  0  0  0  0  0  0
   22.2810   78.3420   17.8040 C   0  0  1  0  0  3  0  0  0  0  0  0
   21.5860   77.2420   18.5090 C   0  0  0  0  0  2  0  0  0  0  0  0
   20.2260   77.1710   18.3740 O   0  0  0  0  0  0  0  0  0  0  0  0
   19.6170   78.4200   18.3310 C   0  0  0  0  0  2  0  0  0  0  0  0
   20.0400   79.2190   17.1410 C   0  0  0  0  0  2  0  0  0  0  0  0
   21.9540   79.6660   15.7020 C   0  0  0  0  0  0  0  0  0  0  0  0
   22.6300   80.8520   15.8080 N   0  0  0  0  0  0  0  0  0  0  0  0
   23.1790   81.4390   14.7300 C   0  0  0  0  0  3  0  0  0  0  0  0
   23.0780   80.8740   13.5140 N   0  0  0  0  0  0  0  0  0  0  0  0
   22.4320   79.7170   13.3330 C   0  0  0  0  0  0  0  0  0  0  0  0
   22.1940   78.9880   12.2270 N   0  0  0  0  0  0  0  0  0  0  0  0
   21.8610   79.1080   14.4580 C   0  0  0  0  0  0  0  0  0  0  0  0
   21.4950   77.9480   12.6180 N   0  0  0  0  0  0  0  0  0  0  0  0
   22.6160   79.2750   10.8690 C   0  0  0  0  0  1  0  0  0  0  0  0
   21.2690   77.9770   13.9510 C   0  0  0  0  0  0  0  0  0  0  0  0
   20.2770   76.7190   14.9790 Br  0  0  0  0  0  0  0  0  0  0  0  0
   23.5500   77.9280   17.1640 C   0  0  0  0  0  0  0  0  0  0  0  0
   23.7220   76.8630   16.3810 N   0  0  0  0  0  0  0  0  0  0  0  0
   25.0360   76.8620   16.0160 C   0  0  0  0  0  0  0  0  0  0  0  0
   25.5960   77.9350   16.6020 N   0  0  0  0  0  0  0  0  0  0  0  0
   25.7250   75.8810   15.1460 C   0  0  0  0  0  1  0  0  0  0  0  0
   24.6820   78.5590   17.2870 O   0  0  0  0  0  0  0  0  0  0  0  0
  1  6  1  0  0  0  0
  1  2  1  0  0  0  0
  2 18  1  6  0  0  0
  2  3  1  0  0  0  0
  4  3  1  0  0  0  0
  5  4  1  0  0  0  0
  6  5  1  0  0  0  0
  7  8  1  0  0  0  0
  7  1  1  0  0  0  0
  9  8  2  0  0  0  0
 10  9  1  0  0  0  0
 11 10  2  0  0  0  0
 11 13  1  0  0  0  0
 12 14  1  0  0  0  0
 12 11  1  0  0  0  0
 13  7  2  0  0  0  0
 14 16  2  0  0  0  0
 15 12  1  0  0  0  0
 16 13  1  0  0  0  0
 16 17  1  0  0  0  0
 18 23  1  0  0  0  0
 19 18  2  0  0  0  0
 20 19  1  0  0  0  0
 20 21  2  0  0  0  0
 21 23  1  0  0  0  0
 22 20  1  0  0  0  0
M  END
>  <Pose>
1

>  <Score>
-8.468

$$$$
