/Users/jonathanwahrer/Desktop/Msc/3_Semester/Drug_Design_Praktikum/waehrer_HTS_screening/HTS_experiment/out/docking_results/vina_output/6e43/0727_docked.pdbqt
 OpenBabel03212220063D

 21 24  0  0  0  0  0  0  0  0999 V2000
   23.0170   80.6030   13.0350 Br  0  0  0  0  0  0  0  0  0  0  0  0
   22.4680   79.2480   14.2530 C   0  0  0  0  0  0  0  0  0  0  0  0
   22.8920   79.1110   15.5440 N   0  0  0  0  0  0  0  0  0  0  0  0
   22.2830   78.0790   16.0790 N   0  0  0  0  0  0  0  0  0  0  0  0
   21.4590   77.5170   15.1800 C   0  0  0  0  0  0  0  0  0  0  0  0
   20.6180   76.4710   15.2170 N   0  0  0  0  0  0  0  0  0  0  0  0
   19.8860   76.1200   14.1620 C   0  0  0  0  0  3  0  0  0  0  0  0
   19.9810   76.8150   13.0330 N   0  0  0  0  0  0  0  0  0  0  0  0
   20.8100   77.9020   12.8870 C   0  0  0  0  0  0  0  0  0  0  0  0
   21.5550   78.2500   13.9850 C   0  0  0  0  0  0  0  0  0  0  0  0
   22.4240   77.5520   17.4450 C   0  0  0  0  0  1  0  0  0  0  0  0
   20.9050   78.5740   11.6690 N   0  0  0  0  0  0  0  0  0  0  0  0
   21.7450   78.0790   10.6000 C   0  0  0  0  0  2  0  0  0  0  0  0
   20.8090   77.5230    9.5060 C   0  0  0  0  0  2  0  0  0  0  0  0
   19.6130   78.3870    9.4020 C   0  0  0  0  0  0  0  0  0  0  0  0
   18.6320   78.3070    8.4740 N   0  0  0  0  0  0  0  0  0  0  0  0
   19.2800   79.4230   10.2220 C   0  0  0  0  0  0  0  0  0  0  0  0
   17.7370   79.2740    8.7400 C   0  0  0  0  0  3  0  0  0  0  0  0
   18.5120   77.3780    7.3800 C   0  0  0  0  0  1  0  0  0  0  0  0
   18.1160   79.9710    9.8090 N   0  0  0  0  0  0  0  0  0  0  0  0
   20.1670   79.7720   11.3580 C   0  0  0  0  0  2  0  0  0  0  0  0
  1  2  1  0  0  0  0
  2  3  2  0  0  0  0
  3  4  1  0  0  0  0
  4 11  1  0  0  0  0
  5  6  1  0  0  0  0
  5  4  1  0  0  0  0
  7  6  2  0  0  0  0
  8  7  1  0  0  0  0
  9  8  2  0  0  0  0
  9 10  1  0  0  0  0
 10  2  1  0  0  0  0
 10  5  2  0  0  0  0
 12  9  1  0  0  0  0
 13 12  1  0  0  0  0
 14 13  1  0  0  0  0
 15 14  1  0  0  0  0
 15 17  2  0  0  0  0
 16 18  1  0  0  0  0
 16 15  1  0  0  0  0
 17 21  1  0  0  0  0
 18 20  2  0  0  0  0
 19 16  1  0  0  0  0
 20 17  1  0  0  0  0
 21 12  1  0  0  0  0
M  END
>  <Pose>
1

>  <Score>
-6.768

$$$$
