/Users/jonathanwahrer/Desktop/Msc/3_Semester/Drug_Design_Praktikum/waehrer_HTS_screening/HTS_experiment/out/docking_results/vina_output/6e43/0729_docked.pdbqt
 OpenBabel03212220063D

 27 30  0  0  1  0  0  0  0  0999 V2000
   22.2360   78.8820   12.8050 N   0  0  0  0  0  0  0  0  0  0  0  0
   23.5370   78.3410   13.0800 C   0  0  0  0  0  2  0  0  0  0  0  0
   23.5920   78.1940   14.6030 C   0  0  0  0  0  2  0  0  0  0  0  0
   22.5890   79.0490   15.2470 N   0  0  0  0  0  0  0  0  0  0  0  0
   22.5830   80.3650   14.6030 C   0  0  0  0  0  2  0  0  0  0  0  0
   22.0220   80.2540   13.1980 C   0  0  0  0  0  2  0  0  0  0  0  0
   21.2270   78.1110   12.2190 C   0  0  0  0  0  0  0  0  0  0  0  0
   20.5220   77.2080   12.9410 N   0  0  0  0  0  0  0  0  0  0  0  0
   19.5810   76.4380   12.4070 C   0  0  0  0  0  3  0  0  0  0  0  0
   19.3110   76.5490   11.1030 N   0  0  0  0  0  0  0  0  0  0  0  0
   19.9570   77.4160   10.3040 C   0  0  0  0  0  0  0  0  0  0  0  0
   19.8560   77.7100    8.9940 N   0  0  0  0  0  0  0  0  0  0  0  0
   20.9420   78.2240   10.8630 C   0  0  0  0  0  0  0  0  0  0  0  0
   20.7260   78.6500    8.7370 N   0  0  0  0  0  0  0  0  0  0  0  0
   18.9160   77.0450    8.1040 C   0  0  0  0  0  1  0  0  0  0  0  0
   21.4170   79.0060    9.8350 C   0  0  0  0  0  0  0  0  0  0  0  0
   22.7660   80.3270   10.0030 Br  0  0  0  0  0  0  0  0  0  0  0  0
   23.0200   79.2190   16.6260 C   0  0  2  0  0  3  0  0  0  0  0  0
   24.3950   78.5080   16.7560 C   0  0  0  0  0  1  0  0  0  0  0  0
   22.0760   78.5840   17.5620 C   0  0  0  0  0  0  0  0  0  0  0  0
   22.5490   77.5090   18.1230 O   0  0  0  0  0  0  0  0  0  0  0  0
   20.7740   78.9820   17.9040 N   0  0  0  0  0  0  0  0  0  0  0  0
   20.0200   80.0930   17.4070 C   0  0  0  0  0  2  0  0  0  0  0  0
   20.0620   78.1520   18.9020 C   0  0  0  0  0  2  0  0  0  0  0  0
   19.3050   80.8920   18.4770 C   0  0  0  0  0  2  0  0  0  0  0  0
   18.7930   80.0790   19.6150 C   0  0  0  0  0  2  0  0  0  0  0  0
   19.7970   79.0470   20.0840 C   0  0  0  0  0  2  0  0  0  0  0  0
  1  2  1  0  0  0  0
  1  6  1  0  0  0  0
  2  3  1  0  0  0  0
  3  4  1  0  0  0  0
  4 18  1  0  0  0  0
  5  4  1  0  0  0  0
  6  5  1  0  0  0  0
  7  1  1  0  0  0  0
  7  8  1  0  0  0  0
  9  8  2  0  0  0  0
 10  9  1  0  0  0  0
 11 13  1  0  0  0  0
 11 10  2  0  0  0  0
 12 11  1  0  0  0  0
 13  7  2  0  0  0  0
 14 12  1  0  0  0  0
 14 16  2  0  0  0  0
 15 12  1  0  0  0  0
 16 17  1  0  0  0  0
 16 13  1  0  0  0  0
 18 19  1  6  0  0  0
 18 20  1  0  0  0  0
 20 22  1  0  0  0  0
 20 21  2  0  0  0  0
 22 24  1  0  0  0  0
 23 22  1  0  0  0  0
 23 25  1  0  0  0  0
 24 27  1  0  0  0  0
 25 26  1  0  0  0  0
 26 27  1  0  0  0  0
M  END
>  <Pose>
1

>  <Score>
-8.601

$$$$
