/Users/jonathanwahrer/Desktop/Msc/3_Semester/Drug_Design_Praktikum/waehrer_HTS_screening/HTS_experiment/out/docking_results/vina_output/6e43/0737_docked.pdbqt
 OpenBabel03212220063D

 21 24  0  0  1  0  0  0  0  0999 V2000
   19.4910   75.3880   13.2550 C   0  0  2  0  0  3  0  0  0  0  0  0
   19.1640   74.1760   13.6420 C   0  0  0  0  0  3  0  0  0  0  0  0
   18.6230   73.1830   12.7000 C   0  0  0  0  0  0  0  0  0  0  0  0
   18.2900   71.9610   13.0750 C   0  0  0  0  0  1  0  0  0  0  0  0
   18.4860   73.6300   11.3600 N   0  0  0  0  0  0  0  0  0  0  0  0
   18.8490   74.9570   10.9570 C   0  0  0  0  0  0  0  0  0  0  0  0
   19.3390   75.7950   11.9100 N   0  0  0  0  0  0  0  0  0  0  0  0
   19.5940   76.9470   11.2800 N   0  0  0  0  0  0  0  0  0  0  0  0
   19.2840   76.8640    9.9770 C   0  0  0  0  0  3  0  0  0  0  0  0
   18.8210   75.6180    9.7870 N   0  0  0  0  0  0  0  0  0  0  0  0
   18.1080   72.9730   10.6440 H   0  0  0  0  0  0  0  0  0  0  0  0
   20.0040   76.2990   14.1990 N   0  0  2  0  0  0  0  0  0  0  0  0
   19.3420   76.3930   15.4760 C   0  0  0  0  0  2  0  0  0  0  0  0
   20.2900   76.8890   16.5170 C   0  0  0  0  0  0  0  0  0  0  0  0
   21.2860   77.7100   16.1930 N   0  0  0  0  0  0  0  0  0  0  0  0
   20.3720   76.6710   17.8560 N   0  0  0  0  0  0  0  0  0  0  0  0
   21.9910   78.0140   17.2890 C   0  0  0  0  0  0  0  0  0  0  0  0
   21.4920   78.1530   14.8280 C   0  0  0  0  0  2  0  0  0  0  0  0
   23.5320   79.1460   17.4340 Br  0  0  0  0  0  0  0  0  0  0  0  0
   21.4170   77.3550   18.3560 C   0  0  0  0  0  3  0  0  0  0  0  0
   21.1590   77.0840   13.8290 C   0  0  0  0  0  2  0  0  0  0  0  0
  1  2  1  6  0  0  0
  1 12  1  0  0  0  0
  3  4  1  0  0  0  0
  3  2  2  0  0  0  0
  5  3  1  0  0  0  0
  6  5  1  0  0  0  0
  6  7  1  0  0  0  0
  7  1  1  0  0  0  0
  8  7  1  0  0  0  0
  9  8  2  0  0  0  0
 10  9  1  0  0  0  0
 10  6  2  0  0  0  0
 11  5  1  0  0  0  0
 12 21  1  6  0  0  0
 12 13  1  0  0  0  0
 13 14  1  0  0  0  0
 14 16  2  0  0  0  0
 15 14  1  0  0  0  0
 15 17  1  0  0  0  0
 16 20  1  0  0  0  0
 17 19  1  0  0  0  0
 17 20  2  0  0  0  0
 18 15  1  0  0  0  0
 21 18  1  0  0  0  0
M  END
>  <Pose>
1

>  <Score>
-8.768

$$$$
