/Users/jonathanwahrer/Desktop/Msc/3_Semester/Drug_Design_Praktikum/waehrer_HTS_screening/HTS_experiment/out/docking_results/vina_output/6e43/0743_docked.pdbqt
 OpenBabel03212220073D

 30 33  0  0  1  0  0  0  0  0999 V2000
   21.8230   79.5110   11.7230 C   0  0  0  0  0  0  0  0  0  0  0  0
   21.2390   80.5400   11.2450 O   0  0  0  0  0  0  0  0  0  0  0  0
   22.7340   79.6400   12.8060 N   0  0  0  0  0  0  0  0  0  0  0  0
   22.9960   80.9390   13.3620 C   0  0  0  0  0  2  0  0  0  0  0  0
   23.2760   80.9280   14.8340 C   0  0  0  0  0  2  0  0  0  0  0  0
   23.7950   79.6130   15.3360 C   0  0  1  0  0  0  0  0  0  0  0  0
   24.6430   79.8020   16.4740 N   0  0  0  0  0  0  0  0  0  0  0  0
   25.2140   78.6050   16.9900 C   0  0  0  0  0  2  0  0  0  0  0  0
   24.2810   77.4440   17.0980 C   0  0  0  0  0  2  0  0  0  0  0  0
   22.9050   77.7570   16.6350 C   0  0  0  0  0  0  0  0  0  0  0  0
   21.7310   77.1800   16.8950 N   0  0  0  0  0  0  0  0  0  0  0  0
   20.7620   77.8300   16.2350 C   0  0  0  0  0  3  0  0  0  0  0  0
   21.3110   78.8360   15.5420 N   0  0  0  0  0  0  0  0  0  0  0  0
   22.6280   78.7970   15.7830 C   0  0  0  0  0  0  0  0  0  0  0  0
   24.4750   78.8520   14.2090 C   0  0  0  0  0  2  0  0  0  0  0  0
   23.3560   78.4110   13.2890 C   0  0  0  0  0  2  0  0  0  0  0  0
   25.4130   80.4510   16.2000 H   0  0  0  0  0  0  0  0  0  0  0  0
   20.8000   79.5380   14.9150 H   0  0  0  0  0  0  0  0  0  0  0  0
   21.4990   78.2200   11.0950 C   0  0  0  0  0  2  0  0  0  0  0  0
   20.0270   77.9540   11.0200 C   0  0  0  0  0  2  0  0  0  0  0  0
   19.6240   76.7760   11.7230 N   0  0  0  0  0  0  0  0  0  0  0  0
   19.1730   75.6050   11.0560 C   0  0  0  0  0  0  0  0  0  0  0  0
   19.1340   75.6260    9.7900 O   0  0  0  0  0  0  0  0  0  0  0  0
   19.6560   76.7620   12.7600 H   0  0  0  0  0  0  0  0  0  0  0  0
   18.7620   74.4060   11.7420 C   0  0  0  0  0  0  0  0  0  0  0  0
   18.0720   73.4310   11.2510 O   0  0  0  0  0  0  0  0  0  0  0  0
   17.8590   72.4870   12.1180 C   0  0  0  0  0  0  0  0  0  0  0  0
   16.8960   70.8360   11.8940 Br  0  0  0  0  0  0  0  0  0  0  0  0
   18.4640   72.8720   13.2930 C   0  0  0  0  0  3  0  0  0  0  0  0
   19.0500   74.1010   13.0780 C   0  0  0  0  0  3  0  0  0  0  0  0
  1  3  1  0  0  0  0
  2  1  2  0  0  0  0
  3 16  1  0  0  0  0
  3  4  1  0  0  0  0
  4  5  1  0  0  0  0
  5  6  1  0  0  0  0
  6 15  1  6  0  0  0
  6 14  1  0  0  0  0
  6  7  1  0  0  0  0
  7  8  1  0  0  0  0
  8  9  1  0  0  0  0
 10 11  1  0  0  0  0
 10  9  1  0  0  0  0
 12 11  2  0  0  0  0
 13 14  1  0  0  0  0
 13 12  1  0  0  0  0
 14 10  2  0  0  0  0
 16 15  1  0  0  0  0
 17  7  1  0  0  0  0
 18 13  1  0  0  0  0
 19  1  1  0  0  0  0
 20 19  1  0  0  0  0
 20 21  1  0  0  0  0
 21 24  1  0  0  0  0
 22 21  1  0  0  0  0
 22 25  1  0  0  0  0
 23 22  2  0  0  0  0
 25 30  2  0  0  0  0
 26 25  1  0  0  0  0
 26 27  1  0  0  0  0
 27 29  2  0  0  0  0
 28 27  1  0  0  0  0
 30 29  1  0  0  0  0
M  END
>  <Pose>
1

>  <Score>
-9.579

$$$$
