/Users/jonathanwahrer/Desktop/Msc/3_Semester/Drug_Design_Praktikum/waehrer_HTS_screening/HTS_experiment/out/docking_results/vina_output/6e43/0755_docked.pdbqt
 OpenBabel03212220073D

 28 31  0  0  0  0  0  0  0  0999 V2000
   19.4770   80.0630   19.7810 C   0  0  0  0  0  0  0  0  0  0  0  0
   18.4960   79.7100   20.4520 O   0  0  0  0  0  0  0  0  0  0  0  0
   20.2100   79.1250   19.0090 N   0  0  0  0  0  0  0  0  0  0  0  0
   21.3650   79.5500   18.2220 C   0  0  0  0  0  2  0  0  0  0  0  0
   21.9270   78.3650   17.4390 C   0  0  0  0  0  2  0  0  0  0  0  0
   20.8150   77.7390   16.7500 N   0  0  0  0  0  0  0  0  0  0  0  0
   19.7000   77.2700   17.5260 C   0  0  0  0  0  2  0  0  0  0  0  0
   19.8620   77.7190   18.9560 C   0  0  0  0  0  2  0  0  0  0  0  0
   20.8110   77.5840   15.3250 C   0  0  0  0  0  0  0  0  0  0  0  0
   21.5730   78.3500   14.5320 N   0  0  0  0  0  0  0  0  0  0  0  0
   21.5470   78.1820   13.2050 C   0  0  0  0  0  0  0  0  0  0  0  0
   20.7650   77.2520   12.6220 N   0  0  0  0  0  0  0  0  0  0  0  0
   22.3950   79.0350   12.3350 C   0  0  0  0  0  1  0  0  0  0  0  0
   19.9770   76.4510   13.3600 C   0  0  0  0  0  0  0  0  0  0  0  0
   20.0180   76.6390   14.7260 C   0  0  0  0  0  3  0  0  0  0  0  0
   19.1380   75.4590   12.7950 N   0  0  0  0  0  0  0  0  0  0  0  0
   18.4800   74.4870   13.6430 C   0  0  0  0  0  2  0  0  0  0  0  0
   17.4370   73.7860   12.7980 C   0  0  0  0  0  2  0  0  0  0  0  0
   18.0980   73.1100   11.7150 N   0  0  0  0  0  0  0  0  0  0  0  0
   19.0590   73.8960   11.0070 C   0  0  0  0  0  2  0  0  0  0  0  0
   18.5830   71.8270   12.1570 C   0  0  0  0  0  1  0  0  0  0  0  0
   18.8930   75.3570   11.3690 C   0  0  0  0  0  2  0  0  0  0  0  0
   19.8930   81.4850   19.7840 C   0  0  0  0  0  0  0  0  0  0  0  0
   19.7700   82.3390   18.7990 O   0  0  0  0  0  0  0  0  0  0  0  0
   20.2330   83.5240   19.1080 C   0  0  0  0  0  0  0  0  0  0  0  0
   20.2460   85.0540   17.9640 Br  0  0  0  0  0  0  0  0  0  0  0  0
   20.7040   83.4580   20.4020 C   0  0  0  0  0  3  0  0  0  0  0  0
   20.4850   82.1700   20.8170 C   0  0  0  0  0  3  0  0  0  0  0  0
  1 23  1  0  0  0  0
  1  2  2  0  0  0  0
  3  1  1  0  0  0  0
  4  3  1  0  0  0  0
  5  4  1  0  0  0  0
  6  5  1  0  0  0  0
  6  7  1  0  0  0  0
  7  8  1  0  0  0  0
  8  3  1  0  0  0  0
  9  6  1  0  0  0  0
 10  9  1  0  0  0  0
 11 10  2  0  0  0  0
 12 11  1  0  0  0  0
 12 14  2  0  0  0  0
 13 11  1  0  0  0  0
 14 15  1  0  0  0  0
 15  9  2  0  0  0  0
 16 14  1  0  0  0  0
 16 17  1  0  0  0  0
 18 17  1  0  0  0  0
 19 21  1  0  0  0  0
 19 18  1  0  0  0  0
 20 22  1  0  0  0  0
 20 19  1  0  0  0  0
 22 16  1  0  0  0  0
 23 28  2  0  0  0  0
 24 25  1  0  0  0  0
 24 23  1  0  0  0  0
 25 27  2  0  0  0  0
 26 25  1  0  0  0  0
 27 28  1  0  0  0  0
M  END
>  <Pose>
1

>  <Score>
-9.964

$$$$
