/Users/jonathanwahrer/Desktop/Msc/3_Semester/Drug_Design_Praktikum/waehrer_HTS_screening/HTS_experiment/out/docking_results/vina_output/6e43/0767_docked.pdbqt
 OpenBabel03212220073D

 32 35  0  0  0  0  0  0  0  0999 V2000
   22.8550   77.9150   16.2480 C   0  0  0  0  0  2  0  0  0  0  0  0
   22.1780   77.1180   15.2830 N   0  0  0  0  0  0  0  0  0  0  0  0
   20.7990   76.7930   15.4120 C   0  0  0  0  0  0  0  0  0  0  0  0
   20.1670   77.2390   16.4290 O   0  0  0  0  0  0  0  0  0  0  0  0
   22.6970   76.7600   14.4600 H   0  0  0  0  0  0  0  0  0  0  0  0
   20.1020   75.9770   14.4250 C   0  0  0  0  0  0  0  0  0  0  0  0
   19.5310   76.4640   13.3530 O   0  0  0  0  0  0  0  0  0  0  0  0
   18.9870   75.5070   12.6570 N   0  0  0  0  0  0  0  0  0  0  0  0
   19.1930   74.3230   13.2770 C   0  0  0  0  0  0  0  0  0  0  0  0
   19.8920   74.6560   14.3760 N   0  0  0  0  0  0  0  0  0  0  0  0
   18.7550   73.0020   12.8440 C   0  0  0  0  0  0  0  0  0  0  0  0
   17.5820   72.6590   12.3740 O   0  0  0  0  0  0  0  0  0  0  0  0
   17.5170   71.3960   12.0800 C   0  0  0  0  0  0  0  0  0  0  0  0
   16.0580   70.4110   11.3740 Br  0  0  0  0  0  0  0  0  0  0  0  0
   18.7500   70.8100   12.3700 C   0  0  0  0  0  3  0  0  0  0  0  0
   19.5240   71.8530   12.8570 C   0  0  0  0  0  3  0  0  0  0  0  0
   22.6440   79.4000   16.0410 C   0  0  0  0  0  2  0  0  0  0  0  0
   22.2550   80.0570   17.2800 N   0  0  0  0  0  0  0  0  0  0  0  0
   20.9540   80.5740   17.3980 C   0  0  0  0  0  0  0  0  0  0  0  0
   20.2040   80.4120   16.3700 O   0  0  0  0  0  0  0  0  0  0  0  0
   22.9120   80.1500   18.0760 H   0  0  0  0  0  0  0  0  0  0  0  0
   20.3690   81.2550   18.5250 C   0  0  0  0  0  0  0  0  0  0  0  0
   20.3790   82.6490   18.5400 C   0  0  0  0  0  3  0  0  0  0  0  0
   19.8190   83.3230   19.5970 C   0  0  0  0  0  0  0  0  0  0  0  0
   19.2570   82.6370   20.6280 C   0  0  0  0  0  0  0  0  0  0  0  0
   19.8110   84.7200   19.6440 C   0  0  0  0  0  3  0  0  0  0  0  0
   18.6900   83.3280   21.7020 C   0  0  0  0  0  3  0  0  0  0  0  0
   19.2630   81.3360   20.5850 O   0  0  0  0  0  0  0  0  0  0  0  0
   18.6780   84.7010   21.7520 C   0  0  0  0  0  3  0  0  0  0  0  0
   19.2470   85.3870   20.7090 C   0  0  0  0  0  3  0  0  0  0  0  0
   19.7860   80.6220   19.5950 C   0  0  0  0  0  0  0  0  0  0  0  0
   19.7270   79.3730   19.6770 O   0  0  0  0  0  0  0  0  0  0  0  0
  2  3  1  0  0  0  0
  2  1  1  0  0  0  0
  3  4  2  0  0  0  0
  5  2  1  0  0  0  0
  6  3  1  0  0  0  0
  7  6  1  0  0  0  0
  8  9  2  0  0  0  0
  8  7  1  0  0  0  0
  9 10  1  0  0  0  0
 10  6  2  0  0  0  0
 11 16  2  0  0  0  0
 11  9  1  0  0  0  0
 12 11  1  0  0  0  0
 13 15  2  0  0  0  0
 13 12  1  0  0  0  0
 14 13  1  0  0  0  0
 15 16  1  0  0  0  0
 17  1  1  0  0  0  0
 17 18  1  0  0  0  0
 18 19  1  0  0  0  0
 18 21  1  0  0  0  0
 19 22  1  0  0  0  0
 20 19  2  0  0  0  0
 22 23  2  0  0  0  0
 22 31  1  0  0  0  0
 23 24  1  0  0  0  0
 24 26  2  0  0  0  0
 24 25  1  0  0  0  0
 25 27  2  0  0  0  0
 26 30  1  0  0  0  0
 27 29  1  0  0  0  0
 28 25  1  0  0  0  0
 30 29  2  0  0  0  0
 31 32  2  0  0  0  0
 31 28  1  0  0  0  0
M  END
>  <Pose>
1

>  <Score>
-11.160

$$$$
