/Users/jonathanwahrer/Desktop/Msc/3_Semester/Drug_Design_Praktikum/waehrer_HTS_screening/HTS_experiment/out/docking_results/vina_output/6e43/0769_docked.pdbqt
 OpenBabel03212220073D

 26 29  0  0  0  0  0  0  0  0999 V2000
   19.4710   80.4570   19.4690 C   0  0  0  0  0  0  0  0  0  0  0  0
   18.4780   79.7550   19.9810 O   0  0  0  0  0  0  0  0  0  0  0  0
   20.3510   79.7490   18.6650 N   0  0  0  0  0  0  0  0  0  0  0  0
   20.1140   78.3000   18.4460 C   0  0  0  0  0  2  0  0  0  0  0  0
   20.0240   78.0420   16.9610 C   0  0  0  0  0  2  0  0  0  0  0  0
   21.2070   78.4790   16.3310 N   0  0  0  0  0  0  0  0  0  0  0  0
   22.1280   79.0550   17.2500 C   0  0  0  0  0  2  0  0  0  0  0  0
   21.4910   80.2510   17.9970 C   0  0  0  0  0  2  0  0  0  0  0  0
   19.4190   81.8500   19.8720 C   0  0  0  0  0  0  0  0  0  0  0  0
   19.1850   82.2600   21.1570 C   0  0  0  0  0  3  0  0  0  0  0  0
   19.1540   83.6270   21.4480 C   0  0  0  0  0  0  0  0  0  0  0  0
   18.8370   84.2580   23.1940 Br  0  0  0  0  0  0  0  0  0  0  0  0
   19.3620   84.5240   20.4290 C   0  0  0  0  0  0  0  0  0  0  0  0
   19.5800   84.1040   19.2330 O   0  0  0  0  0  0  0  0  0  0  0  0
   19.3460   85.7650   20.6390 O   0  0  0  0  0  0  0  0  0  0  0  0
   19.6170   82.8500   18.9150 C   0  0  0  0  0  3  0  0  0  0  0  0
   21.8290   77.5510   15.4410 C   0  0  0  0  0  2  0  0  0  0  0  0
   22.0310   78.0290   14.0610 C   0  0  0  0  0  0  0  0  0  0  0  0
   21.1070   77.9510   13.0710 C   0  0  0  0  0  3  0  0  0  0  0  0
   21.3900   78.4220   11.8130 C   0  0  0  0  0  0  0  0  0  0  0  0
   22.6160   78.9720   11.5560 C   0  0  0  0  0  0  0  0  0  0  0  0
   20.6650   78.4820   10.6120 O   0  0  0  0  0  0  0  0  0  0  0  0
   23.5700   79.0620   12.5450 C   0  0  0  0  0  3  0  0  0  0  0  0
   22.6750   79.3730   10.2320 O   0  0  0  0  0  0  0  0  0  0  0  0
   23.2640   78.5900   13.7790 C   0  0  0  0  0  3  0  0  0  0  0  0
   21.5960   78.7260    9.5740 C   0  0  0  0  0  2  0  0  0  0  0  0
  1  9  1  0  0  0  0
  1  2  2  0  0  0  0
  3  1  1  0  0  0  0
  4  3  1  0  0  0  0
  5  4  1  0  0  0  0
  6  5  1  0  0  0  0
  6  7  1  0  0  0  0
  7  8  1  0  0  0  0
  8  3  1  0  0  0  0
  9 10  1  0  0  0  0
 10 11  2  0  0  0  0
 11 12  1  0  0  0  0
 13 15  2  0  0  0  0
 13 11  1  0  0  0  0
 14 13  1  0  0  0  0
 16 14  1  0  0  0  0
 16  9  2  0  0  0  0
 17  6  1  0  0  0  0
 18 17  1  0  0  0  0
 19 18  2  0  0  0  0
 20 19  1  0  0  0  0
 21 20  2  0  0  0  0
 21 23  1  0  0  0  0
 22 20  1  0  0  0  0
 23 25  2  0  0  0  0
 24 21  1  0  0  0  0
 25 18  1  0  0  0  0
 26 24  1  0  0  0  0
 26 22  1  0  0  0  0
M  END
>  <Pose>
1

>  <Score>
-9.765

$$$$
