/Users/jonathanwahrer/Desktop/Msc/3_Semester/Drug_Design_Praktikum/waehrer_HTS_screening/HTS_experiment/out/docking_results/vina_output/6e43/0783_docked.pdbqt
 OpenBabel03212220083D

 39 42  0  0  1  0  0  0  0  0999 V2000
   19.5010   79.1390    9.0900 C   0  0  1  0  0  3  0  0  0  0  0  0
   19.6690   78.7810   10.5120 C   0  0  2  0  0  0  0  0  0  0  0  0
   20.8140   79.5220   11.2130 C   0  0  0  0  0  2  0  0  0  0  0  0
   22.1050   79.3410   10.4550 C   0  0  2  0  0  0  0  0  0  0  0  0
   21.8820   79.0050    9.1330 O   0  0  0  0  0  0  0  0  0  0  0  0
   20.8190   79.6150    8.5420 C   0  0  0  0  0  2  0  0  0  0  0  0
   22.9110   78.2750   11.1750 C   0  0  0  0  0  2  0  0  0  0  0  0
   23.8970   78.9080   12.1190 C   0  0  0  0  0  2  0  0  0  0  0  0
   23.2670   80.0340   12.7600 N   0  0  0  0  0  0  0  0  0  0  0  0
   22.9800   81.1730   11.9010 C   0  0  0  0  0  2  0  0  0  0  0  0
   22.8530   80.6530   10.4880 C   0  0  0  0  0  2  0  0  0  0  0  0
   22.9770   80.0180   14.1270 C   0  0  0  0  0  0  0  0  0  0  0  0
   22.4100   81.0780   14.5820 O   0  0  0  0  0  0  0  0  0  0  0  0
   19.7610   77.3180   10.8040 C   0  0  0  0  0  1  0  0  0  0  0  0
   18.5110   79.2360   11.1940 O   0  0  0  0  0  0  0  0  0  0  0  0
   17.9420   79.7930   10.6130 H   0  0  0  0  0  0  0  0  0  0  0  0
   18.9360   78.0910    8.2640 N   0  0  0  0  0  0  0  0  0  0  0  0
   19.5670   76.9260    8.1580 C   0  0  0  0  0  3  0  0  0  0  0  0
   19.0590   75.9140    7.3770 C   0  0  0  0  0  0  0  0  0  0  0  0
   19.9880   74.2380    7.2380 Br  0  0  0  0  0  0  0  0  0  0  0  0
   17.8760   76.1290    6.7010 C   0  0  0  0  0  0  0  0  0  0  0  0
   17.2830   77.3280    6.8480 N   0  0  0  0  0  0  0  0  0  0  0  0
   17.3680   75.2290    5.9710 O   0  0  0  0  0  0  0  0  0  0  0  0
   17.7950   78.3040    7.6150 C   0  0  0  0  0  0  0  0  0  0  0  0
   16.3700   77.4990    6.3280 H   0  0  0  0  0  0  0  0  0  0  0  0
   17.1600   79.4070    7.6910 O   0  0  0  0  0  0  0  0  0  0  0  0
   23.2270   78.9750   15.1150 C   0  0  1  0  0  3  0  0  0  0  0  0
   24.3590   78.1250   14.7400 N   0  0  0  0  0  0  0  0  0  0  0  0
   25.2620   78.5450   15.0490 H   0  0  0  0  0  0  0  0  0  0  0  0
   24.4020   78.0750   13.6920 H   0  0  0  0  0  0  0  0  0  0  0  0
   23.5270   79.4670   16.5140 C   0  0  0  0  0  2  0  0  0  0  0  0
   22.4070   78.9480   17.3840 C   0  0  0  0  0  0  0  0  0  0  0  0
   22.2570   77.6010   17.5840 C   0  0  0  0  0  3  0  0  0  0  0  0
   21.2110   77.1650   18.3930 C   0  0  0  0  0  3  0  0  0  0  0  0
   20.3380   78.0470   18.9880 C   0  0  0  0  0  0  0  0  0  0  0  0
   20.5230   79.3970   18.7620 C   0  0  0  0  0  3  0  0  0  0  0  0
   21.5490   79.8600   17.9640 C   0  0  0  0  0  3  0  0  0  0  0  0
   19.3190   77.5580   19.7820 O   0  0  0  0  0  0  0  0  0  0  0  0
   19.3510   77.5310   20.8010 H   0  0  0  0  0  0  0  0  0  0  0  0
  1 17  1  6  0  0  0
  1  2  1  0  0  0  0
  2 14  1  1  0  0  0
  2 15  1  0  0  0  0
  2  3  1  0  0  0  0
  4 11  1  1  0  0  0
  4  7  1  0  0  0  0
  4  3  1  0  0  0  0
  5  4  1  0  0  0  0
  6  1  1  0  0  0  0
  6  5  1  0  0  0  0
  7  8  1  0  0  0  0
  8  9  1  0  0  0  0
  9 12  1  0  0  0  0
 10  9  1  0  0  0  0
 11 10  1  0  0  0  0
 12 13  2  0  0  0  0
 12 27  1  0  0  0  0
 16 15  1  0  0  0  0
 18 17  1  0  0  0  0
 19 18  2  0  0  0  0
 20 19  1  0  0  0  0
 21 22  1  0  0  0  0
 21 19  1  0  0  0  0
 22 24  1  0  0  0  0
 23 21  2  0  0  0  0
 24 26  2  0  0  0  0
 24 17  1  0  0  0  0
 25 22  1  0  0  0  0
 27 31  1  1  0  0  0
 28 29  1  0  0  0  0
 28 27  1  0  0  0  0
 30 28  1  0  0  0  0
 31 32  1  0  0  0  0
 32 33  2  0  0  0  0
 32 37  1  0  0  0  0
 33 34  1  0  0  0  0
 34 35  2  0  0  0  0
 35 38  1  0  0  0  0
 36 35  1  0  0  0  0
 37 36  2  0  0  0  0
 38 39  1  0  0  0  0
M  END
>  <Pose>
1

>  <Score>
-8.020

$$$$
