/Users/jonathanwahrer/Desktop/Msc/3_Semester/Drug_Design_Praktikum/waehrer_HTS_screening/HTS_experiment/out/docking_results/vina_output/6e43/0786_docked.pdbqt
 OpenBabel03212220093D

 25 28  0  0  1  0  0  0  0  0999 V2000
   20.8650   76.7840   15.4670 N   0  0  0  0  0  0  0  0  0  0  0  0
   20.1450   76.9790   16.6560 C   0  0  0  0  0  0  0  0  0  0  0  0
   18.9100   77.1570   16.6150 O   0  0  0  0  0  0  0  0  0  0  0  0
   21.8910   76.6370   15.5120 H   0  0  0  0  0  0  0  0  0  0  0  0
   20.1690   76.7910   14.1990 C   0  0  0  0  0  2  0  0  0  0  0  0
   19.7010   75.4290   13.8350 C   0  0  0  0  0  0  0  0  0  0  0  0
   20.3460   74.2620   14.0200 N   0  0  0  0  0  0  0  0  0  0  0  0
   19.5890   73.2540   13.5530 C   0  0  0  0  0  0  0  0  0  0  0  0
   18.4480   73.7700   13.0630 N   0  0  0  0  0  0  0  0  0  0  0  0
   19.8160   71.8810   13.5180 C   0  0  0  0  0  3  0  0  0  0  0  0
   17.5220   72.9220   12.5330 C   0  0  0  0  0  3  0  0  0  0  0  0
   18.5050   75.1040   13.2310 C   0  0  0  0  0  3  0  0  0  0  0  0
   17.7170   71.5590   12.4840 C   0  0  0  0  0  0  0  0  0  0  0  0
   16.4120   70.3710   11.7390 Br  0  0  0  0  0  0  0  0  0  0  0  0
   18.8850   71.0260   12.9840 C   0  0  0  0  0  3  0  0  0  0  0  0
   20.8340   76.9740   17.9590 C   0  0  1  0  0  3  0  0  0  0  0  0
   22.1670   77.6720   17.8550 C   0  0  0  0  0  2  0  0  0  0  0  0
   21.8990   79.0360   17.4420 N   0  0  0  0  0  0  0  0  0  0  0  0
   20.8100   79.6750   17.8980 C   0  0  0  0  0  0  0  0  0  0  0  0
   22.5470   79.8800   16.6390 C   0  0  0  0  0  0  0  0  0  0  0  0
   20.8240   80.9080   17.3530 N   0  0  0  0  0  0  0  0  0  0  0  0
   19.8200   79.0940   18.8180 C   0  0  0  0  0  2  0  0  0  0  0  0
   21.8710   81.0350   16.5930 N   0  0  0  0  0  0  0  0  0  0  0  0
   19.9560   77.6230   18.9960 C   0  0  0  0  0  2  0  0  0  0  0  0
   23.8170   79.6580   15.8800 C   0  0  0  0  0  1  0  0  0  0  0  0
  1  4  1  0  0  0  0
  1  2  1  0  0  0  0
  3  2  2  0  0  0  0
  5  1  1  0  0  0  0
  6  7  1  0  0  0  0
  6  5  1  0  0  0  0
  8  7  2  0  0  0  0
  9 12  1  0  0  0  0
  9  8  1  0  0  0  0
 10  8  1  0  0  0  0
 11  9  1  0  0  0  0
 12  6  2  0  0  0  0
 13 11  2  0  0  0  0
 13 15  1  0  0  0  0
 14 13  1  0  0  0  0
 15 10  2  0  0  0  0
 16  2  1  6  0  0  0
 16 24  1  0  0  0  0
 17 16  1  0  0  0  0
 18 17  1  0  0  0  0
 18 19  1  0  0  0  0
 19 22  1  0  0  0  0
 20 18  1  0  0  0  0
 21 19  2  0  0  0  0
 22 24  1  0  0  0  0
 23 20  2  0  0  0  0
 23 21  1  0  0  0  0
 25 20  1  0  0  0  0
M  END
>  <Pose>
1

>  <Score>
-10.178

$$$$
