/Users/jonathanwahrer/Desktop/Msc/3_Semester/Drug_Design_Praktikum/waehrer_HTS_screening/HTS_experiment/out/docking_results/vina_output/6e43/0789_docked.pdbqt
 OpenBabel03212220093D

 21 24  0  0  1  0  0  0  0  0999 V2000
   21.2550   77.1700   15.1400 C   0  0  0  0  0  0  0  0  0  0  0  0
   22.4410   77.4400   14.8090 O   0  0  0  0  0  0  0  0  0  0  0  0
   20.6940   77.8650   16.2410 N   0  0  0  0  0  0  0  0  0  0  0  0
   21.4590   78.8370   16.9330 C   0  0  0  0  0  2  0  0  0  0  0  0
   21.0640   79.0150   18.3510 C   0  0  2  0  0  3  0  0  0  0  0  0
   19.9640   78.2120   18.8030 N   0  0  2  0  0  0  0  0  0  0  0  0
   18.8600   78.2440   17.8620 C   0  0  0  0  0  2  0  0  0  0  0  0
   19.3430   77.5400   16.6080 C   0  0  0  0  0  2  0  0  0  0  0  0
   19.6580   78.7520   20.0930 C   0  0  0  0  0  2  0  0  0  0  0  0
   19.8590   80.2410   19.9630 C   0  0  0  0  0  2  0  0  0  0  0  0
   20.5820   80.4260   18.6480 C   0  0  0  0  0  2  0  0  0  0  0  0
   20.5110   76.1580   14.3770 C   0  0  0  0  0  0  0  0  0  0  0  0
   20.3270   74.8540   14.6240 N   0  0  0  0  0  0  0  0  0  0  0  0
   19.5890   74.2750   13.6900 N   0  0  0  0  0  0  0  0  0  0  0  0
   19.1380   73.0080   13.4980 C   0  0  0  0  0  3  0  0  0  0  0  0
   19.2470   75.1910   12.7660 C   0  0  0  0  0  0  0  0  0  0  0  0
   18.3650   72.6610   12.4120 C   0  0  0  0  0  0  0  0  0  0  0  0
   17.7380   70.8620   12.1590 Br  0  0  0  0  0  0  0  0  0  0  0  0
   18.0280   73.6160   11.4790 C   0  0  0  0  0  3  0  0  0  0  0  0
   18.4850   74.8600   11.6900 N   0  0  0  0  0  0  0  0  0  0  0  0
   19.8190   76.3750   13.1850 C   0  0  0  0  0  3  0  0  0  0  0  0
  1  3  1  0  0  0  0
  2  1  2  0  0  0  0
  3  8  1  0  0  0  0
  3  4  1  0  0  0  0
  5  4  1  6  0  0  0
  5 11  1  0  0  0  0
  5  6  1  0  0  0  0
  6  7  1  6  0  0  0
  6  9  1  0  0  0  0
  8  7  1  0  0  0  0
 10  9  1  0  0  0  0
 11 10  1  0  0  0  0
 12 13  2  0  0  0  0
 12  1  1  0  0  0  0
 14 13  1  0  0  0  0
 15 14  1  0  0  0  0
 16 21  2  0  0  0  0
 16 14  1  0  0  0  0
 17 15  2  0  0  0  0
 18 17  1  0  0  0  0
 19 20  2  0  0  0  0
 19 17  1  0  0  0  0
 20 16  1  0  0  0  0
 21 12  1  0  0  0  0
M  END
>  <Pose>
1

>  <Score>
-8.459

$$$$
