/Users/jonathanwahrer/Desktop/Msc/3_Semester/Drug_Design_Praktikum/waehrer_HTS_screening/HTS_experiment/out/docking_results/vina_output/6e43/0790_docked.pdbqt
 OpenBabel03212220093D

 25 28  0  0  0  0  0  0  0  0999 V2000
   23.0830   80.2890   12.9390 C   0  0  0  0  0  0  0  0  0  0  0  0
   22.8740   81.4720   13.3330 O   0  0  0  0  0  0  0  0  0  0  0  0
   22.9410   79.9400   11.5710 N   0  0  0  0  0  0  0  0  0  0  0  0
   23.2020   78.5410   11.1990 C   0  0  0  0  0  2  0  0  0  0  0  0
   22.3700   78.3350    9.9330 C   0  0  0  0  0  2  0  0  0  0  0  0
   21.1490   79.0540   10.1470 N   0  0  0  0  0  0  0  0  0  0  0  0
   21.2810   80.5030    9.8170 C   0  0  0  0  0  2  0  0  0  0  0  0
   22.5520   80.9170   10.5640 C   0  0  0  0  0  2  0  0  0  0  0  0
   19.9440   78.5820   10.6400 C   0  0  0  0  0  0  0  0  0  0  0  0
   18.9590   79.4300   10.7010 O   0  0  0  0  0  0  0  0  0  0  0  0
   23.4700   79.3070   13.9220 C   0  0  0  0  0  0  0  0  0  0  0  0
   24.6020   78.5270   13.9720 C   0  0  0  0  0  3  0  0  0  0  0  0
   24.5560   77.7480   15.0650 N   0  0  0  0  0  0  0  0  0  0  0  0
   23.4210   78.0120   15.7150 N   0  0  0  0  0  0  0  0  0  0  0  0
   22.9100   77.5190   16.8360 C   0  0  0  0  0  3  0  0  0  0  0  0
   22.7350   78.9560   15.0490 C   0  0  0  0  0  0  0  0  0  0  0  0
   21.7130   77.9510   17.3130 C   0  0  0  0  0  0  0  0  0  0  0  0
   20.9870   77.2370   18.9220 Br  0  0  0  0  0  0  0  0  0  0  0  0
   21.0180   78.9120   16.6310 C   0  0  0  0  0  3  0  0  0  0  0  0
   21.5510   79.3940   15.5060 N   0  0  0  0  0  0  0  0  0  0  0  0
   19.5890   77.2570   11.1180 C   0  0  0  0  0  0  0  0  0  0  0  0
   19.6150   76.8800   12.4040 O   0  0  0  0  0  0  0  0  0  0  0  0
   19.2570   75.6510   12.5560 C   0  0  0  0  0  3  0  0  0  0  0  0
   18.9560   75.1090   11.3310 C   0  0  0  0  0  3  0  0  0  0  0  0
   19.1730   76.1410   10.4330 C   0  0  0  0  0  3  0  0  0  0  0  0
  1  2  2  0  0  0  0
  1 11  1  0  0  0  0
  3  1  1  0  0  0  0
  4  3  1  0  0  0  0
  5  6  1  0  0  0  0
  5  4  1  0  0  0  0
  6  9  1  0  0  0  0
  7  6  1  0  0  0  0
  7  8  1  0  0  0  0
  8  3  1  0  0  0  0
  9 10  2  0  0  0  0
  9 21  1  0  0  0  0
 11 12  1  0  0  0  0
 11 16  2  0  0  0  0
 12 13  2  0  0  0  0
 13 14  1  0  0  0  0
 14 15  1  0  0  0  0
 15 17  2  0  0  0  0
 16 20  1  0  0  0  0
 16 14  1  0  0  0  0
 17 18  1  0  0  0  0
 19 17  1  0  0  0  0
 20 19  2  0  0  0  0
 21 22  1  0  0  0  0
 22 23  1  0  0  0  0
 24 23  2  0  0  0  0
 25 21  2  0  0  0  0
 25 24  1  0  0  0  0
M  END
>  <Pose>
1

>  <Score>
-7.551

$$$$
