/Users/jonathanwahrer/Desktop/Msc/3_Semester/Drug_Design_Praktikum/waehrer_HTS_screening/HTS_experiment/out/docking_results/vina_output/6e43/0800_docked.pdbqt
 OpenBabel03212220093D

 29 32  0  0  1  0  0  0  0  0999 V2000
   22.6000   78.9640   12.5210 C   0  0  0  0  0  0  0  0  0  0  0  0
   23.2680   78.9780   11.4550 O   0  0  0  0  0  0  0  0  0  0  0  0
   21.2350   79.0970   12.4350 O   0  0  0  0  0  0  0  0  0  0  0  0
   20.5200   78.9260   11.2250 C   0  0  0  0  0  2  0  0  0  0  0  0
   19.9780   77.5450   11.1840 C   0  0  0  0  0  0  0  0  0  0  0  0
   19.7190   76.8550   12.3090 N   0  0  0  0  0  0  0  0  0  0  0  0
   19.2240   75.5940   12.2840 C   0  0  1  0  0  3  0  0  0  0  0  0
   18.9710   74.9750   11.1120 N   0  0  0  0  0  0  0  0  0  0  0  0
   18.9750   74.9290   13.4680 C   0  0  0  0  0  3  0  0  0  0  0  0
   18.4800   73.7250   11.0650 C   0  0  0  0  0  3  0  0  0  0  0  0
   19.2150   75.6280    9.9540 C   0  0  0  0  0  0  0  0  0  0  0  0
   18.2290   73.0570   12.2430 C   0  0  0  0  0  0  0  0  0  0  0  0
   17.5320   71.2800   12.1700 Br  0  0  0  0  0  0  0  0  0  0  0  0
   18.4730   73.6470   13.4740 C   0  0  0  0  0  3  0  0  0  0  0  0
   19.7250   76.9300    9.9800 C   0  0  0  0  0  2  0  0  0  0  0  0
   18.9830   75.0640    8.8720 O   0  0  0  0  0  0  0  0  0  0  0  0
   23.3520   78.8050   13.7940 C   0  0  0  0  0  2  0  0  0  0  0  0
   22.5750   79.1720   14.9410 N   0  0  0  0  0  0  0  0  0  0  0  0
   22.4570   80.4770   15.5040 C   0  0  0  0  0  0  0  0  0  0  0  0
   23.0330   81.5130   15.0620 O   0  0  0  0  0  0  0  0  0  0  0  0
   21.5920   80.3950   16.6310 N   0  0  0  0  0  0  0  0  0  0  0  0
   21.2850   79.0090   16.8820 C   0  0  0  0  0  0  0  0  0  0  0  0
   21.2560   81.2180   17.1600 H   0  0  0  0  0  0  0  0  0  0  0  0
   21.9500   78.4770   18.1230 C   0  0  0  0  0  2  0  0  0  0  0  0
   19.8390   78.7480   17.1370 C   0  0  0  0  0  2  0  0  0  0  0  0
   21.7810   78.2740   15.7190 C   0  0  0  0  0  0  0  0  0  0  0  0
   21.1430   77.2610   18.4510 C   0  0  0  0  0  2  0  0  0  0  0  0
   19.8600   77.3340   17.6740 C   0  0  0  0  0  2  0  0  0  0  0  0
   21.5790   77.0770   15.4090 O   0  0  0  0  0  0  0  0  0  0  0  0
  1 17  1  0  0  0  0
  2  1  2  0  0  0  0
  3  1  1  0  0  0  0
  4  3  1  0  0  0  0
  5  4  1  0  0  0  0
  5  6  2  0  0  0  0
  7  6  1  0  0  0  0
  7  9  1  6  0  0  0
  8  7  1  0  0  0  0
  9 14  2  0  0  0  0
 10  8  1  0  0  0  0
 10 12  2  0  0  0  0
 11 15  1  0  0  0  0
 11  8  1  0  0  0  0
 12 14  1  0  0  0  0
 13 12  1  0  0  0  0
 15  5  1  0  0  0  0
 16 11  2  0  0  0  0
 17 18  1  0  0  0  0
 18 19  1  0  0  0  0
 18 26  1  0  0  0  0
 19 21  1  0  0  0  0
 20 19  2  0  0  0  0
 21 22  1  0  0  0  0
 21 23  1  0  0  0  0
 22 25  1  0  0  0  0
 22 24  1  0  0  0  0
 24 27  1  0  0  0  0
 25 28  1  0  0  0  0
 26 22  1  0  0  0  0
 28 27  1  0  0  0  0
 29 26  2  0  0  0  0
M  END
>  <Pose>
1

>  <Score>
-9.990

$$$$
