/Users/jonathanwahrer/Desktop/Msc/3_Semester/Drug_Design_Praktikum/waehrer_HTS_screening/HTS_experiment/out/docking_results/vina_output/6e43/0803_docked.pdbqt
 OpenBabel03212220093D

 31 34  0  0  0  0  0  0  0  0999 V2000
   20.4650   76.9700   15.8670 Br  0  0  0  0  0  0  0  0  0  0  0  0
   20.4680   78.7510   16.5280 C   0  0  0  0  0  0  0  0  0  0  0  0
   19.8950   79.1120   17.6970 C   0  0  0  0  0  2  0  0  0  0  0  0
   19.9690   80.3440   18.2090 N   0  0  0  0  0  0  0  0  0  0  0  0
   20.6450   81.2720   17.5330 C   0  0  0  0  0  0  0  0  0  0  0  0
   20.7270   82.5370   18.0310 N   0  0  0  0  0  0  0  0  0  0  0  0
   20.1610   82.9040   19.1720 C   0  0  0  0  0  0  0  0  0  0  0  0
   19.4570   81.9640   19.8910 C   0  0  0  0  0  0  0  0  0  0  0  0
   18.8390   82.2870   21.0820 C   0  0  0  0  0  3  0  0  0  0  0  0
   18.8910   83.5720   21.6230 C   0  0  0  0  0  3  0  0  0  0  0  0
   19.5990   84.5050   20.8960 C   0  0  0  0  0  3  0  0  0  0  0  0
   20.2200   84.1860   19.7010 C   0  0  0  0  0  3  0  0  0  0  0  0
   19.3860   80.6800   19.3660 C   0  0  0  0  0  0  0  0  0  0  0  0
   18.7480   79.8160   20.0080 O   0  0  0  0  0  0  0  0  0  0  0  0
   21.2280   80.9360   16.3580 N   0  0  0  0  0  0  0  0  0  0  0  0
   21.1970   79.7400   15.7860 C   0  0  0  0  0  0  0  0  0  0  0  0
   21.7390   81.7680   15.9160 H   0  0  0  0  0  0  0  0  0  0  0  0
   21.6650   79.3580   14.5690 N   0  0  0  0  0  0  0  0  0  0  0  0
   21.9130   78.0880   15.0090 H   0  0  0  0  0  0  0  0  0  0  0  0
   22.1260   78.9820   13.3690 C   0  0  0  0  0  0  0  0  0  0  0  0
   23.4640   78.5880   13.2370 C   0  0  0  0  0  0  0  0  0  0  0  0
   24.0220   78.4300   12.0110 C   0  0  0  0  0  3  0  0  0  0  0  0
   23.2820   78.6490   10.8740 C   0  0  0  0  0  3  0  0  0  0  0  0
   21.9610   79.0320   10.9360 C   0  0  0  0  0  3  0  0  0  0  0  0
   21.4180   79.1880   12.1900 C   0  0  0  0  0  3  0  0  0  0  0  0
   24.2700   78.1860   14.3960 C   0  0  0  0  0  0  0  0  0  0  0  0
   24.1820   76.9930   14.7820 O   0  0  0  0  0  0  0  0  0  0  0  0
   25.1080   79.0010   15.1000 O   0  0  0  0  0  0  0  0  0  0  0  0
   26.1010   78.5060   15.9780 C   0  0  0  0  0  2  0  0  0  0  0  0
   25.8150   78.9620   17.4120 C   0  0  0  0  0  2  0  0  0  0  0  0
   24.3200   79.0100   17.6140 C   0  0  0  0  0  1  0  0  0  0  0  0
  1  2  1  0  0  0  0
  2  3  1  0  0  0  0
  3  4  1  0  0  0  0
  4 13  1  0  0  0  0
  5  6  2  0  0  0  0
  5  4  1  0  0  0  0
  6  7  1  0  0  0  0
  7 12  2  0  0  0  0
  7  8  1  0  0  0  0
  8  9  2  0  0  0  0
  9 10  1  0  0  0  0
 11 10  2  0  0  0  0
 12 11  1  0  0  0  0
 13  8  1  0  0  0  0
 13 14  2  0  0  0  0
 15  5  1  0  0  0  0
 16 15  1  0  0  0  0
 16  2  2  0  0  0  0
 17 15  1  0  0  0  0
 18 19  1  0  0  0  0
 18 16  1  0  0  0  0
 20 18  1  0  0  0  0
 21 20  1  0  0  0  0
 21 26  1  0  0  0  0
 22 21  2  0  0  0  0
 23 24  2  0  0  0  0
 23 22  1  0  0  0  0
 24 25  1  0  0  0  0
 25 20  2  0  0  0  0
 26 27  2  0  0  0  0
 26 28  1  0  0  0  0
 28 29  1  0  0  0  0
 29 30  1  0  0  0  0
 30 31  1  0  0  0  0
M  END
>  <Pose>
1

>  <Score>
-9.453

$$$$
