/Users/jonathanwahrer/Desktop/Msc/3_Semester/Drug_Design_Praktikum/waehrer_HTS_screening/HTS_experiment/out/docking_results/vina_output/6e43/0814_docked.pdbqt
 OpenBabel03212220103D

 31 34  0  0  1  0  0  0  0  0999 V2000
   21.5080   77.6390   16.7020 N   0  0  0  0  0  0  0  0  0  0  0  0
   20.6810   76.8020   16.1200 N   0  0  0  0  0  0  0  0  0  0  0  0
   20.7950   76.8780   14.7850 C   0  0  0  0  0  0  0  0  0  0  0  0
   21.7320   77.8010   14.5260 N   0  0  0  0  0  0  0  0  0  0  0  0
   22.1720   78.2730   15.7300 C   0  0  2  0  0  3  0  0  0  0  0  0
   23.1970   79.2950   15.9300 C   0  0  0  0  0  2  0  0  0  0  0  0
   22.8600   80.6090   15.2650 C   0  0  0  0  0  2  0  0  0  0  0  0
   22.9900   80.5300   13.7600 C   0  0  0  0  0  2  0  0  0  0  0  0
   21.9140   79.7120   13.1170 C   0  0  0  0  0  2  0  0  0  0  0  0
   22.1880   78.2180   13.2140 C   0  0  0  0  0  2  0  0  0  0  0  0
   20.0540   76.1140   13.7720 C   0  0  0  0  0  2  0  0  0  0  0  0
   20.1280   74.7010   13.9850 N   0  0  0  0  0  0  0  0  0  0  0  0
   20.9360   74.2940   14.4790 H   0  0  0  0  0  0  0  0  0  0  0  0
   19.1210   73.7960   13.5420 C   0  0  0  0  0  0  0  0  0  0  0  0
   19.3790   72.4630   13.3150 C   0  0  0  0  0  3  0  0  0  0  0  0
   18.4000   71.6000   12.8930 C   0  0  0  0  0  3  0  0  0  0  0  0
   17.1390   72.0640   12.6900 C   0  0  0  0  0  0  0  0  0  0  0  0
   16.8770   73.3970   12.9160 C   0  0  0  0  0  3  0  0  0  0  0  0
   17.8530   74.2740   13.3410 C   0  0  0  0  0  3  0  0  0  0  0  0
   16.1380   71.2220   12.2660 O   0  0  0  0  0  0  0  0  0  0  0  0
   16.3760   70.0970   11.4570 C   0  0  0  0  0  1  0  0  0  0  0  0
   21.6740   77.8430   18.1110 C   0  0  0  0  0  2  0  0  0  0  0  0
   20.4340   78.3660   18.7440 C   0  0  0  0  0  0  0  0  0  0  0  0
   19.5700   77.5270   19.1140 O   0  0  0  0  0  0  0  0  0  0  0  0
   20.1850   79.7770   18.9470 C   0  0  0  0  0  0  0  0  0  0  0  0
   20.6000   80.7280   18.0440 C   0  0  0  0  0  3  0  0  0  0  0  0
   20.3540   82.0810   18.2530 C   0  0  0  0  0  3  0  0  0  0  0  0
   19.6790   82.4980   19.3870 C   0  0  0  0  0  0  0  0  0  0  0  0
   19.3430   84.3710   19.6680 Br  0  0  0  0  0  0  0  0  0  0  0  0
   19.2600   81.5550   20.2950 C   0  0  0  0  0  3  0  0  0  0  0  0
   19.5160   80.2250   20.0640 C   0  0  0  0  0  3  0  0  0  0  0  0
  1 22  1  0  0  0  0
  2  1  1  0  0  0  0
  3  2  2  0  0  0  0
  4  3  1  0  0  0  0
  4  5  1  0  0  0  0
  5  6  1  1  0  0  0
  5  1  1  0  0  0  0
  7  6  1  0  0  0  0
  8  7  1  0  0  0  0
  9 10  1  0  0  0  0
  9  8  1  0  0  0  0
 10  4  1  0  0  0  0
 11 12  1  0  0  0  0
 11  3  1  0  0  0  0
 12 13  1  0  0  0  0
 14 12  1  0  0  0  0
 15 14  2  0  0  0  0
 16 15  1  0  0  0  0
 17 16  2  0  0  0  0
 17 18  1  0  0  0  0
 18 19  2  0  0  0  0
 19 14  1  0  0  0  0
 20 17  1  0  0  0  0
 21 20  1  0  0  0  0
 22 23  1  0  0  0  0
 23 25  1  0  0  0  0
 23 24  2  0  0  0  0
 25 31  1  0  0  0  0
 26 27  1  0  0  0  0
 26 25  2  0  0  0  0
 27 28  2  0  0  0  0
 28 29  1  0  0  0  0
 28 30  1  0  0  0  0
 31 30  2  0  0  0  0
M  END
>  <Pose>
1

>  <Score>
-11.641

$$$$
