/Users/jonathanwahrer/Desktop/Msc/3_Semester/Drug_Design_Praktikum/waehrer_HTS_screening/HTS_experiment/out/docking_results/vina_output/6e43/0833_docked.pdbqt
 OpenBabel03212220103D

 28 31  0  0  1  0  0  0  0  0999 V2000
   21.3300   77.2140   14.5660 C   0  0  1  0  0  0  0  0  0  0  0  0
   22.5320   77.7880   15.1560 N   0  0  0  0  0  0  0  0  0  0  0  0
   23.6340   78.3040   14.3510 C   0  0  0  0  0  2  0  0  0  0  0  0
   24.8670   78.5540   15.1380 C   0  0  0  0  0  2  0  0  0  0  0  0
   25.3090   77.3850   15.9800 C   0  0  0  0  0  2  0  0  0  0  0  0
   24.7610   77.6420   17.3710 C   0  0  0  0  0  2  0  0  0  0  0  0
   23.3320   77.6540   17.4880 C   0  0  0  0  0  3  0  0  0  0  0  0
   22.3710   77.7160   16.5380 C   0  0  0  0  0  0  0  0  0  0  0  0
   21.0080   77.7300   16.8920 N   0  0  0  0  0  4  0  0  0  0  0  0
   20.3440   77.5210   15.6380 C   0  0  0  0  0  2  0  0  0  0  0  0
   20.7240   76.9690   17.5520 H   0  0  0  0  0  0  0  0  0  0  0  0
   21.0270   77.8610   13.2740 C   0  0  0  0  0  0  0  0  0  0  0  0
   20.3060   77.1330   12.3230 C   0  0  0  0  0  3  0  0  0  0  0  0
   20.0670   77.7560   11.0970 C   0  0  0  0  0  3  0  0  0  0  0  0
   20.5310   79.0280   10.8530 C   0  0  0  0  0  0  0  0  0  0  0  0
   20.1800   79.8450    9.1570 Br  0  0  0  0  0  0  0  0  0  0  0  0
   21.2410   79.7180   11.8200 C   0  0  0  0  0  3  0  0  0  0  0  0
   21.4890   79.1180   13.0430 C   0  0  0  0  0  3  0  0  0  0  0  0
   21.5630   75.8760   14.3810 O   0  0  0  0  0  0  0  0  0  0  0  0
   21.5440   75.5900   13.4440 H   0  0  0  0  0  0  0  0  0  0  0  0
   20.7530   79.0260   17.4350 C   0  0  0  0  0  0  0  0  0  0  0  0
   20.0050   79.1750   18.5910 C   0  0  0  0  0  0  0  0  0  0  0  0
   19.7490   80.4790   18.9930 C   0  0  0  0  0  3  0  0  0  0  0  0
   20.1900   81.6020   18.3170 C   0  0  0  0  0  3  0  0  0  0  0  0
   20.9480   81.3990   17.1440 C   0  0  0  0  0  3  0  0  0  0  0  0
   21.1910   80.1280   16.7660 C   0  0  0  0  0  3  0  0  0  0  0  0
   19.5680   78.0780   19.2670 O   0  0  0  0  0  0  0  0  0  0  0  0
   19.8920   77.8660   20.6160 C   0  0  0  0  0  1  0  0  0  0  0  0
  1 19  1  6  0  0  0
  1  2  1  0  0  0  0
  1 10  1  0  0  0  0
  2  8  1  0  0  0  0
  3  4  1  0  0  0  0
  3  2  1  0  0  0  0
  4  5  1  0  0  0  0
  5  6  1  0  0  0  0
  6  7  1  0  0  0  0
  8  9  1  0  0  0  0
  8  7  2  0  0  0  0
  9 21  1  0  0  0  0
  9 11  1  0  0  0  0
 10  9  1  0  0  0  0
 12  1  1  0  0  0  0
 13 12  2  0  0  0  0
 14 13  1  0  0  0  0
 15 14  2  0  0  0  0
 15 17  1  0  0  0  0
 16 15  1  0  0  0  0
 17 18  2  0  0  0  0
 18 12  1  0  0  0  0
 20 19  1  0  0  0  0
 21 22  1  0  0  0  0
 22 23  2  0  0  0  0
 22 27  1  0  0  0  0
 24 23  1  0  0  0  0
 25 24  2  0  0  0  0
 26 25  1  0  0  0  0
 26 21  2  0  0  0  0
 27 28  1  0  0  0  0
M  END
>  <Pose>
1

>  <Score>
-8.277

$$$$
