/Users/jonathanwahrer/Desktop/Msc/3_Semester/Drug_Design_Praktikum/waehrer_HTS_screening/HTS_experiment/out/docking_results/vina_output/6e43/0834_docked.pdbqt
 OpenBabel03212220103D

 28 31  0  0  1  0  0  0  0  0999 V2000
   22.1680   79.2710   14.9220 C   0  0  2  0  0  0  0  0  0  0  0  0
   23.2610   79.2250   15.8400 N   0  0  0  0  0  0  0  0  0  0  0  0
   24.3440   80.1500   15.9670 C   0  0  0  0  0  3  0  0  0  0  0  0
   25.7080   79.5910   16.0900 C   0  0  0  0  0  3  0  0  0  0  0  0
   25.8370   78.1110   16.1200 C   0  0  0  0  0  2  0  0  0  0  0  0
   25.3550   77.5160   17.4440 C   0  0  0  0  0  2  0  0  0  0  0  0
   23.8790   77.3130   17.3070 C   0  0  0  0  0  3  0  0  0  0  0  0
   23.0000   78.0340   16.6310 C   0  0  0  0  0  0  0  0  0  0  0  0
   21.6120   77.7340   16.5580 N   0  0  0  0  0  4  0  0  0  0  0  0
   21.3650   77.9900   15.1700 C   0  0  0  0  0  2  0  0  0  0  0  0
   21.4890   76.7210   16.8100 H   0  0  0  0  0  0  0  0  0  0  0  0
   22.4730   79.2470   13.4940 C   0  0  0  0  0  0  0  0  0  0  0  0
   23.5570   78.7160   12.8780 C   0  0  0  0  0  3  0  0  0  0  0  0
   23.7220   78.7610   11.4990 C   0  0  0  0  0  3  0  0  0  0  0  0
   22.7670   79.3580   10.7050 C   0  0  0  0  0  0  0  0  0  0  0  0
   22.9660   79.4290    8.8030 Br  0  0  0  0  0  0  0  0  0  0  0  0
   21.6660   79.8980   11.3260 C   0  0  0  0  0  3  0  0  0  0  0  0
   21.4920   79.8590   12.6850 C   0  0  0  0  0  3  0  0  0  0  0  0
   21.3480   80.3980   15.1220 O   0  0  0  0  0  0  0  0  0  0  0  0
   21.4300   80.9250   14.2860 H   0  0  0  0  0  0  0  0  0  0  0  0
   20.9100   78.5890   17.4220 C   0  0  0  0  0  0  0  0  0  0  0  0
   19.5090   78.6920   17.3530 C   0  0  0  0  0  3  0  0  0  0  0  0
   18.7960   79.5190   18.1780 C   0  0  0  0  0  3  0  0  0  0  0  0
   19.4320   80.2940   19.1240 C   0  0  0  0  0  0  0  0  0  0  0  0
   20.7980   80.2120   19.2120 C   0  0  0  0  0  3  0  0  0  0  0  0
   21.5150   79.3780   18.3790 C   0  0  0  0  0  3  0  0  0  0  0  0
   18.6900   81.1420   19.9690 O   0  0  0  0  0  0  0  0  0  0  0  0
   19.2110   82.3900   20.3430 C   0  0  0  0  0  1  0  0  0  0  0  0
  1 19  1  1  0  0  0
  1 10  1  0  0  0  0
  1  2  1  0  0  0  0
  2  3  1  0  0  0  0
  2  8  1  0  0  0  0
  3  4  2  0  0  0  0
  4  5  1  0  0  0  0
  5  6  1  0  0  0  0
  7  6  1  0  0  0  0
  8  7  2  0  0  0  0
  9  8  1  0  0  0  0
  9 11  1  0  0  0  0
  9 21  1  0  0  0  0
 10  9  1  0  0  0  0
 12  1  1  0  0  0  0
 13 12  1  0  0  0  0
 14 13  2  0  0  0  0
 15 17  2  0  0  0  0
 15 14  1  0  0  0  0
 16 15  1  0  0  0  0
 17 18  1  0  0  0  0
 18 12  2  0  0  0  0
 20 19  1  0  0  0  0
 21 26  1  0  0  0  0
 22 21  2  0  0  0  0
 22 23  1  0  0  0  0
 23 24  2  0  0  0  0
 24 25  1  0  0  0  0
 24 27  1  0  0  0  0
 26 25  2  0  0  0  0
 27 28  1  0  0  0  0
M  END
>  <Pose>
1

>  <Score>
-8.659

$$$$
