/Users/jonathanwahrer/Desktop/Msc/3_Semester/Drug_Design_Praktikum/waehrer_HTS_screening/HTS_experiment/out/docking_results/vina_output/6e43/0836_docked.pdbqt
 OpenBabel03212220113D

 27 30  0  0  1  0  0  0  0  0999 V2000
   21.9260   78.2840   17.2720 C   0  0  2  0  0  0  0  0  0  0  0  0
   23.2290   78.5230   16.7030 N   0  0  0  0  0  0  0  0  0  0  0  0
   24.3400   79.4230   16.9810 C   0  0  0  0  0  2  0  0  0  0  0  0
   25.6750   78.8930   16.6280 C   0  0  0  0  0  2  0  0  0  0  0  0
   25.7070   77.4640   16.1460 C   0  0  0  0  0  2  0  0  0  0  0  0
   24.5390   77.0970   15.3500 C   0  0  0  0  0  3  0  0  0  0  0  0
   23.3530   77.6100   15.6230 C   0  0  0  0  0  0  0  0  0  0  0  0
   22.0660   77.4460   15.0360 N   0  0  0  0  0  4  0  0  0  0  0  0
   21.1510   77.7340   16.0970 C   0  0  0  0  0  2  0  0  0  0  0  0
   21.9930   76.4330   14.7490 H   0  0  0  0  0  0  0  0  0  0  0  0
   21.2960   79.4560   17.8770 C   0  0  0  0  0  0  0  0  0  0  0  0
   20.9600   79.4540   19.2140 C   0  0  0  0  0  3  0  0  0  0  0  0
   20.3630   80.5300   19.8380 C   0  0  0  0  0  3  0  0  0  0  0  0
   20.0690   81.6840   19.1370 C   0  0  0  0  0  0  0  0  0  0  0  0
   19.2410   83.1840   19.9760 Br  0  0  0  0  0  0  0  0  0  0  0  0
   20.3980   81.7030   17.7980 C   0  0  0  0  0  3  0  0  0  0  0  0
   20.9960   80.6200   17.1800 C   0  0  0  0  0  3  0  0  0  0  0  0
   22.0860   77.3040   18.2720 O   0  0  0  0  0  0  0  0  0  0  0  0
   22.7270   76.6470   17.9050 H   0  0  0  0  0  0  0  0  0  0  0  0
   21.9680   78.2660   13.9200 C   0  0  0  0  0  0  0  0  0  0  0  0
   21.1280   77.9410   12.8810 C   0  0  0  0  0  3  0  0  0  0  0  0
   21.0320   78.7710   11.7520 C   0  0  0  0  0  3  0  0  0  0  0  0
   21.7610   79.9220   11.6430 C   0  0  0  0  0  0  0  0  0  0  0  0
   22.6200   80.2510   12.7090 C   0  0  0  0  0  3  0  0  0  0  0  0
   22.6920   79.4150   13.8040 C   0  0  0  0  0  3  0  0  0  0  0  0
   21.7140   80.7900   10.5550 O   0  0  0  0  0  0  0  0  0  0  0  0
   22.6220   80.8460    9.5030 C   0  0  0  0  0  1  0  0  0  0  0  0
  1 11  1  0  0  0  0
  1 18  1  1  0  0  0
  2  3  1  0  0  0  0
  2  1  1  0  0  0  0
  4  3  1  0  0  0  0
  5  4  1  0  0  0  0
  6  7  2  0  0  0  0
  6  5  1  0  0  0  0
  7  2  1  0  0  0  0
  8  7  1  0  0  0  0
  8  9  1  0  0  0  0
  9  1  1  0  0  0  0
 10  8  1  0  0  0  0
 11 12  1  0  0  0  0
 12 13  2  0  0  0  0
 14 13  1  0  0  0  0
 14 15  1  0  0  0  0
 16 14  2  0  0  0  0
 17 16  1  0  0  0  0
 17 11  2  0  0  0  0
 19 18  1  0  0  0  0
 20  8  1  0  0  0  0
 21 20  2  0  0  0  0
 22 21  1  0  0  0  0
 23 22  2  0  0  0  0
 23 24  1  0  0  0  0
 24 25  2  0  0  0  0
 25 20  1  0  0  0  0
 26 23  1  0  0  0  0
 27 26  1  0  0  0  0
M  END
>  <Pose>
1

>  <Score>
-10.050

$$$$
