/Users/jonathanwahrer/Desktop/Msc/3_Semester/Drug_Design_Praktikum/waehrer_HTS_screening/HTS_experiment/out/docking_results/vina_output/6e43/0847_docked.pdbqt
 OpenBabel03212220113D

 31 34  0  0  1  0  0  0  0  0999 V2000
   20.7560   76.8000   13.9930 C   0  0  0  0  0  0  0  0  0  0  0  0
   21.0670   77.5870   12.9510 N   0  0  0  0  0  0  0  0  0  0  0  0
   22.1960   78.2540   13.2550 C   0  0  1  0  0  3  0  0  0  0  0  0
   22.5930   77.8710   14.5140 N   0  0  0  0  0  0  0  0  0  0  0  0
   21.6970   76.9920   14.9260 N   0  0  0  0  0  0  0  0  0  0  0  0
   23.0010   79.2320   12.5170 C   0  0  0  0  0  2  0  0  0  0  0  0
   22.2190   80.1460   11.6120 C   0  0  0  0  0  2  0  0  0  0  0  0
   21.4790   79.4300   10.5290 C   0  0  0  0  0  2  0  0  0  0  0  0
   20.1610   78.9810   11.1150 C   0  0  0  0  0  2  0  0  0  0  0  0
   20.2680   77.6260   11.7700 C   0  0  0  0  0  2  0  0  0  0  0  0
   23.7380   78.2610   15.2370 C   0  0  0  0  0  3  0  0  0  0  0  0
   23.5660   79.0890   16.4020 C   0  0  0  0  0  0  0  0  0  0  0  0
   24.7280   79.4180   16.9680 O   0  0  0  0  0  1  0  0  0  0  0  0
   22.4320   79.6390   17.0880 C   0  0  0  0  0  0  0  0  0  0  0  0
   21.9630   79.0500   18.2830 C   0  0  0  0  0  3  0  0  0  0  0  0
   20.8830   79.5300   18.9750 C   0  0  0  0  0  3  0  0  0  0  0  0
   20.1920   80.6280   18.5280 C   0  0  0  0  0  0  0  0  0  0  0  0
   20.6130   81.2290   17.3730 C   0  0  0  0  0  3  0  0  0  0  0  0
   21.7250   80.7250   16.6730 C   0  0  0  0  0  3  0  0  0  0  0  0
   19.0930   81.1150   19.2330 O   0  0  0  0  0  0  0  0  0  0  0  0
   19.2230   82.0160   20.3060 C   0  0  0  0  0  1  0  0  0  0  0  0
   19.6040   75.8600   14.1750 C   0  0  0  0  0  2  0  0  0  0  0  0
   19.9860   74.4720   14.0100 N   0  0  0  0  0  0  0  0  0  0  0  0
   20.9250   74.1330   14.3160 H   0  0  0  0  0  0  0  0  0  0  0  0
   19.1170   73.4940   13.4250 C   0  0  0  0  0  0  0  0  0  0  0  0
   17.8070   73.8080   13.1370 C   0  0  0  0  0  3  0  0  0  0  0  0
   16.9820   72.8710   12.5740 C   0  0  0  0  0  3  0  0  0  0  0  0
   17.4610   71.5960   12.2910 C   0  0  0  0  0  0  0  0  0  0  0  0
   16.3160   70.2960   11.5090 Br  0  0  0  0  0  0  0  0  0  0  0  0
   18.7730   71.2610   12.5730 C   0  0  0  0  0  3  0  0  0  0  0  0
   19.5750   72.2250   13.1380 C   0  0  0  0  0  3  0  0  0  0  0  0
  1 22  1  0  0  0  0
  1  5  2  0  0  0  0
  2  3  1  0  0  0  0
  2  1  1  0  0  0  0
  3  6  1  6  0  0  0
  3  4  1  0  0  0  0
  4  5  1  0  0  0  0
  4 11  1  0  0  0  0
  7  6  1  0  0  0  0
  8  9  1  0  0  0  0
  8  7  1  0  0  0  0
  9 10  1  0  0  0  0
 10  2  1  0  0  0  0
 11 12  2  0  0  0  0
 12 13  1  0  0  0  0
 12 14  1  0  0  0  0
 14 15  1  0  0  0  0
 15 16  2  0  0  0  0
 17 16  1  0  0  0  0
 17 20  1  0  0  0  0
 18 17  2  0  0  0  0
 19 14  2  0  0  0  0
 19 18  1  0  0  0  0
 20 21  1  0  0  0  0
 23 22  1  0  0  0  0
 23 24  1  0  0  0  0
 25 23  1  0  0  0  0
 26 25  2  0  0  0  0
 27 26  1  0  0  0  0
 28 30  1  0  0  0  0
 28 27  2  0  0  0  0
 29 28  1  0  0  0  0
 30 31  2  0  0  0  0
 31 25  1  0  0  0  0
M  END
>  <Pose>
1

>  <Score>
-11.332

$$$$
