/Users/jonathanwahrer/Desktop/Msc/3_Semester/Drug_Design_Praktikum/waehrer_HTS_screening/HTS_experiment/out/docking_results/vina_output/6e43/0850_docked.pdbqt
 OpenBabel03212220113D

 29 32  0  0  1  0  0  0  0  0999 V2000
   20.3920   79.7920   17.4320 N   0  0  0  0  0  4  0  0  0  0  0  0
   20.2350   78.3980   17.7220 C   0  0  1  0  0  0  0  0  0  0  0  0
   21.6190   78.0920   18.2950 C   0  0  0  0  0  2  0  0  0  0  0  0
   22.5130   78.8790   17.4310 N   0  0  0  0  0  0  0  0  0  0  0  0
   23.8990   78.5810   17.3520 C   0  0  0  0  0  2  0  0  0  0  0  0
   24.6740   79.4260   16.3860 C   0  0  0  0  0  2  0  0  0  0  0  0
   23.9650   79.4450   15.0600 C   0  0  0  0  0  2  0  0  0  0  0  0
   23.2050   80.7790   15.0320 C   0  0  0  0  0  2  0  0  0  0  0  0
   21.9450   80.6160   15.7840 C   0  0  0  0  0  3  0  0  0  0  0  0
   21.6620   79.8380   16.8040 C   0  0  0  0  0  0  0  0  0  0  0  0
   19.5970   80.0610   16.7730 H   0  0  0  0  0  0  0  0  0  0  0  0
   19.1850   78.0300   18.5020 O   0  0  0  0  0  0  0  0  0  0  0  0
   18.8180   78.7600   19.0330 H   0  0  0  0  0  0  0  0  0  0  0  0
   20.1420   77.5780   16.4800 C   0  0  0  0  0  0  0  0  0  0  0  0
   21.0980   77.5120   15.5100 C   0  0  0  0  0  3  0  0  0  0  0  0
   20.9500   76.7090   14.3600 C   0  0  0  0  0  3  0  0  0  0  0  0
   19.8200   75.9520   14.1700 C   0  0  0  0  0  0  0  0  0  0  0  0
   18.8490   76.0110   15.1410 C   0  0  0  0  0  3  0  0  0  0  0  0
   18.9960   76.7960   16.2610 C   0  0  0  0  0  3  0  0  0  0  0  0
   19.6640   75.1460   13.0300 O   0  0  0  0  0  0  0  0  0  0  0  0
   18.6700   74.1510   12.9600 C   0  0  0  0  0  2  0  0  0  0  0  0
   19.2050   72.7840   13.2480 C   0  0  0  0  0  1  0  0  0  0  0  0
   20.3110   80.6840   18.4810 C   0  0  0  0  0  0  0  0  0  0  0  0
   20.1280   82.0390   18.2110 C   0  0  0  0  0  3  0  0  0  0  0  0
   20.0130   82.9850   19.2200 C   0  0  0  0  0  3  0  0  0  0  0  0
   20.0760   82.6130   20.5440 C   0  0  0  0  0  0  0  0  0  0  0  0
   19.8980   83.9010   21.9520 Br  0  0  0  0  0  0  0  0  0  0  0  0
   20.2550   81.2970   20.8380 C   0  0  0  0  0  3  0  0  0  0  0  0
   20.3680   80.3700   19.8060 C   0  0  0  0  0  3  0  0  0  0  0  0
  1  2  1  0  0  0  0
  1 23  1  0  0  0  0
  2  3  1  0  0  0  0
  2 12  1  1  0  0  0
  4  3  1  0  0  0  0
  5  4  1  0  0  0  0
  6  5  1  0  0  0  0
  7  6  1  0  0  0  0
  8  7  1  0  0  0  0
  8  9  1  0  0  0  0
  9 10  2  0  0  0  0
 10  4  1  0  0  0  0
 10  1  1  0  0  0  0
 11  1  1  0  0  0  0
 12 13  1  0  0  0  0
 14  2  1  0  0  0  0
 15 14  2  0  0  0  0
 16 15  1  0  0  0  0
 17 16  2  0  0  0  0
 17 18  1  0  0  0  0
 18 19  2  0  0  0  0
 19 14  1  0  0  0  0
 20 17  1  0  0  0  0
 21 20  1  0  0  0  0
 21 22  1  0  0  0  0
 23 29  1  0  0  0  0
 24 23  2  0  0  0  0
 24 25  1  0  0  0  0
 25 26  2  0  0  0  0
 26 28  1  0  0  0  0
 26 27  1  0  0  0  0
 29 28  2  0  0  0  0
M  END
>  <Pose>
1

>  <Score>
-9.821

$$$$
