/Users/jonathanwahrer/Desktop/Msc/3_Semester/Drug_Design_Praktikum/waehrer_HTS_screening/HTS_experiment/out/docking_results/vina_output/6e43/0862_docked.pdbqt
 OpenBabel03212220123D

 30 33  0  0  0  0  0  0  0  0999 V2000
   20.9470   76.7950   18.7790 Br  0  0  0  0  0  0  0  0  0  0  0  0
   21.0460   78.5090   17.9950 C   0  0  0  0  0  0  0  0  0  0  0  0
   21.6740   78.6240   16.7780 C   0  0  0  0  0  0  0  0  0  0  0  0
   21.8090   79.8450   16.0970 C   0  0  0  0  0  0  0  0  0  0  0  0
   21.2800   81.0010   16.6860 C   0  0  0  0  0  3  0  0  0  0  0  0
   20.6550   80.8710   17.9050 C   0  0  0  0  0  0  0  0  0  0  0  0
   20.5330   79.6580   18.5590 C   0  0  0  0  0  0  0  0  0  0  0  0
   19.8450   79.5490   19.8910 C   0  0  0  0  0  1  0  0  0  0  0  0
   19.9350   82.4440   18.7050 Br  0  0  0  0  0  0  0  0  0  0  0  0
   22.4880   79.9070   14.8170 C   0  0  0  0  0  0  0  0  0  0  0  0
   23.1050   80.9710   14.5640 O   0  0  0  0  0  0  0  0  0  0  0  0
   22.3910   78.7230   13.9420 C   0  0  0  0  0  0  0  0  0  0  0  0
   22.9630   77.6120   14.9340 C   0  0  0  0  0  2  0  0  0  0  0  0
   22.2320   77.5520   16.1060 O   0  0  0  0  0  0  0  0  0  0  0  0
   23.2560   78.6850   12.7800 C   0  0  0  0  0  2  0  0  0  0  0  0
   23.2280   79.4860   11.6490 N   0  0  0  0  0  4  0  0  0  0  0  0
   22.2450   80.4720   11.4280 C   0  0  0  0  0  2  0  0  0  0  0  0
   21.9710   80.7470    9.9550 C   0  0  0  0  0  2  0  0  0  0  0  0
   21.3630   79.5640    9.2720 C   0  0  0  0  0  2  0  0  0  0  0  0
   21.9340   78.3220    9.8840 C   0  0  0  0  0  2  0  0  0  0  0  0
   23.2840   78.6230   10.4480 C   0  0  0  0  0  2  0  0  0  0  0  0
   24.1890   80.0150   11.5160 H   0  0  0  0  0  0  0  0  0  0  0  0
   20.9690   78.3920   13.6930 C   0  0  0  0  0  2  0  0  0  0  0  0
   20.5940   77.1280   13.2170 N   0  0  0  0  0  4  0  0  0  0  0  0
   19.8990   76.4170   14.3000 C   0  0  0  0  0  2  0  0  0  0  0  0
   19.7150   74.9460   13.9890 C   0  0  0  0  0  2  0  0  0  0  0  0
   18.7650   74.8960   12.7810 C   0  0  0  0  0  2  0  0  0  0  0  0
   19.5130   75.6230   11.6880 C   0  0  0  0  0  2  0  0  0  0  0  0
   19.6440   77.0950   12.1170 C   0  0  0  0  0  2  0  0  0  0  0  0
   21.3420   76.4630   12.9330 H   0  0  0  0  0  0  0  0  0  0  0  0
  2  7  1  0  0  0  0
  2  1  1  0  0  0  0
  3  2  2  0  0  0  0
  4  5  2  0  0  0  0
  4  3  1  0  0  0  0
  5  6  1  0  0  0  0
  6  7  2  0  0  0  0
  6  9  1  0  0  0  0
  7  8  1  0  0  0  0
 10  4  1  0  0  0  0
 11 10  2  0  0  0  0
 12 10  1  0  0  0  0
 12 13  1  0  0  0  0
 13 14  1  0  0  0  0
 14  3  1  0  0  0  0
 15 12  1  0  0  0  0
 16 15  1  0  0  0  0
 17 16  1  0  0  0  0
 18 17  1  0  0  0  0
 19 20  1  0  0  0  0
 19 18  1  0  0  0  0
 20 21  1  0  0  0  0
 21 16  1  0  0  0  0
 22 16  1  0  0  0  0
 23 12  1  0  0  0  0
 24 23  1  0  0  0  0
 24 25  1  0  0  0  0
 26 25  1  0  0  0  0
 27 26  1  0  0  0  0
 28 29  1  0  0  0  0
 28 27  1  0  0  0  0
 29 24  1  0  0  0  0
 30 24  1  0  0  0  0
M  END
>  <Pose>
1

>  <Score>
-8.138

$$$$
