/Users/jonathanwahrer/Desktop/Msc/3_Semester/Drug_Design_Praktikum/waehrer_HTS_screening/HTS_experiment/out/docking_results/vina_output/6e43/0872_docked.pdbqt
 OpenBabel03212220123D

 32 35  0  0  0  0  0  0  0  0999 V2000
   21.8040   78.4720   15.6190 N   0  0  0  0  0  0  0  0  0  0  0  0
   21.6720   77.1610   15.7100 N   0  0  0  0  0  0  0  0  0  0  0  0
   21.1400   76.9320   16.8980 N   0  0  0  0  0  0  0  0  0  0  0  0
   20.9320   78.0840   17.5670 C   0  0  0  0  0  0  0  0  0  0  0  0
   21.3580   79.0560   16.7440 C   0  0  0  0  0  0  0  0  0  0  0  0
   21.1400   80.2220   17.4400 C   0  0  0  0  0  0  0  0  0  0  0  0
   21.4100   81.3740   17.0090 O   0  0  0  0  0  0  0  0  0  0  0  0
   20.5980   79.9880   18.6530 N   0  0  0  0  0  0  0  0  0  0  0  0
   20.4650   78.6540   18.7390 C   0  0  0  0  0  0  0  0  0  0  0  0
   19.9920   78.0340   19.7270 O   0  0  0  0  0  0  0  0  0  0  0  0
   21.9330   76.4300   14.9870 H   0  0  0  0  0  0  0  0  0  0  0  0
   20.9210   75.9600   17.2420 H   0  0  0  0  0  0  0  0  0  0  0  0
   22.3500   79.1370   14.4560 C   0  0  0  0  0  2  0  0  0  0  0  0
   21.5860   78.6880   13.2270 C   0  0  0  0  0  0  0  0  0  0  0  0
   21.5150   79.5340   12.1230 N   0  0  0  0  0  0  0  0  0  0  0  0
   22.0270   80.4760   12.2220 H   0  0  0  0  0  0  0  0  0  0  0  0
   21.0570   77.5730   13.2790 O   0  0  0  0  0  0  0  0  0  0  0  0
   20.8410   79.2450   10.9260 C   0  0  0  0  0  0  0  0  0  0  0  0
   21.5510   78.6060    9.8960 C   0  0  0  0  0  0  0  0  0  0  0  0
   22.8580   78.3020   10.1270 F   0  0  0  0  0  0  0  0  0  0  0  0
   20.9300   78.3060    8.7110 C   0  0  0  0  0  3  0  0  0  0  0  0
   19.6040   78.6260    8.5060 C   0  0  0  0  0  0  0  0  0  0  0  0
   18.8740   79.2530    9.4890 C   0  0  0  0  0  3  0  0  0  0  0  0
   19.0290   78.3130    7.3220 F   0  0  0  0  0  0  0  0  0  0  0  0
   19.5350   79.5500   10.7000 C   0  0  0  0  0  3  0  0  0  0  0  0
   20.2500   80.9900   19.6230 C   0  0  0  0  0  0  0  0  0  0  0  0
   19.1090   81.7540   19.4700 C   0  0  0  0  0  3  0  0  0  0  0  0
   18.7360   82.7260   20.3750 C   0  0  0  0  0  3  0  0  0  0  0  0
   19.5590   82.9190   21.4670 C   0  0  0  0  0  0  0  0  0  0  0  0
   20.7140   82.1840   21.6730 C   0  0  0  0  0  3  0  0  0  0  0  0
   19.0190   84.2780   22.7140 Br  0  0  0  0  0  0  0  0  0  0  0  0
   21.0300   81.2270   20.7300 C   0  0  0  0  0  3  0  0  0  0  0  0
  1  2  1  0  0  0  0
  1  5  1  0  0  0  0
  2  3  1  0  0  0  0
  3 12  1  0  0  0  0
  3  4  1  0  0  0  0
  4  9  1  0  0  0  0
  5  6  1  0  0  0  0
  5  4  2  0  0  0  0
  6  8  1  0  0  0  0
  7  6  2  0  0  0  0
  8  9  1  0  0  0  0
  8 26  1  0  0  0  0
  9 10  2  0  0  0  0
 11  2  1  0  0  0  0
 13  1  1  0  0  0  0
 14 17  2  0  0  0  0
 14 13  1  0  0  0  0
 15 16  1  0  0  0  0
 15 14  1  0  0  0  0
 18 15  1  0  0  0  0
 19 20  1  0  0  0  0
 19 18  2  0  0  0  0
 21 19  1  0  0  0  0
 22 21  2  0  0  0  0
 22 23  1  0  0  0  0
 23 25  2  0  0  0  0
 24 22  1  0  0  0  0
 25 18  1  0  0  0  0
 26 32  1  0  0  0  0
 27 26  2  0  0  0  0
 27 28  1  0  0  0  0
 28 29  2  0  0  0  0
 29 30  1  0  0  0  0
 29 31  1  0  0  0  0
 32 30  2  0  0  0  0
M  END
>  <Pose>
1

>  <Score>
-10.325

$$$$
