/Users/jonathanwahrer/Desktop/Msc/3_Semester/Drug_Design_Praktikum/waehrer_HTS_screening/HTS_experiment/out/docking_results/vina_output/6e43/0873_docked.pdbqt
 OpenBabel03212220123D

 32 35  0  0  1  0  0  0  0  0999 V2000
   22.1720   77.6410   16.5030 C   0  0  2  0  0  3  0  0  0  0  0  0
   21.4390   77.7760   15.2540 N   0  0  0  0  0  0  0  0  0  0  0  0
   21.5450   79.1950   15.0110 C   0  0  0  0  0  0  0  0  0  0  0  0
   21.5870   79.8020   13.9090 O   0  0  0  0  0  0  0  0  0  0  0  0
   21.6020   79.8980   16.3240 C   0  0  0  0  0  0  0  0  0  0  0  0
   21.6920   81.0880   16.6220 O   0  0  0  0  0  0  0  0  0  0  0  0
   21.5200   78.7600   17.2860 C   0  0  0  0  0  0  0  0  0  0  0  0
   21.0100   78.7830   18.4930 C   0  0  0  0  0  0  0  0  0  0  0  0
   21.0290   77.6060   19.2690 O   0  0  0  0  0  1  0  0  0  0  0  0
   20.7660   76.8870   14.4070 C   0  0  0  0  0  2  0  0  0  0  0  0
   19.6110   76.0950   14.9070 C   0  0  0  0  0  2  0  0  0  0  0  0
   19.0530   75.1930   13.9400 N   0  0  0  0  0  4  0  0  0  0  0  0
   19.7600   73.9320   14.0130 C   0  0  0  0  0  2  0  0  0  0  0  0
   19.1260   72.9060   13.0910 C   0  0  0  0  0  2  0  0  0  0  0  0
   19.1610   73.3820   11.7940 O   0  0  0  0  0  0  0  0  0  0  0  0
   18.5220   74.6160   11.7090 C   0  0  0  0  0  2  0  0  0  0  0  0
   19.2700   75.6560   12.5540 C   0  0  0  0  0  2  0  0  0  0  0  0
   18.0180   75.0950   13.9960 H   0  0  0  0  0  0  0  0  0  0  0  0
   23.6120   77.9310   16.4050 C   0  0  0  0  0  0  0  0  0  0  0  0
   24.4290   77.3690   15.4460 C   0  0  0  0  0  0  0  0  0  0  0  0
   23.9610   76.5440   14.5230 F   0  0  0  0  0  0  0  0  0  0  0  0
   25.7980   77.6480   15.4050 C   0  0  0  0  0  3  0  0  0  0  0  0
   26.3740   78.4820   16.3060 C   0  0  0  0  0  3  0  0  0  0  0  0
   25.5980   79.0570   17.2710 C   0  0  0  0  0  3  0  0  0  0  0  0
   24.2430   78.7660   17.2940 C   0  0  0  0  0  3  0  0  0  0  0  0
   20.4200   79.9880   19.0570 C   0  0  0  0  0  0  0  0  0  0  0  0
   21.1780   80.7730   19.8970 C   0  0  0  0  0  3  0  0  0  0  0  0
   20.6710   81.9170   20.4900 C   0  0  0  0  0  3  0  0  0  0  0  0
   19.3710   82.2980   20.2420 C   0  0  0  0  0  0  0  0  0  0  0  0
   18.6030   81.5370   19.4150 C   0  0  0  0  0  3  0  0  0  0  0  0
   18.6380   83.8870   21.0540 Br  0  0  0  0  0  0  0  0  0  0  0  0
   19.1280   80.3770   18.8200 C   0  0  0  0  0  3  0  0  0  0  0  0
  1 19  1  6  0  0  0
  1  7  1  0  0  0  0
  2  1  1  0  0  0  0
  3  2  1  0  0  0  0
  3  5  1  0  0  0  0
  4  3  2  0  0  0  0
  5  6  2  0  0  0  0
  5  7  1  0  0  0  0
  7  8  2  0  0  0  0
  8 26  1  0  0  0  0
  8  9  1  0  0  0  0
 10 11  1  0  0  0  0
 10  2  1  0  0  0  0
 12 18  1  0  0  0  0
 12 13  1  0  0  0  0
 12 11  1  0  0  0  0
 14 13  1  0  0  0  0
 15 14  1  0  0  0  0
 16 15  1  0  0  0  0
 16 17  1  0  0  0  0
 17 12  1  0  0  0  0
 19 25  1  0  0  0  0
 20 19  2  0  0  0  0
 21 20  1  0  0  0  0
 22 20  1  0  0  0  0
 22 23  2  0  0  0  0
 23 24  1  0  0  0  0
 24 25  2  0  0  0  0
 26 27  1  0  0  0  0
 27 28  2  0  0  0  0
 29 28  1  0  0  0  0
 29 31  1  0  0  0  0
 30 29  2  0  0  0  0
 32 26  2  0  0  0  0
 32 30  1  0  0  0  0
M  END
>  <Pose>
1

>  <Score>
-10.386

$$$$
