/Users/jonathanwahrer/Desktop/Msc/3_Semester/Drug_Design_Praktikum/waehrer_HTS_screening/HTS_experiment/out/docking_results/vina_output/6e43/0886_docked.pdbqt
 OpenBabel03212220133D

 31 34  0  0  0  0  0  0  0  0999 V2000
   19.9780   80.7300   18.7600 N   0  0  0  0  0  0  0  0  0  0  0  0
   20.7840   80.2730   17.7880 C   0  0  0  0  0  0  0  0  0  0  0  0
   21.5410   81.0470   17.1410 O   0  0  0  0  0  0  0  0  0  0  0  0
   20.6680   78.9070   17.6110 C   0  0  0  0  0  0  0  0  0  0  0  0
   19.7600   78.5250   18.5060 C   0  0  0  0  0  0  0  0  0  0  0  0
   19.6120   77.2040   18.3680 N   0  0  0  0  0  0  0  0  0  0  0  0
   20.4160   76.7920   17.4050 N   0  0  0  0  0  0  0  0  0  0  0  0
   21.0900   77.8260   16.9100 N   0  0  0  0  0  0  0  0  0  0  0  0
   19.3310   79.6270   19.2140 C   0  0  0  0  0  0  0  0  0  0  0  0
   18.4810   79.6910   20.1470 O   0  0  0  0  0  0  0  0  0  0  0  0
   18.9510   76.6230   18.9540 H   0  0  0  0  0  0  0  0  0  0  0  0
   20.5210   75.8230   17.0730 H   0  0  0  0  0  0  0  0  0  0  0  0
   22.0690   77.8530   15.8620 C   0  0  0  0  0  2  0  0  0  0  0  0
   21.5830   77.4760   14.5310 C   0  0  0  0  0  0  0  0  0  0  0  0
   21.0980   76.3420   14.3980 O   0  0  0  0  0  0  0  0  0  0  0  0
   21.6680   78.3720   13.4610 N   0  0  0  0  0  0  0  0  0  0  0  0
   22.1020   79.3460   13.6510 H   0  0  0  0  0  0  0  0  0  0  0  0
   21.2610   78.2000   12.1170 C   0  0  0  0  0  0  0  0  0  0  0  0
   20.0680   77.6020   11.7870 C   0  0  0  0  0  3  0  0  0  0  0  0
   19.6330   77.4140   10.4710 C   0  0  0  0  0  3  0  0  0  0  0  0
   20.4690   77.8630    9.4800 C   0  0  0  0  0  0  0  0  0  0  0  0
   21.6650   78.4640    9.7830 C   0  0  0  0  0  3  0  0  0  0  0  0
   19.9310   77.6380    7.6420 Br  0  0  0  0  0  0  0  0  0  0  0  0
   22.0690   78.6360   11.0810 C   0  0  0  0  0  3  0  0  0  0  0  0
   19.8130   82.0690   19.2240 C   0  0  0  0  0  0  0  0  0  0  0  0
   20.1800   83.1860   18.5080 C   0  0  0  0  0  3  0  0  0  0  0  0
   20.0020   84.4760   19.0150 C   0  0  0  0  0  3  0  0  0  0  0  0
   19.4520   84.6600   20.2520 C   0  0  0  0  0  0  0  0  0  0  0  0
   19.2830   85.9250   20.7390 F   0  0  0  0  0  0  0  0  0  0  0  0
   19.0780   83.5570   20.9840 C   0  0  0  0  0  3  0  0  0  0  0  0
   19.2590   82.2910   20.4750 C   0  0  0  0  0  3  0  0  0  0  0  0
  1  9  1  0  0  0  0
  1 25  1  0  0  0  0
  2  1  1  0  0  0  0
  3  2  2  0  0  0  0
  4  2  1  0  0  0  0
  4  5  2  0  0  0  0
  5  9  1  0  0  0  0
  6  5  1  0  0  0  0
  6 11  1  0  0  0  0
  7  6  1  0  0  0  0
  8  7  1  0  0  0  0
  8  4  1  0  0  0  0
  9 10  2  0  0  0  0
 12  7  1  0  0  0  0
 13  8  1  0  0  0  0
 14 13  1  0  0  0  0
 15 14  2  0  0  0  0
 16 17  1  0  0  0  0
 16 14  1  0  0  0  0
 18 16  1  0  0  0  0
 19 18  1  0  0  0  0
 20 19  2  0  0  0  0
 21 22  2  0  0  0  0
 21 20  1  0  0  0  0
 22 24  1  0  0  0  0
 23 21  1  0  0  0  0
 24 18  2  0  0  0  0
 25 31  1  0  0  0  0
 26 27  1  0  0  0  0
 26 25  2  0  0  0  0
 27 28  2  0  0  0  0
 28 29  1  0  0  0  0
 28 30  1  0  0  0  0
 31 30  2  0  0  0  0
M  END
>  <Pose>
1

>  <Score>
-11.415

$$$$
