/Users/jonathanwahrer/Desktop/Msc/3_Semester/Drug_Design_Praktikum/waehrer_HTS_screening/HTS_experiment/out/docking_results/vina_output/6e43/0892_docked.pdbqt
 OpenBabel03212220133D

 27 30  0  0  1  0  0  0  0  0999 V2000
   23.6700   78.1690   14.3560 C   0  0  2  0  0  3  0  0  0  0  0  0
   23.4550   77.6280   15.6790 N   0  0  0  0  0  0  0  0  0  0  0  0
   22.5980   78.3190   16.5930 C   0  0  0  0  0  0  0  0  0  0  0  0
   21.6590   77.8070   17.9640 S   0  0  0  0  0  0  0  0  0  0  0  0
   20.9850   79.3010   18.4140 C   0  0  0  0  0  0  0  0  0  0  0  0
   21.4990   80.1510   17.4970 C   0  0  0  0  0  0  0  0  0  0  0  0
   22.3260   79.6560   16.5610 C   0  0  0  0  0  0  0  0  0  0  0  0
   23.0410   80.3270   15.4370 C   0  0  0  0  0  0  0  0  0  0  0  0
   22.9250   81.5590   15.2390 O   0  0  0  0  0  0  0  0  0  0  0  0
   23.8720   79.5930   14.5630 N   0  0  0  0  0  0  0  0  0  0  0  0
   21.0540   81.6000   17.6610 C   0  0  0  0  0  2  0  0  0  0  0  0
   20.6210   81.7980   19.0770 C   0  0  0  0  0  2  0  0  0  0  0  0
   19.4650   80.9080   19.2650 N   0  0  0  0  0  4  0  0  0  0  0  0
   20.0630   79.6160   19.5290 C   0  0  0  0  0  2  0  0  0  0  0  0
   18.6250   81.3600   20.3480 C   0  0  0  0  0  1  0  0  0  0  0  0
   23.8980   76.7440   16.0150 H   0  0  0  0  0  0  0  0  0  0  0  0
   24.6570   80.0630   14.0430 H   0  0  0  0  0  0  0  0  0  0  0  0
   18.9490   80.8350   18.3630 H   0  0  0  0  0  0  0  0  0  0  0  0
   22.4190   77.9260   13.5910 C   0  0  0  0  0  0  0  0  0  0  0  0
   22.0790   78.5960   12.4400 C   0  0  0  0  0  0  0  0  0  0  0  0
   20.8840   78.3400   11.7650 C   0  0  0  0  0  0  0  0  0  0  0  0
   22.9360   79.5480   11.9330 O   0  0  0  0  0  1  0  0  0  0  0  0
   20.4220   79.4010   10.0080 I   0  0  0  0  0  0  0  0  0  0  0  0
   20.0040   77.4080   12.2220 C   0  0  0  0  0  3  0  0  0  0  0  0
   20.3260   76.7260   13.3720 C   0  0  0  0  0  0  0  0  0  0  0  0
   21.4960   76.9720   14.0420 C   0  0  0  0  0  3  0  0  0  0  0  0
   19.0970   75.4220   14.0150 Br  0  0  0  0  0  0  0  0  0  0  0  0
  1 19  1  6  0  0  0
  1 10  1  0  0  0  0
  1  2  1  0  0  0  0
  2 16  1  0  0  0  0
  2  3  1  0  0  0  0
  3  4  1  0  0  0  0
  4  5  1  0  0  0  0
  5 14  1  0  0  0  0
  6 11  1  0  0  0  0
  6  5  2  0  0  0  0
  7  3  2  0  0  0  0
  7  6  1  0  0  0  0
  8  7  1  0  0  0  0
  9  8  2  0  0  0  0
 10  8  1  0  0  0  0
 11 12  1  0  0  0  0
 12 13  1  0  0  0  0
 13 14  1  0  0  0  0
 13 15  1  0  0  0  0
 17 10  1  0  0  0  0
 18 13  1  0  0  0  0
 19 26  1  0  0  0  0
 20 19  2  0  0  0  0
 21 24  2  0  0  0  0
 21 20  1  0  0  0  0
 22 20  1  0  0  0  0
 23 21  1  0  0  0  0
 24 25  1  0  0  0  0
 25 27  1  0  0  0  0
 25 26  2  0  0  0  0
M  END
>  <Pose>
1

>  <Score>
-7.852

$$$$
