/Users/jonathanwahrer/Desktop/Msc/3_Semester/Drug_Design_Praktikum/waehrer_HTS_screening/HTS_experiment/out/docking_results/vina_output/6e43/0895_docked.pdbqt
 OpenBabel03212220133D

 28 31  0  0  1  0  0  0  0  0999 V2000
   21.9850   78.9730   16.1700 C   0  0  2  0  0  3  0  0  0  0  0  0
   22.3760   80.0210   15.2270 N   0  0  0  0  0  0  0  0  0  0  0  0
   22.3340   79.7910   13.7970 C   0  0  0  0  0  0  0  0  0  0  0  0
   22.9890   80.6450   12.4570 S   0  0  0  0  0  0  0  0  0  0  0  0
   22.4340   79.6450   11.2050 C   0  0  0  0  0  0  0  0  0  0  0  0
   21.7460   78.6610   11.8630 C   0  0  0  0  0  0  0  0  0  0  0  0
   21.6970   78.7440   13.2100 C   0  0  0  0  0  0  0  0  0  0  0  0
   21.0180   77.8070   14.1500 C   0  0  0  0  0  0  0  0  0  0  0  0
   20.3880   76.7890   13.7320 O   0  0  0  0  0  0  0  0  0  0  0  0
   21.0760   78.0590   15.5350 N   0  0  0  0  0  0  0  0  0  0  0  0
   21.1550   77.6400   10.8970 C   0  0  0  0  0  2  0  0  0  0  0  0
   20.4030   78.3610    9.8100 C   0  0  0  0  0  2  0  0  0  0  0  0
   21.0900   79.4890    9.2760 N   0  0  0  0  0  4  0  0  0  0  0  0
   22.4850   79.5480    9.7000 C   0  0  0  0  0  2  0  0  0  0  0  0
   20.4600   80.6910    9.8450 C   0  0  0  0  0  1  0  0  0  0  0  0
   22.6910   80.9550   15.5480 H   0  0  0  0  0  0  0  0  0  0  0  0
   20.4110   77.5460   16.1700 H   0  0  0  0  0  0  0  0  0  0  0  0
   21.0380   79.5610    8.2260 H   0  0  0  0  0  0  0  0  0  0  0  0
   21.2350   79.6620   17.2560 C   0  0  0  0  0  0  0  0  0  0  0  0
   20.5760   78.8780   18.1940 C   0  0  0  0  0  3  0  0  0  0  0  0
   19.8590   79.3970   19.2300 C   0  0  0  0  0  0  0  0  0  0  0  0
   19.7940   80.7850   19.3400 C   0  0  0  0  0  0  0  0  0  0  0  0
   20.4410   81.5870   18.4210 C   0  0  0  0  0  0  0  0  0  0  0  0
   19.0770   81.3490   20.3780 O   0  0  0  0  0  1  0  0  0  0  0  0
   20.3310   83.6850   18.6060 I   0  0  0  0  0  0  0  0  0  0  0  0
   21.1600   81.0220   17.3800 C   0  0  0  0  0  3  0  0  0  0  0  0
   19.1900   78.6410   20.1830 O   0  0  0  0  0  0  0  0  0  0  0  0
   19.9530   77.8850   21.1050 C   0  0  0  0  0  1  0  0  0  0  0  0
  1 19  1  1  0  0  0
  2 16  1  0  0  0  0
  2  1  1  0  0  0  0
  3  2  1  0  0  0  0
  4  3  1  0  0  0  0
  5  6  2  0  0  0  0
  5  4  1  0  0  0  0
  6  7  1  0  0  0  0
  7  3  2  0  0  0  0
  7  8  1  0  0  0  0
  8 10  1  0  0  0  0
  9  8  2  0  0  0  0
 10 17  1  0  0  0  0
 10  1  1  0  0  0  0
 11  6  1  0  0  0  0
 12 11  1  0  0  0  0
 13 14  1  0  0  0  0
 13 12  1  0  0  0  0
 13 15  1  0  0  0  0
 14  5  1  0  0  0  0
 18 13  1  0  0  0  0
 19 26  2  0  0  0  0
 19 20  1  0  0  0  0
 20 21  2  0  0  0  0
 21 22  1  0  0  0  0
 21 27  1  0  0  0  0
 22 24  1  0  0  0  0
 23 25  1  0  0  0  0
 23 22  2  0  0  0  0
 26 23  1  0  0  0  0
 27 28  1  0  0  0  0
M  END
>  <Pose>
1

>  <Score>
-7.569

$$$$
