/Users/jonathanwahrer/Desktop/Msc/3_Semester/Drug_Design_Praktikum/waehrer_HTS_screening/HTS_experiment/out/docking_results/vina_output/6e43/0910_docked.pdbqt
 OpenBabel03212220133D

 26 29  0  0  0  0  0  0  0  0999 V2000
   20.9000   79.2490   16.7640 C   0  0  0  0  0  0  0  0  0  0  0  0
   20.3330   78.6450   17.9100 C   0  0  0  0  0  0  0  0  0  0  0  0
   19.9890   77.3870   18.1590 N   0  0  0  0  0  0  0  0  0  0  0  0
   19.5020   77.3280   19.3610 O   0  0  0  0  0  0  0  0  0  0  0  0
   19.5110   78.4900   19.9060 N   0  0  0  0  0  0  0  0  0  0  0  0
   20.0290   79.3550   19.0240 C   0  0  0  0  0  0  0  0  0  0  0  0
   20.2730   80.7100   19.0600 C   0  0  0  0  0  0  0  0  0  0  0  0
   20.8210   81.3270   17.9650 C   0  0  0  0  0  3  0  0  0  0  0  0
   21.1360   80.6160   16.8240 C   0  0  0  0  0  3  0  0  0  0  0  0
   21.2260   78.3750   15.7470 N   0  0  0  0  0  0  0  0  0  0  0  0
   21.5410   77.5320   14.7650 C   0  0  0  0  0  0  0  0  0  0  0  0
   22.5820   76.7550   14.7800 O   0  0  0  0  0  0  0  0  0  0  0  0
   22.4170   78.1320   16.3600 H   0  0  0  0  0  0  0  0  0  0  0  0
   20.7790   77.3330   13.5020 C   0  0  0  0  0  0  0  0  0  0  0  0
   20.9450   78.0750   12.3530 C   0  0  0  0  0  0  0  0  0  0  0  0
   22.2680   79.7220   12.0910 I   0  0  0  0  0  0  0  0  0  0  0  0
   20.1040   77.5550   11.4010 C   0  0  0  0  0  3  0  0  0  0  0  0
   19.4680   76.5400   11.9820 N   0  0  0  0  0  0  0  0  0  0  0  0
   19.8640   76.3960   13.2410 N   0  0  0  0  0  0  0  0  0  0  0  0
   19.3700   75.3220   14.1220 C   0  0  0  0  0  1  0  0  0  0  0  0
   19.9370   81.4100   20.2280 N   0  0  0  0  0  0  0  0  0  0  0  0
   18.7630   82.2800   20.3200 C   0  0  0  0  0  2  0  0  0  0  0  0
   19.3310   83.6600   20.5820 C   0  0  0  0  0  2  0  0  0  0  0  0
   20.7120   83.6830   20.6920 O   0  0  0  0  0  0  0  0  0  0  0  0
   21.2440   82.8000   21.6080 C   0  0  0  0  0  2  0  0  0  0  0  0
   20.6530   81.4070   21.4840 C   0  0  0  0  0  2  0  0  0  0  0  0
  1  9  2  0  0  0  0
  1  2  1  0  0  0  0
  2  3  2  0  0  0  0
  2  6  1  0  0  0  0
  3  4  1  0  0  0  0
  4  5  1  0  0  0  0
  6  7  1  0  0  0  0
  6  5  2  0  0  0  0
  7 21  1  0  0  0  0
  8  7  2  0  0  0  0
  9  8  1  0  0  0  0
 10 13  1  0  0  0  0
 10  1  1  0  0  0  0
 11 12  2  0  0  0  0
 11 10  1  0  0  0  0
 14 11  1  0  0  0  0
 15 14  2  0  0  0  0
 16 15  1  0  0  0  0
 17 18  2  0  0  0  0
 17 15  1  0  0  0  0
 18 19  1  0  0  0  0
 19 14  1  0  0  0  0
 19 20  1  0  0  0  0
 21 22  1  0  0  0  0
 21 26  1  0  0  0  0
 22 23  1  0  0  0  0
 23 24  1  0  0  0  0
 24 25  1  0  0  0  0
 26 25  1  0  0  0  0
M  END
>  <Pose>
1

>  <Score>
-8.957

$$$$
