/Users/jonathanwahrer/Desktop/Msc/3_Semester/Drug_Design_Praktikum/waehrer_HTS_screening/HTS_experiment/out/docking_results/vina_output/6e43/0935_docked.pdbqt
 OpenBabel03212220143D

 34 38  0  0  1  0  0  0  0  0999 V2000
   19.6130   75.6160   12.8740 N   0  0  0  0  0  0  0  0  0  0  0  0
   19.6230   76.7070   12.0890 C   0  0  0  0  0  0  0  0  0  0  0  0
   20.3790   77.8220   12.3810 C   0  0  2  0  0  3  0  0  0  0  0  0
   21.1330   77.7540   13.5360 C   0  0  0  0  0  0  0  0  0  0  0  0
   21.8800   78.6940   13.9440 O   0  0  0  0  0  0  0  0  0  0  0  0
   21.1310   76.6490   14.3440 N   0  0  0  0  0  0  0  0  0  0  0  0
   20.3640   75.6050   13.9870 C   0  0  0  0  0  0  0  0  0  0  0  0
   20.3290   74.5680   14.6980 O   0  0  0  0  0  0  0  0  0  0  0  0
   18.8630   76.7340   10.9490 O   0  0  0  0  0  0  0  0  0  0  0  0
   21.6980   76.6040   15.2110 H   0  0  0  0  0  0  0  0  0  0  0  0
   20.4310   79.0400   11.5930 C   0  0  1  0  0  3  0  0  0  0  0  0
   21.7170   79.6080   11.3430 N   0  0  0  0  0  4  0  0  0  0  0  0
   22.5900   78.7890   10.5480 C   0  0  0  0  0  2  0  0  0  0  0  0
   21.4500   80.8070   10.5050 C   0  0  0  0  0  1  0  0  0  0  0  0
   22.2000   80.0340   12.1510 H   0  0  0  0  0  0  0  0  0  0  0  0
   21.8930   77.5960    9.9280 C   0  0  0  0  0  2  0  0  0  0  0  0
   20.5720   78.0580    9.3610 C   0  0  0  0  0  0  0  0  0  0  0  0
   19.8330   78.8230   10.2270 C   0  0  0  0  0  0  0  0  0  0  0  0
   20.1470   77.7840    8.1030 C   0  0  0  0  0  3  0  0  0  0  0  0
   18.6220   79.3430    9.8380 C   0  0  0  0  0  0  0  0  0  0  0  0
   18.1930   79.0600    8.5490 C   0  0  0  0  0  0  0  0  0  0  0  0
   18.9230   78.2920    7.6670 C   0  0  0  0  0  0  0  0  0  0  0  0
   17.0340   79.4240    7.8460 O   0  0  0  0  0  0  0  0  0  0  0  0
   18.2200   78.2010    6.4760 O   0  0  0  0  0  0  0  0  0  0  0  0
   16.8590   78.6020    6.7070 C   0  0  0  0  0  2  0  0  0  0  0  0
   17.8940   80.1060   10.7070 O   0  0  0  0  0  0  0  0  0  0  0  0
   18.0190   81.4730   10.9350 C   0  0  0  0  0  1  0  0  0  0  0  0
   18.8250   74.4800   12.5540 C   0  0  0  0  0  0  0  0  0  0  0  0
   19.1800   73.5860   11.5570 C   0  0  0  0  0  3  0  0  0  0  0  0
   18.4250   72.4920   11.2470 C   0  0  0  0  0  3  0  0  0  0  0  0
   17.2460   72.2330   11.9380 C   0  0  0  0  0  0  0  0  0  0  0  0
   16.0930   70.5480   11.4520 I   0  0  0  0  0  0  0  0  0  0  0  0
   16.8910   73.1190   12.9290 C   0  0  0  0  0  3  0  0  0  0  0  0
   17.6470   74.2270   13.2490 C   0  0  0  0  0  3  0  0  0  0  0  0
  1  7  1  0  0  0  0
  2  1  1  0  0  0  0
  3  2  1  1  0  0  0
  3  4  1  0  0  0  0
  4  5  2  0  0  0  0
  4  6  1  0  0  0  0
  6 10  1  0  0  0  0
  7  6  1  0  0  0  0
  7  8  2  0  0  0  0
  9  2  2  0  0  0  0
 11 18  1  6  0  0  0
 11  3  1  0  0  0  0
 12 11  1  0  0  0  0
 12 15  1  0  0  0  0
 13 12  1  0  0  0  0
 14 12  1  0  0  0  0
 16 13  1  0  0  0  0
 17 16  1  0  0  0  0
 17 18  1  0  0  0  0
 19 17  2  0  0  0  0
 20 18  2  0  0  0  0
 20 26  1  0  0  0  0
 21 20  1  0  0  0  0
 22 19  1  0  0  0  0
 22 21  2  0  0  0  0
 23 21  1  0  0  0  0
 24 25  1  0  0  0  0
 24 22  1  0  0  0  0
 25 23  1  0  0  0  0
 26 27  1  0  0  0  0
 28  1  1  0  0  0  0
 28 34  1  0  0  0  0
 29 28  2  0  0  0  0
 30 29  1  0  0  0  0
 30 31  2  0  0  0  0
 31 33  1  0  0  0  0
 32 31  1  0  0  0  0
 33 34  2  0  0  0  0
M  END
>  <Pose>
1

>  <Score>
-9.169

$$$$
