/Users/jonathanwahrer/Desktop/Msc/3_Semester/Drug_Design_Praktikum/waehrer_HTS_screening/HTS_experiment/out/docking_results/vina_output/6e43/0950_docked.pdbqt
 OpenBabel03212220143D

 26 29  0  0  0  0  0  0  0  0999 V2000
   20.8320   78.5570   11.7610 C   0  0  0  0  0  0  0  0  0  0  0  0
   20.7870   77.6760   12.8460 C   0  0  0  0  0  0  0  0  0  0  0  0
   19.9320   76.6850   13.1540 N   0  0  0  0  0  0  0  0  0  0  0  0
   20.3110   76.1490   14.2770 O   0  0  0  0  0  0  0  0  0  0  0  0
   21.3750   76.7410   14.7230 N   0  0  0  0  0  0  0  0  0  0  0  0
   21.7150   77.7130   13.8540 C   0  0  0  0  0  0  0  0  0  0  0  0
   22.7330   78.6410   13.8160 C   0  0  0  0  0  0  0  0  0  0  0  0
   22.7680   79.5000   12.7460 C   0  0  0  0  0  3  0  0  0  0  0  0
   21.8240   79.4710   11.7110 C   0  0  0  0  0  3  0  0  0  0  0  0
   19.8230   78.4270   10.7800 N   0  0  0  0  0  0  0  0  0  0  0  0
   19.9950   78.1540    9.4290 C   0  0  0  0  0  0  0  0  0  0  0  0
   21.1730   77.9960    8.9570 O   0  0  0  0  0  0  0  0  0  0  0  0
   18.8080   78.5610   11.0860 H   0  0  0  0  0  0  0  0  0  0  0  0
   18.9010   78.0270    8.4490 C   0  0  0  0  0  0  0  0  0  0  0  0
   18.4740   76.9910    7.6920 C   0  0  0  0  0  0  0  0  0  0  0  0
   19.2660   75.0680    7.5540 I   0  0  0  0  0  0  0  0  0  0  0  0
   17.3710   77.4380    6.9640 C   0  0  0  0  0  3  0  0  0  0  0  0
   17.1470   78.7140    7.2800 N   0  0  0  0  0  0  0  0  0  0  0  0
   18.0480   79.0650    8.1550 N   0  0  0  0  0  0  0  0  0  0  0  0
   16.0690   79.5400    6.7200 C   0  0  0  0  0  1  0  0  0  0  0  0
   23.6820   78.6640   14.8680 N   0  0  0  0  0  0  0  0  0  0  0  0
   23.5800   79.6390   15.9340 C   0  0  0  0  0  2  0  0  0  0  0  0
   24.6510   79.3790   16.9350 C   0  0  0  0  0  2  0  0  0  0  0  0
   24.7450   78.0610   17.3360 O   0  0  0  0  0  0  0  0  0  0  0  0
   24.9380   77.1630   16.3350 C   0  0  0  0  0  2  0  0  0  0  0  0
   24.7920   77.7350   14.9470 C   0  0  0  0  0  2  0  0  0  0  0  0
  1  2  1  0  0  0  0
  2  3  2  0  0  0  0
  2  6  1  0  0  0  0
  3  4  1  0  0  0  0
  4  5  1  0  0  0  0
  6  5  2  0  0  0  0
  7  6  1  0  0  0  0
  7 21  1  0  0  0  0
  8  7  2  0  0  0  0
  9  1  2  0  0  0  0
  9  8  1  0  0  0  0
 10 13  1  0  0  0  0
 10  1  1  0  0  0  0
 11 10  1  0  0  0  0
 12 11  2  0  0  0  0
 14 11  1  0  0  0  0
 15 14  1  0  0  0  0
 16 15  1  0  0  0  0
 17 18  1  0  0  0  0
 17 15  2  0  0  0  0
 18 19  1  0  0  0  0
 19 14  2  0  0  0  0
 20 18  1  0  0  0  0
 21 26  1  0  0  0  0
 21 22  1  0  0  0  0
 22 23  1  0  0  0  0
 23 24  1  0  0  0  0
 25 24  1  0  0  0  0
 26 25  1  0  0  0  0
M  END
>  <Pose>
1

>  <Score>
-8.466

$$$$
