/Users/jonathanwahrer/Desktop/Msc/3_Semester/Drug_Design_Praktikum/waehrer_HTS_screening/HTS_experiment/out/docking_results/vina_output/6e43/0961_docked.pdbqt
 OpenBabel03212220143D

 29 33  0  0  1  0  0  0  0  0999 V2000
   20.7470   77.4030   15.4070 C   0  0  1  0  0  3  0  0  0  0  0  0
   20.8130   77.5900   16.7040 N   0  0  0  0  0  0  0  0  0  0  0  0
   21.5490   78.6250   17.2080 C   0  0  0  0  0  3  0  0  0  0  0  0
   22.2400   79.5090   16.4360 C   0  0  0  0  0  3  0  0  0  0  0  0
   22.1920   79.3470   15.0690 C   0  0  0  0  0  0  0  0  0  0  0  0
   22.7430   80.0190   14.0000 N   0  0  0  0  0  0  0  0  0  0  0  0
   22.3730   79.4320   12.8740 C   0  0  0  0  0  0  0  0  0  0  0  0
   21.5830   78.3860   13.2400 N   0  0  0  0  0  0  0  0  0  0  0  0
   21.4570   78.3110   14.5710 C   0  0  0  0  0  0  0  0  0  0  0  0
   23.5580   81.1800   14.2190 C   0  0  0  0  0  1  0  0  0  0  0  0
   20.0740   76.7860   17.6330 C   0  0  0  0  0  1  0  0  0  0  0  0
   20.1000   76.3020   14.7170 C   0  0  0  0  0  3  0  0  0  0  0  0
   19.7370   76.1420   13.4940 C   0  0  0  0  0  3  0  0  0  0  0  0
   19.1010   75.0430   12.8030 C   0  0  0  0  0  0  0  0  0  0  0  0
   18.8830   74.9390   11.4690 C   0  0  0  0  0  0  0  0  0  0  0  0
   19.2890   76.3920   10.3050 Br  0  0  0  0  0  0  0  0  0  0  0  0
   18.3060   73.7820   10.8880 C   0  0  0  0  0  3  0  0  0  0  0  0
   17.9440   72.7170   11.6680 C   0  0  0  0  0  0  0  0  0  0  0  0
   18.1520   72.7950   13.0270 C   0  0  0  0  0  0  0  0  0  0  0  0
   17.3700   71.4660   11.4210 O   0  0  0  0  0  0  0  0  0  0  0  0
   18.7130   73.9240   13.5810 C   0  0  0  0  0  3  0  0  0  0  0  0
   17.6980   71.5880   13.5840 O   0  0  0  0  0  0  0  0  0  0  0  0
   17.7150   70.6420   12.5340 C   0  0  0  0  0  2  0  0  0  0  0  0
   22.6890   79.7950   11.4880 C   0  0  0  0  0  0  0  0  0  0  0  0
   22.2860   80.9290   10.8640 C   0  0  0  0  0  3  0  0  0  0  0  0
   22.6280   81.1560    9.5180 C   0  0  0  0  0  3  0  0  0  0  0  0
   23.3730   80.2300    8.8250 C   0  0  0  0  0  3  0  0  0  0  0  0
   23.8000   79.0610    9.4410 C   0  0  0  0  0  3  0  0  0  0  0  0
   23.4490   78.8820   10.7380 C   0  0  0  0  0  3  0  0  0  0  0  0
  1 12  1  1  0  0  0
  1  2  1  0  0  0  0
  2  3  1  0  0  0  0
  2 11  1  0  0  0  0
  4  3  2  0  0  0  0
  5  4  1  0  0  0  0
  6 10  1  0  0  0  0
  6  5  1  0  0  0  0
  7  8  2  0  0  0  0
  7  6  1  0  0  0  0
  8  9  1  0  0  0  0
  9  5  2  0  0  0  0
  9  1  1  0  0  0  0
 13 12  2  0  0  0  0
 14 13  1  0  0  0  0
 14 21  1  0  0  0  0
 15 14  2  0  0  0  0
 16 15  1  0  0  0  0
 17 15  1  0  0  0  0
 17 18  2  0  0  0  0
 18 19  1  0  0  0  0
 19 21  2  0  0  0  0
 19 22  1  0  0  0  0
 20 18  1  0  0  0  0
 20 23  1  0  0  0  0
 23 22  1  0  0  0  0
 24  7  1  0  0  0  0
 25 24  1  0  0  0  0
 26 25  2  0  0  0  0
 27 28  2  0  0  0  0
 27 26  1  0  0  0  0
 28 29  1  0  0  0  0
 29 24  2  0  0  0  0
M  END
>  <Pose>
1

>  <Score>
-10.673

$$$$
