/Users/jonathanwahrer/Desktop/Msc/3_Semester/Drug_Design_Praktikum/waehrer_HTS_screening/HTS_experiment/out/docking_results/vina_output/6e43/0971_docked.pdbqt
 OpenBabel03212220153D

 29 33  0  0  1  0  0  0  0  0999 V2000
   20.7320   76.7910   16.6570 Br  0  0  0  0  0  0  0  0  0  0  0  0
   21.2950   78.1030   15.3930 C   0  0  0  0  0  0  0  0  0  0  0  0
   21.0180   77.9670   14.0200 C   0  0  0  0  0  0  0  0  0  0  0  0
   21.4030   78.8820   13.0850 C   0  0  0  0  0  0  0  0  0  0  0  0
   22.1060   80.0040   13.5320 C   0  0  0  0  0  3  0  0  0  0  0  0
   22.3750   80.1350   14.8620 C   0  0  0  0  0  0  0  0  0  0  0  0
   21.9870   79.2130   15.8120 C   0  0  0  0  0  0  0  0  0  0  0  0
   22.3000   79.4150   17.1670 O   0  0  0  0  0  1  0  0  0  0  0  0
   23.3350   81.6640   15.4800 Br  0  0  0  0  0  0  0  0  0  0  0  0
   21.1000   78.7140   11.6700 C   0  0  1  0  0  0  0  0  0  0  0  0
   20.2520   79.8000   11.3030 O   0  0  0  0  0  0  0  0  0  0  0  0
   20.8100   80.5840   10.3310 C   0  0  0  0  0  0  0  0  0  0  0  0
   20.2850   81.6010    9.8230 O   0  0  0  0  0  0  0  0  0  0  0  0
   22.0990   79.9900   10.0320 C   0  0  0  0  0  0  0  0  0  0  0  0
   22.3080   78.8740   10.8100 C   0  0  0  0  0  0  0  0  0  0  0  0
   23.4710   78.1940   10.6560 C   0  0  0  0  0  3  0  0  0  0  0  0
   24.4060   78.6270    9.7400 C   0  0  0  0  0  3  0  0  0  0  0  0
   24.2010   79.7450    8.9590 C   0  0  0  0  0  3  0  0  0  0  0  0
   23.0310   80.4410    9.1020 C   0  0  0  0  0  3  0  0  0  0  0  0
   20.3610   77.4930   11.3680 C   0  0  0  0  0  0  0  0  0  0  0  0
   20.0030   76.6120   12.3500 C   0  0  0  0  0  0  0  0  0  0  0  0
   19.2890   75.4360   12.0390 C   0  0  0  0  0  0  0  0  0  0  0  0
   18.9580   75.1910   10.7270 C   0  0  0  0  0  0  0  0  0  0  0  0
   19.3180   76.0800    9.7240 C   0  0  0  0  0  0  0  0  0  0  0  0
   20.0100   77.2170   10.0340 C   0  0  0  0  0  3  0  0  0  0  0  0
   18.8660   75.7520    7.9030 Br  0  0  0  0  0  0  0  0  0  0  0  0
   18.2550   74.0310   10.4350 O   0  0  0  0  0  1  0  0  0  0  0  0
   18.8050   74.2280   13.4410 Br  0  0  0  0  0  0  0  0  0  0  0  0
   20.3100   76.8090   13.6890 O   0  0  0  0  0  0  0  0  0  0  0  0
  2  7  1  0  0  0  0
  2  1  1  0  0  0  0
  3  2  2  0  0  0  0
  4  5  2  0  0  0  0
  4  3  1  0  0  0  0
  5  6  1  0  0  0  0
  6  9  1  0  0  0  0
  6  7  2  0  0  0  0
  7  8  1  0  0  0  0
 10 15  1  6  0  0  0
 10  4  1  0  0  0  0
 11 10  1  0  0  0  0
 12 11  1  0  0  0  0
 13 12  2  0  0  0  0
 14 12  1  0  0  0  0
 14 15  1  0  0  0  0
 16 15  2  0  0  0  0
 17 16  1  0  0  0  0
 18 19  1  0  0  0  0
 18 17  2  0  0  0  0
 19 14  2  0  0  0  0
 20 10  1  0  0  0  0
 20 21  1  0  0  0  0
 21 29  1  0  0  0  0
 22 21  2  0  0  0  0
 22 28  1  0  0  0  0
 23 22  1  0  0  0  0
 24 25  1  0  0  0  0
 24 23  2  0  0  0  0
 25 20  2  0  0  0  0
 26 24  1  0  0  0  0
 27 23  1  0  0  0  0
 29  3  1  0  0  0  0
M  END
>  <Pose>
1

>  <Score>
-9.552

$$$$
