/Users/jonathanwahrer/Desktop/Msc/3_Semester/Drug_Design_Praktikum/waehrer_HTS_screening/HTS_experiment/out/docking_results/vina_output/6e43/0978_docked.pdbqt
 OpenBabel03212220153D

 33 37  0  0  1  0  0  0  0  0999 V2000
   22.5840   80.0220   13.7240 I   0  0  0  0  0  0  0  0  0  0  0  0
   22.2600   79.3730   11.7410 C   0  0  0  0  0  0  0  0  0  0  0  0
   21.4030   78.2930   11.5580 C   0  0  0  0  0  0  0  0  0  0  0  0
   21.1760   77.8530   10.2950 C   0  0  0  0  0  0  0  0  0  0  0  0
   21.8070   78.4970    9.2270 C   0  0  0  0  0  3  0  0  0  0  0  0
   22.6570   79.5670    9.3980 C   0  0  0  0  0  0  0  0  0  0  0  0
   22.8830   80.0090   10.6870 C   0  0  0  0  0  0  0  0  0  0  0  0
   23.7360   81.0850   10.8830 O   0  0  0  0  0  1  0  0  0  0  0  0
   23.5910   80.5090    7.7450 I   0  0  0  0  0  0  0  0  0  0  0  0
   20.3010   76.7360    9.9920 C   0  0  2  0  0  0  0  0  0  0  0  0
   21.0080   75.6870    9.3130 O   0  0  0  0  0  0  0  0  0  0  0  0
   20.4540   75.3950    8.0950 C   0  0  0  0  0  0  0  0  0  0  0  0
   20.8060   74.5400    7.2320 O   0  0  0  0  0  0  0  0  0  0  0  0
   19.3160   76.2900    7.9400 C   0  0  0  0  0  0  0  0  0  0  0  0
   19.2240   77.0760    9.0480 C   0  0  0  0  0  0  0  0  0  0  0  0
   18.2100   78.0280    9.1550 C   0  0  0  0  0  0  0  0  0  0  0  0
   17.2830   78.1960    8.1490 C   0  0  0  0  0  0  0  0  0  0  0  0
   17.3800   77.3910    7.0160 C   0  0  0  0  0  0  0  0  0  0  0  0
   18.3750   76.4540    6.9080 C   0  0  0  0  0  0  0  0  0  0  0  0
   18.4810   75.4660    5.5010 Cl  0  0  0  0  0  0  0  0  0  0  0  0
   16.2390   77.5530    5.7100 Cl  0  0  0  0  0  0  0  0  0  0  0  0
   16.0250   79.3990    8.3160 Cl  0  0  0  0  0  0  0  0  0  0  0  0
   18.1510   78.9930   10.5920 Cl  0  0  0  0  0  0  0  0  0  0  0  0
   19.6990   76.1490   11.2200 C   0  0  0  0  0  0  0  0  0  0  0  0
   19.9480   76.6130   12.4660 C   0  0  0  0  0  0  0  0  0  0  0  0
   19.3180   75.9700   13.5300 C   0  0  0  0  0  0  0  0  0  0  0  0
   18.4680   74.9000   13.3590 C   0  0  0  0  0  0  0  0  0  0  0  0
   18.2380   74.4550   12.0730 C   0  0  0  0  0  0  0  0  0  0  0  0
   18.8410   75.0630   11.0030 C   0  0  0  0  0  3  0  0  0  0  0  0
   16.9420   72.8200   11.7800 I   0  0  0  0  0  0  0  0  0  0  0  0
   17.8480   74.2680   14.4050 O   0  0  0  0  0  1  0  0  0  0  0  0
   19.6960   76.6800   15.4680 I   0  0  0  0  0  0  0  0  0  0  0  0
   20.7960   77.6850   12.6750 O   0  0  0  0  0  0  0  0  0  0  0  0
  2  1  1  0  0  0  0
  3  2  1  0  0  0  0
  3 33  1  0  0  0  0
  4  3  2  0  0  0  0
  5  6  2  0  0  0  0
  5  4  1  0  0  0  0
  6  7  1  0  0  0  0
  7  8  1  0  0  0  0
  7  2  2  0  0  0  0
  9  6  1  0  0  0  0
 10 15  1  6  0  0  0
 10  4  1  0  0  0  0
 10 24  1  0  0  0  0
 11 10  1  0  0  0  0
 12 11  1  0  0  0  0
 13 12  2  0  0  0  0
 14 12  1  0  0  0  0
 14 15  1  0  0  0  0
 15 16  2  0  0  0  0
 16 23  1  0  0  0  0
 17 22  1  0  0  0  0
 17 16  1  0  0  0  0
 18 17  2  0  0  0  0
 19 18  1  0  0  0  0
 19 14  2  0  0  0  0
 20 19  1  0  0  0  0
 21 18  1  0  0  0  0
 24 25  1  0  0  0  0
 25 33  1  0  0  0  0
 25 26  2  0  0  0  0
 26 32  1  0  0  0  0
 27 26  1  0  0  0  0
 27 31  1  0  0  0  0
 28 27  2  0  0  0  0
 29 24  2  0  0  0  0
 29 28  1  0  0  0  0
 30 28  1  0  0  0  0
M  END
>  <Pose>
1

>  <Score>
3.986

$$$$
