/Users/jonathanwahrer/Desktop/Msc/3_Semester/Drug_Design_Praktikum/waehrer_HTS_screening/HTS_experiment/out/docking_results/vina_output/6e43/0979_docked.pdbqt
 OpenBabel03212220153D

 29 33  0  0  1  0  0  0  0  0999 V2000
   18.7260   74.3020   13.2420 I   0  0  0  0  0  0  0  0  0  0  0  0
   19.2970   75.6220   11.6860 C   0  0  0  0  0  0  0  0  0  0  0  0
   20.0360   76.7530   12.0710 C   0  0  0  0  0  0  0  0  0  0  0  0
   20.4150   77.6150   11.0910 C   0  0  0  0  0  0  0  0  0  0  0  0
   20.0560   77.3420    9.7590 C   0  0  0  0  0  3  0  0  0  0  0  0
   19.3340   76.2380    9.3850 C   0  0  0  0  0  0  0  0  0  0  0  0
   18.9520   75.3640   10.3790 C   0  0  0  0  0  0  0  0  0  0  0  0
   18.2200   74.2360   10.0360 O   0  0  0  0  0  1  0  0  0  0  0  0
   18.8280   75.8870    7.3570 I   0  0  0  0  0  0  0  0  0  0  0  0
   21.1890   78.8250   11.3920 C   0  0  2  0  0  0  0  0  0  0  0  0
   20.5780   79.9850   10.8620 O   0  0  0  0  0  0  0  0  0  0  0  0
   21.3770   80.6290    9.9540 C   0  0  0  0  0  0  0  0  0  0  0  0
   21.1440   81.6810    9.3020 O   0  0  0  0  0  0  0  0  0  0  0  0
   22.6130   79.8650    9.8540 C   0  0  0  0  0  0  0  0  0  0  0  0
   22.5120   78.8030   10.6930 C   0  0  0  0  0  0  0  0  0  0  0  0
   23.5900   77.9140   10.7700 C   0  0  0  0  0  3  0  0  0  0  0  0
   24.7170   78.1230   10.0090 C   0  0  0  0  0  3  0  0  0  0  0  0
   24.8210   79.2000    9.1550 C   0  0  0  0  0  3  0  0  0  0  0  0
   23.7690   80.0800    9.0710 C   0  0  0  0  0  3  0  0  0  0  0  0
   21.4920   78.9810   12.8250 C   0  0  0  0  0  0  0  0  0  0  0  0
   21.0870   78.0850   13.7540 C   0  0  0  0  0  0  0  0  0  0  0  0
   21.4090   78.2980   15.0910 C   0  0  0  0  0  0  0  0  0  0  0  0
   22.1270   79.3960   15.4690 C   0  0  0  0  0  0  0  0  0  0  0  0
   22.5570   80.3260   14.5510 C   0  0  0  0  0  0  0  0  0  0  0  0
   22.2270   80.0970   13.2440 C   0  0  0  0  0  3  0  0  0  0  0  0
   23.6690   82.0250   15.1440 I   0  0  0  0  0  0  0  0  0  0  0  0
   22.4360   79.5830   16.8110 O   0  0  0  0  0  1  0  0  0  0  0  0
   20.7670   76.8850   16.5440 I   0  0  0  0  0  0  0  0  0  0  0  0
   20.3450   76.9400   13.4200 O   0  0  0  0  0  0  0  0  0  0  0  0
  2  3  1  0  0  0  0
  2  1  1  0  0  0  0
  3 29  1  0  0  0  0
  4 10  1  0  0  0  0
  4  3  2  0  0  0  0
  5  4  1  0  0  0  0
  6  5  2  0  0  0  0
  6  7  1  0  0  0  0
  7  2  2  0  0  0  0
  8  7  1  0  0  0  0
  9  6  1  0  0  0  0
 10 15  1  6  0  0  0
 10 20  1  0  0  0  0
 11 10  1  0  0  0  0
 12 11  1  0  0  0  0
 13 12  2  0  0  0  0
 14 12  1  0  0  0  0
 14 15  1  0  0  0  0
 15 16  2  0  0  0  0
 17 16  1  0  0  0  0
 18 17  2  0  0  0  0
 19 18  1  0  0  0  0
 19 14  2  0  0  0  0
 20 25  2  0  0  0  0
 20 21  1  0  0  0  0
 21 22  2  0  0  0  0
 22 23  1  0  0  0  0
 22 28  1  0  0  0  0
 23 27  1  0  0  0  0
 24 26  1  0  0  0  0
 24 23  2  0  0  0  0
 25 24  1  0  0  0  0
 29 21  1  0  0  0  0
M  END
>  <Pose>
1

>  <Score>
-5.485

$$$$
