/Users/jonathanwahrer/Desktop/Msc/3_Semester/Drug_Design_Praktikum/waehrer_HTS_screening/HTS_experiment/out/docking_results/vina_output/6e43/0980_docked.pdbqt
 OpenBabel03212220153D

 27 30  0  0  1  0  0  0  0  0999 V2000
   19.0020   75.2350   10.4600 I   0  0  0  0  0  0  0  0  0  0  0  0
   19.5680   75.7740   12.4170 C   0  0  0  0  0  0  0  0  0  0  0  0
   20.3140   76.9040   12.6900 C   0  0  2  0  0  3  0  0  0  0  0  0
   20.6870   77.2600   13.9680 C   0  0  0  0  0  0  0  0  0  0  0  0
   20.2860   76.4360   15.0030 C   0  0  0  0  0  3  0  0  0  0  0  0
   19.5370   75.2990   14.7380 C   0  0  0  0  0  3  0  0  0  0  0  0
   19.1660   74.9470   13.4470 C   0  0  0  0  0  0  0  0  0  0  0  0
   18.4130   73.7940   13.2380 O   0  0  0  0  0  1  0  0  0  0  0  0
   21.4300   78.3860   14.2600 C   0  0  0  0  0  0  0  0  0  0  0  0
   21.7980   79.1670   13.1690 C   0  0  0  0  0  0  0  0  0  0  0  0
   21.3840   78.7560   11.8310 C   0  0  0  0  0  0  0  0  0  0  0  0
   21.7780   79.5720   10.7910 C   0  0  1  0  0  3  0  0  0  0  0  0
   22.5230   80.7170   10.9770 C   0  0  0  0  0  0  0  0  0  0  0  0
   22.8760   81.4530   10.0080 O   0  0  0  0  0  0  0  0  0  0  0  0
   22.9150   81.1070   12.2420 C   0  0  0  0  0  3  0  0  0  0  0  0
   22.5360   80.3110   13.3050 C   0  0  0  0  0  3  0  0  0  0  0  0
   21.2290   79.0620    8.8270 I   0  0  0  0  0  0  0  0  0  0  0  0
   20.6770   77.6620   11.6870 O   0  0  0  0  0  0  0  0  0  0  0  0
   21.8270   78.7660   15.6120 C   0  0  0  0  0  0  0  0  0  0  0  0
   23.0970   78.4080   16.0540 C   0  0  0  0  0  0  0  0  0  0  0  0
   23.5140   78.7440   17.3150 C   0  0  0  0  0  3  0  0  0  0  0  0
   22.6670   79.4400   18.1500 C   0  0  0  0  0  3  0  0  0  0  0  0
   21.4060   79.8060   17.7360 C   0  0  0  0  0  3  0  0  0  0  0  0
   21.0070   79.4590   16.4640 C   0  0  0  0  0  3  0  0  0  0  0  0
   24.0030   77.6710   15.1780 C   0  0  0  0  0  0  0  0  0  0  0  0
   24.0540   76.4210   15.1510 O   0  0  0  0  0  1  0  0  0  0  0  0
   24.8630   78.3460   14.3240 O   0  0  0  0  0  0  0  0  0  0  0  0
  1  2  1  0  0  0  0
  2  3  1  0  0  0  0
  2  7  2  0  0  0  0
  3 18  1  1  0  0  0
  3  4  1  0  0  0  0
  4  9  2  0  0  0  0
  4  5  1  0  0  0  0
  6  5  2  0  0  0  0
  7  6  1  0  0  0  0
  8  7  1  0  0  0  0
  9 19  1  0  0  0  0
 10 16  1  0  0  0  0
 10  9  1  0  0  0  0
 11 10  2  0  0  0  0
 12 17  1  6  0  0  0
 12 13  1  0  0  0  0
 12 11  1  0  0  0  0
 13 15  1  0  0  0  0
 14 13  2  0  0  0  0
 15 16  2  0  0  0  0
 18 11  1  0  0  0  0
 19 20  2  0  0  0  0
 19 24  1  0  0  0  0
 20 21  1  0  0  0  0
 21 22  2  0  0  0  0
 23 22  1  0  0  0  0
 24 23  2  0  0  0  0
 25 20  1  0  0  0  0
 26 25  1  0  0  0  0
 27 25  2  0  0  0  0
M  END
>  <Pose>
1

>  <Score>
-8.111

$$$$
