/Users/jonathanwahrer/Desktop/Msc/3_Semester/Drug_Design_Praktikum/waehrer_HTS_screening/HTS_experiment/out/docking_results/vina_output/6e43/0983_docked.pdbqt
 OpenBabel03212220153D

 34 37  0  0  0  0  0  0  0  0999 V2000
   23.2480   79.7840   15.0010 C   0  0  0  0  0  0  0  0  0  0  0  0
   23.2320   79.3920   13.6560 C   0  0  0  0  0  0  0  0  0  0  0  0
   21.9270   79.5710   13.2530 C   0  0  0  0  0  0  0  0  0  0  0  0
   21.2200   80.0380   14.2920 N   0  0  0  0  0  0  0  0  0  0  0  0
   22.0030   80.1890   15.4040 C   0  0  0  0  0  0  0  0  0  0  0  0
   21.5870   79.2600   11.9390 C   0  0  0  0  0  0  0  0  0  0  0  0
   22.5500   78.7910   11.0880 C   0  0  0  0  0  3  0  0  0  0  0  0
   23.8760   78.6070   11.4920 C   0  0  0  0  0  0  0  0  0  0  0  0
   24.2130   78.9200   12.8120 C   0  0  0  0  0  3  0  0  0  0  0  0
   25.1660   77.9510   10.2620 Br  0  0  0  0  0  0  0  0  0  0  0  0
   19.8000   79.4960   11.3580 Br  0  0  0  0  0  0  0  0  0  0  0  0
   20.1860   80.2680   14.2750 H   0  0  0  0  0  0  0  0  0  0  0  0
   21.5510   80.7140   16.6870 C   0  0  0  0  0  0  0  0  0  0  0  0
   21.2200   82.0220   16.8720 N   0  0  0  0  0  0  0  0  0  0  0  0
   20.8540   82.2440   18.1440 C   0  0  0  0  0  0  0  0  0  0  0  0
   21.2370   82.7730   16.1480 H   0  0  0  0  0  0  0  0  0  0  0  0
   20.9370   81.0610   18.8450 C   0  0  0  0  0  0  0  0  0  0  0  0
   20.4330   83.3630   18.8490 C   0  0  0  0  0  0  0  0  0  0  0  0
   21.3780   80.1270   17.9010 C   0  0  0  0  0  0  0  0  0  0  0  0
   20.6200   80.9760   20.1850 C   0  0  0  0  0  3  0  0  0  0  0  0
   20.2010   82.1000   20.8800 C   0  0  0  0  0  0  0  0  0  0  0  0
   20.1120   83.2980   20.1890 C   0  0  0  0  0  3  0  0  0  0  0  0
   19.7560   82.0070   22.7430 Br  0  0  0  0  0  0  0  0  0  0  0  0
   20.2890   85.0420   17.9580 Br  0  0  0  0  0  0  0  0  0  0  0  0
   21.5960   78.7990   18.2200 O   0  0  0  0  0  0  0  0  0  0  0  0
   20.3340   77.6530   18.2680 S   0  0  0  0  0  0  0  0  0  0  0  0
   20.0530   77.2230   19.6780 O   0  0  0  0  0  1  0  0  0  0  0  0
   20.6740   76.4190   17.4810 O   0  0  0  0  0  1  0  0  0  0  0  0
   18.9470   78.3110   17.5420 O   0  0  0  0  0  1  0  0  0  0  0  0
   24.3990   79.7480   15.7790 O   0  0  0  0  0  0  0  0  0  0  0  0
   24.9640   78.2820   16.4600 S   0  0  0  0  0  0  0  0  0  0  0  0
   25.9990   77.7400   15.5140 O   0  0  0  0  0  1  0  0  0  0  0  0
   25.6060   78.5240   17.8040 O   0  0  0  0  0  1  0  0  0  0  0  0
   23.7270   77.1500   16.5770 O   0  0  0  0  0  1  0  0  0  0  0  0
  1  5  2  0  0  0  0
  1 30  1  0  0  0  0
  2  1  1  0  0  0  0
  3  2  1  0  0  0  0
  3  4  1  0  0  0  0
  4  5  1  0  0  0  0
  5 13  1  0  0  0  0
  6  3  2  0  0  0  0
  7  8  2  0  0  0  0
  7  6  1  0  0  0  0
  8  9  1  0  0  0  0
  9  2  2  0  0  0  0
 10  8  1  0  0  0  0
 11  6  1  0  0  0  0
 12  4  1  0  0  0  0
 13 14  1  0  0  0  0
 13 19  2  0  0  0  0
 14 15  1  0  0  0  0
 15 17  2  0  0  0  0
 15 18  1  0  0  0  0
 16 14  1  0  0  0  0
 17 20  1  0  0  0  0
 18 22  2  0  0  0  0
 19 25  1  0  0  0  0
 19 17  1  0  0  0  0
 20 21  2  0  0  0  0
 21 23  1  0  0  0  0
 22 21  1  0  0  0  0
 24 18  1  0  0  0  0
 25 26  1  0  0  0  0
 26 27  1  0  0  0  0
 28 26  1  0  0  0  0
 29 26  1  0  0  0  0
 30 31  1  0  0  0  0
 31 34  1  0  0  0  0
 31 33  1  0  0  0  0
 32 31  1  0  0  0  0
M  END
>  <Pose>
1

>  <Score>
-7.146

$$$$
