/Users/jonathanwahrer/Desktop/Msc/3_Semester/Drug_Design_Praktikum/waehrer_HTS_screening/HTS_experiment/out/docking_results/vina_output/6e43/0991_docked.pdbqt
 OpenBabel03212220163D

 34 39  0  0  1  0  0  0  0  0999 V2000
   23.0080   78.5970   14.6840 N   0  0  0  0  0  0  0  0  0  0  0  0
   22.4370   78.5790   13.4530 C   0  0  0  0  0  0  0  0  0  0  0  0
   23.3990   78.6660   12.4700 C   0  0  0  0  0  0  0  0  0  0  0  0
   24.5740   78.7380   13.1300 N   0  0  0  0  0  0  0  0  0  0  0  0
   24.3300   78.6960   14.4560 C   0  0  0  0  0  0  0  0  0  0  0  0
   25.6170   78.7620   15.8690 Br  0  0  0  0  0  0  0  0  0  0  0  0
   23.0180   78.6650   11.1430 C   0  0  0  0  0  0  0  0  0  0  0  0
   23.8820   78.7430   10.2420 O   0  0  0  0  0  0  0  0  0  0  0  0
   21.7220   78.5790   10.7650 N   0  0  0  0  0  0  0  0  0  0  0  0
   20.8000   78.4950   11.7410 C   0  0  0  0  0  0  0  0  0  0  0  0
   19.6120   78.4220   11.1160 N   0  0  0  0  0  0  0  0  0  0  0  0
   19.7490   78.4560    9.7780 C   0  0  0  0  0  0  0  0  0  0  0  0
   21.1050   78.5580    9.5520 C   0  0  0  0  0  3  0  0  0  0  0  0
   21.1560   78.4950   13.0570 N   0  0  0  0  0  0  0  0  0  0  0  0
   20.4360   78.4290   13.8120 H   0  0  0  0  0  0  0  0  0  0  0  0
   22.3420   78.5240   15.9820 C   0  0  2  0  0  3  0  0  0  0  0  0
   20.9580   78.5920   15.8370 O   0  0  0  0  0  0  0  0  0  0  0  0
   20.4330   79.0800   17.0020 C   0  0  1  0  0  3  0  0  0  0  0  0
   21.4630   80.1100   17.4720 C   0  0  1  0  0  3  0  0  0  0  0  0
   19.1350   79.8300   16.8240 C   0  0  0  0  0  2  0  0  0  0  0  0
   21.4210   80.0870   18.8630 O   0  0  0  0  0  0  0  0  0  0  0  0
   22.7600   79.6120   16.9100 C   0  0  1  0  0  3  0  0  0  0  0  0
   19.7800   80.0380   19.2980 P   0  0  1  0  0  0  0  0  0  0  0  0
   19.5200   81.2260   20.5370 S   0  0  0  0  0  1  0  0  0  0  0  0
   18.7840   80.4560   17.9990 O   0  0  0  0  0  0  0  0  0  0  0  0
   19.3210   78.4970   19.8170 O   0  0  0  0  0  0  0  0  0  0  0  0
   23.5810   79.1190   17.9330 O   0  0  0  0  0  0  0  0  0  0  0  0
   24.2880   79.7510   18.1750 H   0  0  0  0  0  0  0  0  0  0  0  0
   18.6840   78.4000    8.7670 C   0  0  0  0  0  0  0  0  0  0  0  0
   18.5720   77.3070    7.9380 C   0  0  0  0  0  3  0  0  0  0  0  0
   17.5760   77.2240    6.9730 C   0  0  0  0  0  3  0  0  0  0  0  0
   16.6850   78.2650    6.8510 C   0  0  0  0  0  3  0  0  0  0  0  0
   16.7630   79.3840    7.6660 C   0  0  0  0  0  3  0  0  0  0  0  0
   17.7710   79.4120    8.6060 C   0  0  0  0  0  3  0  0  0  0  0  0
  2  1  1  0  0  0  0
  3  4  1  0  0  0  0
  3  2  2  0  0  0  0
  4  5  2  0  0  0  0
  5  1  1  0  0  0  0
  5  6  1  0  0  0  0
  7  3  1  0  0  0  0
  8  7  2  0  0  0  0
  9  7  1  0  0  0  0
  9 10  1  0  0  0  0
 10 14  1  0  0  0  0
 11 10  2  0  0  0  0
 12 11  1  0  0  0  0
 13 12  2  0  0  0  0
 13  9  1  0  0  0  0
 14  2  1  0  0  0  0
 14 15  1  0  0  0  0
 16  1  1  6  0  0  0
 16 22  1  0  0  0  0
 17 16  1  0  0  0  0
 17 18  1  0  0  0  0
 18 20  1  6  0  0  0
 18 19  1  0  0  0  0
 19 21  1  1  0  0  0
 20 25  1  0  0  0  0
 21 23  1  0  0  0  0
 22 19  1  0  0  0  0
 22 27  1  1  0  0  0
 23 26  2  1  0  0  0
 23 24  1  0  0  0  0
 25 23  1  0  0  0  0
 27 28  1  0  0  0  0
 29 12  1  0  0  0  0
 30 29  2  0  0  0  0
 31 30  1  0  0  0  0
 32 31  2  0  0  0  0
 32 33  1  0  0  0  0
 33 34  2  0  0  0  0
 34 29  1  0  0  0  0
M  END
>  <Pose>
1

>  <Score>
-9.199

$$$$
