/Users/jonathanwahrer/Desktop/Msc/3_Semester/Drug_Design_Praktikum/waehrer_HTS_screening/HTS_experiment/out/docking_results/vina_output/6e43/0993_docked.pdbqt
 OpenBabel03212220163D

 26 29  0  0  1  0  0  0  0  0999 V2000
   19.3930   83.1260   20.7210 P   0  0  2  0  0  0  0  0  0  0  0  0
   20.6420   82.9050   21.9200 S   0  0  0  0  0  1  0  0  0  0  0  0
   18.9470   81.6130   20.0690 O   0  0  0  0  0  0  0  0  0  0  0  0
   19.9830   81.2060   19.2650 C   0  0  2  0  0  3  0  0  0  0  0  0
   20.1400   82.2160   18.1200 C   0  0  2  0  0  3  0  0  0  0  0  0
   20.9510   81.4820   17.2560 O   0  0  0  0  0  0  0  0  0  0  0  0
   20.3690   80.2400   17.1630 C   0  0  2  0  0  3  0  0  0  0  0  0
   19.6610   79.9580   18.4640 C   0  0  2  0  0  3  0  0  0  0  0  0
   20.7840   83.4810   18.5950 C   0  0  0  0  0  2  0  0  0  0  0  0
   19.9200   84.1070   19.4750 O   0  0  0  0  0  0  0  0  0  0  0  0
   18.0560   83.7790   21.4790 O   0  0  0  0  0  0  0  0  0  0  0  0
   21.3340   79.1770   16.9540 N   0  0  0  0  0  0  0  0  0  0  0  0
   22.2570   79.1720   15.9590 C   0  0  0  0  0  0  0  0  0  0  0  0
   22.5280   80.0580   14.9660 N   0  0  0  0  0  0  0  0  0  0  0  0
   23.0060   78.0180   16.0590 C   0  0  0  0  0  0  0  0  0  0  0  0
   23.5150   79.8270   14.0780 C   0  0  0  0  0  3  0  0  0  0  0  0
   24.2530   78.6940   14.1720 N   0  0  0  0  0  0  0  0  0  0  0  0
   24.0150   77.7930   15.1410 C   0  0  0  0  0  0  0  0  0  0  0  0
   22.5370   77.3260   17.1140 N   0  0  0  0  0  0  0  0  0  0  0  0
   21.5230   78.0420   17.6470 C   0  0  0  0  0  0  0  0  0  0  0  0
   20.4530   77.5770   19.1730 Br  0  0  0  0  0  0  0  0  0  0  0  0
   24.8040   76.6020   15.2280 N   0  0  0  0  0  0  0  0  0  0  0  0
   25.0990   76.1290   14.3300 H   0  0  0  0  0  0  0  0  0  0  0  0
   25.0950   76.1890   16.1350 H   0  0  0  0  0  0  0  0  0  0  0  0
   18.2860   79.9990   18.2000 O   0  0  0  0  0  0  0  0  0  0  0  0
   18.0630   79.7510   17.2840 H   0  0  0  0  0  0  0  0  0  0  0  0
  1 11  2  1  0  0  0
  1  2  1  0  0  0  0
  3  1  1  0  0  0  0
  4  3  1  1  0  0  0
  5  9  1  1  0  0  0
  5  4  1  0  0  0  0
  6  5  1  0  0  0  0
  7 12  1  1  0  0  0
  7  6  1  0  0  0  0
  7  8  1  0  0  0  0
  8 25  1  6  0  0  0
  8  4  1  0  0  0  0
  9 10  1  0  0  0  0
 10  1  1  0  0  0  0
 12 20  1  0  0  0  0
 13 15  1  0  0  0  0
 13 12  1  0  0  0  0
 14 13  2  0  0  0  0
 15 19  1  0  0  0  0
 16 17  2  0  0  0  0
 16 14  1  0  0  0  0
 17 18  1  0  0  0  0
 18 22  1  0  0  0  0
 18 15  2  0  0  0  0
 19 20  2  0  0  0  0
 20 21  1  0  0  0  0
 22 24  1  0  0  0  0
 23 22  1  0  0  0  0
 26 25  1  0  0  0  0
M  END
>  <Pose>
1

>  <Score>
-8.679

$$$$
