/Users/jonathanwahrer/Desktop/Msc/3_Semester/Drug_Design_Praktikum/waehrer_HTS_screening/HTS_experiment/out/docking_results/vina_output/6e43/0999_docked.pdbqt
 OpenBabel03212220163D

 35 39  0  0  1  0  0  0  0  0999 V2000
   23.3800   78.2700   14.0060 N   0  0  0  0  0  0  0  0  0  0  0  0
   23.3550   79.0850   12.8470 C   0  0  0  0  0  0  0  0  0  0  0  0
   24.0240   80.1520   12.8540 O   0  0  0  0  0  0  0  0  0  0  0  0
   22.8130   77.3850   13.9770 H   0  0  0  0  0  0  0  0  0  0  0  0
   24.1560   78.6790   15.1320 C   0  0  1  0  0  3  0  0  0  0  0  0
   23.5330   79.5540   16.1370 C   0  0  1  0  0  0  0  0  0  0  0  0
   22.4620   80.9100   15.6630 S   0  0  0  0  0  0  0  0  0  0  0  0
   22.7150   78.4300   16.4660 N   0  0  0  0  0  0  0  0  0  0  0  0
   21.3600   80.8660   17.1230 C   0  0  0  0  0  2  0  0  0  0  0  0
   20.6990   79.4800   17.1000 C   0  0  0  0  0  0  0  0  0  0  0  0
   21.3250   78.3850   16.8000 C   0  0  0  0  0  0  0  0  0  0  0  0
   23.8990   77.6820   16.2500 C   0  0  1  0  0  0  0  0  0  0  0  0
   24.5620   76.7130   16.6370 O   0  0  0  0  0  1  0  0  0  0  0  0
   19.3060   79.5920   17.4490 C   0  0  0  0  0  2  0  0  0  0  0  0
   18.8580   80.2950   18.5170 O   0  0  0  0  0  0  0  0  0  0  0  0
   19.3090   80.0820   19.8250 C   0  0  0  0  0  0  0  0  0  0  0  0
   19.1690   78.9380   20.2930 O   0  0  0  0  0  0  0  0  0  0  0  0
   19.9140   81.2280   20.5450 C   0  0  0  0  0  1  0  0  0  0  0  0
   20.6960   77.0320   16.7800 C   0  0  0  0  0  0  0  0  0  0  0  0
   20.3700   76.4000   15.7990 O   0  0  0  0  0  0  0  0  0  0  0  0
   20.4400   76.3920   18.0070 O   0  0  0  0  0  1  0  0  0  0  0  0
   22.5790   78.7230   11.6570 C   0  0  0  0  0  0  0  0  0  0  0  0
   21.4930   78.0220   11.5620 O   0  0  0  0  0  0  0  0  0  0  0  0
   21.0850   77.9050   10.3400 C   0  0  0  0  0  0  0  0  0  0  0  0
   21.9920   78.5980    9.5310 C   0  0  0  0  0  3  0  0  0  0  0  0
   22.9330   79.1100   10.3830 C   0  0  0  0  0  3  0  0  0  0  0  0
   19.8700   77.1730    9.8260 C   0  0  0  0  0  2  0  0  0  0  0  0
   19.0380   76.7800   10.8860 O   0  0  0  0  0  0  0  0  0  0  0  0
   18.9580   75.5290   11.4260 C   0  0  0  0  0  0  0  0  0  0  0  0
   19.1480   75.2370   12.7740 C   0  0  0  0  0  3  0  0  0  0  0  0
   19.0420   73.9360   13.2120 C   0  0  0  0  0  3  0  0  0  0  0  0
   18.7550   72.8780   12.3810 C   0  0  0  0  0  0  0  0  0  0  0  0
   18.5650   73.1590   11.0390 C   0  0  0  0  0  3  0  0  0  0  0  0
   18.6200   71.0950   13.0450 Br  0  0  0  0  0  0  0  0  0  0  0  0
   18.6690   74.4690   10.5910 C   0  0  0  0  0  3  0  0  0  0  0  0
  2  3  2  0  0  0  0
  2  1  1  0  0  0  0
  4  1  1  0  0  0  0
  5  1  1  6  0  0  0
  5  6  1  0  0  0  0
  5 12  1  0  0  0  0
  6  7  1  1  0  0  0
  6 12  1  0  0  0  0
  6  8  1  0  0  0  0
  7  9  1  0  0  0  0
  8 11  1  0  0  0  0
 10  9  1  0  0  0  0
 10 14  1  0  0  0  0
 11 10  2  0  0  0  0
 12  8  1  0  0  0  0
 12 13  1  1  0  0  0
 14 15  1  0  0  0  0
 15 16  1  0  0  0  0
 16 17  2  0  0  0  0
 16 18  1  0  0  0  0
 19 11  1  0  0  0  0
 19 21  1  0  0  0  0
 20 19  2  0  0  0  0
 22  2  1  0  0  0  0
 23 22  1  0  0  0  0
 24 23  1  0  0  0  0
 25 24  2  0  0  0  0
 25 26  1  0  0  0  0
 26 22  2  0  0  0  0
 27 24  1  0  0  0  0
 27 28  1  0  0  0  0
 28 29  1  0  0  0  0
 29 30  1  0  0  0  0
 30 31  2  0  0  0  0
 32 34  1  0  0  0  0
 32 31  1  0  0  0  0
 33 32  2  0  0  0  0
 35 33  1  0  0  0  0
 35 29  2  0  0  0  0
M  END
>  <Pose>
1

>  <Score>
-9.503

$$$$
