/Users/jonathanwahrer/Desktop/Msc/3_Semester/Drug_Design_Praktikum/waehrer_HTS_screening/HTS_experiment/out/docking_results/vina_output/6e43/1001_docked.pdbqt
 OpenBabel03212220163D

 26 29  0  0  1  0  0  0  0  0999 V2000
   19.3330   84.1980   20.4370 P   0  0  2  0  0  0  0  0  0  0  0  0
   19.6200   84.9560   21.7350 O   0  0  0  0  0  1  0  0  0  0  0  0
   19.4530   82.5580   20.7730 O   0  0  0  0  0  0  0  0  0  0  0  0
   20.2010   81.8970   19.8330 C   0  0  2  0  0  3  0  0  0  0  0  0
   19.9380   82.5950   18.4920 C   0  0  2  0  0  3  0  0  0  0  0  0
   20.1190   81.6500   17.5270 O   0  0  0  0  0  0  0  0  0  0  0  0
   19.9060   80.4040   18.0470 C   0  0  2  0  0  3  0  0  0  0  0  0
   19.7110   80.5080   19.5200 C   0  0  2  0  0  3  0  0  0  0  0  0
   20.8790   83.7560   18.4380 C   0  0  0  0  0  2  0  0  0  0  0  0
   20.4270   84.7310   19.2950 O   0  0  0  0  0  0  0  0  0  0  0  0
   17.7230   84.5960   20.0160 O   0  0  0  0  0  0  0  0  0  0  0  0
   21.0460   79.5710   17.6860 N   0  0  0  0  0  0  0  0  0  0  0  0
   21.9900   79.8760   16.7650 C   0  0  0  0  0  0  0  0  0  0  0  0
   22.1360   80.9540   15.9770 N   0  0  0  0  0  0  0  0  0  0  0  0
   22.8970   78.8380   16.7120 C   0  0  0  0  0  0  0  0  0  0  0  0
   23.1770   81.0170   15.1310 C   0  0  0  0  0  3  0  0  0  0  0  0
   24.0610   80.0030   15.0820 N   0  0  0  0  0  0  0  0  0  0  0  0
   23.9790   78.8980   15.8380 C   0  0  0  0  0  0  0  0  0  0  0  0
   22.5120   77.9140   17.5890 N   0  0  0  0  0  0  0  0  0  0  0  0
   21.3890   78.3680   18.1740 C   0  0  0  0  0  0  0  0  0  0  0  0
   20.3550   77.4740   19.5340 Br  0  0  0  0  0  0  0  0  0  0  0  0
   24.9050   77.8220   15.7940 N   0  0  0  0  0  0  0  0  0  0  0  0
   25.5830   77.7840   14.9760 H   0  0  0  0  0  0  0  0  0  0  0  0
   24.9670   77.0800   16.4980 H   0  0  0  0  0  0  0  0  0  0  0  0
   18.3990   80.3580   19.9210 O   0  0  0  0  0  0  0  0  0  0  0  0
   18.2990   79.9820   20.8110 H   0  0  0  0  0  0  0  0  0  0  0  0
  1 11  2  6  0  0  0
  1  3  1  0  0  0  0
  1  2  1  0  0  0  0
  4  3  1  1  0  0  0
  5  9  1  6  0  0  0
  5  4  1  0  0  0  0
  6  7  1  0  0  0  0
  6  5  1  0  0  0  0
  7 12  1  1  0  0  0
  7  8  1  0  0  0  0
  8  4  1  0  0  0  0
  8 25  1  6  0  0  0
  9 10  1  0  0  0  0
 10  1  1  0  0  0  0
 12 20  1  0  0  0  0
 13 12  1  0  0  0  0
 14 13  2  0  0  0  0
 15 13  1  0  0  0  0
 15 19  1  0  0  0  0
 16 14  1  0  0  0  0
 17 16  2  0  0  0  0
 17 18  1  0  0  0  0
 18 15  2  0  0  0  0
 19 20  2  0  0  0  0
 20 21  1  0  0  0  0
 22 18  1  0  0  0  0
 22 24  1  0  0  0  0
 23 22  1  0  0  0  0
 25 26  1  0  0  0  0
M  END
>  <Pose>
1

>  <Score>
-8.464

$$$$
