/Users/jonathanwahrer/Desktop/Msc/3_Semester/Drug_Design_Praktikum/waehrer_HTS_screening/HTS_experiment/out/docking_results/vina_output/6e43/1008_docked.pdbqt
 OpenBabel03212220173D

 29 32  0  0  1  0  0  0  0  0999 V2000
   22.3560   79.9600   15.1280 C   0  0  0  0  0  0  0  0  0  0  0  0
   22.6380   81.1410   15.4490 O   0  0  0  0  0  0  0  0  0  0  0  0
   21.9210   79.0360   16.1250 N   0  0  0  0  0  0  0  0  0  0  0  0
   21.8030   79.4460   17.5070 C   0  0  0  0  0  2  0  0  0  0  0  0
   20.5920   78.8860   18.1860 C   0  0  2  0  0  3  0  0  0  0  0  0
   19.6580   78.3810   17.0830 C   0  0  0  0  0  2  0  0  0  0  0  0
   20.3560   77.1830   16.4780 C   0  0  0  0  0  2  0  0  0  0  0  0
   21.5940   77.6780   15.7760 C   0  0  0  0  0  2  0  0  0  0  0  0
   22.4770   79.5550   13.7420 C   0  0  0  0  0  0  0  0  0  0  0  0
   21.4460   79.7720   12.8340 C   0  0  0  0  0  3  0  0  0  0  0  0
   21.5480   79.3940   11.5150 C   0  0  0  0  0  0  0  0  0  0  0  0
   22.6990   78.7780   11.0570 C   0  0  0  0  0  3  0  0  0  0  0  0
   23.7300   78.5550   11.9430 C   0  0  0  0  0  3  0  0  0  0  0  0
   23.6200   78.9410   13.2780 C   0  0  0  0  0  0  0  0  0  0  0  0
   25.0680   78.6100   14.4540 Br  0  0  0  0  0  0  0  0  0  0  0  0
   20.2220   79.6940   10.4300 S   0  0  0  0  0  0  0  0  0  0  0  0
   19.0690   78.7860   10.8060 O   0  0  0  0  0  0  0  0  0  0  0  0
   20.6190   79.3930    9.0050 O   0  0  0  0  0  0  0  0  0  0  0  0
   19.6690   81.3080   10.5970 N   0  0  0  0  0  0  0  0  0  0  0  0
   18.7320   81.4470   10.1460 H   0  0  0  0  0  0  0  0  0  0  0  0
   20.3670   81.9760   10.1860 H   0  0  0  0  0  0  0  0  0  0  0  0
   19.8920   79.8820   19.0600 C   0  0  0  0  0  0  0  0  0  0  0  0
   20.0440   81.2320   19.0280 N   0  0  0  0  0  0  0  0  0  0  0  0
   19.2630   81.8070   19.9480 C   0  0  0  0  0  0  0  0  0  0  0  0
   20.7950   82.2400   18.3010 C   0  0  0  0  0  2  0  0  0  0  0  0
   18.6160   80.7690   20.5590 N   0  0  0  0  0  0  0  0  0  0  0  0
   19.3950   83.2930   19.9530 C   0  0  0  0  0  2  0  0  0  0  0  0
   18.9950   79.6250   20.0250 N   0  0  0  0  0  0  0  0  0  0  0  0
   20.1170   83.5440   18.6650 C   0  0  0  0  0  2  0  0  0  0  0  0
  1  2  2  0  0  0  0
  1  3  1  0  0  0  0
  3  4  1  0  0  0  0
  4  5  1  0  0  0  0
  5 22  1  6  0  0  0
  6  5  1  0  0  0  0
  7  6  1  0  0  0  0
  8  3  1  0  0  0  0
  8  7  1  0  0  0  0
  9  1  1  0  0  0  0
 10  9  2  0  0  0  0
 11 10  1  0  0  0  0
 12 11  2  0  0  0  0
 12 13  1  0  0  0  0
 13 14  2  0  0  0  0
 14  9  1  0  0  0  0
 14 15  1  0  0  0  0
 16 19  1  0  0  0  0
 16 17  2  0  0  0  0
 16 11  1  0  0  0  0
 18 16  2  0  0  0  0
 20 19  1  0  0  0  0
 21 19  1  0  0  0  0
 22 28  2  0  0  0  0
 23 22  1  0  0  0  0
 23 24  1  0  0  0  0
 24 27  1  0  0  0  0
 24 26  2  0  0  0  0
 25 29  1  0  0  0  0
 25 23  1  0  0  0  0
 28 26  1  0  0  0  0
 29 27  1  0  0  0  0
M  END
>  <Pose>
1

>  <Score>
-9.226

$$$$
