/Users/jonathanwahrer/Desktop/Msc/3_Semester/Drug_Design_Praktikum/waehrer_HTS_screening/HTS_experiment/out/docking_results/vina_output/6e43/1028_docked.pdbqt
 OpenBabel03212220173D

 25 28  0  0  1  0  0  0  0  0999 V2000
   21.9470   78.6400   16.3340 N   0  0  0  0  0  0  0  0  0  0  0  0
   21.4230   79.9300   16.0570 C   0  0  0  0  0  2  0  0  0  0  0  0
   20.1840   79.6230   16.8040 C   0  0  1  0  0  3  0  0  0  0  0  0
   20.8740   78.3730   17.2250 C   0  0  0  0  0  2  0  0  0  0  0  0
   19.8700   80.4930   17.9210 N   0  0  0  0  0  0  0  0  0  0  0  0
   19.0550   80.2730   18.9200 N   0  0  0  0  0  0  0  0  0  0  0  0
   19.0390   81.3250   19.7490 N   0  0  0  0  0  0  0  0  0  0  0  0
   19.8740   82.2630   19.2700 C   0  0  0  0  0  0  0  0  0  0  0  0
   20.3950   81.7160   18.1050 C   0  0  0  0  0  3  0  0  0  0  0  0
   20.1840   83.6100   19.8570 C   0  0  0  0  0  2  0  0  0  0  0  0
   19.7990   83.5820   21.2560 N   0  0  0  0  0  0  0  0  0  0  0  0
   20.4970   82.8940   22.3010 C   0  0  0  0  0  2  0  0  0  0  0  0
   19.7690   83.2230   23.5730 C   0  0  0  0  0  2  0  0  0  0  0  0
   18.7920   84.3180   23.2890 C   0  0  0  0  0  2  0  0  0  0  0  0
   18.6570   84.2440   21.7920 C   0  0  0  0  0  0  0  0  0  0  0  0
   17.6840   84.7040   21.1690 O   0  0  0  0  0  0  0  0  0  0  0  0
   22.1410   77.5300   15.0770 S   0  0  0  0  0  0  0  0  0  0  0  0
   21.0870   76.4670   15.1990 O   0  0  0  0  0  0  0  0  0  0  0  0
   23.4720   76.8210   15.1450 O   0  0  0  0  0  0  0  0  0  0  0  0
   21.9630   78.2400   13.4740 C   0  0  0  0  0  0  0  0  0  0  0  0
   23.0250   79.3260   12.6800 S   0  0  0  0  0  0  0  0  0  0  0  0
   22.1670   79.5300   11.2170 C   0  0  0  0  0  0  0  0  0  0  0  0
   21.0660   78.7330   11.3990 C   0  0  0  0  0  3  0  0  0  0  0  0
   22.6060   80.6010    9.6780 Br  0  0  0  0  0  0  0  0  0  0  0  0
   20.9680   78.0750   12.5560 C   0  0  0  0  0  3  0  0  0  0  0  0
  1  4  1  0  0  0  0
  2  1  1  0  0  0  0
  3  2  1  6  0  0  0
  3  4  1  0  0  0  0
  3  5  1  0  0  0  0
  5  9  1  0  0  0  0
  5  6  1  0  0  0  0
  6  7  2  0  0  0  0
  8  7  1  0  0  0  0
  8 10  1  0  0  0  0
  9  8  2  0  0  0  0
 10 11  1  0  0  0  0
 11 15  1  0  0  0  0
 11 12  1  0  0  0  0
 12 13  1  0  0  0  0
 14 13  1  0  0  0  0
 15 14  1  0  0  0  0
 16 15  2  0  0  0  0
 17 19  2  0  0  0  0
 17 18  2  0  0  0  0
 17  1  1  0  0  0  0
 20 17  1  0  0  0  0
 21 20  1  0  0  0  0
 22 23  2  0  0  0  0
 22 21  1  0  0  0  0
 23 25  1  0  0  0  0
 24 22  1  0  0  0  0
 25 20  2  0  0  0  0
M  END
>  <Pose>
1

>  <Score>
-8.775

$$$$
