/Users/jonathanwahrer/Desktop/Msc/3_Semester/Drug_Design_Praktikum/waehrer_HTS_screening/HTS_experiment/out/docking_results/vina_output/6e43/1037_docked.pdbqt
 OpenBabel03212220173D

 31 34  0  0  0  0  0  0  0  0999 V2000
   21.4040   78.8630   18.2970 N   0  0  0  0  0  0  0  0  0  0  0  0
   21.4770   77.5200   17.8320 C   0  0  0  0  0  3  0  0  0  0  0  0
   21.6950   77.2820   16.4110 C   0  0  0  0  0  3  0  0  0  0  0  0
   22.1420   78.3880   15.5870 N   0  0  0  0  0  0  0  0  0  0  0  0
   22.1050   79.7300   16.0820 C   0  0  0  0  0  2  0  0  0  0  0  0
   22.2300   79.7810   17.6000 C   0  0  0  0  0  2  0  0  0  0  0  0
   22.6300   78.0970   14.3120 C   0  0  0  0  0  0  0  0  0  0  0  0
   22.6990   76.7620   14.1240 O   0  0  0  0  0  0  0  0  0  0  0  0
   19.8610   79.4340   18.7020 S   0  0  0  0  0  0  0  0  0  0  0  0
   19.4040   78.7690   19.9710 O   0  0  0  0  0  0  0  0  0  0  0  0
   18.8530   79.0430   17.6350 O   0  0  0  0  0  0  0  0  0  0  0  0
   19.7840   81.1580   19.0010 C   0  0  0  0  0  0  0  0  0  0  0  0
   19.0060   81.6500   20.0470 C   0  0  0  0  0  3  0  0  0  0  0  0
   18.8940   82.9950   20.3240 C   0  0  0  0  0  0  0  0  0  0  0  0
   19.5610   83.9290   19.5630 C   0  0  0  0  0  0  0  0  0  0  0  0
   18.0760   83.4820   21.4020 N   0  0  0  0  0  0  0  0  0  0  0  0
   20.3320   83.4500   18.5270 C   0  0  0  0  0  3  0  0  0  0  0  0
   19.4510   85.3070   19.8370 O   0  0  0  0  0  0  0  0  0  0  0  0
   20.4490   82.0940   18.2410 C   0  0  0  0  0  3  0  0  0  0  0  0
   19.1270   85.7400   21.1700 C   0  0  0  0  0  2  0  0  0  0  0  0
   17.9990   84.8800   21.6120 C   0  0  0  0  0  0  0  0  0  0  0  0
   16.9770   85.3460   22.1660 O   0  0  0  0  0  0  0  0  0  0  0  0
   17.5820   82.7760   21.9660 H   0  0  0  0  0  0  0  0  0  0  0  0
   23.0590   78.8940   13.1990 C   0  0  0  0  0  2  0  0  0  0  0  0
   22.2370   79.0360   12.0000 C   0  0  0  0  0  0  0  0  0  0  0  0
   22.7460   78.7860   10.7490 C   0  0  0  0  0  0  0  0  0  0  0  0
   21.9480   78.9190    9.6120 C   0  0  0  0  0  3  0  0  0  0  0  0
   24.5750   78.2560   10.5340 Br  0  0  0  0  0  0  0  0  0  0  0  0
   20.6460   79.3010    9.7470 C   0  0  0  0  0  3  0  0  0  0  0  0
   20.1220   79.5530   11.0160 C   0  0  0  0  0  3  0  0  0  0  0  0
   20.9010   79.4230   12.1210 C   0  0  0  0  0  3  0  0  0  0  0  0
  1  9  1  0  0  0  0
  2  1  1  0  0  0  0
  3  2  2  0  0  0  0
  4  5  1  0  0  0  0
  4  3  1  0  0  0  0
  5  6  1  0  0  0  0
  6  1  1  0  0  0  0
  7  4  1  0  0  0  0
  8  7  2  0  0  0  0
  9 12  1  0  0  0  0
  9 10  2  0  0  0  0
 11  9  2  0  0  0  0
 12 13  1  0  0  0  0
 13 14  2  0  0  0  0
 14 16  1  0  0  0  0
 15 18  1  0  0  0  0
 15 14  1  0  0  0  0
 16 21  1  0  0  0  0
 16 23  1  0  0  0  0
 17 15  2  0  0  0  0
 18 20  1  0  0  0  0
 19 17  1  0  0  0  0
 19 12  2  0  0  0  0
 20 21  1  0  0  0  0
 21 22  2  0  0  0  0
 24  7  1  0  0  0  0
 25 31  1  0  0  0  0
 25 24  1  0  0  0  0
 26 25  2  0  0  0  0
 27 29  2  0  0  0  0
 27 26  1  0  0  0  0
 28 26  1  0  0  0  0
 29 30  1  0  0  0  0
 30 31  2  0  0  0  0
M  END
>  <Pose>
1

>  <Score>
-10.319

$$$$
