/Users/jonathanwahrer/Desktop/Msc/3_Semester/Drug_Design_Praktikum/waehrer_HTS_screening/HTS_experiment/out/docking_results/vina_output/6e43/1040_docked.pdbqt
 OpenBabel03212220183D

 34 38  0  0  0  0  0  0  0  0999 V2000
   19.5990   78.6450    9.5030 S   0  0  0  0  0  0  0  0  0  0  0  0
   20.1350   79.9390    9.0260 O   0  0  0  0  0  0  0  0  0  0  0  0
   18.4770   79.0210   10.4770 O   0  0  0  0  0  0  0  0  0  0  0  0
   20.7110   77.7430   10.4560 N   0  0  0  0  0  0  0  0  0  0  0  0
   20.3330   77.6040   11.8200 C   0  0  0  0  0  2  0  0  0  0  0  0
   20.8030   78.7410   12.7170 C   0  0  0  0  0  2  0  0  0  0  0  0
   22.2020   78.9300   12.5250 N   0  0  0  0  0  0  0  0  0  0  0  0
   22.5310   79.2790   11.1050 C   0  0  0  0  0  2  0  0  0  0  0  0
   23.2690   78.8490   13.3970 C   0  0  0  0  0  0  0  0  0  0  0  0
   22.0680   78.1320   10.2720 C   0  0  0  0  0  2  0  0  0  0  0  0
   24.4460   79.0880   12.8550 O   0  0  0  0  0  0  0  0  0  0  0  0
   23.3290   78.5490   14.7980 C   0  0  0  0  0  2  0  0  0  0  0  0
   22.1350   78.2950   15.5180 N   0  0  0  0  0  0  0  0  0  0  0  0
   21.4820   77.1400   15.6340 N   0  0  0  0  0  0  0  0  0  0  0  0
   20.4120   77.2740   16.4290 C   0  0  0  0  0  3  0  0  0  0  0  0
   20.4020   78.5880   16.8290 C   0  0  0  0  0  0  0  0  0  0  0  0
   21.4700   79.2160   16.2630 C   0  0  0  0  0  3  0  0  0  0  0  0
   19.1030   79.4050   17.9900 Br  0  0  0  0  0  0  0  0  0  0  0  0
   18.8410   77.6710    8.2820 C   0  0  0  0  0  0  0  0  0  0  0  0
   19.2200   76.3420    8.0470 C   0  0  0  0  0  0  0  0  0  0  0  0
   18.6140   75.5750    7.0720 C   0  0  0  0  0  0  0  0  0  0  0  0
   20.1980   75.5910    8.6910 O   0  0  0  0  0  0  0  0  0  0  0  0
   17.6040   76.0890    6.2850 C   0  0  0  0  0  0  0  0  0  0  0  0
   19.2080   74.3320    7.0950 O   0  0  0  0  0  0  0  0  0  0  0  0
   17.2300   77.3860    6.5080 C   0  0  0  0  0  0  0  0  0  0  0  0
   17.8480   78.1470    7.4940 C   0  0  0  0  0  0  0  0  0  0  0  0
   16.1610   78.0790    5.7520 C   0  0  0  0  0  2  0  0  0  0  0  0
   17.3460   79.5270    7.6090 C   0  0  0  0  0  2  0  0  0  0  0  0
   15.8340   79.5490    7.6620 C   0  0  0  0  0  2  0  0  0  0  0  0
   15.2780   78.6630    6.7110 N   0  0  0  0  0  0  0  0  0  0  0  0
   14.2110   77.8340    7.1500 C   0  0  0  0  0  1  0  0  0  0  0  0
   20.2820   74.3580    7.9930 C   0  0  0  0  0  2  0  0  0  0  0  0
   16.9810   75.3120    5.2880 O   0  0  0  0  0  0  0  0  0  0  0  0
   17.6140   75.2080    4.0050 C   0  0  0  0  0  1  0  0  0  0  0  0
  1  4  1  0  0  0  0
  1  3  2  0  0  0  0
  2  1  2  0  0  0  0
  4  5  1  0  0  0  0
  5  6  1  0  0  0  0
  7  6  1  0  0  0  0
  7  9  1  0  0  0  0
  8  7  1  0  0  0  0
  9 12  1  0  0  0  0
 10  4  1  0  0  0  0
 10  8  1  0  0  0  0
 11  9  2  0  0  0  0
 12 13  1  0  0  0  0
 13 14  1  0  0  0  0
 13 17  1  0  0  0  0
 14 15  2  0  0  0  0
 15 16  1  0  0  0  0
 16 18  1  0  0  0  0
 17 16  2  0  0  0  0
 19  1  1  0  0  0  0
 20 19  1  0  0  0  0
 20 22  1  0  0  0  0
 21 24  1  0  0  0  0
 21 20  2  0  0  0  0
 23 25  2  0  0  0  0
 23 21  1  0  0  0  0
 24 32  1  0  0  0  0
 25 26  1  0  0  0  0
 26 28  1  0  0  0  0
 26 19  2  0  0  0  0
 27 25  1  0  0  0  0
 27 30  1  0  0  0  0
 28 29  1  0  0  0  0
 30 31  1  0  0  0  0
 30 29  1  0  0  0  0
 32 22  1  0  0  0  0
 33 23  1  0  0  0  0
 34 33  1  0  0  0  0
M  END
>  <Pose>
1

>  <Score>
-8.149

$$$$
