/Users/jonathanwahrer/Desktop/Msc/3_Semester/Drug_Design_Praktikum/waehrer_HTS_screening/HTS_experiment/out/docking_results/vina_output/6e43/1043_docked.pdbqt
 OpenBabel03212220183D

 31 34  0  0  0  0  0  0  0  0999 V2000
   22.0270   79.0790   12.3600 N   0  0  0  0  0  0  0  0  0  0  0  0
   23.3800   78.5720   12.4500 C   0  0  0  0  0  2  0  0  0  0  0  0
   24.0680   79.0720   13.6960 C   0  0  0  0  0  2  0  0  0  0  0  0
   23.1730   78.7670   14.8310 N   0  0  0  0  0  0  0  0  0  0  0  0
   21.8500   79.3010   14.7290 C   0  0  0  0  0  2  0  0  0  0  0  0
   21.7600   80.0390   13.3730 C   0  0  0  0  0  2  0  0  0  0  0  0
   23.6290   78.0000   15.9130 C   0  0  0  0  0  0  0  0  0  0  0  0
   24.8780   77.5930   15.8070 O   0  0  0  0  0  0  0  0  0  0  0  0
   23.0010   77.5600   17.1330 C   0  0  0  0  0  2  0  0  0  0  0  0
   21.6480   77.9150   17.4220 N   0  0  0  0  0  0  0  0  0  0  0  0
   20.4430   77.3250   16.8710 C   0  0  0  0  0  0  0  0  0  0  0  0
   20.4680   76.3700   16.0450 O   0  0  0  0  0  0  0  0  0  0  0  0
   19.3320   78.0100   17.4270 N   0  0  0  0  0  0  0  0  0  0  0  0
   19.8100   79.2470   17.9430 C   0  0  0  0  0  0  0  0  0  0  0  0
   18.3550   77.6050   17.4190 H   0  0  0  0  0  0  0  0  0  0  0  0
   19.6810   80.3940   16.9700 C   0  0  0  0  0  2  0  0  0  0  0  0
   18.9920   79.7480   19.1200 C   0  0  0  0  0  2  0  0  0  0  0  0
   21.1960   78.9590   18.3100 C   0  0  0  0  0  0  0  0  0  0  0  0
   19.9380   81.5850   17.8720 C   0  0  0  0  0  2  0  0  0  0  0  0
   19.4890   81.1680   19.2520 C   0  0  0  0  0  2  0  0  0  0  0  0
   21.8920   79.4900   19.2130 O   0  0  0  0  0  0  0  0  0  0  0  0
   21.5970   79.5710   10.7830 S   0  0  0  0  0  0  0  0  0  0  0  0
   22.8660   80.0640   10.1110 O   0  0  0  0  0  0  0  0  0  0  0  0
   20.6860   80.7700   10.8660 O   0  0  0  0  0  0  0  0  0  0  0  0
   20.8450   78.3020    9.8480 C   0  0  0  0  0  0  0  0  0  0  0  0
   20.2270   77.2190   10.4400 C   0  0  0  0  0  3  0  0  0  0  0  0
   19.6310   76.2140    9.6870 C   0  0  0  0  0  3  0  0  0  0  0  0
   19.6380   76.2680    8.3170 C   0  0  0  0  0  0  0  0  0  0  0  0
   20.2510   77.3440    7.7120 C   0  0  0  0  0  3  0  0  0  0  0  0
   18.8140   74.8800    7.2660 Br  0  0  0  0  0  0  0  0  0  0  0  0
   20.8440   78.3440    8.4700 C   0  0  0  0  0  3  0  0  0  0  0  0
  1  2  1  0  0  0  0
  1  6  1  0  0  0  0
  2  3  1  0  0  0  0
  3  4  1  0  0  0  0
  4  7  1  0  0  0  0
  5  4  1  0  0  0  0
  6  5  1  0  0  0  0
  7  9  1  0  0  0  0
  8  7  2  0  0  0  0
  9 10  1  0  0  0  0
 10 18  1  0  0  0  0
 11 10  1  0  0  0  0
 11 13  1  0  0  0  0
 12 11  2  0  0  0  0
 13 14  1  0  0  0  0
 14 18  1  0  0  0  0
 14 17  1  0  0  0  0
 15 13  1  0  0  0  0
 16 19  1  0  0  0  0
 16 14  1  0  0  0  0
 17 20  1  0  0  0  0
 18 21  2  0  0  0  0
 19 20  1  0  0  0  0
 22 24  2  0  0  0  0
 22  1  1  0  0  0  0
 23 22  2  0  0  0  0
 25 26  1  0  0  0  0
 25 22  1  0  0  0  0
 27 26  2  0  0  0  0
 28 27  1  0  0  0  0
 29 28  2  0  0  0  0
 29 31  1  0  0  0  0
 30 28  1  0  0  0  0
 31 25  2  0  0  0  0
M  END
>  <Pose>
1

>  <Score>
-9.792

$$$$
