/Users/jonathanwahrer/Desktop/Msc/3_Semester/Drug_Design_Praktikum/waehrer_HTS_screening/HTS_experiment/out/docking_results/vina_output/6e43/1051_docked.pdbqt
 OpenBabel03212220183D

 27 30  0  0  0  0  0  0  0  0999 V2000
   21.4080   79.9320   18.3930 N   0  0  0  0  0  0  0  0  0  0  0  0
   21.5610   80.7330   17.2350 C   0  0  0  0  0  2  0  0  0  0  0  0
   21.7250   80.0130   15.9400 C   0  0  0  0  0  2  0  0  0  0  0  0
   22.4510   78.7750   16.0460 N   0  0  0  0  0  0  0  0  0  0  0  0
   22.9320   78.4200   17.3630 C   0  0  0  0  0  2  0  0  0  0  0  0
   21.7220   78.5500   18.2650 C   0  0  0  0  0  2  0  0  0  0  0  0
   22.7140   77.9120   14.9670 C   0  0  0  0  0  0  0  0  0  0  0  0
   23.3550   76.8550   15.1560 O   0  0  0  0  0  0  0  0  0  0  0  0
   22.2460   78.2400   13.6240 C   0  0  0  0  0  0  0  0  0  0  0  0
   21.1260   77.7990   13.0610 N   0  0  0  0  0  0  0  0  0  0  0  0
   21.0020   78.2910   11.8260 N   0  0  0  0  0  0  0  0  0  0  0  0
   22.0630   79.0820   11.5500 C   0  0  0  0  0  0  0  0  0  0  0  0
   20.0510   78.1330   10.8810 C   0  0  0  0  0  3  0  0  0  0  0  0
   22.8590   79.0480   12.7010 C   0  0  0  0  0  3  0  0  0  0  0  0
   22.1950   79.7150   10.3570 N   0  0  0  0  0  0  0  0  0  0  0  0
   21.2330   79.5530    9.4040 C   0  0  0  0  0  3  0  0  0  0  0  0
   20.1390   78.7540    9.6560 C   0  0  0  0  0  0  0  0  0  0  0  0
   18.7840   78.5270    8.3100 Br  0  0  0  0  0  0  0  0  0  0  0  0
   19.8680   80.0770   19.1480 S   0  0  0  0  0  0  0  0  0  0  0  0
   19.5740   78.8570   19.9590 O   0  0  0  0  0  0  0  0  0  0  0  0
   18.8430   80.1630   18.0250 O   0  0  0  0  0  0  0  0  0  0  0  0
   19.7750   81.4830   20.1790 C   0  0  0  0  0  0  0  0  0  0  0  0
   18.7950   82.4490   20.1880 C   0  0  0  0  0  3  0  0  0  0  0  0
   19.0730   83.3640   21.1180 N   0  0  0  0  0  0  0  0  0  0  0  0
   20.1990   83.0250   21.7140 N   0  0  0  0  0  0  0  0  0  0  0  0
   18.3040   84.5340   21.4480 C   0  0  0  0  0  1  0  0  0  0  0  0
   20.6730   81.8740   21.1730 C   0  0  0  0  0  3  0  0  0  0  0  0
  1 19  1  0  0  0  0
  2  1  1  0  0  0  0
  3  4  1  0  0  0  0
  3  2  1  0  0  0  0
  4  5  1  0  0  0  0
  5  6  1  0  0  0  0
  6  1  1  0  0  0  0
  7  8  2  0  0  0  0
  7  4  1  0  0  0  0
  9  7  1  0  0  0  0
 10  9  2  0  0  0  0
 11 10  1  0  0  0  0
 12 11  1  0  0  0  0
 12 14  2  0  0  0  0
 13 11  1  0  0  0  0
 14  9  1  0  0  0  0
 15 12  1  0  0  0  0
 16 17  1  0  0  0  0
 16 15  2  0  0  0  0
 17 13  2  0  0  0  0
 18 17  1  0  0  0  0
 19 20  2  0  0  0  0
 19 22  1  0  0  0  0
 21 19  2  0  0  0  0
 22 23  2  0  0  0  0
 22 27  1  0  0  0  0
 23 24  1  0  0  0  0
 24 26  1  0  0  0  0
 24 25  1  0  0  0  0
 27 25  2  0  0  0  0
M  END
>  <Pose>
1

>  <Score>
-9.380

$$$$
