/Users/jonathanwahrer/Desktop/Msc/3_Semester/Drug_Design_Praktikum/waehrer_HTS_screening/HTS_experiment/out/docking_results/vina_output/6e43/1056_docked.pdbqt
 OpenBabel03212220193D

 30 33  0  0  1  0  0  0  0  0999 V2000
   20.0930   78.7750    9.3460 N   0  0  0  0  0  0  0  0  0  0  0  0
   21.2670   79.5590    9.3030 C   0  0  0  0  0  2  0  0  0  0  0  0
   22.2790   79.3200   10.3450 C   0  0  0  0  0  2  0  0  0  0  0  0
   21.6870   79.0720   11.6260 N   0  0  0  0  0  0  0  0  0  0  0  0
   20.2610   79.1480   11.7680 C   0  0  0  0  0  2  0  0  0  0  0  0
   19.5110   78.5490   10.6190 C   0  0  0  0  0  2  0  0  0  0  0  0
   22.4870   78.7550   12.7420 C   0  0  0  0  0  0  0  0  0  0  0  0
   23.7290   78.6930   12.5990 O   0  0  0  0  0  0  0  0  0  0  0  0
   21.9530   78.4920   14.0720 C   0  0  1  0  0  3  0  0  0  0  0  0
   21.5500   77.2130   14.4110 C   0  0  0  0  0  3  0  0  0  0  0  0
   21.0590   76.9690   15.6360 N   0  0  0  0  0  0  0  0  0  0  0  0
   20.9380   77.9330   16.5740 C   0  0  1  0  0  3  0  0  0  0  0  0
   21.3200   79.1870   16.2770 N   0  0  0  0  0  0  0  0  0  0  0  0
   20.4250   77.6510   17.8350 C   0  0  0  0  0  3  0  0  0  0  0  0
   21.2000   80.1630   17.2200 C   0  0  0  0  0  3  0  0  0  0  0  0
   21.8210   79.4630   15.0440 C   0  0  0  0  0  0  0  0  0  0  0  0
   20.6930   79.9030   18.4770 C   0  0  0  0  0  0  0  0  0  0  0  0
   20.2920   78.6190   18.8050 C   0  0  0  0  0  3  0  0  0  0  0  0
   20.5470   80.9390   19.5300 C   0  0  0  0  0  1  0  0  0  0  0  0
   22.1740   80.6200   14.7710 O   0  0  0  0  0  0  0  0  0  0  0  0
   19.9970   77.4980    8.2400 S   0  0  0  0  0  0  0  0  0  0  0  0
   21.1230   77.5650    7.2680 O   0  0  0  0  0  0  0  0  0  0  0  0
   20.0980   76.1980    9.0000 O   0  0  0  0  0  0  0  0  0  0  0  0
   18.4600   77.5300    7.4180 C   0  0  0  0  0  0  0  0  0  0  0  0
   17.6630   78.6540    7.4810 C   0  0  0  0  0  3  0  0  0  0  0  0
   16.4500   78.6120    6.8020 C   0  0  0  0  0  0  0  0  0  0  0  0
   16.0460   77.5090    6.0950 C   0  0  0  0  0  3  0  0  0  0  0  0
   15.3060   80.1300    6.8510 Br  0  0  0  0  0  0  0  0  0  0  0  0
   16.8560   76.3840    6.0380 C   0  0  0  0  0  3  0  0  0  0  0  0
   18.0800   76.4060    6.7140 C   0  0  0  0  0  3  0  0  0  0  0  0
  1  6  1  0  0  0  0
  2  1  1  0  0  0  0
  2  3  1  0  0  0  0
  3  4  1  0  0  0  0
  4  5  1  0  0  0  0
  4  7  1  0  0  0  0
  6  5  1  0  0  0  0
  8  7  2  0  0  0  0
  9  7  1  1  0  0  0
  9 10  1  0  0  0  0
  9 16  1  0  0  0  0
 10 11  2  0  0  0  0
 11 12  1  0  0  0  0
 12 14  1  6  0  0  0
 13 12  1  0  0  0  0
 13 15  1  0  0  0  0
 14 18  2  0  0  0  0
 15 17  2  0  0  0  0
 16 13  1  0  0  0  0
 17 18  1  0  0  0  0
 17 19  1  0  0  0  0
 20 16  2  0  0  0  0
 21 23  2  0  0  0  0
 21  1  1  0  0  0  0
 22 21  2  0  0  0  0
 24 25  1  0  0  0  0
 24 21  1  0  0  0  0
 26 28  1  0  0  0  0
 26 25  2  0  0  0  0
 27 26  1  0  0  0  0
 29 27  2  0  0  0  0
 29 30  1  0  0  0  0
 30 24  2  0  0  0  0
M  END
>  <Pose>
1

>  <Score>
-9.903

$$$$
