/Users/jonathanwahrer/Desktop/Msc/3_Semester/Drug_Design_Praktikum/waehrer_HTS_screening/HTS_experiment/out/docking_results/vina_output/6e43/1084_docked.pdbqt
 OpenBabel03212220203D

 29 32  0  0  0  0  0  0  0  0999 V2000
   20.9440   78.2290   16.1360 N   0  0  0  0  0  0  0  0  0  0  0  0
   20.1450   77.2490   15.4810 C   0  0  0  0  0  2  0  0  0  0  0  0
   20.7710   76.7100   14.2130 C   0  0  0  0  0  2  0  0  0  0  0  0
   21.6430   77.7250   13.6960 N   0  0  0  0  0  0  0  0  0  0  0  0
   22.7670   78.1320   14.4870 C   0  0  0  0  0  2  0  0  0  0  0  0
   22.3650   78.0660   15.9390 C   0  0  0  0  0  2  0  0  0  0  0  0
   21.3910   78.2990   12.4390 C   0  0  0  0  0  0  0  0  0  0  0  0
   20.5680   77.7390   11.5380 N   0  0  0  0  0  0  0  0  0  0  0  0
   20.2910   78.2290   10.3420 C   0  0  0  0  0  0  0  0  0  0  0  0
   20.8960   79.4210    9.9820 C   0  0  0  0  0  3  0  0  0  0  0  0
   21.7480   80.0340   10.8730 C   0  0  0  0  0  0  0  0  0  0  0  0
   21.9740   79.4660   12.0710 N   0  0  0  0  0  0  0  0  0  0  0  0
   22.4180   81.3160   10.5240 C   0  0  0  0  0  1  0  0  0  0  0  0
   19.4040   77.5390    9.4810 N   0  0  0  0  0  0  0  0  0  0  0  0
   18.5630   78.1970    8.5020 C   0  0  0  0  0  2  0  0  0  0  0  0
   18.2410   77.1460    7.4410 C   0  0  0  0  0  2  0  0  0  0  0  0
   19.4220   76.4420    7.1940 O   0  0  0  0  0  0  0  0  0  0  0  0
   19.7510   75.5620    8.2000 C   0  0  0  0  0  2  0  0  0  0  0  0
   19.3210   76.0990    9.5700 C   0  0  0  0  0  2  0  0  0  0  0  0
   20.6510   78.1140   17.8360 S   0  0  0  0  0  0  0  0  0  0  0  0
   19.4950   77.1490   18.0430 O   0  0  0  0  0  0  0  0  0  0  0  0
   21.8630   77.5340   18.5050 O   0  0  0  0  0  0  0  0  0  0  0  0
   20.2150   79.6560   18.5160 C   0  0  0  0  0  0  0  0  0  0  0  0
   20.5930   80.8100   17.8430 C   0  0  0  0  0  3  0  0  0  0  0  0
   20.2840   82.0650   18.3210 C   0  0  0  0  0  3  0  0  0  0  0  0
   19.5840   82.1920   19.4950 C   0  0  0  0  0  0  0  0  0  0  0  0
   19.1890   81.0670   20.1950 C   0  0  0  0  0  3  0  0  0  0  0  0
   19.1640   83.9350   20.1420 Br  0  0  0  0  0  0  0  0  0  0  0  0
   19.5170   79.8130   19.6850 C   0  0  0  0  0  3  0  0  0  0  0  0
  1 20  1  0  0  0  0
  2  1  1  0  0  0  0
  3  2  1  0  0  0  0
  4  3  1  0  0  0  0
  4  5  1  0  0  0  0
  5  6  1  0  0  0  0
  6  1  1  0  0  0  0
  7  4  1  0  0  0  0
  8  7  2  0  0  0  0
  9  8  1  0  0  0  0
 10  9  2  0  0  0  0
 10 11  1  0  0  0  0
 11 12  2  0  0  0  0
 12  7  1  0  0  0  0
 13 11  1  0  0  0  0
 14 19  1  0  0  0  0
 14  9  1  0  0  0  0
 15 14  1  0  0  0  0
 16 15  1  0  0  0  0
 17 16  1  0  0  0  0
 17 18  1  0  0  0  0
 18 19  1  0  0  0  0
 20 21  2  0  0  0  0
 20 22  2  0  0  0  0
 20 23  1  0  0  0  0
 23 29  1  0  0  0  0
 24 25  1  0  0  0  0
 24 23  2  0  0  0  0
 25 26  2  0  0  0  0
 26 28  1  0  0  0  0
 26 27  1  0  0  0  0
 29 27  2  0  0  0  0
M  END
>  <Pose>
1

>  <Score>
-10.183

$$$$
