/Users/jonathanwahrer/Desktop/Msc/3_Semester/Drug_Design_Praktikum/waehrer_HTS_screening/HTS_experiment/out/docking_results/vina_output/6e43/1101_docked.pdbqt
 OpenBabel03212220203D

 26 29  0  0  0  0  0  0  0  0999 V2000
   21.0360   77.1650   16.6970 N   0  0  0  0  0  0  0  0  0  0  0  0
   22.1020   77.5690   17.5340 C   0  0  0  0  0  2  0  0  0  0  0  0
   21.9950   78.9320   18.1200 C   0  0  0  0  0  2  0  0  0  0  0  0
   20.6260   79.2170   18.5760 N   0  0  0  0  0  0  0  0  0  0  0  0
   19.7380   78.0740   18.5670 C   0  0  0  0  0  2  0  0  0  0  0  0
   19.7260   77.5500   17.1430 C   0  0  0  0  0  2  0  0  0  0  0  0
   21.2770   77.4010   15.0290 S   0  0  0  0  0  0  0  0  0  0  0  0
   22.7500   77.1410   14.7410 O   0  0  0  0  0  0  0  0  0  0  0  0
   21.0260   78.8310   14.6510 O   0  0  0  0  0  0  0  0  0  0  0  0
   20.3770   76.2880   14.0340 C   0  0  0  0  0  0  0  0  0  0  0  0
   20.0400   75.0170   14.4800 C   0  0  0  0  0  3  0  0  0  0  0  0
   19.3290   74.1390   13.6930 C   0  0  0  0  0  3  0  0  0  0  0  0
   18.9440   74.5430   12.4250 C   0  0  0  0  0  0  0  0  0  0  0  0
   19.2540   75.7970   11.9360 C   0  0  0  0  0  3  0  0  0  0  0  0
   17.9560   73.3080   11.3440 Br  0  0  0  0  0  0  0  0  0  0  0  0
   19.9660   76.6440   12.7540 C   0  0  0  0  0  3  0  0  0  0  0  0
   20.2520   80.5180   18.9830 C   0  0  0  0  0  0  0  0  0  0  0  0
   20.5430   81.5890   18.1460 C   0  0  0  0  0  3  0  0  0  0  0  0
   20.1710   82.8670   18.5580 C   0  0  0  0  0  0  0  0  0  0  0  0
   19.5530   83.0730   19.7130 N   0  0  0  0  0  0  0  0  0  0  0  0
   20.3400   84.0450   17.9340 N   0  0  0  0  0  0  0  0  0  0  0  0
   19.3290   84.3930   19.8220 C   0  0  0  0  0  0  0  0  0  0  0  0
   19.2730   82.0790   20.5080 N   0  0  0  0  0  0  0  0  0  0  0  0
   19.8220   84.9780   18.7130 N   0  0  0  0  0  0  0  0  0  0  0  0
   18.6550   85.0940   20.9630 C   0  0  0  0  0  1  0  0  0  0  0  0
   19.6150   80.8120   20.1540 C   0  0  0  0  0  3  0  0  0  0  0  0
  1  6  1  0  0  0  0
  1  2  1  0  0  0  0
  2  3  1  0  0  0  0
  3  4  1  0  0  0  0
  4 17  1  0  0  0  0
  5  4  1  0  0  0  0
  6  5  1  0  0  0  0
  7  1  1  0  0  0  0
  8  7  2  0  0  0  0
  9  7  2  0  0  0  0
 10 11  1  0  0  0  0
 10  7  1  0  0  0  0
 12 11  2  0  0  0  0
 13 12  1  0  0  0  0
 14 13  2  0  0  0  0
 14 16  1  0  0  0  0
 15 13  1  0  0  0  0
 16 10  2  0  0  0  0
 17 26  1  0  0  0  0
 18 19  1  0  0  0  0
 18 17  2  0  0  0  0
 19 20  1  0  0  0  0
 20 22  1  0  0  0  0
 20 23  1  0  0  0  0
 21 19  2  0  0  0  0
 21 24  1  0  0  0  0
 22 25  1  0  0  0  0
 24 22  2  0  0  0  0
 26 23  2  0  0  0  0
M  END
>  <Pose>
1

>  <Score>
-10.262

$$$$
