/Users/jonathanwahrer/Desktop/Msc/3_Semester/Drug_Design_Praktikum/waehrer_HTS_screening/HTS_experiment/out/docking_results/vina_output/6e43/1105_docked.pdbqt
 OpenBabel03212220203D

 33 36  0  0  1  0  0  0  0  0999 V2000
   20.1010   78.8550   10.9820 N   0  0  0  0  0  0  0  0  0  0  0  0
   19.2390   79.9370   10.6450 C   0  0  0  0  0  2  0  0  0  0  0  0
   19.9460   81.2370   10.3380 C   0  0  0  0  0  2  0  0  0  0  0  0
   21.0910   81.0100    9.4530 N   0  0  0  0  0  0  0  0  0  0  0  0
   21.9210   79.9040    9.8760 C   0  0  0  0  0  0  0  0  0  0  0  0
   22.9070   79.5310    9.2350 O   0  0  0  0  0  0  0  0  0  0  0  0
   21.4390   79.2870   11.1560 C   0  0  2  0  0  3  0  0  0  0  0  0
   21.3130   81.5530    8.6190 H   0  0  0  0  0  0  0  0  0  0  0  0
   22.4030   78.3270   11.7320 C   0  0  0  0  0  2  0  0  0  0  0  0
   22.9770   78.8870   12.9790 C   0  0  0  0  0  0  0  0  0  0  0  0
   24.0710   79.5030   12.8700 O   0  0  0  0  0  0  0  0  0  0  0  0
   22.3280   78.7380   14.2430 N   0  0  0  0  0  0  0  0  0  0  0  0
   21.0800   78.0330   14.3540 C   0  0  0  0  0  2  0  0  0  0  0  0
   22.9420   79.3080   15.4130 C   0  0  0  0  0  2  0  0  0  0  0  0
   20.8730   77.3570   15.6740 C   0  0  0  0  0  2  0  0  0  0  0  0
   21.5000   78.0420   16.7910 N   0  0  0  0  0  0  0  0  0  0  0  0
   22.9060   78.3580   16.5910 C   0  0  0  0  0  2  0  0  0  0  0  0
   20.8680   78.3830   17.9950 C   0  0  0  0  0  0  0  0  0  0  0  0
   20.6370   77.4070   18.9380 C   0  0  0  0  0  3  0  0  0  0  0  0
   19.9980   77.7440   20.1210 C   0  0  0  0  0  3  0  0  0  0  0  0
   19.5790   79.0220   20.4010 C   0  0  0  0  0  3  0  0  0  0  0  0
   19.8130   79.9930   19.4550 C   0  0  0  0  0  3  0  0  0  0  0  0
   20.4510   79.6630   18.2690 C   0  0  0  0  0  3  0  0  0  0  0  0
   19.8670   77.5640    9.9020 S   0  0  0  0  0  0  0  0  0  0  0  0
   21.0630   77.2390    9.0650 O   0  0  0  0  0  0  0  0  0  0  0  0
   18.7410   77.8780    8.9240 O   0  0  0  0  0  0  0  0  0  0  0  0
   19.3710   76.1030   10.7360 C   0  0  0  0  0  0  0  0  0  0  0  0
   19.3420   76.0080   12.1220 C   0  0  0  0  0  3  0  0  0  0  0  0
   18.9630   74.8800   12.7930 C   0  0  0  0  0  3  0  0  0  0  0  0
   18.5830   73.7610   12.0980 C   0  0  0  0  0  0  0  0  0  0  0  0
   18.5980   73.8190   10.6990 C   0  0  0  0  0  3  0  0  0  0  0  0
   18.0440   72.1610   12.9750 Br  0  0  0  0  0  0  0  0  0  0  0  0
   18.9860   74.9710   10.0570 C   0  0  0  0  0  3  0  0  0  0  0  0
  1  7  1  0  0  0  0
  2  1  1  0  0  0  0
  3  2  1  0  0  0  0
  4  5  1  0  0  0  0
  4  3  1  0  0  0  0
  5  7  1  0  0  0  0
  6  5  2  0  0  0  0
  7  9  1  6  0  0  0
  8  4  1  0  0  0  0
  9 10  1  0  0  0  0
 10 12  1  0  0  0  0
 11 10  2  0  0  0  0
 12 13  1  0  0  0  0
 12 14  1  0  0  0  0
 13 15  1  0  0  0  0
 14 17  1  0  0  0  0
 15 16  1  0  0  0  0
 16 18  1  0  0  0  0
 17 16  1  0  0  0  0
 18 23  2  0  0  0  0
 18 19  1  0  0  0  0
 19 20  2  0  0  0  0
 20 21  1  0  0  0  0
 22 21  2  0  0  0  0
 23 22  1  0  0  0  0
 24 27  1  0  0  0  0
 24  1  1  0  0  0  0
 25 24  2  0  0  0  0
 26 24  2  0  0  0  0
 27 28  1  0  0  0  0
 28 29  2  0  0  0  0
 30 29  1  0  0  0  0
 30 32  1  0  0  0  0
 31 30  2  0  0  0  0
 33 31  1  0  0  0  0
 33 27  2  0  0  0  0
M  END
>  <Pose>
1

>  <Score>
-9.183

$$$$
