/Users/jonathanwahrer/Desktop/Msc/3_Semester/Drug_Design_Praktikum/waehrer_HTS_screening/HTS_experiment/out/docking_results/vina_output/6e43/1112_docked.pdbqt
 OpenBabel03212220213D

 32 35  0  0  0  0  0  0  0  0999 V2000
   23.0300   78.0190   15.9780 C   0  0  0  0  0  2  0  0  0  0  0  0
   22.6100   78.3530   14.5950 C   0  0  0  0  0  0  0  0  0  0  0  0
   23.2210   79.2760   13.7990 C   0  0  0  0  0  3  0  0  0  0  0  0
   22.7640   79.5360   12.5100 C   0  0  0  0  0  3  0  0  0  0  0  0
   21.6870   78.8790   11.9890 C   0  0  0  0  0  0  0  0  0  0  0  0
   21.0660   77.9410   12.7920 C   0  0  0  0  0  3  0  0  0  0  0  0
   21.5180   77.6820   14.0730 C   0  0  0  0  0  3  0  0  0  0  0  0
   21.0830   79.1820   10.3660 S   0  0  0  0  0  0  0  0  0  0  0  0
   20.6090   80.5860   10.2130 O   0  0  0  0  0  0  0  0  0  0  0  0
   22.2650   79.0040    9.4340 O   0  0  0  0  0  0  0  0  0  0  0  0
   19.8880   78.0560    9.8970 N   0  0  0  0  0  0  0  0  0  0  0  0
   20.4220   76.9180    9.1960 C   0  0  0  0  0  2  0  0  0  0  0  0
   19.2520   76.2810    8.4410 C   0  0  0  0  0  2  0  0  0  0  0  0
   18.9110   77.0450    7.3460 O   0  0  0  0  0  0  0  0  0  0  0  0
   19.3010   78.3760    7.5790 C   0  0  0  0  0  2  0  0  0  0  0  0
   18.9260   78.6960    9.0180 C   0  0  0  0  0  2  0  0  0  0  0  0
   22.1190   77.1530   16.6170 O   0  0  0  0  0  0  0  0  0  0  0  0
   21.2720   77.5130   17.6360 C   0  0  0  0  0  0  0  0  0  0  0  0
   21.5670   77.2120   18.8090 O   0  0  0  0  0  0  0  0  0  0  0  0
   20.0350   78.2410   17.3640 C   0  0  0  0  0  2  0  0  0  0  0  0
   19.9910   79.5460   17.9540 N   0  0  0  0  0  0  0  0  0  0  0  0
   19.3790   79.8110   19.2230 C   0  0  0  0  0  0  0  0  0  0  0  0
   18.8160   78.9570   19.9650 O   0  0  0  0  0  0  0  0  0  0  0  0
   19.5090   81.2310   19.5270 C   0  0  0  0  0  0  0  0  0  0  0  0
   20.1740   81.8410   18.4960 C   0  0  0  0  0  0  0  0  0  0  0  0
   19.1110   82.0130   20.5870 C   0  0  0  0  0  3  0  0  0  0  0  0
   20.4320   83.1990   18.5320 C   0  0  0  0  0  3  0  0  0  0  0  0
   20.4830   80.7970   17.5040 C   0  0  0  0  0  0  0  0  0  0  0  0
   20.0260   83.9700   19.6050 C   0  0  0  0  0  3  0  0  0  0  0  0
   19.3560   83.3700   20.6490 C   0  0  0  0  0  0  0  0  0  0  0  0
   18.7760   84.3920   22.1500 Br  0  0  0  0  0  0  0  0  0  0  0  0
   21.0850   80.9580   16.4190 O   0  0  0  0  0  0  0  0  0  0  0  0
  1 17  1  0  0  0  0
  2  1  1  0  0  0  0
  3  2  2  0  0  0  0
  4  3  1  0  0  0  0
  5  4  2  0  0  0  0
  5  6  1  0  0  0  0
  6  7  2  0  0  0  0
  7  2  1  0  0  0  0
  8  5  1  0  0  0  0
  9  8  2  0  0  0  0
 10  8  2  0  0  0  0
 11  8  1  0  0  0  0
 12 11  1  0  0  0  0
 13 12  1  0  0  0  0
 14 15  1  0  0  0  0
 14 13  1  0  0  0  0
 15 16  1  0  0  0  0
 16 11  1  0  0  0  0
 17 18  1  0  0  0  0
 18 19  2  0  0  0  0
 20 18  1  0  0  0  0
 20 21  1  0  0  0  0
 21 22  1  0  0  0  0
 22 24  1  0  0  0  0
 22 23  2  0  0  0  0
 24 26  1  0  0  0  0
 25 27  1  0  0  0  0
 25 24  2  0  0  0  0
 26 30  2  0  0  0  0
 27 29  2  0  0  0  0
 28 21  1  0  0  0  0
 28 25  1  0  0  0  0
 29 30  1  0  0  0  0
 30 31  1  0  0  0  0
 32 28  2  0  0  0  0
M  END
>  <Pose>
1

>  <Score>
-10.517

$$$$
