/Users/jonathanwahrer/Desktop/Msc/3_Semester/Drug_Design_Praktikum/waehrer_HTS_screening/HTS_experiment/out/docking_results/vina_output/6e43/1114_docked.pdbqt
 OpenBabel03212220213D

 27 30  0  0  0  0  0  0  0  0999 V2000
   21.8220   78.1430   14.4960 C   0  0  0  0  0  0  0  0  0  0  0  0
   20.8370   77.2530   14.2810 N   0  0  0  0  0  0  0  0  0  0  0  0
   20.4180   76.7840   15.4710 C   0  0  0  0  0  3  0  0  0  0  0  0
   21.1130   77.3500   16.4680 N   0  0  0  0  0  0  0  0  0  0  0  0
   21.9770   78.1860   15.8710 C   0  0  0  0  0  3  0  0  0  0  0  0
   20.9540   77.1030   17.8870 C   0  0  0  0  0  2  0  0  0  0  0  0
   20.3400   78.2460   18.6000 C   0  0  0  0  0  0  0  0  0  0  0  0
   19.2830   78.1530   19.4290 N   0  0  0  0  0  0  0  0  0  0  0  0
   19.0050   79.3380   19.8800 O   0  0  0  0  0  0  0  0  0  0  0  0
   19.8270   80.2270   19.3930 C   0  0  0  0  0  0  0  0  0  0  0  0
   20.6630   79.5470   18.5920 N   0  0  0  0  0  0  0  0  0  0  0  0
   19.8010   81.6600   19.6910 C   0  0  0  0  0  0  0  0  0  0  0  0
   19.4360   82.1420   20.9310 C   0  0  0  0  0  3  0  0  0  0  0  0
   19.4160   83.5090   21.2000 C   0  0  0  0  0  0  0  0  0  0  0  0
   19.7620   84.4270   20.2340 C   0  0  0  0  0  3  0  0  0  0  0  0
   18.9070   84.1550   22.9260 Br  0  0  0  0  0  0  0  0  0  0  0  0
   20.1270   83.9490   18.9940 C   0  0  0  0  0  3  0  0  0  0  0  0
   20.1450   82.5770   18.7270 C   0  0  0  0  0  3  0  0  0  0  0  0
   22.7230   79.0600   13.2820 S   0  0  0  0  0  0  0  0  0  0  0  0
   22.6350   80.5120   13.6670 O   0  0  0  0  0  0  0  0  0  0  0  0
   24.1690   78.6800   13.2920 O   0  0  0  0  0  0  0  0  0  0  0  0
   22.0350   78.8670   11.7290 N   0  0  0  0  0  0  0  0  0  0  0  0
   22.9760   78.7110   10.6830 C   0  0  0  0  0  2  0  0  0  0  0  0
   22.6300   79.3320    9.3700 C   0  0  0  0  0  2  0  0  0  0  0  0
   21.2300   79.2160    9.2110 O   0  0  0  0  0  0  0  0  0  0  0  0
   20.7030   80.1650   10.0940 C   0  0  0  0  0  2  0  0  0  0  0  0
   20.9030   79.6860   11.4870 C   0  0  0  0  0  2  0  0  0  0  0  0
  1  5  2  0  0  0  0
  2  1  1  0  0  0  0
  2  3  2  0  0  0  0
  3  4  1  0  0  0  0
  4  6  1  0  0  0  0
  5  4  1  0  0  0  0
  6  7  1  0  0  0  0
  7  8  2  0  0  0  0
  8  9  1  0  0  0  0
 10 12  1  0  0  0  0
 10  9  1  0  0  0  0
 11  7  1  0  0  0  0
 11 10  2  0  0  0  0
 12 13  1  0  0  0  0
 13 14  2  0  0  0  0
 14 16  1  0  0  0  0
 15 14  1  0  0  0  0
 17 15  2  0  0  0  0
 18 17  1  0  0  0  0
 18 12  2  0  0  0  0
 19 21  2  0  0  0  0
 19 20  2  0  0  0  0
 19  1  1  0  0  0  0
 22 19  1  0  0  0  0
 23 22  1  0  0  0  0
 24 23  1  0  0  0  0
 25 24  1  0  0  0  0
 25 26  1  0  0  0  0
 26 27  1  0  0  0  0
 27 22  1  0  0  0  0
M  END
>  <Pose>
1

>  <Score>
-9.949

$$$$
