/Users/jonathanwahrer/Desktop/Msc/3_Semester/Drug_Design_Praktikum/waehrer_HTS_screening/HTS_experiment/out/docking_results/vina_output/6e43/1133_docked.pdbqt
 OpenBabel03212220223D

 35 38  0  0  1  0  0  0  0  0999 V2000
   21.4750   78.6930   12.9410 C   0  0  0  0  0  0  0  0  0  0  0  0
   20.6910   78.1580   12.0050 N   0  0  0  0  0  0  0  0  0  0  0  0
   20.0640   77.0980   12.5790 C   0  0  0  0  0  0  0  0  0  0  0  0
   19.2300   76.1180   12.1990 N   0  0  0  0  0  0  0  0  0  0  0  0
   18.7950   75.1160   12.9700 C   0  0  0  0  0  0  0  0  0  0  0  0
   19.2300   75.0790   14.2870 N   0  0  0  0  0  0  0  0  0  0  0  0
   20.0470   75.9940   14.7480 C   0  0  0  0  0  0  0  0  0  0  0  0
   20.4910   77.0150   13.9330 C   0  0  0  0  0  0  0  0  0  0  0  0
   21.3530   78.0120   14.0900 N   0  0  0  0  0  0  0  0  0  0  0  0
   20.4440   78.5580   10.6570 C   0  0  2  0  0  3  0  0  0  0  0  0
   19.0900   78.4570   10.2670 O   0  0  0  0  0  0  0  0  0  0  0  0
   19.2350   78.7380    8.8890 C   0  0  1  0  0  3  0  0  0  0  0  0
   20.2040   77.5770    8.5430 C   0  0  2  0  0  3  0  0  0  0  0  0
   21.2690   77.8980    9.6000 C   0  0  1  0  0  3  0  0  0  0  0  0
   17.9530   78.6390    8.1540 C   0  0  0  0  0  2  0  0  0  0  0  0
   17.6830   77.3100    7.8070 O   0  0  0  0  0  0  0  0  0  0  0  0
   17.4370   77.3040    6.8310 H   0  0  0  0  0  0  0  0  0  0  0  0
   20.6790   77.6530    7.2620 O   0  0  0  0  0  0  0  0  0  0  0  0
   21.3240   78.3960    7.1810 H   0  0  0  0  0  0  0  0  0  0  0  0
   22.1690   78.8160    9.0000 O   0  0  0  0  0  0  0  0  0  0  0  0
   21.5930   79.3870    8.4440 H   0  0  0  0  0  0  0  0  0  0  0  0
   22.6170   80.0630   12.7100 S   0  0  0  0  0  0  0  0  0  0  0  0
   22.9940   80.8660   14.3290 C   0  0  0  0  0  2  0  0  0  0  0  0
   23.6020   79.8730   15.2450 C   0  0  0  0  0  0  0  0  0  0  0  0
   23.1680   79.6330   16.5250 C   0  0  0  0  0  0  0  0  0  0  0  0
   23.8330   78.8180   17.3730 C   0  0  0  0  0  3  0  0  0  0  0  0
   21.4870   80.4160   16.9940 Br  0  0  0  0  0  0  0  0  0  0  0  0
   24.9990   78.1650   16.9890 C   0  0  0  0  0  3  0  0  0  0  0  0
   25.4720   78.3900   15.6890 C   0  0  0  0  0  3  0  0  0  0  0  0
   24.7840   79.2280   14.8340 C   0  0  0  0  0  3  0  0  0  0  0  0
   17.9410   74.0480   12.5300 N   0  0  0  0  0  0  0  0  0  0  0  0
   18.0320   73.5020   11.6760 H   0  0  0  0  0  0  0  0  0  0  0  0
   17.0880   73.8250   13.1530 H   0  0  0  0  0  0  0  0  0  0  0  0
   20.5000   76.0100   16.0430 O   0  0  0  0  0  0  0  0  0  0  0  0
   21.1760   76.6780   16.3950 H   0  0  0  0  0  0  0  0  0  0  0  0
  1  9  2  0  0  0  0
  2  3  1  0  0  0  0
  2  1  1  0  0  0  0
  3  8  2  0  0  0  0
  4  3  1  0  0  0  0
  4  5  2  0  0  0  0
  5  6  1  0  0  0  0
  6  7  2  0  0  0  0
  7 34  1  0  0  0  0
  8  9  1  0  0  0  0
  8  7  1  0  0  0  0
 10  2  1  1  0  0  0
 11 10  1  0  0  0  0
 12 15  1  6  0  0  0
 12 11  1  0  0  0  0
 13 18  1  6  0  0  0
 13 12  1  0  0  0  0
 13 14  1  0  0  0  0
 14 20  1  6  0  0  0
 14 10  1  0  0  0  0
 16 15  1  0  0  0  0
 17 16  1  0  0  0  0
 19 18  1  0  0  0  0
 21 20  1  0  0  0  0
 22  1  1  0  0  0  0
 22 23  1  0  0  0  0
 23 24  1  0  0  0  0
 24 25  1  0  0  0  0
 25 27  1  0  0  0  0
 25 26  2  0  0  0  0
 28 26  1  0  0  0  0
 29 28  2  0  0  0  0
 30 24  2  0  0  0  0
 30 29  1  0  0  0  0
 31  5  1  0  0  0  0
 31 33  1  0  0  0  0
 32 31  1  0  0  0  0
 34 35  1  0  0  0  0
M  END
>  <Pose>
1

>  <Score>
-8.653

$$$$
