/Users/jonathanwahrer/Desktop/Msc/3_Semester/Drug_Design_Praktikum/waehrer_HTS_screening/HTS_experiment/out/docking_results/vina_output/6e43/1143_docked.pdbqt
 OpenBabel03212220223D

 33 37  0  0  1  0  0  0  0  0999 V2000
   22.1060   78.9940   14.6350 C   0  0  1  0  0  3  0  0  0  0  0  0
   23.5340   78.7680   14.8100 N   0  0  0  0  0  4  0  0  0  0  0  0
   23.7930   77.3560   15.0320 C   0  0  0  0  0  2  0  0  0  0  0  0
   22.5620   76.5460   15.3440 C   0  0  0  0  0  2  0  0  0  0  0  0
   21.7110   77.3400   16.3000 C   0  0  0  0  0  0  0  0  0  0  0  0
   21.4880   78.6830   15.9120 C   0  0  0  0  0  0  0  0  0  0  0  0
   20.7480   79.4990   16.7220 C   0  0  0  0  0  0  0  0  0  0  0  0
   20.2420   78.9590   17.9020 C   0  0  0  0  0  0  0  0  0  0  0  0
   20.4710   77.6500   18.2560 C   0  0  0  0  0  0  0  0  0  0  0  0
   21.2180   76.8130   17.4490 C   0  0  0  0  0  3  0  0  0  0  0  0
   19.8470   77.4100   19.4630 O   0  0  0  0  0  0  0  0  0  0  0  0
   19.4610   78.6410   20.0240 C   0  0  0  0  0  2  0  0  0  0  0  0
   19.4810   79.5140   18.8940 O   0  0  0  0  0  0  0  0  0  0  0  0
   24.1300   79.5070   15.8700 C   0  0  0  0  0  1  0  0  0  0  0  0
   23.9900   79.0320   13.9120 H   0  0  0  0  0  0  0  0  0  0  0  0
   21.8050   80.2030   13.8800 C   0  0  1  0  0  3  0  0  0  0  0  0
   23.1830   80.7520   13.4500 C   0  0  0  0  0  0  0  0  0  0  0  0
   23.8890   79.8980   12.5640 N   0  0  0  0  0  2  0  0  0  0  0  0
   23.6070   81.8370   13.8550 O   0  0  0  0  0  0  0  0  0  0  0  0
   23.3570   79.1200   11.6940 C   0  0  0  0  0  0  0  0  0  0  0  0
   24.3290   78.0780   10.6170 S   0  0  0  0  0  0  0  0  0  0  0  0
   21.9110   79.1400   11.6530 N   0  0  0  0  0  0  0  0  0  0  0  0
   21.1860   79.9810   12.5380 C   0  0  0  0  0  0  0  0  0  0  0  0
   20.1210   80.4570   12.1390 O   0  0  0  0  0  0  0  0  0  0  0  0
   21.2160   78.3380   10.7430 C   0  0  0  0  0  0  0  0  0  0  0  0
   21.3520   78.6370    9.3820 C   0  0  0  0  0  3  0  0  0  0  0  0
   20.6980   77.8910    8.4250 C   0  0  0  0  0  3  0  0  0  0  0  0
   19.8920   76.8290    8.8240 C   0  0  0  0  0  0  0  0  0  0  0  0
   19.7620   76.5380   10.1880 C   0  0  0  0  0  3  0  0  0  0  0  0
   18.9790   75.7830    7.5460 Br  0  0  0  0  0  0  0  0  0  0  0  0
   20.4230   77.2930   11.1280 C   0  0  0  0  0  3  0  0  0  0  0  0
   20.5050   80.8260   16.3950 O   0  0  0  0  0  0  0  0  0  0  0  0
   20.6870   81.8230   17.3950 C   0  0  0  0  0  1  0  0  0  0  0  0
  1  2  1  0  0  0  0
  1  6  1  1  0  0  0
  2  3  1  0  0  0  0
  2 14  1  0  0  0  0
  3  4  1  0  0  0  0
  4  5  1  0  0  0  0
  5 10  1  0  0  0  0
  6  5  2  0  0  0  0
  6  7  1  0  0  0  0
  7  8  2  0  0  0  0
  8  9  1  0  0  0  0
  8 13  1  0  0  0  0
  9 11  1  0  0  0  0
 10  9  2  0  0  0  0
 11 12  1  0  0  0  0
 13 12  1  0  0  0  0
 15  2  1  0  0  0  0
 16 23  1  6  0  0  0
 16  1  1  0  0  0  0
 17 19  2  0  0  0  0
 17 16  1  0  0  0  0
 18 17  1  0  0  0  0
 20 18  1  0  0  0  0
 21 20  2  0  0  0  0
 22 20  1  0  0  0  0
 22 23  1  0  0  0  0
 24 23  2  0  0  0  0
 25 31  1  0  0  0  0
 25 22  1  0  0  0  0
 26 25  2  0  0  0  0
 27 28  2  0  0  0  0
 27 26  1  0  0  0  0
 28 29  1  0  0  0  0
 29 31  2  0  0  0  0
 30 28  1  0  0  0  0
 32  7  1  0  0  0  0
 32 33  1  0  0  0  0
M  END
>  <Pose>
1

>  <Score>
-4.626

$$$$
