/Users/jonathanwahrer/Desktop/Msc/3_Semester/Drug_Design_Praktikum/waehrer_HTS_screening/HTS_experiment/out/docking_results/vina_output/6e43/1151_docked.pdbqt
 OpenBabel03212220223D

 24 27  0  0  1  0  0  0  0  0999 V2000
   19.2760   83.4280   20.9010 S   0  0  0  0  0  0  0  0  0  0  0  0
   18.0700   84.3210   20.9440 O   0  0  0  0  0  0  0  0  0  0  0  0
   19.9420   83.3250   22.2450 O   0  0  0  0  0  0  0  0  0  0  0  0
   18.8600   81.8050   20.3030 C   0  0  0  0  0  2  0  0  0  0  0  0
   20.1320   81.2470   19.6980 C   0  0  2  0  0  3  0  0  0  0  0  0
   20.4260   81.9740   18.4790 N   0  0  0  0  0  0  0  0  0  0  0  0
   20.1690   83.3960   18.3890 C   0  0  0  0  0  2  0  0  0  0  0  0
   20.4840   84.0630   19.7290 C   0  0  0  0  0  2  0  0  0  0  0  0
   20.9460   81.0000   17.5820 C   0  0  0  0  0  0  0  0  0  0  0  0
   21.5610   81.2400   16.4890 O   0  0  0  0  0  0  0  0  0  0  0  0
   20.6940   79.6870   18.0650 N   0  0  0  0  0  0  0  0  0  0  0  0
   19.9980   79.8440   19.2920 C   0  0  0  0  0  0  0  0  0  0  0  0
   19.3710   78.9510   19.9340 O   0  0  0  0  0  0  0  0  0  0  0  0
   21.0610   78.4200   17.4500 C   0  0  1  0  0  3  0  0  0  0  0  0
   20.4180   78.2660   16.0830 C   0  0  0  0  0  2  0  0  0  0  0  0
   20.8000   76.8670   15.5960 C   0  0  0  0  0  2  0  0  0  0  0  0
   22.2000   76.8940   15.3840 O   0  0  0  0  0  0  0  0  0  0  0  0
   23.0350   77.5950   16.2470 C   0  0  0  0  0  0  0  0  0  0  0  0
   22.5220   78.3490   17.2640 C   0  0  0  0  0  0  0  0  0  0  0  0
   24.4000   77.4910   16.0230 C   0  0  0  0  0  0  0  0  0  0  0  0
   23.3430   79.0390   18.1130 C   0  0  0  0  0  3  0  0  0  0  0  0
   24.7020   78.9610   17.9240 C   0  0  0  0  0  3  0  0  0  0  0  0
   25.2030   78.2000   16.8980 C   0  0  0  0  0  3  0  0  0  0  0  0
   25.1060   76.4400   14.6060 Br  0  0  0  0  0  0  0  0  0  0  0  0
  1  2  2  0  0  0  0
  1  3  2  0  0  0  0
  4  1  1  0  0  0  0
  5  4  1  6  0  0  0
  6  5  1  0  0  0  0
  7  6  1  0  0  0  0
  7  8  1  0  0  0  0
  8  1  1  0  0  0  0
  9 11  1  0  0  0  0
  9  6  1  0  0  0  0
 10  9  2  0  0  0  0
 11 12  1  0  0  0  0
 12  5  1  0  0  0  0
 12 13  2  0  0  0  0
 14 15  1  6  0  0  0
 14 11  1  0  0  0  0
 16 15  1  0  0  0  0
 17 16  1  0  0  0  0
 17 18  1  0  0  0  0
 18 19  1  0  0  0  0
 19 14  1  0  0  0  0
 19 21  2  0  0  0  0
 20 18  2  0  0  0  0
 20 23  1  0  0  0  0
 22 21  1  0  0  0  0
 23 22  2  0  0  0  0
 24 20  1  0  0  0  0
M  END
>  <Pose>
1

>  <Score>
-8.404

$$$$
