/Users/jonathanwahrer/Desktop/Msc/3_Semester/Drug_Design_Praktikum/waehrer_HTS_screening/HTS_experiment/out/docking_results/vina_output/6e43/1161_docked.pdbqt
 OpenBabel03212220223D

 29 32  0  0  0  0  0  0  0  0999 V2000
   19.7410   76.3400   13.6560 N   0  0  0  0  0  0  0  0  0  0  0  0
   20.0830   76.9640   12.5040 C   0  0  0  0  0  0  0  0  0  0  0  0
   21.0170   77.9220   12.7590 C   0  0  0  0  0  0  0  0  0  0  0  0
   21.5260   78.6970   11.7330 C   0  0  0  0  0  3  0  0  0  0  0  0
   21.0760   78.4850   10.4500 C   0  0  0  0  0  3  0  0  0  0  0  0
   20.1370   77.5260   10.1660 C   0  0  0  0  0  3  0  0  0  0  0  0
   19.6500   76.7730   11.2110 C   0  0  0  0  0  3  0  0  0  0  0  0
   21.2480   77.8900   14.0750 N   0  0  0  0  0  0  0  0  0  0  0  0
   20.4620   76.9170   14.6210 C   0  0  0  0  0  0  0  0  0  0  0  0
   18.7780   75.2710   13.7490 C   0  0  0  0  0  2  0  0  0  0  0  0
   19.4260   73.9370   13.7220 C   0  0  0  0  0  0  0  0  0  0  0  0
   20.5460   73.7510   14.2570 O   0  0  0  0  0  0  0  0  0  0  0  0
   18.7950   72.7820   13.0740 C   0  0  0  0  0  0  0  0  0  0  0  0
   17.1750   72.5530   12.5700 S   0  0  0  0  0  0  0  0  0  0  0  0
   17.2910   70.9760   11.9460 C   0  0  0  0  0  0  0  0  0  0  0  0
   18.6080   70.6670   12.1490 C   0  0  0  0  0  3  0  0  0  0  0  0
   15.9080   69.9250   11.1580 Br  0  0  0  0  0  0  0  0  0  0  0  0
   19.3800   71.5900   12.7270 C   0  0  0  0  0  3  0  0  0  0  0  0
   20.4920   76.6950   15.8820 N   0  0  0  0  0  0  0  0  0  0  0  0
   20.9310   77.2440   16.6190 H   0  0  0  0  0  0  0  0  0  0  0  0
   22.1960   78.7480   14.7720 C   0  0  0  0  0  2  0  0  0  0  0  0
   23.5810   78.0890   14.6990 C   0  0  0  0  0  2  0  0  0  0  0  0
   23.8230   77.2230   15.8170 N   0  0  0  0  0  4  0  0  0  0  0  0
   25.2100   76.8320   15.9730 C   0  0  0  0  0  2  0  0  0  0  0  0
   26.1320   78.0180   15.9750 C   0  0  0  0  0  2  0  0  0  0  0  0
   25.6850   79.1140   16.8830 C   0  0  0  0  0  2  0  0  0  0  0  0
   24.2210   79.1970   17.1320 C   0  0  0  0  0  2  0  0  0  0  0  0
   23.4600   77.9240   17.0250 C   0  0  0  0  0  2  0  0  0  0  0  0
   23.2870   76.3350   15.7140 H   0  0  0  0  0  0  0  0  0  0  0  0
  1 10  1  0  0  0  0
  1  9  1  0  0  0  0
  2  3  1  0  0  0  0
  2  1  1  0  0  0  0
  3  8  1  0  0  0  0
  4  3  2  0  0  0  0
  5  4  1  0  0  0  0
  6  5  2  0  0  0  0
  6  7  1  0  0  0  0
  7  2  2  0  0  0  0
  8  9  1  0  0  0  0
  8 21  1  0  0  0  0
  9 19  2  0  0  0  0
 11 10  1  0  0  0  0
 11 12  2  0  0  0  0
 13 11  1  0  0  0  0
 14 13  1  0  0  0  0
 15 16  2  0  0  0  0
 15 14  1  0  0  0  0
 16 18  1  0  0  0  0
 17 15  1  0  0  0  0
 18 13  2  0  0  0  0
 19 20  1  0  0  0  0
 22 21  1  0  0  0  0
 22 23  1  0  0  0  0
 23 24  1  0  0  0  0
 23 28  1  0  0  0  0
 24 25  1  0  0  0  0
 25 26  1  0  0  0  0
 26 27  1  0  0  0  0
 28 27  1  0  0  0  0
 29 23  1  0  0  0  0
M  END
>  <Pose>
1

>  <Score>
-10.295

$$$$
