/Users/jonathanwahrer/Desktop/Msc/3_Semester/Drug_Design_Praktikum/waehrer_HTS_screening/HTS_experiment/out/docking_results/vina_output/6e43/1178_docked.pdbqt
 OpenBabel03212220233D

 33 36  0  0  1  0  0  0  0  0999 V2000
   19.1740   75.5720   10.2940 C   0  0  1  0  0  3  0  0  0  0  0  0
   19.2360   76.6860   11.2920 C   0  0  1  0  0  3  0  0  0  0  0  0
   19.5960   76.0010   12.5050 N   0  0  0  0  0  0  0  0  0  0  0  0
   18.9370   74.7290   12.4320 C   0  0  0  0  0  0  0  0  0  0  0  0
   18.6500   73.9970   13.3960 O   0  0  0  0  0  0  0  0  0  0  0  0
   18.6540   74.4300   11.0350 C   0  0  0  0  0  0  0  0  0  0  0  0
   18.0880   73.4380   10.5000 O   0  0  0  0  0  0  0  0  0  0  0  0
   20.4230   76.5350   13.5460 C   0  0  0  0  0  2  0  0  0  0  0  0
   19.9440   76.3060   14.9180 C   0  0  0  0  0  2  0  0  0  0  0  0
   20.3930   77.1920   15.9610 C   0  0  0  0  0  2  0  0  0  0  0  0
   21.5090   77.1050   16.7770 N   0  0  0  0  0  4  0  0  0  0  0  0
   21.1280   77.3170   18.2230 C   0  0  0  0  0  2  0  0  0  0  0  0
   20.9760   78.7800   18.4780 C   0  0  0  0  0  2  0  0  0  0  0  0
   22.2410   79.3500   18.3880 O   0  0  0  0  0  0  0  0  0  0  0  0
   22.5740   79.3020   17.0150 C   0  0  0  0  0  2  0  0  0  0  0  0
   22.6780   77.8780   16.5420 C   0  0  0  0  0  2  0  0  0  0  0  0
   21.8390   76.1110   16.8230 H   0  0  0  0  0  0  0  0  0  0  0  0
   20.1660   77.7370   10.8510 C   0  0  0  0  0  0  0  0  0  0  0  0
   21.4070   77.5520   10.3070 C   0  0  0  0  0  3  0  0  0  0  0  0
   22.2490   78.5660    9.9110 C   0  0  0  0  0  3  0  0  0  0  0  0
   21.8310   79.8630   10.0650 C   0  0  0  0  0  0  0  0  0  0  0  0
   20.5970   80.1140   10.6050 C   0  0  0  0  0  3  0  0  0  0  0  0
   23.0060   81.2730    9.5100 Br  0  0  0  0  0  0  0  0  0  0  0  0
   19.7800   79.0770   10.9900 C   0  0  0  0  0  3  0  0  0  0  0  0
   19.4850   75.6740    9.0360 C   0  0  1  0  0  3  0  0  0  0  0  0
   20.6550   75.0530    8.5650 O   0  0  0  0  0  1  0  0  0  0  0  0
   18.6240   76.4320    8.1030 C   0  0  0  0  0  0  0  0  0  0  0  0
   18.0410   78.0380    8.2250 S   0  0  0  0  0  0  0  0  0  0  0  0
   17.2110   78.1280    6.7400 C   0  0  0  0  0  0  0  0  0  0  0  0
   17.4200   76.9330    6.2250 N   0  0  0  0  0  0  0  0  0  0  0  0
   16.4280   79.2600    6.1330 C   0  0  0  0  0  1  0  0  0  0  0  0
   18.1220   76.0590    6.8790 C   0  0  0  0  0  0  0  0  0  0  0  0
   18.4220   74.6810    6.2940 C   0  0  0  0  0  1  0  0  0  0  0  0
  1 25  1  6  0  0  0
  1  6  1  0  0  0  0
  1  2  1  0  0  0  0
  2 18  1  6  0  0  0
  2  3  1  0  0  0  0
  3  8  1  0  0  0  0
  4  3  1  0  0  0  0
  4  5  2  0  0  0  0
  6  4  1  0  0  0  0
  7  6  2  0  0  0  0
  8  9  1  0  0  0  0
  9 10  1  0  0  0  0
 10 11  1  0  0  0  0
 11 17  1  0  0  0  0
 11 12  1  0  0  0  0
 12 13  1  0  0  0  0
 14 13  1  0  0  0  0
 15 14  1  0  0  0  0
 16 11  1  0  0  0  0
 16 15  1  0  0  0  0
 18 24  1  0  0  0  0
 19 18  2  0  0  0  0
 20 21  2  0  0  0  0
 20 19  1  0  0  0  0
 21 22  1  0  0  0  0
 22 24  2  0  0  0  0
 23 21  1  0  0  0  0
 25 26  1  6  0  0  0
 27 28  1  0  0  0  0
 27 25  1  0  0  0  0
 29 28  1  0  0  0  0
 30 29  2  0  0  0  0
 30 32  1  0  0  0  0
 31 29  1  0  0  0  0
 32 27  2  0  0  0  0
 33 32  1  0  0  0  0
M  END
>  <Pose>
1

>  <Score>
-8.462

$$$$
