/Users/jonathanwahrer/Desktop/Msc/3_Semester/Drug_Design_Praktikum/waehrer_HTS_screening/HTS_experiment/out/docking_results/vina_output/6e43/1180_docked.pdbqt
 OpenBabel03212220233D

 32 35  0  0  1  0  0  0  0  0999 V2000
   21.9570   78.4870   13.8700 C   0  0  1  0  0  3  0  0  0  0  0  0
   20.9860   78.1590   12.7820 C   0  0  1  0  0  3  0  0  0  0  0  0
   21.6870   78.6240   11.6490 N   0  0  0  0  0  0  0  0  0  0  0  0
   22.1290   79.9670   12.0900 C   0  0  0  0  0  0  0  0  0  0  0  0
   22.3160   80.9810   11.3660 O   0  0  0  0  0  0  0  0  0  0  0  0
   22.3020   79.8680   13.5360 C   0  0  0  0  0  0  0  0  0  0  0  0
   22.6670   80.7430   14.3800 O   0  0  0  0  0  0  0  0  0  0  0  0
   22.3550   77.7460   14.8820 C   0  0  1  0  0  3  0  0  0  0  0  0
   23.1860   76.6610   14.6630 O   0  0  0  0  0  1  0  0  0  0  0  0
   21.8780   78.1310   16.2190 C   0  0  0  0  0  0  0  0  0  0  0  0
   20.3200   77.8980   16.9190 S   0  0  0  0  0  0  0  0  0  0  0  0
   20.6220   78.5580   18.4570 C   0  0  0  0  0  0  0  0  0  0  0  0
   21.8860   78.9210   18.3660 N   0  0  0  0  0  0  0  0  0  0  0  0
   19.6870   78.6980   19.6280 C   0  0  0  0  0  1  0  0  0  0  0  0
   22.5440   78.7230   17.2660 C   0  0  0  0  0  0  0  0  0  0  0  0
   24.0150   79.0940   17.1550 C   0  0  0  0  0  1  0  0  0  0  0  0
   20.2830   76.9260   12.8750 C   0  0  0  0  0  0  0  0  0  0  0  0
   19.6040   76.4470   11.7510 C   0  0  0  0  0  3  0  0  0  0  0  0
   18.8890   75.2780   11.7590 C   0  0  0  0  0  3  0  0  0  0  0  0
   18.8450   74.5540   12.9320 C   0  0  0  0  0  0  0  0  0  0  0  0
   19.5080   75.0110   14.0530 C   0  0  0  0  0  3  0  0  0  0  0  0
   17.8700   72.9120   13.0310 Br  0  0  0  0  0  0  0  0  0  0  0  0
   20.2200   76.1880   14.0200 C   0  0  0  0  0  3  0  0  0  0  0  0
   21.9980   78.2540   10.3100 C   0  0  0  0  0  2  0  0  0  0  0  0
   21.2840   78.8730    9.1860 C   0  0  0  0  0  2  0  0  0  0  0  0
   20.4280   78.1410    8.3440 N   0  0  0  0  0  4  0  0  0  0  0  0
   20.3510   76.7260    8.6410 C   0  0  0  0  0  2  0  0  0  0  0  0
   19.4960   76.1060    7.5410 C   0  0  0  0  0  2  0  0  0  0  0  0
   18.7780   77.0860    6.8550 O   0  0  0  0  0  0  0  0  0  0  0  0
   18.0980   77.8190    7.8480 C   0  0  0  0  0  2  0  0  0  0  0  0
   19.0500   78.6250    8.6840 C   0  0  0  0  0  2  0  0  0  0  0  0
   20.5660   78.3730    7.3550 H   0  0  0  0  0  0  0  0  0  0  0  0
  1  8  1  1  0  0  0
  2 17  1  6  0  0  0
  2  1  1  0  0  0  0
  3  4  1  0  0  0  0
  3  2  1  0  0  0  0
  4  6  1  0  0  0  0
  5  4  2  0  0  0  0
  6  1  1  0  0  0  0
  6  7  2  0  0  0  0
  8  9  1  1  0  0  0
  8 10  1  0  0  0  0
 10 11  1  0  0  0  0
 10 15  2  0  0  0  0
 11 12  1  0  0  0  0
 12 14  1  0  0  0  0
 13 12  2  0  0  0  0
 15 13  1  0  0  0  0
 16 15  1  0  0  0  0
 17 23  1  0  0  0  0
 18 19  1  0  0  0  0
 18 17  2  0  0  0  0
 19 20  2  0  0  0  0
 20 22  1  0  0  0  0
 20 21  1  0  0  0  0
 23 21  2  0  0  0  0
 24  3  1  0  0  0  0
 25 24  1  0  0  0  0
 26 27  1  0  0  0  0
 26 31  1  0  0  0  0
 26 25  1  0  0  0  0
 28 27  1  0  0  0  0
 29 28  1  0  0  0  0
 29 30  1  0  0  0  0
 30 31  1  0  0  0  0
 32 26  1  0  0  0  0
M  END
>  <Pose>
1

>  <Score>
-9.967

$$$$
