/Users/jonathanwahrer/Desktop/Msc/3_Semester/Drug_Design_Praktikum/waehrer_HTS_screening/HTS_experiment/out/docking_results/vina_output/6e43/1192_docked.pdbqt
 OpenBabel03212220243D

 27 30  0  0  1  0  0  0  0  0999 V2000
   21.2790   81.3960   17.0660 S   0  0  0  0  0  0  0  0  0  0  0  0
   22.3170   80.4150   16.1130 C   0  0  0  0  0  0  0  0  0  0  0  0
   22.3390   79.2390   16.8130 C   0  0  0  0  0  0  0  0  0  0  0  0
   21.6150   79.1760   17.9410 C   0  0  0  0  0  0  0  0  0  0  0  0
   20.9110   80.2930   18.3030 C   0  0  0  0  0  0  0  0  0  0  0  0
   20.1080   80.2020   19.5680 C   0  0  0  0  0  2  0  0  0  0  0  0
   19.2260   79.0420   19.4560 N   0  0  0  0  0  4  0  0  0  0  0  0
   19.9200   77.8320   19.1390 C   0  0  0  0  0  2  0  0  0  0  0  0
   21.4170   78.0460   18.9400 C   0  0  0  0  0  2  0  0  0  0  0  0
   18.3260   79.3370   18.3410 C   0  0  0  0  0  1  0  0  0  0  0  0
   23.1870   78.1780   16.2020 C   0  0  0  0  0  0  0  0  0  0  0  0
   23.2940   77.0410   16.7490 O   0  0  0  0  0  0  0  0  0  0  0  0
   23.8750   78.4650   14.9940 N   0  0  0  0  0  0  0  0  0  0  0  0
   23.5040   79.4980   14.0720 C   0  0  2  0  0  3  0  0  0  0  0  0
   23.0520   80.6190   14.8810 N   0  0  0  0  0  0  0  0  0  0  0  0
   18.6190   78.9720   20.2970 H   0  0  0  0  0  0  0  0  0  0  0  0
   24.7190   77.8640   14.7760 H   0  0  0  0  0  0  0  0  0  0  0  0
   23.2350   81.6070   14.6130 H   0  0  0  0  0  0  0  0  0  0  0  0
   22.4170   79.0830   13.1520 C   0  0  0  0  0  0  0  0  0  0  0  0
   21.6600   77.9530   13.3800 C   0  0  0  0  0  3  0  0  0  0  0  0
   20.6470   77.5530   12.5380 C   0  0  0  0  0  0  0  0  0  0  0  0
   20.3590   78.2970   11.4120 C   0  0  0  0  0  0  0  0  0  0  0  0
   19.6130   75.9980   12.8640 Br  0  0  0  0  0  0  0  0  0  0  0  0
   21.1000   79.4270   11.1630 C   0  0  0  0  0  0  0  0  0  0  0  0
   19.3390   77.8990   10.5590 O   0  0  0  0  0  1  0  0  0  0  0  0
   22.1150   79.8220   12.0140 C   0  0  0  0  0  3  0  0  0  0  0  0
   20.6650   80.4320    9.5850 Br  0  0  0  0  0  0  0  0  0  0  0  0
  1  5  1  0  0  0  0
  2  3  2  0  0  0  0
  2  1  1  0  0  0  0
  3  4  1  0  0  0  0
  4  5  2  0  0  0  0
  4  9  1  0  0  0  0
  5  6  1  0  0  0  0
  7  6  1  0  0  0  0
  7 16  1  0  0  0  0
  8  7  1  0  0  0  0
  9  8  1  0  0  0  0
 10  7  1  0  0  0  0
 11 12  2  0  0  0  0
 11  3  1  0  0  0  0
 13 11  1  0  0  0  0
 14 19  1  6  0  0  0
 14 15  1  0  0  0  0
 14 13  1  0  0  0  0
 15  2  1  0  0  0  0
 17 13  1  0  0  0  0
 18 15  1  0  0  0  0
 19 20  1  0  0  0  0
 21 23  1  0  0  0  0
 21 20  2  0  0  0  0
 22 21  1  0  0  0  0
 24 22  2  0  0  0  0
 24 26  1  0  0  0  0
 25 22  1  0  0  0  0
 26 19  2  0  0  0  0
 27 24  1  0  0  0  0
M  END
>  <Pose>
1

>  <Score>
-7.854

$$$$
