/Users/jonathanwahrer/Desktop/Msc/3_Semester/Drug_Design_Praktikum/waehrer_HTS_screening/HTS_experiment/out/docking_results/vina_output/6e43/1206_docked.pdbqt
 OpenBabel03212220243D

 25 28  0  0  1  0  0  0  0  0999 V2000
   24.1640   77.2740   15.4220 S   0  0  0  0  0  0  0  0  0  0  0  0
   24.8500   77.8580   16.9940 C   0  0  2  0  0  3  0  0  0  0  0  0
   23.5800   78.3200   17.6560 C   0  0  0  0  0  2  0  0  0  0  0  0
   22.6380   78.8420   16.7130 N   0  0  0  0  0  0  0  0  0  0  0  0
   22.7930   78.4230   15.4460 C   0  0  2  0  0  3  0  0  0  0  0  0
   21.8680   79.0050   14.6730 N   0  0  0  0  0  0  0  0  0  0  0  0
   21.1040   79.8080   15.4460 C   0  0  0  0  0  3  0  0  0  0  0  0
   21.5750   79.7160   16.7340 C   0  0  0  0  0  0  0  0  0  0  0  0
   25.7330   79.0660   16.7940 C   0  0  0  0  0  1  0  0  0  0  0  0
   21.0230   80.4370   17.8570 C   0  0  0  0  0  0  0  0  0  0  0  0
   20.7950   81.8160   17.7030 C   0  0  0  0  0  3  0  0  0  0  0  0
   20.2360   82.5540   18.7140 C   0  0  0  0  0  3  0  0  0  0  0  0
   19.8690   82.0110   19.9200 C   0  0  0  0  0  0  0  0  0  0  0  0
   20.0820   80.6630   20.0960 C   0  0  0  0  0  3  0  0  0  0  0  0
   20.6510   79.9080   19.0640 C   0  0  0  0  0  3  0  0  0  0  0  0
   19.2990   82.8400   20.9140 N   0  0  0  0  0  0  0  0  0  0  0  0
   18.2960   83.5210   20.6710 O   0  0  0  0  0  0  0  0  0  0  0  0
   19.8670   82.8860   22.1500 O   0  0  0  0  0  0  0  0  0  0  0  0
   21.6980   78.8240   13.2720 C   0  0  0  0  0  0  0  0  0  0  0  0
   20.7330   77.9890   12.7570 C   0  0  0  0  0  3  0  0  0  0  0  0
   20.5470   77.7970   11.4040 C   0  0  0  0  0  3  0  0  0  0  0  0
   21.3540   78.4600   10.5070 C   0  0  0  0  0  0  0  0  0  0  0  0
   22.3360   79.3080   10.9890 C   0  0  0  0  0  3  0  0  0  0  0  0
   21.1260   78.2170    8.6230 Br  0  0  0  0  0  0  0  0  0  0  0  0
   22.5010   79.4840   12.3470 C   0  0  0  0  0  3  0  0  0  0  0  0
  1  2  1  0  0  0  0
  2  9  1  6  0  0  0
  2  3  1  0  0  0  0
  4  8  1  0  0  0  0
  4  3  1  0  0  0  0
  5  1  1  1  0  0  0
  5  4  1  0  0  0  0
  6  7  1  0  0  0  0
  6  5  1  0  0  0  0
  7  8  2  0  0  0  0
  8 10  1  0  0  0  0
 10 15  1  0  0  0  0
 11 10  2  0  0  0  0
 11 12  1  0  0  0  0
 12 13  2  0  0  0  0
 13 14  1  0  0  0  0
 13 16  1  0  0  0  0
 15 14  2  0  0  0  0
 16 18  2  0  0  0  0
 17 16  2  0  0  0  0
 19  6  1  0  0  0  0
 20 19  1  0  0  0  0
 21 20  2  0  0  0  0
 22 23  2  0  0  0  0
 22 21  1  0  0  0  0
 23 25  1  0  0  0  0
 24 22  1  0  0  0  0
 25 19  2  0  0  0  0
M  END
>  <Pose>
1

>  <Score>
-8.803

$$$$
