/Users/jonathanwahrer/Desktop/Msc/3_Semester/Drug_Design_Praktikum/waehrer_HTS_screening/HTS_experiment/out/docking_results/vina_output/6e43/1209_docked.pdbqt
 OpenBabel03212220243D

 24 27  0  0  1  0  0  0  0  0999 V2000
   21.7590   79.8370   16.2660 S   0  0  0  0  0  0  0  0  0  0  0  0
   20.8370   80.6670   17.5910 C   0  0  0  0  0  2  0  0  0  0  0  0
   19.8000   79.6820   18.1000 C   0  0  0  0  0  2  0  0  0  0  0  0
   20.4220   78.3130   18.2780 C   0  0  0  0  0  2  0  0  0  0  0  0
   20.3610   77.6560   16.9830 N   0  0  0  0  0  0  0  0  0  0  0  0
   20.9530   78.2750   15.9590 C   0  0  1  0  0  3  0  0  0  0  0  0
   20.7900   77.5080   14.8240 N   0  0  0  0  0  0  0  0  0  0  0  0
   20.1040   76.4210   15.1390 C   0  0  0  0  0  0  0  0  0  0  0  0
   19.8420   76.5320   16.5020 C   0  0  0  0  0  3  0  0  0  0  0  0
   19.6670   75.2990   14.3230 C   0  0  0  0  0  0  0  0  0  0  0  0
   20.3880   74.0970   14.3690 C   0  0  0  0  0  3  0  0  0  0  0  0
   20.0250   73.0090   13.6240 C   0  0  0  0  0  3  0  0  0  0  0  0
   18.9370   73.0090   12.7830 C   0  0  0  0  0  0  0  0  0  0  0  0
   18.2260   74.1800   12.7310 C   0  0  0  0  0  3  0  0  0  0  0  0
   18.5800   75.3080   13.4850 C   0  0  0  0  0  3  0  0  0  0  0  0
   18.6000   71.8840   12.0430 O   0  0  0  0  0  0  0  0  0  0  0  0
   17.3810   71.2070   12.2870 C   0  0  0  0  0  1  0  0  0  0  0  0
   21.3170   77.9090   13.5620 C   0  0  0  0  0  0  0  0  0  0  0  0
   20.5110   77.9520   12.4380 C   0  0  0  0  0  3  0  0  0  0  0  0
   20.9830   78.3650   11.2080 C   0  0  0  0  0  3  0  0  0  0  0  0
   22.3070   78.7430   11.1150 C   0  0  0  0  0  0  0  0  0  0  0  0
   23.1040   78.6960   12.2400 C   0  0  0  0  0  3  0  0  0  0  0  0
   23.0550   79.3310    9.4460 Br  0  0  0  0  0  0  0  0  0  0  0  0
   22.6530   78.2880   13.4770 C   0  0  0  0  0  3  0  0  0  0  0  0
  1  2  1  0  0  0  0
  2  3  1  0  0  0  0
  3  4  1  0  0  0  0
  5  4  1  0  0  0  0
  6  1  1  6  0  0  0
  6  5  1  0  0  0  0
  7  8  1  0  0  0  0
  7  6  1  0  0  0  0
  8  9  2  0  0  0  0
  9  5  1  0  0  0  0
 10 11  1  0  0  0  0
 10  8  1  0  0  0  0
 12 11  2  0  0  0  0
 13 12  1  0  0  0  0
 14 13  2  0  0  0  0
 14 15  1  0  0  0  0
 15 10  2  0  0  0  0
 16 17  1  0  0  0  0
 16 13  1  0  0  0  0
 18  7  1  0  0  0  0
 19 18  2  0  0  0  0
 20 19  1  0  0  0  0
 21 20  2  0  0  0  0
 21 22  1  0  0  0  0
 22 24  2  0  0  0  0
 23 21  1  0  0  0  0
 24 18  1  0  0  0  0
M  END
>  <Pose>
1

>  <Score>
-8.779

$$$$
