/Users/jonathanwahrer/Desktop/Msc/3_Semester/Drug_Design_Praktikum/waehrer_HTS_screening/HTS_experiment/out/docking_results/vina_output/6e43/1220_docked.pdbqt
 OpenBabel03212220253D

 27 30  0  0  1  0  0  0  0  0999 V2000
   23.8500   79.0670   17.3990 S   0  0  0  0  0  0  0  0  0  0  0  0
   24.8130   79.2750   15.8470 C   0  0  0  0  0  2  0  0  0  0  0  0
   24.3130   78.4580   14.7320 C   0  0  0  0  0  2  0  0  0  0  0  0
   23.3100   77.4090   14.9900 C   0  0  0  0  0  2  0  0  0  0  0  0
   22.1750   77.7410   15.7490 N   0  0  1  0  0  0  0  0  0  0  0  0
   20.8270   77.2620   15.7930 C   0  0  2  0  0  0  0  0  0  0  0  0
   20.0880   78.5360   16.1370 C   0  0  0  0  0  2  0  0  0  0  0  0
   21.0370   79.2020   17.0030 N   0  0  0  0  0  0  0  0  0  0  0  0
   22.1850   78.7660   16.7770 C   0  0  1  0  0  3  0  0  0  0  0  0
   20.6780   76.4110   16.8910 O   0  0  0  0  0  0  0  0  0  0  0  0
   21.1630   76.7810   17.6460 H   0  0  0  0  0  0  0  0  0  0  0  0
   20.3130   76.6470   14.5540 C   0  0  0  0  0  0  0  0  0  0  0  0
   19.7110   75.3970   14.6670 C   0  0  0  0  0  3  0  0  0  0  0  0
   19.1980   74.7440   13.5690 C   0  0  0  0  0  3  0  0  0  0  0  0
   19.2540   75.2960   12.3010 C   0  0  0  0  0  0  0  0  0  0  0  0
   19.8490   76.5380   12.1840 C   0  0  0  0  0  3  0  0  0  0  0  0
   20.3700   77.1990   13.3010 C   0  0  0  0  0  3  0  0  0  0  0  0
   18.7170   74.6050   11.1890 N   0  0  0  0  0  0  0  0  0  0  0  0
   18.8840   74.9620   10.0170 O   0  0  0  0  0  0  0  0  0  0  0  0
   17.9730   73.4740   11.4060 O   0  0  0  0  0  0  0  0  0  0  0  0
   20.7010   80.1960   17.9790 C   0  0  0  0  0  0  0  0  0  0  0  0
   20.3140   79.7760   19.2430 C   0  0  0  0  0  3  0  0  0  0  0  0
   19.9520   80.6830   20.2360 C   0  0  0  0  0  3  0  0  0  0  0  0
   19.9680   82.0380   19.9870 C   0  0  0  0  0  0  0  0  0  0  0  0
   20.3490   82.4690   18.7400 C   0  0  0  0  0  3  0  0  0  0  0  0
   19.4510   83.2850   21.3580 Br  0  0  0  0  0  0  0  0  0  0  0  0
   20.7050   81.5330   17.7610 C   0  0  0  0  0  3  0  0  0  0  0  0
  2  1  1  0  0  0  0
  3  4  1  0  0  0  0
  3  2  1  0  0  0  0
  5  4  1  1  0  0  0
  5  6  1  0  0  0  0
  5  9  1  0  0  0  0
  6  7  1  0  0  0  0
  6 10  1  1  0  0  0
  7  8  1  0  0  0  0
  8 21  1  0  0  0  0
  9  8  1  0  0  0  0
  9  1  1  1  0  0  0
 10 11  1  0  0  0  0
 12 13  1  0  0  0  0
 12  6  1  0  0  0  0
 14 13  2  0  0  0  0
 15 14  1  0  0  0  0
 16 15  2  0  0  0  0
 16 17  1  0  0  0  0
 17 12  2  0  0  0  0
 18 20  2  0  0  0  0
 18 15  1  0  0  0  0
 19 18  2  0  0  0  0
 21 22  1  0  0  0  0
 22 23  2  0  0  0  0
 24 23  1  0  0  0  0
 24 26  1  0  0  0  0
 25 24  2  0  0  0  0
 27 21  2  0  0  0  0
 27 25  1  0  0  0  0
M  END
>  <Pose>
1

>  <Score>
-9.091

$$$$
