/Users/jonathanwahrer/Desktop/Msc/3_Semester/Drug_Design_Praktikum/waehrer_HTS_screening/HTS_experiment/out/docking_results/vina_output/6e43/1222_docked.pdbqt
 OpenBabel03212220253D

 24 27  0  0  1  0  0  0  0  0999 V2000
   20.8630   76.4100   14.6240 S   0  0  0  0  0  0  0  0  0  0  0  0
   19.2020   76.1630   15.3960 C   0  0  0  0  0  2  0  0  0  0  0  0
   19.0640   77.0240   16.6240 C   0  0  0  0  0  2  0  0  0  0  0  0
   20.3770   77.3180   17.3170 C   0  0  0  0  0  2  0  0  0  0  0  0
   21.2120   78.2150   16.6200 N   0  0  1  0  0  0  0  0  0  0  0  0
   22.1520   79.3230   16.8640 C   0  0  1  0  0  0  0  0  0  0  0  0
   21.7990   80.1620   15.6590 C   0  0  0  0  0  2  0  0  0  0  0  0
   21.6870   79.1440   14.6240 N   0  0  0  0  0  0  0  0  0  0  0  0
   21.2800   78.0980   15.1710 C   0  0  1  0  0  3  0  0  0  0  0  0
   21.8930   80.0030   18.0150 O   0  0  0  0  0  0  0  0  0  0  0  0
   22.6210   80.0210   18.6840 H   0  0  0  0  0  0  0  0  0  0  0  0
   23.5710   78.8490   16.7460 C   0  0  0  0  0  0  0  0  0  0  0  0
   23.9390   77.5310   16.9360 C   0  0  0  0  0  3  0  0  0  0  0  0
   25.2750   77.1750   16.8000 C   0  0  0  0  0  3  0  0  0  0  0  0
   26.2680   78.0910   16.4780 C   0  0  0  0  0  3  0  0  0  0  0  0
   25.9100   79.3980   16.2880 C   0  0  0  0  0  3  0  0  0  0  0  0
   24.5710   79.7590   16.4260 C   0  0  0  0  0  3  0  0  0  0  0  0
   22.0520   79.3170   13.2380 C   0  0  0  0  0  0  0  0  0  0  0  0
   21.2310   79.7900   12.2640 C   0  0  0  0  0  3  0  0  0  0  0  0
   21.6080   79.8970   10.9310 C   0  0  0  0  0  3  0  0  0  0  0  0
   22.8670   79.5120   10.5520 C   0  0  0  0  0  0  0  0  0  0  0  0
   23.7060   79.0320   11.5400 C   0  0  0  0  0  3  0  0  0  0  0  0
   23.4750   79.6200    8.7350 Br  0  0  0  0  0  0  0  0  0  0  0  0
   23.3320   78.9270   12.8510 C   0  0  0  0  0  3  0  0  0  0  0  0
  1  2  1  0  0  0  0
  2  3  1  0  0  0  0
  3  4  1  0  0  0  0
  5  6  1  0  0  0  0
  5  4  1  1  0  0  0
  6 10  1  1  0  0  0
  7  6  1  0  0  0  0
  8  9  1  0  0  0  0
  8  7  1  0  0  0  0
  9  1  1  1  0  0  0
  9  5  1  0  0  0  0
 10 11  1  0  0  0  0
 12  6  1  0  0  0  0
 12 13  1  0  0  0  0
 14 13  2  0  0  0  0
 15 14  1  0  0  0  0
 16 17  1  0  0  0  0
 16 15  2  0  0  0  0
 17 12  2  0  0  0  0
 18  8  1  0  0  0  0
 19 18  2  0  0  0  0
 20 19  1  0  0  0  0
 21 20  2  0  0  0  0
 21 22  1  0  0  0  0
 22 24  2  0  0  0  0
 23 21  1  0  0  0  0
 24 18  1  0  0  0  0
M  END
>  <Pose>
1

>  <Score>
-8.053

$$$$
