/Users/jonathanwahrer/Desktop/Msc/3_Semester/Drug_Design_Praktikum/waehrer_HTS_screening/HTS_experiment/out/docking_results/vina_output/6e43/1224_docked.pdbqt
 OpenBabel03212220253D

 26 29  0  0  1  0  0  0  0  0999 V2000
   23.5040   77.5880   17.2340 S   0  0  0  0  0  0  0  0  0  0  0  0
   25.2810   77.4430   16.7780 C   0  0  0  0  0  2  0  0  0  0  0  0
   25.2850   76.9390   15.3430 C   0  0  0  0  0  2  0  0  0  0  0  0
   24.7920   77.9750   14.3830 C   0  0  0  0  0  2  0  0  0  0  0  0
   23.4250   78.3570   14.5610 N   0  0  2  0  0  0  0  0  0  0  0  0
   22.2940   78.6530   13.6760 C   0  0  1  0  0  0  0  0  0  0  0  0
   21.7610   79.8680   14.4580 C   0  0  0  0  0  2  0  0  0  0  0  0
   21.8710   79.3990   15.8270 N   0  0  0  0  0  0  0  0  0  0  0  0
   22.8210   78.5550   15.8680 C   0  0  1  0  0  3  0  0  0  0  0  0
   22.7570   79.0230   12.4350 O   0  0  0  0  0  0  0  0  0  0  0  0
   23.3740   79.7930   12.4660 H   0  0  0  0  0  0  0  0  0  0  0  0
   21.2820   77.5830   13.6630 C   0  0  0  0  0  0  0  0  0  0  0  0
   20.9450   76.7840   14.7340 C   0  0  0  0  0  3  0  0  0  0  0  0
   19.9680   75.8090   14.6200 C   0  0  0  0  0  3  0  0  0  0  0  0
   19.3170   75.6220   13.4350 C   0  0  0  0  0  0  0  0  0  0  0  0
   19.6420   76.4120   12.3540 C   0  0  0  0  0  3  0  0  0  0  0  0
   17.9540   74.2860   13.2110 Br  0  0  0  0  0  0  0  0  0  0  0  0
   20.6110   77.3750   12.4800 C   0  0  0  0  0  3  0  0  0  0  0  0
   21.0030   79.8690   16.8840 C   0  0  0  0  0  0  0  0  0  0  0  0
   21.1250   81.1750   17.3490 C   0  0  0  0  0  3  0  0  0  0  0  0
   20.3160   81.6520   18.3570 C   0  0  0  0  0  3  0  0  0  0  0  0
   19.3490   80.8760   18.9600 C   0  0  0  0  0  0  0  0  0  0  0  0
   19.2230   79.5850   18.5070 C   0  0  0  0  0  3  0  0  0  0  0  0
   20.0500   79.1030   17.4800 C   0  0  0  0  0  3  0  0  0  0  0  0
   18.5490   81.3930   19.9730 O   0  0  0  0  0  0  0  0  0  0  0  0
   18.8340   82.5320   20.7340 C   0  0  0  0  0  1  0  0  0  0  0  0
  2  1  1  0  0  0  0
  3  2  1  0  0  0  0
  4  3  1  0  0  0  0
  5  4  1  6  0  0  0
  5  9  1  0  0  0  0
  6 10  1  6  0  0  0
  6  7  1  0  0  0  0
  6  5  1  0  0  0  0
  7  8  1  0  0  0  0
  8  9  1  0  0  0  0
  8 19  1  0  0  0  0
  9  1  1  6  0  0  0
 10 11  1  0  0  0  0
 12  6  1  0  0  0  0
 12 13  1  0  0  0  0
 14 13  2  0  0  0  0
 15 14  1  0  0  0  0
 16 18  1  0  0  0  0
 16 15  2  0  0  0  0
 17 15  1  0  0  0  0
 18 12  2  0  0  0  0
 19 20  2  0  0  0  0
 19 24  1  0  0  0  0
 20 21  1  0  0  0  0
 21 22  2  0  0  0  0
 22 25  1  0  0  0  0
 23 22  1  0  0  0  0
 24 23  2  0  0  0  0
 25 26  1  0  0  0  0
M  END
>  <Pose>
1

>  <Score>
-8.531

$$$$
