/Users/jonathanwahrer/Desktop/Msc/3_Semester/Drug_Design_Praktikum/waehrer_HTS_screening/HTS_experiment/out/docking_results/vina_output/6e43/1226_docked.pdbqt
 OpenBabel03212220253D

 24 27  0  0  1  0  0  0  0  0999 V2000
   21.5880   77.6110   14.5620 S   0  0  0  0  0  0  0  0  0  0  0  0
   20.0830   76.6730   14.1780 C   0  0  0  0  0  2  0  0  0  0  0  0
   19.6330   76.0330   15.4960 C   0  0  0  0  0  2  0  0  0  0  0  0
   19.2270   77.1650   16.4540 C   0  0  0  0  0  2  0  0  0  0  0  0
   20.4480   77.6590   17.1020 N   0  0  1  0  0  0  0  0  0  0  0  0
   20.7570   78.0260   18.4240 C   0  0  2  0  0  0  0  0  0  0  0  0
   22.2800   78.0970   18.4610 C   0  0  0  0  0  2  0  0  0  0  0  0
   22.6700   78.0060   17.0880 N   0  0  0  0  0  0  0  0  0  0  0  0
   21.6500   77.7990   16.3590 C   0  0  1  0  0  3  0  0  0  0  0  0
   20.4090   76.9700   19.2950 O   0  0  0  0  0  0  0  0  0  0  0  0
   20.6200   77.2880   20.2120 H   0  0  0  0  0  0  0  0  0  0  0  0
   20.2130   79.2700   18.9640 C   0  0  0  0  0  0  0  0  0  0  0  0
   20.7120   80.4510   18.4160 C   0  0  0  0  0  3  0  0  0  0  0  0
   20.2820   81.7110   18.7890 C   0  0  0  0  0  3  0  0  0  0  0  0
   19.3160   81.8430   19.7490 C   0  0  0  0  0  0  0  0  0  0  0  0
   18.8080   80.6830   20.3050 C   0  0  0  0  0  3  0  0  0  0  0  0
   18.6630   83.5710   20.3070 Br  0  0  0  0  0  0  0  0  0  0  0  0
   19.2490   79.4210   19.9190 C   0  0  0  0  0  3  0  0  0  0  0  0
   24.0440   78.0950   16.6750 C   0  0  0  0  0  0  0  0  0  0  0  0
   24.7620   79.1980   17.0070 C   0  0  0  0  0  3  0  0  0  0  0  0
   26.0990   79.2450   16.6220 C   0  0  0  0  0  3  0  0  0  0  0  0
   26.7120   78.2280   15.9260 C   0  0  0  0  0  3  0  0  0  0  0  0
   25.9400   77.1290   15.6100 C   0  0  0  0  0  3  0  0  0  0  0  0
   24.6180   77.0490   15.9740 C   0  0  0  0  0  3  0  0  0  0  0  0
  2  1  1  0  0  0  0
  2  3  1  0  0  0  0
  3  4  1  0  0  0  0
  5  4  1  1  0  0  0
  5  6  1  0  0  0  0
  6  7  1  0  0  0  0
  6 12  1  0  0  0  0
  6 10  1  1  0  0  0
  8  7  1  0  0  0  0
  9  1  1  1  0  0  0
  9  8  1  0  0  0  0
  9  5  1  0  0  0  0
 10 11  1  0  0  0  0
 12 18  1  0  0  0  0
 13 14  1  0  0  0  0
 13 12  2  0  0  0  0
 14 15  2  0  0  0  0
 15 16  1  0  0  0  0
 15 17  1  0  0  0  0
 18 16  2  0  0  0  0
 19 20  1  0  0  0  0
 19  8  1  0  0  0  0
 21 20  2  0  0  0  0
 22 21  1  0  0  0  0
 23 22  2  0  0  0  0
 23 24  1  0  0  0  0
 24 19  2  0  0  0  0
M  END
>  <Pose>
1

>  <Score>
-9.362

$$$$
