/Users/jonathanwahrer/Desktop/Msc/3_Semester/Drug_Design_Praktikum/waehrer_HTS_screening/HTS_experiment/out/docking_results/vina_output/6e43/1248_docked.pdbqt
 OpenBabel03212220263D

 21 24  0  0  0  0  0  0  0  0999 V2000
   19.1570   79.9540   19.5650 S   0  0  0  0  0  0  0  0  0  0  0  0
   19.9690   78.5490   19.0010 C   0  0  0  0  0  0  0  0  0  0  0  0
   21.0270   79.0870   18.3960 N   0  0  0  0  0  0  0  0  0  0  0  0
   21.7250   78.0020   17.9180 C   0  0  0  0  0  0  0  0  0  0  0  0
   21.0820   76.8820   18.2420 N   0  0  0  0  0  0  0  0  0  0  0  0
   19.9890   77.1800   18.9140 N   0  0  0  0  0  0  0  0  0  0  0  0
   21.1580   80.3520   18.3870 N   0  0  0  0  0  0  0  0  0  0  0  0
   20.2650   81.1310   18.9650 C   0  0  0  0  0  0  0  0  0  0  0  0
   20.2150   82.5930   19.0750 C   0  0  0  0  0  0  0  0  0  0  0  0
   20.0180   83.4650   18.0790 N   0  0  0  0  0  0  0  0  0  0  0  0
   20.0380   84.7130   18.5740 N   0  0  0  0  0  0  0  0  0  0  0  0
   20.2480   84.6480   19.9040 C   0  0  0  0  0  3  0  0  0  0  0  0
   19.9090   85.5800   18.0040 H   0  0  0  0  0  0  0  0  0  0  0  0
   20.3610   83.2920   20.2220 C   0  0  0  0  0  0  0  0  0  0  0  0
   20.6640   82.6460   21.9680 Br  0  0  0  0  0  0  0  0  0  0  0  0
   22.9920   78.0500   17.1600 C   0  0  0  0  0  0  0  0  0  0  0  0
   23.2500   77.1640   16.1790 N   0  0  0  0  0  0  0  0  0  0  0  0
   24.4140   77.2180   15.4940 C   0  0  0  0  0  3  0  0  0  0  0  0
   25.3460   78.1750   15.7870 C   0  0  0  0  0  3  0  0  0  0  0  0
   25.0760   79.0460   16.7600 N   0  0  0  0  0  0  0  0  0  0  0  0
   23.9220   79.0150   17.4620 C   0  0  0  0  0  3  0  0  0  0  0  0
  2  1  1  0  0  0  0
  3  2  1  0  0  0  0
  4  5  2  0  0  0  0
  4  3  1  0  0  0  0
  5  6  1  0  0  0  0
  6  2  2  0  0  0  0
  7  3  1  0  0  0  0
  7  8  2  0  0  0  0
  8  9  1  0  0  0  0
  8  1  1  0  0  0  0
  9 14  1  0  0  0  0
 10 11  1  0  0  0  0
 10  9  2  0  0  0  0
 11 12  1  0  0  0  0
 12 14  2  0  0  0  0
 13 11  1  0  0  0  0
 14 15  1  0  0  0  0
 16 21  1  0  0  0  0
 16  4  1  0  0  0  0
 17 16  2  0  0  0  0
 18 19  2  0  0  0  0
 18 17  1  0  0  0  0
 19 20  1  0  0  0  0
 20 21  2  0  0  0  0
M  END
>  <Pose>
1

>  <Score>
-8.917

$$$$
