/Users/jonathanwahrer/Desktop/Msc/3_Semester/Drug_Design_Praktikum/waehrer_HTS_screening/HTS_experiment/out/docking_results/vina_output/6e43/1265_docked.pdbqt
 OpenBabel03212220273D

 24 27  0  0  1  0  0  0  0  0999 V2000
   20.4030   76.7920   14.3410 S   0  0  0  0  0  0  0  0  0  0  0  0
   20.0830   77.0440   12.6000 C   0  0  1  0  0  3  0  0  0  0  0  0
   20.2360   77.9020   11.6440 N   0  0  0  0  0  0  0  0  0  0  0  0
   19.7110   77.4210   10.4210 C   0  0  0  0  0  3  0  0  0  0  0  0
   19.1780   76.0640   10.7470 C   0  0  0  0  0  3  0  0  0  0  0  0
   19.4500   75.8570   12.1890 N   0  0  0  0  0  0  0  0  0  0  0  0
   19.2600   74.8810   13.1740 C   0  0  0  0  0  0  0  0  0  0  0  0
   19.6840   75.1570   14.3870 C   0  0  0  0  0  3  0  0  0  0  0  0
   20.8980   79.1980   11.8750 C   0  0  0  0  0  2  0  0  0  0  0  0
   22.3520   78.9420   11.8870 C   0  0  0  0  0  0  0  0  0  0  0  0
   22.9730   78.6730   10.8380 O   0  0  0  0  0  0  0  0  0  0  0  0
   23.0930   78.9990   13.1380 C   0  0  0  0  0  0  0  0  0  0  0  0
   23.9660   77.9730   13.5050 C   0  0  0  0  0  3  0  0  0  0  0  0
   24.6760   77.9980   14.6910 C   0  0  0  0  0  3  0  0  0  0  0  0
   24.4970   79.0770   15.5150 C   0  0  0  0  0  0  0  0  0  0  0  0
   23.6460   80.1190   15.1970 C   0  0  0  0  0  3  0  0  0  0  0  0
   25.4870   79.1020   17.1570 Br  0  0  0  0  0  0  0  0  0  0  0  0
   22.9400   80.0710   13.9930 C   0  0  0  0  0  3  0  0  0  0  0  0
   18.6210   73.5460   12.9330 C   0  0  0  0  0  0  0  0  0  0  0  0
   19.3730   72.3980   12.8210 C   0  0  0  0  0  3  0  0  0  0  0  0
   18.8380   71.1480   12.5960 C   0  0  0  0  0  3  0  0  0  0  0  0
   17.4760   70.9950   12.4700 C   0  0  0  0  0  3  0  0  0  0  0  0
   16.7080   72.1200   12.5760 C   0  0  0  0  0  3  0  0  0  0  0  0
   17.2650   73.3920   12.8060 C   0  0  0  0  0  3  0  0  0  0  0  0
  1  8  1  0  0  0  0
  2  1  1  6  0  0  0
  3  9  1  0  0  0  0
  3  2  1  0  0  0  0
  4  5  2  0  0  0  0
  4  3  1  0  0  0  0
  5  6  1  0  0  0  0
  6  2  1  0  0  0  0
  6  7  1  0  0  0  0
  7  8  2  0  0  0  0
  9 10  1  0  0  0  0
 10 12  1  0  0  0  0
 11 10  2  0  0  0  0
 12 13  2  0  0  0  0
 12 18  1  0  0  0  0
 13 14  1  0  0  0  0
 14 15  2  0  0  0  0
 15 17  1  0  0  0  0
 16 15  1  0  0  0  0
 18 16  2  0  0  0  0
 19  7  1  0  0  0  0
 20 19  1  0  0  0  0
 21 20  2  0  0  0  0
 22 23  2  0  0  0  0
 22 21  1  0  0  0  0
 23 24  1  0  0  0  0
 24 19  2  0  0  0  0
M  END
>  <Pose>
1

>  <Score>
-9.659

$$$$
