/Users/jonathanwahrer/Desktop/Msc/3_Semester/Drug_Design_Praktikum/waehrer_HTS_screening/HTS_experiment/out/docking_results/vina_output/6e43/1266_docked.pdbqt
 OpenBabel03212220273D

 28 31  0  0  1  0  0  0  0  0999 V2000
   22.6170   78.4540   17.5820 C   0  0  2  0  0  3  0  0  0  0  0  0
   23.6790   79.4160   17.3150 N   0  0  0  0  0  0  0  0  0  0  0  0
   24.2410   79.4750   16.0480 C   0  0  0  0  0  2  0  0  0  0  0  0
   23.4290   79.0230   14.8530 C   0  0  0  0  0  2  0  0  0  0  0  0
   22.4610   78.0630   15.1620 N   0  0  0  0  0  0  0  0  0  0  0  0
   22.4460   77.5100   16.4820 C   0  0  0  0  0  2  0  0  0  0  0  0
   21.4620   77.5660   14.2860 C   0  0  0  0  0  0  0  0  0  0  0  0
   20.8010   76.5630   14.8180 O   0  0  0  0  0  0  0  0  0  0  0  0
   23.4300   80.3480   17.7030 H   0  0  0  0  0  0  0  0  0  0  0  0
   21.0390   77.9320   12.9830 C   0  0  0  0  0  0  0  0  0  0  0  0
   21.6180   79.0940   12.4170 C   0  0  0  0  0  3  0  0  0  0  0  0
   21.3800   79.4360   11.1510 N   0  0  0  0  0  0  0  0  0  0  0  0
   20.5900   78.7070   10.3610 C   0  0  0  0  0  0  0  0  0  0  0  0
   20.0020   77.5730   10.8520 C   0  0  0  0  0  0  0  0  0  0  0  0
   20.3500   79.0850    9.0350 O   0  0  0  0  0  0  0  0  0  0  0  0
   20.2240   77.1810   12.1700 C   0  0  0  0  0  3  0  0  0  0  0  0
   19.1810   76.7650   10.0040 N   0  0  0  0  0  0  0  0  0  0  0  0
   18.9960   77.1700    8.6470 C   0  0  0  0  0  0  0  0  0  0  0  0
   18.7310   75.9020   10.3450 H   0  0  0  0  0  0  0  0  0  0  0  0
   18.6950   76.3960    7.7150 O   0  0  0  0  0  0  0  0  0  0  0  0
   19.1800   78.6220    8.3400 C   0  0  0  0  0  2  0  0  0  0  0  0
   21.4050   79.3020   17.8600 C   0  0  0  0  0  0  0  0  0  0  0  0
   20.4680   78.8140   18.7860 C   0  0  0  0  0  0  0  0  0  0  0  0
   20.7300   77.1730   19.4130 Cl  0  0  0  0  0  0  0  0  0  0  0  0
   19.3790   79.5430   19.2110 C   0  0  0  0  0  3  0  0  0  0  0  0
   19.1850   80.8250   18.7080 C   0  0  0  0  0  3  0  0  0  0  0  0
   20.1100   81.3040   17.7960 C   0  0  0  0  0  3  0  0  0  0  0  0
   21.2000   80.5610   17.3770 C   0  0  0  0  0  3  0  0  0  0  0  0
  1 22  1  6  0  0  0
  2  1  1  0  0  0  0
  2  9  1  0  0  0  0
  3  2  1  0  0  0  0
  4  5  1  0  0  0  0
  4  3  1  0  0  0  0
  5  6  1  0  0  0  0
  6  1  1  0  0  0  0
  7  8  2  0  0  0  0
  7  5  1  0  0  0  0
 10  7  1  0  0  0  0
 11 10  2  0  0  0  0
 12 11  1  0  0  0  0
 13 14  1  0  0  0  0
 13 12  2  0  0  0  0
 14 16  2  0  0  0  0
 15 13  1  0  0  0  0
 16 10  1  0  0  0  0
 17 19  1  0  0  0  0
 17 14  1  0  0  0  0
 18 17  1  0  0  0  0
 20 18  2  0  0  0  0
 21 18  1  0  0  0  0
 21 15  1  0  0  0  0
 22 23  1  0  0  0  0
 23 25  2  0  0  0  0
 23 24  1  0  0  0  0
 26 25  1  0  0  0  0
 27 26  2  0  0  0  0
 28 27  1  0  0  0  0
 28 22  2  0  0  0  0
M  END
>  <Pose>
1

>  <Score>
-9.610

$$$$
