/Users/jonathanwahrer/Desktop/Msc/3_Semester/Drug_Design_Praktikum/waehrer_HTS_screening/HTS_experiment/out/docking_results/vina_output/6e43/1280_docked.pdbqt
 OpenBabel03212220283D

 35 38  0  0  1  0  0  0  0  0999 V2000
   20.7830   78.8260   15.7150 C   0  0  1  0  0  3  0  0  0  0  0  0
   21.3300   77.5680   16.1820 N   0  0  0  0  0  0  0  0  0  0  0  0
   22.3450   77.8820   17.1200 C   0  0  0  0  0  0  0  0  0  0  0  0
   23.3150   77.1670   17.3910 O   0  0  0  0  0  0  0  0  0  0  0  0
   22.0020   79.2000   17.6810 C   0  0  0  0  0  0  0  0  0  0  0  0
   22.6290   79.8500   18.5520 O   0  0  0  0  0  0  0  0  0  0  0  0
   20.7690   79.5900   17.0080 C   0  0  0  0  0  0  0  0  0  0  0  0
   19.8530   80.4130   17.4970 C   0  0  0  0  0  0  0  0  0  0  0  0
   18.7120   80.6060   16.6820 O   0  0  0  0  0  1  0  0  0  0  0  0
   21.6570   79.4170   14.6910 C   0  0  0  0  0  0  0  0  0  0  0  0
   21.6620   78.9070   13.4010 C   0  0  0  0  0  3  0  0  0  0  0  0
   22.4670   79.4620   12.3990 C   0  0  0  0  0  0  0  0  0  0  0  0
   22.4480   78.7300   10.6220 Br  0  0  0  0  0  0  0  0  0  0  0  0
   23.2740   80.5340   12.6800 C   0  0  0  0  0  3  0  0  0  0  0  0
   23.2790   81.0510   13.9530 C   0  0  0  0  0  3  0  0  0  0  0  0
   22.4740   80.4860   14.9340 C   0  0  0  0  0  3  0  0  0  0  0  0
   19.9690   81.0960   18.7800 C   0  0  0  0  0  0  0  0  0  0  0  0
   19.6830   80.5280   19.9860 C   0  0  0  0  0  0  0  0  0  0  0  0
   19.7750   81.2760   21.1740 C   0  0  0  0  0  3  0  0  0  0  0  0
   19.3140   79.0960   20.0720 C   0  0  0  0  0  1  0  0  0  0  0  0
   20.1510   82.5920   21.1880 C   0  0  0  0  0  0  0  0  0  0  0  0
   20.4430   83.1680   19.9700 C   0  0  0  0  0  3  0  0  0  0  0  0
   20.3570   82.4490   18.8070 C   0  0  0  0  0  3  0  0  0  0  0  0
   20.2450   83.3370   22.3630 O   0  0  0  0  0  0  0  0  0  0  0  0
   19.0890   83.8010   23.0110 C   0  0  0  0  0  1  0  0  0  0  0  0
   20.8840   76.2660   15.7310 C   0  0  0  0  0  2  0  0  0  0  0  0
   19.5660   76.2940   15.0240 C   0  0  0  0  0  2  0  0  0  0  0  0
   19.5910   75.9270   13.5890 C   0  0  0  0  0  2  0  0  0  0  0  0
   19.0690   74.6440   13.2740 N   0  0  0  0  0  4  0  0  0  0  0  0
   18.7390   74.4760   11.8490 C   0  0  0  0  0  2  0  0  0  0  0  0
   17.7120   73.3420   11.8060 C   0  0  0  0  0  2  0  0  0  0  0  0
   17.6310   72.6690   13.0110 O   0  0  0  0  0  0  0  0  0  0  0  0
   18.8960   72.2840   13.4550 C   0  0  0  0  0  2  0  0  0  0  0  0
   19.8160   73.5020   13.6590 C   0  0  0  0  0  2  0  0  0  0  0  0
   18.1280   74.5680   13.7660 H   0  0  0  0  0  0  0  0  0  0  0  0
  1 10  1  6  0  0  0
  1  2  1  0  0  0  0
  1  7  1  0  0  0  0
  2  3  1  0  0  0  0
  3  4  2  0  0  0  0
  3  5  1  0  0  0  0
  5  6  2  0  0  0  0
  7  8  2  0  0  0  0
  7  5  1  0  0  0  0
  8 17  1  0  0  0  0
  9  8  1  0  0  0  0
 10 16  1  0  0  0  0
 11 10  2  0  0  0  0
 12 14  2  0  0  0  0
 12 11  1  0  0  0  0
 13 12  1  0  0  0  0
 14 15  1  0  0  0  0
 15 16  2  0  0  0  0
 17 23  2  0  0  0  0
 17 18  1  0  0  0  0
 18 20  1  0  0  0  0
 18 19  2  0  0  0  0
 19 21  1  0  0  0  0
 21 24  1  0  0  0  0
 22 21  2  0  0  0  0
 23 22  1  0  0  0  0
 24 25  1  0  0  0  0
 26  2  1  0  0  0  0
 27 26  1  0  0  0  0
 28 27  1  0  0  0  0
 29 28  1  0  0  0  0
 29 34  1  0  0  0  0
 29 35  1  0  0  0  0
 30 29  1  0  0  0  0
 31 30  1  0  0  0  0
 31 32  1  0  0  0  0
 32 33  1  0  0  0  0
 33 34  1  0  0  0  0
M  END
>  <Pose>
1

>  <Score>
-8.622

$$$$
