/Users/jonathanwahrer/Desktop/Msc/3_Semester/Drug_Design_Praktikum/waehrer_HTS_screening/HTS_experiment/out/docking_results/vina_output/6e43/1284_docked.pdbqt
 OpenBabel03212220283D

 35 38  0  0  1  0  0  0  0  0999 V2000
   19.8580   78.4200    8.6910 C   0  0  1  0  0  3  0  0  0  0  0  0
   18.6010   79.0390    8.4890 N   0  0  0  0  0  0  0  0  0  0  0  0
   18.2590   79.8090    9.6290 C   0  0  0  0  0  0  0  0  0  0  0  0
   17.1520   80.4100    9.7970 O   0  0  0  0  0  0  0  0  0  0  0  0
   19.3770   79.7950   10.5470 C   0  0  0  0  0  0  0  0  0  0  0  0
   19.3370   80.4040   11.6500 O   0  0  0  0  0  0  0  0  0  0  0  0
   20.4220   78.9910    9.9420 C   0  0  0  0  0  0  0  0  0  0  0  0
   21.6080   78.7900   10.4700 C   0  0  0  0  0  0  0  0  0  0  0  0
   22.4920   77.9500    9.8310 O   0  0  0  0  0  1  0  0  0  0  0  0
   19.7210   76.9620    8.7630 C   0  0  0  0  0  0  0  0  0  0  0  0
   19.3010   76.3990    9.9560 C   0  0  0  0  0  3  0  0  0  0  0  0
   19.1050   75.0710   10.1800 C   0  0  0  0  0  0  0  0  0  0  0  0
   18.5230   74.3480   11.8480 Br  0  0  0  0  0  0  0  0  0  0  0  0
   19.3560   74.2080    9.1010 C   0  0  0  0  0  3  0  0  0  0  0  0
   19.7790   74.7400    7.8950 C   0  0  0  0  0  3  0  0  0  0  0  0
   19.9660   76.0950    7.7010 C   0  0  0  0  0  3  0  0  0  0  0  0
   22.0010   79.4380   11.6960 C   0  0  0  0  0  0  0  0  0  0  0  0
   21.7860   78.8940   12.9750 C   0  0  0  0  0  0  0  0  0  0  0  0
   22.2980   79.7210   13.8950 N   0  0  0  0  0  0  0  0  0  0  0  0
   21.0930   77.5960   13.2190 C   0  0  0  0  0  1  0  0  0  0  0  0
   22.8180   80.7470   13.2460 N   0  0  0  0  0  0  0  0  0  0  0  0
   22.6620   80.6130   11.9200 C   0  0  0  0  0  3  0  0  0  0  0  0
   22.3060   79.5420   15.3040 C   0  0  0  0  0  0  0  0  0  0  0  0
   23.4470   79.0300   15.9060 C   0  0  0  0  0  3  0  0  0  0  0  0
   23.5290   78.8390   17.2710 C   0  0  0  0  0  3  0  0  0  0  0  0
   22.4570   79.1580   18.1060 C   0  0  0  0  0  3  0  0  0  0  0  0
   21.3200   79.6690   17.5060 C   0  0  0  0  0  3  0  0  0  0  0  0
   21.2640   79.8480   16.1480 C   0  0  0  0  0  3  0  0  0  0  0  0
   17.7450   78.9470    7.2740 C   0  0  0  0  0  2  0  0  0  0  0  0
   16.8250   77.7590    7.3920 C   0  0  0  0  0  2  0  0  0  0  0  0
   15.6310   77.8360    6.4940 C   0  0  0  0  0  2  0  0  0  0  0  0
   14.5660   76.9330    6.7810 N   0  0  0  0  0  4  0  0  0  0  0  0
   13.2580   77.4970    6.8560 C   0  0  0  0  0  1  0  0  0  0  0  0
   14.5290   75.8580    5.7760 C   0  0  0  0  0  1  0  0  0  0  0  0
   14.7660   76.4270    7.6960 H   0  0  0  0  0  0  0  0  0  0  0  0
  1 10  1  1  0  0  0
  1  7  1  0  0  0  0
  2  1  1  0  0  0  0
  2  3  1  0  0  0  0
  3  4  2  0  0  0  0
  3  5  1  0  0  0  0
  5  6  2  0  0  0  0
  7  8  2  0  0  0  0
  7  5  1  0  0  0  0
  8 17  1  0  0  0  0
  9  8  1  0  0  0  0
 10 11  1  0  0  0  0
 11 12  2  0  0  0  0
 12 13  1  0  0  0  0
 14 12  1  0  0  0  0
 15 14  2  0  0  0  0
 16 15  1  0  0  0  0
 16 10  2  0  0  0  0
 17 22  1  0  0  0  0
 17 18  2  0  0  0  0
 18 20  1  0  0  0  0
 18 19  1  0  0  0  0
 19 23  1  0  0  0  0
 21 19  1  0  0  0  0
 22 21  2  0  0  0  0
 23 24  2  0  0  0  0
 23 28  1  0  0  0  0
 24 25  1  0  0  0  0
 25 26  2  0  0  0  0
 27 26  1  0  0  0  0
 28 27  2  0  0  0  0
 29 30  1  0  0  0  0
 29  2  1  0  0  0  0
 31 32  1  0  0  0  0
 31 30  1  0  0  0  0
 32 33  1  0  0  0  0
 32 35  1  0  0  0  0
 34 32  1  0  0  0  0
M  END
>  <Pose>
1

>  <Score>
-8.780

$$$$
