/Users/jonathanwahrer/Desktop/Msc/3_Semester/Drug_Design_Praktikum/waehrer_HTS_screening/HTS_experiment/out/docking_results/vina_output/6e43/1285_docked.pdbqt
 OpenBabel03212220283D

 34 37  0  0  1  0  0  0  0  0999 V2000
   20.9230   78.7330   15.4670 C   0  0  1  0  0  3  0  0  0  0  0  0
   21.5050   77.4430   15.7840 N   0  0  0  0  0  0  0  0  0  0  0  0
   22.4700   77.6390   16.8400 C   0  0  0  0  0  0  0  0  0  0  0  0
   23.4450   76.9310   17.1170 O   0  0  0  0  0  0  0  0  0  0  0  0
   22.0400   78.8620   17.5100 C   0  0  0  0  0  0  0  0  0  0  0  0
   22.5720   79.4480   18.5000 O   0  0  0  0  0  0  0  0  0  0  0  0
   20.8440   79.3470   16.8410 C   0  0  0  0  0  0  0  0  0  0  0  0
   19.9190   80.1740   17.3010 C   0  0  0  0  0  0  0  0  0  0  0  0
   18.8690   80.5460   16.4150 O   0  0  0  0  0  1  0  0  0  0  0  0
   21.7350   79.5700   14.5740 C   0  0  0  0  0  0  0  0  0  0  0  0
   21.6450   79.3340   13.1990 C   0  0  0  0  0  3  0  0  0  0  0  0
   22.3690   80.0760   12.3190 C   0  0  0  0  0  0  0  0  0  0  0  0
   22.2300   79.7380   10.4440 Br  0  0  0  0  0  0  0  0  0  0  0  0
   23.2070   81.0740   12.7580 C   0  0  0  0  0  3  0  0  0  0  0  0
   23.3180   81.3310   14.1040 C   0  0  0  0  0  3  0  0  0  0  0  0
   22.5770   80.5730   15.0030 C   0  0  0  0  0  3  0  0  0  0  0  0
   19.9550   80.6800   18.6510 C   0  0  0  0  0  0  0  0  0  0  0  0
   20.1110   81.9560   19.0640 N   0  0  0  0  0  0  0  0  0  0  0  0
   20.0480   81.9790   20.4180 C   0  0  0  0  0  0  0  0  0  0  0  0
   20.3190   83.1250   18.4360 C   0  0  0  0  0  3  0  0  0  0  0  0
   19.8510   80.7130   20.8810 N   0  0  0  0  0  0  0  0  0  0  0  0
   20.1790   83.1080   21.1840 C   0  0  0  0  0  0  0  0  0  0  0  0
   19.7960   79.9230   19.7830 C   0  0  0  0  0  0  0  0  0  0  0  0
   19.5920   78.4480   19.8270 C   0  0  0  0  0  1  0  0  0  0  0  0
   20.3910   84.3020   20.5310 C   0  0  0  0  0  3  0  0  0  0  0  0
   20.0980   83.0750   22.6730 C   0  0  0  0  0  1  0  0  0  0  0  0
   20.4580   84.2830   19.1520 C   0  0  0  0  0  3  0  0  0  0  0  0
   21.1910   76.1700   15.1570 C   0  0  0  0  0  2  0  0  0  0  0  0
   19.7660   76.0220   14.7480 C   0  0  0  0  0  2  0  0  0  0  0  0
   19.5570   75.6820   13.2940 C   0  0  0  0  0  2  0  0  0  0  0  0
   18.7550   74.4860   13.1830 N   0  0  0  0  0  4  0  0  0  0  0  0
   18.4070   74.2340   11.7960 C   0  0  0  0  0  1  0  0  0  0  0  0
   19.5530   73.3570   13.6200 C   0  0  0  0  0  1  0  0  0  0  0  0
   17.9160   74.5070   13.8020 H   0  0  0  0  0  0  0  0  0  0  0  0
  1 10  1  6  0  0  0
  1  2  1  0  0  0  0
  1  7  1  0  0  0  0
  2  3  1  0  0  0  0
  3  4  2  0  0  0  0
  3  5  1  0  0  0  0
  5  6  2  0  0  0  0
  7  8  2  0  0  0  0
  7  5  1  0  0  0  0
  8 17  1  0  0  0  0
  9  8  1  0  0  0  0
 10 16  1  0  0  0  0
 11 10  2  0  0  0  0
 12 14  2  0  0  0  0
 12 11  1  0  0  0  0
 13 12  1  0  0  0  0
 14 15  1  0  0  0  0
 15 16  2  0  0  0  0
 17 18  1  0  0  0  0
 17 23  2  0  0  0  0
 18 19  1  0  0  0  0
 19 21  2  0  0  0  0
 19 22  1  0  0  0  0
 20 18  1  0  0  0  0
 20 27  2  0  0  0  0
 22 26  1  0  0  0  0
 23 24  1  0  0  0  0
 23 21  1  0  0  0  0
 25 22  2  0  0  0  0
 27 25  1  0  0  0  0
 28  2  1  0  0  0  0
 29 28  1  0  0  0  0
 30 29  1  0  0  0  0
 31 30  1  0  0  0  0
 31 33  1  0  0  0  0
 31 34  1  0  0  0  0
 32 31  1  0  0  0  0
M  END
>  <Pose>
1

>  <Score>
-8.237

$$$$
