/Users/jonathanwahrer/Desktop/Msc/3_Semester/Drug_Design_Praktikum/waehrer_HTS_screening/HTS_experiment/out/docking_results/vina_output/6e43/1295_docked.pdbqt
 OpenBabel03212220283D

 26 29  0  0  1  0  0  0  0  0999 V2000
   21.3020   78.3960   13.7830 C   0  0  0  0  0  0  0  0  0  0  0  0
   21.3060   78.5690   12.3470 C   0  0  0  0  0  0  0  0  0  0  0  0
   20.6780   77.6760   11.5240 C   0  0  1  0  0  3  0  0  0  0  0  0
   19.9650   76.5420   12.0330 N   0  0  0  0  0  0  0  0  0  0  0  0
   19.9500   76.4020   13.4480 C   0  0  0  0  0  0  0  0  0  0  0  0
   20.5380   77.2410   14.2540 C   0  0  0  0  0  0  0  0  0  0  0  0
   20.2880   76.8080   15.6630 C   0  0  0  0  0  0  0  0  0  0  0  0
   20.7410   77.4360   16.6670 O   0  0  0  0  0  0  0  0  0  0  0  0
   19.5300   75.6860   15.5810 O   0  0  0  0  0  0  0  0  0  0  0  0
   19.2860   75.3110   14.2680 C   0  0  0  0  0  2  0  0  0  0  0  0
   20.7150   77.8690   10.1660 N   0  0  0  0  0  0  0  0  0  0  0  0
   21.3580   78.9190    9.6440 C   0  0  0  0  0  0  0  0  0  0  0  0
   21.3780   79.0770    8.3910 O   0  0  0  0  0  0  0  0  0  0  0  0
   21.9720   79.7910   10.4610 N   0  0  0  0  0  0  0  0  0  0  0  0
   21.9840   79.6770   11.7870 C   0  0  0  0  0  0  0  0  0  0  0  0
   22.5540   80.4870   12.5590 O   0  0  0  0  0  0  0  0  0  0  0  0
   22.6620   80.9250    9.8450 C   0  0  0  0  0  1  0  0  0  0  0  0
   20.0280   76.8830    9.3440 C   0  0  0  0  0  1  0  0  0  0  0  0
   19.5040   75.8880   11.3750 H   0  0  0  0  0  0  0  0  0  0  0  0
   22.5970   78.5330   14.4430 C   0  0  0  0  0  0  0  0  0  0  0  0
   23.6190   77.6560   14.2340 C   0  0  0  0  0  3  0  0  0  0  0  0
   24.8530   77.8110   14.8880 C   0  0  0  0  0  3  0  0  0  0  0  0
   25.0340   78.8620   15.7500 C   0  0  0  0  0  0  0  0  0  0  0  0
   26.7050   79.1150   16.6680 Br  0  0  0  0  0  0  0  0  0  0  0  0
   24.0180   79.7470   15.9680 C   0  0  0  0  0  3  0  0  0  0  0  0
   22.7880   79.5810   15.3080 C   0  0  0  0  0  3  0  0  0  0  0  0
  1  6  1  0  0  0  0
  1 20  1  0  0  0  0
  2  1  2  0  0  0  0
  3  4  1  0  0  0  0
  3  2  1  1  0  0  0
  4  5  1  0  0  0  0
  5  6  2  0  0  0  0
  5 10  1  0  0  0  0
  6  7  1  0  0  0  0
  7  8  2  0  0  0  0
  9  7  1  0  0  0  0
 10  9  1  0  0  0  0
 11  3  1  0  0  0  0
 12 11  1  0  0  0  0
 12 14  1  0  0  0  0
 13 12  2  0  0  0  0
 14 15  1  0  0  0  0
 15  2  1  0  0  0  0
 15 16  2  0  0  0  0
 17 14  1  0  0  0  0
 18 11  1  0  0  0  0
 19  4  1  0  0  0  0
 20 26  1  0  0  0  0
 21 20  2  0  0  0  0
 21 22  1  0  0  0  0
 22 23  2  0  0  0  0
 23 25  1  0  0  0  0
 23 24  1  0  0  0  0
 26 25  2  0  0  0  0
M  END
>  <Pose>
1

>  <Score>
-8.424

$$$$
