/Users/jonathanwahrer/Desktop/Msc/3_Semester/Drug_Design_Praktikum/waehrer_HTS_screening/HTS_experiment/out/docking_results/vina_output/6e43/1299_docked.pdbqt
 OpenBabel03212220293D

 36 39  0  0  0  0  0  0  0  0999 V2000
   22.8720   79.5540   14.2150 C   0  0  0  0  0  0  0  0  0  0  0  0
   24.0230   78.8270   14.3790 N   0  0  0  0  0  0  0  0  0  0  0  0
   24.2840   78.3070   13.1980 N   0  0  0  0  0  0  0  0  0  0  0  0
   23.4010   78.6450   12.3170 N   0  0  0  0  0  0  0  0  0  0  0  0
   22.4700   79.4450   12.9110 C   0  0  0  0  0  0  0  0  0  0  0  0
   22.2870   80.2760   15.3390 C   0  0  0  0  0  0  0  0  0  0  0  0
   21.3410   79.7800   16.2640 N   0  0  0  0  0  0  0  0  0  0  0  0
   20.9320   78.8200   16.2690 H   0  0  0  0  0  0  0  0  0  0  0  0
   22.6340   81.4990   15.5550 O   0  0  0  0  0  0  0  0  0  0  0  0
   20.9130   80.6890   17.2890 N   0  0  0  0  0  0  0  0  0  0  0  0
   21.0540   80.4150   18.5280 C   0  0  0  0  0  3  0  0  0  0  0  0
   20.6150   81.3470   19.5770 C   0  0  0  0  0  0  0  0  0  0  0  0
   19.7830   82.3840   19.2950 C   0  0  0  0  0  3  0  0  0  0  0  0
   19.3710   83.2600   20.2830 C   0  0  0  0  0  0  0  0  0  0  0  0
   19.7880   83.1110   21.5810 C   0  0  0  0  0  0  0  0  0  0  0  0
   18.1930   84.7230   19.8710 Br  0  0  0  0  0  0  0  0  0  0  0  0
   20.6330   82.0590   21.8720 C   0  0  0  0  0  0  0  0  0  0  0  0
   21.2200   81.8430   23.6760 Br  0  0  0  0  0  0  0  0  0  0  0  0
   21.0390   81.1910   20.8790 C   0  0  0  0  0  3  0  0  0  0  0  0
   19.3520   84.0090   22.5450 O   0  0  0  0  0  0  0  0  0  0  0  0
   19.9640   84.6490   23.0210 H   0  0  0  0  0  0  0  0  0  0  0  0
   24.7710   78.6710   15.5680 C   0  0  0  0  0  0  0  0  0  0  0  0
   25.2130   79.6090   16.4420 N   0  0  0  0  0  0  0  0  0  0  0  0
   25.8550   79.0270   17.3900 O   0  0  0  0  0  0  0  0  0  0  0  0
   25.8940   77.7410   17.2420 N   0  0  0  0  0  0  0  0  0  0  0  0
   25.2160   77.4720   16.0930 C   0  0  0  0  0  0  0  0  0  0  0  0
   25.0230   76.1710   15.5660 N   0  0  0  0  0  0  0  0  0  0  0  0
   24.4750   75.4930   16.1280 H   0  0  0  0  0  0  0  0  0  0  0  0
   25.3960   75.8560   14.6510 H   0  0  0  0  0  0  0  0  0  0  0  0
   21.2840   80.0540   12.3110 C   0  0  0  0  0  2  0  0  0  0  0  0
   21.2970   80.0710   10.8560 N   0  0  0  0  0  0  0  0  0  0  0  0
   21.1050   78.7220   10.3370 C   0  0  0  0  0  2  0  0  0  0  0  0
   19.6540   78.4170   10.0950 C   0  0  0  0  0  2  0  0  0  0  0  0
   18.7820   79.1990   10.8310 O   0  0  0  0  0  0  0  0  0  0  0  0
   18.9100   80.5630   10.6160 C   0  0  0  0  0  2  0  0  0  0  0  0
   20.3220   80.9690   10.2880 C   0  0  0  0  0  2  0  0  0  0  0  0
  1  2  1  0  0  0  0
  1  6  1  0  0  0  0
  2 22  1  0  0  0  0
  3  2  1  0  0  0  0
  4  5  1  0  0  0  0
  4  3  2  0  0  0  0
  5  1  2  0  0  0  0
  6  9  2  0  0  0  0
  6  7  1  0  0  0  0
  7  8  1  0  0  0  0
  7 10  1  0  0  0  0
 10 11  2  0  0  0  0
 11 12  1  0  0  0  0
 12 19  1  0  0  0  0
 13 12  2  0  0  0  0
 13 14  1  0  0  0  0
 14 15  2  0  0  0  0
 15 17  1  0  0  0  0
 15 20  1  0  0  0  0
 16 14  1  0  0  0  0
 17 18  1  0  0  0  0
 19 17  2  0  0  0  0
 20 21  1  0  0  0  0
 22 26  1  0  0  0  0
 22 23  2  0  0  0  0
 23 24  1  0  0  0  0
 25 24  1  0  0  0  0
 26 25  2  0  0  0  0
 27 26  1  0  0  0  0
 27 28  1  0  0  0  0
 29 27  1  0  0  0  0
 30  5  1  0  0  0  0
 31 30  1  0  0  0  0
 32 31  1  0  0  0  0
 33 32  1  0  0  0  0
 33 34  1  0  0  0  0
 35 34  1  0  0  0  0
 36 35  1  0  0  0  0
 36 31  1  0  0  0  0
M  END
>  <Pose>
1

>  <Score>
-7.997

$$$$
