/Users/jonathanwahrer/Desktop/Msc/3_Semester/Drug_Design_Praktikum/waehrer_HTS_screening/HTS_experiment/out/docking_results/vina_output/6e43/1300_docked.pdbqt
 OpenBabel03212220293D

 22 25  0  0  1  0  0  0  0  0999 V2000
   22.4240   78.9710   16.0850 N   0  0  0  0  0  0  0  0  0  0  0  0
   22.6460   78.0070   17.0980 C   0  0  0  0  0  0  0  0  0  0  0  0
   23.3620   76.9880   17.0110 O   0  0  0  0  0  0  0  0  0  0  0  0
   21.8980   78.3630   18.3230 C   0  0  2  0  0  3  0  0  0  0  0  0
   20.5930   77.5980   18.2730 C   0  0  2  0  0  3  0  0  0  0  0  0
   19.9110   78.3460   17.2770 O   0  0  0  0  0  0  0  0  0  0  0  0
   19.9280   79.5830   17.9750 C   0  0  2  0  0  3  0  0  0  0  0  0
   21.4140   79.7920   18.0960 C   0  0  2  0  0  3  0  0  0  0  0  0
   21.9410   80.1370   16.7560 C   0  0  0  0  0  0  0  0  0  0  0  0
   21.9630   81.3100   16.2600 O   0  0  0  0  0  0  0  0  0  0  0  0
   19.3150   79.1580   19.2510 C   0  0  0  0  0  2  0  0  0  0  0  0
   19.7560   77.9200   19.4560 C   0  0  0  0  0  2  0  0  0  0  0  0
   22.6100   78.9010   14.6800 C   0  0  0  0  0  0  0  0  0  0  0  0
   23.8620   78.9710   14.1120 C   0  0  0  0  0  0  0  0  0  0  0  0
   25.3420   79.1550   15.3140 Br  0  0  0  0  0  0  0  0  0  0  0  0
   24.0710   78.9110   12.7360 C   0  0  0  0  0  3  0  0  0  0  0  0
   23.0040   78.7760   11.8700 C   0  0  0  0  0  0  0  0  0  0  0  0
   21.7440   78.7060   12.4400 C   0  0  0  0  0  3  0  0  0  0  0  0
   21.5370   78.7650   13.7980 C   0  0  0  0  0  3  0  0  0  0  0  0
   23.1860   78.7150   10.4610 N   0  0  0  0  0  0  0  0  0  0  0  0
   24.3000   78.3730   10.0260 O   0  0  0  0  0  0  0  0  0  0  0  0
   22.2140   79.0080    9.5440 O   0  0  0  0  0  0  0  0  0  0  0  0
  1  9  1  0  0  0  0
  1  2  1  0  0  0  0
  3  2  2  0  0  0  0
  4  2  1  6  0  0  0
  5  4  1  0  0  0  0
  5 12  1  1  0  0  0
  6  7  1  0  0  0  0
  6  5  1  0  0  0  0
  7  8  1  0  0  0  0
  7 11  1  1  0  0  0
  8  9  1  6  0  0  0
  8  4  1  0  0  0  0
 10  9  2  0  0  0  0
 11 12  1  0  0  0  0
 13  1  1  0  0  0  0
 14 13  1  0  0  0  0
 14 15  1  0  0  0  0
 16 14  2  0  0  0  0
 17 18  2  0  0  0  0
 17 16  1  0  0  0  0
 18 19  1  0  0  0  0
 19 13  2  0  0  0  0
 20 17  1  0  0  0  0
 21 20  2  0  0  0  0
 22 20  2  0  0  0  0
M  END
>  <Pose>
1

>  <Score>
-8.474

$$$$
