/Users/jonathanwahrer/Desktop/Msc/3_Semester/Drug_Design_Praktikum/waehrer_HTS_screening/HTS_experiment/out/docking_results/vina_output/6e43/1301_docked.pdbqt
 OpenBabel03212220293D

 24 27  0  0  1  0  0  0  0  0999 V2000
   22.2930   79.2030   15.1740 N   0  0  0  0  0  0  0  0  0  0  0  0
   22.3220   80.2980   16.0820 C   0  0  0  0  0  0  0  0  0  0  0  0
   22.6290   81.4840   15.8350 O   0  0  0  0  0  0  0  0  0  0  0  0
   21.9180   79.8250   17.4410 C   0  0  1  0  0  3  0  0  0  0  0  0
   20.4390   79.8630   17.6320 C   0  0  1  0  0  0  0  0  0  0  0  0
   19.9980   78.7050   16.9430 O   0  0  0  0  0  0  0  0  0  0  0  0
   20.7980   77.7830   17.6640 C   0  0  1  0  0  0  0  0  0  0  0  0
   22.1620   78.3190   17.3770 C   0  0  1  0  0  3  0  0  0  0  0  0
   22.5390   78.0510   15.9680 C   0  0  0  0  0  0  0  0  0  0  0  0
   23.0010   76.9700   15.5460 O   0  0  0  0  0  0  0  0  0  0  0  0
   20.3740   78.1350   19.0530 C   0  0  0  0  0  2  0  0  0  0  0  0
   20.1320   79.4580   19.0300 C   0  0  0  0  0  2  0  0  0  0  0  0
   20.5580   76.3850   17.2830 C   0  0  0  0  0  1  0  0  0  0  0  0
   22.0560   79.3040   13.7760 C   0  0  0  0  0  0  0  0  0  0  0  0
   22.6440   80.2700   12.9860 C   0  0  0  0  0  3  0  0  0  0  0  0
   22.4100   80.3670   11.6100 C   0  0  0  0  0  3  0  0  0  0  0  0
   21.5650   79.4830   10.9780 C   0  0  0  0  0  0  0  0  0  0  0  0
   20.9720   78.5140   11.7520 C   0  0  0  0  0  0  0  0  0  0  0  0
   21.3160   79.5910    9.5110 C   0  0  0  0  0  1  0  0  0  0  0  0
   19.7970   77.2740   10.9140 Br  0  0  0  0  0  0  0  0  0  0  0  0
   21.2100   78.4220   13.1260 C   0  0  0  0  0  3  0  0  0  0  0  0
   19.7640   81.0970   17.1910 C   0  0  0  0  0  2  0  0  0  0  0  0
   20.2900   82.2290   17.8080 O   0  0  0  0  0  0  0  0  0  0  0  0
   21.2700   82.1600   17.9800 H   0  0  0  0  0  0  0  0  0  0  0  0
  1  9  1  0  0  0  0
  1  2  1  0  0  0  0
  3  2  2  0  0  0  0
  4  2  1  6  0  0  0
  4  5  1  0  0  0  0
  5 22  1  6  0  0  0
  5 12  1  0  0  0  0
  6  5  1  0  0  0  0
  6  7  1  0  0  0  0
  7 13  1  6  0  0  0
  7 11  1  0  0  0  0
  8  9  1  6  0  0  0
  8  4  1  0  0  0  0
  8  7  1  0  0  0  0
 10  9  2  0  0  0  0
 12 11  1  0  0  0  0
 14  1  1  0  0  0  0
 15 14  2  0  0  0  0
 16 15  1  0  0  0  0
 17 16  2  0  0  0  0
 17 18  1  0  0  0  0
 18 21  2  0  0  0  0
 19 17  1  0  0  0  0
 20 18  1  0  0  0  0
 21 14  1  0  0  0  0
 22 23  1  0  0  0  0
 23 24  1  0  0  0  0
M  END
>  <Pose>
1

>  <Score>
-8.436

$$$$
