/Users/jonathanwahrer/Desktop/Msc/3_Semester/Drug_Design_Praktikum/waehrer_HTS_screening/HTS_experiment/out/docking_results/vina_output/6e43/1314_docked.pdbqt
 OpenBabel03212220303D

 32 35  0  0  0  0  0  0  0  0999 V2000
   19.3210   75.4860   12.5380 C   0  0  0  0  0  0  0  0  0  0  0  0
   18.8540   74.3950   12.0130 N   0  0  0  0  0  0  0  0  0  0  0  0
   18.7540   74.5390   10.7360 N   0  0  0  0  0  0  0  0  0  0  0  0
   19.1690   75.7950   10.3160 N   0  0  0  0  0  0  0  0  0  0  0  0
   19.5350   76.4140   11.4170 C   0  0  0  0  0  0  0  0  0  0  0  0
   19.3820   75.9250   13.8720 C   0  0  0  0  0  0  0  0  0  0  0  0
   20.7140   76.3430   14.5340 N   0  0  0  0  0  0  0  0  0  0  0  0
   21.5180   76.3110   13.9130 H   0  0  0  0  0  0  0  0  0  0  0  0
   18.4250   76.0110   14.6340 O   0  0  0  0  0  0  0  0  0  0  0  0
   20.3900   76.5790   15.7620 N   0  0  0  0  0  2  0  0  0  0  0  0
   20.5560   76.7090   16.9870 C   0  0  0  0  0  2  0  0  0  0  0  0
   20.3130   78.1880   17.3780 C   0  0  0  0  0  0  0  0  0  0  0  0
   21.4190   78.9030   17.7710 C   0  0  0  0  0  0  0  0  0  0  0  0
   23.1450   78.1960   17.4860 Br  0  0  0  0  0  0  0  0  0  0  0  0
   21.2090   80.1160   18.4350 C   0  0  0  0  0  3  0  0  0  0  0  0
   19.9140   80.5890   18.6640 C   0  0  0  0  0  3  0  0  0  0  0  0
   18.8440   79.8740   18.2410 C   0  0  0  0  0  3  0  0  0  0  0  0
   19.0700   78.6240   17.5840 C   0  0  0  0  0  3  0  0  0  0  0  0
   20.2210   77.6550   11.7660 C   0  0  0  0  0  2  0  0  0  0  0  0
   20.8840   78.5390   11.0140 N   0  0  0  0  0  0  0  0  0  0  0  0
   21.2360   79.7090   11.8060 C   0  0  0  0  0  2  0  0  0  0  0  0
   21.7880   78.4370    9.9950 C   0  0  0  0  0  2  0  0  0  0  0  0
   22.6750   80.0160   11.5160 C   0  0  0  0  0  2  0  0  0  0  0  0
   23.1450   78.9260   10.5590 C   0  0  0  0  0  2  0  0  0  0  0  0
   19.0500   76.0840    8.9580 C   0  0  0  0  0  0  0  0  0  0  0  0
   19.3990   75.1520    7.9810 N   0  0  0  0  0  0  0  0  0  0  0  0
   19.3010   75.7110    6.8400 O   0  0  0  0  0  0  0  0  0  0  0  0
   18.9180   76.9210    6.9370 N   0  0  0  0  0  0  0  0  0  0  0  0
   18.7530   77.1840    8.2640 C   0  0  0  0  0  0  0  0  0  0  0  0
   18.3410   78.4850    8.6990 N   0  0  0  0  0  0  0  0  0  0  0  0
   18.8200   78.8780    9.5230 H   0  0  0  0  0  0  0  0  0  0  0  0
   17.5660   78.9660    8.2480 H   0  0  0  0  0  0  0  0  0  0  0  0
  1  6  1  0  0  0  0
  2  1  1  0  0  0  0
  3  2  2  0  0  0  0
  4  3  1  0  0  0  0
  4  5  1  0  0  0  0
  5 19  1  0  0  0  0
  5  1  2  0  0  0  0
  6  7  1  0  0  0  0
  6  9  2  0  0  0  0
  7 10  1  0  0  0  0
  8  7  1  0  0  0  0
 10 11  1  0  0  0  0
 11 12  1  0  0  0  0
 12 18  2  0  0  0  0
 12 13  1  0  0  0  0
 13 15  2  0  0  0  0
 14 13  1  0  0  0  0
 15 16  1  0  0  0  0
 17 16  2  0  0  0  0
 18 17  1  0  0  0  0
 20 19  1  0  0  0  0
 20 21  1  0  0  0  0
 22 24  1  0  0  0  0
 22 20  1  0  0  0  0
 23 21  1  0  0  0  0
 24 23  1  0  0  0  0
 25  4  1  0  0  0  0
 26 25  2  0  0  0  0
 27 28  1  0  0  0  0
 27 26  1  0  0  0  0
 28 29  2  0  0  0  0
 29 30  1  0  0  0  0
 29 25  1  0  0  0  0
 30 31  1  0  0  0  0
 32 30  1  0  0  0  0
M  END
>  <Pose>
1

>  <Score>
-9.494

$$$$
