/Users/jonathanwahrer/Desktop/Msc/3_Semester/Drug_Design_Praktikum/waehrer_HTS_screening/HTS_experiment/out/docking_results/vina_output/6e43/1315_docked.pdbqt
 OpenBabel03212220303D

 30 33  0  0  1  0  0  0  0  0999 V2000
   22.0280   77.6990   17.0050 N   0  0  0  0  0  0  0  0  0  0  0  0
   23.2770   78.1880   16.7140 C   0  0  0  0  0  0  0  0  0  0  0  0
   23.3440   78.2900   15.3550 C   0  0  0  0  0  0  0  0  0  0  0  0
   24.5180   78.7620   14.7590 C   0  0  0  0  0  3  0  0  0  0  0  0
   25.5870   79.1180   15.5540 C   0  0  0  0  0  3  0  0  0  0  0  0
   25.5210   79.0180   16.9270 C   0  0  0  0  0  3  0  0  0  0  0  0
   24.3430   78.5450   17.5110 C   0  0  0  0  0  3  0  0  0  0  0  0
   22.1620   77.8740   14.8500 N   0  0  0  0  0  0  0  0  0  0  0  0
   21.3470   77.5110   15.8430 C   0  0  2  0  0  3  0  0  0  0  0  0
   21.5270   77.4990   18.3480 C   0  0  0  0  0  2  0  0  0  0  0  0
   20.4010   78.3730   18.7000 C   0  0  1  0  0  3  0  0  0  0  0  0
   19.2520   77.7680   18.9020 O   0  0  0  0  0  1  0  0  0  0  0  0
   20.3370   79.8020   18.8660 C   0  0  0  0  0  0  0  0  0  0  0  0
   20.3650   80.4710   20.0550 C   0  0  0  0  0  3  0  0  0  0  0  0
   20.3160   81.8340   20.1320 C   0  0  0  0  0  0  0  0  0  0  0  0
   20.3660   82.7370   21.8440 Br  0  0  0  0  0  0  0  0  0  0  0  0
   20.2350   82.5790   18.9780 C   0  0  0  0  0  3  0  0  0  0  0  0
   20.2050   81.9630   17.7480 C   0  0  0  0  0  3  0  0  0  0  0  0
   20.2560   80.5970   17.7110 C   0  0  0  0  0  3  0  0  0  0  0  0
   20.0920   77.1440   15.7150 N   0  0  0  0  0  0  0  0  0  0  0  0
   19.3080   77.7240   15.9990 H   0  0  0  0  0  0  0  0  0  0  0  0
   19.8930   76.2080   15.3340 H   0  0  0  0  0  0  0  0  0  0  0  0
   21.8890   77.8960   13.4230 C   0  0  0  0  0  2  0  0  0  0  0  0
   21.7400   79.2290   12.8150 C   0  0  0  0  0  2  0  0  0  0  0  0
   22.6720   79.6580   11.8360 N   0  0  0  0  0  0  0  0  0  0  0  0
   22.1270   80.8070   11.0680 C   0  0  0  0  0  2  0  0  0  0  0  0
   20.8100   80.4890   10.4410 C   0  0  0  0  0  2  0  0  0  0  0  0
   21.0490   79.5330    9.4520 O   0  0  0  0  0  0  0  0  0  0  0  0
   21.6380   78.4040    9.9650 C   0  0  0  0  0  2  0  0  0  0  0  0
   22.8770   78.6490   10.7830 C   0  0  0  0  0  2  0  0  0  0  0  0
  1 10  1  0  0  0  0
  2  1  1  0  0  0  0
  2  7  1  0  0  0  0
  3  2  2  0  0  0  0
  4  3  1  0  0  0  0
  4  5  2  0  0  0  0
  5  6  1  0  0  0  0
  6  7  2  0  0  0  0
  8  3  1  0  0  0  0
  8  9  1  0  0  0  0
  9 20  1  1  0  0  0
  9  1  1  0  0  0  0
 10 11  1  0  0  0  0
 11 13  1  0  0  0  0
 11 12  1  1  0  0  0
 13 14  1  0  0  0  0
 14 15  2  0  0  0  0
 15 16  1  0  0  0  0
 17 15  1  0  0  0  0
 18 17  2  0  0  0  0
 19 18  1  0  0  0  0
 19 13  2  0  0  0  0
 20 21  1  0  0  0  0
 22 20  1  0  0  0  0
 23  8  1  0  0  0  0
 24 23  1  0  0  0  0
 25 24  1  0  0  0  0
 26 25  1  0  0  0  0
 27 26  1  0  0  0  0
 28 29  1  0  0  0  0
 28 27  1  0  0  0  0
 29 30  1  0  0  0  0
 30 25  1  0  0  0  0
M  END
>  <Pose>
1

>  <Score>
-9.525

$$$$
