/Users/jonathanwahrer/Desktop/Msc/3_Semester/Drug_Design_Praktikum/waehrer_HTS_screening/HTS_experiment/out/docking_results/vina_output/6e43/1325_docked.pdbqt
 OpenBabel03212220303D

 31 34  0  0  1  0  0  0  0  0999 V2000
   21.2450   79.1750   14.7470 C   0  0  1  0  0  3  0  0  0  0  0  0
   22.5240   79.2260   14.1020 N   0  0  0  0  0  0  0  0  0  0  0  0
   22.2670   78.6380   12.7920 C   0  0  0  0  0  0  0  0  0  0  0  0
   22.9160   78.8570   11.7450 O   0  0  0  0  0  0  0  0  0  0  0  0
   21.1260   77.7520   12.9270 C   0  0  0  0  0  0  0  0  0  0  0  0
   20.5590   77.0400   12.0450 O   0  0  0  0  0  0  0  0  0  0  0  0
   20.7280   77.8390   14.3360 C   0  0  0  0  0  0  0  0  0  0  0  0
   20.0460   76.9440   14.9970 C   0  0  0  0  0  0  0  0  0  0  0  0
   19.7040   77.2170   16.3260 O   0  0  0  0  0  1  0  0  0  0  0  0
   21.1650   79.4530   16.1590 C   0  0  0  0  0  0  0  0  0  0  0  0
   20.2290   80.4110   16.5880 C   0  0  0  0  0  3  0  0  0  0  0  0
   20.0500   80.7440   17.9060 C   0  0  0  0  0  3  0  0  0  0  0  0
   20.7960   80.1410   18.8870 C   0  0  0  0  0  0  0  0  0  0  0  0
   20.5740   80.5810   20.7390 Br  0  0  0  0  0  0  0  0  0  0  0  0
   21.7140   79.2020   18.4760 C   0  0  0  0  0  3  0  0  0  0  0  0
   21.8930   78.8670   17.1480 C   0  0  0  0  0  3  0  0  0  0  0  0
   19.6420   75.6650   14.3800 C   0  0  0  0  0  0  0  0  0  0  0  0
   18.4870   75.4390   13.7650 O   0  0  0  0  0  0  0  0  0  0  0  0
   18.4120   74.2110   13.3210 C   0  0  0  0  0  0  0  0  0  0  0  0
   19.5690   73.5310   13.6380 C   0  0  0  0  0  0  0  0  0  0  0  0
   17.4300   73.4980   12.6260 C   0  0  0  0  0  3  0  0  0  0  0  0
   20.3280   74.4770   14.3070 C   0  0  0  0  0  3  0  0  0  0  0  0
   19.7320   72.2130   13.2750 C   0  0  0  0  0  3  0  0  0  0  0  0
   18.7710   71.5020   12.5890 C   0  0  0  0  0  3  0  0  0  0  0  0
   17.6080   72.1790   12.2700 C   0  0  0  0  0  3  0  0  0  0  0  0
   23.8100   79.7620   14.4890 C   0  0  0  0  0  2  0  0  0  0  0  0
   24.9150   78.8200   14.7220 C   0  0  0  0  0  2  0  0  0  0  0  0
   25.2210   78.4860   16.0890 N   0  0  0  0  0  4  0  0  0  0  0  0
   24.9690   77.1060   16.3890 C   0  0  0  0  0  1  0  0  0  0  0  0
   26.4780   78.9880   16.5670 C   0  0  0  0  0  1  0  0  0  0  0  0
   24.4740   79.0210   16.6520 H   0  0  0  0  0  0  0  0  0  0  0  0
  1 10  1  1  0  0  0
  2 26  1  0  0  0  0
  2  1  1  0  0  0  0
  3  5  1  0  0  0  0
  3  2  1  0  0  0  0
  4  3  2  0  0  0  0
  5  7  1  0  0  0  0
  6  5  2  0  0  0  0
  7  1  1  0  0  0  0
  7  8  2  0  0  0  0
  8  9  1  0  0  0  0
 10 11  2  0  0  0  0
 10 16  1  0  0  0  0
 11 12  1  0  0  0  0
 12 13  2  0  0  0  0
 13 14  1  0  0  0  0
 15 13  1  0  0  0  0
 16 15  2  0  0  0  0
 17  8  1  0  0  0  0
 18 17  1  0  0  0  0
 19 20  1  0  0  0  0
 19 18  1  0  0  0  0
 20 22  1  0  0  0  0
 21 19  2  0  0  0  0
 22 17  2  0  0  0  0
 23 20  2  0  0  0  0
 24 23  1  0  0  0  0
 25 24  2  0  0  0  0
 25 21  1  0  0  0  0
 26 27  1  0  0  0  0
 27 28  1  0  0  0  0
 28 29  1  0  0  0  0
 28 30  1  0  0  0  0
 28 31  1  0  0  0  0
M  END
>  <Pose>
1

>  <Score>
-8.434

$$$$
