/Users/jonathanwahrer/Desktop/Msc/3_Semester/Drug_Design_Praktikum/waehrer_HTS_screening/HTS_experiment/out/docking_results/vina_output/6e43/1355_docked.pdbqt
 OpenBabel03212220313D

 27 30  0  0  1  0  0  0  0  0999 V2000
   19.8800   80.1630   20.2220 N   0  0  0  0  0  0  0  0  0  0  0  0
   19.7370   81.2910   19.3950 C   0  0  0  0  0  0  0  0  0  0  0  0
   19.2190   81.1640   18.2640 O   0  0  0  0  0  0  0  0  0  0  0  0
   20.3110   80.2750   21.1610 H   0  0  0  0  0  0  0  0  0  0  0  0
   19.4380   78.8500   19.7900 C   0  0  0  0  0  2  0  0  0  0  0  0
   20.4660   78.2270   18.8800 C   0  0  0  0  0  0  0  0  0  0  0  0
   20.4710   77.0150   18.3850 O   0  0  0  0  0  0  0  0  0  0  0  0
   21.5380   76.8440   17.6330 N   0  0  0  0  0  0  0  0  0  0  0  0
   22.2650   77.9730   17.6270 C   0  0  0  0  0  0  0  0  0  0  0  0
   21.5820   78.8260   18.4100 N   0  0  0  0  0  0  0  0  0  0  0  0
   23.5210   78.2180   16.9250 C   0  0  0  0  0  0  0  0  0  0  0  0
   23.6490   78.0530   15.5630 C   0  0  0  0  0  0  0  0  0  0  0  0
   22.2420   77.5310   14.6700 Cl  0  0  0  0  0  0  0  0  0  0  0  0
   24.8440   78.2850   14.8890 C   0  0  0  0  0  3  0  0  0  0  0  0
   25.9550   78.6960   15.5810 C   0  0  0  0  0  3  0  0  0  0  0  0
   25.8450   78.8700   16.9660 C   0  0  0  0  0  3  0  0  0  0  0  0
   24.6460   78.6300   17.5980 C   0  0  0  0  0  3  0  0  0  0  0  0
   20.1920   82.6130   19.8520 C   0  0  1  0  0  3  0  0  0  0  0  0
   19.3380   83.7360   19.2960 C   0  0  0  0  0  2  0  0  0  0  0  0
   19.6900   85.0470   19.9150 C   0  0  0  0  0  2  0  0  0  0  0  0
   18.8960   85.4070   21.1280 C   0  0  0  0  0  2  0  0  0  0  0  0
   18.4160   84.1770   21.8910 C   0  0  0  0  0  2  0  0  0  0  0  0
   19.5800   83.3740   22.1890 N   0  0  0  0  0  0  0  0  0  0  0  0
   20.0490   83.2000   23.3960 N   0  0  0  0  0  0  0  0  0  0  0  0
   20.3400   82.7050   21.3130 C   0  0  0  0  0  0  0  0  0  0  0  0
   21.1040   82.4270   23.3290 N   0  0  0  0  0  0  0  0  0  0  0  0
   21.2910   82.1190   22.0600 N   0  0  0  0  0  0  0  0  0  0  0  0
  1  4  1  0  0  0  0
  2  1  1  0  0  0  0
  3  2  2  0  0  0  0
  5  1  1  0  0  0  0
  6  5  1  0  0  0  0
  7  6  1  0  0  0  0
  8  7  1  0  0  0  0
  9  8  2  0  0  0  0
  9 10  1  0  0  0  0
 10  6  2  0  0  0  0
 11 17  1  0  0  0  0
 11  9  1  0  0  0  0
 12 11  2  0  0  0  0
 13 12  1  0  0  0  0
 14 12  1  0  0  0  0
 14 15  2  0  0  0  0
 15 16  1  0  0  0  0
 16 17  2  0  0  0  0
 18  2  1  1  0  0  0
 18 25  1  0  0  0  0
 19 18  1  0  0  0  0
 19 20  1  0  0  0  0
 20 21  1  0  0  0  0
 21 22  1  0  0  0  0
 22 23  1  0  0  0  0
 23 24  1  0  0  0  0
 25 27  2  0  0  0  0
 25 23  1  0  0  0  0
 26 24  2  0  0  0  0
 27 26  1  0  0  0  0
M  END
>  <Pose>
1

>  <Score>
-10.800

$$$$
