/Users/jonathanwahrer/Desktop/Msc/3_Semester/Drug_Design_Praktikum/waehrer_HTS_screening/HTS_experiment/out/docking_results/vina_output/6e43/1381_docked.pdbqt
 OpenBabel03212220323D

 31 34  0  0  0  0  0  0  0  0999 V2000
   22.4080   77.6830   15.7150 C   0  0  0  0  0  0  0  0  0  0  0  0
   23.4910   77.2080   16.0320 O   0  0  0  0  0  0  0  0  0  0  0  0
   21.9620   78.6340   16.6730 O   0  0  0  0  0  0  0  0  0  0  0  0
   21.4370   79.8440   16.1970 C   0  0  0  0  0  2  0  0  0  0  0  0
   20.7130   80.4820   17.3140 C   0  0  0  0  0  0  0  0  0  0  0  0
   20.8320   81.8050   17.5190 N   0  0  0  0  0  0  0  0  0  0  0  0
   20.1970   82.4380   18.5180 C   0  0  0  0  0  0  0  0  0  0  0  0
   19.4100   81.7600   19.3610 N   0  0  0  0  0  0  0  0  0  0  0  0
   20.3430   83.7880   18.6950 C   0  0  0  0  0  3  0  0  0  0  0  0
   18.7670   82.3950   20.3720 C   0  0  0  0  0  3  0  0  0  0  0  0
   19.2350   80.4300   19.2270 C   0  0  0  0  0  0  0  0  0  0  0  0
   18.9020   83.7580   20.5660 C   0  0  0  0  0  0  0  0  0  0  0  0
   17.9800   84.6380   22.0070 Br  0  0  0  0  0  0  0  0  0  0  0  0
   19.7060   84.4700   19.7110 C   0  0  0  0  0  3  0  0  0  0  0  0
   19.9060   79.7850   18.1770 C   0  0  0  0  0  3  0  0  0  0  0  0
   18.5040   79.7620   19.9990 O   0  0  0  0  0  0  0  0  0  0  0  0
   21.5750   77.4150   14.5590 C   0  0  0  0  0  0  0  0  0  0  0  0
   20.6060   76.4530   14.6110 N   0  0  0  0  0  0  0  0  0  0  0  0
   19.8340   76.1900   13.5720 N   0  0  0  0  0  0  0  0  0  0  0  0
   19.9670   76.8580   12.4130 C   0  0  0  0  0  0  0  0  0  0  0  0
   19.2150   76.5940   11.4150 O   0  0  0  0  0  0  0  0  0  0  0  0
   20.9190   77.8400   12.2780 C   0  0  0  0  0  0  0  0  0  0  0  0
   21.7220   78.0990   13.3920 C   0  0  0  0  0  0  0  0  0  0  0  0
   21.0370   78.5070   11.0870 C   0  0  0  0  0  3  0  0  0  0  0  0
   22.6580   79.0880   13.2130 C   0  0  0  0  0  3  0  0  0  0  0  0
   22.7870   79.7720   12.0090 C   0  0  0  0  0  3  0  0  0  0  0  0
   21.9800   79.4910   10.9320 C   0  0  0  0  0  3  0  0  0  0  0  0
   18.8100   75.1680   13.6390 C   0  0  0  0  0  2  0  0  0  0  0  0
   19.3700   73.7800   13.4700 C   0  0  0  0  0  2  0  0  0  0  0  0
   20.3650   73.4910   14.3860 O   0  0  0  0  0  0  0  0  0  0  0  0
   20.9780   72.8430   13.9650 H   0  0  0  0  0  0  0  0  0  0  0  0
  1  2  2  0  0  0  0
  1  3  1  0  0  0  0
  4  3  1  0  0  0  0
  4  5  1  0  0  0  0
  5  6  1  0  0  0  0
  5 15  2  0  0  0  0
  6  7  2  0  0  0  0
  7  9  1  0  0  0  0
  7  8  1  0  0  0  0
  8 10  1  0  0  0  0
  9 14  2  0  0  0  0
 10 12  2  0  0  0  0
 11  8  1  0  0  0  0
 11 16  2  0  0  0  0
 12 13  1  0  0  0  0
 14 12  1  0  0  0  0
 15 11  1  0  0  0  0
 17 18  2  0  0  0  0
 17  1  1  0  0  0  0
 19 28  1  0  0  0  0
 19 18  1  0  0  0  0
 20 19  1  0  0  0  0
 21 20  2  0  0  0  0
 22 20  1  0  0  0  0
 22 23  1  0  0  0  0
 23 17  1  0  0  0  0
 24 22  2  0  0  0  0
 25 23  2  0  0  0  0
 26 25  1  0  0  0  0
 27 24  1  0  0  0  0
 27 26  2  0  0  0  0
 29 28  1  0  0  0  0
 29 30  1  0  0  0  0
 31 30  1  0  0  0  0
M  END
>  <Pose>
1

>  <Score>
-10.487

$$$$
