/Users/jonathanwahrer/Desktop/Msc/3_Semester/Drug_Design_Praktikum/waehrer_HTS_screening/HTS_experiment/out/docking_results/vina_output/6e43/1428_docked.pdbqt
 OpenBabel03212220343D

 37 40  0  0  1  0  0  0  0  0999 V2000
   18.6370   74.0990    6.1540 Cl  0  0  0  0  0  0  0  0  0  0  0  0
   18.4120   75.6810    6.8940 C   0  0  0  0  0  0  0  0  0  0  0  0
   19.2120   76.1290    7.9110 C   0  0  0  0  0  3  0  0  0  0  0  0
   18.9920   77.3740    8.4540 C   0  0  0  0  0  0  0  0  0  0  0  0
   17.9670   78.1300    7.9500 C   0  0  0  0  0  0  0  0  0  0  0  0
   17.1520   77.6710    6.9120 C   0  0  0  0  0  3  0  0  0  0  0  0
   17.3790   76.4350    6.3810 C   0  0  0  0  0  3  0  0  0  0  0  0
   17.8620   79.3960    8.5920 N   0  0  0  0  0  0  0  0  0  0  0  0
   18.8820   79.4310    9.5520 C   0  0  0  0  0  0  0  0  0  0  0  0
   19.0700   80.4490   10.2970 O   0  0  0  0  0  0  0  0  0  0  0  0
   19.6300   78.1670    9.5320 C   0  0  2  0  0  0  0  0  0  0  0  0
   21.0030   78.4720    9.2430 N   0  0  0  0  0  0  0  0  0  0  0  0
   21.7930   78.2030   10.4040 C   0  0  2  0  0  3  0  0  0  0  0  0
   20.8520   78.0130   11.5500 C   0  0  0  0  0  2  0  0  0  0  0  0
   19.6010   77.5430   10.8600 C   0  0  2  0  0  3  0  0  0  0  0  0
   17.1610   80.1580    8.3910 H   0  0  0  0  0  0  0  0  0  0  0  0
   21.3260   77.9800    8.3840 H   0  0  0  0  0  0  0  0  0  0  0  0
   19.4460   76.0660   10.8930 C   0  0  0  0  0  0  0  0  0  0  0  0
   19.9290   75.4400    9.9190 O   0  0  0  0  0  0  0  0  0  0  0  0
   18.8050   75.3740   11.9270 N   0  0  0  0  0  0  0  0  0  0  0  0
   18.4410   75.9970   12.7120 H   0  0  0  0  0  0  0  0  0  0  0  0
   18.5960   74.0010   12.0650 C   0  0  0  0  0  0  0  0  0  0  0  0
   19.2630   73.3100   13.0660 C   0  0  0  0  0  0  0  0  0  0  0  0
   19.1020   71.9530   13.2610 C   0  0  0  0  0  3  0  0  0  0  0  0
   18.2650   71.2150   12.4620 C   0  0  0  0  0  3  0  0  0  0  0  0
   17.5960   71.8670   11.4670 C   0  0  0  0  0  0  0  0  0  0  0  0
   17.7660   73.2370   11.2820 C   0  0  0  0  0  3  0  0  0  0  0  0
   20.1250   73.9840   13.9130 O   0  0  0  0  0  0  0  0  0  0  0  0
   19.8370   75.2120   14.5090 C   0  0  0  0  0  1  0  0  0  0  0  0
   16.7410   71.1600   10.6410 O   0  0  0  0  0  0  0  0  0  0  0  0
   15.9420   70.0870   11.1040 C   0  0  0  0  0  1  0  0  0  0  0  0
   22.8000   79.3090   10.6700 C   0  0  0  0  0  2  0  0  0  0  0  0
   22.4580   80.5490    9.9590 C   0  0  0  0  0  0  0  0  0  0  0  0
   22.8820   80.7500    8.8100 O   0  0  0  0  0  0  0  0  0  0  0  0
   21.6450   81.5120   10.5860 N   0  0  0  0  0  0  0  0  0  0  0  0
   20.8470   81.9090   10.0460 H   0  0  0  0  0  0  0  0  0  0  0  0
   21.7870   81.8620   11.5640 H   0  0  0  0  0  0  0  0  0  0  0  0
  1  2  1  0  0  0  0
  2  3  1  0  0  0  0
  3  4  2  0  0  0  0
  5  4  1  0  0  0  0
  5  8  1  0  0  0  0
  6  5  2  0  0  0  0
  7  2  2  0  0  0  0
  7  6  1  0  0  0  0
  8  9  1  0  0  0  0
  9 10  2  0  0  0  0
 11  4  1  6  0  0  0
 11  9  1  0  0  0  0
 11 15  1  0  0  0  0
 12 11  1  0  0  0  0
 12 13  1  0  0  0  0
 13 32  1  1  0  0  0
 13 14  1  0  0  0  0
 15 18  1  6  0  0  0
 15 14  1  0  0  0  0
 16  8  1  0  0  0  0
 17 12  1  0  0  0  0
 18 20  1  0  0  0  0
 19 18  2  0  0  0  0
 20 22  1  0  0  0  0
 20 21  1  0  0  0  0
 22 23  1  0  0  0  0
 23 24  2  0  0  0  0
 23 28  1  0  0  0  0
 25 24  1  0  0  0  0
 26 25  2  0  0  0  0
 27 26  1  0  0  0  0
 27 22  2  0  0  0  0
 28 29  1  0  0  0  0
 30 31  1  0  0  0  0
 30 26  1  0  0  0  0
 33 35  1  0  0  0  0
 33 32  1  0  0  0  0
 34 33  2  0  0  0  0
 35 37  1  0  0  0  0
 36 35  1  0  0  0  0
M  END
>  <Pose>
1

>  <Score>
-9.340

$$$$
