/Users/jonathanwahrer/Desktop/Msc/3_Semester/Drug_Design_Praktikum/waehrer_HTS_screening/HTS_experiment/out/docking_results/vina_output/6e43/1434_docked.pdbqt
 OpenBabel03212220343D

 28 31  0  0  1  0  0  0  0  0999 V2000
   22.1910   78.9760   12.5440 C   0  0  0  0  0  0  0  0  0  0  0  0
   21.4920   79.7860   13.3310 O   0  0  0  0  0  0  0  0  0  0  0  0
   22.2220   79.3570   11.2120 N   0  0  0  0  0  0  0  0  0  0  0  0
   22.8720   78.7100   10.1290 C   0  0  0  0  0  2  0  0  0  0  0  0
   21.8340   78.0600    9.2130 C   0  0  0  0  0  2  0  0  0  0  0  0
   20.5620   78.8910    9.2160 C   0  0  1  0  0  0  0  0  0  0  0  0
   20.0210   78.7820    7.8720 N   0  0  0  0  0  0  0  0  0  0  0  0
   19.1570   77.6270    7.8750 C   0  0  0  0  0  0  0  0  0  0  0  0
   18.7530   77.0050    6.8610 O   0  0  0  0  0  0  0  0  0  0  0  0
   18.8500   77.3290    9.2500 N   0  0  0  0  0  0  0  0  0  0  0  0
   19.5160   78.2850   10.0660 C   0  0  0  0  0  0  0  0  0  0  0  0
   19.2400   78.5330   11.2630 O   0  0  0  0  0  0  0  0  0  0  0  0
   20.8170   80.3360    9.5080 C   0  0  0  0  0  2  0  0  0  0  0  0
   21.4910   80.5860   10.8180 C   0  0  0  0  0  2  0  0  0  0  0  0
   20.2100   79.4050    7.0590 H   0  0  0  0  0  0  0  0  0  0  0  0
   18.2520   76.5580    9.5790 H   0  0  0  0  0  0  0  0  0  0  0  0
   22.7600   77.8670   13.2840 C   0  0  0  0  0  2  0  0  0  0  0  0
   22.7580   77.8870   14.7050 N   0  0  0  0  0  0  0  0  0  0  0  0
   23.8280   78.2970   15.4480 C   0  0  0  0  0  0  0  0  0  0  0  0
   23.5060   78.2200   16.7790 C   0  0  0  0  0  0  0  0  0  0  0  0
   25.0970   78.7430   15.0760 C   0  0  0  0  0  3  0  0  0  0  0  0
   22.2170   77.7560   16.8490 C   0  0  0  0  0  0  0  0  0  0  0  0
   24.4400   78.5860   17.7370 C   0  0  0  0  0  3  0  0  0  0  0  0
   21.2970   77.4740   18.5010 Br  0  0  0  0  0  0  0  0  0  0  0  0
   21.7710   77.5570   15.5720 C   0  0  0  0  0  0  0  0  0  0  0  0
   20.4300   77.0630   15.1850 C   0  0  0  0  0  1  0  0  0  0  0  0
   25.6880   79.0250   17.3600 C   0  0  0  0  0  3  0  0  0  0  0  0
   26.0290   79.1080   16.0390 C   0  0  0  0  0  3  0  0  0  0  0  0
  1 17  1  0  0  0  0
  1  2  2  0  0  0  0
  3  1  1  0  0  0  0
  4  3  1  0  0  0  0
  5  4  1  0  0  0  0
  6  5  1  1  0  0  0
  6 13  1  0  0  0  0
  6 11  1  0  0  0  0
  7  8  1  0  0  0  0
  7  6  1  0  0  0  0
  8 10  1  0  0  0  0
  9  8  2  0  0  0  0
 10 16  1  0  0  0  0
 10 11  1  0  0  0  0
 11 12  2  0  0  0  0
 13 14  1  0  0  0  0
 14  3  1  0  0  0  0
 15  7  1  0  0  0  0
 17 18  1  0  0  0  0
 18 19  1  0  0  0  0
 18 25  1  0  0  0  0
 19 20  1  0  0  0  0
 20 22  1  0  0  0  0
 20 23  2  0  0  0  0
 21 19  2  0  0  0  0
 21 28  1  0  0  0  0
 22 24  1  0  0  0  0
 25 22  2  0  0  0  0
 26 25  1  0  0  0  0
 27 23  1  0  0  0  0
 28 27  2  0  0  0  0
M  END
>  <Pose>
1

>  <Score>
-9.414

$$$$
