/Users/jonathanwahrer/Desktop/Msc/3_Semester/Drug_Design_Praktikum/waehrer_HTS_screening/HTS_experiment/out/docking_results/vina_output/6e43/1435_docked.pdbqt
 OpenBabel03212220343D

 32 35  0  0  0  0  0  0  0  0999 V2000
   21.3050   77.3620   14.0250 C   0  0  0  0  0  2  0  0  0  0  0  0
   22.0250   77.5240   15.3570 C   0  0  0  0  0  2  0  0  0  0  0  0
   21.6060   78.7240   16.0400 N   0  0  0  0  0  0  0  0  0  0  0  0
   21.9270   80.0130   15.7700 C   0  0  0  0  0  0  0  0  0  0  0  0
   23.0760   80.5240   14.3340 Br  0  0  0  0  0  0  0  0  0  0  0  0
   21.3280   80.8400   16.6460 N   0  0  0  0  0  0  0  0  0  0  0  0
   20.5980   80.0960   17.5110 C   0  0  0  0  0  0  0  0  0  0  0  0
   20.7880   78.7890   17.1140 C   0  0  0  0  0  0  0  0  0  0  0  0
   19.8190   80.4330   18.5640 N   0  0  0  0  0  0  0  0  0  0  0  0
   20.1460   77.7940   17.8330 C   0  0  0  0  0  0  0  0  0  0  0  0
   19.3760   78.1370   18.8760 N   0  0  0  0  0  0  0  0  0  0  0  0
   20.3280   76.6130   17.4610 O   0  0  0  0  0  0  0  0  0  0  0  0
   19.2130   79.4390   19.2380 C   0  0  0  0  0  0  0  0  0  0  0  0
   18.8880   77.3910   19.4250 H   0  0  0  0  0  0  0  0  0  0  0  0
   18.4730   79.6750   20.2300 O   0  0  0  0  0  0  0  0  0  0  0  0
   19.6310   81.8130   18.9680 C   0  0  0  0  0  1  0  0  0  0  0  0
   20.6580   76.0070   13.9210 C   0  0  0  0  0  2  0  0  0  0  0  0
   19.2290   76.0250   13.4670 C   0  0  0  0  0  2  0  0  0  0  0  0
   19.1240   75.5450   12.1290 N   0  0  0  0  0  0  0  0  0  0  0  0
   19.2840   76.1700   10.9650 C   0  0  0  0  0  0  0  0  0  0  0  0
   19.1120   75.2510    9.9360 C   0  0  0  0  0  0  0  0  0  0  0  0
   19.5600   77.4640   10.6060 C   0  0  0  0  0  0  0  0  0  0  0  0
   18.8500   74.0900   10.5290 N   0  0  0  0  0  0  0  0  0  0  0  0
   19.2160   75.6270    8.6580 N   0  0  0  0  0  0  0  0  0  0  0  0
   18.8510   74.2450   11.8540 C   0  0  0  0  0  0  0  0  0  0  0  0
   18.5200   72.8370   13.0970 Br  0  0  0  0  0  0  0  0  0  0  0  0
   19.4890   76.9050    8.3310 C   0  0  0  0  0  0  0  0  0  0  0  0
   19.0420   74.6830    7.5590 C   0  0  0  0  0  1  0  0  0  0  0  0
   19.5860   77.2490    7.1270 O   0  0  0  0  0  0  0  0  0  0  0  0
   19.6560   77.7990    9.3100 N   0  0  0  0  0  0  0  0  0  0  0  0
   19.8720   78.8150    9.0970 H   0  0  0  0  0  0  0  0  0  0  0  0
   19.7160   78.3130   11.5050 O   0  0  0  0  0  0  0  0  0  0  0  0
  1  2  1  0  0  0  0
  2  3  1  0  0  0  0
  3  8  1  0  0  0  0
  4  3  1  0  0  0  0
  4  6  2  0  0  0  0
  5  4  1  0  0  0  0
  6  7  1  0  0  0  0
  7  9  1  0  0  0  0
  8  7  2  0  0  0  0
  8 10  1  0  0  0  0
  9 16  1  0  0  0  0
  9 13  1  0  0  0  0
 10 11  1  0  0  0  0
 11 13  1  0  0  0  0
 11 14  1  0  0  0  0
 12 10  2  0  0  0  0
 13 15  2  0  0  0  0
 17  1  1  0  0  0  0
 18 17  1  0  0  0  0
 19 18  1  0  0  0  0
 20 19  1  0  0  0  0
 21 23  1  0  0  0  0
 21 20  2  0  0  0  0
 22 20  1  0  0  0  0
 22 32  2  0  0  0  0
 23 25  2  0  0  0  0
 24 21  1  0  0  0  0
 25 19  1  0  0  0  0
 25 26  1  0  0  0  0
 27 24  1  0  0  0  0
 27 30  1  0  0  0  0
 28 24  1  0  0  0  0
 29 27  2  0  0  0  0
 30 22  1  0  0  0  0
 31 30  1  0  0  0  0
M  END
>  <Pose>
1

>  <Score>
-9.929

$$$$
