/Users/jonathanwahrer/Desktop/Msc/3_Semester/Drug_Design_Praktikum/waehrer_HTS_screening/HTS_experiment/out/docking_results/vina_output/6e43/1436_docked.pdbqt
 OpenBabel03212220343D

 33 36  0  0  0  0  0  0  0  0999 V2000
   20.8100   76.0380   14.4470 O   0  0  0  0  0  0  0  0  0  0  0  0
   20.2180   76.7620   15.4290 C   0  0  0  0  0  2  0  0  0  0  0  0
   20.9650   77.2800   16.5870 C   0  0  0  0  0  2  0  0  0  0  0  0
   20.9910   78.6870   16.8040 N   0  0  0  0  0  0  0  0  0  0  0  0
   21.5810   79.6710   16.1290 C   0  0  0  0  0  0  0  0  0  0  0  0
   22.7290   79.5090   14.6070 Br  0  0  0  0  0  0  0  0  0  0  0  0
   21.3120   80.8790   16.6770 N   0  0  0  0  0  0  0  0  0  0  0  0
   20.5360   80.6450   17.7260 C   0  0  0  0  0  0  0  0  0  0  0  0
   20.3230   79.2880   17.8280 C   0  0  0  0  0  0  0  0  0  0  0  0
   19.9700   81.4730   18.6480 N   0  0  0  0  0  0  0  0  0  0  0  0
   19.5530   78.7440   18.8370 C   0  0  0  0  0  0  0  0  0  0  0  0
   19.0140   79.6250   19.7270 N   0  0  0  0  0  0  0  0  0  0  0  0
   19.3490   77.5100   18.9480 O   0  0  0  0  0  0  0  0  0  0  0  0
   19.2280   80.9460   19.6200 C   0  0  0  0  0  0  0  0  0  0  0  0
   18.4310   79.2260   20.4940 H   0  0  0  0  0  0  0  0  0  0  0  0
   18.7150   81.7400   20.4600 O   0  0  0  0  0  0  0  0  0  0  0  0
   20.1700   82.9060   18.5760 C   0  0  0  0  0  1  0  0  0  0  0  0
   20.0520   74.9300   14.1070 C   0  0  0  0  0  2  0  0  0  0  0  0
   18.8170   75.3820   13.3860 C   0  0  0  0  0  2  0  0  0  0  0  0
   18.8070   74.9600   12.0210 N   0  0  0  0  0  0  0  0  0  0  0  0
   19.1990   75.6930   10.9710 C   0  0  0  0  0  0  0  0  0  0  0  0
   19.0290   74.9390    9.8510 C   0  0  0  0  0  0  0  0  0  0  0  0
   19.7040   76.9740   10.8660 C   0  0  0  0  0  0  0  0  0  0  0  0
   18.5380   73.7680   10.2460 N   0  0  0  0  0  0  0  0  0  0  0  0
   19.3510   75.4410    8.6460 N   0  0  0  0  0  0  0  0  0  0  0  0
   18.3870   73.7420   11.5810 C   0  0  0  0  0  0  0  0  0  0  0  0
   17.7360   72.3500   12.6970 Br  0  0  0  0  0  0  0  0  0  0  0  0
   19.8360   76.6770    8.5680 C   0  0  0  0  0  0  0  0  0  0  0  0
   19.1760   74.6530    7.4440 C   0  0  0  0  0  1  0  0  0  0  0  0
   20.1340   77.1340    7.4320 O   0  0  0  0  0  0  0  0  0  0  0  0
   20.0100   77.4290    9.6480 N   0  0  0  0  0  0  0  0  0  0  0  0
   20.3920   78.3960    9.5660 H   0  0  0  0  0  0  0  0  0  0  0  0
   19.8860   77.7260   11.8760 O   0  0  0  0  0  0  0  0  0  0  0  0
  1  2  1  0  0  0  0
  2  3  1  0  0  0  0
  3  4  1  0  0  0  0
  4  9  1  0  0  0  0
  5  7  2  0  0  0  0
  5  4  1  0  0  0  0
  6  5  1  0  0  0  0
  7  8  1  0  0  0  0
  8  9  2  0  0  0  0
  8 10  1  0  0  0  0
  9 11  1  0  0  0  0
 10 14  1  0  0  0  0
 11 13  2  0  0  0  0
 11 12  1  0  0  0  0
 12 15  1  0  0  0  0
 14 12  1  0  0  0  0
 14 16  2  0  0  0  0
 17 10  1  0  0  0  0
 18  1  1  0  0  0  0
 19 18  1  0  0  0  0
 20 19  1  0  0  0  0
 21 20  1  0  0  0  0
 22 24  1  0  0  0  0
 22 21  2  0  0  0  0
 23 21  1  0  0  0  0
 23 33  2  0  0  0  0
 24 26  2  0  0  0  0
 25 22  1  0  0  0  0
 26 20  1  0  0  0  0
 26 27  1  0  0  0  0
 28 25  1  0  0  0  0
 28 31  1  0  0  0  0
 29 25  1  0  0  0  0
 30 28  2  0  0  0  0
 31 23  1  0  0  0  0
 32 31  1  0  0  0  0
M  END
>  <Pose>
1

>  <Score>
-10.166

$$$$
