/Users/jonathanwahrer/Desktop/Msc/3_Semester/Drug_Design_Praktikum/waehrer_HTS_screening/HTS_experiment/out/docking_results/vina_output/6e43/1444_docked.pdbqt
 OpenBabel03212220353D

 33 36  0  0  0  0  0  0  0  0999 V2000
   20.7540   77.2800   14.5020 N   0  0  0  0  0  0  0  0  0  0  0  0
   20.0640   76.6200   13.5360 C   0  0  0  0  0  0  0  0  0  0  0  0
   20.5960   76.9840   12.3210 O   0  0  0  0  0  0  0  0  0  0  0  0
   21.5690   77.9240   14.0700 H   0  0  0  0  0  0  0  0  0  0  0  0
   18.9790   75.6730   13.3370 C   0  0  0  0  0  2  0  0  0  0  0  0
   19.1080   74.3060   13.0650 N   0  0  0  0  0  0  0  0  0  0  0  0
   19.8650   73.3760   13.9450 C   0  0  0  0  0  2  0  0  0  0  0  0
   20.0460   72.1260   13.1090 C   0  0  0  0  0  2  0  0  0  0  0  0
   18.6910   71.5260   12.8400 C   0  0  0  0  0  2  0  0  0  0  0  0
   17.9160   72.4360   11.9110 C   0  0  0  0  0  2  0  0  0  0  0  0
   18.5720   73.7740   11.8450 C   0  0  0  0  0  0  0  0  0  0  0  0
   18.7320   74.3880   10.6710 C   0  0  0  0  0  0  0  0  0  0  0  0
   18.1760   73.8440    9.4620 N   0  0  0  0  0  0  0  0  0  0  0  0
   19.4380   75.5240   10.2900 N   0  0  0  0  0  0  0  0  0  0  0  0
   18.5490   74.6530    8.3730 N   0  0  0  0  0  0  0  0  0  0  0  0
   17.5820   73.0090    9.2920 H   0  0  0  0  0  0  0  0  0  0  0  0
   19.3390   75.7110    8.8660 C   0  0  0  0  0  0  0  0  0  0  0  0
   18.3030   74.5240    7.3600 H   0  0  0  0  0  0  0  0  0  0  0  0
   19.8780   76.6580    8.2490 O   0  0  0  0  0  0  0  0  0  0  0  0
   19.9800   76.1410   10.9160 H   0  0  0  0  0  0  0  0  0  0  0  0
   20.6930   77.4680   15.8770 C   0  0  0  0  0  0  0  0  0  0  0  0
   21.2530   78.4930   16.5890 N   0  0  0  0  0  0  0  0  0  0  0  0
   20.9200   78.3500   17.8650 N   0  0  0  0  0  0  0  0  0  0  0  0
   20.1640   77.2810   18.0490 C   0  0  0  0  0  3  0  0  0  0  0  0
   20.0030   76.6960   16.7840 C   0  0  0  0  0  3  0  0  0  0  0  0
   22.0580   79.5240   16.0330 C   0  0  0  0  0  2  0  0  0  0  0  0
   23.5060   79.2490   16.0630 C   0  0  0  0  0  0  0  0  0  0  0  0
   24.2500   78.9730   14.9540 C   0  0  0  0  0  0  0  0  0  0  0  0
   23.4850   78.9310   13.3820 Cl  0  0  0  0  0  0  0  0  0  0  0  0
   25.6000   78.7240   15.0420 C   0  0  0  0  0  3  0  0  0  0  0  0
   26.2470   78.7450   16.2570 C   0  0  0  0  0  3  0  0  0  0  0  0
   25.5050   79.0230   17.3850 C   0  0  0  0  0  3  0  0  0  0  0  0
   24.1600   79.2690   17.2750 C   0  0  0  0  0  3  0  0  0  0  0  0
  1 21  1  0  0  0  0
  2  1  1  0  0  0  0
  3  2  2  0  0  0  0
  4  1  1  0  0  0  0
  5  2  1  0  0  0  0
  6  5  1  0  0  0  0
  6  7  1  0  0  0  0
  8  7  1  0  0  0  0
  9  8  1  0  0  0  0
 10  9  1  0  0  0  0
 11 10  1  0  0  0  0
 11  6  1  0  0  0  0
 12 11  2  0  0  0  0
 13 12  1  0  0  0  0
 14 12  1  0  0  0  0
 14 20  1  0  0  0  0
 15 17  1  0  0  0  0
 15 13  1  0  0  0  0
 16 13  1  0  0  0  0
 17 14  1  0  0  0  0
 18 15  1  0  0  0  0
 19 17  2  0  0  0  0
 21 22  1  0  0  0  0
 21 25  2  0  0  0  0
 22 23  1  0  0  0  0
 23 24  2  0  0  0  0
 25 24  1  0  0  0  0
 26 27  1  0  0  0  0
 26 22  1  0  0  0  0
 27 33  1  0  0  0  0
 28 30  1  0  0  0  0
 28 27  2  0  0  0  0
 29 28  1  0  0  0  0
 30 31  2  0  0  0  0
 31 32  1  0  0  0  0
 33 32  2  0  0  0  0
M  END
>  <Pose>
1

>  <Score>
-10.172

$$$$
