/Users/jonathanwahrer/Desktop/Msc/3_Semester/Drug_Design_Praktikum/waehrer_HTS_screening/HTS_experiment/out/docking_results/vina_output/6e43/1511_docked.pdbqt
 OpenBabel03212220373D

 34 37  0  0  0  0  0  0  0  0999 V2000
   20.5930   78.3160   10.8460 N   0  0  0  0  0  0  0  0  0  0  0  0
   20.5860   77.9600   12.1410 C   0  0  0  0  0  0  0  0  0  0  0  0
   19.9440   76.9650   12.5640 O   0  0  0  0  0  0  0  0  0  0  0  0
   21.3600   78.8210   12.9010 C   0  0  0  0  0  0  0  0  0  0  0  0
   21.8470   79.7160   12.0510 C   0  0  0  0  0  0  0  0  0  0  0  0
   22.5960   80.5500   12.7880 N   0  0  0  0  0  0  0  0  0  0  0  0
   22.5680   80.1740   14.0540 N   0  0  0  0  0  0  0  0  0  0  0  0
   21.8140   79.1110   14.1440 N   0  0  0  0  0  0  0  0  0  0  0  0
   21.3800   79.4130   10.7890 C   0  0  0  0  0  0  0  0  0  0  0  0
   21.6490   80.0660    9.7260 O   0  0  0  0  0  0  0  0  0  0  0  0
   23.1310   81.3750   12.4500 H   0  0  0  0  0  0  0  0  0  0  0  0
   23.0630   80.6350   14.8740 H   0  0  0  0  0  0  0  0  0  0  0  0
   21.4930   78.3560   15.3320 C   0  0  0  0  0  2  0  0  0  0  0  0
   21.4350   79.2940   16.5150 C   0  0  0  0  0  0  0  0  0  0  0  0
   22.4770   79.5120   17.1720 O   0  0  0  0  0  0  0  0  0  0  0  0
   20.2250   79.9090   16.8660 N   0  0  0  0  0  0  0  0  0  0  0  0
   19.3740   79.6760   16.2570 H   0  0  0  0  0  0  0  0  0  0  0  0
   20.0340   80.8050   17.9360 C   0  0  0  0  0  0  0  0  0  0  0  0
   20.4690   82.1050   17.9860 C   0  0  0  0  0  3  0  0  0  0  0  0
   20.2650   82.9270   19.0750 C   0  0  0  0  0  0  0  0  0  0  0  0
   19.5890   82.4100   20.1600 C   0  0  0  0  0  0  0  0  0  0  0  0
   19.1320   81.1030   20.1500 C   0  0  0  0  0  3  0  0  0  0  0  0
   19.3470   80.3040   19.0590 C   0  0  0  0  0  3  0  0  0  0  0  0
   20.7190   84.2440   19.0970 O   0  0  0  0  0  0  0  0  0  0  0  0
   20.2880   85.1110   18.0390 C   0  0  0  0  0  1  0  0  0  0  0  0
   19.3720   83.2240   21.2690 O   0  0  0  0  0  0  0  0  0  0  0  0
   18.3150   84.1630   21.2390 C   0  0  0  0  0  1  0  0  0  0  0  0
   19.9430   77.7210    9.7290 C   0  0  0  0  0  0  0  0  0  0  0  0
   18.8920   78.3200    9.0650 C   0  0  0  0  0  3  0  0  0  0  0  0
   18.2790   77.7090    7.9760 C   0  0  0  0  0  3  0  0  0  0  0  0
   18.7010   76.4750    7.5200 C   0  0  0  0  0  0  0  0  0  0  0  0
   17.8620   75.6270    6.0220 Br  0  0  0  0  0  0  0  0  0  0  0  0
   19.7520   75.8820    8.1910 C   0  0  0  0  0  3  0  0  0  0  0  0
   20.3590   76.4910    9.2700 C   0  0  0  0  0  3  0  0  0  0  0  0
  1  2  1  0  0  0  0
  2  3  2  0  0  0  0
  2  4  1  0  0  0  0
  4  8  1  0  0  0  0
  5  6  1  0  0  0  0
  5  4  2  0  0  0  0
  6  7  1  0  0  0  0
  7  8  1  0  0  0  0
  7 12  1  0  0  0  0
  8 13  1  0  0  0  0
  9  1  1  0  0  0  0
  9  5  1  0  0  0  0
 10  9  2  0  0  0  0
 11  6  1  0  0  0  0
 13 14  1  0  0  0  0
 14 16  1  0  0  0  0
 14 15  2  0  0  0  0
 16 18  1  0  0  0  0
 17 16  1  0  0  0  0
 18 19  2  0  0  0  0
 18 23  1  0  0  0  0
 19 20  1  0  0  0  0
 20 24  1  0  0  0  0
 20 21  2  0  0  0  0
 21 26  1  0  0  0  0
 22 21  1  0  0  0  0
 23 22  2  0  0  0  0
 25 24  1  0  0  0  0
 27 26  1  0  0  0  0
 28  1  1  0  0  0  0
 29 28  2  0  0  0  0
 30 29  1  0  0  0  0
 31 30  2  0  0  0  0
 31 33  1  0  0  0  0
 32 31  1  0  0  0  0
 33 34  2  0  0  0  0
 34 28  1  0  0  0  0
M  END
>  <Pose>
1

>  <Score>
-9.668

$$$$
