/Users/jonathanwahrer/Desktop/Msc/3_Semester/Drug_Design_Praktikum/waehrer_HTS_screening/HTS_experiment/out/docking_results/vina_output/6e43/1518_docked.pdbqt
 OpenBabel03212220383D

 31 34  0  0  1  0  0  0  0  0999 V2000
   22.7220   79.0930   10.6940 C   0  0  0  0  0  0  0  0  0  0  0  0
   23.7790   78.8680   10.0560 O   0  0  0  0  0  0  0  0  0  0  0  0
   22.7110   79.0220   12.1070 N   0  0  0  0  0  0  0  0  0  0  0  0
   21.5240   79.2700   12.9000 C   0  0  0  0  0  2  0  0  0  0  0  0
   21.9680   79.8960   14.2130 C   0  0  0  0  0  2  0  0  0  0  0  0
   22.8310   78.9150   15.0050 C   0  0  1  0  0  0  0  0  0  0  0  0
   23.8110   79.6950   15.7030 N   0  0  0  0  0  0  0  0  0  0  0  0
   24.3690   78.9830   16.8330 C   0  0  0  0  0  2  0  0  0  0  0  0
   23.3020   78.8870   17.9210 C   0  0  0  0  0  2  0  0  0  0  0  0
   22.1640   78.1330   17.3220 C   0  0  0  0  0  0  0  0  0  0  0  0
   21.1930   77.3530   17.8860 N   0  0  0  0  0  0  0  0  0  0  0  0
   20.4010   76.9020   16.8970 C   0  0  0  0  0  3  0  0  0  0  0  0
   20.8690   77.3920   15.7350 N   0  0  0  0  0  0  0  0  0  0  0  0
   21.9710   78.1670   15.9590 C   0  0  0  0  0  0  0  0  0  0  0  0
   23.5360   77.9500   14.0750 C   0  0  0  0  0  2  0  0  0  0  0  0
   23.9240   78.6880   12.8270 C   0  0  0  0  0  2  0  0  0  0  0  0
   24.5700   80.0170   15.0710 H   0  0  0  0  0  0  0  0  0  0  0  0
   21.1480   77.1890   18.9170 H   0  0  0  0  0  0  0  0  0  0  0  0
   21.5010   79.4310    9.9290 C   0  0  0  0  0  2  0  0  0  0  0  0
   21.1060   78.3590    8.9640 C   0  0  0  0  0  2  0  0  0  0  0  0
   20.7130   77.1690    9.6940 N   0  0  0  0  0  0  0  0  0  0  0  0
   19.6150   77.1090   10.5520 C   0  0  0  0  0  0  0  0  0  0  0  0
   18.8980   78.1260   10.7310 O   0  0  0  0  0  0  0  0  0  0  0  0
   21.3180   76.3290    9.5330 H   0  0  0  0  0  0  0  0  0  0  0  0
   19.2480   75.8930   11.2730 C   0  0  0  0  0  0  0  0  0  0  0  0
   19.3050   75.8080   12.6470 C   0  0  0  0  0  3  0  0  0  0  0  0
   18.9440   74.6260   13.2760 C   0  0  0  0  0  3  0  0  0  0  0  0
   18.5250   73.5170   12.5540 C   0  0  0  0  0  0  0  0  0  0  0  0
   18.0880   72.0620   13.4290 Cl  0  0  0  0  0  0  0  0  0  0  0  0
   18.4640   73.5900   11.1780 C   0  0  0  0  0  3  0  0  0  0  0  0
   18.8230   74.7640   10.5740 C   0  0  0  0  0  3  0  0  0  0  0  0
  1  3  1  0  0  0  0
  2  1  2  0  0  0  0
  3 16  1  0  0  0  0
  3  4  1  0  0  0  0
  4  5  1  0  0  0  0
  5  6  1  0  0  0  0
  6 15  1  6  0  0  0
  6  7  1  0  0  0  0
  6 14  1  0  0  0  0
  7  8  1  0  0  0  0
  8  9  1  0  0  0  0
 10 11  1  0  0  0  0
 10  9  1  0  0  0  0
 11 18  1  0  0  0  0
 12 11  1  0  0  0  0
 13 14  1  0  0  0  0
 13 12  2  0  0  0  0
 14 10  2  0  0  0  0
 16 15  1  0  0  0  0
 17  7  1  0  0  0  0
 19  1  1  0  0  0  0
 20 21  1  0  0  0  0
 20 19  1  0  0  0  0
 21 22  1  0  0  0  0
 22 23  2  0  0  0  0
 22 25  1  0  0  0  0
 24 21  1  0  0  0  0
 25 26  1  0  0  0  0
 26 27  2  0  0  0  0
 28 27  1  0  0  0  0
 28 29  1  0  0  0  0
 30 28  2  0  0  0  0
 31 30  1  0  0  0  0
 31 25  2  0  0  0  0
M  END
>  <Pose>
1

>  <Score>
-9.869

$$$$
