/Users/jonathanwahrer/Desktop/Msc/3_Semester/Drug_Design_Praktikum/waehrer_HTS_screening/HTS_experiment/out/docking_results/vina_output/6e43/1521_docked.pdbqt
 OpenBabel03212220383D

 24 27  0  0  1  0  0  0  0  0999 V2000
   25.0600   77.1690   16.6410 Cl  0  0  0  0  0  0  0  0  0  0  0  0
   23.9350   78.4870   16.3890 C   0  0  0  0  0  0  0  0  0  0  0  0
   22.7720   78.5310   17.1190 C   0  0  0  0  0  0  0  0  0  0  0  0
   22.2220   77.7520   18.0650 N   0  0  0  0  0  0  0  0  0  0  0  0
   21.0360   78.2380   18.4780 C   0  0  0  0  0  0  0  0  0  0  0  0
   20.8350   79.3890   17.7460 C   0  0  0  0  0  0  0  0  0  0  0  0
   21.9020   79.5860   16.8970 C   0  0  0  0  0  0  0  0  0  0  0  0
   22.2280   80.5470   15.9620 C   0  0  0  0  0  3  0  0  0  0  0  0
   23.3830   80.5260   15.2200 C   0  0  0  0  0  3  0  0  0  0  0  0
   24.2540   79.4640   15.4460 C   0  0  0  0  0  3  0  0  0  0  0  0
   19.5740   80.1180   18.0290 C   0  0  0  0  0  2  0  0  0  0  0  0
   19.5510   80.2700   19.4670 N   0  0  0  0  0  0  0  0  0  0  0  0
   19.4020   79.0670   20.1880 C   0  0  0  0  0  2  0  0  0  0  0  0
   19.9700   77.8830   19.4390 C   0  0  0  0  0  2  0  0  0  0  0  0
   22.6310   76.8610   18.4650 H   0  0  0  0  0  0  0  0  0  0  0  0
   18.9050   81.4240   19.9300 C   0  0  0  0  0  2  0  0  0  0  0  0
   19.8530   82.5270   20.2900 C   0  0  1  0  0  0  0  0  0  0  0  0
   20.1980   83.4130   19.1440 C   0  0  0  0  0  2  0  0  0  0  0  0
   19.8940   84.7680   19.4540 N   0  0  0  0  0  0  0  0  0  0  0  0
   19.2950   84.8300   20.7480 C   0  0  0  0  0  3  0  0  0  0  0  0
   20.7070   85.4200   19.3550 H   0  0  0  0  0  0  0  0  0  0  0  0
   19.1740   83.4400   21.2740 C   0  0  0  0  0  3  0  0  0  0  0  0
   20.9930   82.0220   20.9290 O   0  0  0  0  0  0  0  0  0  0  0  0
   21.6990   82.7100   20.8070 H   0  0  0  0  0  0  0  0  0  0  0  0
  2  1  1  0  0  0  0
  2  3  1  0  0  0  0
  3  4  1  0  0  0  0
  4 15  1  0  0  0  0
  4  5  1  0  0  0  0
  5 14  1  0  0  0  0
  6 11  1  0  0  0  0
  6  5  2  0  0  0  0
  7  3  2  0  0  0  0
  7  6  1  0  0  0  0
  8  7  1  0  0  0  0
  9 10  1  0  0  0  0
  9  8  2  0  0  0  0
 10  2  2  0  0  0  0
 11 12  1  0  0  0  0
 12 16  1  0  0  0  0
 12 13  1  0  0  0  0
 14 13  1  0  0  0  0
 17 16  1  6  0  0  0
 17 23  1  0  0  0  0
 17 22  1  0  0  0  0
 18 19  1  0  0  0  0
 18 17  1  0  0  0  0
 19 20  1  0  0  0  0
 20 22  2  0  0  0  0
 21 19  1  0  0  0  0
 24 23  1  0  0  0  0
M  END
>  <Pose>
1

>  <Score>
-9.033

$$$$
