/Users/jonathanwahrer/Desktop/Msc/3_Semester/Drug_Design_Praktikum/waehrer_HTS_screening/HTS_experiment/out/docking_results/vina_output/6e43/1523_docked.pdbqt
 OpenBabel03212220383D

 25 28  0  0  0  0  0  0  0  0999 V2000
   19.5550   77.5620   16.8320 C   0  0  0  0  0  0  0  0  0  0  0  0
   18.4320   76.9870   16.6130 O   0  0  0  0  0  0  0  0  0  0  0  0
   20.6590   77.2940   16.0220 N   0  0  0  0  0  0  0  0  0  0  0  0
   20.5370   76.3600   14.9370 C   0  0  0  0  0  2  0  0  0  0  0  0
   20.6910   77.1100   13.6440 C   0  0  0  0  0  2  0  0  0  0  0  0
   21.8020   78.0130   13.7440 N   0  0  0  0  0  0  0  0  0  0  0  0
   22.7300   77.7560   14.8620 C   0  0  0  0  0  2  0  0  0  0  0  0
   21.9690   77.8870   16.1740 C   0  0  0  0  0  2  0  0  0  0  0  0
   22.0990   79.0990   12.9210 C   0  0  0  0  0  0  0  0  0  0  0  0
   23.1950   79.7280   13.2190 O   0  0  0  0  0  0  0  0  0  0  0  0
   19.5670   78.5000   17.9790 C   0  0  0  0  0  0  0  0  0  0  0  0
   19.4850   78.1980   19.2830 N   0  0  0  0  0  0  0  0  0  0  0  0
   19.5290   79.3070   19.9870 N   0  0  0  0  0  0  0  0  0  0  0  0
   19.6380   80.3690   19.1820 N   0  0  0  0  0  0  0  0  0  0  0  0
   19.6620   79.8710   17.9350 C   0  0  0  0  0  3  0  0  0  0  0  0
   19.7130   81.7240   19.5930 C   0  0  0  0  0  0  0  0  0  0  0  0
   19.3330   82.0910   20.8610 C   0  0  0  0  0  3  0  0  0  0  0  0
   19.4150   83.4360   21.2490 C   0  0  0  0  0  0  0  0  0  0  0  0
   18.8920   83.9640   23.0040 Br  0  0  0  0  0  0  0  0  0  0  0  0
   19.8700   84.3910   20.3780 C   0  0  0  0  0  3  0  0  0  0  0  0
   20.2520   84.0330   19.1080 C   0  0  0  0  0  3  0  0  0  0  0  0
   20.1670   82.6870   18.7310 C   0  0  0  0  0  3  0  0  0  0  0  0
   21.3790   79.6440   11.7760 C   0  0  0  0  0  3  0  0  0  0  0  0
   21.9730   80.5210   10.7670 C   0  0  0  0  0  2  0  0  0  0  0  0
   21.4890   79.1230   10.3910 C   0  0  0  0  0  2  0  0  0  0  0  0
  1 11  1  0  0  0  0
  2  1  2  0  0  0  0
  3  8  1  0  0  0  0
  3  1  1  0  0  0  0
  4  3  1  0  0  0  0
  5  6  1  0  0  0  0
  5  4  1  0  0  0  0
  6  7  1  0  0  0  0
  7  8  1  0  0  0  0
  9 10  2  0  0  0  0
  9  6  1  0  0  0  0
 11 12  1  0  0  0  0
 12 13  2  0  0  0  0
 14 16  1  0  0  0  0
 14 13  1  0  0  0  0
 15 11  2  0  0  0  0
 15 14  1  0  0  0  0
 16 17  1  0  0  0  0
 17 18  2  0  0  0  0
 18 19  1  0  0  0  0
 20 18  1  0  0  0  0
 21 20  2  0  0  0  0
 22 21  1  0  0  0  0
 22 16  2  0  0  0  0
 23  9  1  0  0  0  0
 24 23  1  0  0  0  0
 25 24  1  0  0  0  0
 25 23  1  0  0  0  0
M  END
>  <Pose>
1

>  <Score>
-10.018

$$$$
