/Users/jonathanwahrer/Desktop/Msc/3_Semester/Drug_Design_Praktikum/waehrer_HTS_screening/HTS_experiment/out/docking_results/vina_output/6e43/1531_docked.pdbqt
 OpenBabel03212220383D

 27 30  0  0  0  0  0  0  0  0999 V2000
   21.5330   77.6290   16.6270 N   0  0  0  0  0  0  0  0  0  0  0  0
   22.7760   78.2050   16.6080 C   0  0  0  0  0  0  0  0  0  0  0  0
   23.0270   78.5110   15.3330 N   0  0  0  0  0  0  0  0  0  0  0  0
   22.0160   78.1660   14.5180 C   0  0  0  0  0  0  0  0  0  0  0  0
   21.0640   77.6030   15.3500 C   0  0  0  0  0  3  0  0  0  0  0  0
   24.3420   79.1330   15.2110 C   0  0  0  0  0  3  0  0  0  0  0  0
   24.9350   79.0770   16.5880 C   0  0  0  0  0  3  0  0  0  0  0  0
   23.8850   78.5820   17.5170 C   0  0  0  0  0  3  0  0  0  0  0  0
   20.8320   77.1820   17.7830 C   0  0  0  0  0  3  0  0  0  0  0  0
   20.2340   78.1130   18.7110 C   0  0  0  0  0  0  0  0  0  0  0  0
   19.6090   77.5430   19.7240 O   0  0  0  0  0  1  0  0  0  0  0  0
   20.1920   79.5500   18.7350 C   0  0  0  0  0  0  0  0  0  0  0  0
   19.9890   80.3780   17.6730 C   0  0  0  0  0  3  0  0  0  0  0  0
   19.9560   81.7780   17.7580 C   0  0  0  0  0  3  0  0  0  0  0  0
   20.1380   82.3880   18.9740 C   0  0  0  0  0  0  0  0  0  0  0  0
   20.3450   81.5870   20.0740 C   0  0  0  0  0  0  0  0  0  0  0  0
   20.0980   84.1330   19.0860 Cl  0  0  0  0  0  0  0  0  0  0  0  0
   20.5770   82.3440   21.6270 Cl  0  0  0  0  0  0  0  0  0  0  0  0
   20.3720   80.2360   19.9620 C   0  0  0  0  0  3  0  0  0  0  0  0
   21.8940   78.3260   13.0700 C   0  0  0  0  0  0  0  0  0  0  0  0
   22.8590   78.8670   12.2600 C   0  0  0  0  0  3  0  0  0  0  0  0
   22.6700   78.9860   10.8760 C   0  0  0  0  0  3  0  0  0  0  0  0
   21.5100   78.5680   10.2620 C   0  0  0  0  0  0  0  0  0  0  0  0
   20.5340   78.0240   11.0670 C   0  0  0  0  0  3  0  0  0  0  0  0
   20.7230   77.9080   12.4290 C   0  0  0  0  0  3  0  0  0  0  0  0
   21.3090   78.6800    8.8930 O   0  0  0  0  0  0  0  0  0  0  0  0
   20.3100   77.9100    8.2480 C   0  0  0  0  0  1  0  0  0  0  0  0
  1  9  1  0  0  0  0
  2  1  1  0  0  0  0
  2  8  2  0  0  0  0
  3  2  1  0  0  0  0
  4  3  1  0  0  0  0
  4  5  2  0  0  0  0
  5  1  1  0  0  0  0
  6  3  1  0  0  0  0
  6  7  2  0  0  0  0
  7  8  1  0  0  0  0
  9 10  2  0  0  0  0
 10 12  1  0  0  0  0
 10 11  1  0  0  0  0
 12 19  1  0  0  0  0
 13 14  1  0  0  0  0
 13 12  2  0  0  0  0
 14 15  2  0  0  0  0
 15 17  1  0  0  0  0
 15 16  1  0  0  0  0
 16 18  1  0  0  0  0
 19 16  2  0  0  0  0
 20  4  1  0  0  0  0
 21 20  2  0  0  0  0
 22 21  1  0  0  0  0
 23 22  2  0  0  0  0
 23 24  1  0  0  0  0
 24 25  2  0  0  0  0
 25 20  1  0  0  0  0
 26 23  1  0  0  0  0
 27 26  1  0  0  0  0
M  END
>  <Pose>
1

>  <Score>
-10.443

$$$$
