/Users/jonathanwahrer/Desktop/Msc/3_Semester/Drug_Design_Praktikum/waehrer_HTS_screening/HTS_experiment/out/docking_results/vina_output/6e43/1533_docked.pdbqt
 OpenBabel03212220393D

 28 31  0  0  1  0  0  0  0  0999 V2000
   21.9670   78.2050   14.3920 C   0  0  0  0  0  0  0  0  0  0  0  0
   23.0020   78.7000   15.1180 N   0  0  0  0  0  0  0  0  0  0  0  0
   22.8050   78.4310   16.4130 C   0  0  2  0  0  3  0  0  0  0  0  0
   21.6310   77.7460   16.5730 N   0  0  0  0  0  0  0  0  0  0  0  0
   21.1320   77.6180   15.3330 C   0  0  0  0  0  3  0  0  0  0  0  0
   23.9090   78.9650   17.2410 C   0  0  0  0  0  2  0  0  0  0  0  0
   25.0140   79.0880   16.2290 C   0  0  0  0  0  2  0  0  0  0  0  0
   24.2660   79.4200   14.9580 C   0  0  0  0  0  2  0  0  0  0  0  0
   21.0470   77.3170   17.8110 C   0  0  0  0  0  3  0  0  0  0  0  0
   20.4700   78.2350   18.7540 C   0  0  0  0  0  0  0  0  0  0  0  0
   19.9730   77.6330   19.8310 O   0  0  0  0  0  1  0  0  0  0  0  0
   20.3100   79.6670   18.7930 C   0  0  0  0  0  0  0  0  0  0  0  0
   20.3880   80.3470   20.0290 C   0  0  0  0  0  3  0  0  0  0  0  0
   20.2510   81.7040   20.1660 C   0  0  0  0  0  0  0  0  0  0  0  0
   20.0240   82.4220   19.0090 C   0  0  0  0  0  3  0  0  0  0  0  0
   19.9440   81.7820   17.7920 C   0  0  0  0  0  3  0  0  0  0  0  0
   20.0840   80.4000   17.6590 C   0  0  0  0  0  3  0  0  0  0  0  0
   20.3320   82.3660   21.4140 N   0  0  0  0  0  0  0  0  0  0  0  0
   21.3660   82.2710   22.0830 O   0  0  0  0  0  0  0  0  0  0  0  0
   19.2980   83.1100   21.9030 O   0  0  0  0  0  0  0  0  0  0  0  0
   21.7190   78.2410   12.9510 C   0  0  0  0  0  0  0  0  0  0  0  0
   20.4910   77.8270   12.4840 C   0  0  0  0  0  3  0  0  0  0  0  0
   20.1830   77.8510   11.1220 C   0  0  0  0  0  3  0  0  0  0  0  0
   21.1290   78.2990   10.2300 C   0  0  0  0  0  0  0  0  0  0  0  0
   22.3470   78.7110   10.6860 C   0  0  0  0  0  0  0  0  0  0  0  0
   20.7190   78.3220    8.5140 Cl  0  0  0  0  0  0  0  0  0  0  0  0
   23.5270   79.2760    9.5230 Cl  0  0  0  0  0  0  0  0  0  0  0  0
   22.6390   78.6810   12.0460 C   0  0  0  0  0  3  0  0  0  0  0  0
  1  2  1  0  0  0  0
  1  5  2  0  0  0  0
  2  3  1  0  0  0  0
  3  4  1  0  0  0  0
  3  6  1  1  0  0  0
  4  9  1  0  0  0  0
  5  4  1  0  0  0  0
  7  6  1  0  0  0  0
  8  2  1  0  0  0  0
  8  7  1  0  0  0  0
  9 10  2  0  0  0  0
 10 12  1  0  0  0  0
 10 11  1  0  0  0  0
 12 13  1  0  0  0  0
 13 14  2  0  0  0  0
 14 18  1  0  0  0  0
 15 14  1  0  0  0  0
 16 15  2  0  0  0  0
 17 16  1  0  0  0  0
 17 12  2  0  0  0  0
 18 20  2  0  0  0  0
 18 19  2  0  0  0  0
 21  1  1  0  0  0  0
 22 21  1  0  0  0  0
 23 22  2  0  0  0  0
 24 25  2  0  0  0  0
 24 23  1  0  0  0  0
 25 28  1  0  0  0  0
 26 24  1  0  0  0  0
 27 25  1  0  0  0  0
 28 21  2  0  0  0  0
M  END
>  <Pose>
1

>  <Score>
-10.660

$$$$
