/Users/jonathanwahrer/Desktop/Msc/3_Semester/Drug_Design_Praktikum/waehrer_HTS_screening/HTS_experiment/out/docking_results/vina_output/6e43/1535_docked.pdbqt
 OpenBabel03212220393D

 28 31  0  0  1  0  0  0  0  0999 V2000
   22.2770   78.8690   14.6130 C   0  0  0  0  0  0  0  0  0  0  0  0
   23.4860   78.9420   15.1920 N   0  0  0  0  0  0  0  0  0  0  0  0
   23.3470   78.8960   16.5330 C   0  0  2  0  0  3  0  0  0  0  0  0
   22.0360   78.7910   16.8120 N   0  0  0  0  0  0  0  0  0  0  0  0
   21.3310   78.7700   15.6450 C   0  0  0  0  0  3  0  0  0  0  0  0
   24.6750   78.9890   17.1840 C   0  0  0  0  0  2  0  0  0  0  0  0
   25.5260   78.3540   16.1140 C   0  0  0  0  0  2  0  0  0  0  0  0
   24.9170   79.0420   14.8800 C   0  0  0  0  0  2  0  0  0  0  0  0
   21.4580   78.7530   18.1040 C   0  0  0  0  0  2  0  0  0  0  0  0
   20.3920   79.6180   18.5210 C   0  0  2  0  0  3  0  0  0  0  0  0
   19.2140   79.0410   18.3900 O   0  0  0  0  0  1  0  0  0  0  0  0
   20.3650   80.9650   19.0400 C   0  0  0  0  0  0  0  0  0  0  0  0
   20.3760   81.2960   20.3680 C   0  0  0  0  0  3  0  0  0  0  0  0
   20.3500   82.6260   20.7980 C   0  0  0  0  0  0  0  0  0  0  0  0
   20.3120   83.6360   19.8910 C   0  0  0  0  0  3  0  0  0  0  0  0
   20.3010   83.3310   18.5480 C   0  0  0  0  0  3  0  0  0  0  0  0
   20.3260   82.0330   18.1150 C   0  0  0  0  0  3  0  0  0  0  0  0
   20.3640   82.9050   22.1990 N   0  0  0  0  0  0  0  0  0  0  0  0
   21.2910   82.4660   22.9010 O   0  0  0  0  0  0  0  0  0  0  0  0
   19.3890   83.6390   22.7950 O   0  0  0  0  0  0  0  0  0  0  0  0
   21.8940   78.8770   13.2010 C   0  0  0  0  0  0  0  0  0  0  0  0
   20.9620   77.9540   12.7160 C   0  0  0  0  0  3  0  0  0  0  0  0
   20.5540   77.9300   11.4090 C   0  0  0  0  0  3  0  0  0  0  0  0
   21.0570   78.8310   10.5020 C   0  0  0  0  0  0  0  0  0  0  0  0
   21.9710   79.7500   10.9420 C   0  0  0  0  0  0  0  0  0  0  0  0
   20.5290   78.7910    8.8340 Cl  0  0  0  0  0  0  0  0  0  0  0  0
   22.6480   80.9200    9.8540 Cl  0  0  0  0  0  0  0  0  0  0  0  0
   22.3770   79.7590   12.2910 C   0  0  0  0  0  3  0  0  0  0  0  0
  1  2  1  0  0  0  0
  1  5  2  0  0  0  0
  2  3  1  0  0  0  0
  3  4  1  0  0  0  0
  3  6  1  1  0  0  0
  4  9  1  0  0  0  0
  5  4  1  0  0  0  0
  7  6  1  0  0  0  0
  8  2  1  0  0  0  0
  8  7  1  0  0  0  0
  9 10  1  0  0  0  0
 10 11  1  6  0  0  0
 10 12  1  0  0  0  0
 12 13  1  0  0  0  0
 13 14  2  0  0  0  0
 14 18  1  0  0  0  0
 15 14  1  0  0  0  0
 16 15  2  0  0  0  0
 17 16  1  0  0  0  0
 17 12  2  0  0  0  0
 18 20  2  0  0  0  0
 18 19  2  0  0  0  0
 21  1  1  0  0  0  0
 22 21  1  0  0  0  0
 23 22  2  0  0  0  0
 24 25  2  0  0  0  0
 24 23  1  0  0  0  0
 25 28  1  0  0  0  0
 26 24  1  0  0  0  0
 27 25  1  0  0  0  0
 28 21  2  0  0  0  0
M  END
>  <Pose>
1

>  <Score>
-10.419

$$$$
