/Users/jonathanwahrer/Desktop/Msc/3_Semester/Drug_Design_Praktikum/waehrer_HTS_screening/HTS_experiment/out/docking_results/vina_output/6e43/1536_docked.pdbqt
 OpenBabel03212220393D

 31 34  0  0  1  0  0  0  0  0999 V2000
   21.6660   78.7770   17.0190 S   0  0  0  0  0  0  0  0  0  0  0  0
   22.0380   77.6000   17.9250 O   0  0  0  0  0  0  0  0  0  0  0  0
   20.7310   78.1390   15.9880 O   0  0  0  0  0  0  0  0  0  0  0  0
   23.0390   79.3120   16.2700 N   0  0  0  0  0  0  0  0  0  0  0  0
   23.1270   80.4880   15.5340 C   0  0  0  0  0  2  0  0  0  0  0  0
   22.8810   80.3800   14.0630 C   0  0  0  0  0  2  0  0  0  0  0  0
   23.1360   78.9410   13.6210 C   0  0  2  0  0  3  0  0  0  0  0  0
   24.4060   78.5470   14.3930 C   0  0  0  0  0  2  0  0  0  0  0  0
   23.9330   78.2570   15.8080 C   0  0  0  0  0  2  0  0  0  0  0  0
   23.3180   78.8300   12.1840 C   0  0  0  0  0  0  0  0  0  0  0  0
   24.4800   78.7400   11.7090 O   0  0  0  0  0  0  0  0  0  0  0  0
   22.2290   78.8160   11.3060 N   0  0  0  0  0  0  0  0  0  0  0  0
   22.3750   78.6650    9.8540 C   0  0  0  0  0  2  0  0  0  0  0  0
   20.8840   78.9740   11.7840 C   0  0  0  0  0  2  0  0  0  0  0  0
   21.0030   78.9090    9.2600 C   0  0  0  0  0  2  0  0  0  0  0  0
   20.0630   77.9120    9.7350 N   0  0  0  0  0  0  0  0  0  0  0  0
   19.9470   77.9420   11.1820 C   0  0  0  0  0  2  0  0  0  0  0  0
   18.7680   78.0800    9.1130 C   0  0  0  0  0  1  0  0  0  0  0  0
   20.7770   79.8790   18.0290 C   0  0  0  0  0  0  0  0  0  0  0  0
   20.7840   81.2500   17.7200 C   0  0  0  0  0  3  0  0  0  0  0  0
   20.1500   82.1850   18.4960 C   0  0  0  0  0  0  0  0  0  0  0  0
   19.4810   81.7900   19.6140 C   0  0  0  0  0  0  0  0  0  0  0  0
   20.1800   83.5430   18.1560 O   0  0  0  0  0  0  0  0  0  0  0  0
   19.4390   80.4650   19.9660 C   0  0  0  0  0  3  0  0  0  0  0  0
   18.8270   82.7860   20.4190 N   0  0  0  0  0  0  0  0  0  0  0  0
   20.0920   79.5330   19.1570 C   0  0  0  0  0  0  0  0  0  0  0  0
   19.9390   77.8440   19.6110 Cl  0  0  0  0  0  0  0  0  0  0  0  0
   18.8910   84.1480   20.0340 C   0  0  0  0  0  0  0  0  0  0  0  0
   18.3130   82.4930   21.2740 H   0  0  0  0  0  0  0  0  0  0  0  0
   18.0630   84.9870   20.4470 O   0  0  0  0  0  0  0  0  0  0  0  0
   19.9880   84.5490   19.1140 C   0  0  0  0  0  2  0  0  0  0  0  0
  1  2  2  0  0  0  0
  1 19  1  0  0  0  0
  3  1  2  0  0  0  0
  4  1  1  0  0  0  0
  5  4  1  0  0  0  0
  6  5  1  0  0  0  0
  7 10  1  6  0  0  0
  7  6  1  0  0  0  0
  7  8  1  0  0  0  0
  8  9  1  0  0  0  0
  9  4  1  0  0  0  0
 11 10  2  0  0  0  0
 12 14  1  0  0  0  0
 12 10  1  0  0  0  0
 13 12  1  0  0  0  0
 15 16  1  0  0  0  0
 15 13  1  0  0  0  0
 16 17  1  0  0  0  0
 17 14  1  0  0  0  0
 18 16  1  0  0  0  0
 19 26  1  0  0  0  0
 20 19  2  0  0  0  0
 20 21  1  0  0  0  0
 21 22  2  0  0  0  0
 22 24  1  0  0  0  0
 22 25  1  0  0  0  0
 23 21  1  0  0  0  0
 23 31  1  0  0  0  0
 25 29  1  0  0  0  0
 26 27  1  0  0  0  0
 26 24  2  0  0  0  0
 28 25  1  0  0  0  0
 28 30  2  0  0  0  0
 31 28  1  0  0  0  0
M  END
>  <Pose>
1

>  <Score>
-10.997

$$$$
