/Users/jonathanwahrer/Desktop/Msc/3_Semester/Drug_Design_Praktikum/waehrer_HTS_screening/HTS_experiment/out/docking_results/vina_output/6e43/1539_docked.pdbqt
 OpenBabel03212220393D

 34 37  0  0  1  0  0  0  0  0999 V2000
   20.5160   79.5320    9.8270 C   0  0  2  0  0  3  0  0  0  0  0  0
   20.3490   78.1400    9.3910 N   0  0  0  0  0  0  0  0  0  0  0  0
   19.9580   77.4340   10.5600 C   0  0  0  0  0  0  0  0  0  0  0  0
   19.2740   76.3990   10.6110 O   0  0  0  0  0  0  0  0  0  0  0  0
   20.5210   78.1700   11.6880 C   0  0  0  0  0  0  0  0  0  0  0  0
   20.4510   77.9450   12.9330 O   0  0  0  0  0  0  0  0  0  0  0  0
   21.2430   79.3130   11.1110 C   0  0  0  0  0  0  0  0  0  0  0  0
   22.2550   79.9620   11.6540 C   0  0  0  0  0  0  0  0  0  0  0  0
   22.7870   81.0570   10.9680 O   0  0  0  0  0  1  0  0  0  0  0  0
   19.1470   80.0460   10.0750 C   0  0  0  0  0  0  0  0  0  0  0  0
   18.8860   80.9510   11.0810 C   0  0  0  0  0  3  0  0  0  0  0  0
   17.6230   81.4440   11.3320 C   0  0  0  0  0  3  0  0  0  0  0  0
   16.5460   81.0400   10.5660 C   0  0  0  0  0  0  0  0  0  0  0  0
   14.9240   81.6580   10.8710 Cl  0  0  0  0  0  0  0  0  0  0  0  0
   16.7830   80.1380    9.5580 C   0  0  0  0  0  3  0  0  0  0  0  0
   18.0440   79.6480    9.3090 C   0  0  0  0  0  3  0  0  0  0  0  0
   22.8430   79.5860   12.9310 C   0  0  0  0  0  0  0  0  0  0  0  0
   22.3600   80.0650   14.1370 C   0  0  0  0  0  3  0  0  0  0  0  0
   22.9380   79.7270   15.3430 C   0  0  0  0  0  0  0  0  0  0  0  0
   24.0390   78.8840   15.3900 C   0  0  0  0  0  0  0  0  0  0  0  0
   22.3860   80.2630   16.6070 C   0  0  0  0  0  1  0  0  0  0  0  0
   24.5300   78.4010   14.1990 C   0  0  0  0  0  3  0  0  0  0  0  0
   23.9360   78.7510   12.9820 C   0  0  0  0  0  3  0  0  0  0  0  0
   24.6330   78.5320   16.5990 O   0  0  0  0  0  0  0  0  0  0  0  0
   25.8280   79.1560   16.9770 C   0  0  0  0  0  1  0  0  0  0  0  0
   20.5430   77.6080    8.0420 C   0  0  0  0  0  2  0  0  0  0  0  0
   19.2090   77.7220    7.3390 C   0  0  0  0  0  2  0  0  0  0  0  0
   18.3170   76.6440    7.6700 N   0  0  0  0  0  4  0  0  0  0  0  0
   18.9040   75.3810    7.3620 C   0  0  0  0  0  2  0  0  0  0  0  0
   18.5300   74.7860    6.0460 C   0  0  0  0  0  2  0  0  0  0  0  0
   17.2630   75.0730    5.6140 O   0  0  0  0  0  0  0  0  0  0  0  0
   16.9790   76.4320    5.6110 C   0  0  0  0  0  2  0  0  0  0  0  0
   17.0490   76.8930    7.0430 C   0  0  0  0  0  2  0  0  0  0  0  0
   18.1970   76.6890    8.7220 H   0  0  0  0  0  0  0  0  0  0  0  0
  1 10  1  1  0  0  0
  1  7  1  0  0  0  0
  2  1  1  0  0  0  0
  2  3  1  0  0  0  0
  3  4  2  0  0  0  0
  3  5  1  0  0  0  0
  5  6  2  0  0  0  0
  7  8  2  0  0  0  0
  7  5  1  0  0  0  0
  8 17  1  0  0  0  0
  9  8  1  0  0  0  0
 10 11  1  0  0  0  0
 11 12  2  0  0  0  0
 13 14  1  0  0  0  0
 13 12  1  0  0  0  0
 15 13  2  0  0  0  0
 16 15  1  0  0  0  0
 16 10  2  0  0  0  0
 17 23  2  0  0  0  0
 17 18  1  0  0  0  0
 18 19  2  0  0  0  0
 19 20  1  0  0  0  0
 19 21  1  0  0  0  0
 20 24  1  0  0  0  0
 22 20  2  0  0  0  0
 23 22  1  0  0  0  0
 24 25  1  0  0  0  0
 26  2  1  0  0  0  0
 27 28  1  0  0  0  0
 27 26  1  0  0  0  0
 28 34  1  0  0  0  0
 29 28  1  0  0  0  0
 30 29  1  0  0  0  0
 31 30  1  0  0  0  0
 32 31  1  0  0  0  0
 32 33  1  0  0  0  0
 33 28  1  0  0  0  0
M  END
>  <Pose>
1

>  <Score>
-7.832

$$$$
