/Users/jonathanwahrer/Desktop/Msc/3_Semester/Drug_Design_Praktikum/waehrer_HTS_screening/HTS_experiment/out/docking_results/vina_output/6e43/1548_docked.pdbqt
 OpenBabel03212220393D

 24 27  0  0  1  0  0  0  0  0999 V2000
   18.3690   84.2770   22.2050 Cl  0  0  0  0  0  0  0  0  0  0  0  0
   19.1390   83.6110   20.7720 C   0  0  0  0  0  0  0  0  0  0  0  0
   19.4110   82.2670   20.6440 C   0  0  0  0  0  2  0  0  0  0  0  0
   20.0100   81.7520   19.5300 N   0  0  0  0  0  0  0  0  0  0  0  0
   20.3640   82.5380   18.4980 C   0  0  0  0  0  0  0  0  0  0  0  0
   20.9590   82.0280   17.3900 N   0  0  0  0  0  0  0  0  0  0  0  0
   21.2230   80.7100   17.2720 C   0  0  0  0  0  0  0  0  0  0  0  0
   20.8770   79.8830   18.3010 C   0  0  2  0  0  3  0  0  0  0  0  0
   21.1450   78.4110   18.2210 C   0  0  0  0  0  2  0  0  0  0  0  0
   21.1300   78.1020   16.7810 N   0  0  0  0  0  0  0  0  0  0  0  0
   22.1450   78.7830   16.0290 C   0  0  0  0  0  2  0  0  0  0  0  0
   21.8770   80.2780   16.0080 C   0  0  0  0  0  2  0  0  0  0  0  0
   20.1650   77.2130   16.3190 C   0  0  0  0  0  0  0  0  0  0  0  0
   19.3470   76.7040   17.1620 O   0  0  0  0  0  0  0  0  0  0  0  0
   20.2690   80.4370   19.4200 C   0  0  0  0  0  0  0  0  0  0  0  0
   19.9490   79.6890   20.3650 O   0  0  0  0  0  0  0  0  0  0  0  0
   20.0940   83.8920   18.6180 C   0  0  0  0  0  3  0  0  0  0  0  0
   19.4910   84.4410   19.7300 C   0  0  0  0  0  3  0  0  0  0  0  0
   19.9850   76.7880   14.9260 C   0  0  0  0  0  0  0  0  0  0  0  0
   20.5320   77.4470   13.9000 N   0  0  0  0  0  0  0  0  0  0  0  0
   20.3630   77.0530   12.6340 C   0  0  0  0  0  3  0  0  0  0  0  0
   19.6140   75.9410   12.3130 C   0  0  0  0  0  3  0  0  0  0  0  0
   19.0720   75.2900   13.3570 N   0  0  0  0  0  0  0  0  0  0  0  0
   19.2250   75.6620   14.6280 C   0  0  0  0  0  3  0  0  0  0  0  0
  2  1  1  0  0  0  0
  3  2  1  0  0  0  0
  4  3  1  0  0  0  0
  5 17  2  0  0  0  0
  5  4  1  0  0  0  0
  6  5  1  0  0  0  0
  7  6  2  0  0  0  0
  7  8  1  0  0  0  0
  8  9  1  6  0  0  0
  8 15  1  0  0  0  0
 10  9  1  0  0  0  0
 11 10  1  0  0  0  0
 12 11  1  0  0  0  0
 12  7  1  0  0  0  0
 13 10  1  0  0  0  0
 13 14  2  0  0  0  0
 15  4  1  0  0  0  0
 15 16  2  0  0  0  0
 17 18  1  0  0  0  0
 18  2  2  0  0  0  0
 19 13  1  0  0  0  0
 20 19  2  0  0  0  0
 21 20  1  0  0  0  0
 22 21  2  0  0  0  0
 22 23  1  0  0  0  0
 23 24  2  0  0  0  0
 24 19  1  0  0  0  0
M  END
>  <Pose>
1

>  <Score>
-8.854

$$$$
