/Users/jonathanwahrer/Desktop/Msc/3_Semester/Drug_Design_Praktikum/waehrer_HTS_screening/HTS_experiment/out/docking_results/vina_output/6e43/1594_docked.pdbqt
 OpenBabel03212220403D

 27 30  0  0  0  0  0  0  0  0999 V2000
   21.5850   80.1610   17.2610 C   0  0  0  0  0  0  0  0  0  0  0  0
   22.3920   80.5780   16.3500 O   0  0  0  0  0  0  0  0  0  0  0  0
   21.3830   78.7960   17.3280 N   0  0  0  0  0  0  0  0  0  0  0  0
   20.5190   78.1560   18.2900 C   0  0  0  0  0  2  0  0  0  0  0  0
   19.2970   77.5700   17.6150 C   0  0  0  0  0  2  0  0  0  0  0  0
   19.6870   77.0110   16.2770 C   0  0  0  0  0  0  0  0  0  0  0  0
   20.9270   77.1330   15.7110 C   0  0  0  0  0  0  0  0  0  0  0  0
   20.8440   76.4900   14.5170 N   0  0  0  0  0  0  0  0  0  0  0  0
   19.6420   75.9960   14.3330 N   0  0  0  0  0  0  0  0  0  0  0  0
   18.8750   76.2850   15.3920 C   0  0  0  0  0  0  0  0  0  0  0  0
   17.6550   75.9810   15.5900 O   0  0  0  0  0  0  0  0  0  0  0  0
   22.0420   77.8530   16.3910 C   0  0  0  0  0  2  0  0  0  0  0  0
   21.6630   76.4270   13.8650 H   0  0  0  0  0  0  0  0  0  0  0  0
   20.9780   81.1690   18.1130 C   0  0  0  0  0  0  0  0  0  0  0  0
   20.6330   82.4200   17.8100 N   0  0  0  0  0  0  0  0  0  0  0  0
   20.1010   83.0080   18.8930 C   0  0  0  0  0  0  0  0  0  0  0  0
   20.1030   82.1300   19.9020 N   0  0  0  0  0  0  0  0  0  0  0  0
   19.6030   84.3150   19.0300 C   0  0  0  0  0  3  0  0  0  0  0  0
   19.6070   82.5010   21.1160 C   0  0  0  0  0  3  0  0  0  0  0  0
   20.6360   80.9830   19.4610 C   0  0  0  0  0  3  0  0  0  0  0  0
   19.1140   83.7760   21.2780 C   0  0  0  0  0  0  0  0  0  0  0  0
   18.4660   84.2990   22.8210 Cl  0  0  0  0  0  0  0  0  0  0  0  0
   19.1070   84.6920   20.2400 C   0  0  0  0  0  3  0  0  0  0  0  0
   19.1480   75.2360   13.1760 C   0  0  0  0  0  2  0  0  0  0  0  0
   19.2630   73.7490   13.4220 C   0  0  0  0  0  2  0  0  0  0  0  0
   20.3890   73.4240   14.1690 O   0  0  0  0  0  0  0  0  0  0  0  0
   20.7070   74.1970   14.7250 H   0  0  0  0  0  0  0  0  0  0  0  0
  1  3  1  0  0  0  0
  1 14  1  0  0  0  0
  2  1  2  0  0  0  0
  3  4  1  0  0  0  0
  5  4  1  0  0  0  0
  6  5  1  0  0  0  0
  7  6  2  0  0  0  0
  7 12  1  0  0  0  0
  8  7  1  0  0  0  0
  9  8  1  0  0  0  0
  9 10  1  0  0  0  0
 10 11  2  0  0  0  0
 10  6  1  0  0  0  0
 12  3  1  0  0  0  0
 13  8  1  0  0  0  0
 14 20  2  0  0  0  0
 15 14  1  0  0  0  0
 15 16  2  0  0  0  0
 16 18  1  0  0  0  0
 16 17  1  0  0  0  0
 17 19  1  0  0  0  0
 18 23  2  0  0  0  0
 19 21  2  0  0  0  0
 20 17  1  0  0  0  0
 21 22  1  0  0  0  0
 23 21  1  0  0  0  0
 24 25  1  0  0  0  0
 24  9  1  0  0  0  0
 25 26  1  0  0  0  0
 26 27  1  0  0  0  0
M  END
>  <Pose>
1

>  <Score>
-8.581

$$$$
