/Users/jonathanwahrer/Desktop/Msc/3_Semester/Drug_Design_Praktikum/waehrer_HTS_screening/HTS_experiment/out/docking_results/vina_output/6e43/1622_docked.pdbqt
 OpenBabel03212220413D

 28 31  0  0  1  0  0  0  0  0999 V2000
   21.6370   77.6170   15.5470 C   0  0  0  0  0  0  0  0  0  0  0  0
   22.8210   78.0210   15.4170 O   0  0  0  0  0  0  0  0  0  0  0  0
   20.9940   77.5450   16.8130 N   0  0  0  0  0  0  0  0  0  0  0  0
   21.7290   77.9540   17.9900 C   0  0  0  0  0  2  0  0  0  0  0  0
   20.7050   78.4110   19.0120 C   0  0  0  0  0  2  0  0  0  0  0  0
   19.5260   79.1020   18.3620 C   0  0  1  0  0  0  0  0  0  0  0  0
   18.7370   79.6850   19.4230 N   0  0  0  0  0  0  0  0  0  0  0  0
   19.2620   80.9720   19.7140 C   0  0  0  0  0  0  0  0  0  0  0  0
   19.1040   81.6620   20.7700 O   0  0  0  0  0  0  0  0  0  0  0  0
   20.0230   81.3530   18.5640 N   0  0  0  0  0  0  0  0  0  0  0  0
   19.9500   80.3030   17.5990 C   0  0  0  0  0  0  0  0  0  0  0  0
   20.2020   80.4170   16.3680 O   0  0  0  0  0  0  0  0  0  0  0  0
   20.7680   82.5980   18.3600 C   0  0  0  0  0  1  0  0  0  0  0  0
   18.7300   78.1730   17.4950 C   0  0  0  0  0  2  0  0  0  0  0  0
   19.6370   77.0860   17.0050 C   0  0  0  0  0  2  0  0  0  0  0  0
   17.9290   79.2220   19.8790 H   0  0  0  0  0  0  0  0  0  0  0  0
   20.9530   77.2190   14.3130 C   0  0  0  0  0  0  0  0  0  0  0  0
   20.9850   78.0340   13.2030 C   0  0  0  0  0  0  0  0  0  0  0  0
   21.8660   79.5650   13.2990 Cl  0  0  0  0  0  0  0  0  0  0  0  0
   20.3500   77.6860   12.0280 C   0  0  0  0  0  3  0  0  0  0  0  0
   19.6790   76.4860   12.0070 C   0  0  0  0  0  3  0  0  0  0  0  0
   19.6210   75.6350   13.0990 C   0  0  0  0  0  0  0  0  0  0  0  0
   20.2700   76.0240   14.2510 C   0  0  0  0  0  3  0  0  0  0  0  0
   18.9070   74.4020   13.0100 N   0  0  0  0  0  0  0  0  0  0  0  0
   17.7170   74.1810   12.5090 N   0  0  0  0  0  0  0  0  0  0  0  0
   17.4100   72.8560   12.6240 C   0  0  0  0  0  3  0  0  0  0  0  0
   18.4730   72.2240   13.2300 C   0  0  0  0  0  3  0  0  0  0  0  0
   19.4060   73.2380   13.4610 C   0  0  0  0  0  3  0  0  0  0  0  0
  1  3  1  0  0  0  0
  2  1  2  0  0  0  0
  3 15  1  0  0  0  0
  3  4  1  0  0  0  0
  4  5  1  0  0  0  0
  6 14  1  6  0  0  0
  6  5  1  0  0  0  0
  6  7  1  0  0  0  0
  7  8  1  0  0  0  0
  7 16  1  0  0  0  0
  8  9  2  0  0  0  0
 10  8  1  0  0  0  0
 11  6  1  0  0  0  0
 11 10  1  0  0  0  0
 12 11  2  0  0  0  0
 13 10  1  0  0  0  0
 15 14  1  0  0  0  0
 17  1  1  0  0  0  0
 18 19  1  0  0  0  0
 18 17  2  0  0  0  0
 20 18  1  0  0  0  0
 21 20  2  0  0  0  0
 21 22  1  0  0  0  0
 22 23  2  0  0  0  0
 23 17  1  0  0  0  0
 24 22  1  0  0  0  0
 24 28  1  0  0  0  0
 25 26  2  0  0  0  0
 25 24  1  0  0  0  0
 26 27  1  0  0  0  0
 27 28  2  0  0  0  0
M  END
>  <Pose>
1

>  <Score>
-9.772

$$$$
