/Users/jonathanwahrer/Desktop/Msc/3_Semester/Drug_Design_Praktikum/waehrer_HTS_screening/HTS_experiment/out/docking_results/vina_output/6e43/1624_docked.pdbqt
 OpenBabel03212220413D

 32 35  0  0  1  0  0  0  0  0999 V2000
   20.7330   79.8210   17.1990 C   0  0  1  0  0  3  0  0  0  0  0  0
   20.0570   78.5280   17.4150 N   0  0  0  0  0  0  0  0  0  0  0  0
   20.0800   78.2420   18.8070 C   0  0  0  0  0  0  0  0  0  0  0  0
   19.9490   77.1410   19.3460 O   0  0  0  0  0  0  0  0  0  0  0  0
   20.2900   79.5210   19.5130 C   0  0  0  0  0  0  0  0  0  0  0  0
   20.3780   79.7160   20.7680 O   0  0  0  0  0  0  0  0  0  0  0  0
   20.3810   80.5320   18.4720 C   0  0  0  0  0  0  0  0  0  0  0  0
   20.2100   81.8140   18.6750 C   0  0  0  0  0  0  0  0  0  0  0  0
   20.3710   82.6740   17.5930 O   0  0  0  0  0  1  0  0  0  0  0  0
   19.4960   77.7820   16.3180 C   0  0  0  0  0  2  0  0  0  0  0  0
   20.0170   76.4070   16.1360 C   0  0  0  0  0  2  0  0  0  0  0  0
   20.2340   75.9250   14.8230 N   0  0  0  0  0  4  0  0  0  0  0  0
   20.8320   76.8940   13.9290 C   0  0  0  0  0  2  0  0  0  0  0  0
   20.0300   77.1370   12.6730 C   0  0  0  0  0  2  0  0  0  0  0  0
   19.6270   76.0020   12.0190 O   0  0  0  0  0  0  0  0  0  0  0  0
   19.0720   75.0480   12.8510 C   0  0  0  0  0  2  0  0  0  0  0  0
   18.9150   75.6210   14.2270 C   0  0  0  0  0  2  0  0  0  0  0  0
   20.7310   75.0200   14.7910 H   0  0  0  0  0  0  0  0  0  0  0  0
   22.1660   79.6070   17.0440 C   0  0  0  0  0  0  0  0  0  0  0  0
   22.8850   78.7870   17.8530 C   0  0  0  0  0  3  0  0  0  0  0  0
   24.2480   78.5730   17.7040 C   0  0  0  0  0  3  0  0  0  0  0  0
   24.9170   79.2110   16.7010 C   0  0  0  0  0  0  0  0  0  0  0  0
   26.6270   78.9870   16.4580 Cl  0  0  0  0  0  0  0  0  0  0  0  0
   24.2060   80.0620   15.8520 C   0  0  0  0  0  3  0  0  0  0  0  0
   22.8540   80.2570   16.0200 C   0  0  0  0  0  3  0  0  0  0  0  0
   19.8560   82.4400   19.9450 C   0  0  0  0  0  0  0  0  0  0  0  0
   20.8420   82.4380   20.9250 C   0  0  0  0  0  3  0  0  0  0  0  0
   20.5900   83.0290   22.1310 C   0  0  0  0  0  3  0  0  0  0  0  0
   19.3740   83.6300   22.3960 C   0  0  0  0  0  0  0  0  0  0  0  0
   18.4000   83.6300   21.4200 C   0  0  0  0  0  3  0  0  0  0  0  0
   19.1000   84.3670   23.9400 Cl  0  0  0  0  0  0  0  0  0  0  0  0
   18.6670   83.0300   20.2060 C   0  0  0  0  0  3  0  0  0  0  0  0
  1 19  1  1  0  0  0
  1  2  1  0  0  0  0
  1  7  1  0  0  0  0
  2  3  1  0  0  0  0
  3  4  2  0  0  0  0
  3  5  1  0  0  0  0
  5  6  2  0  0  0  0
  7  8  2  0  0  0  0
  7  5  1  0  0  0  0
  8 26  1  0  0  0  0
  9  8  1  0  0  0  0
 10  2  1  0  0  0  0
 11 10  1  0  0  0  0
 12 11  1  0  0  0  0
 13 12  1  0  0  0  0
 14 13  1  0  0  0  0
 15 14  1  0  0  0  0
 15 16  1  0  0  0  0
 16 17  1  0  0  0  0
 17 12  1  0  0  0  0
 18 12  1  0  0  0  0
 19 20  1  0  0  0  0
 21 20  2  0  0  0  0
 22 21  1  0  0  0  0
 23 22  1  0  0  0  0
 24 25  1  0  0  0  0
 24 22  2  0  0  0  0
 25 19  2  0  0  0  0
 26 32  2  0  0  0  0
 26 27  1  0  0  0  0
 27 28  2  0  0  0  0
 28 29  1  0  0  0  0
 29 31  1  0  0  0  0
 30 29  2  0  0  0  0
 32 30  1  0  0  0  0
M  END
>  <Pose>
1

>  <Score>
-10.408

$$$$
