/Users/jonathanwahrer/Desktop/Msc/3_Semester/Drug_Design_Praktikum/waehrer_HTS_screening/HTS_experiment/out/docking_results/vina_output/6e43/1630_docked.pdbqt
 OpenBabel03212220423D

 39 43  0  0  1  0  0  0  0  0999 V2000
   19.6070   84.2580   19.3900 Cl  0  0  0  0  0  0  0  0  0  0  0  0
   19.9570   82.5840   18.9330 C   0  0  0  0  0  0  0  0  0  0  0  0
   19.8130   81.5750   19.8530 C   0  0  0  0  0  0  0  0  0  0  0  0
   20.0860   80.2610   19.4960 C   0  0  0  0  0  0  0  0  0  0  0  0
   20.5030   79.8940   18.2460 C   0  0  0  0  0  0  0  0  0  0  0  0
   20.6410   80.9450   17.3260 C   0  0  0  0  0  3  0  0  0  0  0  0
   20.3730   82.2520   17.6690 C   0  0  0  0  0  3  0  0  0  0  0  0
   20.7020   78.4550   18.2030 C   0  0  1  0  0  0  0  0  0  0  0  0
   19.7610   77.9020   17.2320 N   0  0  0  0  0  0  0  0  0  0  0  0
   20.5930   77.6260   16.0930 C   0  0  1  0  0  3  0  0  0  0  0  0
   21.8080   76.9970   16.7370 C   0  0  2  0  0  3  0  0  0  0  0  0
   22.0710   77.9910   17.8470 C   0  0  1  0  0  3  0  0  0  0  0  0
   22.9740   78.9610   17.2620 C   0  0  0  0  0  0  0  0  0  0  0  0
   23.2430   80.0980   17.7080 O   0  0  0  0  0  0  0  0  0  0  0  0
   23.5270   78.4210   16.0700 N   0  0  0  0  0  0  0  0  0  0  0  0
   23.0060   77.1060   15.8680 C   0  0  0  0  0  0  0  0  0  0  0  0
   23.4220   76.1840   15.1270 O   0  0  0  0  0  0  0  0  0  0  0  0
   20.3510   77.9770   19.5620 C   0  0  0  0  0  0  0  0  0  0  0  0
   20.3670   76.7870   19.9950 O   0  0  0  0  0  0  0  0  0  0  0  0
   19.9850   79.1070   20.3220 N   0  0  0  0  0  0  0  0  0  0  0  0
   19.3610   81.9230   21.2290 C   0  0  0  0  0  1  0  0  0  0  0  0
   18.9960   78.5870   17.0560 H   0  0  0  0  0  0  0  0  0  0  0  0
   19.6880   79.0810   21.3340 H   0  0  0  0  0  0  0  0  0  0  0  0
   19.9120   76.6860   15.1240 C   0  0  0  0  0  2  0  0  0  0  0  0
   20.3910   77.0650   13.7390 C   0  0  0  0  0  2  0  0  0  0  0  0
   19.6140   76.3750   12.6790 C   0  0  0  0  0  0  0  0  0  0  0  0
   19.5390   76.8920   11.5290 O   0  0  0  0  0  0  0  0  0  0  0  0
   18.9870   75.1480   13.0250 N   0  0  0  0  0  0  0  0  0  0  0  0
   19.4840   74.5090   13.6680 H   0  0  0  0  0  0  0  0  0  0  0  0
   18.0430   74.9580   12.6020 H   0  0  0  0  0  0  0  0  0  0  0  0
   24.4720   79.0270   15.1500 C   0  0  0  0  0  2  0  0  0  0  0  0
   23.9150   79.1690   13.7930 C   0  0  0  0  0  0  0  0  0  0  0  0
   22.9840   80.1630   13.5790 C   0  0  0  0  0  0  0  0  0  0  0  0
   22.4630   80.2910   12.2980 C   0  0  0  0  0  3  0  0  0  0  0  0
   22.8530   79.4660   11.2810 C   0  0  0  0  0  3  0  0  0  0  0  0
   23.7850   78.4880   11.5350 C   0  0  0  0  0  3  0  0  0  0  0  0
   24.3390   78.3090   12.7840 C   0  0  0  0  0  3  0  0  0  0  0  0
   22.6050   80.9830   14.6200 O   0  0  0  0  0  0  0  0  0  0  0  0
   23.3640   82.0370   15.1230 C   0  0  0  0  0  1  0  0  0  0  0  0
  2  1  1  0  0  0  0
  2  3  1  0  0  0  0
  3 21  1  0  0  0  0
  4  3  2  0  0  0  0
  4 20  1  0  0  0  0
  5  4  1  0  0  0  0
  6  7  1  0  0  0  0
  6  5  2  0  0  0  0
  7  2  2  0  0  0  0
  8  5  1  6  0  0  0
  8 18  1  0  0  0  0
  9  8  1  0  0  0  0
 10 24  1  6  0  0  0
 10 11  1  0  0  0  0
 10  9  1  0  0  0  0
 11 16  1  6  0  0  0
 11 12  1  0  0  0  0
 12 13  1  6  0  0  0
 12  8  1  0  0  0  0
 13 14  2  0  0  0  0
 15 13  1  0  0  0  0
 16 15  1  0  0  0  0
 17 16  2  0  0  0  0
 18 19  2  0  0  0  0
 18 20  1  0  0  0  0
 20 23  1  0  0  0  0
 22  9  1  0  0  0  0
 25 24  1  0  0  0  0
 26 28  1  0  0  0  0
 26 25  1  0  0  0  0
 27 26  2  0  0  0  0
 28 29  1  0  0  0  0
 30 28  1  0  0  0  0
 31 15  1  0  0  0  0
 32 31  1  0  0  0  0
 33 32  1  0  0  0  0
 33 38  1  0  0  0  0
 34 33  2  0  0  0  0
 35 36  2  0  0  0  0
 35 34  1  0  0  0  0
 36 37  1  0  0  0  0
 37 32  2  0  0  0  0
 38 39  1  0  0  0  0
M  END
>  <Pose>
1

>  <Score>
-7.195

$$$$
