/Users/jonathanwahrer/Desktop/Msc/3_Semester/Drug_Design_Praktikum/waehrer_HTS_screening/HTS_experiment/out/docking_results/vina_output/6e43/1637_docked.pdbqt
 OpenBabel03212220423D

 29 32  0  0  0  0  0  0  0  0999 V2000
   21.8830   78.5890   13.3980 C   0  0  0  0  0  0  0  0  0  0  0  0
   22.5330   79.1710   14.4120 N   0  0  0  0  0  0  0  0  0  0  0  0
   22.4560   78.7750   15.6790 C   0  0  0  0  0  0  0  0  0  0  0  0
   21.6250   77.6780   15.9570 C   0  0  0  0  0  0  0  0  0  0  0  0
   20.9710   77.0950   14.9300 C   0  0  0  0  0  0  0  0  0  0  0  0
   21.1060   77.5520   13.6540 N   0  0  0  0  0  0  0  0  0  0  0  0
   21.4630   77.3700   17.3800 C   0  0  0  0  0  2  0  0  0  0  0  0
   21.1240   78.6110   18.0060 N   0  0  0  0  0  0  0  0  0  0  0  0
   22.4840   79.2980   18.1420 C   0  0  0  0  0  2  0  0  0  0  0  0
   23.1570   79.4210   16.8210 C   0  0  0  0  0  2  0  0  0  0  0  0
   20.4060   79.6310   17.1590 C   0  0  0  0  0  2  0  0  0  0  0  0
   19.9940   80.6090   18.2610 C   0  0  0  0  0  0  0  0  0  0  0  0
   20.3690   81.8930   18.3520 C   0  0  0  0  0  0  0  0  0  0  0  0
   19.9580   82.7670   19.3950 C   0  0  0  0  0  0  0  0  0  0  0  0
   21.3670   82.5450   17.0970 Cl  0  0  0  0  0  0  0  0  0  0  0  0
   19.1090   82.1820   20.3380 C   0  0  0  0  0  0  0  0  0  0  0  0
   20.3130   84.0660   19.5290 C   0  0  0  0  0  3  0  0  0  0  0  0
   18.6810   82.9740   21.3630 C   0  0  0  0  0  3  0  0  0  0  0  0
   18.7330   80.9520   20.2520 O   0  0  0  0  0  0  0  0  0  0  0  0
   19.0420   84.3300   21.5250 C   0  0  0  0  0  3  0  0  0  0  0  0
   19.8930   84.8750   20.5470 C   0  0  0  0  0  3  0  0  0  0  0  0
   19.1390   80.1470   19.2590 C   0  0  0  0  0  0  0  0  0  0  0  0
   18.7630   78.9140   19.1940 O   0  0  0  0  0  0  0  0  0  0  0  0
   20.1600   76.0020   15.1990 O   0  0  0  0  0  0  0  0  0  0  0  0
   20.0910   75.1790   14.5930 H   0  0  0  0  0  0  0  0  0  0  0  0
   22.0210   79.3110   11.7850 S   0  0  0  0  0  0  0  0  0  0  0  0
   22.8380   78.5180   10.8930 O   0  0  0  0  0  0  0  0  0  0  0  0
   22.5790   80.6890   11.9820 O   0  0  0  0  0  0  0  0  0  0  0  0
   20.3190   79.5020   11.1990 C   0  0  0  0  0  1  0  0  0  0  0  0
  1  6  1  0  0  0  0
  1  2  2  0  0  0  0
  2  3  1  0  0  0  0
  3  4  2  0  0  0  0
  3 10  1  0  0  0  0
  4  7  1  0  0  0  0
  5 24  1  0  0  0  0
  5  4  1  0  0  0  0
  6  5  2  0  0  0  0
  7  8  1  0  0  0  0
  8  9  1  0  0  0  0
 10  9  1  0  0  0  0
 11  8  1  0  0  0  0
 11 12  1  0  0  0  0
 12 13  2  0  0  0  0
 12 22  1  0  0  0  0
 13 14  1  0  0  0  0
 14 17  2  0  0  0  0
 14 16  1  0  0  0  0
 15 13  1  0  0  0  0
 16 18  2  0  0  0  0
 17 21  1  0  0  0  0
 18 20  1  0  0  0  0
 19 16  1  0  0  0  0
 21 20  2  0  0  0  0
 22 19  1  0  0  0  0
 23 22  2  0  0  0  0
 25 24  1  0  0  0  0
 26 28  2  0  0  0  0
 26  1  1  0  0  0  0
 27 26  2  0  0  0  0
 29 26  1  0  0  0  0
M  END
>  <Pose>
1

>  <Score>
-9.110

$$$$
