/Users/jonathanwahrer/Desktop/Msc/3_Semester/Drug_Design_Praktikum/waehrer_HTS_screening/HTS_experiment/out/docking_results/vina_output/6e43/1638_docked.pdbqt
 OpenBabel03212220423D

 38 41  0  0  1  0  0  0  0  0999 V2000
   22.0070   78.5750   15.0300 C   0  0  0  0  0  0  0  0  0  0  0  0
   22.1720   79.4710   13.9820 C   0  0  0  0  0  0  0  0  0  0  0  0
   21.8050   79.1110   12.7230 N   0  0  0  0  0  0  0  0  0  0  0  0
   21.2810   77.9120   12.4360 C   0  0  0  0  0  0  0  0  0  0  0  0
   21.1190   77.0390   13.4450 N   0  0  0  0  0  0  0  0  0  0  0  0
   21.4660   77.3490   14.7060 C   0  0  0  0  0  3  0  0  0  0  0  0
   20.8930   77.5380   11.1160 N   0  0  0  0  0  0  0  0  0  0  0  0
   19.9000   76.5210   10.8650 C   0  0  0  0  0  2  0  0  0  0  0  0
   18.7630   76.9690    9.9890 C   0  0  0  0  0  2  0  0  0  0  0  0
   19.1560   78.1250    9.0840 C   0  0  2  0  0  0  0  0  0  0  0  0
   20.6360   77.8470    8.7690 C   0  0  0  0  0  2  0  0  0  0  0  0
   21.4890   78.1670    9.9510 C   0  0  0  0  0  2  0  0  0  0  0  0
   19.0430   79.3830    9.6500 N   0  0  0  0  0  0  0  0  0  0  0  0
   17.8200   80.0860    9.6720 C   0  0  0  0  0  2  0  0  0  0  0  0
   17.8060   80.9340   10.9550 C   0  0  0  0  0  2  0  0  0  0  0  0
   19.2330   81.1640   11.3740 C   0  0  0  0  0  2  0  0  0  0  0  0
   20.1450   81.4190   10.2010 C   0  0  0  0  0  2  0  0  0  0  0  0
   20.0440   80.2990    9.1790 C   0  0  0  0  0  2  0  0  0  0  0  0
   18.4370   77.9580    7.8000 C   0  0  0  0  0  0  0  0  0  0  0  0
   18.8220   78.5770    6.7520 O   0  0  0  0  0  0  0  0  0  0  0  0
   17.3150   77.1350    7.6460 N   0  0  0  0  0  0  0  0  0  0  0  0
   16.3670   77.5940    7.5660 H   0  0  0  0  0  0  0  0  0  0  0  0
   17.3070   76.0970    7.5930 H   0  0  0  0  0  0  0  0  0  0  0  0
   22.7210   80.7300   14.2890 N   0  0  0  0  0  0  0  0  0  0  0  0
   23.7430   80.9280   14.2920 H   0  0  0  0  0  0  0  0  0  0  0  0
   22.0820   81.5160   14.5280 H   0  0  0  0  0  0  0  0  0  0  0  0
   22.4620   78.9940   16.6680 S   0  0  0  0  0  0  0  0  0  0  0  0
   22.7870   77.7820   17.4790 O   0  0  0  0  0  0  0  0  0  0  0  0
   23.6290   79.9440   16.5830 O   0  0  0  0  0  0  0  0  0  0  0  0
   21.1080   79.8720   17.3940 C   0  0  0  0  0  0  0  0  0  0  0  0
   19.9660   79.1940   17.7700 C   0  0  0  0  0  0  0  0  0  0  0  0
   18.9370   79.9190   18.3320 C   0  0  0  0  0  3  0  0  0  0  0  0
   19.0310   81.2940   18.5210 C   0  0  0  0  0  3  0  0  0  0  0  0
   20.1870   81.9350   18.1340 C   0  0  0  0  0  0  0  0  0  0  0  0
   21.2350   81.2370   17.5680 C   0  0  0  0  0  3  0  0  0  0  0  0
   20.3240   83.6830   18.3670 Cl  0  0  0  0  0  0  0  0  0  0  0  0
   19.9100   77.8430   17.5670 O   0  0  0  0  0  0  0  0  0  0  0  0
   18.8490   77.1550   16.9650 C   0  0  0  0  0  1  0  0  0  0  0  0
  1 27  1  0  0  0  0
  2 24  1  0  0  0  0
  2  1  2  0  0  0  0
  3  2  1  0  0  0  0
  4  3  2  0  0  0  0
  4  5  1  0  0  0  0
  5  6  2  0  0  0  0
  6  1  1  0  0  0  0
  7  4  1  0  0  0  0
  8  7  1  0  0  0  0
  9  8  1  0  0  0  0
 10 19  1  6  0  0  0
 10 13  1  0  0  0  0
 10  9  1  0  0  0  0
 11 10  1  0  0  0  0
 11 12  1  0  0  0  0
 12  7  1  0  0  0  0
 13 14  1  0  0  0  0
 14 15  1  0  0  0  0
 15 16  1  0  0  0  0
 17 16  1  0  0  0  0
 18 13  1  0  0  0  0
 18 17  1  0  0  0  0
 20 19  2  0  0  0  0
 21 19  1  0  0  0  0
 22 21  1  0  0  0  0
 23 21  1  0  0  0  0
 24 25  1  0  0  0  0
 24 26  1  0  0  0  0
 27 30  1  0  0  0  0
 27 28  2  0  0  0  0
 29 27  2  0  0  0  0
 30 35  2  0  0  0  0
 30 31  1  0  0  0  0
 31 32  2  0  0  0  0
 32 33  1  0  0  0  0
 34 36  1  0  0  0  0
 34 33  2  0  0  0  0
 35 34  1  0  0  0  0
 37 31  1  0  0  0  0
 38 37  1  0  0  0  0
M  END
>  <Pose>
1

>  <Score>
-6.889

$$$$
