/Users/jonathanwahrer/Desktop/Msc/3_Semester/Drug_Design_Praktikum/waehrer_HTS_screening/HTS_experiment/out/docking_results/vina_output/6e43/1657_docked.pdbqt
 OpenBabel03212220433D

 33 36  0  0  1  0  0  0  0  0999 V2000
   22.1870   79.1550    9.5100 Cl  0  0  0  0  0  0  0  0  0  0  0  0
   22.1510   78.9290   11.2630 C   0  0  0  0  0  0  0  0  0  0  0  0
   23.3180   78.6820   11.9550 C   0  0  0  0  0  3  0  0  0  0  0  0
   23.2870   78.5120   13.3010 C   0  0  0  0  0  0  0  0  0  0  0  0
   22.0720   78.5830   13.9970 C   0  0  0  0  0  0  0  0  0  0  0  0
   20.9220   78.8300   13.2870 C   0  0  0  0  0  3  0  0  0  0  0  0
   20.9360   79.0080   11.9100 C   0  0  0  0  0  3  0  0  0  0  0  0
   22.0320   78.4070   15.4090 N   0  0  0  0  0  0  0  0  0  0  0  0
   23.2180   78.7210   16.1920 C   0  0  2  0  0  0  0  0  0  0  0  0
   24.3270   78.0820   15.5240 N   0  0  0  0  0  0  0  0  0  0  0  0
   24.4650   78.2460   14.1220 C   0  0  0  0  0  0  0  0  0  0  0  0
   25.5710   78.1750   13.5270 O   0  0  0  0  0  0  0  0  0  0  0  0
   23.0440   78.1550   17.5620 C   0  0  0  0  0  2  0  0  0  0  0  0
   22.3170   79.0830   18.5070 C   0  0  0  0  0  2  0  0  0  0  0  0
   21.1170   79.6320   17.9130 N   0  0  0  0  0  0  0  0  0  0  0  0
   21.1320   80.4580   16.7220 C   0  0  0  0  0  0  0  0  0  0  0  0
   20.0050   80.7370   16.2530 O   0  0  0  0  0  0  0  0  0  0  0  0
   22.2680   81.0200   15.9740 C   0  0  0  0  0  2  0  0  0  0  0  0
   23.5120   80.2070   16.1730 C   0  0  0  0  0  2  0  0  0  0  0  0
   21.1410   78.0560   15.8170 H   0  0  0  0  0  0  0  0  0  0  0  0
   25.0350   77.5050   16.0200 H   0  0  0  0  0  0  0  0  0  0  0  0
   19.8490   79.3680   18.4600 C   0  0  0  0  0  2  0  0  0  0  0  0
   19.1080   80.3590   19.2070 C   0  0  0  0  0  0  0  0  0  0  0  0
   17.9230   79.8820   19.5920 O   0  0  0  0  0  0  0  0  0  0  0  0
   19.4270   81.6490   19.5650 N   0  0  0  0  0  0  0  0  0  0  0  0
   18.4370   82.4340   20.3470 C   0  0  0  0  0  2  0  0  0  0  0  0
   20.6240   82.3430   19.2920 C   0  0  0  0  0  2  0  0  0  0  0  0
   19.2770   83.0950   21.4520 C   0  0  0  0  0  2  0  0  0  0  0  0
   20.4980   82.3940   21.6680 N   0  0  0  0  0  0  0  0  0  0  0  0
   21.4530   82.4590   20.6030 C   0  0  0  0  0  2  0  0  0  0  0  0
   21.0540   82.4900   22.9750 C   0  0  0  0  0  3  0  0  0  0  0  0
   20.1790   83.2430   23.9560 C   0  0  0  0  0  1  0  0  0  0  0  0
   21.4280   81.1600   23.5690 C   0  0  0  0  0  1  0  0  0  0  0  0
  1  2  1  0  0  0  0
  2  7  2  0  0  0  0
  2  3  1  0  0  0  0
  3  4  2  0  0  0  0
  4  5  1  0  0  0  0
  4 11  1  0  0  0  0
  5  8  1  0  0  0  0
  6  5  2  0  0  0  0
  7  6  1  0  0  0  0
  8 20  1  0  0  0  0
  8  9  1  0  0  0  0
  9 19  1  1  0  0  0
  9 13  1  0  0  0  0
 10 21  1  0  0  0  0
 10  9  1  0  0  0  0
 11 10  1  0  0  0  0
 12 11  2  0  0  0  0
 13 14  1  0  0  0  0
 15 22  1  0  0  0  0
 15 14  1  0  0  0  0
 16 15  1  0  0  0  0
 17 16  2  0  0  0  0
 18 19  1  0  0  0  0
 18 16  1  0  0  0  0
 22 23  1  0  0  0  0
 23 25  1  0  0  0  0
 23 24  2  0  0  0  0
 25 26  1  0  0  0  0
 26 28  1  0  0  0  0
 27 25  1  0  0  0  0
 27 30  1  0  0  0  0
 28 29  1  0  0  0  0
 29 31  1  0  0  0  0
 30 29  1  0  0  0  0
 31 33  1  0  0  0  0
 31 32  1  0  0  0  0
M  END
>  <Pose>
1

>  <Score>
-6.143

$$$$
