/Users/jonathanwahrer/Desktop/Msc/3_Semester/Drug_Design_Praktikum/waehrer_HTS_screening/HTS_experiment/out/docking_results/vina_output/6e43/1660_docked.pdbqt
 OpenBabel03212220433D

 31 34  0  0  0  0  0  0  0  0999 V2000
   19.4300   76.3930   11.1690 N   0  0  0  0  0  0  0  0  0  0  0  0
   19.3000   76.9600   10.0000 N   0  0  0  0  0  0  0  0  0  0  0  0
   20.0100   78.0880    9.8930 C   0  0  0  0  0  3  0  0  0  0  0  0
   20.6580   78.2680   11.1070 C   0  0  0  0  0  0  0  0  0  0  0  0
   20.2670   77.1810   11.8820 C   0  0  0  0  0  0  0  0  0  0  0  0
   20.7630   77.1280   13.1210 N   0  0  0  0  0  0  0  0  0  0  0  0
   21.6000   78.0790   13.5910 C   0  0  0  0  0  3  0  0  0  0  0  0
   21.9950   79.1380   12.8680 N   0  0  0  0  0  0  0  0  0  0  0  0
   21.5100   79.2270   11.6030 C   0  0  0  0  0  0  0  0  0  0  0  0
   21.8510   80.2030   10.8880 O   0  0  0  0  0  0  0  0  0  0  0  0
   22.9140   80.1650   13.3690 C   0  0  0  0  0  2  0  0  0  0  0  0
   23.6430   79.7180   14.5690 C   0  0  0  0  0  0  0  0  0  0  0  0
   24.7580   79.1330   14.3300 O   0  0  0  0  0  0  0  0  0  0  0  0
   23.2480   79.8680   15.8960 N   0  0  0  0  0  0  0  0  0  0  0  0
   24.0530   79.3120   16.9950 C   0  0  0  0  0  2  0  0  0  0  0  0
   22.0600   80.5910   16.2920 C   0  0  0  0  0  2  0  0  0  0  0  0
   23.1510   78.2350   17.6130 C   0  0  0  0  0  2  0  0  0  0  0  0
   21.8590   78.7840   17.9280 N   0  0  0  0  0  0  0  0  0  0  0  0
   21.6580   80.2010   17.6910 C   0  0  0  0  0  2  0  0  0  0  0  0
   20.8150   77.9730   18.4240 C   0  0  0  0  0  0  0  0  0  0  0  0
   21.0530   76.7150   18.5530 O   0  0  0  0  0  0  0  0  0  0  0  0
   19.5580   78.3970   18.7900 O   0  0  0  0  0  0  0  0  0  0  0  0
   19.3310   79.0150   20.0720 C   0  0  0  0  0  2  0  0  0  0  0  0
   18.9640   80.4600   19.7850 C   0  0  0  0  0  1  0  0  0  0  0  0
   18.8340   75.1830   11.6100 C   0  0  0  0  0  0  0  0  0  0  0  0
   18.4920   74.8980   12.9060 C   0  0  0  0  0  3  0  0  0  0  0  0
   17.9450   73.6720   13.2310 C   0  0  0  0  0  3  0  0  0  0  0  0
   17.7140   72.6820   12.3030 C   0  0  0  0  0  0  0  0  0  0  0  0
   17.0330   71.1330   12.6860 Cl  0  0  0  0  0  0  0  0  0  0  0  0
   18.0510   72.9510   10.9890 C   0  0  0  0  0  3  0  0  0  0  0  0
   18.5950   74.1800   10.6860 C   0  0  0  0  0  3  0  0  0  0  0  0
  1 25  1  0  0  0  0
  1  5  1  0  0  0  0
  2  1  1  0  0  0  0
  3  2  2  0  0  0  0
  3  4  1  0  0  0  0
  4  9  1  0  0  0  0
  4  5  2  0  0  0  0
  5  6  1  0  0  0  0
  6  7  2  0  0  0  0
  8 11  1  0  0  0  0
  8  7  1  0  0  0  0
  9  8  1  0  0  0  0
 10  9  2  0  0  0  0
 11 12  1  0  0  0  0
 12 14  1  0  0  0  0
 13 12  2  0  0  0  0
 14 16  1  0  0  0  0
 14 15  1  0  0  0  0
 15 17  1  0  0  0  0
 16 19  1  0  0  0  0
 17 18  1  0  0  0  0
 18 20  1  0  0  0  0
 19 18  1  0  0  0  0
 20 21  2  0  0  0  0
 20 22  1  0  0  0  0
 22 23  1  0  0  0  0
 24 23  1  0  0  0  0
 25 26  1  0  0  0  0
 26 27  2  0  0  0  0
 28 29  1  0  0  0  0
 28 27  1  0  0  0  0
 30 28  2  0  0  0  0
 31 30  1  0  0  0  0
 31 25  2  0  0  0  0
M  END
>  <Pose>
1

>  <Score>
-9.812

$$$$
