/Users/jonathanwahrer/Desktop/Msc/3_Semester/Drug_Design_Praktikum/waehrer_HTS_screening/HTS_experiment/out/docking_results/vina_output/6e43/1676_docked.pdbqt
 OpenBabel03212220433D

 25 28  0  0  0  0  0  0  0  0999 V2000
   20.4760   81.2660   17.7140 C   0  0  0  0  0  0  0  0  0  0  0  0
   19.4560   81.2860   16.9980 O   0  0  0  0  0  0  0  0  0  0  0  0
   20.8070   82.4220   18.4640 N   0  0  0  0  0  0  0  0  0  0  0  0
   21.6500   82.4190   19.0620 H   0  0  0  0  0  0  0  0  0  0  0  0
   21.2830   80.0510   17.7460 C   0  0  0  0  0  0  0  0  0  0  0  0
   20.7420   78.9180   18.3280 C   0  0  0  0  0  0  0  0  0  0  0  0
   21.4830   77.7630   18.3720 C   0  0  0  0  0  0  0  0  0  0  0  0
   19.5440   78.6640   18.9190 N   0  0  0  0  0  0  0  0  0  0  0  0
   22.7490   77.7520   17.8340 C   0  0  0  0  0  3  0  0  0  0  0  0
   20.7110   76.8360   18.9880 N   0  0  0  0  0  0  0  0  0  0  0  0
   23.2940   78.8770   17.2540 C   0  0  0  0  0  0  0  0  0  0  0  0
   25.0570   78.8330   16.5150 Br  0  0  0  0  0  0  0  0  0  0  0  0
   22.5610   80.0340   17.2070 C   0  0  0  0  0  3  0  0  0  0  0  0
   19.5660   77.4160   19.2970 N   0  0  0  0  0  0  0  0  0  0  0  0
   18.8130   79.4000   19.0030 H   0  0  0  0  0  0  0  0  0  0  0  0
   19.9900   83.6090   18.4130 C   0  0  0  0  0  2  0  0  0  0  0  0
   19.6020   83.9950   19.8140 C   0  0  0  0  0  0  0  0  0  0  0  0
   19.7850   83.2750   20.9320 N   0  0  0  0  0  0  0  0  0  0  0  0
   19.3130   83.9370   22.0100 C   0  0  0  0  0  0  0  0  0  0  0  0
   20.3700   81.9760   21.1810 C   0  0  0  0  0  2  0  0  0  0  0  0
   18.8270   85.0950   21.5460 N   0  0  0  0  0  0  0  0  0  0  0  0
   19.4530   83.2490   23.3220 C   0  0  0  0  0  2  0  0  0  0  0  0
   19.0010   85.1320   20.2160 N   0  0  0  0  0  0  0  0  0  0  0  0
   20.9460   82.9030   23.4230 C   0  0  0  0  0  2  0  0  0  0  0  0
   21.4370   82.1290   22.2430 C   0  0  0  0  0  2  0  0  0  0  0  0
  1  5  1  0  0  0  0
  1  3  1  0  0  0  0
  2  1  2  0  0  0  0
  3  4  1  0  0  0  0
  5  6  1  0  0  0  0
  6  7  2  0  0  0  0
  6  8  1  0  0  0  0
  7 10  1  0  0  0  0
  8 15  1  0  0  0  0
  8 14  1  0  0  0  0
  9  7  1  0  0  0  0
 10 14  2  0  0  0  0
 11  9  2  0  0  0  0
 12 11  1  0  0  0  0
 13 11  1  0  0  0  0
 13  5  2  0  0  0  0
 16  3  1  0  0  0  0
 16 17  1  0  0  0  0
 17 23  2  0  0  0  0
 17 18  1  0  0  0  0
 18 20  1  0  0  0  0
 18 19  1  0  0  0  0
 19 22  1  0  0  0  0
 20 25  1  0  0  0  0
 21 19  2  0  0  0  0
 22 24  1  0  0  0  0
 23 21  1  0  0  0  0
 25 24  1  0  0  0  0
M  END
>  <Pose>
1

>  <Score>
-9.691

$$$$
