/Users/jonathanwahrer/Desktop/Msc/3_Semester/Drug_Design_Praktikum/waehrer_HTS_screening/HTS_experiment/out/docking_results/vina_output/6e43/1689_docked.pdbqt
 OpenBabel03212220443D

 32 35  0  0  1  0  0  0  0  0999 V2000
   21.9850   78.9210   11.5430 C   0  0  0  0  0  0  0  0  0  0  0  0
   22.5810   78.2940   10.6330 O   0  0  0  0  0  0  0  0  0  0  0  0
   22.7310   79.3490   12.6610 N   0  0  0  0  0  0  0  0  0  0  0  0
   22.3240   80.0710   13.8490 C   0  0  0  0  0  2  0  0  0  0  0  0
   23.0830   79.4210   14.9190 C   0  0  2  0  0  3  0  0  0  0  0  0
   24.1300   78.5270   14.2520 C   0  0  1  0  0  3  0  0  0  0  0  0
   24.1450   79.1360   12.8340 C   0  0  0  0  0  2  0  0  0  0  0  0
   20.5370   79.1700   11.3900 C   0  0  0  0  0  2  0  0  0  0  0  0
   19.9470   78.2290   10.3850 C   0  0  0  0  0  2  0  0  0  0  0  0
   19.5700   76.9450   11.0060 C   0  0  0  0  0  0  0  0  0  0  0  0
   19.0880   75.8570   10.3430 N   0  0  0  0  0  0  0  0  0  0  0  0
   18.8280   74.8480   11.1890 C   0  0  0  0  0  0  0  0  0  0  0  0
   18.9230   75.7630    9.3100 H   0  0  0  0  0  0  0  0  0  0  0  0
   18.3420   73.5590   11.0480 C   0  0  0  0  0  3  0  0  0  0  0  0
   19.1560   75.3050   12.4420 C   0  0  0  0  0  0  0  0  0  0  0  0
   18.1840   72.7350   12.1540 C   0  0  0  0  0  0  0  0  0  0  0  0
   17.5650   71.1130   11.9550 Cl  0  0  0  0  0  0  0  0  0  0  0  0
   18.5100   73.1890   13.4140 C   0  0  0  0  0  3  0  0  0  0  0  0
   18.9970   74.4820   13.5370 C   0  0  0  0  0  3  0  0  0  0  0  0
   19.5970   76.5620   12.3100 N   0  0  0  0  0  0  0  0  0  0  0  0
   22.4400   78.7570   15.9850 N   0  0  0  0  0  0  0  0  0  0  0  0
   21.2560   78.1420   15.7190 C   0  0  0  0  0  3  0  0  0  0  0  0
   20.5540   77.4650   16.6900 C   0  0  0  0  0  0  0  0  0  0  0  0
   21.0410   77.3930   17.9740 C   0  0  0  0  0  0  0  0  0  0  0  0
   19.2510   76.7900   16.3810 C   0  0  0  0  0  1  0  0  0  0  0  0
   20.4150   76.7770   18.8880 O   0  0  0  0  0  0  0  0  0  0  0  0
   22.2090   78.0000   18.2370 N   0  0  0  0  0  0  0  0  0  0  0  0
   22.8450   78.6410   17.2540 C   0  0  0  0  0  0  0  0  0  0  0  0
   22.6080   77.9620   19.2250 H   0  0  0  0  0  0  0  0  0  0  0  0
   23.9270   79.1850   17.5540 O   0  0  0  0  0  0  0  0  0  0  0  0
   25.3690   78.6190   14.8370 O   0  0  0  0  0  0  0  0  0  0  0  0
   26.0240   78.8650   14.1360 H   0  0  0  0  0  0  0  0  0  0  0  0
  1  3  1  0  0  0  0
  2  1  2  0  0  0  0
  3  7  1  0  0  0  0
  3  4  1  0  0  0  0
  5  4  1  6  0  0  0
  5 21  1  0  0  0  0
  6 31  1  1  0  0  0
  6  5  1  0  0  0  0
  7  6  1  0  0  0  0
  8  1  1  0  0  0  0
  9 10  1  0  0  0  0
  9  8  1  0  0  0  0
 10 20  2  0  0  0  0
 11 10  1  0  0  0  0
 11 12  1  0  0  0  0
 12 15  1  0  0  0  0
 13 11  1  0  0  0  0
 14 12  2  0  0  0  0
 14 16  1  0  0  0  0
 15 19  2  0  0  0  0
 16 18  2  0  0  0  0
 17 16  1  0  0  0  0
 18 19  1  0  0  0  0
 20 15  1  0  0  0  0
 21 28  1  0  0  0  0
 22 21  1  0  0  0  0
 22 23  2  0  0  0  0
 23 24  1  0  0  0  0
 24 27  1  0  0  0  0
 24 26  2  0  0  0  0
 25 23  1  0  0  0  0
 27 29  1  0  0  0  0
 28 30  2  0  0  0  0
 28 27  1  0  0  0  0
 32 31  1  0  0  0  0
M  END
>  <Pose>
1

>  <Score>
-10.006

$$$$
