/Users/jonathanwahrer/Desktop/Msc/3_Semester/Drug_Design_Praktikum/waehrer_HTS_screening/HTS_experiment/out/docking_results/vina_output/6e43/1690_docked.pdbqt
 OpenBabel03212220443D

 34 37  0  0  1  0  0  0  0  0999 V2000
   21.1710   77.4890   13.9670 C   0  0  0  0  0  0  0  0  0  0  0  0
   20.8510   78.0390   12.8810 O   0  0  0  0  0  0  0  0  0  0  0  0
   21.8830   78.2100   14.9710 N   0  0  0  0  0  0  0  0  0  0  0  0
   22.2840   77.6440   16.2400 C   0  0  0  0  0  2  0  0  0  0  0  0
   22.1610   78.6950   17.3570 C   0  0  2  0  0  0  0  0  0  0  0  0
   21.1150   79.6590   16.9140 C   0  0  2  0  0  3  0  0  0  0  0  0
   21.6610   80.5040   15.7870 C   0  0  0  0  0  2  0  0  0  0  0  0
   22.2330   79.5920   14.7220 C   0  0  0  0  0  2  0  0  0  0  0  0
   23.5250   79.2760   17.5580 C   0  0  0  0  0  1  0  0  0  0  0  0
   20.8200   76.0830   14.2290 C   0  0  0  0  0  2  0  0  0  0  0  0
   19.3260   75.9390   14.2760 C   0  0  0  0  0  2  0  0  0  0  0  0
   18.9520   74.6220   13.7070 C   0  0  0  0  0  0  0  0  0  0  0  0
   17.7290   74.3190   13.1920 N   0  0  0  0  0  0  0  0  0  0  0  0
   17.6980   73.0490   12.7690 C   0  0  0  0  0  0  0  0  0  0  0  0
   16.9350   75.0150   13.1480 H   0  0  0  0  0  0  0  0  0  0  0  0
   16.7270   72.2710   12.1840 C   0  0  0  0  0  3  0  0  0  0  0  0
   18.9430   72.5290   13.0220 C   0  0  0  0  0  0  0  0  0  0  0  0
   16.9570   70.9520   11.8340 C   0  0  0  0  0  0  0  0  0  0  0  0
   15.7300   69.9530   11.0910 Cl  0  0  0  0  0  0  0  0  0  0  0  0
   18.2140   70.4340   12.0930 C   0  0  0  0  0  3  0  0  0  0  0  0
   19.1970   71.2180   12.6830 C   0  0  0  0  0  3  0  0  0  0  0  0
   19.6580   73.5080   13.5850 N   0  0  0  0  0  0  0  0  0  0  0  0
   21.7770   77.9740   18.4970 O   0  0  0  0  0  0  0  0  0  0  0  0
   21.5700   77.0230   18.2260 H   0  0  0  0  0  0  0  0  0  0  0  0
   20.4890   80.4180   17.9390 N   0  0  0  0  0  0  0  0  0  0  0  0
   20.8300   81.6780   18.2450 C   0  0  0  0  0  3  0  0  0  0  0  0
   20.1960   82.3900   19.2560 C   0  0  0  0  0  0  0  0  0  0  0  0
   19.1850   81.7850   19.9660 C   0  0  0  0  0  0  0  0  0  0  0  0
   20.6210   83.8020   19.5520 C   0  0  0  0  0  1  0  0  0  0  0  0
   18.6020   82.4330   20.8900 O   0  0  0  0  0  0  0  0  0  0  0  0
   18.8470   80.5250   19.6580 N   0  0  0  0  0  0  0  0  0  0  0  0
   19.4910   79.8790   18.6710 C   0  0  0  0  0  0  0  0  0  0  0  0
   18.0830   80.0570   20.1880 H   0  0  0  0  0  0  0  0  0  0  0  0
   19.1650   78.6750   18.3800 O   0  0  0  0  0  0  0  0  0  0  0  0
  1 10  1  0  0  0  0
  1  3  1  0  0  0  0
  2  1  2  0  0  0  0
  3  4  1  0  0  0  0
  4  5  1  0  0  0  0
  5  9  1  1  0  0  0
  5 23  1  0  0  0  0
  6  7  1  6  0  0  0
  6  5  1  0  0  0  0
  6 25  1  0  0  0  0
  8  3  1  0  0  0  0
  8  7  1  0  0  0  0
 10 11  1  0  0  0  0
 12 11  1  0  0  0  0
 13 12  1  0  0  0  0
 14 17  1  0  0  0  0
 14 13  1  0  0  0  0
 15 13  1  0  0  0  0
 16 14  2  0  0  0  0
 17 22  1  0  0  0  0
 18 20  2  0  0  0  0
 18 16  1  0  0  0  0
 19 18  1  0  0  0  0
 20 21  1  0  0  0  0
 21 17  2  0  0  0  0
 22 12  2  0  0  0  0
 24 23  1  0  0  0  0
 25 26  1  0  0  0  0
 25 32  1  0  0  0  0
 26 27  2  0  0  0  0
 27 29  1  0  0  0  0
 27 28  1  0  0  0  0
 28 30  2  0  0  0  0
 31 28  1  0  0  0  0
 31 33  1  0  0  0  0
 32 31  1  0  0  0  0
 34 32  2  0  0  0  0
M  END
>  <Pose>
1

>  <Score>
-11.253

$$$$
