/Users/jonathanwahrer/Desktop/Msc/3_Semester/Drug_Design_Praktikum/waehrer_HTS_screening/HTS_experiment/out/docking_results/vina_output/6e43/1691_docked.pdbqt
 OpenBabel03212220443D

 35 39  0  0  1  0  0  0  0  0999 V2000
   21.8100   78.5530   12.5610 C   0  0  0  0  0  0  0  0  0  0  0  0
   20.5970   78.7330   12.3420 O   0  0  0  0  0  0  0  0  0  0  0  0
   22.2290   77.9570   13.7610 N   0  0  0  0  0  0  0  0  0  0  0  0
   21.4970   77.4770   14.8910 C   0  0  0  0  0  2  0  0  0  0  0  0
   22.3320   77.9310   16.1120 C   0  0  1  0  0  3  0  0  0  0  0  0
   23.7000   77.8010   15.5440 C   0  0  2  0  0  3  0  0  0  0  0  0
   23.6220   77.6870   14.0600 C   0  0  0  0  0  2  0  0  0  0  0  0
   22.7950   78.9710   11.5520 C   0  0  0  0  0  2  0  0  0  0  0  0
   22.1590   79.9020   10.5440 C   0  0  0  0  0  2  0  0  0  0  0  0
   21.2040   79.1190    9.6930 C   0  0  0  0  0  0  0  0  0  0  0  0
   21.3500   77.8200    9.3790 N   0  0  0  0  0  0  0  0  0  0  0  0
   20.3380   77.3960    8.6050 C   0  0  0  0  0  0  0  0  0  0  0  0
   22.1400   77.1890    9.6830 H   0  0  0  0  0  0  0  0  0  0  0  0
   20.0260   76.1670    8.0230 C   0  0  0  0  0  3  0  0  0  0  0  0
   19.5160   78.4880    8.4260 C   0  0  0  0  0  0  0  0  0  0  0  0
   18.8890   76.0380    7.2600 C   0  0  0  0  0  0  0  0  0  0  0  0
   18.4520   74.5100    6.5050 Cl  0  0  0  0  0  0  0  0  0  0  0  0
   18.0760   77.1230    7.0860 C   0  0  0  0  0  3  0  0  0  0  0  0
   18.3750   78.3570    7.6630 C   0  0  0  0  0  3  0  0  0  0  0  0
   20.0750   79.5130    9.1020 N   0  0  0  0  0  0  0  0  0  0  0  0
   21.9540   79.2740   16.4520 N   0  0  0  0  0  0  0  0  0  0  0  0
   21.1620   79.6830   17.4570 C   0  0  0  0  0  0  0  0  0  0  0  0
   21.0690   81.0890   17.4130 C   0  0  0  0  0  0  0  0  0  0  0  0
   20.5020   79.0090   18.4190 N   0  0  0  0  0  0  0  0  0  0  0  0
   21.8170   81.4770   16.3670 N   0  0  0  0  0  0  0  0  0  0  0  0
   20.3160   81.7840   18.3310 C   0  0  0  0  0  0  0  0  0  0  0  0
   22.3520   80.4080   15.7830 C   0  0  0  0  0  3  0  0  0  0  0  0
   20.2520   83.0410   18.2660 O   0  0  0  0  0  0  0  0  0  0  0  0
   19.6750   81.0790   19.2710 N   0  0  0  0  0  0  0  0  0  0  0  0
   19.7690   79.7490   19.3060 C   0  0  0  0  0  0  0  0  0  0  0  0
   18.8660   81.7900   20.2630 C   0  0  0  0  0  1  0  0  0  0  0  0
   19.1590   79.1000   20.1960 O   0  0  0  0  0  0  0  0  0  0  0  0
   20.5560   77.5840   18.5150 C   0  0  0  0  0  1  0  0  0  0  0  0
   24.3830   76.6740   16.0020 O   0  0  0  0  0  0  0  0  0  0  0  0
   24.5110   76.6990   16.9920 H   0  0  0  0  0  0  0  0  0  0  0  0
  1  3  1  0  0  0  0
  2  1  2  0  0  0  0
  3  7  1  0  0  0  0
  3  4  1  0  0  0  0
  5  4  1  6  0  0  0
  5 21  1  0  0  0  0
  6 34  1  1  0  0  0
  6  5  1  0  0  0  0
  7  6  1  0  0  0  0
  8  1  1  0  0  0  0
  9  8  1  0  0  0  0
 10  9  1  0  0  0  0
 11 13  1  0  0  0  0
 11 10  1  0  0  0  0
 12 11  1  0  0  0  0
 14 12  2  0  0  0  0
 15 12  1  0  0  0  0
 15 20  1  0  0  0  0
 16 14  1  0  0  0  0
 17 16  1  0  0  0  0
 18 16  2  0  0  0  0
 18 19  1  0  0  0  0
 19 15  2  0  0  0  0
 20 10  2  0  0  0  0
 21 22  1  0  0  0  0
 22 24  1  0  0  0  0
 23 22  2  0  0  0  0
 23 26  1  0  0  0  0
 24 33  1  0  0  0  0
 24 30  1  0  0  0  0
 25 23  1  0  0  0  0
 26 29  1  0  0  0  0
 27 25  2  0  0  0  0
 27 21  1  0  0  0  0
 28 26  2  0  0  0  0
 29 30  1  0  0  0  0
 29 31  1  0  0  0  0
 30 32  2  0  0  0  0
 34 35  1  0  0  0  0
M  END
>  <Pose>
1

>  <Score>
-10.183

$$$$
