/Users/jonathanwahrer/Desktop/Msc/3_Semester/Drug_Design_Praktikum/waehrer_HTS_screening/HTS_experiment/out/docking_results/vina_output/6e43/1699_docked.pdbqt
 OpenBabel03212220453D

 31 34  0  0  1  0  0  0  0  0999 V2000
   20.4530   81.8350   20.8870 Cl  0  0  0  0  0  0  0  0  0  0  0  0
   20.2570   80.6050   19.6810 C   0  0  0  0  0  0  0  0  0  0  0  0
   21.3160   80.2300   18.8680 C   0  0  0  0  0  3  0  0  0  0  0  0
   21.1760   79.2520   17.9040 C   0  0  0  0  0  0  0  0  0  0  0  0
   19.9530   78.6550   17.7690 C   0  0  0  0  0  0  0  0  0  0  0  0
   18.8620   79.0040   18.5690 C   0  0  0  0  0  3  0  0  0  0  0  0
   19.0370   79.9840   19.5220 C   0  0  0  0  0  3  0  0  0  0  0  0
   20.0000   77.6970   16.7190 N   0  0  0  0  0  0  0  0  0  0  0  0
   21.3120   77.7020   16.1770 C   0  0  0  0  0  0  0  0  0  0  0  0
   21.6230   76.9560   15.1920 O   0  0  0  0  0  0  0  0  0  0  0  0
   22.1010   78.6580   16.9420 C   0  0  2  0  0  0  0  0  0  0  0  0
   23.2430   78.0220   17.6050 N   0  0  0  0  0  0  0  0  0  0  0  0
   24.1470   77.8410   16.4920 C   0  0  1  0  0  3  0  0  0  0  0  0
   24.0300   79.0710   15.6510 C   0  0  2  0  0  3  0  0  0  0  0  0
   22.7810   79.7250   16.1580 C   0  0  1  0  0  3  0  0  0  0  0  0
   22.0160   80.2150   14.9850 C   0  0  0  0  0  0  0  0  0  0  0  0
   20.9820   80.9180   15.1260 O   0  0  0  0  0  0  0  0  0  0  0  0
   22.6720   79.7460   13.8180 N   0  0  0  0  0  0  0  0  0  0  0  0
   23.6400   78.7770   14.2350 C   0  0  0  0  0  0  0  0  0  0  0  0
   24.1090   77.8410   13.5780 O   0  0  0  0  0  0  0  0  0  0  0  0
   19.1980   77.0800   16.3950 H   0  0  0  0  0  0  0  0  0  0  0  0
   23.6480   78.7610   18.2240 H   0  0  0  0  0  0  0  0  0  0  0  0
   25.5590   77.5600   16.9350 C   0  0  2  0  0  3  0  0  0  0  0  0
   26.2890   78.8040   17.3720 C   0  0  0  0  0  1  0  0  0  0  0  0
   26.2260   76.9610   15.8730 O   0  0  0  0  0  0  0  0  0  0  0  0
   26.5040   77.6140   15.1810 H   0  0  0  0  0  0  0  0  0  0  0  0
   22.4270   80.1570   12.4880 C   0  0  0  0  0  2  0  0  0  0  0  0
   21.4220   79.4320   11.6810 C   0  0  0  0  0  3  0  0  0  0  0  0
   21.8960   78.6780   10.4990 C   0  0  0  0  0  3  0  0  0  0  0  0
   23.2670   78.6660   10.2920 O   0  0  0  0  0  0  0  0  0  0  0  0
   23.5230   79.4250    9.1240 C   0  0  0  0  0  1  0  0  0  0  0  0
  2  1  1  0  0  0  0
  3  2  2  0  0  0  0
  4  3  1  0  0  0  0
  5  4  2  0  0  0  0
  5  6  1  0  0  0  0
  6  7  2  0  0  0  0
  7  2  1  0  0  0  0
  8  5  1  0  0  0  0
  9  8  1  0  0  0  0
 10  9  2  0  0  0  0
 11  9  1  6  0  0  0
 11 12  1  0  0  0  0
 11  4  1  0  0  0  0
 12 22  1  0  0  0  0
 13 23  1  1  0  0  0
 13 12  1  0  0  0  0
 14 19  1  6  0  0  0
 14 15  1  0  0  0  0
 14 13  1  0  0  0  0
 15 16  1  6  0  0  0
 15 11  1  0  0  0  0
 16 17  2  0  0  0  0
 18 19  1  0  0  0  0
 18 16  1  0  0  0  0
 20 19  2  0  0  0  0
 21  8  1  0  0  0  0
 23 24  1  6  0  0  0
 25 23  1  0  0  0  0
 26 25  1  0  0  0  0
 27 18  1  0  0  0  0
 28 27  1  0  0  0  0
 29 28  2  0  0  0  0
 30 29  1  0  0  0  0
 31 30  1  0  0  0  0
M  END
>  <Pose>
1

>  <Score>
-7.550

$$$$
