/Users/jonathanwahrer/Desktop/Msc/3_Semester/Drug_Design_Praktikum/waehrer_HTS_screening/HTS_experiment/out/docking_results/vina_output/6e43/1711_docked.pdbqt
 OpenBabel03212220453D

 30 33  0  0  0  0  0  0  0  0999 V2000
   22.7870   77.7140   14.0170 N   0  0  0  0  0  0  0  0  0  0  0  0
   23.7600   77.8450   15.0440 C   0  0  0  0  0  2  0  0  0  0  0  0
   23.2240   77.5380   16.4190 C   0  0  0  0  0  2  0  0  0  0  0  0
   21.8380   77.9010   16.5650 N   0  0  0  0  0  0  0  0  0  0  0  0
   20.8870   77.4660   15.5710 C   0  0  0  0  0  2  0  0  0  0  0  0
   21.6370   76.9670   14.3760 C   0  0  0  0  0  2  0  0  0  0  0  0
   21.3690   78.6740   17.6550 C   0  0  0  0  0  0  0  0  0  0  0  0
   22.1840   79.0530   18.5180 O   0  0  0  0  0  0  0  0  0  0  0  0
   19.9430   79.0420   17.7990 C   0  0  0  0  0  2  0  0  0  0  0  0
   19.7970   80.3160   18.4390 N   0  0  0  0  0  0  0  0  0  0  0  0
   19.0820   80.6650   19.6170 C   0  0  0  0  0  0  0  0  0  0  0  0
   18.4330   79.8520   20.3110 O   0  0  0  0  0  0  0  0  0  0  0  0
   19.2450   82.0900   19.8480 C   0  0  0  0  0  0  0  0  0  0  0  0
   20.0340   82.6180   18.8540 C   0  0  0  0  0  0  0  0  0  0  0  0
   18.7710   82.9230   20.8300 C   0  0  0  0  0  3  0  0  0  0  0  0
   20.3300   83.9750   18.8660 C   0  0  0  0  0  3  0  0  0  0  0  0
   20.3930   81.5260   17.9580 C   0  0  0  0  0  0  0  0  0  0  0  0
   19.8550   84.8030   19.8460 C   0  0  0  0  0  3  0  0  0  0  0  0
   19.0540   84.2810   20.8610 C   0  0  0  0  0  3  0  0  0  0  0  0
   21.1160   81.6960   16.9420 O   0  0  0  0  0  0  0  0  0  0  0  0
   22.5700   79.0370   13.0070 S   0  0  0  0  0  0  0  0  0  0  0  0
   21.9090   80.1530   13.8040 O   0  0  0  0  0  0  0  0  0  0  0  0
   23.9340   79.5800   12.6270 O   0  0  0  0  0  0  0  0  0  0  0  0
   21.7050   78.7340   11.5490 C   0  0  0  0  0  0  0  0  0  0  0  0
   20.3780   78.3410   11.6040 C   0  0  0  0  0  3  0  0  0  0  0  0
   19.6380   78.0860   10.4670 C   0  0  0  0  0  3  0  0  0  0  0  0
   20.2630   78.2350    9.2420 C   0  0  0  0  0  0  0  0  0  0  0  0
   21.5850   78.6270    9.2020 C   0  0  0  0  0  3  0  0  0  0  0  0
   19.2890   77.8960    7.6150 Br  0  0  0  0  0  0  0  0  0  0  0  0
   22.3360   78.8850   10.3300 C   0  0  0  0  0  3  0  0  0  0  0  0
  1  6  1  0  0  0  0
  1  2  1  0  0  0  0
  2  3  1  0  0  0  0
  3  4  1  0  0  0  0
  4  7  1  0  0  0  0
  5  4  1  0  0  0  0
  6  5  1  0  0  0  0
  7  9  1  0  0  0  0
  7  8  2  0  0  0  0
  9 10  1  0  0  0  0
 10 11  1  0  0  0  0
 11 13  1  0  0  0  0
 11 12  2  0  0  0  0
 13 15  1  0  0  0  0
 14 16  1  0  0  0  0
 14 13  2  0  0  0  0
 15 19  2  0  0  0  0
 16 18  2  0  0  0  0
 17 10  1  0  0  0  0
 17 14  1  0  0  0  0
 18 19  1  0  0  0  0
 20 17  2  0  0  0  0
 21 22  2  0  0  0  0
 21  1  1  0  0  0  0
 23 21  2  0  0  0  0
 24 25  1  0  0  0  0
 24 21  1  0  0  0  0
 26 25  2  0  0  0  0
 27 26  1  0  0  0  0
 28 27  2  0  0  0  0
 28 30  1  0  0  0  0
 29 27  1  0  0  0  0
 30 24  2  0  0  0  0
M  END
>  <Pose>
1

>  <Score>
-10.792

$$$$
