/Users/jonathanwahrer/Desktop/Msc/3_Semester/Drug_Design_Praktikum/waehrer_HTS_screening/HTS_experiment/out/docking_results/vina_output/6e43/1721_docked.pdbqt
 OpenBabel03212220453D

 28 31  0  0  1  0  0  0  0  0999 V2000
   23.0280   78.4100   17.6040 C   0  0  0  0  0  2  0  0  0  0  0  0
   23.2940   77.5960   16.4780 N   0  0  0  0  0  0  0  0  0  0  0  0
   24.0930   76.9570   16.4640 H   0  0  0  0  0  0  0  0  0  0  0  0
   22.4270   77.6790   15.3220 C   0  0  0  0  0  0  0  0  0  0  0  0
   22.6080   78.7570   14.4900 C   0  0  1  0  0  3  0  0  0  0  0  0
   21.7920   78.8750   13.3680 C   0  0  0  0  0  0  0  0  0  0  0  0
   23.4190   79.8250   14.4460 N   0  0  0  0  0  0  0  0  0  0  0  0
   20.8830   77.9110   13.1900 N   0  0  0  0  0  4  0  0  0  0  0  0
   22.1470   79.9920   12.7120 N   0  0  0  0  0  0  0  0  0  0  0  0
   20.7010   76.8670   13.9870 C   0  0  0  0  0  0  0  0  0  0  0  0
   19.4790   75.6660   13.6580 Cl  0  0  0  0  0  0  0  0  0  0  0  0
   21.4920   76.7510   15.0770 N   0  0  0  0  0  0  0  0  0  0  0  0
   23.1550   80.5900   13.3700 C   0  0  0  0  0  3  0  0  0  0  0  0
   24.1520   79.9920   15.1860 H   0  0  0  0  0  0  0  0  0  0  0  0
   21.6640   78.3860   18.1080 C   0  0  0  0  0  0  0  0  0  0  0  0
   21.4320   77.3240   18.9100 O   0  0  0  0  0  0  0  0  0  0  0  0
   20.6010   79.2250   17.9180 N   0  0  0  0  0  0  0  0  0  0  0  0
   20.5050   80.3500   17.0520 C   0  0  0  0  0  2  0  0  0  0  0  0
   19.3750   78.9310   18.7540 C   0  0  0  0  0  2  0  0  0  0  0  0
   20.3160   81.6500   17.8300 C   0  0  0  0  0  2  0  0  0  0  0  0
   19.5890   81.2860   19.0130 N   0  0  0  0  0  0  0  0  0  0  0  0
   18.6060   80.2480   18.9000 C   0  0  0  0  0  2  0  0  0  0  0  0
   19.8040   81.9050   20.2570 C   0  0  0  0  0  0  0  0  0  0  0  0
   18.9140   82.7980   20.7800 N   0  0  0  0  0  0  0  0  0  0  0  0
   19.0560   83.4140   21.9390 C   0  0  0  0  0  3  0  0  0  0  0  0
   20.1460   83.2010   22.7360 C   0  0  0  0  0  3  0  0  0  0  0  0
   21.0920   82.3030   22.2630 C   0  0  0  0  0  3  0  0  0  0  0  0
   20.9210   81.6670   21.0430 C   0  0  0  0  0  3  0  0  0  0  0  0
  1 15  1  0  0  0  0
  2  1  1  0  0  0  0
  3  2  1  0  0  0  0
  4  2  1  0  0  0  0
  5  6  1  1  0  0  0
  5  4  1  0  0  0  0
  7  5  1  0  0  0  0
  7 14  1  0  0  0  0
  8  6  2  0  0  0  0
  8 10  2  0  0  0  0
  9  6  1  0  0  0  0
  9 13  2  0  0  0  0
 10 12  1  0  0  0  0
 11 10  1  0  0  0  0
 12  4  2  0  0  0  0
 13  7  1  0  0  0  0
 15 16  2  0  0  0  0
 17 15  1  0  0  0  0
 17 19  1  0  0  0  0
 18 20  1  0  0  0  0
 18 17  1  0  0  0  0
 19 22  1  0  0  0  0
 20 21  1  0  0  0  0
 21 23  1  0  0  0  0
 22 21  1  0  0  0  0
 23 24  2  0  0  0  0
 23 28  1  0  0  0  0
 24 25  1  0  0  0  0
 25 26  2  0  0  0  0
 27 26  1  0  0  0  0
 28 27  2  0  0  0  0
M  END
>  <Pose>
1

>  <Score>
-9.539

$$$$
