/Users/jonathanwahrer/Desktop/Msc/3_Semester/Drug_Design_Praktikum/waehrer_HTS_screening/HTS_experiment/out/docking_results/vina_output/6e43/1726_docked.pdbqt
 OpenBabel03212220453D

 30 33  0  0  1  0  0  0  0  0999 V2000
   21.3490   79.3010   17.3970 N   0  0  0  0  0  4  0  0  0  0  0  0
   20.6730   78.5830   18.4250 C   0  0  0  0  0  2  0  0  0  0  0  0
   19.7720   79.4040   19.2920 C   0  0  1  0  0  3  0  0  0  0  0  0
   20.4800   80.2980   20.2470 C   0  0  0  0  0  2  0  0  0  0  0  0
   20.3240   81.7030   19.9920 N   0  0  0  0  0  0  0  0  0  0  0  0
   19.9990   82.2320   18.7970 C   0  0  0  0  0  0  0  0  0  0  0  0
   19.8510   83.5670   18.5540 C   0  0  0  0  0  3  0  0  0  0  0  0
   20.0430   84.4540   19.5940 C   0  0  0  0  0  3  0  0  0  0  0  0
   20.3740   83.9220   20.8180 C   0  0  0  0  0  3  0  0  0  0  0  0
   20.5150   82.5710   21.0270 C   0  0  0  0  0  0  0  0  0  0  0  0
   20.8200   82.1210   22.1620 O   0  0  0  0  0  0  0  0  0  0  0  0
   19.8050   81.2080   17.7020 C   0  0  1  0  0  3  0  0  0  0  0  0
   21.1450   80.6970   17.3450 C   0  0  0  0  0  2  0  0  0  0  0  0
   18.8820   80.1860   18.3180 C   0  0  0  0  0  2  0  0  0  0  0  0
   21.0300   78.8950   16.4650 H   0  0  0  0  0  0  0  0  0  0  0  0
   22.7560   78.9610   17.4890 C   0  0  0  0  0  2  0  0  0  0  0  0
   23.0710   77.5650   17.0560 C   0  0  1  0  0  3  0  0  0  0  0  0
   23.1680   77.5920   15.5310 C   0  0  0  0  0  2  0  0  0  0  0  0
   21.9350   78.0520   15.0600 O   0  0  0  0  0  0  0  0  0  0  0  0
   21.5830   78.3300   13.7820 C   0  0  0  0  0  0  0  0  0  0  0  0
   20.7300   77.4950   13.0970 C   0  0  0  0  0  0  0  0  0  0  0  0
   20.0620   75.9510   13.9910 Br  0  0  0  0  0  0  0  0  0  0  0  0
   20.3460   77.7460   11.7810 C   0  0  0  0  0  3  0  0  0  0  0  0
   20.8250   78.8510   11.1410 C   0  0  0  0  0  0  0  0  0  0  0  0
   21.6840   79.7090   11.8000 C   0  0  0  0  0  3  0  0  0  0  0  0
   20.4090   79.1150    9.7280 C   0  0  0  0  0  1  0  0  0  0  0  0
   22.0580   79.4420   13.1210 C   0  0  0  0  0  0  0  0  0  0  0  0
   23.2400   80.6170   14.0390 Br  0  0  0  0  0  0  0  0  0  0  0  0
   24.2700   77.1500   17.6330 O   0  0  0  0  0  0  0  0  0  0  0  0
   24.9810   77.3490   16.9590 H   0  0  0  0  0  0  0  0  0  0  0  0
  1 16  1  0  0  0  0
  1  2  1  0  0  0  0
  2  3  1  0  0  0  0
  3 14  1  6  0  0  0
  3  4  1  0  0  0  0
  5  4  1  0  0  0  0
  5 10  1  0  0  0  0
  6  5  1  0  0  0  0
  7  6  2  0  0  0  0
  7  8  1  0  0  0  0
  8  9  2  0  0  0  0
  9 10  1  0  0  0  0
 10 11  2  0  0  0  0
 12 13  1  1  0  0  0
 12 14  1  0  0  0  0
 12  6  1  0  0  0  0
 13  1  1  0  0  0  0
 15  1  1  0  0  0  0
 17 18  1  6  0  0  0
 17 16  1  0  0  0  0
 17 29  1  0  0  0  0
 19 18  1  0  0  0  0
 20 19  1  0  0  0  0
 21 20  2  0  0  0  0
 21 22  1  0  0  0  0
 23 21  1  0  0  0  0
 24 23  2  0  0  0  0
 24 25  1  0  0  0  0
 25 27  2  0  0  0  0
 26 24  1  0  0  0  0
 27 20  1  0  0  0  0
 27 28  1  0  0  0  0
 30 29  1  0  0  0  0
M  END
>  <Pose>
1

>  <Score>
-9.308

$$$$
