/Users/jonathanwahrer/Desktop/Msc/3_Semester/Drug_Design_Praktikum/waehrer_HTS_screening/HTS_experiment/out/docking_results/vina_output/6e43/1732_docked.pdbqt
 OpenBabel03212220463D

 28 31  0  0  0  0  0  0  0  0999 V2000
   20.3580   80.2940   17.3330 N   0  0  0  0  0  0  0  0  0  0  0  0
   20.8430   81.3300   16.6700 N   0  0  0  0  0  2  0  0  0  0  0  0
   22.0650   81.0530   16.2290 N   0  0  0  0  0  0  0  0  0  0  0  0
   22.3770   79.7990   16.6190 C   0  0  0  0  0  0  0  0  0  0  0  0
   21.3000   79.3670   17.2950 N   0  0  0  0  0  2  0  0  0  0  0  0
   19.0390   80.1890   17.9800 C   0  0  0  0  0  2  0  0  0  0  0  0
   19.1230   80.5890   19.4090 C   0  0  0  0  0  0  0  0  0  0  0  0
   19.9060   81.6680   19.8210 N   0  0  0  0  0  0  0  0  0  0  0  0
   20.4300   82.1760   19.0480 H   0  0  0  0  0  0  0  0  0  0  0  0
   18.4620   79.9130   20.2190 O   0  0  0  0  0  0  0  0  0  0  0  0
   20.0960   82.1750   21.1240 C   0  0  0  0  0  0  0  0  0  0  0  0
   19.4160   83.3180   21.5470 C   0  0  0  0  0  0  0  0  0  0  0  0
   18.2400   84.1590   20.3250 Br  0  0  0  0  0  0  0  0  0  0  0  0
   19.5500   83.8680   22.7980 C   0  0  0  0  0  3  0  0  0  0  0  0
   20.4000   83.2760   23.7060 C   0  0  0  0  0  3  0  0  0  0  0  0
   21.0960   82.1490   23.3490 C   0  0  0  0  0  3  0  0  0  0  0  0
   20.9360   81.6150   22.0680 C   0  0  0  0  0  3  0  0  0  0  0  0
   23.6170   79.0830   16.3560 C   0  0  0  0  0  0  0  0  0  0  0  0
   23.6050   78.1030   15.3910 C   0  0  0  0  0  0  0  0  0  0  0  0
   24.7850   77.4210   15.1430 C   0  0  0  0  0  3  0  0  0  0  0  0
   25.9440   77.6940   15.8230 C   0  0  0  0  0  3  0  0  0  0  0  0
   25.9580   78.6770   16.7930 C   0  0  0  0  0  3  0  0  0  0  0  0
   24.7780   79.3570   17.0390 C   0  0  0  0  0  3  0  0  0  0  0  0
   22.4400   77.7620   14.6420 N   0  0  0  0  0  0  0  0  0  0  0  0
   21.5870   76.8060   14.9880 N   0  0  0  0  0  0  0  0  0  0  0  0
   20.6290   76.7490   14.0910 N   0  0  0  0  0  0  0  0  0  0  0  0
   20.8740   77.6750   13.1660 N   0  0  0  0  0  0  0  0  0  0  0  0
   22.0120   78.3110   13.5140 C   0  0  0  0  0  3  0  0  0  0  0  0
  1  6  1  0  0  0  0
  2  1  1  0  0  0  0
  3  4  2  0  0  0  0
  3  2  1  0  0  0  0
  4  5  1  0  0  0  0
  5  1  1  0  0  0  0
  6  7  1  0  0  0  0
  7  8  1  0  0  0  0
  7 10  2  0  0  0  0
  8 11  1  0  0  0  0
  9  8  1  0  0  0  0
 11 12  2  0  0  0  0
 11 17  1  0  0  0  0
 12 14  1  0  0  0  0
 13 12  1  0  0  0  0
 14 15  2  0  0  0  0
 16 15  1  0  0  0  0
 17 16  2  0  0  0  0
 18  4  1  0  0  0  0
 18 23  1  0  0  0  0
 19 18  2  0  0  0  0
 20 19  1  0  0  0  0
 20 21  2  0  0  0  0
 21 22  1  0  0  0  0
 22 23  2  0  0  0  0
 24 25  1  0  0  0  0
 24 19  1  0  0  0  0
 26 25  2  0  0  0  0
 27 28  2  0  0  0  0
 27 26  1  0  0  0  0
 28 24  1  0  0  0  0
M  END
>  <Pose>
1

>  <Score>
-10.391

$$$$
