/Users/jonathanwahrer/Desktop/Msc/3_Semester/Drug_Design_Praktikum/waehrer_HTS_screening/HTS_experiment/out/docking_results/vina_output/6e43/1736_docked.pdbqt
 OpenBabel03212220463D

 35 39  0  0  1  0  0  0  0  0999 V2000
   18.7220   75.3720   13.8410 Cl  0  0  0  0  0  0  0  0  0  0  0  0
   19.3920   76.3300   15.1710 C   0  0  0  0  0  0  0  0  0  0  0  0
   20.6890   76.7790   15.1320 C   0  0  0  0  0  3  0  0  0  0  0  0
   21.1990   77.5200   16.1650 C   0  0  0  0  0  0  0  0  0  0  0  0
   20.4010   77.8090   17.2430 C   0  0  0  0  0  0  0  0  0  0  0  0
   19.0800   77.3660   17.3100 C   0  0  0  0  0  3  0  0  0  0  0  0
   18.5970   76.6240   16.2560 C   0  0  0  0  0  3  0  0  0  0  0  0
   21.1000   78.5760   18.2050 N   0  0  0  0  0  0  0  0  0  0  0  0
   22.4090   78.7730   17.6920 C   0  0  0  0  0  0  0  0  0  0  0  0
   23.3270   79.4030   18.2610 O   0  0  0  0  0  0  0  0  0  0  0  0
   22.5360   78.1210   16.3750 C   0  0  1  0  0  0  0  0  0  0  0  0
   23.5910   77.1380   16.3440 N   0  0  0  0  0  0  0  0  0  0  0  0
   24.2020   77.1950   15.0530 C   0  0  1  0  0  3  0  0  0  0  0  0
   24.1200   78.6310   14.5910 C   0  0  2  0  0  3  0  0  0  0  0  0
   22.9110   79.1230   15.3450 C   0  0  1  0  0  3  0  0  0  0  0  0
   21.8600   79.3810   14.3300 C   0  0  0  0  0  0  0  0  0  0  0  0
   20.6150   79.4620   14.4810 O   0  0  0  0  0  0  0  0  0  0  0  0
   22.5550   79.5330   13.0750 N   0  0  0  0  0  0  0  0  0  0  0  0
   23.7740   78.7660   13.1530 C   0  0  0  0  0  0  0  0  0  0  0  0
   24.4380   78.2890   12.1960 O   0  0  0  0  0  0  0  0  0  0  0  0
   20.7570   78.9520   19.1380 H   0  0  0  0  0  0  0  0  0  0  0  0
   23.2200   76.2080   16.5640 H   0  0  0  0  0  0  0  0  0  0  0  0
   25.6310   76.6960   15.0820 C   0  0  1  0  0  3  0  0  0  0  0  0
   26.3250   77.4400   16.2180 C   0  0  0  0  0  1  0  0  0  0  0  0
   25.6000   75.3550   15.4530 O   0  0  0  0  0  0  0  0  0  0  0  0
   24.8150   74.9190   15.0510 H   0  0  0  0  0  0  0  0  0  0  0  0
   22.1260   80.3110   11.9320 C   0  0  0  0  0  2  0  0  0  0  0  0
   21.4430   79.4270   10.9390 C   0  0  0  0  0  0  0  0  0  0  0  0
   21.7790   79.4750    9.6030 C   0  0  0  0  0  0  0  0  0  0  0  0
   21.1310   78.6460    8.7030 C   0  0  0  0  0  3  0  0  0  0  0  0
   20.1490   77.7600    9.1000 C   0  0  0  0  0  3  0  0  0  0  0  0
   19.8060   77.7050   10.4330 C   0  0  0  0  0  3  0  0  0  0  0  0
   20.4570   78.5340   11.3180 C   0  0  0  0  0  3  0  0  0  0  0  0
   22.7740   80.3730    9.2020 O   0  0  0  0  0  0  0  0  0  0  0  0
   24.0190   79.8420    8.7370 C   0  0  0  0  0  1  0  0  0  0  0  0
  1  2  1  0  0  0  0
  2  7  1  0  0  0  0
  3  2  2  0  0  0  0
  3  4  1  0  0  0  0
  4  5  2  0  0  0  0
  5  6  1  0  0  0  0
  5  8  1  0  0  0  0
  7  6  2  0  0  0  0
  8 21  1  0  0  0  0
  9  8  1  0  0  0  0
  9 10  2  0  0  0  0
 11  4  1  6  0  0  0
 11  9  1  0  0  0  0
 12 11  1  0  0  0  0
 12 22  1  0  0  0  0
 13 23  1  1  0  0  0
 13 12  1  0  0  0  0
 14 19  1  6  0  0  0
 14 13  1  0  0  0  0
 14 15  1  0  0  0  0
 15 16  1  6  0  0  0
 15 11  1  0  0  0  0
 16 17  2  0  0  0  0
 18 19  1  0  0  0  0
 18 16  1  0  0  0  0
 20 19  2  0  0  0  0
 23 25  1  0  0  0  0
 23 24  1  1  0  0  0
 26 25  1  0  0  0  0
 27 18  1  0  0  0  0
 28 33  1  0  0  0  0
 28 27  1  0  0  0  0
 29 28  2  0  0  0  0
 30 31  2  0  0  0  0
 30 29  1  0  0  0  0
 31 32  1  0  0  0  0
 32 33  2  0  0  0  0
 34 29  1  0  0  0  0
 35 34  1  0  0  0  0
M  END
>  <Pose>
1

>  <Score>
-8.584

$$$$
