/Users/jonathanwahrer/Desktop/Msc/3_Semester/Drug_Design_Praktikum/waehrer_HTS_screening/HTS_experiment/out/docking_results/vina_output/6e43/1744_docked.pdbqt
 OpenBabel03212220463D

 34 37  0  0  1  0  0  0  0  0999 V2000
   21.9470   78.0910   15.5170 N   0  0  0  0  0  0  0  0  0  0  0  0
   21.0900   76.9550   15.6260 C   0  0  0  0  0  0  0  0  0  0  0  0
   20.7280   76.2610   14.6450 O   0  0  0  0  0  0  0  0  0  0  0  0
   20.6210   76.5860   16.9210 N   0  0  0  0  0  0  0  0  0  0  0  0
   21.0190   77.3610   18.0620 C   0  0  0  0  0  0  0  0  0  0  0  0
   20.7640   76.8440   19.2010 O   0  0  0  0  0  0  0  0  0  0  0  0
   21.6820   78.6730   17.9400 C   0  0  1  0  0  3  0  0  0  0  0  0
   22.3580   78.8680   16.6350 C   0  0  0  0  0  0  0  0  0  0  0  0
   23.2760   79.7210   16.5610 O   0  0  0  0  0  0  0  0  0  0  0  0
   19.9860   75.7610   17.0730 H   0  0  0  0  0  0  0  0  0  0  0  0
   20.6930   79.7900   18.1800 C   0  0  1  0  0  3  0  0  0  0  0  0
   20.9210   81.0560   17.8820 C   0  0  0  0  0  2  0  0  0  0  0  0
   19.6950   81.7780   18.2890 C   0  0  1  0  0  3  0  0  0  0  0  0
   18.6800   80.7490   18.1450 N   0  0  0  0  0  0  0  0  0  0  0  0
   19.3800   79.6620   18.7240 N   0  0  0  0  0  0  0  0  0  0  0  0
   17.7830   80.9540   18.5920 H   0  0  0  0  0  0  0  0  0  0  0  0
   19.0950   78.9290   19.3730 H   0  0  0  0  0  0  0  0  0  0  0  0
   19.7920   82.2260   19.7070 C   0  0  0  0  0  0  0  0  0  0  0  0
   18.8450   82.9580   20.3650 C   0  0  0  0  0  3  0  0  0  0  0  0
   18.9660   83.3150   21.6930 C   0  0  0  0  0  0  0  0  0  0  0  0
   20.0800   82.9350   22.4190 C   0  0  0  0  0  0  0  0  0  0  0  0
   21.0500   82.1830   21.7370 C   0  0  0  0  0  3  0  0  0  0  0  0
   20.9130   81.8370   20.4140 C   0  0  0  0  0  3  0  0  0  0  0  0
   17.9620   84.0720   22.3230 O   0  0  0  0  0  0  0  0  0  0  0  0
   17.3870   84.6760   21.7460 H   0  0  0  0  0  0  0  0  0  0  0  0
   20.2320   83.2680   23.7440 O   0  0  0  0  0  0  0  0  0  0  0  0
   20.6560   82.3250   24.7060 C   0  0  0  0  0  1  0  0  0  0  0  0
   22.3900   78.4500   14.2140 C   0  0  0  0  0  0  0  0  0  0  0  0
   21.5280   79.0170   13.2910 C   0  0  0  0  0  3  0  0  0  0  0  0
   21.9250   79.3890   12.0310 C   0  0  0  0  0  0  0  0  0  0  0  0
   20.8010   80.0940   10.9010 Cl  0  0  0  0  0  0  0  0  0  0  0  0
   23.2490   79.1790   11.6890 C   0  0  0  0  0  3  0  0  0  0  0  0
   24.1400   78.6160   12.5800 C   0  0  0  0  0  3  0  0  0  0  0  0
   23.6860   78.2570   13.8450 C   0  0  0  0  0  3  0  0  0  0  0  0
  1  2  1  0  0  0  0
  1  8  1  0  0  0  0
  2  4  1  0  0  0  0
  3  2  2  0  0  0  0
  4 10  1  0  0  0  0
  4  5  1  0  0  0  0
  5  6  2  0  0  0  0
  7  8  1  6  0  0  0
  7  5  1  0  0  0  0
  7 11  1  0  0  0  0
  9  8  2  0  0  0  0
 11 12  1  6  0  0  0
 11 15  1  0  0  0  0
 12 13  1  0  0  0  0
 13 18  1  1  0  0  0
 14 13  1  0  0  0  0
 14 16  1  0  0  0  0
 14 15  1  0  0  0  0
 15 17  1  0  0  0  0
 18 19  2  0  0  0  0
 18 23  1  0  0  0  0
 19 20  1  0  0  0  0
 20 24  1  0  0  0  0
 20 21  2  0  0  0  0
 21 26  1  0  0  0  0
 22 21  1  0  0  0  0
 23 22  2  0  0  0  0
 25 24  1  0  0  0  0
 26 27  1  0  0  0  0
 28  1  1  0  0  0  0
 29 28  2  0  0  0  0
 30 29  1  0  0  0  0
 31 30  1  0  0  0  0
 32 30  2  0  0  0  0
 32 33  1  0  0  0  0
 33 34  2  0  0  0  0
 34 28  1  0  0  0  0
M  END
>  <Pose>
1

>  <Score>
-10.168

$$$$
