/Users/jonathanwahrer/Desktop/Msc/3_Semester/Drug_Design_Praktikum/waehrer_HTS_screening/HTS_experiment/out/docking_results/vina_output/6e43/1745_docked.pdbqt
 OpenBabel03212220473D

 34 37  0  0  1  0  0  0  0  0999 V2000
   23.0030   78.6600   14.3000 N   0  0  0  0  0  0  0  0  0  0  0  0
   23.5700   77.5550   14.9850 C   0  0  0  0  0  0  0  0  0  0  0  0
   23.4920   76.4050   14.5340 O   0  0  0  0  0  0  0  0  0  0  0  0
   24.2500   77.7590   16.2320 N   0  0  0  0  0  0  0  0  0  0  0  0
   24.3710   79.0620   16.7980 C   0  0  0  0  0  0  0  0  0  0  0  0
   25.2710   79.3560   17.6040 O   0  0  0  0  0  0  0  0  0  0  0  0
   23.3660   80.1090   16.3970 C   0  0  1  0  0  3  0  0  0  0  0  0
   23.1620   79.9440   14.9420 C   0  0  0  0  0  0  0  0  0  0  0  0
   23.1170   80.9620   14.1620 O   0  0  0  0  0  0  0  0  0  0  0  0
   24.6530   76.9440   16.7130 H   0  0  0  0  0  0  0  0  0  0  0  0
   22.1150   79.9180   17.1900 C   0  0  2  0  0  3  0  0  0  0  0  0
   21.9520   79.3180   18.3520 C   0  0  0  0  0  2  0  0  0  0  0  0
   20.5130   79.3910   18.7270 C   0  0  2  0  0  3  0  0  0  0  0  0
   19.8910   79.5520   17.3880 N   0  0  0  0  0  0  0  0  0  0  0  0
   20.8290   80.3720   16.7480 N   0  0  0  0  0  0  0  0  0  0  0  0
   19.7910   78.6240   16.9330 H   0  0  0  0  0  0  0  0  0  0  0  0
   20.6610   81.1360   16.1010 H   0  0  0  0  0  0  0  0  0  0  0  0
   20.2620   80.6730   19.4400 C   0  0  0  0  0  0  0  0  0  0  0  0
   20.9790   81.0210   20.6050 C   0  0  0  0  0  3  0  0  0  0  0  0
   20.8090   82.1950   21.2700 C   0  0  0  0  0  0  0  0  0  0  0  0
   19.8910   83.1160   20.8000 C   0  0  0  0  0  0  0  0  0  0  0  0
   19.1730   82.8090   19.6670 C   0  0  0  0  0  3  0  0  0  0  0  0
   19.3560   81.6160   19.0040 C   0  0  0  0  0  3  0  0  0  0  0  0
   21.5450   82.4890   22.4260 O   0  0  0  0  0  0  0  0  0  0  0  0
   21.0100   82.1640   23.6910 C   0  0  0  0  0  1  0  0  0  0  0  0
   19.7050   84.3220   21.4670 O   0  0  0  0  0  0  0  0  0  0  0  0
   20.4910   84.7460   21.9410 H   0  0  0  0  0  0  0  0  0  0  0  0
   22.3400   78.5790   13.0460 C   0  0  0  0  0  0  0  0  0  0  0  0
   23.0790   78.8890   11.8980 C   0  0  0  0  0  3  0  0  0  0  0  0
   22.5250   78.8540   10.6380 C   0  0  0  0  0  0  0  0  0  0  0  0
   23.5220   79.2610    9.2680 Cl  0  0  0  0  0  0  0  0  0  0  0  0
   21.2120   78.5120   10.4480 C   0  0  0  0  0  3  0  0  0  0  0  0
   20.4660   78.1990   11.5870 C   0  0  0  0  0  3  0  0  0  0  0  0
   21.0280   78.2370   12.8450 C   0  0  0  0  0  3  0  0  0  0  0  0
  1  8  1  0  0  0  0
  1  2  1  0  0  0  0
  2  4  1  0  0  0  0
  3  2  2  0  0  0  0
  4 10  1  0  0  0  0
  4  5  1  0  0  0  0
  5  6  2  0  0  0  0
  7  8  1  6  0  0  0
  7  5  1  0  0  0  0
  7 11  1  0  0  0  0
  9  8  2  0  0  0  0
 11 12  1  6  0  0  0
 12 13  1  0  0  0  0
 13 18  1  1  0  0  0
 14 13  1  0  0  0  0
 15 11  1  0  0  0  0
 15 14  1  0  0  0  0
 16 14  1  0  0  0  0
 17 15  1  0  0  0  0
 18 19  1  0  0  0  0
 19 20  2  0  0  0  0
 20 24  1  0  0  0  0
 21 20  1  0  0  0  0
 21 26  1  0  0  0  0
 22 21  2  0  0  0  0
 23 18  2  0  0  0  0
 23 22  1  0  0  0  0
 24 25  1  0  0  0  0
 26 27  1  0  0  0  0
 28  1  1  0  0  0  0
 29 28  2  0  0  0  0
 30 29  1  0  0  0  0
 31 30  1  0  0  0  0
 32 30  2  0  0  0  0
 32 33  1  0  0  0  0
 33 34  2  0  0  0  0
 34 28  1  0  0  0  0
M  END
>  <Pose>
1

>  <Score>
-9.961

$$$$
