/Users/jonathanwahrer/Desktop/Msc/3_Semester/Drug_Design_Praktikum/waehrer_HTS_screening/HTS_experiment/out/docking_results/vina_output/6e43/1750_docked.pdbqt
 OpenBabel03212220473D

 27 30  0  0  0  0  0  0  0  0999 V2000
   20.9130   79.4470   18.6510 N   0  0  0  0  0  0  0  0  0  0  0  0
   22.1000   79.5530   17.8610 C   0  0  0  0  0  2  0  0  0  0  0  0
   21.9060   79.0440   16.4450 C   0  0  0  0  0  2  0  0  0  0  0  0
   21.2610   77.7590   16.4940 N   0  0  0  0  0  0  0  0  0  0  0  0
   21.0470   77.1530   17.7930 C   0  0  0  0  0  2  0  0  0  0  0  0
   20.3030   78.1600   18.6430 C   0  0  0  0  0  2  0  0  0  0  0  0
   20.8290   77.0660   15.3280 C   0  0  0  0  0  0  0  0  0  0  0  0
   20.2680   75.9480   15.3980 O   0  0  0  0  0  0  0  0  0  0  0  0
   21.0300   77.6460   13.9980 C   0  0  0  0  0  0  0  0  0  0  0  0
   20.2570   77.4320   12.8980 N   0  0  0  0  0  0  0  0  0  0  0  0
   20.7560   78.1350   11.8700 C   0  0  0  0  0  0  0  0  0  0  0  0
   21.8310   78.7820   12.3210 N   0  0  0  0  0  0  0  0  0  0  0  0
   20.3730   78.2810   10.5460 C   0  0  0  0  0  3  0  0  0  0  0  0
   22.0200   78.5010   13.6170 C   0  0  0  0  0  3  0  0  0  0  0  0
   22.5200   79.5670   11.4690 C   0  0  0  0  0  3  0  0  0  0  0  0
   22.1870   79.7470   10.1550 C   0  0  0  0  0  0  0  0  0  0  0  0
   21.0690   79.0800    9.6670 C   0  0  0  0  0  3  0  0  0  0  0  0
   23.1110   80.7810    9.0710 Cl  0  0  0  0  0  0  0  0  0  0  0  0
   19.8420   80.7500   18.5410 S   0  0  0  0  0  0  0  0  0  0  0  0
   20.2600   81.6630   17.4350 O   0  0  0  0  0  0  0  0  0  0  0  0
   18.4720   80.2190   18.2270 O   0  0  0  0  0  0  0  0  0  0  0  0
   19.7160   81.6710   19.9860 N   0  0  0  0  0  0  0  0  0  0  0  0
   19.2080   83.0080   19.7450 C   0  0  0  0  0  2  0  0  0  0  0  0
   19.6700   83.8750   20.8930 C   0  0  0  0  0  2  0  0  0  0  0  0
   19.7290   83.1610   22.0850 O   0  0  0  0  0  0  0  0  0  0  0  0
   20.7300   82.1910   22.0820 C   0  0  0  0  0  2  0  0  0  0  0  0
   21.0040   81.8320   20.6350 C   0  0  0  0  0  2  0  0  0  0  0  0
  2  1  1  0  0  0  0
  3  4  1  0  0  0  0
  3  2  1  0  0  0  0
  4  5  1  0  0  0  0
  5  6  1  0  0  0  0
  6  1  1  0  0  0  0
  7  8  2  0  0  0  0
  7  4  1  0  0  0  0
  9  7  1  0  0  0  0
 10  9  1  0  0  0  0
 11 12  1  0  0  0  0
 11 10  2  0  0  0  0
 12 14  1  0  0  0  0
 13 11  1  0  0  0  0
 14  9  2  0  0  0  0
 15 12  1  0  0  0  0
 16 15  2  0  0  0  0
 17 16  1  0  0  0  0
 17 13  2  0  0  0  0
 18 16  1  0  0  0  0
 19  1  1  0  0  0  0
 19 22  1  0  0  0  0
 20 19  2  0  0  0  0
 21 19  2  0  0  0  0
 22 27  1  0  0  0  0
 23 22  1  0  0  0  0
 23 24  1  0  0  0  0
 24 25  1  0  0  0  0
 26 25  1  0  0  0  0
 27 26  1  0  0  0  0
M  END
>  <Pose>
1

>  <Score>
-9.381

$$$$
