/Users/jonathanwahrer/Desktop/Msc/3_Semester/Drug_Design_Praktikum/waehrer_HTS_screening/HTS_experiment/out/docking_results/vina_output/6e43/1758_docked.pdbqt
 OpenBabel03212220473D

 28 32  0  0  1  0  0  0  0  0999 V2000
   20.3050   78.2790    9.4210 N   0  0  0  0  0  0  0  0  0  0  0  0
   21.0950   79.2950    9.1250 N   0  0  0  0  0  0  0  0  0  0  0  0
   21.6100   79.8670   10.2330 C   0  0  0  0  0  0  0  0  0  0  0  0
   22.4260   80.8890   10.3350 C   0  0  0  0  0  2  0  0  0  0  0  0
   21.1080   79.1580   11.3060 C   0  0  1  0  0  3  0  0  0  0  0  0
   20.3040   78.1810   10.7610 C   0  0  0  0  0  0  0  0  0  0  0  0
   19.6590   77.3220   11.4140 O   0  0  0  0  0  0  0  0  0  0  0  0
   21.3090   79.6340    8.1580 H   0  0  0  0  0  0  0  0  0  0  0  0
   21.3680   79.3930   12.6020 C   0  0  0  0  0  2  0  0  0  0  0  0
   21.7040   78.2610   13.3940 N   0  0  0  0  0  0  0  0  0  0  0  0
   21.4660   77.2820   13.1420 H   0  0  0  0  0  0  0  0  0  0  0  0
   22.4280   78.4720   14.6370 C   0  0  2  0  0  0  0  0  0  0  0  0
   22.3100   79.9260   15.0660 C   0  0  0  0  0  2  0  0  0  0  0  0
   22.9790   80.1010   16.3260 N   0  0  2  0  0  0  0  0  0  0  0  0
   24.3820   79.7550   16.1250 C   0  0  0  0  0  2  0  0  0  0  0  0
   22.3620   79.2310   17.3000 C   0  0  0  0  0  2  0  0  0  0  0  0
   24.5380   78.3740   15.7610 N   0  0  1  0  0  0  0  0  0  0  0  0
   23.9230   77.5150   16.7480 C   0  0  0  0  0  2  0  0  0  0  0  0
   23.8870   78.1590   14.4930 C   0  0  0  0  0  2  0  0  0  0  0  0
   22.5330   77.8250   16.9460 N   0  0  2  0  0  0  0  0  0  0  0  0
   21.8170   77.5990   15.7110 C   0  0  0  0  0  2  0  0  0  0  0  0
   19.5910   77.4430    8.4880 C   0  0  0  0  0  0  0  0  0  0  0  0
   19.9580   76.1690    8.1930 C   0  0  0  0  0  3  0  0  0  0  0  0
   19.2010   75.4400    7.2750 C   0  0  0  0  0  3  0  0  0  0  0  0
   18.0890   75.9780    6.6580 C   0  0  0  0  0  0  0  0  0  0  0  0
   16.9500   74.8730    5.2740 I   0  0  0  0  0  0  0  0  0  0  0  0
   17.7150   77.2680    6.9550 C   0  0  0  0  0  3  0  0  0  0  0  0
   18.4750   77.9710    7.8640 C   0  0  0  0  0  3  0  0  0  0  0  0
  1  6  1  0  0  0  0
  2  1  1  0  0  0  0
  2  3  1  0  0  0  0
  3  4  2  0  0  0  0
  3  5  1  0  0  0  0
  5  9  1  6  0  0  0
  6  5  1  0  0  0  0
  6  7  2  0  0  0  0
  8  2  1  0  0  0  0
  9 10  1  0  0  0  0
 11 10  1  0  0  0  0
 12 10  1  6  0  0  0
 12 13  1  0  0  0  0
 12 21  1  0  0  0  0
 14 13  1  6  0  0  0
 14 16  1  0  0  0  0
 15 14  1  0  0  0  0
 17 19  1  6  0  0  0
 17 15  1  0  0  0  0
 17 18  1  0  0  0  0
 18 20  1  0  0  0  0
 19 12  1  0  0  0  0
 20 21  1  6  0  0  0
 20 16  1  0  0  0  0
 22  1  1  0  0  0  0
 23 22  1  0  0  0  0
 24 23  2  0  0  0  0
 25 27  2  0  0  0  0
 25 24  1  0  0  0  0
 26 25  1  0  0  0  0
 27 28  1  0  0  0  0
 28 22  2  0  0  0  0
M  END
>  <Pose>
1

>  <Score>
-8.628

$$$$
