/Users/jonathanwahrer/Desktop/Msc/3_Semester/Drug_Design_Praktikum/waehrer_HTS_screening/HTS_experiment/out/docking_results/vina_output/6e43/1789_docked.pdbqt
 OpenBabel03212220483D

 29 32  0  0  0  0  0  0  0  0999 V2000
   21.1220   77.6600   15.2000 N   0  0  0  0  0  0  0  0  0  0  0  0
   20.7800   76.4270   15.4850 N   0  0  0  0  0  0  0  0  0  0  0  0
   20.3220   76.4360   16.7330 N   0  0  0  0  0  0  0  0  0  0  0  0
   20.3690   77.6780   17.2520 C   0  0  0  0  0  0  0  0  0  0  0  0
   20.8750   78.4350   16.2720 C   0  0  0  0  0  0  0  0  0  0  0  0
   20.9260   79.7160   16.8040 C   0  0  0  0  0  0  0  0  0  0  0  0
   21.3480   80.7140   16.1780 O   0  0  0  0  0  0  0  0  0  0  0  0
   20.4680   79.7530   18.0640 N   0  0  0  0  0  0  0  0  0  0  0  0
   20.1210   78.4830   18.3450 C   0  0  0  0  0  0  0  0  0  0  0  0
   19.6380   78.0860   19.4470 O   0  0  0  0  0  0  0  0  0  0  0  0
   20.8520   75.5790   14.8480 H   0  0  0  0  0  0  0  0  0  0  0  0
   19.9770   75.5740   17.2200 H   0  0  0  0  0  0  0  0  0  0  0  0
   20.3550   80.8650   18.9480 C   0  0  0  0  0  0  0  0  0  0  0  0
   20.0080   82.1310   18.5210 C   0  0  0  0  0  3  0  0  0  0  0  0
   19.9000   83.2020   19.3840 C   0  0  0  0  0  0  0  0  0  0  0  0
   20.1400   83.0520   20.7340 C   0  0  0  0  0  0  0  0  0  0  0  0
   20.4880   81.7930   21.1750 C   0  0  0  0  0  3  0  0  0  0  0  0
   20.5930   80.7250   20.3020 C   0  0  0  0  0  3  0  0  0  0  0  0
   19.5500   84.4790   18.9540 O   0  0  0  0  0  0  0  0  0  0  0  0
   20.4110   85.1090   18.0230 C   0  0  0  0  0  1  0  0  0  0  0  0
   20.0290   84.1400   21.5970 O   0  0  0  0  0  0  0  0  0  0  0  0
   18.9590   84.3280   22.4710 C   0  0  0  0  0  1  0  0  0  0  0  0
   21.6590   78.0980   13.9700 C   0  0  0  0  0  0  0  0  0  0  0  0
   22.9580   78.5900   13.9090 C   0  0  0  0  0  3  0  0  0  0  0  0
   23.4160   78.9990   12.6730 C   0  0  0  0  0  3  0  0  0  0  0  0
   22.6790   78.9500   11.5240 C   0  0  0  0  0  0  0  0  0  0  0  0
   23.3090   79.4860    9.9650 Cl  0  0  0  0  0  0  0  0  0  0  0  0
   21.3970   78.4620   11.5950 C   0  0  0  0  0  3  0  0  0  0  0  0
   20.8970   78.0440   12.7950 C   0  0  0  0  0  3  0  0  0  0  0  0
  1  2  1  0  0  0  0
  1  5  1  0  0  0  0
  2  3  1  0  0  0  0
  3 12  1  0  0  0  0
  3  4  1  0  0  0  0
  4  9  1  0  0  0  0
  5  6  1  0  0  0  0
  5  4  2  0  0  0  0
  6  8  1  0  0  0  0
  7  6  2  0  0  0  0
  8  9  1  0  0  0  0
  8 13  1  0  0  0  0
  9 10  2  0  0  0  0
 11  2  1  0  0  0  0
 13 18  1  0  0  0  0
 14 13  2  0  0  0  0
 14 15  1  0  0  0  0
 15 16  2  0  0  0  0
 16 17  1  0  0  0  0
 16 21  1  0  0  0  0
 18 17  2  0  0  0  0
 19 15  1  0  0  0  0
 20 19  1  0  0  0  0
 21 22  1  0  0  0  0
 23  1  1  0  0  0  0
 24 23  1  0  0  0  0
 25 24  2  0  0  0  0
 26 28  2  0  0  0  0
 26 25  1  0  0  0  0
 27 26  1  0  0  0  0
 28 29  1  0  0  0  0
 29 23  2  0  0  0  0
M  END
>  <Pose>
1

>  <Score>
-9.644

$$$$
