/Users/jonathanwahrer/Desktop/Msc/3_Semester/Drug_Design_Praktikum/waehrer_HTS_screening/HTS_experiment/out/docking_results/vina_output/6e43/1806_docked.pdbqt
 OpenBabel03212220483D

 32 35  0  0  0  0  0  0  0  0999 V2000
   22.9330   79.2400   15.2380 N   0  0  0  0  0  0  0  0  0  0  0  0
   24.1200   78.5510   14.7740 C   0  0  0  0  0  2  0  0  0  0  0  0
   24.1190   78.6310   13.2380 C   0  0  0  0  0  2  0  0  0  0  0  0
   22.9090   79.1810   12.7320 N   0  0  0  0  0  0  0  0  0  0  0  0
   22.6500   80.5580   13.1500 C   0  0  0  0  0  2  0  0  0  0  0  0
   22.6390   80.5370   14.6600 C   0  0  0  0  0  2  0  0  0  0  0  0
   22.0710   78.7210   16.2420 C   0  0  0  0  0  3  0  0  0  0  0  0
   21.3860   79.4090   17.1250 C   0  0  0  0  0  0  0  0  0  0  0  0
   21.4200   80.8210   17.1920 N   0  0  0  0  0  0  0  0  0  0  0  0
   20.5550   78.7100   18.0790 N   0  0  0  0  0  0  0  0  0  0  0  0
   20.6480   81.5390   18.1810 C   0  0  0  0  0  0  0  0  0  0  0  0
   22.0020   81.3590   16.5270 H   0  0  0  0  0  0  0  0  0  0  0  0
   19.8540   80.8960   19.0960 C   0  0  0  0  0  0  0  0  0  0  0  0
   20.7100   82.9090   18.2120 C   0  0  0  0  0  3  0  0  0  0  0  0
   19.1300   81.6140   20.0280 C   0  0  0  0  0  3  0  0  0  0  0  0
   19.8110   79.4420   19.0370 C   0  0  0  0  0  0  0  0  0  0  0  0
   19.1930   82.9730   20.0560 C   0  0  0  0  0  0  0  0  0  0  0  0
   18.2930   83.9420   21.2210 Cl  0  0  0  0  0  0  0  0  0  0  0  0
   19.9870   83.6310   19.1440 C   0  0  0  0  0  3  0  0  0  0  0  0
   19.0690   78.8460   19.8910 O   0  0  0  0  0  0  0  0  0  0  0  0
   20.5060   77.6730   18.0600 H   0  0  0  0  0  0  0  0  0  0  0  0
   21.9290   78.5790   11.9050 C   0  0  0  0  0  0  0  0  0  0  0  0
   20.8950   77.8910   12.5160 N   0  0  0  0  0  0  0  0  0  0  0  0
   19.9210   77.2700   11.8530 C   0  0  0  0  0  3  0  0  0  0  0  0
   19.9400   77.3140   10.4870 C   0  0  0  0  0  3  0  0  0  0  0  0
   20.9450   77.9840    9.8490 C   0  0  0  0  0  3  0  0  0  0  0  0
   21.9780   78.6440   10.5440 C   0  0  0  0  0  0  0  0  0  0  0  0
   22.9980   79.3630    9.8440 C   0  0  0  0  0  0  0  0  0  0  0  0
   24.0990   78.9200    9.5250 O   0  0  0  0  0  0  0  0  0  0  0  0
   22.7420   80.7120    9.4730 N   0  0  0  0  0  0  0  0  0  0  0  0
   22.0280   80.9390    8.7440 H   0  0  0  0  0  0  0  0  0  0  0  0
   23.2350   81.5310    9.8930 H   0  0  0  0  0  0  0  0  0  0  0  0
  1  7  1  0  0  0  0
  2  1  1  0  0  0  0
  3  2  1  0  0  0  0
  4  5  1  0  0  0  0
  4  3  1  0  0  0  0
  5  6  1  0  0  0  0
  6  1  1  0  0  0  0
  7  8  2  0  0  0  0
  8  9  1  0  0  0  0
  8 10  1  0  0  0  0
  9 11  1  0  0  0  0
 10 16  1  0  0  0  0
 11 14  2  0  0  0  0
 11 13  1  0  0  0  0
 12  9  1  0  0  0  0
 13 15  2  0  0  0  0
 14 19  1  0  0  0  0
 15 17  1  0  0  0  0
 16 13  1  0  0  0  0
 16 20  2  0  0  0  0
 17 18  1  0  0  0  0
 19 17  2  0  0  0  0
 21 10  1  0  0  0  0
 22 23  1  0  0  0  0
 22  4  1  0  0  0  0
 24 23  2  0  0  0  0
 25 24  1  0  0  0  0
 26 25  2  0  0  0  0
 26 27  1  0  0  0  0
 27 22  2  0  0  0  0
 28 27  1  0  0  0  0
 29 28  2  0  0  0  0
 30 28  1  0  0  0  0
 30 32  1  0  0  0  0
 31 30  1  0  0  0  0
M  END
>  <Pose>
1

>  <Score>
-10.033

$$$$
