/Users/jonathanwahrer/Desktop/Msc/3_Semester/Drug_Design_Praktikum/waehrer_HTS_screening/HTS_experiment/out/docking_results/vina_output/6e43/1810_docked.pdbqt
 OpenBabel03212220493D

 32 35  0  0  1  0  0  0  0  0999 V2000
   22.4310   78.5660   14.2820 N   0  0  0  0  0  0  0  0  0  0  0  0
   23.4060   77.9640   15.1560 C   0  0  0  0  0  2  0  0  0  0  0  0
   22.6890   77.5170   16.4090 C   0  0  0  0  0  2  0  0  0  0  0  0
   21.2660   77.5810   16.1930 N   0  0  0  0  0  0  0  0  0  0  0  0
   20.6610   77.1430   14.9410 C   0  0  0  0  0  2  0  0  0  0  0  0
   21.5820   77.5080   13.7740 C   0  0  0  0  0  2  0  0  0  0  0  0
   20.4280   78.0860   17.2040 C   0  0  0  0  0  0  0  0  0  0  0  0
   19.1630   78.0980   17.0110 O   0  0  0  0  0  0  0  0  0  0  0  0
   21.0020   78.6030   18.4760 C   0  0  1  0  0  3  0  0  0  0  0  0
   21.3190   80.0700   18.4160 C   0  0  0  0  0  2  0  0  0  0  0  0
   20.2540   80.7300   19.1630 N   0  0  0  0  0  0  0  0  0  0  0  0
   19.3040   79.7710   19.5890 C   0  0  0  0  0  0  0  0  0  0  0  0
   18.1110   80.0310   19.8790 O   0  0  0  0  0  0  0  0  0  0  0  0
   20.0210   78.4780   19.6080 C   0  0  0  0  0  2  0  0  0  0  0  0
   20.1880   82.1510   19.4170 C   0  0  0  0  0  2  0  0  0  0  0  0
   20.2640   82.4570   20.8650 C   0  0  0  0  0  0  0  0  0  0  0  0
   19.3530   83.3460   21.4170 C   0  0  0  0  0  0  0  0  0  0  0  0
   19.3630   83.6810   22.7610 C   0  0  0  0  0  3  0  0  0  0  0  0
   18.1580   84.0570   20.3670 Cl  0  0  0  0  0  0  0  0  0  0  0  0
   20.3290   83.0920   23.5510 C   0  0  0  0  0  3  0  0  0  0  0  0
   21.2530   82.2010   23.0320 C   0  0  0  0  0  3  0  0  0  0  0  0
   21.2200   81.8820   21.6760 C   0  0  0  0  0  3  0  0  0  0  0  0
   23.1870   79.4520   13.0180 S   0  0  0  0  0  0  0  0  0  0  0  0
   24.6710   79.2200   12.9890 O   0  0  0  0  0  0  0  0  0  0  0  0
   23.0050   80.9190   13.3460 O   0  0  0  0  0  0  0  0  0  0  0  0
   22.4510   79.1280   11.4780 C   0  0  0  0  0  0  0  0  0  0  0  0
   21.1560   79.3000   11.0440 C   0  0  0  0  0  0  0  0  0  0  0  0
   21.0970   78.8790    9.7430 N   0  0  0  0  0  0  0  0  0  0  0  0
   20.0520   79.8490   11.8540 C   0  0  0  0  0  1  0  0  0  0  0  0
   22.2660   78.4820    9.4100 O   0  0  0  0  0  0  0  0  0  0  0  0
   23.1260   78.6000   10.3940 C   0  0  0  0  0  0  0  0  0  0  0  0
   24.5510   78.2170   10.2850 C   0  0  0  0  0  1  0  0  0  0  0  0
  1  2  1  0  0  0  0
  2  3  1  0  0  0  0
  4  3  1  0  0  0  0
  4  7  1  0  0  0  0
  5  4  1  0  0  0  0
  6  1  1  0  0  0  0
  6  5  1  0  0  0  0
  8  7  2  0  0  0  0
  9  7  1  6  0  0  0
  9 14  1  0  0  0  0
 10  9  1  0  0  0  0
 10 11  1  0  0  0  0
 11 15  1  0  0  0  0
 11 12  1  0  0  0  0
 12 14  1  0  0  0  0
 12 13  2  0  0  0  0
 15 16  1  0  0  0  0
 16 17  2  0  0  0  0
 16 22  1  0  0  0  0
 17 18  1  0  0  0  0
 18 20  2  0  0  0  0
 19 17  1  0  0  0  0
 21 20  1  0  0  0  0
 22 21  2  0  0  0  0
 23 25  2  0  0  0  0
 23  1  1  0  0  0  0
 24 23  2  0  0  0  0
 26 23  1  0  0  0  0
 27 26  1  0  0  0  0
 27 29  1  0  0  0  0
 28 27  2  0  0  0  0
 30 28  1  0  0  0  0
 30 31  1  0  0  0  0
 31 26  2  0  0  0  0
 32 31  1  0  0  0  0
M  END
>  <Pose>
1

>  <Score>
-10.491

$$$$
