/Users/jonathanwahrer/Desktop/Msc/3_Semester/Drug_Design_Praktikum/waehrer_HTS_screening/HTS_experiment/out/docking_results/vina_output/6e43/1816_docked.pdbqt
 OpenBabel03212220493D

 36 39  0  0  0  0  0  0  0  0999 V2000
   18.9800   77.4360    9.8450 C   0  0  0  0  0  0  0  0  0  0  0  0
   18.6010   78.5800   10.2740 O   0  0  0  0  0  0  0  0  0  0  0  0
   18.8430   77.1800    8.4920 N   0  0  0  0  0  0  0  0  0  0  0  0
   18.3030   78.1240    7.5640 C   0  0  0  0  0  2  0  0  0  0  0  0
   17.0690   77.4920    6.9160 C   0  0  0  0  0  2  0  0  0  0  0  0
   17.4280   76.2440    6.3310 N   0  0  0  0  0  0  0  0  0  0  0  0
   18.8350   75.8200    6.4900 C   0  0  0  0  0  2  0  0  0  0  0  0
   19.2530   75.9090    7.9410 C   0  0  0  0  0  2  0  0  0  0  0  0
   16.5580   75.3860    5.6260 C   0  0  0  0  0  0  0  0  0  0  0  0
   17.1540   74.2870    5.1740 O   0  0  0  0  0  0  0  0  0  0  0  0
   19.5350   76.4820   10.8440 C   0  0  0  0  0  2  0  0  0  0  0  0
   20.4060   77.1710   11.8230 C   0  0  0  0  0  0  0  0  0  0  0  0
   21.3460   78.1030   11.3870 C   0  0  0  0  0  0  0  0  0  0  0  0
   22.1410   78.7440   12.2080 O   0  0  0  0  0  0  0  0  0  0  0  0
   21.3970   78.3090   10.1280 O   0  0  0  0  0  0  0  0  0  0  0  0
   22.1200   78.5610   13.5060 C   0  0  0  0  0  0  0  0  0  0  0  0
   21.2280   77.6620   14.0430 C   0  0  0  0  0  0  0  0  0  0  0  0
   22.9840   79.2600   14.3590 C   0  0  0  0  0  3  0  0  0  0  0  0
   21.2160   77.4810   15.4050 C   0  0  0  0  0  3  0  0  0  0  0  0
   20.3690   76.9680   13.1840 C   0  0  0  0  0  0  0  0  0  0  0  0
   22.0760   78.1770   16.2480 C   0  0  0  0  0  0  0  0  0  0  0  0
   22.0660   77.9480   17.9820 Cl  0  0  0  0  0  0  0  0  0  0  0  0
   22.9730   79.0790   15.7230 C   0  0  0  0  0  0  0  0  0  0  0  0
   19.4240   76.0190   13.7640 C   0  0  0  0  0  1  0  0  0  0  0  0
   23.8450   79.7860   16.5710 O   0  0  0  0  0  0  0  0  0  0  0  0
   25.1890   79.4070   16.7390 C   0  0  0  0  0  1  0  0  0  0  0  0
   15.1650   75.4830    5.3120 C   0  0  0  0  0  0  0  0  0  0  0  0
   14.6820   74.9140    4.1060 C   0  0  0  0  0  3  0  0  0  0  0  0
   13.3580   74.9900    3.7670 C   0  0  0  0  0  0  0  0  0  0  0  0
   12.9550   74.4770    2.6900 O   0  0  0  0  0  0  0  0  0  0  0  0
   12.4480   75.5980    4.5390 N   0  0  0  0  0  0  0  0  0  0  0  0
   12.9010   76.1330    5.6740 C   0  0  0  0  0  0  0  0  0  0  0  0
   11.0550   75.6700    4.1630 C   0  0  0  0  0  1  0  0  0  0  0  0
   12.0740   76.7240    6.4440 O   0  0  0  0  0  0  0  0  0  0  0  0
   14.2270   76.0740    6.0450 N   0  0  0  0  0  0  0  0  0  0  0  0
   14.4770   76.5190    6.9500 H   0  0  0  0  0  0  0  0  0  0  0  0
  1  2  2  0  0  0  0
  1 11  1  0  0  0  0
  3  1  1  0  0  0  0
  4  3  1  0  0  0  0
  5  4  1  0  0  0  0
  6  7  1  0  0  0  0
  6  5  1  0  0  0  0
  7  8  1  0  0  0  0
  8  3  1  0  0  0  0
  9  6  1  0  0  0  0
 10  9  2  0  0  0  0
 11 12  1  0  0  0  0
 12 20  2  0  0  0  0
 13 12  1  0  0  0  0
 13 14  1  0  0  0  0
 14 16  1  0  0  0  0
 15 13  2  0  0  0  0
 16 17  2  0  0  0  0
 16 18  1  0  0  0  0
 17 19  1  0  0  0  0
 18 23  2  0  0  0  0
 19 21  2  0  0  0  0
 20 24  1  0  0  0  0
 20 17  1  0  0  0  0
 21 22  1  0  0  0  0
 23 21  1  0  0  0  0
 23 25  1  0  0  0  0
 25 26  1  0  0  0  0
 27  9  1  0  0  0  0
 27 35  1  0  0  0  0
 28 27  2  0  0  0  0
 29 28  1  0  0  0  0
 29 31  1  0  0  0  0
 30 29  2  0  0  0  0
 31 32  1  0  0  0  0
 32 35  1  0  0  0  0
 32 34  2  0  0  0  0
 33 31  1  0  0  0  0
 35 36  1  0  0  0  0
M  END
>  <Pose>
1

>  <Score>
-10.318

$$$$
