/Users/jonathanwahrer/Desktop/Msc/3_Semester/Drug_Design_Praktikum/waehrer_HTS_screening/HTS_experiment/out/docking_results/vina_output/6e43/1822_docked.pdbqt
 OpenBabel03212220493D

 24 27  0  0  1  0  0  0  0  0999 V2000
   17.7280   72.7110   10.4150 Cl  0  0  0  0  0  0  0  0  0  0  0  0
   18.5170   73.4470   11.8060 C   0  0  0  0  0  0  0  0  0  0  0  0
   18.8250   72.6470   12.8830 C   0  0  0  0  0  0  0  0  0  0  0  0
   19.4270   73.2180   13.9380 N   0  0  0  0  0  0  0  0  0  0  0  0
   19.7380   74.5400   13.9790 C   0  0  0  0  0  0  0  0  0  0  0  0
   19.4430   75.3300   12.9330 N   0  0  0  0  0  0  0  0  0  0  0  0
   19.8410   76.5690   13.2080 N   0  0  0  0  0  0  0  0  0  0  0  0
   20.4030   76.6140   14.4330 C   0  0  0  0  0  0  0  0  0  0  0  0
   20.3250   75.3390   14.8880 N   0  0  0  0  0  0  0  0  0  0  0  0
   18.8350   74.7860   11.8510 C   0  0  0  0  0  0  0  0  0  0  0  0
   18.5550   75.5330   10.8590 O   0  0  0  0  0  0  0  0  0  0  0  0
   18.4870   71.1830   12.8540 C   0  0  0  0  0  1  0  0  0  0  0  0
   19.6630   72.6140   14.7610 H   0  0  0  0  0  0  0  0  0  0  0  0
   20.9540   77.7460   15.1020 N   0  0  0  0  0  0  0  0  0  0  0  0
   20.6000   78.1990   16.4010 C   0  0  0  0  0  0  0  0  0  0  0  0
   20.0320   77.5570   17.3220 O   0  0  0  0  0  0  0  0  0  0  0  0
   21.0170   79.6350   16.5510 C   0  0  2  0  0  3  0  0  0  0  0  0
   21.9050   79.9170   15.3930 C   0  0  1  0  0  3  0  0  0  0  0  0
   21.7690   79.7900   17.8560 C   0  0  0  0  0  2  0  0  0  0  0  0
   23.3420   80.2370   15.7650 C   0  0  0  0  0  2  0  0  0  0  0  0
   21.9460   78.6490   14.6390 C   0  0  0  0  0  0  0  0  0  0  0  0
   23.7850   79.1620   16.7100 C   0  0  0  0  0  3  0  0  0  0  0  0
   22.9890   78.9550   17.7420 C   0  0  0  0  0  3  0  0  0  0  0  0
   22.7580   78.3830   13.6940 O   0  0  0  0  0  0  0  0  0  0  0  0
  1  2  1  0  0  0  0
  2 10  1  0  0  0  0
  2  3  2  0  0  0  0
  3  4  1  0  0  0  0
  4  5  1  0  0  0  0
  4 13  1  0  0  0  0
  5  9  2  0  0  0  0
  6  7  1  0  0  0  0
  6  5  1  0  0  0  0
  7  8  2  0  0  0  0
  8  9  1  0  0  0  0
  8 14  1  0  0  0  0
 10  6  1  0  0  0  0
 11 10  2  0  0  0  0
 12  3  1  0  0  0  0
 14 15  1  0  0  0  0
 15 17  1  0  0  0  0
 15 16  2  0  0  0  0
 17 19  1  1  0  0  0
 18 20  1  1  0  0  0
 18 17  1  0  0  0  0
 20 22  1  0  0  0  0
 21 14  1  0  0  0  0
 21 18  1  0  0  0  0
 22 23  2  0  0  0  0
 23 19  1  0  0  0  0
 24 21  2  0  0  0  0
M  END
>  <Pose>
1

>  <Score>
-9.720

$$$$
