/Users/jonathanwahrer/Desktop/Msc/3_Semester/Drug_Design_Praktikum/waehrer_HTS_screening/HTS_experiment/out/docking_results/vina_output/6e43/1835_docked.pdbqt
 OpenBabel03212220503D

 36 39  0  0  1  0  0  0  0  0999 V2000
   19.7720   76.4750   12.8580 C   0  0  0  0  0  0  0  0  0  0  0  0
   19.1930   75.4040   12.2930 N   0  0  0  0  0  0  0  0  0  0  0  0
   19.1830   75.6430   10.9700 C   0  0  0  0  0  0  0  0  0  0  0  0
   18.7320   74.9320    9.9080 N   0  0  0  0  0  0  0  0  0  0  0  0
   18.8370   75.3940    8.6470 C   0  0  0  0  0  3  0  0  0  0  0  0
   19.4050   76.5970    8.4120 N   0  0  0  0  0  0  0  0  0  0  0  0
   19.8770   77.3620    9.4150 C   0  0  0  0  0  0  0  0  0  0  0  0
   19.7570   76.8660   10.6980 C   0  0  0  0  0  0  0  0  0  0  0  0
   20.1180   77.3690   11.9020 N   0  0  0  0  0  0  0  0  0  0  0  0
   19.9950   76.6560   14.2490 N   0  0  0  0  0  0  0  0  0  0  0  0
   19.1970   76.6830   14.9280 H   0  0  0  0  0  0  0  0  0  0  0  0
   21.2750   76.8100   14.7860 N   0  0  0  0  0  0  0  0  0  0  0  0
   21.6640   77.9860   15.1170 C   0  0  0  0  0  3  0  0  0  0  0  0
   22.9910   78.2390   15.6860 C   0  0  0  0  0  0  0  0  0  0  0  0
   23.2340   78.0820   17.0340 C   0  0  0  0  0  0  0  0  0  0  0  0
   21.9120   77.5700   18.0560 Cl  0  0  0  0  0  0  0  0  0  0  0  0
   24.5070   78.3280   17.5540 C   0  0  0  0  0  3  0  0  0  0  0  0
   25.5520   78.7330   16.7520 C   0  0  0  0  0  3  0  0  0  0  0  0
   25.3000   78.8870   15.4040 C   0  0  0  0  0  3  0  0  0  0  0  0
   24.0360   78.6430   14.8840 C   0  0  0  0  0  0  0  0  0  0  0  0
   23.7310   78.8450   13.1630 Cl  0  0  0  0  0  0  0  0  0  0  0  0
   18.6660   74.2130   12.8920 C   0  0  1  0  0  3  0  0  0  0  0  0
   17.4950   73.7760   12.2790 O   0  0  0  0  0  0  0  0  0  0  0  0
   17.3820   72.4840   12.7920 C   0  0  2  0  0  3  0  0  0  0  0  0
   18.7370   71.9060   12.4140 C   0  0  1  0  0  3  0  0  0  0  0  0
   19.6480   73.0600   12.7790 C   0  0  2  0  0  3  0  0  0  0  0  0
   16.2500   71.7100   12.1710 C   0  0  0  0  0  2  0  0  0  0  0  0
   16.3080   70.3650   12.4370 O   0  0  0  0  0  0  0  0  0  0  0  0
   16.0670   69.8230   11.6540 H   0  0  0  0  0  0  0  0  0  0  0  0
   19.0320   70.7620   13.1430 O   0  0  0  0  0  0  0  0  0  0  0  0
   19.9550   70.8680   13.5010 H   0  0  0  0  0  0  0  0  0  0  0  0
   20.2200   72.7550   14.0150 O   0  0  0  0  0  0  0  0  0  0  0  0
   20.9850   73.3290   14.2200 H   0  0  0  0  0  0  0  0  0  0  0  0
   20.4650   78.6170    9.1370 N   0  0  0  0  0  0  0  0  0  0  0  0
   20.4990   79.0050    8.1780 H   0  0  0  0  0  0  0  0  0  0  0  0
   20.8750   79.1640    9.9150 H   0  0  0  0  0  0  0  0  0  0  0  0
  1 10  1  0  0  0  0
  2  1  1  0  0  0  0
  3  2  1  0  0  0  0
  4  3  2  0  0  0  0
  5  4  1  0  0  0  0
  6  5  2  0  0  0  0
  6  7  1  0  0  0  0
  7  8  2  0  0  0  0
  8  3  1  0  0  0  0
  8  9  1  0  0  0  0
  9  1  2  0  0  0  0
 10 12  1  0  0  0  0
 10 11  1  0  0  0  0
 12 13  2  0  0  0  0
 13 14  1  0  0  0  0
 14 15  1  0  0  0  0
 15 17  2  0  0  0  0
 15 16  1  0  0  0  0
 18 17  1  0  0  0  0
 19 18  2  0  0  0  0
 20 19  1  0  0  0  0
 20 14  2  0  0  0  0
 21 20  1  0  0  0  0
 22  2  1  6  0  0  0
 23 24  1  0  0  0  0
 23 22  1  0  0  0  0
 24 27  1  6  0  0  0
 25 26  1  0  0  0  0
 25 24  1  0  0  0  0
 25 30  1  1  0  0  0
 26 22  1  0  0  0  0
 26 32  1  1  0  0  0
 27 28  1  0  0  0  0
 29 28  1  0  0  0  0
 30 31  1  0  0  0  0
 32 33  1  0  0  0  0
 34  7  1  0  0  0  0
 34 36  1  0  0  0  0
 35 34  1  0  0  0  0
M  END
>  <Pose>
1

>  <Score>
-8.885

$$$$
