/Users/jonathanwahrer/Desktop/Msc/3_Semester/Drug_Design_Praktikum/waehrer_HTS_screening/HTS_experiment/out/docking_results/vina_output/6e43/1846_docked.pdbqt
 OpenBabel03212220503D

 31 34  0  0  1  0  0  0  0  0999 V2000
   21.5480   77.8000   15.5450 N   0  0  0  0  0  0  0  0  0  0  0  0
   22.1150   78.8020   14.8370 C   0  0  0  0  0  2  0  0  0  0  0  0
   21.8600   78.9380   13.5190 N   0  0  0  0  0  0  0  0  0  0  0  0
   21.0500   78.1130   12.8470 C   0  0  0  0  0  0  0  0  0  0  0  0
   20.7890   78.2400   11.5350 N   0  0  0  0  0  0  0  0  0  0  0  0
   19.9810   77.4250   10.8370 C   0  0  0  0  0  0  0  0  0  0  0  0
   19.3990   76.4090   11.5310 N   0  0  0  0  0  0  0  0  0  0  0  0
   19.6320   76.2460   12.8430 C   0  0  0  0  0  3  0  0  0  0  0  0
   20.4640   77.0880   13.5500 C   0  0  2  0  0  3  0  0  0  0  0  0
   20.7160   76.9370   14.8980 C   0  0  0  0  0  0  0  0  0  0  0  0
   20.1510   75.9810   15.4860 O   0  0  0  0  0  0  0  0  0  0  0  0
   21.7650   77.5860   16.9400 C   0  0  0  0  0  2  0  0  0  0  0  0
   21.5710   78.8370   17.7510 C   0  0  0  0  0  0  0  0  0  0  0  0
   20.2910   79.3740   17.9630 N   0  0  0  0  0  0  0  0  0  0  0  0
   19.4500   78.8660   17.5280 H   0  0  0  0  0  0  0  0  0  0  0  0
   22.6010   79.3520   18.2130 O   0  0  0  0  0  0  0  0  0  0  0  0
   20.0510   80.5460   18.7110 C   0  0  0  0  0  0  0  0  0  0  0  0
   19.4350   80.6030   19.9350 C   0  0  0  0  0  3  0  0  0  0  0  0
   19.2400   81.8290   20.5740 C   0  0  0  0  0  3  0  0  0  0  0  0
   19.6360   83.0300   20.0400 C   0  0  0  0  0  0  0  0  0  0  0  0
   20.2540   82.9840   18.8140 C   0  0  0  0  0  0  0  0  0  0  0  0
   20.8010   84.4590   18.0440 Cl  0  0  0  0  0  0  0  0  0  0  0  0
   20.4520   81.7850   18.1770 C   0  0  0  0  0  3  0  0  0  0  0  0
   19.4230   84.2410   20.7120 O   0  0  0  0  0  0  0  0  0  0  0  0
   18.1320   84.5710   21.1720 C   0  0  0  0  0  1  0  0  0  0  0  0
   19.7330   77.5930    9.4540 N   0  0  0  0  0  0  0  0  0  0  0  0
   19.9690   76.4740    8.5710 C   0  0  0  0  0  2  0  0  0  0  0  0
   18.8590   76.4330    7.5220 C   0  0  0  0  0  2  0  0  0  0  0  0
   18.6570   77.6790    6.9340 O   0  0  0  0  0  0  0  0  0  0  0  0
   18.1120   78.5010    7.9210 C   0  0  0  0  0  2  0  0  0  0  0  0
   19.2560   78.8300    8.8800 C   0  0  0  0  0  2  0  0  0  0  0  0
  1 12  1  0  0  0  0
  2  1  1  0  0  0  0
  3  2  1  0  0  0  0
  4  3  2  0  0  0  0
  4  9  1  0  0  0  0
  5  4  1  0  0  0  0
  6  7  1  0  0  0  0
  6  5  2  0  0  0  0
  7  8  2  0  0  0  0
  9  8  1  1  0  0  0
  9 10  1  0  0  0  0
 10 11  2  0  0  0  0
 10  1  1  0  0  0  0
 12 13  1  0  0  0  0
 13 14  1  0  0  0  0
 13 16  2  0  0  0  0
 14 17  1  0  0  0  0
 15 14  1  0  0  0  0
 17 18  1  0  0  0  0
 18 19  2  0  0  0  0
 20 19  1  0  0  0  0
 20 24  1  0  0  0  0
 21 20  2  0  0  0  0
 22 21  1  0  0  0  0
 23 17  2  0  0  0  0
 23 21  1  0  0  0  0
 24 25  1  0  0  0  0
 26  6  1  0  0  0  0
 27 26  1  0  0  0  0
 28 27  1  0  0  0  0
 29 28  1  0  0  0  0
 29 30  1  0  0  0  0
 30 31  1  0  0  0  0
 31 26  1  0  0  0  0
M  END
>  <Pose>
1

>  <Score>
-9.918

$$$$
