/Users/jonathanwahrer/Desktop/Msc/3_Semester/Drug_Design_Praktikum/waehrer_HTS_screening/HTS_experiment/out/docking_results/vina_output/6e43/1871_docked.pdbqt
 OpenBabel03212220513D

 28 31  0  0  1  0  0  0  0  0999 V2000
   22.4000   77.4530   14.8560 C   0  0  2  0  0  0  0  0  0  0  0  0
   21.1500   76.9260   15.2430 N   0  0  0  0  0  4  0  0  0  0  0  0
   20.5430   77.7490   16.2020 C   0  0  0  0  0  0  0  0  0  0  0  0
   19.5040   77.8000   16.9980 C   0  0  0  0  0  3  0  0  0  0  0  0
   19.2670   78.9470   17.8830 C   0  0  0  0  0  3  0  0  0  0  0  0
   19.9680   80.2050   17.6610 C   0  0  0  0  0  3  0  0  0  0  0  0
   21.0160   80.1800   16.5760 C   0  0  0  0  0  2  0  0  0  0  0  0
   21.4750   78.8590   16.3320 N   0  0  0  0  0  0  0  0  0  0  0  0
   22.7640   78.2030   16.1480 C   0  0  2  0  0  3  0  0  0  0  0  0
   23.8480   79.1910   16.0320 C   0  0  0  0  0  1  0  0  0  0  0  0
   21.4660   76.0780   15.9010 H   0  0  0  0  0  0  0  0  0  0  0  0
   22.4550   78.3770   13.7250 C   0  0  0  0  0  0  0  0  0  0  0  0
   21.3890   79.1970   13.4630 C   0  0  0  0  0  3  0  0  0  0  0  0
   21.3850   80.0820   12.3870 C   0  0  0  0  0  3  0  0  0  0  0  0
   22.5000   80.1220   11.5620 C   0  0  0  0  0  0  0  0  0  0  0  0
   22.5910   81.1980   10.1810 Cl  0  0  0  0  0  0  0  0  0  0  0  0
   23.5670   79.2890   11.8390 C   0  0  0  0  0  3  0  0  0  0  0  0
   23.5700   78.4130   12.9060 C   0  0  0  0  0  3  0  0  0  0  0  0
   23.3250   76.4400   14.7500 O   0  0  0  0  0  0  0  0  0  0  0  0
   23.0090   75.5870   14.3990 H   0  0  0  0  0  0  0  0  0  0  0  0
   20.4140   76.2250   14.2940 C   0  0  0  0  0  0  0  0  0  0  0  0
   20.0740   74.9170   14.5980 C   0  0  0  0  0  3  0  0  0  0  0  0
   19.3590   74.1130   13.7430 C   0  0  0  0  0  3  0  0  0  0  0  0
   18.9230   74.5690   12.4940 C   0  0  0  0  0  0  0  0  0  0  0  0
   19.2750   75.8670   12.2190 C   0  0  0  0  0  3  0  0  0  0  0  0
   19.9890   76.6640   13.0790 C   0  0  0  0  0  3  0  0  0  0  0  0
   18.2020   73.7530   11.6440 O   0  0  0  0  0  0  0  0  0  0  0  0
   17.8540   72.4550   12.0570 C   0  0  0  0  0  1  0  0  0  0  0  0
  1 19  1  6  0  0  0
  1  2  1  0  0  0  0
  1  9  1  0  0  0  0
  2 11  1  0  0  0  0
  2  3  1  0  0  0  0
  3  8  1  0  0  0  0
  3  4  2  0  0  0  0
  4  5  1  0  0  0  0
  6  5  2  0  0  0  0
  7  6  1  0  0  0  0
  8  7  1  0  0  0  0
  9 10  1  6  0  0  0
  9  8  1  0  0  0  0
 12  1  1  0  0  0  0
 13 12  1  0  0  0  0
 14 13  2  0  0  0  0
 15 17  2  0  0  0  0
 15 14  1  0  0  0  0
 16 15  1  0  0  0  0
 17 18  1  0  0  0  0
 18 12  2  0  0  0  0
 20 19  1  0  0  0  0
 21 22  1  0  0  0  0
 21  2  1  0  0  0  0
 23 22  2  0  0  0  0
 24 23  1  0  0  0  0
 25 24  2  0  0  0  0
 25 26  1  0  0  0  0
 26 21  2  0  0  0  0
 27 28  1  0  0  0  0
 27 24  1  0  0  0  0
M  END
>  <Pose>
1

>  <Score>
-8.347

$$$$
