/Users/jonathanwahrer/Desktop/Msc/3_Semester/Drug_Design_Praktikum/waehrer_HTS_screening/HTS_experiment/out/docking_results/vina_output/6e43/1893_docked.pdbqt
 OpenBabel03212220513D

 28 31  0  0  0  0  0  0  0  0999 V2000
   20.7260   79.8730   17.5210 N   0  0  0  0  0  0  0  0  0  0  0  0
   21.5200   79.9620   16.4270 C   0  0  0  0  0  0  0  0  0  0  0  0
   22.1560   80.9990   16.1040 O   0  0  0  0  0  0  0  0  0  0  0  0
   21.5320   78.7690   15.7240 C   0  0  0  0  0  0  0  0  0  0  0  0
   20.7400   77.9450   16.3920 C   0  0  0  0  0  0  0  0  0  0  0  0
   20.7540   76.7840   15.7040 N   0  0  0  0  0  0  0  0  0  0  0  0
   21.5500   76.9240   14.6350 N   0  0  0  0  0  0  0  0  0  0  0  0
   22.0370   78.1540   14.6400 N   0  0  0  0  0  0  0  0  0  0  0  0
   20.2470   78.6170   17.4900 C   0  0  0  0  0  0  0  0  0  0  0  0
   19.4660   78.1050   18.3230 O   0  0  0  0  0  0  0  0  0  0  0  0
   20.2310   75.9280   15.9660 H   0  0  0  0  0  0  0  0  0  0  0  0
   21.7760   76.2180   13.9030 H   0  0  0  0  0  0  0  0  0  0  0  0
   22.9430   78.7340   13.6700 C   0  0  0  0  0  2  0  0  0  0  0  0
   22.3470   78.8470   12.3160 C   0  0  0  0  0  0  0  0  0  0  0  0
   21.0040   79.0280   12.0740 C   0  0  0  0  0  3  0  0  0  0  0  0
   20.4540   79.1350   10.8120 C   0  0  0  0  0  0  0  0  0  0  0  0
   21.2850   79.0560    9.7210 C   0  0  0  0  0  3  0  0  0  0  0  0
   22.6340   78.8760    9.9150 C   0  0  0  0  0  3  0  0  0  0  0  0
   23.1590   78.7720   11.1930 C   0  0  0  0  0  3  0  0  0  0  0  0
   19.0720   79.3170   10.6790 O   0  0  0  0  0  0  0  0  0  0  0  0
   18.4990   80.6080   10.6360 C   0  0  0  0  0  1  0  0  0  0  0  0
   20.4720   80.8860   18.4690 C   0  0  0  0  0  0  0  0  0  0  0  0
   20.6260   80.6670   19.8220 C   0  0  0  0  0  3  0  0  0  0  0  0
   20.3820   81.6430   20.7710 C   0  0  0  0  0  3  0  0  0  0  0  0
   19.9680   82.8850   20.3390 C   0  0  0  0  0  0  0  0  0  0  0  0
   19.6370   84.1840   21.4920 Cl  0  0  0  0  0  0  0  0  0  0  0  0
   19.7990   83.1540   18.9960 C   0  0  0  0  0  3  0  0  0  0  0  0
   20.0560   82.1420   18.0760 C   0  0  0  0  0  3  0  0  0  0  0  0
  1 22  1  0  0  0  0
  2  1  1  0  0  0  0
  3  2  2  0  0  0  0
  4  5  2  0  0  0  0
  4  2  1  0  0  0  0
  5  9  1  0  0  0  0
  6 11  1  0  0  0  0
  6  5  1  0  0  0  0
  7  8  1  0  0  0  0
  7  6  1  0  0  0  0
  8  4  1  0  0  0  0
  9  1  1  0  0  0  0
  9 10  2  0  0  0  0
 12  7  1  0  0  0  0
 13  8  1  0  0  0  0
 14 13  1  0  0  0  0
 15 14  1  0  0  0  0
 16 15  2  0  0  0  0
 17 18  2  0  0  0  0
 17 16  1  0  0  0  0
 18 19  1  0  0  0  0
 19 14  2  0  0  0  0
 20 16  1  0  0  0  0
 21 20  1  0  0  0  0
 22 23  1  0  0  0  0
 23 24  2  0  0  0  0
 25 24  1  0  0  0  0
 25 26  1  0  0  0  0
 27 25  2  0  0  0  0
 28 22  2  0  0  0  0
 28 27  1  0  0  0  0
M  END
>  <Pose>
1

>  <Score>
-9.914

$$$$
