/Users/jonathanwahrer/Desktop/Msc/3_Semester/Drug_Design_Praktikum/waehrer_HTS_screening/HTS_experiment/out/docking_results/vina_output/6e43/1894_docked.pdbqt
 OpenBabel03212220523D

 26 29  0  0  0  0  0  0  0  0999 V2000
   20.0690   80.6200   18.6270 N   0  0  0  0  0  0  0  0  0  0  0  0
   20.8050   80.3320   17.5300 C   0  0  0  0  0  0  0  0  0  0  0  0
   21.4220   81.1860   16.8580 O   0  0  0  0  0  0  0  0  0  0  0  0
   20.7810   78.9750   17.2580 C   0  0  0  0  0  0  0  0  0  0  0  0
   20.0140   78.4250   18.2110 C   0  0  0  0  0  0  0  0  0  0  0  0
   19.9990   77.1080   17.9390 N   0  0  0  0  0  0  0  0  0  0  0  0
   20.7270   76.8700   16.8630 N   0  0  0  0  0  0  0  0  0  0  0  0
   21.2170   78.0110   16.4300 N   0  0  0  0  0  0  0  0  0  0  0  0
   19.5870   79.4410   19.0400 C   0  0  0  0  0  0  0  0  0  0  0  0
   18.8440   79.2800   20.0460 O   0  0  0  0  0  0  0  0  0  0  0  0
   19.5020   76.3650   18.4710 H   0  0  0  0  0  0  0  0  0  0  0  0
   20.8950   75.9200   16.4160 H   0  0  0  0  0  0  0  0  0  0  0  0
   19.8540   81.9000   19.2180 C   0  0  0  0  0  0  0  0  0  0  0  0
   19.3360   82.0260   20.4900 C   0  0  0  0  0  3  0  0  0  0  0  0
   19.1250   83.2630   21.0700 C   0  0  0  0  0  3  0  0  0  0  0  0
   19.4240   84.4290   20.3970 C   0  0  0  0  0  0  0  0  0  0  0  0
   19.1540   86.0030   21.1380 Cl  0  0  0  0  0  0  0  0  0  0  0  0
   19.9430   84.3150   19.1230 C   0  0  0  0  0  3  0  0  0  0  0  0
   20.1510   83.0750   18.5510 C   0  0  0  0  0  3  0  0  0  0  0  0
   22.0640   78.2150   15.2790 C   0  0  0  0  0  2  0  0  0  0  0  0
   23.5050   78.2900   15.6040 C   0  0  0  0  0  0  0  0  0  0  0  0
   24.3320   77.2440   15.2770 C   0  0  0  0  0  3  0  0  0  0  0  0
   25.6680   77.3330   15.5930 C   0  0  0  0  0  3  0  0  0  0  0  0
   26.1870   78.4480   16.2270 C   0  0  0  0  0  3  0  0  0  0  0  0
   25.3590   79.4970   16.5560 C   0  0  0  0  0  3  0  0  0  0  0  0
   24.0340   79.3930   16.2350 C   0  0  0  0  0  3  0  0  0  0  0  0
  1  9  1  0  0  0  0
  1 13  1  0  0  0  0
  2  1  1  0  0  0  0
  3  2  2  0  0  0  0
  4  2  1  0  0  0  0
  4  5  2  0  0  0  0
  5  9  1  0  0  0  0
  6  5  1  0  0  0  0
  6 11  1  0  0  0  0
  7  6  1  0  0  0  0
  8  7  1  0  0  0  0
  8  4  1  0  0  0  0
  9 10  2  0  0  0  0
 12  7  1  0  0  0  0
 13 14  1  0  0  0  0
 14 15  2  0  0  0  0
 16 15  1  0  0  0  0
 16 17  1  0  0  0  0
 18 16  2  0  0  0  0
 19 18  1  0  0  0  0
 19 13  2  0  0  0  0
 20 21  1  0  0  0  0
 20  8  1  0  0  0  0
 21 26  1  0  0  0  0
 22 23  1  0  0  0  0
 22 21  2  0  0  0  0
 23 24  2  0  0  0  0
 24 25  1  0  0  0  0
 26 25  2  0  0  0  0
M  END
>  <Pose>
1

>  <Score>
-11.305

$$$$
