/Users/jonathanwahrer/Desktop/Msc/3_Semester/Drug_Design_Praktikum/waehrer_HTS_screening/HTS_experiment/out/docking_results/vina_output/6e43/1906_docked.pdbqt
 OpenBabel03212220523D

 33 36  0  0  1  0  0  0  0  0999 V2000
   19.4050   76.5890    8.1650 C   0  0  1  0  0  0  0  0  0  0  0  0
   20.1430   75.8550    7.2240 O   0  0  0  0  0  0  0  0  0  0  0  0
   19.5700   74.6710    6.8510 C   0  0  0  0  0  2  0  0  0  0  0  0
   18.3270   74.8260    5.9980 C   0  0  0  0  0  2  0  0  0  0  0  0
   17.6290   75.9930    6.5960 N   0  0  0  0  0  0  0  0  0  0  0  0
   17.9250   76.2200    7.9580 C   0  0  0  0  0  2  0  0  0  0  0  0
   16.7810   76.7260    5.7920 C   0  0  0  0  0  0  0  0  0  0  0  0
   16.6060   76.3910    4.5480 O   0  0  0  0  0  0  0  0  0  0  0  0
   19.7800   76.0270    9.5070 C   0  0  0  0  0  2  0  0  0  0  0  0
   18.9440   75.2800   10.1910 O   0  0  0  0  0  0  0  0  0  0  0  0
   18.6760   74.4320   11.1400 C   0  0  0  0  0  0  0  0  0  0  0  0
   18.1450   73.1800   10.9580 C   0  0  0  0  0  3  0  0  0  0  0  0
   17.8980   72.3640   12.0280 C   0  0  0  0  0  0  0  0  0  0  0  0
   17.2160   70.7610   11.7570 Cl  0  0  0  0  0  0  0  0  0  0  0  0
   18.1710   72.7620   13.3240 C   0  0  0  0  0  3  0  0  0  0  0  0
   18.7020   74.0120   13.5090 C   0  0  0  0  0  3  0  0  0  0  0  0
   18.9540   74.8340   12.4610 C   0  0  0  0  0  3  0  0  0  0  0  0
   19.6630   78.0090    7.9470 C   0  0  0  0  0  2  0  0  0  0  0  0
   19.5560   78.9240    9.0850 C   0  0  0  0  0  0  0  0  0  0  0  0
   18.4450   79.3050    9.5000 O   0  0  0  0  0  0  0  0  0  0  0  0
   20.7140   79.4110    9.7570 N   0  0  0  0  0  0  0  0  0  0  0  0
   22.0570   79.0220    9.3410 C   0  0  0  0  0  2  0  0  0  0  0  0
   20.6150   80.3170   10.8820 C   0  0  0  0  0  2  0  0  0  0  0  0
   22.8110   78.6220   10.5920 C   0  0  0  0  0  2  0  0  0  0  0  0
   22.8120   79.7010   11.4820 O   0  0  0  0  0  0  0  0  0  0  0  0
   21.5210   79.8650   11.9810 C   0  0  0  0  0  2  0  0  0  0  0  0
   16.0380   77.8740    6.2120 C   0  0  0  0  0  0  0  0  0  0  0  0
   16.5400   79.1080    6.2530 N   0  0  0  0  0  0  0  0  0  0  0  0
   15.8460   80.1940    6.6470 C   0  0  0  0  0  3  0  0  0  0  0  0
   14.5240   80.0510    7.0380 C   0  0  0  0  0  0  0  0  0  0  0  0
   13.9910   78.8400    7.0090 N   0  0  0  0  0  0  0  0  0  0  0  0
   13.8090   81.2800    7.4620 C   0  0  0  0  0  1  0  0  0  0  0  0
   14.7020   77.7710    6.6140 C   0  0  0  0  0  3  0  0  0  0  0  0
  1 18  1  6  0  0  0
  1  9  1  0  0  0  0
  2  1  1  0  0  0  0
  3  2  1  0  0  0  0
  4  5  1  0  0  0  0
  4  3  1  0  0  0  0
  5  6  1  0  0  0  0
  6  1  1  0  0  0  0
  7 27  1  0  0  0  0
  7  5  1  0  0  0  0
  8  7  2  0  0  0  0
  9 10  1  0  0  0  0
 10 11  1  0  0  0  0
 11 17  1  0  0  0  0
 12 11  2  0  0  0  0
 12 13  1  0  0  0  0
 13 15  2  0  0  0  0
 14 13  1  0  0  0  0
 15 16  1  0  0  0  0
 17 16  2  0  0  0  0
 18 19  1  0  0  0  0
 19 20  2  0  0  0  0
 19 21  1  0  0  0  0
 21 23  1  0  0  0  0
 22 21  1  0  0  0  0
 22 24  1  0  0  0  0
 23 26  1  0  0  0  0
 24 25  1  0  0  0  0
 25 26  1  0  0  0  0
 27 28  2  0  0  0  0
 27 33  1  0  0  0  0
 28 29  1  0  0  0  0
 29 30  2  0  0  0  0
 30 32  1  0  0  0  0
 31 30  1  0  0  0  0
 33 31  2  0  0  0  0
M  END
>  <Pose>
1

>  <Score>
-9.637

$$$$
