/Users/jonathanwahrer/Desktop/Msc/3_Semester/Drug_Design_Praktikum/waehrer_HTS_screening/HTS_experiment/out/docking_results/vina_output/6e43/1913_docked.pdbqt
 OpenBabel03212220523D

 29 32  0  0  1  0  0  0  0  0999 V2000
   21.7280   77.6830   16.6890 N   0  0  0  0  0  0  0  0  0  0  0  0
   21.8750   77.6790   18.1260 C   0  0  0  0  0  2  0  0  0  0  0  0
   20.6970   77.0780   18.8450 C   0  0  0  0  0  2  0  0  0  0  0  0
   19.4340   77.6080   18.2610 C   0  0  2  0  0  3  0  0  0  0  0  0
   19.3100   77.1700   16.8420 C   0  0  0  0  0  3  0  0  0  0  0  0
   20.5370   77.2690   16.0120 C   0  0  0  0  0  3  0  0  0  0  0  0
   19.2670   79.0450   18.4810 C   0  0  0  0  0  0  0  0  0  0  0  0
   18.9680   79.7700   17.5010 O   0  0  0  0  0  0  0  0  0  0  0  0
   19.4250   79.6570   19.7420 N   0  0  0  0  0  0  0  0  0  0  0  0
   19.6770   79.0450   20.5710 H   0  0  0  0  0  0  0  0  0  0  0  0
   19.2630   81.0740   19.9730 C   0  0  0  0  0  2  0  0  0  0  0  0
   20.3640   81.6810   20.7940 C   0  0  0  0  0  2  0  0  0  0  0  0
   20.5900   83.0660   20.4220 N   0  0  0  0  0  0  0  0  0  0  0  0
   19.9730   83.9910   21.3120 C   0  0  0  0  0  2  0  0  0  0  0  0
   18.7960   84.6680   20.6410 C   0  0  0  0  0  2  0  0  0  0  0  0
   19.2780   85.3990   19.5840 O   0  0  0  0  0  0  0  0  0  0  0  0
   20.0450   84.7160   18.6770 C   0  0  0  0  0  2  0  0  0  0  0  0
   20.4000   83.3160   19.0380 C   0  0  0  0  0  2  0  0  0  0  0  0
   22.8230   78.1220   15.9150 C   0  0  0  0  0  0  0  0  0  0  0  0
   22.6760   78.3750   14.5780 C   0  0  0  0  0  0  0  0  0  0  0  0
   23.7600   78.8320   13.8150 C   0  0  0  0  0  0  0  0  0  0  0  0
   21.6410   78.2750   13.7280 N   0  0  0  0  0  0  0  0  0  0  0  0
   24.9270   79.0070   14.4420 N   0  0  0  0  0  4  0  0  0  0  0  0
   23.3810   78.9980   12.5540 N   0  0  0  0  0  0  0  0  0  0  0  0
   25.0830   78.7640   15.7450 C   0  0  0  0  0  0  0  0  0  0  0  0
   26.6260   79.0130   16.4940 Cl  0  0  0  0  0  0  0  0  0  0  0  0
   24.0510   78.3290   16.4750 N   0  0  0  0  0  2  0  0  0  0  0  0
   22.0870   78.6540   12.5240 C   0  0  0  0  0  3  0  0  0  0  0  0
   20.6830   77.9500   14.0000 H   0  0  0  0  0  0  0  0  0  0  0  0
  1  2  1  0  0  0  0
  2  3  1  0  0  0  0
  4  7  1  6  0  0  0
  4  3  1  0  0  0  0
  5  4  1  0  0  0  0
  6  1  1  0  0  0  0
  6  5  2  0  0  0  0
  7  9  1  0  0  0  0
  8  7  2  0  0  0  0
  9 11  1  0  0  0  0
  9 10  1  0  0  0  0
 11 12  1  0  0  0  0
 13 12  1  0  0  0  0
 13 14  1  0  0  0  0
 15 14  1  0  0  0  0
 16 15  1  0  0  0  0
 17 18  1  0  0  0  0
 17 16  1  0  0  0  0
 18 13  1  0  0  0  0
 19 27  1  0  0  0  0
 19  1  1  0  0  0  0
 20 19  2  0  0  0  0
 21 23  2  0  0  0  0
 21 20  1  0  0  0  0
 22 29  1  0  0  0  0
 22 20  1  0  0  0  0
 23 25  2  0  0  0  0
 24 21  1  0  0  0  0
 25 27  1  0  0  0  0
 25 26  1  0  0  0  0
 28 24  2  0  0  0  0
 28 22  1  0  0  0  0
M  END
>  <Pose>
1

>  <Score>
-9.748

$$$$
