/Users/jonathanwahrer/Desktop/Msc/3_Semester/Drug_Design_Praktikum/waehrer_HTS_screening/HTS_experiment/out/docking_results/vina_output/6e43/1927_docked.pdbqt
 OpenBabel03212220523D

 36 39  0  0  1  0  0  0  0  0999 V2000
   19.2610   76.8730    8.6730 C   0  0  0  0  0  2  0  0  0  0  0  0
   20.4640   77.7170    8.7210 C   0  0  0  0  0  0  0  0  0  0  0  0
   20.9860   78.5130    9.7330 N   0  0  0  0  0  0  0  0  0  0  0  0
   20.3310   78.8770   10.9390 C   0  0  0  0  0  2  0  0  0  0  0  0
   22.3690   79.0310    9.5650 C   0  0  0  0  0  2  0  0  0  0  0  0
   21.1380   78.4180   12.1360 C   0  0  0  0  0  2  0  0  0  0  0  0
   22.3880   79.2940   12.0900 C   0  0  2  0  0  0  0  0  0  0  0  0
   23.1490   79.0910   10.8340 C   0  0  0  0  0  2  0  0  0  0  0  0
   21.1370   77.7040    7.5990 O   0  0  0  0  0  0  0  0  0  0  0  0
   23.1310   79.1800   13.3320 C   0  0  0  0  0  0  0  0  0  0  0  0
   22.9460   80.1840   14.2910 C   0  0  0  0  0  3  0  0  0  0  0  0
   23.6370   80.1880   15.5020 C   0  0  0  0  0  3  0  0  0  0  0  0
   24.5360   79.1940   15.8040 C   0  0  0  0  0  0  0  0  0  0  0  0
   25.4300   79.2010   17.3470 Cl  0  0  0  0  0  0  0  0  0  0  0  0
   24.7300   78.1950   14.8640 C   0  0  0  0  0  3  0  0  0  0  0  0
   24.0380   78.2040   13.6680 C   0  0  0  0  0  3  0  0  0  0  0  0
   21.8530   80.6210   12.0360 O   0  0  0  0  0  0  0  0  0  0  0  0
   21.1190   80.5970   11.3720 H   0  0  0  0  0  0  0  0  0  0  0  0
   18.0380   77.4900    8.3990 N   0  0  0  0  0  0  0  0  0  0  0  0
   17.3960   77.5090    7.1230 C   0  0  0  0  0  0  0  0  0  0  0  0
   18.0300   76.9320    6.2010 O   0  0  0  0  0  0  0  0  0  0  0  0
   17.4630   77.9330    9.1640 H   0  0  0  0  0  0  0  0  0  0  0  0
   16.1200   78.1440    6.9400 C   0  0  0  0  0  3  0  0  0  0  0  0
   14.9800   77.6690    6.5610 C   0  0  0  0  0  0  0  0  0  0  0  0
   14.7770   76.2970    6.2160 N   0  0  0  0  0  0  0  0  0  0  0  0
   13.7780   78.5380    6.4860 C   0  0  0  0  0  0  0  0  0  0  0  0
   13.5150   75.8000    5.8270 N   0  0  0  0  0  0  0  0  0  0  0  0
   15.5700   75.6120    6.2410 H   0  0  0  0  0  0  0  0  0  0  0  0
   12.3900   76.6460    5.7630 C   0  0  0  0  0  0  0  0  0  0  0  0
   13.3980   74.7880    5.5860 H   0  0  0  0  0  0  0  0  0  0  0  0
   11.2760   76.1590    5.4120 O   0  0  0  0  0  0  0  0  0  0  0  0
   12.5510   78.0460    6.1050 C   0  0  0  0  0  0  0  0  0  0  0  0
   11.4150   78.8270    6.0530 C   0  0  0  0  0  3  0  0  0  0  0  0
   11.5300   80.1690    6.4030 C   0  0  0  0  0  3  0  0  0  0  0  0
   12.7280   80.7070    6.7880 C   0  0  0  0  0  3  0  0  0  0  0  0
   13.8420   79.8600    6.8190 C   0  0  0  0  0  3  0  0  0  0  0  0
  1  2  1  0  0  0  0
  2  3  1  0  0  0  0
  3  4  1  0  0  0  0
  4  6  1  0  0  0  0
  5  3  1  0  0  0  0
  5  8  1  0  0  0  0
  7 17  1  6  0  0  0
  7  6  1  0  0  0  0
  7 10  1  0  0  0  0
  8  7  1  0  0  0  0
  9  2  2  0  0  0  0
 10 16  2  0  0  0  0
 10 11  1  0  0  0  0
 11 12  2  0  0  0  0
 12 13  1  0  0  0  0
 13 14  1  0  0  0  0
 15 13  2  0  0  0  0
 16 15  1  0  0  0  0
 18 17  1  0  0  0  0
 19  1  1  0  0  0  0
 19 22  1  0  0  0  0
 20 19  1  0  0  0  0
 21 20  2  0  0  0  0
 23 20  1  0  0  0  0
 24 23  2  0  0  0  0
 25 28  1  0  0  0  0
 25 24  1  0  0  0  0
 26 24  1  0  0  0  0
 26 36  1  0  0  0  0
 27 25  1  0  0  0  0
 29 27  1  0  0  0  0
 29 32  1  0  0  0  0
 30 27  1  0  0  0  0
 31 29  2  0  0  0  0
 32 26  2  0  0  0  0
 33 32  1  0  0  0  0
 33 34  2  0  0  0  0
 34 35  1  0  0  0  0
 35 36  2  0  0  0  0
M  END
>  <Pose>
1

>  <Score>
-11.085

$$$$
