/Users/jonathanwahrer/Desktop/Msc/3_Semester/Drug_Design_Praktikum/waehrer_HTS_screening/HTS_experiment/out/docking_results/vina_output/6e43/1937_docked.pdbqt
 OpenBabel03212220533D

 31 34  0  0  1  0  0  0  0  0999 V2000
   20.3810   78.0550   18.5210 N   0  0  0  0  0  0  0  0  0  0  0  0
   20.5770   76.7940   17.9720 C   0  0  0  0  0  2  0  0  0  0  0  0
   21.2370   77.0040   16.5430 C   0  0  0  0  0  2  0  0  0  0  0  0
   21.9580   78.2300   16.7620 N   0  0  0  0  0  0  0  0  0  0  0  0
   21.0510   79.4070   16.6210 C   0  0  0  0  0  2  0  0  0  0  0  0
   19.8770   79.0080   17.4700 C   0  0  0  0  0  2  0  0  0  0  0  0
   23.2990   78.3310   16.9780 C   0  0  0  0  0  0  0  0  0  0  0  0
   23.7220   79.3640   17.6030 O   0  0  0  0  0  0  0  0  0  0  0  0
   19.5760   78.2880   19.6960 C   0  0  0  0  0  2  0  0  0  0  0  0
   19.4370   79.8070   19.8400 C   0  0  0  0  0  0  0  0  0  0  0  0
   20.6060   80.5450   20.0400 N   0  0  0  0  0  0  0  0  0  0  0  0
   21.4660   79.9520   20.3240 H   0  0  0  0  0  0  0  0  0  0  0  0
   18.3490   80.3150   19.7650 O   0  0  0  0  0  0  0  0  0  0  0  0
   20.7520   81.9550   20.0110 C   0  0  0  0  0  2  0  0  0  0  0  0
   20.4870   82.5930   21.3280 C   0  0  0  0  0  0  0  0  0  0  0  0
   19.4050   83.4600   21.4290 C   0  0  0  0  0  0  0  0  0  0  0  0
   18.6020   83.9570   19.9580 Cl  0  0  0  0  0  0  0  0  0  0  0  0
   18.9950   83.9680   22.6180 C   0  0  0  0  0  3  0  0  0  0  0  0
   19.5950   83.6600   23.8230 C   0  0  0  0  0  3  0  0  0  0  0  0
   20.6910   82.7800   23.7160 C   0  0  0  0  0  3  0  0  0  0  0  0
   21.1230   82.2710   22.4970 C   0  0  0  0  0  3  0  0  0  0  0  0
   24.3750   77.3830   16.5500 C   0  0  1  0  0  3  0  0  0  0  0  0
   24.0800   77.1270   15.1380 O   0  0  0  0  0  0  0  0  0  0  0  0
   23.5850   78.3100   14.5150 C   0  0  0  0  0  0  0  0  0  0  0  0
   24.0980   79.5060   14.9410 C   0  0  0  0  0  0  0  0  0  0  0  0
   22.6240   78.2720   13.5110 C   0  0  0  0  0  3  0  0  0  0  0  0
   23.6720   80.7140   14.3980 C   0  0  0  0  0  3  0  0  0  0  0  0
   25.0740   79.5130   15.9440 O   0  0  0  0  0  0  0  0  0  0  0  0
   22.7030   80.6360   13.4050 C   0  0  0  0  0  3  0  0  0  0  0  0
   22.1720   79.4490   12.9490 C   0  0  0  0  0  3  0  0  0  0  0  0
   25.6410   78.2750   16.4430 C   0  0  0  0  0  2  0  0  0  0  0  0
  1  9  1  0  0  0  0
  2  1  1  0  0  0  0
  3  4  1  0  0  0  0
  3  2  1  0  0  0  0
  4  7  1  0  0  0  0
  5  4  1  0  0  0  0
  5  6  1  0  0  0  0
  6  1  1  0  0  0  0
  7  8  2  0  0  0  0
  9 10  1  0  0  0  0
 10 11  1  0  0  0  0
 11 12  1  0  0  0  0
 13 10  2  0  0  0  0
 14 11  1  0  0  0  0
 14 15  1  0  0  0  0
 15 16  2  0  0  0  0
 15 21  1  0  0  0  0
 16 18  1  0  0  0  0
 17 16  1  0  0  0  0
 18 19  2  0  0  0  0
 20 19  1  0  0  0  0
 21 20  2  0  0  0  0
 22  7  1  6  0  0  0
 23 22  1  0  0  0  0
 24 25  1  0  0  0  0
 24 23  1  0  0  0  0
 25 28  1  0  0  0  0
 26 24  2  0  0  0  0
 27 25  2  0  0  0  0
 28 31  1  0  0  0  0
 29 27  1  0  0  0  0
 30 29  2  0  0  0  0
 30 26  1  0  0  0  0
 31 22  1  0  0  0  0
M  END
>  <Pose>
1

>  <Score>
-10.449

$$$$
