/Users/jonathanwahrer/Desktop/Msc/3_Semester/Drug_Design_Praktikum/waehrer_HTS_screening/HTS_experiment/out/docking_results/vina_output/6e43/1939_docked.pdbqt
 OpenBabel03212220533D

 28 31  0  0  0  0  0  0  0  0999 V2000
   22.0740   77.9280   13.8080 N   0  0  0  0  0  0  0  0  0  0  0  0
   21.4920   78.1460   12.5910 C   0  0  0  0  0  0  0  0  0  0  0  0
   22.2650   78.9960   11.8490 C   0  0  0  0  0  0  0  0  0  0  0  0
   23.2980   79.2740   12.6340 N   0  0  0  0  0  0  0  0  0  0  0  0
   23.2070   78.6320   13.8440 C   0  0  0  0  0  0  0  0  0  0  0  0
   21.9080   79.3780   10.6090 N   0  0  0  0  0  0  0  0  0  0  0  0
   20.7510   78.9140   10.0690 C   0  0  0  0  0  0  0  0  0  0  0  0
   20.4600   79.2950    8.9130 O   0  0  0  0  0  0  0  0  0  0  0  0
   19.9570   78.0770   10.7580 N   0  0  0  0  0  0  0  0  0  0  0  0
   20.3230   77.7040   11.9930 C   0  0  0  0  0  0  0  0  0  0  0  0
   19.5500   76.9260   12.5940 O   0  0  0  0  0  0  0  0  0  0  0  0
   22.7890   80.2820    9.8920 C   0  0  0  0  0  1  0  0  0  0  0  0
   19.0810   77.7510   10.2980 H   0  0  0  0  0  0  0  0  0  0  0  0
   21.4870   77.0750   14.8080 C   0  0  0  0  0  2  0  0  0  0  0  0
   20.8390   77.7320   15.9400 C   0  0  0  0  0  0  0  0  0  0  0  0
   20.8740   79.0660   16.1820 C   0  0  0  0  0  3  0  0  0  0  0  0
   20.2810   79.6420   17.3090 C   0  0  0  0  0  3  0  0  0  0  0  0
   19.6340   78.8640   18.2220 C   0  0  0  0  0  0  0  0  0  0  0  0
   18.9090   79.6340   19.6160 Cl  0  0  0  0  0  0  0  0  0  0  0  0
   19.5750   77.5050   18.0160 C   0  0  0  0  0  3  0  0  0  0  0  0
   20.1660   76.9600   16.9000 C   0  0  0  0  0  3  0  0  0  0  0  0
   24.1810   78.7790   14.8550 N   0  0  0  0  0  0  0  0  0  0  0  0
   24.0370   79.8980   15.7780 C   0  0  0  0  0  2  0  0  0  0  0  0
   24.5340   79.3220   17.1160 C   0  0  0  0  0  2  0  0  0  0  0  0
   24.2260   77.9140   17.2370 N   0  0  0  0  0  0  0  0  0  0  0  0
   24.9400   77.0740   16.2990 C   0  0  0  0  0  2  0  0  0  0  0  0
   24.5090   77.6290   18.1900 H   0  0  0  0  0  0  0  0  0  0  0  0
   25.3110   77.9700   15.1270 C   0  0  0  0  0  2  0  0  0  0  0  0
  1  5  1  0  0  0  0
  1 14  1  0  0  0  0
  2  1  1  0  0  0  0
  3  2  2  0  0  0  0
  3  4  1  0  0  0  0
  4  5  2  0  0  0  0
  5 22  1  0  0  0  0
  6  3  1  0  0  0  0
  7  6  1  0  0  0  0
  7  9  1  0  0  0  0
  8  7  2  0  0  0  0
  9 10  1  0  0  0  0
 10  2  1  0  0  0  0
 10 11  2  0  0  0  0
 12  6  1  0  0  0  0
 13  9  1  0  0  0  0
 14 15  1  0  0  0  0
 15 16  2  0  0  0  0
 15 21  1  0  0  0  0
 16 17  1  0  0  0  0
 17 18  2  0  0  0  0
 18 19  1  0  0  0  0
 20 18  1  0  0  0  0
 21 20  2  0  0  0  0
 22 28  1  0  0  0  0
 22 23  1  0  0  0  0
 23 24  1  0  0  0  0
 24 25  1  0  0  0  0
 25 27  1  0  0  0  0
 26 25  1  0  0  0  0
 28 26  1  0  0  0  0
M  END
>  <Pose>
1

>  <Score>
-8.702

$$$$
