/Users/jonathanwahrer/Desktop/Msc/3_Semester/Drug_Design_Praktikum/waehrer_HTS_screening/HTS_experiment/out/docking_results/vina_output/6e43/1945_docked.pdbqt
 OpenBabel03212220543D

 24 27  0  0  0  0  0  0  0  0999 V2000
   22.1690   80.9260    9.2980 Cl  0  0  0  0  0  0  0  0  0  0  0  0
   21.4000   79.5160    9.9970 C   0  0  0  0  0  0  0  0  0  0  0  0
   21.4690   79.2440   11.3440 C   0  0  0  0  0  3  0  0  0  0  0  0
   20.8520   78.1140   11.8890 C   0  0  0  0  0  0  0  0  0  0  0  0
   20.1600   77.2680   11.0340 C   0  0  0  0  0  0  0  0  0  0  0  0
   20.0820   77.5270    9.6860 C   0  0  0  0  0  3  0  0  0  0  0  0
   20.6940   78.6380    9.1640 C   0  0  0  0  0  3  0  0  0  0  0  0
   19.4920   76.0660   11.5630 C   0  0  0  0  0  0  0  0  0  0  0  0
   18.7990   75.1340   11.0040 N   0  0  0  0  0  0  0  0  0  0  0  0
   18.3420   74.1480   11.9440 C   0  0  0  0  0  3  0  0  0  0  0  0
   18.8770   74.6190   13.2610 C   0  0  0  0  0  3  0  0  0  0  0  0
   19.5910   75.8300   12.9540 N   0  0  0  0  0  0  0  0  0  0  0  0
   20.3070   76.7160   13.8040 C   0  0  0  0  0  0  0  0  0  0  0  0
   20.4060   76.5240   15.0490 O   0  0  0  0  0  0  0  0  0  0  0  0
   20.9600   77.8910   13.2900 N   0  0  0  0  0  0  0  0  0  0  0  0
   21.6880   78.7850   14.1800 C   0  0  0  0  0  2  0  0  0  0  0  0
   23.0580   78.2860   14.4360 C   0  0  0  0  0  0  0  0  0  0  0  0
   23.9630   78.5980   13.6240 O   0  0  0  0  0  0  0  0  0  0  0  0
   23.3930   77.4790   15.5490 N   0  0  0  0  0  0  0  0  0  0  0  0
   22.6320   77.2300   16.2130 H   0  0  0  0  0  0  0  0  0  0  0  0
   24.7370   77.0060   15.7760 C   0  0  0  0  0  2  0  0  0  0  0  0
   25.3860   77.8040   16.8760 C   0  0  0  0  0  3  0  0  0  0  0  0
   25.0840   79.2550   17.0030 C   0  0  0  0  0  2  0  0  0  0  0  0
   26.3980   78.8320   16.4660 C   0  0  0  0  0  2  0  0  0  0  0  0
  1  2  1  0  0  0  0
  2  3  1  0  0  0  0
  3  4  2  0  0  0  0
  4 15  1  0  0  0  0
  5  8  1  0  0  0  0
  5  4  1  0  0  0  0
  6  5  2  0  0  0  0
  7  6  1  0  0  0  0
  7  2  2  0  0  0  0
  8 12  1  0  0  0  0
  9  8  2  0  0  0  0
  9 10  1  0  0  0  0
 10 11  2  0  0  0  0
 12 11  1  0  0  0  0
 12 13  1  0  0  0  0
 13 14  2  0  0  0  0
 15 13  1  0  0  0  0
 15 16  1  0  0  0  0
 16 17  1  0  0  0  0
 17 19  1  0  0  0  0
 18 17  2  0  0  0  0
 19 21  1  0  0  0  0
 19 20  1  0  0  0  0
 21 22  1  0  0  0  0
 22 23  1  0  0  0  0
 24 22  1  0  0  0  0
 24 23  1  0  0  0  0
M  END
>  <Pose>
1

>  <Score>
-8.693

$$$$
