/Users/jonathanwahrer/Desktop/Msc/3_Semester/Drug_Design_Praktikum/waehrer_HTS_screening/HTS_experiment/out/docking_results/vina_output/6e43/1957_docked.pdbqt
 OpenBabel03212220553D

 36 40  0  0  1  0  0  0  0  0999 V2000
   20.5750   80.2550   17.9400 C   0  0  2  0  0  3  0  0  0  0  0  0
   22.0070   80.0760   18.1420 N   0  0  0  0  0  0  0  0  0  0  0  0
   22.4250   79.0150   17.2470 C   0  0  1  0  0  0  0  0  0  0  0  0
   21.5160   79.2050   16.0680 C   0  0  2  0  0  3  0  0  0  0  0  0
   20.2040   79.6330   16.6460 C   0  0  1  0  0  3  0  0  0  0  0  0
   19.4000   78.3890   16.7980 C   0  0  0  0  0  0  0  0  0  0  0  0
   18.3520   78.2540   17.4730 O   0  0  0  0  0  0  0  0  0  0  0  0
   20.0680   77.3740   16.0160 N   0  0  0  0  0  0  0  0  0  0  0  0
   21.1710   77.9610   15.3580 C   0  0  0  0  0  0  0  0  0  0  0  0
   21.7720   77.5220   14.3470 O   0  0  0  0  0  0  0  0  0  0  0  0
   23.8520   79.1390   16.8650 C   0  0  0  0  0  0  0  0  0  0  0  0
   24.4840   78.0080   17.3250 C   0  0  0  0  0  0  0  0  0  0  0  0
   25.8460   77.8620   17.0980 C   0  0  0  0  0  3  0  0  0  0  0  0
   26.5240   78.8470   16.4190 C   0  0  0  0  0  3  0  0  0  0  0  0
   25.8960   79.9890   15.9500 C   0  0  0  0  0  3  0  0  0  0  0  0
   24.5440   80.1220   16.1840 C   0  0  0  0  0  3  0  0  0  0  0  0
   23.5590   77.1390   18.0030 N   0  0  0  0  0  0  0  0  0  0  0  0
   22.2860   77.7580   17.9630 C   0  0  0  0  0  0  0  0  0  0  0  0
   21.2630   77.2700   18.4690 O   0  0  0  0  0  0  0  0  0  0  0  0
   22.2090   79.8540   19.1230 H   0  0  0  0  0  0  0  0  0  0  0  0
   23.8400   76.2260   18.4270 H   0  0  0  0  0  0  0  0  0  0  0  0
   20.3340   81.7390   18.0120 C   0  0  1  0  0  3  0  0  0  0  0  0
   20.0920   82.2250   19.4000 C   0  0  0  0  0  0  0  0  0  0  0  0
   19.2110   83.2790   19.6350 C   0  0  0  0  0  3  0  0  0  0  0  0
   18.9880   83.7570   20.9000 C   0  0  0  0  0  3  0  0  0  0  0  0
   19.6230   83.2180   22.0010 C   0  0  0  0  0  0  0  0  0  0  0  0
   19.3450   83.8210   23.6270 Cl  0  0  0  0  0  0  0  0  0  0  0  0
   20.4880   82.1780   21.7450 C   0  0  0  0  0  3  0  0  0  0  0  0
   20.7300   81.6800   20.4870 C   0  0  0  0  0  3  0  0  0  0  0  0
   21.3240   82.4940   17.4400 O   0  0  0  0  0  0  0  0  0  0  0  0
   22.1910   82.0450   17.6130 H   0  0  0  0  0  0  0  0  0  0  0  0
   19.6720   75.9990   15.9390 C   0  0  0  0  0  2  0  0  0  0  0  0
   18.9210   75.6050   14.7230 C   0  0  0  0  0  2  0  0  0  0  0  0
   19.6740   74.8470   13.6860 C   0  0  0  0  0  2  0  0  0  0  0  0
   20.0490   73.5750   14.0970 O   0  0  0  0  0  0  0  0  0  0  0  0
   19.3420   72.6150   13.3420 C   0  0  0  0  0  1  0  0  0  0  0  0
  1 22  1  6  0  0  0
  1  2  1  0  0  0  0
  2 20  1  0  0  0  0
  3 11  1  6  0  0  0
  3 18  1  0  0  0  0
  3  2  1  0  0  0  0
  4  9  1  1  0  0  0
  4  5  1  0  0  0  0
  4  3  1  0  0  0  0
  5  6  1  1  0  0  0
  5  1  1  0  0  0  0
  6  7  2  0  0  0  0
  8  6  1  0  0  0  0
  9  8  1  0  0  0  0
 10  9  2  0  0  0  0
 11 12  1  0  0  0  0
 12 17  1  0  0  0  0
 13 12  2  0  0  0  0
 14 13  1  0  0  0  0
 15 16  1  0  0  0  0
 15 14  2  0  0  0  0
 16 11  2  0  0  0  0
 17 21  1  0  0  0  0
 18 17  1  0  0  0  0
 18 19  2  0  0  0  0
 22 30  1  1  0  0  0
 22 23  1  0  0  0  0
 23 24  2  0  0  0  0
 23 29  1  0  0  0  0
 24 25  1  0  0  0  0
 25 26  2  0  0  0  0
 26 27  1  0  0  0  0
 28 26  1  0  0  0  0
 29 28  2  0  0  0  0
 30 31  1  0  0  0  0
 32  8  1  0  0  0  0
 33 32  1  0  0  0  0
 34 35  1  0  0  0  0
 34 33  1  0  0  0  0
 36 35  1  0  0  0  0
M  END
>  <Pose>
1

>  <Score>
-8.662

$$$$
