/Users/jonathanwahrer/Desktop/Msc/3_Semester/Drug_Design_Praktikum/waehrer_HTS_screening/HTS_experiment/out/docking_results/vina_output/6e43/1960_docked.pdbqt
 OpenBabel03212220553D

 28 31  0  0  0  0  0  0  0  0999 V2000
   19.7250   80.1740   17.9740 C   0  0  0  0  0  0  0  0  0  0  0  0
   18.4750   80.0690   17.8650 O   0  0  0  0  0  0  0  0  0  0  0  0
   20.4920   79.0020   18.0730 N   0  0  0  0  0  0  0  0  0  0  0  0
   19.8550   77.6730   18.0530 C   0  0  0  0  0  2  0  0  0  0  0  0
   20.7550   76.7310   17.2670 C   0  0  0  0  0  2  0  0  0  0  0  0
   21.4940   77.5490   16.3270 N   0  0  0  0  0  0  0  0  0  0  0  0
   22.5360   78.3780   16.9080 C   0  0  0  0  0  2  0  0  0  0  0  0
   21.9420   78.9700   18.1980 C   0  0  0  0  0  2  0  0  0  0  0  0
   21.2040   77.5480   14.9380 C   0  0  0  0  0  0  0  0  0  0  0  0
   20.1940   76.7450   14.4410 C   0  0  0  0  0  3  0  0  0  0  0  0
   19.9450   76.7540   13.0990 N   0  0  0  0  0  0  0  0  0  0  0  0
   20.6260   77.4950   12.2480 N   0  0  0  0  0  0  0  0  0  0  0  0
   21.6390   78.3140   12.6700 C   0  0  0  0  0  0  0  0  0  0  0  0
   21.8840   78.3020   14.0100 C   0  0  0  0  0  3  0  0  0  0  0  0
   22.3290   79.0780   11.7040 N   0  0  0  0  0  0  0  0  0  0  0  0
   22.4510   80.5180   11.8400 C   0  0  0  0  0  2  0  0  0  0  0  0
   22.1710   81.2070   10.5030 C   0  0  0  0  0  2  0  0  0  0  0  0
   22.8500   80.6010    9.4660 O   0  0  0  0  0  0  0  0  0  0  0  0
   22.3850   79.3000    9.3500 C   0  0  0  0  0  2  0  0  0  0  0  0
   22.9400   78.4940   10.5380 C   0  0  0  0  0  2  0  0  0  0  0  0
   20.2960   81.5340   17.9880 C   0  0  0  0  0  2  0  0  0  0  0  0
   20.0440   82.2170   19.2850 C   0  0  0  0  0  0  0  0  0  0  0  0
   20.6530   81.7310   20.4390 C   0  0  0  0  0  3  0  0  0  0  0  0
   20.4460   82.3390   21.6640 C   0  0  0  0  0  3  0  0  0  0  0  0
   19.6170   83.4570   21.7670 C   0  0  0  0  0  0  0  0  0  0  0  0
   19.3510   84.2280   23.3010 Cl  0  0  0  0  0  0  0  0  0  0  0  0
   19.0230   83.9240   20.6180 C   0  0  0  0  0  3  0  0  0  0  0  0
   19.2320   83.3130   19.3820 C   0  0  0  0  0  3  0  0  0  0  0  0
  1 21  1  0  0  0  0
  1  3  1  0  0  0  0
  2  1  2  0  0  0  0
  3  8  1  0  0  0  0
  4  3  1  0  0  0  0
  5  4  1  0  0  0  0
  6  7  1  0  0  0  0
  6  5  1  0  0  0  0
  7  8  1  0  0  0  0
  9  6  1  0  0  0  0
 10  9  1  0  0  0  0
 11 10  2  0  0  0  0
 12 13  2  0  0  0  0
 12 11  1  0  0  0  0
 13 14  1  0  0  0  0
 14  9  2  0  0  0  0
 15 16  1  0  0  0  0
 15 13  1  0  0  0  0
 17 16  1  0  0  0  0
 18 17  1  0  0  0  0
 19 18  1  0  0  0  0
 19 20  1  0  0  0  0
 20 15  1  0  0  0  0
 21 22  1  0  0  0  0
 22 28  2  0  0  0  0
 22 23  1  0  0  0  0
 23 24  2  0  0  0  0
 24 25  1  0  0  0  0
 25 26  1  0  0  0  0
 27 25  2  0  0  0  0
 28 27  1  0  0  0  0
M  END
>  <Pose>
1

>  <Score>
-10.058

$$$$
