/Users/jonathanwahrer/Desktop/Msc/3_Semester/Drug_Design_Praktikum/waehrer_HTS_screening/HTS_experiment/out/docking_results/vina_output/6e43/1971_docked.pdbqt
 OpenBabel03212220553D

 22 25  0  0  1  0  0  0  0  0999 V2000
   19.8700   81.1170   19.3200 N   0  0  0  0  0  0  0  0  0  0  0  0
   19.5590   79.7120   19.2730 C   0  0  0  0  0  0  0  0  0  0  0  0
   19.2570   79.0150   20.2710 O   0  0  0  0  0  0  0  0  0  0  0  0
   19.6500   79.2320   17.8960 C   0  0  2  0  0  3  0  0  0  0  0  0
   20.8280   78.3650   17.5990 C   0  0  1  0  0  0  0  0  0  0  0  0
   20.9750   78.6120   16.2100 O   0  0  0  0  0  0  0  0  0  0  0  0
   21.2180   80.0060   16.3200 C   0  0  1  0  0  3  0  0  0  0  0  0
   19.9670   80.4620   17.0300 C   0  0  2  0  0  3  0  0  0  0  0  0
   20.2830   81.5010   18.0130 C   0  0  0  0  0  0  0  0  0  0  0  0
   20.8420   82.5960   17.7600 O   0  0  0  0  0  0  0  0  0  0  0  0
   22.3230   80.0130   17.3010 C   0  0  0  0  0  2  0  0  0  0  0  0
   22.0960   78.9430   18.0970 C   0  0  0  0  0  2  0  0  0  0  0  0
   19.7990   81.9970   20.4340 C   0  0  0  0  0  0  0  0  0  0  0  0
   18.7740   82.9180   20.5850 C   0  0  0  0  0  3  0  0  0  0  0  0
   18.7060   83.7700   21.6660 C   0  0  0  0  0  0  0  0  0  0  0  0
   17.4060   84.9290   21.8410 Cl  0  0  0  0  0  0  0  0  0  0  0  0
   19.6690   83.7380   22.6550 C   0  0  0  0  0  3  0  0  0  0  0  0
   20.6920   82.8240   22.5150 C   0  0  0  0  0  3  0  0  0  0  0  0
   20.7600   81.9660   21.4250 C   0  0  0  0  0  3  0  0  0  0  0  0
   20.6420   76.9170   17.8890 C   0  0  0  0  0  2  0  0  0  0  0  0
   20.8800   76.6830   19.2370 O   0  0  0  0  0  0  0  0  0  0  0  0
   20.1350   76.1740   19.6320 H   0  0  0  0  0  0  0  0  0  0  0  0
  1 13  1  0  0  0  0
  2  1  1  0  0  0  0
  2  3  2  0  0  0  0
  4  2  1  1  0  0  0
  5 20  1  1  0  0  0
  5  4  1  0  0  0  0
  5 12  1  0  0  0  0
  6  7  1  0  0  0  0
  6  5  1  0  0  0  0
  7  8  1  0  0  0  0
  7 11  1  1  0  0  0
  8  4  1  0  0  0  0
  8  9  1  1  0  0  0
  9  1  1  0  0  0  0
 10  9  2  0  0  0  0
 11 12  1  0  0  0  0
 13 14  2  0  0  0  0
 13 19  1  0  0  0  0
 14 15  1  0  0  0  0
 15 16  1  0  0  0  0
 15 17  2  0  0  0  0
 18 17  1  0  0  0  0
 19 18  2  0  0  0  0
 20 21  1  0  0  0  0
 21 22  1  0  0  0  0
M  END
>  <Pose>
1

>  <Score>
-9.692

$$$$
