/Users/jonathanwahrer/Desktop/Msc/3_Semester/Drug_Design_Praktikum/waehrer_HTS_screening/HTS_experiment/out/docking_results/vina_output/6e43/1973_docked.pdbqt
 OpenBabel03212220563D

 24 27  0  0  1  0  0  0  0  0999 V2000
   20.1990   78.6870    9.1040 Cl  0  0  0  0  0  0  0  0  0  0  0  0
   21.0750   79.0700   10.5860 C   0  0  0  0  0  0  0  0  0  0  0  0
   20.9270   78.3230   11.7370 C   0  0  0  0  0  2  0  0  0  0  0  0
   21.5910   78.6010   12.8840 N   0  0  0  0  0  0  0  0  0  0  0  0
   22.4470   79.6370   12.9710 C   0  0  0  0  0  0  0  0  0  0  0  0
   23.1220   79.9320   14.1130 N   0  0  0  0  0  0  0  0  0  0  0  0
   22.9830   79.2090   15.2390 C   0  0  0  0  0  0  0  0  0  0  0  0
   22.1030   78.1350   15.1660 C   0  0  1  0  0  3  0  0  0  0  0  0
   21.9480   77.3360   16.4100 C   0  0  0  0  0  2  0  0  0  0  0  0
   21.8040   78.3230   17.4860 N   0  0  0  0  0  0  0  0  0  0  0  0
   22.9040   79.2160   17.7190 C   0  0  0  0  0  2  0  0  0  0  0  0
   23.7170   79.5190   16.4930 C   0  0  0  0  0  2  0  0  0  0  0  0
   20.6190   78.3850   18.2510 C   0  0  0  0  0  0  0  0  0  0  0  0
   19.6940   77.5560   17.9530 O   0  0  0  0  0  0  0  0  0  0  0  0
   21.4320   77.8600   13.9950 C   0  0  0  0  0  0  0  0  0  0  0  0
   20.6310   76.8700   13.9540 O   0  0  0  0  0  0  0  0  0  0  0  0
   22.6090   80.4000   11.8260 C   0  0  0  0  0  3  0  0  0  0  0  0
   21.9450   80.1380   10.6460 C   0  0  0  0  0  3  0  0  0  0  0  0
   20.4230   79.3510   19.3550 C   0  0  0  0  0  3  0  0  0  0  0  0
   18.9670   79.7150   19.5460 C   0  0  0  0  0  2  0  0  0  0  0  0
   18.3980   79.8930   18.1450 C   0  0  0  0  0  2  0  0  0  0  0  0
   19.3360   80.5090   17.3190 O   0  0  0  0  0  0  0  0  0  0  0  0
   20.1540   81.3890   18.0420 C   0  0  0  0  0  2  0  0  0  0  0  0
   21.1210   80.6600   18.9550 C   0  0  0  0  0  2  0  0  0  0  0  0
  1  2  1  0  0  0  0
  2 18  2  0  0  0  0
  2  3  1  0  0  0  0
  3  4  1  0  0  0  0
  4  5  1  0  0  0  0
  4 15  1  0  0  0  0
  5  6  1  0  0  0  0
  6  7  2  0  0  0  0
  7 12  1  0  0  0  0
  8  7  1  0  0  0  0
  8  9  1  1  0  0  0
  9 10  1  0  0  0  0
 10 11  1  0  0  0  0
 10 13  1  0  0  0  0
 12 11  1  0  0  0  0
 13 19  1  0  0  0  0
 14 13  2  0  0  0  0
 15  8  1  0  0  0  0
 16 15  2  0  0  0  0
 17  5  2  0  0  0  0
 18 17  1  0  0  0  0
 19 20  1  0  0  0  0
 21 20  1  0  0  0  0
 22 23  1  0  0  0  0
 22 21  1  0  0  0  0
 23 24  1  0  0  0  0
 24 19  1  0  0  0  0
M  END
>  <Pose>
1

>  <Score>
-9.256

$$$$
