/Users/jonathanwahrer/Desktop/Msc/3_Semester/Drug_Design_Praktikum/waehrer_HTS_screening/HTS_experiment/out/docking_results/vina_output/6e43/1974_docked.pdbqt
 OpenBabel03212220563D

 26 29  0  0  0  0  0  0  0  0999 V2000
   23.2850   79.2920   18.1260 F   0  0  0  0  0  0  0  0  0  0  0  0
   23.3030   79.1700   16.7770 C   0  0  0  0  0  0  0  0  0  0  0  0
   22.2980   78.4330   16.1680 C   0  0  0  0  0  0  0  0  0  0  0  0
   22.2530   78.2650   14.8010 C   0  0  0  0  0  0  0  0  0  0  0  0
   23.2510   78.8590   14.0480 C   0  0  0  0  0  0  0  0  0  0  0  0
   24.2470   79.5900   14.6500 C   0  0  0  0  0  3  0  0  0  0  0  0
   24.2870   79.7540   16.0150 C   0  0  0  0  0  3  0  0  0  0  0  0
   23.1970   78.6480   12.3070 Cl  0  0  0  0  0  0  0  0  0  0  0  0
   21.1150   77.4600   14.4080 C   0  0  0  0  0  0  0  0  0  0  0  0
   20.7670   77.1110   13.2570 O   0  0  0  0  0  0  0  0  0  0  0  0
   20.4300   77.1240   15.6500 C   0  0  0  0  0  0  0  0  0  0  0  0
   19.3730   76.4240   15.7390 O   0  0  0  0  0  0  0  0  0  0  0  0
   21.1630   77.7230   16.7070 N   0  0  0  0  0  0  0  0  0  0  0  0
   20.8590   77.6590   18.1210 C   0  0  0  0  0  2  0  0  0  0  0  0
   19.6200   78.3200   18.4740 N   0  0  0  0  0  0  0  0  0  0  0  0
   19.5590   78.5800   19.8710 C   0  0  0  0  0  2  0  0  0  0  0  0
   19.0600   79.9290   20.2530 C   0  0  0  0  0  2  0  0  0  0  0  0
   19.5210   80.9830   19.3860 N   0  0  0  0  0  0  0  0  0  0  0  0
   20.0500   80.6280   18.0900 C   0  0  0  0  0  2  0  0  0  0  0  0
   19.2810   79.4100   17.6240 C   0  0  0  0  0  2  0  0  0  0  0  0
   19.4700   82.3460   19.7570 C   0  0  0  0  0  0  0  0  0  0  0  0
   18.8670   82.7400   20.8910 N   0  0  0  0  0  0  0  0  0  0  0  0
   18.8060   84.0330   21.2660 C   0  0  0  0  0  3  0  0  0  0  0  0
   19.3730   85.0170   20.4800 C   0  0  0  0  0  3  0  0  0  0  0  0
   19.9780   84.6290   19.3460 N   0  0  0  0  0  0  0  0  0  0  0  0
   20.0410   83.3370   18.9690 C   0  0  0  0  0  3  0  0  0  0  0  0
  2  1  1  0  0  0  0
  3 13  1  0  0  0  0
  3  2  1  0  0  0  0
  4  3  2  0  0  0  0
  5  6  2  0  0  0  0
  5  4  1  0  0  0  0
  6  7  1  0  0  0  0
  7  2  2  0  0  0  0
  8  5  1  0  0  0  0
  9  4  1  0  0  0  0
  9 11  1  0  0  0  0
 10  9  2  0  0  0  0
 11 12  2  0  0  0  0
 11 13  1  0  0  0  0
 13 14  1  0  0  0  0
 14 15  1  0  0  0  0
 15 16  1  0  0  0  0
 16 17  1  0  0  0  0
 18 21  1  0  0  0  0
 18 17  1  0  0  0  0
 19 18  1  0  0  0  0
 20 19  1  0  0  0  0
 20 15  1  0  0  0  0
 21 22  1  0  0  0  0
 22 23  2  0  0  0  0
 24 23  1  0  0  0  0
 25 24  2  0  0  0  0
 26 25  1  0  0  0  0
 26 21  2  0  0  0  0
M  END
>  <Pose>
1

>  <Score>
-9.532

$$$$
