/Users/jonathanwahrer/Desktop/Msc/3_Semester/Drug_Design_Praktikum/waehrer_HTS_screening/HTS_experiment/out/docking_results/vina_output/6e43/1976_docked.pdbqt
 OpenBabel03212220563D

 26 29  0  0  0  0  0  0  0  0999 V2000
   19.6130   78.3190   18.5240 C   0  0  0  0  0  0  0  0  0  0  0  0
   19.6300   77.5380   19.5380 O   0  0  0  0  0  0  0  0  0  0  0  0
   19.5590   79.7310   18.6690 N   0  0  0  0  0  0  0  0  0  0  0  0
   19.5460   80.5480   17.5070 C   0  0  0  0  0  2  0  0  0  0  0  0
   20.5930   81.6540   17.6940 C   0  0  0  0  0  2  0  0  0  0  0  0
   20.0460   82.4310   18.8720 C   0  0  0  0  0  0  0  0  0  0  0  0
   19.5210   81.7470   19.9490 C   0  0  0  0  0  0  0  0  0  0  0  0
   19.0230   82.4670   20.9950 N   0  0  0  0  0  0  0  0  0  0  0  0
   19.0240   83.8090   21.0170 C   0  0  0  0  0  3  0  0  0  0  0  0
   19.5390   84.4600   19.9590 N   0  0  0  0  0  0  0  0  0  0  0  0
   20.0540   83.7960   18.8810 C   0  0  0  0  0  0  0  0  0  0  0  0
   19.5070   80.2720   19.9850 C   0  0  0  0  0  2  0  0  0  0  0  0
   19.6530   77.6820   17.1690 C   0  0  0  0  0  2  0  0  0  0  0  0
   21.0450   77.7050   16.6260 C   0  0  0  0  0  0  0  0  0  0  0  0
   21.3530   77.2670   15.3530 C   0  0  0  0  0  0  0  0  0  0  0  0
   20.0490   76.6650   14.3660 Cl  0  0  0  0  0  0  0  0  0  0  0  0
   22.6570   77.3090   14.8860 C   0  0  0  0  0  3  0  0  0  0  0  0
   23.7030   77.7820   15.6560 C   0  0  0  0  0  0  0  0  0  0  0  0
   23.4100   78.2240   16.9320 C   0  0  0  0  0  0  0  0  0  0  0  0
   25.0100   77.8440   15.2410 O   0  0  0  0  0  0  0  0  0  0  0  0
   22.1040   78.1750   17.3820 C   0  0  0  0  0  3  0  0  0  0  0  0
   24.4540   78.6970   17.7000 O   0  0  0  0  0  0  0  0  0  0  0  0
   25.7030   79.1230   17.1950 C   0  0  0  0  0  2  0  0  0  0  0  0
   25.9940   78.6650   15.8090 C   0  0  0  0  0  2  0  0  0  0  0  0
   20.5840   84.4630   17.7920 O   0  0  0  0  0  0  0  0  0  0  0  0
   20.8530   85.4330   17.9130 H   0  0  0  0  0  0  0  0  0  0  0  0
  1  3  1  0  0  0  0
  1  2  2  0  0  0  0
  3 12  1  0  0  0  0
  4  5  1  0  0  0  0
  4  3  1  0  0  0  0
  5  6  1  0  0  0  0
  6 11  1  0  0  0  0
  6  7  2  0  0  0  0
  7 12  1  0  0  0  0
  7  8  1  0  0  0  0
  8  9  2  0  0  0  0
 10  9  1  0  0  0  0
 11 10  2  0  0  0  0
 13  1  1  0  0  0  0
 14 13  1  0  0  0  0
 14 21  1  0  0  0  0
 15 14  2  0  0  0  0
 16 15  1  0  0  0  0
 17 15  1  0  0  0  0
 17 18  2  0  0  0  0
 18 19  1  0  0  0  0
 19 21  2  0  0  0  0
 19 22  1  0  0  0  0
 20 18  1  0  0  0  0
 20 24  1  0  0  0  0
 23 22  1  0  0  0  0
 24 23  1  0  0  0  0
 25 26  1  0  0  0  0
 25 11  1  0  0  0  0
M  END
>  <Pose>
1

>  <Score>
-10.270

$$$$
