/Users/jonathanwahrer/Desktop/Msc/3_Semester/Drug_Design_Praktikum/waehrer_HTS_screening/HTS_experiment/out/docking_results/vina_output/6e43/1982_docked.pdbqt
 OpenBabel03212220563D

 25 28  0  0  0  0  0  0  0  0999 V2000
   22.5770   81.1360    9.9230 Cl  0  0  0  0  0  0  0  0  0  0  0  0
   21.7450   79.7570   10.6100 C   0  0  0  0  0  0  0  0  0  0  0  0
   21.8620   79.4020   11.9370 C   0  0  0  0  0  3  0  0  0  0  0  0
   21.2130   78.3170   12.4920 C   0  0  0  0  0  0  0  0  0  0  0  0
   20.4100   77.5600   11.6610 C   0  0  0  0  0  0  0  0  0  0  0  0
   20.2850   77.9050   10.3310 C   0  0  0  0  0  3  0  0  0  0  0  0
   20.9340   78.9900    9.7770 C   0  0  0  0  0  3  0  0  0  0  0  0
   19.7030   76.3930   12.2330 C   0  0  0  0  0  0  0  0  0  0  0  0
   18.9220   75.5510   11.7000 N   0  0  0  0  0  0  0  0  0  0  0  0
   18.4380   74.5460   12.6230 C   0  0  0  0  0  3  0  0  0  0  0  0
   19.0710   74.8910   13.9310 C   0  0  0  0  0  3  0  0  0  0  0  0
   19.8550   76.0670   13.6070 N   0  0  0  0  0  0  0  0  0  0  0  0
   20.7030   76.9020   14.3970 C   0  0  0  0  0  0  0  0  0  0  0  0
   21.0290   76.8380   15.7000 N   0  0  0  0  0  0  0  0  0  0  0  0
   21.8540   77.8180   16.0290 N   0  0  0  0  0  0  0  0  0  0  0  0
   22.0460   78.5160   14.8830 C   0  0  0  0  0  0  0  0  0  0  0  0
   22.7790   79.5260   14.8120 O   0  0  0  0  0  0  0  0  0  0  0  0
   21.3500   77.9730   13.8700 N   0  0  0  0  0  0  0  0  0  0  0  0
   22.4280   78.0840   17.3340 C   0  0  0  0  0  2  0  0  0  0  0  0
   21.4640   78.9680   18.1380 C   0  0  0  0  0  2  0  0  0  0  0  0
   20.5010   78.1230   18.8880 C   0  0  0  0  0  0  0  0  0  0  0  0
   19.4290   78.5440   19.3910 O   0  0  0  0  0  0  0  0  0  0  0  0
   20.8110   76.7480   19.0480 N   0  0  0  0  0  0  0  0  0  0  0  0
   21.7700   76.3920   19.2130 H   0  0  0  0  0  0  0  0  0  0  0  0
   20.0270   76.0650   18.9940 H   0  0  0  0  0  0  0  0  0  0  0  0
  1  2  1  0  0  0  0
  2  3  1  0  0  0  0
  3  4  2  0  0  0  0
  4 18  1  0  0  0  0
  5  8  1  0  0  0  0
  5  4  1  0  0  0  0
  6  5  2  0  0  0  0
  7  6  1  0  0  0  0
  7  2  2  0  0  0  0
  8 12  1  0  0  0  0
  9  8  2  0  0  0  0
  9 10  1  0  0  0  0
 10 11  2  0  0  0  0
 12 11  1  0  0  0  0
 12 13  1  0  0  0  0
 13 14  2  0  0  0  0
 14 15  1  0  0  0  0
 15 19  1  0  0  0  0
 16 15  1  0  0  0  0
 17 16  2  0  0  0  0
 18 13  1  0  0  0  0
 18 16  1  0  0  0  0
 19 20  1  0  0  0  0
 20 21  1  0  0  0  0
 21 23  1  0  0  0  0
 21 22  2  0  0  0  0
 23 24  1  0  0  0  0
 25 23  1  0  0  0  0
M  END
>  <Pose>
1

>  <Score>
-8.731

$$$$
