/Users/jonathanwahrer/Desktop/Msc/3_Semester/Drug_Design_Praktikum/waehrer_HTS_screening/HTS_experiment/out/docking_results/vina_output/6e43/1986_docked.pdbqt
 OpenBabel03212220563D

 30 33  0  0  0  0  0  0  0  0999 V2000
   17.3640   72.3110   11.1110 Cl  0  0  0  0  0  0  0  0  0  0  0  0
   18.1940   73.7920   11.5580 C   0  0  0  0  0  0  0  0  0  0  0  0
   18.8510   74.5510   10.6110 C   0  0  0  0  0  2  0  0  0  0  0  0
   19.5140   75.7330   10.9670 C   0  0  0  0  0  0  0  0  0  0  0  0
   19.4740   76.0870   12.2910 C   0  0  0  0  0  0  0  0  0  0  0  0
   18.8060   75.3130   13.2490 C   0  0  0  0  0  3  0  0  0  0  0  0
   18.1560   74.1520   12.8890 C   0  0  0  0  0  3  0  0  0  0  0  0
   20.1240   77.2580   12.6700 O   0  0  0  0  0  0  0  0  0  0  0  0
   20.8040   78.0710   11.7800 C   0  0  0  0  0  0  0  0  0  0  0  0
   20.8440   77.7110   10.4420 C   0  0  0  0  0  0  0  0  0  0  0  0
   20.2020   76.5030    9.9130 C   0  0  0  0  0  0  0  0  0  0  0  0
   21.5330   78.5550    9.5940 C   0  0  0  0  0  0  0  0  0  0  0  0
   21.6040   78.2770    8.3550 O   0  0  0  0  0  0  0  0  0  0  0  0
   22.1530   79.6800    9.9830 N   0  0  0  0  0  0  0  0  0  0  0  0
   22.0870   79.9920   11.3000 C   0  0  0  0  0  0  0  0  0  0  0  0
   22.6760   81.0520   11.6440 O   0  0  0  0  0  0  0  0  0  0  0  0
   21.4270   79.1990   12.1640 N   0  0  0  0  0  0  0  0  0  0  0  0
   21.4020   79.6000   13.5560 C   0  0  0  0  0  1  0  0  0  0  0  0
   22.8680   80.5410    9.0410 C   0  0  0  0  0  1  0  0  0  0  0  0
   19.2020   76.8930    8.8660 C   0  0  0  0  0  3  0  0  0  0  0  0
   19.0190   76.1200    7.7410 C   0  0  0  0  0  0  0  0  0  0  0  0
   18.1090   76.4850    6.7970 N   0  0  0  0  0  0  0  0  0  0  0  0
   19.7580   74.9810    7.5810 O   0  0  0  0  0  0  0  0  0  0  0  0
   17.3730   77.6140    6.9520 C   0  0  0  0  0  0  0  0  0  0  0  0
   17.9600   75.6220    5.6290 C   0  0  0  0  0  1  0  0  0  0  0  0
   16.5390   77.9230    6.0550 O   0  0  0  0  0  0  0  0  0  0  0  0
   17.5300   78.3880    8.0370 N   0  0  0  0  0  0  0  0  0  0  0  0
   18.4290   78.0320    8.9740 C   0  0  0  0  0  0  0  0  0  0  0  0
   16.7230   79.5970    8.1710 C   0  0  0  0  0  1  0  0  0  0  0  0
   18.5620   78.7560    9.9710 O   0  0  0  0  0  0  0  0  0  0  0  0
  1  2  1  0  0  0  0
  2  7  2  0  0  0  0
  3  4  1  0  0  0  0
  3  2  1  0  0  0  0
  4  5  1  0  0  0  0
  5  8  1  0  0  0  0
  5  6  2  0  0  0  0
  7  6  1  0  0  0  0
  9 17  1  0  0  0  0
  9  8  1  0  0  0  0
 10  9  2  0  0  0  0
 11 10  1  0  0  0  0
 11  4  2  0  0  0  0
 12 14  1  0  0  0  0
 12 10  1  0  0  0  0
 13 12  2  0  0  0  0
 14 15  1  0  0  0  0
 15 16  2  0  0  0  0
 15 17  1  0  0  0  0
 17 18  1  0  0  0  0
 19 14  1  0  0  0  0
 20 28  1  0  0  0  0
 20 11  1  0  0  0  0
 21 20  1  0  0  0  0
 22 24  1  0  0  0  0
 22 21  1  0  0  0  0
 23 21  2  0  0  0  0
 24 27  1  0  0  0  0
 25 22  1  0  0  0  0
 26 24  2  0  0  0  0
 27 29  1  0  0  0  0
 27 28  1  0  0  0  0
 28 30  2  0  0  0  0
M  END
>  <Pose>
1

>  <Score>
-9.148

$$$$
