/Users/jonathanwahrer/Desktop/Msc/3_Semester/Drug_Design_Praktikum/waehrer_HTS_screening/HTS_experiment/out/docking_results/vina_output/6e43/1991_docked.pdbqt
 OpenBabel03212220563D

 31 34  0  0  1  0  0  0  0  0999 V2000
   18.2220   74.9480   13.9100 Cl  0  0  0  0  0  0  0  0  0  0  0  0
   19.5010   76.0230   14.4210 C   0  0  0  0  0  0  0  0  0  0  0  0
   19.8390   76.1400   15.7510 C   0  0  0  0  0  3  0  0  0  0  0  0
   20.8450   76.9880   16.1350 C   0  0  0  0  0  0  0  0  0  0  0  0
   21.5280   77.7340   15.1660 C   0  0  0  0  0  0  0  0  0  0  0  0
   21.1940   77.6230   13.8260 C   0  0  0  0  0  3  0  0  0  0  0  0
   20.1840   76.7660   13.4840 C   0  0  0  0  0  3  0  0  0  0  0  0
   22.5610   78.6310   15.3900 O   0  0  0  0  0  0  0  0  0  0  0  0
   23.4460   78.6720   16.4840 C   0  0  0  0  0  0  0  0  0  0  0  0
   22.7510   78.9860   17.7680 C   0  0  0  0  0  2  0  0  0  0  0  0
   21.4840   78.3460   17.9530 N   0  0  0  0  0  0  0  0  0  0  0  0
   21.0930   77.0060   17.5990 C   0  0  0  0  0  2  0  0  0  0  0  0
   20.4320   79.1080   18.5670 C   0  0  0  0  0  0  0  0  0  0  0  0
   19.3290   78.5280   18.7250 O   0  0  0  0  0  0  0  0  0  0  0  0
   24.2370   77.3750   16.5470 C   0  0  0  0  0  2  0  0  0  0  0  0
   25.5300   77.5080   15.7630 C   0  0  0  0  0  2  0  0  0  0  0  0
   26.4060   78.4090   16.3370 O   0  0  0  0  0  0  0  0  0  0  0  0
   25.7180   79.3850   17.0480 C   0  0  0  0  0  2  0  0  0  0  0  0
   24.4830   79.7760   16.2590 C   0  0  0  0  0  2  0  0  0  0  0  0
   20.6330   80.4930   18.9900 C   0  0  0  0  0  2  0  0  0  0  0  0
   20.1350   80.8740   20.2610 N   0  0  0  0  0  0  0  0  0  0  0  0
   18.8060   81.4830   20.1660 C   0  0  0  0  0  2  0  0  0  0  0  0
   18.9110   82.7020   19.3290 C   0  0  0  0  0  2  0  0  0  0  0  0
   20.0410   83.6270   19.6360 C   0  0  1  0  0  3  0  0  0  0  0  0
   21.1110   83.1190   20.5200 C   0  0  0  0  0  2  0  0  0  0  0  0
   20.9800   81.7400   21.0450 C   0  0  0  0  0  2  0  0  0  0  0  0
   20.6090   84.2220   18.4020 C   0  0  0  0  0  0  0  0  0  0  0  0
   21.3680   83.5380   17.6860 O   0  0  0  0  0  0  0  0  0  0  0  0
   20.2930   85.5510   18.0490 N   0  0  0  0  0  0  0  0  0  0  0  0
   19.6120   85.6620   17.2400 H   0  0  0  0  0  0  0  0  0  0  0  0
   20.6530   86.4050   18.4920 H   0  0  0  0  0  0  0  0  0  0  0  0
  1  2  1  0  0  0  0
  2  3  1  0  0  0  0
  3  4  2  0  0  0  0
  4 12  1  0  0  0  0
  5  8  1  0  0  0  0
  5  4  1  0  0  0  0
  6  5  2  0  0  0  0
  7  6  1  0  0  0  0
  7  2  2  0  0  0  0
  8  9  1  0  0  0  0
  9 15  1  0  0  0  0
  9 10  1  0  0  0  0
 10 11  1  0  0  0  0
 11 13  1  0  0  0  0
 12 11  1  0  0  0  0
 13 14  2  0  0  0  0
 13 20  1  0  0  0  0
 16 17  1  0  0  0  0
 16 15  1  0  0  0  0
 17 18  1  0  0  0  0
 19  9  1  0  0  0  0
 19 18  1  0  0  0  0
 20 21  1  0  0  0  0
 21 26  1  0  0  0  0
 22 21  1  0  0  0  0
 23 24  1  0  0  0  0
 23 22  1  0  0  0  0
 24 27  1  6  0  0  0
 24 25  1  0  0  0  0
 25 26  1  0  0  0  0
 28 27  2  0  0  0  0
 29 27  1  0  0  0  0
 29 31  1  0  0  0  0
 30 29  1  0  0  0  0
M  END
>  <Pose>
1

>  <Score>
-9.886

$$$$
