/Users/jonathanwahrer/Desktop/Msc/3_Semester/Drug_Design_Praktikum/waehrer_HTS_screening/HTS_experiment/out/docking_results/vina_output/6e43/2004_docked.pdbqt
 OpenBabel03212220573D

 29 32  0  0  1  0  0  0  0  0999 V2000
   21.5020   78.2260   17.1830 S   0  0  0  0  0  0  0  0  0  0  0  0
   22.5880   77.5980   18.0420 O   0  0  0  0  0  0  0  0  0  0  0  0
   20.5160   77.0830   16.9430 O   0  0  0  0  0  0  0  0  0  0  0  0
   22.1060   78.7470   15.7110 N   0  0  0  0  0  0  0  0  0  0  0  0
   21.8950   80.0780   15.3430 C   0  0  0  0  0  2  0  0  0  0  0  0
   22.7210   80.4950   14.1180 C   0  0  0  0  0  2  0  0  0  0  0  0
   22.7950   79.4430   13.1490 N   0  0  0  0  0  0  0  0  0  0  0  0
   23.0620   78.1020   13.6200 C   0  0  0  0  0  2  0  0  0  0  0  0
   22.6130   79.7160   11.7880 C   0  0  0  0  0  0  0  0  0  0  0  0
   21.9900   77.7820   14.6430 C   0  0  0  0  0  2  0  0  0  0  0  0
   22.3820   80.8900   11.4020 O   0  0  0  0  0  0  0  0  0  0  0  0
   22.6820   78.6500   10.7390 C   0  0  0  0  0  3  0  0  0  0  0  0
   24.0520   78.4950   10.1220 C   0  0  0  0  0  2  0  0  0  0  0  0
   23.6170   79.5060    9.0640 C   0  0  0  0  0  2  0  0  0  0  0  0
   22.1700   79.1410    9.4090 C   0  0  0  0  0  2  0  0  0  0  0  0
   20.6600   79.4150   18.1520 C   0  0  0  0  0  0  0  0  0  0  0  0
   20.6160   80.7490   17.6990 C   0  0  0  0  0  3  0  0  0  0  0  0
   20.0210   81.7400   18.4450 C   0  0  0  0  0  0  0  0  0  0  0  0
   19.4380   81.4970   19.6670 C   0  0  0  0  0  0  0  0  0  0  0  0
   19.9910   83.0530   17.9730 O   0  0  0  0  0  0  0  0  0  0  0  0
   19.4750   80.1990   20.1120 C   0  0  0  0  0  3  0  0  0  0  0  0
   18.8440   82.5630   20.3860 N   0  0  0  0  0  0  0  0  0  0  0  0
   20.0760   79.1740   19.3670 C   0  0  0  0  0  0  0  0  0  0  0  0
   20.0150   77.5350   19.9680 Cl  0  0  0  0  0  0  0  0  0  0  0  0
   18.8260   83.8960   19.8930 C   0  0  0  0  0  0  0  0  0  0  0  0
   18.4020   82.3720   21.3150 H   0  0  0  0  0  0  0  0  0  0  0  0
   18.1100   84.8130   20.3400 O   0  0  0  0  0  0  0  0  0  0  0  0
   19.7400   84.1860   18.7580 C   0  0  1  0  0  3  0  0  0  0  0  0
   21.0640   84.7190   19.2580 C   0  0  0  0  0  1  0  0  0  0  0  0
  1  2  2  0  0  0  0
  1 16  1  0  0  0  0
  3  1  2  0  0  0  0
  4  1  1  0  0  0  0
  5  4  1  0  0  0  0
  6  5  1  0  0  0  0
  7  8  1  0  0  0  0
  7  6  1  0  0  0  0
  8 10  1  0  0  0  0
  9  7  1  0  0  0  0
 10  4  1  0  0  0  0
 11  9  2  0  0  0  0
 12  9  1  0  0  0  0
 13 12  1  0  0  0  0
 14 15  1  0  0  0  0
 14 13  1  0  0  0  0
 15 12  1  0  0  0  0
 16 23  1  0  0  0  0
 17 16  2  0  0  0  0
 17 18  1  0  0  0  0
 18 19  2  0  0  0  0
 19 21  1  0  0  0  0
 19 22  1  0  0  0  0
 20 18  1  0  0  0  0
 20 28  1  0  0  0  0
 22 26  1  0  0  0  0
 23 24  1  0  0  0  0
 23 21  2  0  0  0  0
 25 27  2  0  0  0  0
 25 22  1  0  0  0  0
 28 29  1  1  0  0  0
 28 25  1  0  0  0  0
M  END
>  <Pose>
1

>  <Score>
-10.650

$$$$
