/Users/jonathanwahrer/Desktop/Msc/3_Semester/Drug_Design_Praktikum/waehrer_HTS_screening/HTS_experiment/out/docking_results/vina_output/6e43/2012_docked.pdbqt
 OpenBabel03212220573D

 25 28  0  0  1  0  0  0  0  0999 V2000
   20.0060   80.7200   19.0210 N   0  0  0  0  0  0  0  0  0  0  0  0
   19.4870   79.5070   19.5540 C   0  0  0  0  0  0  0  0  0  0  0  0
   18.4880   79.4330   20.2890 O   0  0  0  0  0  0  0  0  0  0  0  0
   20.3190   78.3810   19.0970 C   0  0  1  0  0  3  0  0  0  0  0  0
   19.7050   77.2010   18.8230 O   0  0  0  0  0  0  0  0  0  0  0  0
   20.4340   76.7250   17.7490 N   0  0  0  0  0  0  0  0  0  0  0  0
   20.7580   77.8340   16.9070 C   0  0  0  0  0  0  0  0  0  0  0  0
   20.6860   78.8760   17.7290 C   0  0  0  0  0  0  0  0  0  0  0  0
   20.7750   80.3230   17.8550 C   0  0  0  0  0  0  0  0  0  0  0  0
   21.4210   81.0540   17.0630 O   0  0  0  0  0  0  0  0  0  0  0  0
   20.6860   75.7320   17.6200 H   0  0  0  0  0  0  0  0  0  0  0  0
   19.8540   82.0700   19.4430 C   0  0  0  0  0  0  0  0  0  0  0  0
   19.4670   82.3990   20.7210 C   0  0  0  0  0  3  0  0  0  0  0  0
   19.3480   83.7470   21.0460 C   0  0  0  0  0  0  0  0  0  0  0  0
   18.8510   84.2340   22.6640 Cl  0  0  0  0  0  0  0  0  0  0  0  0
   19.6130   84.7180   20.1020 C   0  0  0  0  0  3  0  0  0  0  0  0
   20.0050   84.3850   18.8170 C   0  0  0  0  0  3  0  0  0  0  0  0
   20.1230   83.0670   18.4920 C   0  0  0  0  0  3  0  0  0  0  0  0
   21.1340   77.8320   15.5070 C   0  0  0  0  0  0  0  0  0  0  0  0
   22.0850   78.7220   15.0000 C   0  0  0  0  0  3  0  0  0  0  0  0
   22.2340   78.5190   13.6830 N   0  0  0  0  0  0  0  0  0  0  0  0
   21.4130   77.5310   13.3240 N   0  0  0  0  0  0  0  0  0  0  0  0
   23.1090   79.2070   12.7390 C   0  0  0  0  0  1  0  0  0  0  0  0
   20.7410   77.1080   14.4190 C   0  0  0  0  0  0  0  0  0  0  0  0
   19.7170   76.0330   14.4420 C   0  0  0  0  0  1  0  0  0  0  0  0
  1 12  1  0  0  0  0
  1  2  1  0  0  0  0
  2  3  2  0  0  0  0
  4  8  1  6  0  0  0
  4  2  1  0  0  0  0
  5  4  1  0  0  0  0
  6  5  1  0  0  0  0
  7  8  2  0  0  0  0
  7  6  1  0  0  0  0
  8  9  1  0  0  0  0
  9  1  1  0  0  0  0
 10  9  2  0  0  0  0
 11  6  1  0  0  0  0
 12 13  1  0  0  0  0
 13 14  2  0  0  0  0
 14 15  1  0  0  0  0
 16 14  1  0  0  0  0
 17 16  2  0  0  0  0
 18 17  1  0  0  0  0
 18 12  2  0  0  0  0
 19  7  1  0  0  0  0
 20 19  2  0  0  0  0
 21 20  1  0  0  0  0
 22 21  1  0  0  0  0
 22 24  2  0  0  0  0
 23 21  1  0  0  0  0
 24 25  1  0  0  0  0
 24 19  1  0  0  0  0
M  END
>  <Pose>
1

>  <Score>
-10.721

$$$$
