/Users/jonathanwahrer/Desktop/Msc/3_Semester/Drug_Design_Praktikum/waehrer_HTS_screening/HTS_experiment/out/docking_results/vina_output/6e43/2020_docked.pdbqt
 OpenBabel03212220573D

 22 24  0  0  1  0  0  0  0  0999 V2000
   23.0780   77.5550   16.4500 C   0  0  2  0  0  3  0  0  0  0  0  0
   23.5950   78.9170   16.9900 C   0  0  2  0  0  3  0  0  0  0  0  0
   22.4950   79.8090   16.3810 C   0  0  0  0  0  0  0  0  0  0  0  0
   21.8840   80.6550   17.0070 O   0  0  0  0  0  0  0  0  0  0  0  0
   22.3040   79.4950   14.9820 N   0  0  0  0  0  0  0  0  0  0  0  0
   23.4390   78.7830   14.3670 C   0  0  1  0  0  0  0  0  0  0  0  0
   24.6040   79.5500   14.8300 N   0  0  0  0  0  0  0  0  0  0  0  0
   24.8000   79.4030   16.2510 C   0  0  0  0  0  0  0  0  0  0  0  0
   25.8730   79.6550   16.8280 O   0  0  0  0  0  0  0  0  0  0  0  0
   23.5440   77.4190   15.1000 C   0  0  0  0  0  2  0  0  0  0  0  0
   23.3750   78.6210   12.9130 C   0  0  0  0  0  1  0  0  0  0  0  0
   21.4550   79.7210   14.4570 H   0  0  0  0  0  0  0  0  0  0  0  0
   25.1910   80.1170   14.2070 H   0  0  0  0  0  0  0  0  0  0  0  0
   21.6640   77.5840   16.8070 C   0  0  0  0  0  0  0  0  0  0  0  0
   21.3450   78.0580   18.0860 C   0  0  0  0  0  3  0  0  0  0  0  0
   20.0300   78.0420   18.5570 C   0  0  0  0  0  0  0  0  0  0  0  0
   19.6370   78.6850   20.3040 Br  0  0  0  0  0  0  0  0  0  0  0  0
   19.0120   77.5690   17.7920 C   0  0  0  0  0  3  0  0  0  0  0  0
   19.3060   77.1010   16.5430 C   0  0  0  0  0  3  0  0  0  0  0  0
   20.6030   77.1090   16.0570 C   0  0  0  0  0  0  0  0  0  0  0  0
   20.9280   76.6600   14.8090 O   0  0  0  0  0  0  0  0  0  0  0  0
   19.9660   76.0040   14.0280 C   0  0  0  0  0  1  0  0  0  0  0  0
  1 14  1  6  0  0  0
  1  2  1  0  0  0  0
  2  8  1  6  0  0  0
  3  2  1  0  0  0  0
  3  4  2  0  0  0  0
  5  3  1  0  0  0  0
  6 11  1  6  0  0  0
  6  7  1  0  0  0  0
  6  5  1  0  0  0  0
  6 10  1  0  0  0  0
  7  8  1  0  0  0  0
  8  9  2  0  0  0  0
 10  1  1  0  0  0  0
 12  5  1  0  0  0  0
 13  7  1  0  0  0  0
 14 15  1  0  0  0  0
 15 16  2  0  0  0  0
 16 17  1  0  0  0  0
 18 16  1  0  0  0  0
 19 18  2  0  0  0  0
 20 19  1  0  0  0  0
 20 14  2  0  0  0  0
 21 20  1  0  0  0  0
 22 21  1  0  0  0  0
M  END
>  <Pose>
1

>  <Score>
-7.844

$$$$
