/Users/jonathanwahrer/Desktop/Msc/3_Semester/Drug_Design_Praktikum/waehrer_HTS_screening/HTS_experiment/out/docking_results/vina_output/6e43/2033_docked.pdbqt
 OpenBabel03212220573D

 29 32  0  0  0  0  0  0  0  0999 V2000
   19.4900   75.5530   14.2260 C   0  0  0  0  0  3  0  0  0  0  0  0
   20.1670   76.5760   14.6710 C   0  0  0  0  0  0  0  0  0  0  0  0
   20.7840   77.5190   13.8650 O   0  0  0  0  0  0  0  0  0  0  0  0
   21.4300   78.4890   14.6100 C   0  0  0  0  0  0  0  0  0  0  0  0
   21.2800   78.2450   15.9560 C   0  0  0  0  0  0  0  0  0  0  0  0
   21.8480   79.0940   16.8810 C   0  0  0  0  0  3  0  0  0  0  0  0
   22.5680   80.1860   16.4460 C   0  0  0  0  0  3  0  0  0  0  0  0
   22.7080   80.4130   15.0630 C   0  0  0  0  0  0  0  0  0  0  0  0
   22.1540   79.5900   14.1310 C   0  0  0  0  0  0  0  0  0  0  0  0
   23.4660   81.5580   14.7700 O   0  0  0  0  0  1  0  0  0  0  0  0
   20.4720   77.0230   16.0330 C   0  0  0  0  0  0  0  0  0  0  0  0
   20.0990   76.4460   17.0790 O   0  0  0  0  0  0  0  0  0  0  0  0
   19.2610   75.2120   12.8320 C   0  0  0  0  0  0  0  0  0  0  0  0
   19.4190   76.1150   11.8040 C   0  0  0  0  0  3  0  0  0  0  0  0
   19.1950   75.8200   10.4900 C   0  0  0  0  0  0  0  0  0  0  0  0
   19.4040   77.0440    9.0460 Br  0  0  0  0  0  0  0  0  0  0  0  0
   18.7830   74.5260   10.1880 C   0  0  0  0  0  3  0  0  0  0  0  0
   18.6050   73.5710   11.1830 C   0  0  0  0  0  3  0  0  0  0  0  0
   18.8440   73.9240   12.4830 C   0  0  0  0  0  0  0  0  0  0  0  0
   18.6720   73.0000   13.4950 O   0  0  0  0  0  0  0  0  0  0  0  0
   18.0950   71.7500   13.2250 C   0  0  0  0  0  1  0  0  0  0  0  0
   22.2470   79.7830   12.7100 C   0  0  0  0  0  2  0  0  0  0  0  0
   21.4480   79.0820   11.7910 N   0  0  0  0  0  4  0  0  0  0  0  0
   20.3040   79.7920   11.2870 C   0  0  0  0  0  2  0  0  0  0  0  0
   20.6140   80.7330   10.1490 C   0  0  0  0  0  2  0  0  0  0  0  0
   21.9700   80.8390    9.8700 O   0  0  0  0  0  0  0  0  0  0  0  0
   22.4060   79.5560    9.5550 C   0  0  0  0  0  2  0  0  0  0  0  0
   22.2260   78.5600   10.6530 C   0  0  0  0  0  2  0  0  0  0  0  0
   21.0990   78.2100   12.2380 H   0  0  0  0  0  0  0  0  0  0  0  0
  1  2  2  0  0  0  0
  2 11  1  0  0  0  0
  3  4  1  0  0  0  0
  3  2  1  0  0  0  0
  4  5  1  0  0  0  0
  5 11  1  0  0  0  0
  5  6  2  0  0  0  0
  7  6  1  0  0  0  0
  8  7  2  0  0  0  0
  9  4  2  0  0  0  0
  9  8  1  0  0  0  0
 10  8  1  0  0  0  0
 11 12  2  0  0  0  0
 13  1  1  0  0  0  0
 14 13  2  0  0  0  0
 15 14  1  0  0  0  0
 16 15  1  0  0  0  0
 17 15  2  0  0  0  0
 17 18  1  0  0  0  0
 18 19  2  0  0  0  0
 19 13  1  0  0  0  0
 19 20  1  0  0  0  0
 21 20  1  0  0  0  0
 22  9  1  0  0  0  0
 23 29  1  0  0  0  0
 23 22  1  0  0  0  0
 24 23  1  0  0  0  0
 25 24  1  0  0  0  0
 26 25  1  0  0  0  0
 27 26  1  0  0  0  0
 27 28  1  0  0  0  0
 28 23  1  0  0  0  0
M  END
>  <Pose>
1

>  <Score>
-9.768

$$$$
