/Users/jonathanwahrer/Desktop/Msc/3_Semester/Drug_Design_Praktikum/waehrer_HTS_screening/HTS_experiment/out/docking_results/vina_output/6e43/2041_docked.pdbqt
 OpenBabel03212220583D

 30 33  0  0  0  0  0  0  0  0999 V2000
   23.1340   78.1670   14.1930 N   0  0  0  0  0  0  0  0  0  0  0  0
   24.1580   78.6360   13.2810 C   0  0  0  0  0  2  0  0  0  0  0  0
   23.6260   78.6610   11.8540 C   0  0  0  0  0  2  0  0  0  0  0  0
   22.4870   79.5780   11.8200 N   0  0  0  0  0  0  0  0  0  0  0  0
   22.0110   79.9990   13.1040 C   0  0  0  0  0  2  0  0  0  0  0  0
   21.8570   78.7730   13.9640 C   0  0  0  0  0  2  0  0  0  0  0  0
   21.9680   79.9790   10.5850 C   0  0  0  0  0  0  0  0  0  0  0  0
   22.5210   79.5270    9.5000 O   0  0  0  0  0  0  0  0  0  0  0  0
   20.8420   80.8790   10.3160 C   0  0  0  0  0  2  0  0  0  0  0  0
   19.2350   80.0990   10.3940 S   0  0  0  0  0  0  0  0  0  0  0  0
   19.2740   78.3240   10.2280 C   0  0  0  0  0  0  0  0  0  0  0  0
   19.4280   77.5360   11.2850 N   0  0  0  0  0  0  0  0  0  0  0  0
   19.4460   76.2020   11.2160 C   0  0  0  0  0  3  0  0  0  0  0  0
   19.2990   75.6160    9.9880 N   0  0  0  0  0  0  0  0  0  0  0  0
   19.1420   76.3820    8.9030 C   0  0  0  0  0  0  0  0  0  0  0  0
   18.9690   76.0560    7.5890 N   0  0  0  0  0  0  0  0  0  0  0  0
   19.1240   77.7630    8.9790 C   0  0  0  0  0  0  0  0  0  0  0  0
   18.8510   77.1710    6.8980 N   0  0  0  0  0  0  0  0  0  0  0  0
   18.9140   74.7250    7.0610 C   0  0  0  0  0  1  0  0  0  0  0  0
   18.9400   78.2310    7.7050 C   0  0  0  0  0  3  0  0  0  0  0  0
   23.6430   78.3970   15.8190 S   0  0  0  0  0  0  0  0  0  0  0  0
   24.1520   77.0620   16.3110 O   0  0  0  0  0  0  0  0  0  0  0  0
   24.7750   79.3630   15.9240 O   0  0  0  0  0  0  0  0  0  0  0  0
   22.2840   78.9160   16.7910 C   0  0  0  0  0  0  0  0  0  0  0  0
   21.8020   80.2040   16.8230 C   0  0  0  0  0  3  0  0  0  0  0  0
   20.7340   80.5520   17.6160 C   0  0  0  0  0  3  0  0  0  0  0  0
   20.1120   79.5900   18.4110 C   0  0  0  0  0  0  0  0  0  0  0  0
   20.5920   78.2760   18.3890 C   0  0  0  0  0  3  0  0  0  0  0  0
   18.7580   80.0460   19.4110 Cl  0  0  0  0  0  0  0  0  0  0  0  0
   21.6640   77.9520   17.5860 C   0  0  0  0  0  3  0  0  0  0  0  0
  1 21  1  0  0  0  0
  2  1  1  0  0  0  0
  3  2  1  0  0  0  0
  4  3  1  0  0  0  0
  4  5  1  0  0  0  0
  5  6  1  0  0  0  0
  6  1  1  0  0  0  0
  7  4  1  0  0  0  0
  8  7  2  0  0  0  0
  9 10  1  0  0  0  0
  9  7  1  0  0  0  0
 11 10  1  0  0  0  0
 11 12  1  0  0  0  0
 13 12  2  0  0  0  0
 14 13  1  0  0  0  0
 15 17  1  0  0  0  0
 15 14  2  0  0  0  0
 16 15  1  0  0  0  0
 17 11  2  0  0  0  0
 18 16  1  0  0  0  0
 18 20  2  0  0  0  0
 19 16  1  0  0  0  0
 20 17  1  0  0  0  0
 21 23  2  0  0  0  0
 21 22  2  0  0  0  0
 21 24  1  0  0  0  0
 24 25  2  0  0  0  0
 24 30  1  0  0  0  0
 25 26  1  0  0  0  0
 26 27  2  0  0  0  0
 27 29  1  0  0  0  0
 28 27  1  0  0  0  0
 30 28  2  0  0  0  0
M  END
>  <Pose>
1

>  <Score>
-9.712

$$$$
