/Users/jonathanwahrer/Desktop/Msc/3_Semester/Drug_Design_Praktikum/waehrer_HTS_screening/HTS_experiment/out/docking_results/vina_output/6e43/2043_docked.pdbqt
 OpenBabel03212220583D

 32 35  0  0  0  0  0  0  0  0999 V2000
   21.4770   79.3290   17.9970 N   0  0  0  0  0  0  0  0  0  0  0  0
   22.5390   79.3760   17.0230 C   0  0  0  0  0  2  0  0  0  0  0  0
   22.7320   77.9640   16.4730 C   0  0  0  0  0  2  0  0  0  0  0  0
   21.4700   77.3620   16.2610 N   0  0  0  0  0  0  0  0  0  0  0  0
   20.8490   76.9560   17.5990 C   0  0  0  0  0  2  0  0  0  0  0  0
   21.1950   78.0530   18.5410 C   0  0  0  0  0  2  0  0  0  0  0  0
   20.7310   77.1440   15.1350 C   0  0  0  0  0  0  0  0  0  0  0  0
   19.6410   76.3590   15.4440 O   0  0  0  0  0  0  0  0  0  0  0  0
   20.7070   77.4480   13.7590 C   0  0  0  0  0  3  0  0  0  0  0  0
   21.1190   78.3360   12.9150 C   0  0  0  0  0  0  0  0  0  0  0  0
   21.8540   79.4750   13.2750 N   0  0  0  0  0  0  0  0  0  0  0  0
   20.8710   78.1370   11.4550 C   0  0  0  0  0  0  0  0  0  0  0  0
   22.3650   80.4250   12.3620 N   0  0  0  0  0  0  0  0  0  0  0  0
   22.0260   79.7000   14.2570 H   0  0  0  0  0  0  0  0  0  0  0  0
   22.1360   80.2420   10.9950 C   0  0  0  0  0  0  0  0  0  0  0  0
   22.9090   81.2500   12.7560 H   0  0  0  0  0  0  0  0  0  0  0  0
   22.5850   81.0800   10.1710 O   0  0  0  0  0  0  0  0  0  0  0  0
   21.3680   79.0630   10.5570 C   0  0  0  0  0  0  0  0  0  0  0  0
   21.1740   78.9370    9.1920 C   0  0  0  0  0  3  0  0  0  0  0  0
   20.4690   77.8650    8.6910 C   0  0  0  0  0  3  0  0  0  0  0  0
   19.9790   76.9490    9.5870 C   0  0  0  0  0  3  0  0  0  0  0  0
   20.1750   77.0790   10.9660 C   0  0  0  0  0  3  0  0  0  0  0  0
   20.1750   80.3480   17.6970 S   0  0  0  0  0  0  0  0  0  0  0  0
   20.3020   80.8550   16.2670 O   0  0  0  0  0  0  0  0  0  0  0  0
   18.9040   79.5070   17.6950 O   0  0  0  0  0  0  0  0  0  0  0  0
   19.9570   81.6330   18.8180 C   0  0  0  0  0  0  0  0  0  0  0  0
   19.3890   81.4220   20.0490 C   0  0  0  0  0  3  0  0  0  0  0  0
   19.2230   82.4720   20.9340 C   0  0  0  0  0  3  0  0  0  0  0  0
   19.6130   83.7550   20.6230 C   0  0  0  0  0  0  0  0  0  0  0  0
   20.1870   83.9760   19.3810 C   0  0  0  0  0  3  0  0  0  0  0  0
   19.3800   85.0510   21.7790 Cl  0  0  0  0  0  0  0  0  0  0  0  0
   20.3480   82.9090   18.5000 C   0  0  0  0  0  3  0  0  0  0  0  0
  1  6  1  0  0  0  0
  2  1  1  0  0  0  0
  3  2  1  0  0  0  0
  4  3  1  0  0  0  0
  4  5  1  0  0  0  0
  5  6  1  0  0  0  0
  7  8  2  0  0  0  0
  7  4  1  0  0  0  0
  9  7  1  0  0  0  0
 10 11  1  0  0  0  0
 10  9  2  0  0  0  0
 11 14  1  0  0  0  0
 12 10  1  0  0  0  0
 13 16  1  0  0  0  0
 13 11  1  0  0  0  0
 15 13  1  0  0  0  0
 17 15  2  0  0  0  0
 18 15  1  0  0  0  0
 18 12  2  0  0  0  0
 19 18  1  0  0  0  0
 20 19  2  0  0  0  0
 20 21  1  0  0  0  0
 21 22  2  0  0  0  0
 22 12  1  0  0  0  0
 23  1  1  0  0  0  0
 23 26  1  0  0  0  0
 24 23  2  0  0  0  0
 25 23  2  0  0  0  0
 26 27  1  0  0  0  0
 27 28  2  0  0  0  0
 29 28  1  0  0  0  0
 29 31  1  0  0  0  0
 30 29  2  0  0  0  0
 32 26  2  0  0  0  0
 32 30  1  0  0  0  0
M  END
>  <Pose>
1

>  <Score>
-11.099

$$$$
