/Users/jonathanwahrer/Desktop/Msc/3_Semester/Drug_Design_Praktikum/waehrer_HTS_screening/HTS_experiment/out/docking_results/vina_output/6e43/2046_docked.pdbqt
 OpenBabel03212220583D

 26 29  0  0  0  0  0  0  0  0999 V2000
   20.5140   76.0780   13.9110 Cl  0  0  0  0  0  0  0  0  0  0  0  0
   20.5410   77.0560   15.3450 C   0  0  0  0  0  0  0  0  0  0  0  0
   21.4320   78.0890   15.4840 C   0  0  0  0  0  0  0  0  0  0  0  0
   21.4040   78.8270   16.6460 C   0  0  0  0  0  3  0  0  0  0  0  0
   20.5260   78.5820   17.6790 C   0  0  0  0  0  0  0  0  0  0  0  0
   19.6380   77.5420   17.5230 C   0  0  0  0  0  3  0  0  0  0  0  0
   19.6590   76.7970   16.3630 C   0  0  0  0  0  3  0  0  0  0  0  0
   20.5190   79.3770   18.8910 N   0  0  0  0  0  0  0  0  0  0  0  0
   20.6510   78.9470   19.8110 H   0  0  0  0  0  0  0  0  0  0  0  0
   20.3220   80.7760   18.7290 C   0  0  0  0  0  2  0  0  0  0  0  0
   19.6610   81.5130   19.8020 C   0  0  0  0  0  0  0  0  0  0  0  0
   18.8080   80.7720   20.4660 O   0  0  0  0  0  0  0  0  0  0  0  0
   19.7680   82.8120   20.2320 N   0  0  0  0  0  0  0  0  0  0  0  0
   20.6890   83.7910   19.7490 C   0  0  0  0  0  2  0  0  0  0  0  0
   18.8450   83.3220   21.2690 C   0  0  0  0  0  2  0  0  0  0  0  0
   19.8920   84.9750   19.2070 C   0  0  0  0  0  2  0  0  0  0  0  0
   19.2200   85.4980   20.3330 O   0  0  0  0  0  0  0  0  0  0  0  0
   18.2340   84.6080   20.7010 C   0  0  0  0  0  2  0  0  0  0  0  0
   22.3750   78.4130   14.4920 N   0  0  0  0  0  0  0  0  0  0  0  0
   22.0720   78.8410   13.2840 N   0  0  0  0  0  0  0  0  0  0  0  0
   23.1730   79.0680   12.5930 N   0  0  0  0  0  0  0  0  0  0  0  0
   24.1790   78.7720   13.3910 N   0  0  0  0  0  0  0  0  0  0  0  0
   23.6950   78.3560   14.5990 C   0  0  0  0  0  0  0  0  0  0  0  0
   24.5700   77.9460   15.6970 C   0  0  0  0  0  3  0  0  0  0  0  0
   25.9640   78.3380   15.8660 C   0  0  0  0  0  2  0  0  0  0  0  0
   24.9130   79.0760   16.7110 C   0  0  0  0  0  2  0  0  0  0  0  0
  1  2  1  0  0  0  0
  2  3  2  0  0  0  0
  2  7  1  0  0  0  0
  3  4  1  0  0  0  0
  4  5  2  0  0  0  0
  5  8  1  0  0  0  0
  6  5  1  0  0  0  0
  7  6  2  0  0  0  0
  8  9  1  0  0  0  0
 10  8  1  0  0  0  0
 10 11  1  0  0  0  0
 11 13  1  0  0  0  0
 11 12  2  0  0  0  0
 13 15  1  0  0  0  0
 14 13  1  0  0  0  0
 16 14  1  0  0  0  0
 16 17  1  0  0  0  0
 17 18  1  0  0  0  0
 18 15  1  0  0  0  0
 19 23  1  0  0  0  0
 19  3  1  0  0  0  0
 20 19  1  0  0  0  0
 21 20  2  0  0  0  0
 21 22  1  0  0  0  0
 22 23  2  0  0  0  0
 23 24  1  0  0  0  0
 24 25  1  0  0  0  0
 24 26  1  0  0  0  0
 25 26  1  0  0  0  0
M  END
>  <Pose>
1

>  <Score>
-9.211

$$$$
