/Users/jonathanwahrer/Desktop/Msc/3_Semester/Drug_Design_Praktikum/waehrer_HTS_screening/HTS_experiment/out/docking_results/vina_output/6e43/2063_docked.pdbqt
 OpenBabel03212220583D

 34 37  0  0  1  0  0  0  0  0999 V2000
   19.7970   76.8280   10.2310 C   0  0  0  0  0  0  0  0  0  0  0  0
   20.6480   77.9200   10.3730 C   0  0  0  0  0  3  0  0  0  0  0  0
   21.1110   78.3080   11.5370 O   0  0  0  0  0  0  0  0  0  0  0  0
   20.8100   77.7010   12.6610 C   0  0  0  0  0  0  0  0  0  0  0  0
   19.9740   76.6100   12.6210 C   0  0  0  0  0  0  0  0  0  0  0  0
   19.6870   76.0050   13.8210 C   0  0  0  0  0  3  0  0  0  0  0  0
   20.1860   76.4370   15.0230 C   0  0  0  0  0  3  0  0  0  0  0  0
   21.0450   77.5540   15.0860 C   0  0  0  0  0  0  0  0  0  0  0  0
   21.3280   78.1530   13.8820 C   0  0  0  0  0  3  0  0  0  0  0  0
   19.4710   76.1760   11.4140 C   0  0  0  0  0  0  0  0  0  0  0  0
   18.7050   75.1760   11.3760 O   0  0  0  0  0  0  0  0  0  0  0  0
   21.5260   77.9560   16.3140 O   0  0  0  0  0  0  0  0  0  0  0  0
   20.8080   78.5290   17.3220 C   0  0  2  0  0  3  0  0  0  0  0  0
   21.2230   79.8530   17.6250 O   0  0  0  0  0  0  0  0  0  0  0  0
   20.1380   80.4500   18.2270 C   0  0  1  0  0  3  0  0  0  0  0  0
   19.7420   79.8420   19.5370 C   0  0  2  0  0  3  0  0  0  0  0  0
   19.7630   78.3330   19.5020 C   0  0  1  0  0  3  0  0  0  0  0  0
   20.8990   77.8030   18.6520 C   0  0  1  0  0  3  0  0  0  0  0  0
   20.2970   81.9410   18.3840 C   0  0  0  0  0  2  0  0  0  0  0  0
   20.2940   82.3300   19.7210 O   0  0  0  0  0  0  0  0  0  0  0  0
   19.5280   82.9790   19.8080 H   0  0  0  0  0  0  0  0  0  0  0  0
   18.4110   80.2180   19.7830 O   0  0  0  0  0  0  0  0  0  0  0  0
   18.3090   81.2010   19.7240 H   0  0  0  0  0  0  0  0  0  0  0  0
   19.7950   77.8380   20.7990 O   0  0  0  0  0  0  0  0  0  0  0  0
   20.2740   76.9550   20.8560 H   0  0  0  0  0  0  0  0  0  0  0  0
   20.7220   76.4330   18.5040 O   0  0  0  0  0  0  0  0  0  0  0  0
   21.5080   76.0210   18.0750 H   0  0  0  0  0  0  0  0  0  0  0  0
   19.2990   76.4170    8.9350 C   0  0  0  0  0  0  0  0  0  0  0  0
   18.4830   77.2100    8.1540 C   0  0  0  0  0  3  0  0  0  0  0  0
   18.0390   76.7550    6.9180 C   0  0  0  0  0  3  0  0  0  0  0  0
   18.3850   75.5170    6.4260 C   0  0  0  0  0  0  0  0  0  0  0  0
   17.7650   74.9050    4.7230 Br  0  0  0  0  0  0  0  0  0  0  0  0
   19.2040   74.7190    7.2110 C   0  0  0  0  0  3  0  0  0  0  0  0
   19.6440   75.1720    8.4380 C   0  0  0  0  0  3  0  0  0  0  0  0
  1  2  2  0  0  0  0
  1 10  1  0  0  0  0
  2  3  1  0  0  0  0
  3  4  1  0  0  0  0
  4  9  1  0  0  0  0
  5  4  2  0  0  0  0
  5  6  1  0  0  0  0
  6  7  2  0  0  0  0
  7  8  1  0  0  0  0
  8 12  1  0  0  0  0
  9  8  2  0  0  0  0
 10  5  1  0  0  0  0
 11 10  2  0  0  0  0
 13 12  1  6  0  0  0
 13 14  1  0  0  0  0
 13 18  1  0  0  0  0
 14 15  1  0  0  0  0
 15 19  1  1  0  0  0
 15 16  1  0  0  0  0
 16 22  1  6  0  0  0
 17 16  1  0  0  0  0
 17 24  1  1  0  0  0
 18 26  1  6  0  0  0
 18 17  1  0  0  0  0
 19 20  1  0  0  0  0
 20 21  1  0  0  0  0
 23 22  1  0  0  0  0
 24 25  1  0  0  0  0
 27 26  1  0  0  0  0
 28  1  1  0  0  0  0
 29 28  2  0  0  0  0
 30 29  1  0  0  0  0
 31 30  2  0  0  0  0
 31 33  1  0  0  0  0
 32 31  1  0  0  0  0
 33 34  2  0  0  0  0
 34 28  1  0  0  0  0
M  END
>  <Pose>
1

>  <Score>
-9.969

$$$$
