/Users/jonathanwahrer/Desktop/Msc/3_Semester/Drug_Design_Praktikum/waehrer_HTS_screening/HTS_experiment/out/docking_results/vina_output/6e43/2072_docked.pdbqt
 OpenBabel03212220593D

 27 30  0  0  0  0  0  0  0  0999 V2000
   22.7100   77.7420   14.8240 N   0  0  0  0  0  0  0  0  0  0  0  0
   21.3090   77.5380   14.8910 C   0  0  0  0  0  2  0  0  0  0  0  0
   20.6970   77.3680   16.2520 C   0  0  0  0  0  2  0  0  0  0  0  0
   21.4320   78.1440   17.1960 N   0  0  0  0  0  0  0  0  0  0  0  0
   22.7590   77.5340   17.2740 C   0  0  0  0  0  2  0  0  0  0  0  0
   23.4700   77.8040   16.0010 C   0  0  0  0  0  2  0  0  0  0  0  0
   20.8390   78.2540   18.4850 C   0  0  0  0  0  2  0  0  0  0  0  0
   19.4880   78.8810   18.4270 C   0  0  0  0  0  2  0  0  0  0  0  0
   19.5000   80.2600   18.8700 N   0  0  0  0  0  0  0  0  0  0  0  0
   18.9890   80.7500   19.9980 N   0  0  0  0  0  0  0  0  0  0  0  0
   19.2020   82.0710   20.0720 C   0  0  0  0  0  0  0  0  0  0  0  0
   19.8640   82.4280   18.9640 N   0  0  0  0  0  0  0  0  0  0  0  0
   18.9010   83.0630   20.9880 C   0  0  0  0  0  3  0  0  0  0  0  0
   20.2260   83.7140   18.7450 C   0  0  0  0  0  3  0  0  0  0  0  0
   20.0420   81.2940   18.2250 C   0  0  0  0  0  0  0  0  0  0  0  0
   19.9390   84.7190   19.6420 C   0  0  0  0  0  3  0  0  0  0  0  0
   19.2570   84.3800   20.7940 C   0  0  0  0  0  3  0  0  0  0  0  0
   20.6360   81.3200   17.1200 O   0  0  0  0  0  0  0  0  0  0  0  0
   23.0360   79.1180   13.8400 S   0  0  0  0  0  0  0  0  0  0  0  0
   22.3290   80.3130   14.4400 O   0  0  0  0  0  0  0  0  0  0  0  0
   24.4850   79.4280   13.7870 O   0  0  0  0  0  0  0  0  0  0  0  0
   22.4780   78.8320   12.1850 C   0  0  0  0  0  0  0  0  0  0  0  0
   20.8900   78.6270   11.6010 S   0  0  0  0  0  0  0  0  0  0  0  0
   21.2310   78.4110    9.9470 C   0  0  0  0  0  0  0  0  0  0  0  0
   22.5960   78.5060    9.8960 C   0  0  0  0  0  3  0  0  0  0  0  0
   20.0190   78.1050    8.4790 Br  0  0  0  0  0  0  0  0  0  0  0  0
   23.2390   78.7240   11.0490 C   0  0  0  0  0  3  0  0  0  0  0  0
  1  2  1  0  0  0  0
  1  6  1  0  0  0  0
  2  3  1  0  0  0  0
  3  4  1  0  0  0  0
  4  5  1  0  0  0  0
  4  7  1  0  0  0  0
  6  5  1  0  0  0  0
  8  7  1  0  0  0  0
  8  9  1  0  0  0  0
  9 10  1  0  0  0  0
 10 11  2  0  0  0  0
 11 13  1  0  0  0  0
 12 11  1  0  0  0  0
 14 12  1  0  0  0  0
 14 16  2  0  0  0  0
 15  9  1  0  0  0  0
 15 12  1  0  0  0  0
 16 17  1  0  0  0  0
 17 13  2  0  0  0  0
 18 15  2  0  0  0  0
 19 20  2  0  0  0  0
 19  1  1  0  0  0  0
 21 19  2  0  0  0  0
 22 19  1  0  0  0  0
 23 22  1  0  0  0  0
 24 23  1  0  0  0  0
 25 24  2  0  0  0  0
 25 27  1  0  0  0  0
 26 24  1  0  0  0  0
 27 22  2  0  0  0  0
M  END
>  <Pose>
1

>  <Score>
-9.487

$$$$
