/Users/jonathanwahrer/Desktop/Msc/3_Semester/Drug_Design_Praktikum/waehrer_HTS_screening/HTS_experiment/out/docking_results/vina_output/6e43/2079_docked.pdbqt
 OpenBabel03212220593D

 31 34  0  0  0  0  0  0  0  0999 V2000
   19.2530   74.8680   12.9150 C   0  0  0  0  0  0  0  0  0  0  0  0
   19.2830   75.8280   11.9290 C   0  0  0  0  0  3  0  0  0  0  0  0
   20.0580   76.9780   12.1320 C   0  0  0  0  0  0  0  0  0  0  0  0
   20.7780   77.1630   13.2920 C   0  0  0  0  0  0  0  0  0  0  0  0
   21.5770   78.2690   13.5830 C   0  0  0  0  0  0  0  0  0  0  0  0
   21.6050   79.2320   12.5430 C   0  0  0  0  0  0  0  0  0  0  0  0
   20.8960   79.0800   11.3550 C   0  0  0  0  0  3  0  0  0  0  0  0
   20.1270   77.9440   11.1600 C   0  0  0  0  0  3  0  0  0  0  0  0
   22.3370   80.4000   12.6230 O   0  0  0  0  0  1  0  0  0  0  0  0
   20.7200   76.2510   14.1760 O   0  0  0  0  0  0  0  0  0  0  0  0
   20.0150   75.1220   14.0740 C   0  0  0  0  0  0  0  0  0  0  0  0
   20.0000   74.2790   14.9790 O   0  0  0  0  0  0  0  0  0  0  0  0
   22.4680   78.4540   14.6750 C   0  0  0  0  0  2  0  0  0  0  0  0
   23.0300   79.7200   15.0720 N   0  0  0  0  0  4  0  0  0  0  0  0
   22.1240   80.4560   15.9970 C   0  0  0  0  0  2  0  0  0  0  0  0
   21.5070   79.5070   16.9620 C   0  0  0  0  0  2  0  0  0  0  0  0
   22.4360   78.7920   17.8070 N   0  0  0  0  0  0  0  0  0  0  0  0
   23.7080   78.5990   17.1970 C   0  0  0  0  0  2  0  0  0  0  0  0
   24.1140   79.4110   16.0590 C   0  0  0  0  0  2  0  0  0  0  0  0
   23.4570   80.3160   14.4010 H   0  0  0  0  0  0  0  0  0  0  0  0
   21.8640   77.5000   18.2130 C   0  0  0  0  0  2  0  0  0  0  0  0
   20.5500   77.6630   18.9410 C   0  0  0  0  0  2  0  0  0  0  0  0
   20.4580   76.8580   20.0670 O   0  0  0  0  0  0  0  0  0  0  0  0
   19.8370   76.0910   19.8540 H   0  0  0  0  0  0  0  0  0  0  0  0
   18.5560   73.5810   12.7220 C   0  0  0  0  0  0  0  0  0  0  0  0
   17.1510   73.6030   12.8090 C   0  0  0  0  0  3  0  0  0  0  0  0
   16.4270   72.4450   12.5870 C   0  0  0  0  0  3  0  0  0  0  0  0
   17.0420   71.2380   12.2800 C   0  0  0  0  0  0  0  0  0  0  0  0
   16.1250   69.7590   11.9020 Cl  0  0  0  0  0  0  0  0  0  0  0  0
   18.4240   71.2240   12.2030 C   0  0  0  0  0  3  0  0  0  0  0  0
   19.1260   72.3940   12.4300 C   0  0  0  0  0  3  0  0  0  0  0  0
  1 11  1  0  0  0  0
  2  3  1  0  0  0  0
  2  1  2  0  0  0  0
  3  4  1  0  0  0  0
  4  5  2  0  0  0  0
  4 10  1  0  0  0  0
  5 13  1  0  0  0  0
  6  9  1  0  0  0  0
  6  5  1  0  0  0  0
  7  6  2  0  0  0  0
  8  7  1  0  0  0  0
  8  3  2  0  0  0  0
 11 10  1  0  0  0  0
 11 12  2  0  0  0  0
 13 14  1  0  0  0  0
 14 15  1  0  0  0  0
 14 19  1  0  0  0  0
 15 16  1  0  0  0  0
 16 17  1  0  0  0  0
 17 21  1  0  0  0  0
 18 17  1  0  0  0  0
 19 18  1  0  0  0  0
 20 14  1  0  0  0  0
 21 22  1  0  0  0  0
 22 23  1  0  0  0  0
 24 23  1  0  0  0  0
 25 26  1  0  0  0  0
 25  1  1  0  0  0  0
 27 26  2  0  0  0  0
 28 27  1  0  0  0  0
 29 28  1  0  0  0  0
 30 28  2  0  0  0  0
 30 31  1  0  0  0  0
 31 25  2  0  0  0  0
M  END
>  <Pose>
1

>  <Score>
-10.332

$$$$
