/Users/jonathanwahrer/Desktop/Msc/3_Semester/Drug_Design_Praktikum/waehrer_HTS_screening/HTS_experiment/out/docking_results/vina_output/6e43/2087_docked.pdbqt
 OpenBabel03212220593D

 32 35  0  0  0  0  0  0  0  0999 V2000
   21.3390   77.6460   13.7090 N   0  0  0  0  0  0  0  0  0  0  0  0
   21.4570   78.6300   12.7590 C   0  0  0  0  0  0  0  0  0  0  0  0
   20.5760   78.3820   11.7250 C   0  0  0  0  0  0  0  0  0  0  0  0
   19.9440   77.2550   12.0640 N   0  0  0  0  0  0  0  0  0  0  0  0
   20.4060   76.7990   13.2720 C   0  0  0  0  0  0  0  0  0  0  0  0
   20.5050   79.2050   10.6610 N   0  0  0  0  0  0  0  0  0  0  0  0
   21.3150   80.2730   10.6290 C   0  0  0  0  0  0  0  0  0  0  0  0
   21.2400   81.0330    9.6320 O   0  0  0  0  0  0  0  0  0  0  0  0
   22.1830   80.5450   11.6100 N   0  0  0  0  0  0  0  0  0  0  0  0
   22.2820   79.7340   12.7060 C   0  0  0  0  0  0  0  0  0  0  0  0
   23.1080   80.0150   13.6070 O   0  0  0  0  0  0  0  0  0  0  0  0
   19.5610   78.9100    9.5990 C   0  0  0  0  0  1  0  0  0  0  0  0
   22.8130   81.3860   11.5680 H   0  0  0  0  0  0  0  0  0  0  0  0
   19.9760   75.5770   13.8120 N   0  0  0  0  0  0  0  0  0  0  0  0
   20.6920   74.3700   14.0230 C   0  0  0  0  0  2  0  0  0  0  0  0
   19.7800   73.1390   13.9750 C   0  0  0  0  0  2  0  0  0  0  0  0
   18.5900   73.2910   13.2440 N   0  0  0  0  0  0  0  0  0  0  0  0
   17.8270   74.4530   13.4800 C   0  0  0  0  0  2  0  0  0  0  0  0
   18.5590   75.5180   14.2630 C   0  0  0  0  0  2  0  0  0  0  0  0
   18.3960   72.5760   12.0520 C   0  0  0  0  0  2  0  0  0  0  0  0
   17.4610   71.4410   12.0860 C   0  0  0  0  0  0  0  0  0  0  0  0
   17.2350   70.7770   13.1330 O   0  0  0  0  0  0  0  0  0  0  0  0
   16.7940   71.0680   10.9390 O   0  0  0  0  0  0  0  0  0  0  0  0
   15.8580   70.0260   10.9130 C   0  0  0  0  0  1  0  0  0  0  0  0
   22.0930   77.6170   14.9350 C   0  0  0  0  0  2  0  0  0  0  0  0
   21.3070   78.2350   16.0780 C   0  0  0  0  0  0  0  0  0  0  0  0
   20.5410   77.3940   16.8300 C   0  0  0  0  0  3  0  0  0  0  0  0
   19.8290   77.9140   17.9120 C   0  0  0  0  0  3  0  0  0  0  0  0
   19.9020   79.2560   18.2120 C   0  0  0  0  0  0  0  0  0  0  0  0
   18.9390   79.9890   19.6860 Br  0  0  0  0  0  0  0  0  0  0  0  0
   20.6890   80.0800   17.4250 C   0  0  0  0  0  3  0  0  0  0  0  0
   21.3900   79.5680   16.3610 C   0  0  0  0  0  3  0  0  0  0  0  0
  1 25  1  0  0  0  0
  2  1  1  0  0  0  0
  3  4  1  0  0  0  0
  3  2  2  0  0  0  0
  4  5  2  0  0  0  0
  5  1  1  0  0  0  0
  5 14  1  0  0  0  0
  6  3  1  0  0  0  0
  7  6  1  0  0  0  0
  7  9  1  0  0  0  0
  8  7  2  0  0  0  0
  9 10  1  0  0  0  0
 10  2  1  0  0  0  0
 10 11  2  0  0  0  0
 12  6  1  0  0  0  0
 13  9  1  0  0  0  0
 14 15  1  0  0  0  0
 14 19  1  0  0  0  0
 16 15  1  0  0  0  0
 17 18  1  0  0  0  0
 17 16  1  0  0  0  0
 18 19  1  0  0  0  0
 20 21  1  0  0  0  0
 20 17  1  0  0  0  0
 21 22  2  0  0  0  0
 23 21  1  0  0  0  0
 24 23  1  0  0  0  0
 25 26  1  0  0  0  0
 26 32  2  0  0  0  0
 26 27  1  0  0  0  0
 27 28  2  0  0  0  0
 28 29  1  0  0  0  0
 29 30  1  0  0  0  0
 31 29  2  0  0  0  0
 32 31  1  0  0  0  0
M  END
>  <Pose>
1

>  <Score>
-8.514

$$$$
