/Users/jonathanwahrer/Desktop/Msc/3_Semester/Drug_Design_Praktikum/waehrer_HTS_screening/HTS_experiment/out/docking_results/vina_output/6e43/2091_docked.pdbqt
 OpenBabel03212220593D

 28 31  0  0  0  0  0  0  0  0999 V2000
   20.8630   77.1660   13.5710 N   0  0  0  0  0  0  0  0  0  0  0  0
   21.1390   78.1280   12.6790 C   0  0  0  0  0  0  0  0  0  0  0  0
   20.3340   77.9560   11.5740 C   0  0  0  0  0  0  0  0  0  0  0  0
   19.5910   76.8910   11.8300 N   0  0  0  0  0  0  0  0  0  0  0  0
   19.8880   76.3890   13.0370 C   0  0  0  0  0  0  0  0  0  0  0  0
   20.3600   78.7730   10.4920 N   0  0  0  0  0  0  0  0  0  0  0  0
   21.2260   79.7990   10.5270 C   0  0  0  0  0  0  0  0  0  0  0  0
   21.2380   80.5450    9.5160 O   0  0  0  0  0  0  0  0  0  0  0  0
   22.0350   80.0220   11.5770 N   0  0  0  0  0  0  0  0  0  0  0  0
   22.0170   79.2170   12.6560 C   0  0  0  0  0  0  0  0  0  0  0  0
   22.7470   79.3960   13.6400 O   0  0  0  0  0  0  0  0  0  0  0  0
   19.4790   78.5110    9.3740 C   0  0  0  0  0  1  0  0  0  0  0  0
   22.7020   80.8230   11.5970 H   0  0  0  0  0  0  0  0  0  0  0  0
   21.4880   76.9780   14.8580 C   0  0  0  0  0  2  0  0  0  0  0  0
   20.8570   77.5800   16.0150 C   0  0  0  0  0  0  0  0  0  0  0  0
   19.7400   77.1350   16.6510 C   0  0  0  0  0  3  0  0  0  0  0  0
   19.2090   77.7420   17.7880 C   0  0  0  0  0  3  0  0  0  0  0  0
   19.8410   78.8640   18.3140 C   0  0  0  0  0  0  0  0  0  0  0  0
   19.1910   79.7480   19.8720 Br  0  0  0  0  0  0  0  0  0  0  0  0
   20.9740   79.3490   17.7030 C   0  0  0  0  0  3  0  0  0  0  0  0
   21.4620   78.7180   16.5830 C   0  0  0  0  0  3  0  0  0  0  0  0
   19.2980   75.2410   13.6610 N   0  0  0  0  0  0  0  0  0  0  0  0
   20.1630   74.1260   13.9760 C   0  0  0  0  0  2  0  0  0  0  0  0
   19.7220   72.9420   13.1280 C   0  0  0  0  0  2  0  0  0  0  0  0
   18.3640   73.0350   12.7080 N   0  0  0  0  0  0  0  0  0  0  0  0
   17.4780   73.7130   13.5940 C   0  0  0  0  0  2  0  0  0  0  0  0
   18.1140   73.1640   11.3230 C   0  0  0  0  0  1  0  0  0  0  0  0
   17.9020   75.1050   13.9860 C   0  0  0  0  0  2  0  0  0  0  0  0
  1 14  1  0  0  0  0
  2  1  1  0  0  0  0
  3  4  1  0  0  0  0
  3  2  2  0  0  0  0
  4  5  2  0  0  0  0
  5  1  1  0  0  0  0
  5 22  1  0  0  0  0
  6  7  1  0  0  0  0
  6  3  1  0  0  0  0
  7  9  1  0  0  0  0
  8  7  2  0  0  0  0
  9 13  1  0  0  0  0
  9 10  1  0  0  0  0
 10  2  1  0  0  0  0
 10 11  2  0  0  0  0
 12  6  1  0  0  0  0
 14 15  1  0  0  0  0
 15 21  2  0  0  0  0
 15 16  1  0  0  0  0
 16 17  2  0  0  0  0
 17 18  1  0  0  0  0
 18 19  1  0  0  0  0
 20 18  2  0  0  0  0
 21 20  1  0  0  0  0
 22 23  1  0  0  0  0
 22 28  1  0  0  0  0
 24 23  1  0  0  0  0
 25 24  1  0  0  0  0
 25 26  1  0  0  0  0
 26 28  1  0  0  0  0
 27 25  1  0  0  0  0
M  END
>  <Pose>
1

>  <Score>
-7.770

$$$$
