/Users/jonathanwahrer/Desktop/Msc/3_Semester/Drug_Design_Praktikum/waehrer_HTS_screening/HTS_experiment/out/docking_results/vina_output/6e43/2116_docked.pdbqt
 OpenBabel03212221003D

 33 36  0  0  0  0  0  0  0  0999 V2000
   20.4930   76.4270   14.3720 C   0  0  0  0  0  0  0  0  0  0  0  0
   19.8800   75.2590   14.2640 N   0  0  0  0  0  4  0  0  0  0  0  0
   19.2320   74.8410   13.1630 C   0  0  0  0  0  0  0  0  0  0  0  0
   19.2220   75.6870   12.1090 N   0  0  0  0  0  0  0  0  0  0  0  0
   19.8350   76.9000   12.1580 C   0  0  0  0  0  0  0  0  0  0  0  0
   20.4690   77.2520   13.3040 N   0  0  0  0  0  2  0  0  0  0  0  0
   21.1250   76.7970   15.5910 N   0  0  0  0  0  0  0  0  0  0  0  0
   22.0000   76.3340   15.8660 H   0  0  0  0  0  0  0  0  0  0  0  0
   20.5700   77.7700   16.4040 N   0  0  0  0  0  0  0  0  0  0  0  0
   21.1960   78.3520   17.3680 C   0  0  0  0  0  3  0  0  0  0  0  0
   20.5700   79.3630   18.1950 C   0  0  0  0  0  0  0  0  0  0  0  0
   19.6940   78.9860   19.2120 C   0  0  0  0  0  0  0  0  0  0  0  0
   19.0540   79.8950   20.0140 C   0  0  0  0  0  3  0  0  0  0  0  0
   19.2510   81.2530   19.8540 C   0  0  0  0  0  0  0  0  0  0  0  0
   20.1190   81.6520   18.8500 C   0  0  0  0  0  0  0  0  0  0  0  0
   20.4180   83.5140   18.6080 Br  0  0  0  0  0  0  0  0  0  0  0  0
   20.7540   80.7200   18.0500 C   0  0  0  0  0  3  0  0  0  0  0  0
   19.4910   77.6120   19.3810 O   0  0  0  0  0  0  0  0  0  0  0  0
   19.0180   77.1020   18.6410 H   0  0  0  0  0  0  0  0  0  0  0  0
   18.5960   82.1690   20.6750 O   0  0  0  0  0  0  0  0  0  0  0  0
   18.2340   83.0530   20.3520 H   0  0  0  0  0  0  0  0  0  0  0  0
   18.5770   73.5640   13.0950 N   0  0  0  0  0  0  0  0  0  0  0  0
   17.1630   73.4610   12.8670 C   0  0  0  0  0  2  0  0  0  0  0  0
   16.6350   72.1130   12.5640 C   0  0  0  0  0  2  0  0  0  0  0  0
   17.4910   71.0710   12.8920 O   0  0  0  0  0  0  0  0  0  0  0  0
   18.7790   71.2830   12.4190 C   0  0  0  0  0  2  0  0  0  0  0  0
   19.3740   72.3850   13.2610 C   0  0  0  0  0  2  0  0  0  0  0  0
   19.8030   77.7790   11.0570 N   0  0  0  0  0  0  0  0  0  0  0  0
   20.3850   79.0940   11.1300 C   0  0  0  0  0  2  0  0  0  0  0  0
   21.3370   79.1840    9.9290 C   0  0  0  0  0  2  0  0  0  0  0  0
   20.6440   78.8550    8.7820 O   0  0  0  0  0  0  0  0  0  0  0  0
   20.3300   77.4970    8.7720 C   0  0  0  0  0  2  0  0  0  0  0  0
   19.2000   77.3610    9.8160 C   0  0  0  0  0  2  0  0  0  0  0  0
  1  7  1  0  0  0  0
  2  1  2  0  0  0  0
  3  2  2  0  0  0  0
  4  5  2  0  0  0  0
  4  3  1  0  0  0  0
  5  6  1  0  0  0  0
  6  1  1  0  0  0  0
  7  8  1  0  0  0  0
  7  9  1  0  0  0  0
  9 10  2  0  0  0  0
 10 11  1  0  0  0  0
 11 12  1  0  0  0  0
 12 18  1  0  0  0  0
 12 13  2  0  0  0  0
 14 13  1  0  0  0  0
 14 20  1  0  0  0  0
 15 14  2  0  0  0  0
 16 15  1  0  0  0  0
 17 11  2  0  0  0  0
 17 15  1  0  0  0  0
 19 18  1  0  0  0  0
 21 20  1  0  0  0  0
 22  3  1  0  0  0  0
 22 27  1  0  0  0  0
 23 22  1  0  0  0  0
 24 23  1  0  0  0  0
 24 25  1  0  0  0  0
 26 25  1  0  0  0  0
 26 27  1  0  0  0  0
 28 29  1  0  0  0  0
 28  5  1  0  0  0  0
 30 29  1  0  0  0  0
 31 30  1  0  0  0  0
 32 31  1  0  0  0  0
 32 33  1  0  0  0  0
 33 28  1  0  0  0  0
M  END
>  <Pose>
1

>  <Score>
-10.227

$$$$
