/Users/jonathanwahrer/Desktop/Msc/3_Semester/Drug_Design_Praktikum/waehrer_HTS_screening/HTS_experiment/out/docking_results/vina_output/6e43/2121_docked.pdbqt
 OpenBabel03212221003D

 31 34  0  0  1  0  0  0  0  0999 V2000
   22.7850   79.8060   15.2110 C   0  0  0  0  0  0  0  0  0  0  0  0
   23.0620   81.0220   15.7010 O   0  0  0  0  0  0  0  0  0  0  0  0
   22.9390   78.7990   16.1390 N   0  0  0  0  0  0  0  0  0  0  0  0
   23.3360   79.3410   17.4690 C   0  0  0  0  0  2  0  0  0  0  0  0
   22.0850   79.6450   18.2710 C   0  0  0  0  0  2  0  0  0  0  0  0
   20.9780   78.8380   17.7090 C   0  0  1  0  0  3  0  0  0  0  0  0
   21.2830   77.3770   17.7770 C   0  0  2  0  0  3  0  0  0  0  0  0
   21.3840   76.8970   16.3190 C   0  0  0  0  0  2  0  0  0  0  0  0
   22.7590   77.4160   15.8590 C   0  0  0  0  0  2  0  0  0  0  0  0
   22.3900   79.8340   13.8300 C   0  0  0  0  0  0  0  0  0  0  0  0
   22.6610   80.7180   12.8670 N   0  0  0  0  0  0  0  0  0  0  0  0
   22.0450   80.3680   11.6960 C   0  0  0  0  0  0  0  0  0  0  0  0
   23.2530   81.5570   12.9160 H   0  0  0  0  0  0  0  0  0  0  0  0
   21.3650   79.2250   11.9320 C   0  0  0  0  0  0  0  0  0  0  0  0
   22.0080   80.9380   10.4530 C   0  0  0  0  0  3  0  0  0  0  0  0
   20.6090   78.5850   10.9430 C   0  0  0  0  0  3  0  0  0  0  0  0
   21.5630   78.8710   13.2520 C   0  0  0  0  0  3  0  0  0  0  0  0
   20.5830   79.1620    9.7150 C   0  0  0  0  0  0  0  0  0  0  0  0
   19.6380   78.3850    8.4410 Cl  0  0  0  0  0  0  0  0  0  0  0  0
   21.2690   80.3300    9.4490 C   0  0  0  0  0  3  0  0  0  0  0  0
   19.6530   79.0910   18.1800 N   0  0  0  0  0  0  0  0  0  0  0  0
   18.9400   80.1210   17.4660 C   0  0  0  0  0  2  0  0  0  0  0  0
   19.5790   81.4480   17.6230 C   0  0  0  0  0  2  0  0  0  0  0  0
   19.6690   81.7010   19.0660 N   0  0  0  0  0  0  0  0  0  0  0  0
   19.1180   80.6780   19.9160 C   0  0  0  0  0  2  0  0  0  0  0  0
   20.2560   82.9110   19.5430 C   0  0  0  0  0  0  0  0  0  0  0  0
   19.5720   79.2830   19.6020 C   0  0  0  0  0  2  0  0  0  0  0  0
   20.3390   83.1090   20.7630 O   0  0  0  0  0  0  0  0  0  0  0  0
   20.7530   83.9060   18.5410 C   0  0  0  0  0  1  0  0  0  0  0  0
   20.3440   76.6340   18.4880 O   0  0  0  0  0  0  0  0  0  0  0  0
   20.0620   75.8870   17.8660 H   0  0  0  0  0  0  0  0  0  0  0  0
  1  2  2  0  0  0  0
  1  3  1  0  0  0  0
  3  4  1  0  0  0  0
  4  5  1  0  0  0  0
  6  7  1  0  0  0  0
  6 21  1  1  0  0  0
  6  5  1  0  0  0  0
  7 30  1  6  0  0  0
  8  7  1  0  0  0  0
  9  3  1  0  0  0  0
  9  8  1  0  0  0  0
 10  1  1  0  0  0  0
 11 13  1  0  0  0  0
 11 10  1  0  0  0  0
 12 14  1  0  0  0  0
 12 11  1  0  0  0  0
 14 17  1  0  0  0  0
 15 12  2  0  0  0  0
 16 14  2  0  0  0  0
 17 10  2  0  0  0  0
 18 16  1  0  0  0  0
 19 18  1  0  0  0  0
 20 18  2  0  0  0  0
 20 15  1  0  0  0  0
 21 27  1  0  0  0  0
 22 23  1  0  0  0  0
 22 21  1  0  0  0  0
 23 24  1  0  0  0  0
 24 26  1  0  0  0  0
 24 25  1  0  0  0  0
 26 28  2  0  0  0  0
 27 25  1  0  0  0  0
 29 26  1  0  0  0  0
 31 30  1  0  0  0  0
M  END
>  <Pose>
1

>  <Score>
-10.249

$$$$
