/Users/jonathanwahrer/Desktop/Msc/3_Semester/Drug_Design_Praktikum/waehrer_HTS_screening/HTS_experiment/out/docking_results/vina_output/6e43/2124_docked.pdbqt
 OpenBabel03212221003D

 25 29  0  0  1  0  0  0  0  0999 V2000
   19.9980   80.9330   18.9790 N   0  0  0  0  0  0  0  0  0  0  0  0
   20.5220   81.2220   17.6910 C   0  0  0  0  0  0  0  0  0  0  0  0
   21.1300   82.2780   17.3730 O   0  0  0  0  0  0  0  0  0  0  0  0
   20.2500   80.0870   16.7470 C   0  0  1  0  0  3  0  0  0  0  0  0
   21.5160   79.5650   16.1540 C   0  0  2  0  0  0  0  0  0  0  0  0
   21.4600   78.1650   16.3660 O   0  0  0  0  0  0  0  0  0  0  0  0
   21.2230   78.2290   17.7630 C   0  0  2  0  0  0  0  0  0  0  0  0
   19.8840   78.9590   17.7230 C   0  0  1  0  0  3  0  0  0  0  0  0
   19.5210   79.5940   18.9810 C   0  0  0  0  0  0  0  0  0  0  0  0
   18.8870   79.0250   19.9060 O   0  0  0  0  0  0  0  0  0  0  0  0
   22.3320   79.1180   18.1830 C   0  0  0  0  0  2  0  0  0  0  0  0
   22.6160   79.8940   17.1160 C   0  0  0  0  0  2  0  0  0  0  0  0
   21.1830   76.9170   18.4290 C   0  0  0  0  0  1  0  0  0  0  0  0
   19.9140   81.7680   20.1370 C   0  0  0  0  0  0  0  0  0  0  0  0
   20.8580   81.7690   21.1350 C   0  0  0  0  0  3  0  0  0  0  0  0
   20.7650   82.5790   22.2530 C   0  0  0  0  0  3  0  0  0  0  0  0
   19.6940   83.4280   22.4000 C   0  0  0  0  0  0  0  0  0  0  0  0
   19.5320   84.4760   23.8120 Cl  0  0  0  0  0  0  0  0  0  0  0  0
   18.7390   83.4360   21.4080 C   0  0  0  0  0  3  0  0  0  0  0  0
   18.8350   82.6200   20.2830 C   0  0  0  0  0  3  0  0  0  0  0  0
   21.8020   79.9290   14.7600 C   0  0  0  0  0  3  0  0  0  0  0  0
   23.0960   80.4510   14.6950 O   0  0  0  0  0  0  0  0  0  0  0  0
   23.9690   79.4090   14.5050 C   0  0  0  0  0  2  0  0  0  0  0  0
   23.1180   78.3870   13.7990 C   0  0  0  0  0  2  0  0  0  0  0  0
   21.8090   78.7800   13.9690 O   0  0  0  0  0  0  0  0  0  0  0  0
  1  9  1  0  0  0  0
  1 14  1  0  0  0  0
  2  1  1  0  0  0  0
  3  2  2  0  0  0  0
  4  2  1  1  0  0  0
  4  8  1  0  0  0  0
  5 21  1  6  0  0  0
  5  6  1  0  0  0  0
  5  4  1  0  0  0  0
  5 12  1  0  0  0  0
  6  7  1  0  0  0  0
  7 11  1  0  0  0  0
  7 13  1  1  0  0  0
  8  7  1  0  0  0  0
  8  9  1  1  0  0  0
  9 10  2  0  0  0  0
 12 11  1  0  0  0  0
 14 20  2  0  0  0  0
 14 15  1  0  0  0  0
 15 16  2  0  0  0  0
 16 17  1  0  0  0  0
 17 18  1  0  0  0  0
 19 17  2  0  0  0  0
 20 19  1  0  0  0  0
 22 21  1  0  0  0  0
 23 22  1  0  0  0  0
 24 25  1  0  0  0  0
 24 23  1  0  0  0  0
 25 21  1  0  0  0  0
M  END
>  <Pose>
1

>  <Score>
-9.636

$$$$
