/Users/jonathanwahrer/Desktop/Msc/3_Semester/Drug_Design_Praktikum/waehrer_HTS_screening/HTS_experiment/out/docking_results/vina_output/6e43/2134_docked.pdbqt
 OpenBabel03212221013D

 36 39  0  0  0  0  0  0  0  0999 V2000
   20.3170   76.5300   14.4360 C   0  0  0  0  0  0  0  0  0  0  0  0
   19.7720   75.3380   14.4870 N   0  0  0  0  0  0  0  0  0  0  0  0
   19.3380   74.9050   13.2600 N   0  0  0  0  0  0  0  0  0  0  0  0
   19.6540   75.9540   12.3430 C   0  0  0  0  0  0  0  0  0  0  0  0
   19.4780   76.0910   11.0630 N   0  0  0  0  0  0  0  0  0  0  0  0
   19.8900   77.2600   10.3700 N   0  0  0  0  0  0  0  0  0  0  0  0
   20.5110   78.3360   11.0300 C   0  0  0  0  0  0  0  0  0  0  0  0
   20.8930   79.4380   10.3980 C   0  0  0  0  0  2  0  0  0  0  0  0
   20.7200   78.2020   12.4670 C   0  0  0  0  0  0  0  0  0  0  0  0
   21.2650   79.1340   13.0660 O   0  0  0  0  0  0  0  0  0  0  0  0
   20.2800   76.9950   13.0920 N   0  0  0  0  0  0  0  0  0  0  0  0
   19.7010   77.2670    9.3430 H   0  0  0  0  0  0  0  0  0  0  0  0
   20.8610   77.2360   15.5790 C   0  0  0  0  0  0  0  0  0  0  0  0
   19.9860   77.9230   16.4530 N   0  0  0  0  0  0  0  0  0  0  0  0
   18.9620   77.9250   16.3310 H   0  0  0  0  0  0  0  0  0  0  0  0
   22.1120   77.2560   15.8100 O   0  0  0  0  0  0  0  0  0  0  0  0
   20.5300   78.6170   17.5280 N   0  0  0  0  0  0  0  0  0  0  0  0
   20.1520   79.8930   17.9880 C   0  0  0  0  0  0  0  0  0  0  0  0
   20.7460   80.5400   19.0870 N   0  0  0  0  0  0  0  0  0  0  0  0
   19.2240   80.4980   17.3860 O   0  0  0  0  0  0  0  0  0  0  0  0
   21.5270   80.0650   19.6040 H   0  0  0  0  0  0  0  0  0  0  0  0
   21.3230   78.0920   18.0220 H   0  0  0  0  0  0  0  0  0  0  0  0
   20.3790   81.8190   19.5910 C   0  0  0  0  0  0  0  0  0  0  0  0
   20.0400   81.9860   20.9320 C   0  0  0  0  0  3  0  0  0  0  0  0
   19.6810   83.2120   21.4470 C   0  0  0  0  0  3  0  0  0  0  0  0
   19.6700   84.2740   20.5800 C   0  0  0  0  0  0  0  0  0  0  0  0
   19.2300   85.8910   21.1430 Cl  0  0  0  0  0  0  0  0  0  0  0  0
   19.9970   84.1550   19.2550 C   0  0  0  0  0  3  0  0  0  0  0  0
   20.3530   82.9250   18.7530 C   0  0  0  0  0  3  0  0  0  0  0  0
   18.6620   73.6810   12.9860 C   0  0  0  0  0  0  0  0  0  0  0  0
   17.2980   73.6330   12.8360 C   0  0  0  0  0  3  0  0  0  0  0  0
   16.5960   72.4760   12.5280 C   0  0  0  0  0  3  0  0  0  0  0  0
   17.2730   71.2860   12.3560 C   0  0  0  0  0  0  0  0  0  0  0  0
   18.6440   71.3080   12.5060 C   0  0  0  0  0  3  0  0  0  0  0  0
   16.5610   70.0250   11.9870 C   0  0  0  0  0  1  0  0  0  0  0  0
   19.3230   72.4850   12.8160 C   0  0  0  0  0  3  0  0  0  0  0  0
  1  2  2  0  0  0  0
  1 13  1  0  0  0  0
  3  2  1  0  0  0  0
  4 11  1  0  0  0  0
  4  3  1  0  0  0  0
  5  4  2  0  0  0  0
  6  7  1  0  0  0  0
  6  5  1  0  0  0  0
  7  9  1  0  0  0  0
  8  7  2  0  0  0  0
  9 10  2  0  0  0  0
  9 11  1  0  0  0  0
 11  1  1  0  0  0  0
 12  6  1  0  0  0  0
 13 16  2  0  0  0  0
 13 14  1  0  0  0  0
 14 17  1  0  0  0  0
 15 14  1  0  0  0  0
 17 18  1  0  0  0  0
 17 22  1  0  0  0  0
 18 19  1  0  0  0  0
 19 23  1  0  0  0  0
 19 21  1  0  0  0  0
 20 18  2  0  0  0  0
 23 24  1  0  0  0  0
 24 25  2  0  0  0  0
 26 27  1  0  0  0  0
 26 25  1  0  0  0  0
 28 26  2  0  0  0  0
 29 28  1  0  0  0  0
 29 23  2  0  0  0  0
 30  3  1  0  0  0  0
 31 30  1  0  0  0  0
 32 31  2  0  0  0  0
 33 34  2  0  0  0  0
 33 32  1  0  0  0  0
 34 36  1  0  0  0  0
 35 33  1  0  0  0  0
 36 30  2  0  0  0  0
M  END
>  <Pose>
1

>  <Score>
-12.116

$$$$
