/Users/jonathanwahrer/Desktop/Msc/3_Semester/Drug_Design_Praktikum/waehrer_HTS_screening/HTS_experiment/out/docking_results/vina_output/6e43/2139_docked.pdbqt
 OpenBabel03212221013D

 27 30  0  0  0  0  0  0  0  0999 V2000
   20.8430   79.5610   18.5030 N   0  0  0  0  0  0  0  0  0  0  0  0
   19.8610   78.6070   18.8310 C   0  0  0  0  0  2  0  0  0  0  0  0
   19.6100   77.5260   17.8150 C   0  0  0  0  0  2  0  0  0  0  0  0
   20.8420   77.4480   16.9880 N   0  0  0  0  0  0  0  0  0  0  0  0
   22.0360   77.6060   17.7290 C   0  0  0  0  0  2  0  0  0  0  0  0
   22.1360   79.0620   18.1280 C   0  0  0  0  0  2  0  0  0  0  0  0
   20.6630   77.2010   15.6110 C   0  0  0  0  0  0  0  0  0  0  0  0
   19.9720   76.0890   15.2180 N   0  0  0  0  0  0  0  0  0  0  0  0
   19.7650   75.7240   13.9590 C   0  0  0  0  0  0  0  0  0  0  0  0
   20.2640   76.4950   12.9790 N   0  0  0  0  0  0  0  0  0  0  0  0
   20.9550   77.6090   13.3060 C   0  0  0  0  0  0  0  0  0  0  0  0
   21.5470   78.5580   12.5570 N   0  0  0  0  0  0  0  0  0  0  0  0
   21.1770   77.9980   14.6280 C   0  0  0  0  0  0  0  0  0  0  0  0
   22.0960   79.4720   13.3590 C   0  0  0  0  0  3  0  0  0  0  0  0
   21.8770   79.1440   14.6440 N   0  0  0  0  0  0  0  0  0  0  0  0
   22.2010   79.7120   15.4560 H   0  0  0  0  0  0  0  0  0  0  0  0
   19.0240   74.5340   13.6150 N   0  0  0  0  0  0  0  0  0  0  0  0
   18.9450   73.7340   14.2580 H   0  0  0  0  0  0  0  0  0  0  0  0
   18.5510   74.4710   12.6920 H   0  0  0  0  0  0  0  0  0  0  0  0
   20.4260   80.7510   17.8670 C   0  0  0  0  0  2  0  0  0  0  0  0
   20.0930   81.8730   18.7420 C   0  0  0  0  0  0  0  0  0  0  0  0
   20.3620   83.1640   18.3620 C   0  0  0  0  0  3  0  0  0  0  0  0
   20.0710   84.2740   19.1460 C   0  0  0  0  0  3  0  0  0  0  0  0
   19.4800   84.0410   20.3700 C   0  0  0  0  0  0  0  0  0  0  0  0
   19.0840   85.3910   21.4140 Cl  0  0  0  0  0  0  0  0  0  0  0  0
   19.2100   82.7480   20.7550 C   0  0  0  0  0  3  0  0  0  0  0  0
   19.5050   81.6630   19.9640 C   0  0  0  0  0  3  0  0  0  0  0  0
  1  2  1  0  0  0  0
  3  2  1  0  0  0  0
  4  5  1  0  0  0  0
  4  3  1  0  0  0  0
  5  6  1  0  0  0  0
  6  1  1  0  0  0  0
  7  4  1  0  0  0  0
  8  7  1  0  0  0  0
  9  8  2  0  0  0  0
 10 11  2  0  0  0  0
 10  9  1  0  0  0  0
 11 13  1  0  0  0  0
 12 11  1  0  0  0  0
 12 14  2  0  0  0  0
 13 15  1  0  0  0  0
 13  7  2  0  0  0  0
 14 15  1  0  0  0  0
 15 16  1  0  0  0  0
 17  9  1  0  0  0  0
 17 18  1  0  0  0  0
 19 17  1  0  0  0  0
 20  1  1  0  0  0  0
 20 21  1  0  0  0  0
 21 27  1  0  0  0  0
 22 21  2  0  0  0  0
 22 23  1  0  0  0  0
 23 24  2  0  0  0  0
 24 26  1  0  0  0  0
 24 25  1  0  0  0  0
 27 26  2  0  0  0  0
M  END
>  <Pose>
1

>  <Score>
-9.324

$$$$
