/Users/jonathanwahrer/Desktop/Msc/3_Semester/Drug_Design_Praktikum/waehrer_HTS_screening/HTS_experiment/out/docking_results/vina_output/6e43/2163_docked.pdbqt
 OpenBabel03212221013D

 31 34  0  0  0  0  0  0  0  0999 V2000
   19.8330   76.8350   11.7020 C   0  0  0  0  0  0  0  0  0  0  0  0
   19.3790   75.7410   12.3510 N   0  0  0  0  0  4  0  0  0  0  0  0
   18.8820   74.6890   11.6910 C   0  0  0  0  0  0  0  0  0  0  0  0
   18.8400   74.7370   10.3500 N   0  0  0  0  0  0  0  0  0  0  0  0
   19.2800   75.8050    9.6320 C   0  0  0  0  0  0  0  0  0  0  0  0
   19.7710   76.8380   10.3700 N   0  0  0  0  0  2  0  0  0  0  0  0
   20.3670   77.9700   12.3720 N   0  0  0  0  0  0  0  0  0  0  0  0
   20.1840   78.9470   12.0160 H   0  0  0  0  0  0  0  0  0  0  0  0
   21.1530   77.8670   13.5210 N   0  0  0  0  0  0  0  0  0  0  0  0
   21.5380   78.8710   14.2160 C   0  0  0  0  0  3  0  0  0  0  0  0
   22.3600   78.7440   15.4140 C   0  0  0  0  0  0  0  0  0  0  0  0
   23.7210   78.9280   15.3760 C   0  0  0  0  0  3  0  0  0  0  0  0
   24.4870   78.8060   16.5140 C   0  0  0  0  0  0  0  0  0  0  0  0
   26.3750   79.0600   16.4600 Br  0  0  0  0  0  0  0  0  0  0  0  0
   23.9180   78.4930   17.7420 C   0  0  0  0  0  3  0  0  0  0  0  0
   22.5460   78.3070   17.7870 C   0  0  0  0  0  3  0  0  0  0  0  0
   21.7810   78.4340   16.6250 C   0  0  0  0  0  0  0  0  0  0  0  0
   20.4030   78.2540   16.6360 O   0  0  0  0  0  0  0  0  0  0  0  0
   19.7760   77.0110   16.8530 C   0  0  0  0  0  1  0  0  0  0  0  0
   18.4040   73.5380   12.3740 N   0  0  0  0  0  0  0  0  0  0  0  0
   19.2510   72.4040   12.6680 C   0  0  0  0  0  2  0  0  0  0  0  0
   18.5240   71.0920   12.4140 C   0  0  0  0  0  2  0  0  0  0  0  0
   17.2300   71.1370   12.9450 O   0  0  0  0  0  0  0  0  0  0  0  0
   16.4750   72.1270   12.3630 C   0  0  0  0  0  2  0  0  0  0  0  0
   17.0250   73.4660   12.8040 C   0  0  0  0  0  2  0  0  0  0  0  0
   19.2330   75.8490    8.2270 N   0  0  0  0  0  0  0  0  0  0  0  0
   18.8340   77.0360    7.5310 C   0  0  0  0  0  2  0  0  0  0  0  0
   17.7140   76.6360    6.5730 C   0  0  0  0  0  2  0  0  0  0  0  0
   18.2100   75.6230    5.7710 O   0  0  0  0  0  0  0  0  0  0  0  0
   18.4530   74.4590    6.4620 C   0  0  0  0  0  2  0  0  0  0  0  0
   19.5860   74.6900    7.4620 C   0  0  0  0  0  2  0  0  0  0  0  0
  1  2  2  0  0  0  0
  1  7  1  0  0  0  0
  3  2  2  0  0  0  0
  3 20  1  0  0  0  0
  4  3  1  0  0  0  0
  5  4  2  0  0  0  0
  5  6  1  0  0  0  0
  6  1  1  0  0  0  0
  7  9  1  0  0  0  0
  8  7  1  0  0  0  0
  9 10  2  0  0  0  0
 10 11  1  0  0  0  0
 11 17  1  0  0  0  0
 12 11  2  0  0  0  0
 12 13  1  0  0  0  0
 13 15  2  0  0  0  0
 14 13  1  0  0  0  0
 15 16  1  0  0  0  0
 17 18  1  0  0  0  0
 17 16  2  0  0  0  0
 18 19  1  0  0  0  0
 20 21  1  0  0  0  0
 20 25  1  0  0  0  0
 22 21  1  0  0  0  0
 22 23  1  0  0  0  0
 24 25  1  0  0  0  0
 24 23  1  0  0  0  0
 26  5  1  0  0  0  0
 27 26  1  0  0  0  0
 28 27  1  0  0  0  0
 29 30  1  0  0  0  0
 29 28  1  0  0  0  0
 30 31  1  0  0  0  0
 31 26  1  0  0  0  0
M  END
>  <Pose>
1

>  <Score>
-9.647

$$$$
