/Users/jonathanwahrer/Desktop/Msc/3_Semester/Drug_Design_Praktikum/waehrer_HTS_screening/HTS_experiment/out/docking_results/vina_output/6e43/2164_docked.pdbqt
 OpenBabel03212221013D

 25 28  0  0  1  0  0  0  0  0999 V2000
   19.7980   78.0550   19.3980 C   0  0  2  0  0  3  0  0  0  0  0  0
   21.1420   77.8830   18.7410 C   0  0  0  0  0  2  0  0  0  0  0  0
   20.5130   77.7700   17.4160 N   0  0  0  0  0  0  0  0  0  0  0  0
   19.2760   77.4760   18.1150 C   0  0  0  0  0  2  0  0  0  0  0  0
   19.4150   79.4900   19.6360 C   0  0  0  0  0  0  0  0  0  0  0  0
   20.3650   80.4980   19.4060 N   0  0  0  0  0  0  0  0  0  0  0  0
   21.3530   80.2100   19.0600 H   0  0  0  0  0  0  0  0  0  0  0  0
   18.2530   79.6660   20.0310 O   0  0  0  0  0  0  0  0  0  0  0  0
   20.1490   81.8770   19.5870 C   0  0  0  0  0  0  0  0  0  0  0  0
   19.7170   82.3430   20.8380 C   0  0  0  0  0  3  0  0  0  0  0  0
   19.4830   83.6720   21.1000 C   0  0  0  0  0  0  0  0  0  0  0  0
   18.8970   84.2600   22.8150 Br  0  0  0  0  0  0  0  0  0  0  0  0
   19.6700   84.5980   20.1170 C   0  0  0  0  0  3  0  0  0  0  0  0
   20.0880   84.1750   18.8960 C   0  0  0  0  0  3  0  0  0  0  0  0
   20.3300   82.8270   18.6200 C   0  0  0  0  0  3  0  0  0  0  0  0
   20.9930   77.9060   16.0850 C   0  0  0  0  0  0  0  0  0  0  0  0
   20.8770   76.9090   15.1690 N   0  0  0  0  0  0  0  0  0  0  0  0
   21.3460   77.0660   13.8970 C   0  0  0  0  0  3  0  0  0  0  0  0
   21.9340   78.2020   13.5100 N   0  0  0  0  0  0  0  0  0  0  0  0
   22.0810   79.2220   14.3570 C   0  0  0  0  0  0  0  0  0  0  0  0
   22.6280   80.4460   14.2150 N   0  0  0  0  0  0  0  0  0  0  0  0
   21.6070   79.0620   15.6430 C   0  0  0  0  0  0  0  0  0  0  0  0
   22.5040   81.0450   15.3790 N   0  0  0  0  0  0  0  0  0  0  0  0
   23.2440   81.0250   13.0240 C   0  0  0  0  0  1  0  0  0  0  0  0
   21.8950   80.2400   16.2580 N   0  0  0  0  0  0  0  0  0  0  0  0
  1  5  1  6  0  0  0
  2  1  1  0  0  0  0
  3  4  1  0  0  0  0
  3  2  1  0  0  0  0
  4  1  1  0  0  0  0
  5  8  2  0  0  0  0
  6  9  1  0  0  0  0
  6  5  1  0  0  0  0
  7  6  1  0  0  0  0
  9 10  1  0  0  0  0
 10 11  2  0  0  0  0
 11 12  1  0  0  0  0
 13 11  1  0  0  0  0
 14 13  2  0  0  0  0
 15 14  1  0  0  0  0
 15  9  2  0  0  0  0
 16  3  1  0  0  0  0
 17 16  2  0  0  0  0
 18 17  1  0  0  0  0
 19 18  2  0  0  0  0
 19 20  1  0  0  0  0
 20 22  2  0  0  0  0
 21 20  1  0  0  0  0
 21 23  1  0  0  0  0
 22 16  1  0  0  0  0
 22 25  1  0  0  0  0
 23 25  2  0  0  0  0
 24 21  1  0  0  0  0
M  END
>  <Pose>
1

>  <Score>
-9.564

$$$$
