/Users/jonathanwahrer/Desktop/Msc/3_Semester/Drug_Design_Praktikum/waehrer_HTS_screening/HTS_experiment/out/docking_results/vina_output/6e43/2170_docked.pdbqt
 OpenBabel03212221023D

 32 36  0  0  0  0  0  0  0  0999 V2000
   20.1540   76.9080   13.7400 N   0  0  0  0  0  0  0  0  0  0  0  0
   20.5780   77.4500   12.6180 N   0  0  0  0  0  0  0  0  0  0  0  0
   21.4990   78.3990   12.8410 C   0  0  0  0  0  0  0  0  0  0  0  0
   21.9180   78.9400   11.6860 N   0  0  0  0  0  0  0  0  0  0  0  0
   21.2650   78.3470   10.6630 C   0  0  0  0  0  0  0  0  0  0  0  0
   20.4220   77.4080   11.2680 C   0  0  0  0  0  0  0  0  0  0  0  0
   19.6410   76.6780   10.3980 C   0  0  0  0  0  0  0  0  0  0  0  0
   18.8580   75.8160   10.9000 O   0  0  0  0  0  0  0  0  0  0  0  0
   19.6680   76.8340    9.0470 N   0  0  0  0  0  0  0  0  0  0  0  0
   20.5050   77.7540    8.5460 C   0  0  0  0  0  0  0  0  0  0  0  0
   20.5150   77.8860    7.2780 O   0  0  0  0  0  0  0  0  0  0  0  0
   21.2930   78.5040    9.3290 N   0  0  0  0  0  0  0  0  0  0  0  0
   22.1680   79.4750    8.7290 C   0  0  0  0  0  1  0  0  0  0  0  0
   18.8170   76.0260    8.2040 C   0  0  0  0  0  1  0  0  0  0  0  0
   21.6460   78.4390   14.1900 N   0  0  0  0  0  0  0  0  0  0  0  0
   20.8300   77.5360   14.7500 C   0  0  0  0  0  0  0  0  0  0  0  0
   19.1770   75.8670   13.9620 C   0  0  0  0  0  2  0  0  0  0  0  0
   19.7340   74.5060   13.8830 C   0  0  0  0  0  0  0  0  0  0  0  0
   20.8940   74.2270   14.2580 O   0  0  0  0  0  0  0  0  0  0  0  0
   18.8870   73.4500   13.3420 C   0  0  0  0  0  0  0  0  0  0  0  0
   17.5330   73.6200   13.1440 C   0  0  0  0  0  3  0  0  0  0  0  0
   16.7340   72.6170   12.6300 C   0  0  0  0  0  3  0  0  0  0  0  0
   17.2770   71.3850   12.2910 C   0  0  0  0  0  0  0  0  0  0  0  0
   16.2840   70.0940   11.6360 Cl  0  0  0  0  0  0  0  0  0  0  0  0
   18.6300   71.1960   12.4830 C   0  0  0  0  0  3  0  0  0  0  0  0
   19.4200   72.2030   12.9970 C   0  0  0  0  0  3  0  0  0  0  0  0
   20.6570   77.2390   16.1320 N   0  0  0  0  0  0  0  0  0  0  0  0
   19.3420   77.0060   16.7060 C   0  0  0  0  0  2  0  0  0  0  0  0
   19.3160   77.6500   18.0700 C   0  0  0  0  0  2  0  0  0  0  0  0
   20.3690   77.1550   18.8550 O   0  0  0  0  0  0  0  0  0  0  0  0
   21.5950   77.5850   18.3970 C   0  0  0  0  0  2  0  0  0  0  0  0
   21.8120   77.1620   16.9870 C   0  0  0  0  0  2  0  0  0  0  0  0
  1 17  1  0  0  0  0
  1 16  1  0  0  0  0
  2  3  1  0  0  0  0
  2  1  1  0  0  0  0
  3 15  1  0  0  0  0
  4  3  2  0  0  0  0
  5  6  2  0  0  0  0
  5  4  1  0  0  0  0
  6  2  1  0  0  0  0
  7  8  2  0  0  0  0
  7  6  1  0  0  0  0
  9  7  1  0  0  0  0
 10  9  1  0  0  0  0
 10 12  1  0  0  0  0
 11 10  2  0  0  0  0
 12  5  1  0  0  0  0
 13 12  1  0  0  0  0
 14  9  1  0  0  0  0
 15 16  2  0  0  0  0
 16 27  1  0  0  0  0
 18 17  1  0  0  0  0
 18 19  2  0  0  0  0
 20 18  1  0  0  0  0
 21 20  1  0  0  0  0
 22 21  2  0  0  0  0
 23 25  2  0  0  0  0
 23 22  1  0  0  0  0
 24 23  1  0  0  0  0
 25 26  1  0  0  0  0
 26 20  2  0  0  0  0
 27 28  1  0  0  0  0
 27 32  1  0  0  0  0
 28 29  1  0  0  0  0
 29 30  1  0  0  0  0
 31 30  1  0  0  0  0
 32 31  1  0  0  0  0
M  END
>  <Pose>
1

>  <Score>
-10.399

$$$$
