/Users/jonathanwahrer/Desktop/Msc/3_Semester/Drug_Design_Praktikum/waehrer_HTS_screening/HTS_experiment/out/docking_results/vina_output/6e43/2177_docked.pdbqt
 OpenBabel03212221023D

 31 35  0  0  0  0  0  0  0  0999 V2000
   21.0290   78.7190   10.8510 N   0  0  0  0  0  0  0  0  0  0  0  0
   20.0140   77.7690   11.2380 C   0  0  0  0  0  2  0  0  0  0  0  0
   19.0420   77.6280   10.0950 C   0  0  0  0  0  2  0  0  0  0  0  0
   19.6890   77.5040    8.8040 N   0  0  0  0  0  0  0  0  0  0  0  0
   20.7330   78.4470    8.4540 C   0  0  0  0  0  2  0  0  0  0  0  0
   21.7140   78.5170    9.5950 C   0  0  0  0  0  2  0  0  0  0  0  0
   21.3010   79.7980   11.7360 C   0  0  0  0  0  3  0  0  0  0  0  0
   22.1010   79.7370   12.7750 C   0  0  0  0  0  0  0  0  0  0  0  0
   22.8020   78.5520   13.1390 N   0  0  0  0  0  0  0  0  0  0  0  0
   22.2910   80.8870   13.5850 N   0  0  0  0  0  0  0  0  0  0  0  0
   23.6740   78.4510   14.2550 C   0  0  0  0  0  0  0  0  0  0  0  0
   22.6530   77.7170   12.5350 H   0  0  0  0  0  0  0  0  0  0  0  0
   23.8630   79.5650   15.0480 C   0  0  0  0  0  0  0  0  0  0  0  0
   24.3540   77.3060   14.6110 C   0  0  0  0  0  3  0  0  0  0  0  0
   24.6950   79.5270   16.1410 C   0  0  0  0  0  3  0  0  0  0  0  0
   23.1510   80.8090   14.6970 C   0  0  0  0  0  0  0  0  0  0  0  0
   25.3670   78.3740   16.4810 C   0  0  0  0  0  0  0  0  0  0  0  0
   26.4270   78.3670   17.8940 Cl  0  0  0  0  0  0  0  0  0  0  0  0
   25.1900   77.2520   15.7020 C   0  0  0  0  0  3  0  0  0  0  0  0
   23.3680   81.8000   15.4680 O   0  0  0  0  0  0  0  0  0  0  0  0
   21.8110   81.7940   13.3830 H   0  0  0  0  0  0  0  0  0  0  0  0
   19.2940   76.4670    7.9040 C   0  0  0  0  0  0  0  0  0  0  0  0
   19.9620   75.2970    7.9270 N   0  0  0  0  0  0  0  0  0  0  0  0
   19.6180   74.2810    7.0870 C   0  0  0  0  0  3  0  0  0  0  0  0
   18.5990   74.4260    6.2100 N   0  0  0  0  0  0  0  0  0  0  0  0
   17.8990   75.5630    6.1410 C   0  0  0  0  0  0  0  0  0  0  0  0
   16.8640   75.9670    5.3820 N   0  0  0  0  0  0  0  0  0  0  0  0
   18.2640   76.5930    7.0090 C   0  0  0  0  0  0  0  0  0  0  0  0
   16.5700   77.2040    5.7420 N   0  0  0  0  0  0  0  0  0  0  0  0
   16.1690   75.2020    4.3420 C   0  0  0  0  0  1  0  0  0  0  0  0
   17.4090   77.6140    6.7350 C   0  0  0  0  0  3  0  0  0  0  0  0
  1  2  1  0  0  0  0
  1  7  1  0  0  0  0
  3  2  1  0  0  0  0
  4  3  1  0  0  0  0
  5  4  1  0  0  0  0
  5  6  1  0  0  0  0
  6  1  1  0  0  0  0
  7  8  2  0  0  0  0
  8  9  1  0  0  0  0
  8 10  1  0  0  0  0
  9 11  1  0  0  0  0
 10 16  1  0  0  0  0
 11 14  2  0  0  0  0
 11 13  1  0  0  0  0
 12  9  1  0  0  0  0
 13 15  2  0  0  0  0
 14 19  1  0  0  0  0
 15 17  1  0  0  0  0
 16 13  1  0  0  0  0
 16 20  2  0  0  0  0
 17 18  1  0  0  0  0
 19 17  2  0  0  0  0
 21 10  1  0  0  0  0
 22 23  1  0  0  0  0
 22  4  1  0  0  0  0
 24 23  2  0  0  0  0
 25 24  1  0  0  0  0
 26 25  2  0  0  0  0
 26 28  1  0  0  0  0
 27 29  1  0  0  0  0
 27 26  1  0  0  0  0
 28 22  2  0  0  0  0
 29 31  2  0  0  0  0
 30 27  1  0  0  0  0
 31 28  1  0  0  0  0
M  END
>  <Pose>
1

>  <Score>
-9.735

$$$$
