/Users/jonathanwahrer/Desktop/Msc/3_Semester/Drug_Design_Praktikum/waehrer_HTS_screening/HTS_experiment/out/docking_results/vina_output/6e43/2197_docked.pdbqt
 OpenBabel03212221023D

 28 31  0  0  1  0  0  0  0  0999 V2000
   23.1240   77.9430   13.9990 N   0  0  0  0  0  0  0  0  0  0  0  0
   22.3090   77.5800   15.1760 C   0  0  0  0  0  2  0  0  0  0  0  0
   22.5460   78.6170   16.2110 C   0  0  2  0  0  3  0  0  0  0  0  0
   23.8120   78.9810   16.4880 O   0  0  0  0  0  0  0  0  0  0  0  0
   24.8040   78.6850   15.6350 C   0  0  0  0  0  2  0  0  0  0  0  0
   24.4640   77.8500   14.4490 C   0  0  0  0  0  2  0  0  0  0  0  0
   21.8930   78.1390   17.4650 C   0  0  0  0  0  0  0  0  0  0  0  0
   22.4820   77.2320   18.1110 O   0  0  0  0  0  0  0  0  0  0  0  0
   20.6740   78.6270   17.9730 N   0  0  0  0  0  0  0  0  0  0  0  0
   19.8840   79.6670   17.3410 C   0  0  0  0  0  2  0  0  0  0  0  0
   20.0950   78.1050   19.2200 C   0  0  0  0  0  2  0  0  0  0  0  0
   18.6030   79.8050   18.1390 C   0  0  0  0  0  2  0  0  0  0  0  0
   18.8410   80.1930   19.5170 N   0  0  0  0  0  0  0  0  0  0  0  0
   19.8450   79.3490   20.0820 C   0  0  0  0  0  2  0  0  0  0  0  0
   19.1310   81.5900   19.5460 C   0  0  0  0  0  2  0  0  0  0  0  0
   19.9780   82.0130   20.7150 C   0  0  0  0  0  3  0  0  0  0  0  0
   19.4090   83.2160   21.4650 C   0  0  0  0  0  2  0  0  0  0  0  0
   20.7170   83.2760   20.7380 C   0  0  0  0  0  2  0  0  0  0  0  0
   22.5870   79.3730   13.2910 S   0  0  0  0  0  0  0  0  0  0  0  0
   21.4770   79.9390   14.1870 O   0  0  0  0  0  0  0  0  0  0  0  0
   23.6300   80.4640   13.2700 O   0  0  0  0  0  0  0  0  0  0  0  0
   21.8590   79.1550   11.7320 C   0  0  0  0  0  0  0  0  0  0  0  0
   22.5980   78.7860   10.6290 C   0  0  0  0  0  0  0  0  0  0  0  0
   22.0370   78.6660    9.3720 C   0  0  0  0  0  3  0  0  0  0  0  0
   24.3120   78.3580   10.7910 Cl  0  0  0  0  0  0  0  0  0  0  0  0
   20.6980   78.9180    9.2020 C   0  0  0  0  0  3  0  0  0  0  0  0
   19.9380   79.2880   10.3010 C   0  0  0  0  0  3  0  0  0  0  0  0
   20.4990   79.4070   11.5410 C   0  0  0  0  0  3  0  0  0  0  0  0
  1  6  1  0  0  0  0
  1  2  1  0  0  0  0
  2  3  1  0  0  0  0
  3  4  1  0  0  0  0
  3  7  1  1  0  0  0
  5  4  1  0  0  0  0
  6  5  1  0  0  0  0
  7  9  1  0  0  0  0
  7  8  2  0  0  0  0
  9 11  1  0  0  0  0
 10  9  1  0  0  0  0
 10 12  1  0  0  0  0
 11 14  1  0  0  0  0
 12 13  1  0  0  0  0
 13 15  1  0  0  0  0
 13 14  1  0  0  0  0
 15 16  1  0  0  0  0
 16 18  1  0  0  0  0
 16 17  1  0  0  0  0
 18 17  1  0  0  0  0
 19  1  1  0  0  0  0
 19 20  2  0  0  0  0
 21 19  2  0  0  0  0
 22 19  1  0  0  0  0
 23 25  1  0  0  0  0
 23 22  2  0  0  0  0
 24 23  1  0  0  0  0
 26 24  2  0  0  0  0
 26 27  1  0  0  0  0
 27 28  2  0  0  0  0
 28 22  1  0  0  0  0
M  END
>  <Pose>
1

>  <Score>
-8.975

$$$$
