/Users/jonathanwahrer/Desktop/Msc/3_Semester/Drug_Design_Praktikum/waehrer_HTS_screening/HTS_experiment/out/docking_results/vina_output/6e43/2213_docked.pdbqt
 OpenBabel03212221033D

 31 34  0  0  0  0  0  0  0  0999 V2000
   19.0130   75.9130   14.8300 Cl  0  0  0  0  0  0  0  0  0  0  0  0
   18.9400   75.3790   13.1650 C   0  0  0  0  0  0  0  0  0  0  0  0
   19.5620   76.1720   12.1880 C   0  0  0  0  0  0  0  0  0  0  0  0
   19.5210   75.7800   10.8760 C   0  0  0  0  0  0  0  0  0  0  0  0
   18.8480   74.5890   10.5840 C   0  0  0  0  0  2  0  0  0  0  0  0
   18.2410   73.8190   11.5520 C   0  0  0  0  0  0  0  0  0  0  0  0
   18.2790   74.2100   12.8780 C   0  0  0  0  0  3  0  0  0  0  0  0
   17.4000   72.3240   11.1600 Cl  0  0  0  0  0  0  0  0  0  0  0  0
   20.1440   76.5480    9.7870 C   0  0  0  0  0  0  0  0  0  0  0  0
   20.7990   77.7620   10.3020 C   0  0  0  0  0  0  0  0  0  0  0  0
   20.8280   78.1320   11.6100 C   0  0  0  0  0  0  0  0  0  0  0  0
   21.4500   79.2700   12.0360 N   0  0  0  0  0  0  0  0  0  0  0  0
   22.0420   80.0280   11.1160 C   0  0  0  0  0  0  0  0  0  0  0  0
   22.6340   81.0980   11.4650 O   0  0  0  0  0  0  0  0  0  0  0  0
   22.0380   79.6990    9.8090 N   0  0  0  0  0  0  0  0  0  0  0  0
   21.4330   78.5860    9.3810 C   0  0  0  0  0  0  0  0  0  0  0  0
   21.4290   78.2780    8.1610 O   0  0  0  0  0  0  0  0  0  0  0  0
   22.7070   80.5700    8.8520 C   0  0  0  0  0  1  0  0  0  0  0  0
   21.4610   79.6360   13.4360 C   0  0  0  0  0  1  0  0  0  0  0  0
   20.2120   77.3390   12.5400 O   0  0  0  0  0  0  0  0  0  0  0  0
   19.1520   76.8740    8.7090 C   0  0  0  0  0  3  0  0  0  0  0  0
   18.3510   77.9880    8.7710 C   0  0  0  0  0  0  0  0  0  0  0  0
   17.4470   78.3000    7.8280 N   0  0  0  0  0  0  0  0  0  0  0  0
   18.4790   78.8330    9.8540 O   0  0  0  0  0  0  0  0  0  0  0  0
   17.3230   77.4740    6.7720 C   0  0  0  0  0  0  0  0  0  0  0  0
   16.6190   79.4870    7.9200 C   0  0  0  0  0  1  0  0  0  0  0  0
   16.4670   77.7770    5.8890 O   0  0  0  0  0  0  0  0  0  0  0  0
   18.0860   76.3710    6.6710 N   0  0  0  0  0  0  0  0  0  0  0  0
   18.9940   76.0440    7.6000 C   0  0  0  0  0  0  0  0  0  0  0  0
   17.9130   75.5170    5.5190 C   0  0  0  0  0  1  0  0  0  0  0  0
   19.7200   75.0230    7.5340 O   0  0  0  0  0  0  0  0  0  0  0  0
  2  1  1  0  0  0  0
  3 20  1  0  0  0  0
  3  2  2  0  0  0  0
  4  3  1  0  0  0  0
  5  4  1  0  0  0  0
  5  6  1  0  0  0  0
  6  7  2  0  0  0  0
  7  2  1  0  0  0  0
  8  6  1  0  0  0  0
  9 10  1  0  0  0  0
  9  4  2  0  0  0  0
 10 11  2  0  0  0  0
 11 12  1  0  0  0  0
 11 20  1  0  0  0  0
 12 19  1  0  0  0  0
 13 14  2  0  0  0  0
 13 12  1  0  0  0  0
 15 13  1  0  0  0  0
 16 15  1  0  0  0  0
 16 10  1  0  0  0  0
 17 16  2  0  0  0  0
 18 15  1  0  0  0  0
 21 22  1  0  0  0  0
 21  9  1  0  0  0  0
 22 24  2  0  0  0  0
 23 26  1  0  0  0  0
 23 22  1  0  0  0  0
 25 23  1  0  0  0  0
 27 25  2  0  0  0  0
 28 25  1  0  0  0  0
 28 29  1  0  0  0  0
 29 21  1  0  0  0  0
 30 28  1  0  0  0  0
 31 29  2  0  0  0  0
M  END
>  <Pose>
1

>  <Score>
-9.731

$$$$
