/Users/jonathanwahrer/Desktop/Msc/3_Semester/Drug_Design_Praktikum/waehrer_HTS_screening/HTS_experiment/out/docking_results/vina_output/6e43/2214_docked.pdbqt
 OpenBabel03212221033D

 34 38  0  0  1  0  0  0  0  0999 V2000
   19.5680   76.6350   10.5790 Cl  0  0  0  0  0  0  0  0  0  0  0  0
   19.6910   76.4110   12.3100 C   0  0  0  0  0  0  0  0  0  0  0  0
   20.4780   77.2080   13.0970 C   0  0  0  0  0  3  0  0  0  0  0  0
   20.5480   76.9930   14.4760 C   0  0  0  0  0  0  0  0  0  0  0  0
   19.8120   75.9740   15.0020 C   0  0  0  0  0  0  0  0  0  0  0  0
   19.0030   75.1540   14.1980 C   0  0  0  0  0  3  0  0  0  0  0  0
   18.9360   75.3640   12.8500 C   0  0  0  0  0  3  0  0  0  0  0  0
   20.0300   75.9330   16.4090 N   0  0  0  0  0  0  0  0  0  0  0  0
   20.9270   76.9540   16.7750 C   0  0  0  0  0  0  0  0  0  0  0  0
   21.3160   77.1660   17.9670 O   0  0  0  0  0  0  0  0  0  0  0  0
   21.2890   77.6740   15.5500 C   0  0  1  0  0  0  0  0  0  0  0  0
   22.6940   77.5500   15.2300 N   0  0  0  0  0  0  0  0  0  0  0  0
   23.3260   78.8290   15.3000 C   0  0  2  0  0  3  0  0  0  0  0  0
   22.3250   79.7350   15.9000 C   0  0  1  0  0  3  0  0  0  0  0  0
   20.9690   79.1480   15.6240 C   0  0  2  0  0  3  0  0  0  0  0  0
   20.2090   79.5080   16.8420 C   0  0  0  0  0  0  0  0  0  0  0  0
   18.9630   79.5530   17.0000 O   0  0  0  0  0  0  0  0  0  0  0  0
   21.1240   79.8250   17.9120 N   0  0  0  0  0  0  0  0  0  0  0  0
   22.4360   79.6340   17.3970 C   0  0  0  0  0  0  0  0  0  0  0  0
   23.4580   79.4260   18.0920 O   0  0  0  0  0  0  0  0  0  0  0  0
   19.5940   75.2470   17.0960 H   0  0  0  0  0  0  0  0  0  0  0  0
   22.8620   77.1640   14.2750 H   0  0  0  0  0  0  0  0  0  0  0  0
   23.8680   79.2870   13.9720 C   0  0  0  0  0  2  0  0  0  0  0  0
   23.1740   80.4180   13.3850 C   0  0  0  0  0  0  0  0  0  0  0  0
   23.4230   81.5790   13.7730 O   0  0  0  0  0  0  0  0  0  0  0  0
   22.2090   80.2320   12.3710 N   0  0  0  0  0  0  0  0  0  0  0  0
   22.2940   80.7710   11.4770 H   0  0  0  0  0  0  0  0  0  0  0  0
   21.4000   79.5870   12.4440 H   0  0  0  0  0  0  0  0  0  0  0  0
   20.7530   80.2500   19.2460 C   0  0  0  0  0  2  0  0  0  0  0  0
   19.7610   81.3810   19.2530 C   0  0  1  0  0  3  0  0  0  0  0  0
   19.3040   81.5920   20.5510 O   0  0  0  0  0  0  0  0  0  0  0  0
   20.1240   82.5370   21.1230 C   0  0  0  0  0  2  0  0  0  0  0  0
   20.6690   83.4170   20.0190 C   0  0  0  0  0  2  0  0  0  0  0  0
   20.2940   82.6760   18.7500 C   0  0  0  0  0  2  0  0  0  0  0  0
  1  2  1  0  0  0  0
  2  7  2  0  0  0  0
  2  3  1  0  0  0  0
  3  4  2  0  0  0  0
  4  5  1  0  0  0  0
  5  8  1  0  0  0  0
  6  5  2  0  0  0  0
  7  6  1  0  0  0  0
  8  9  1  0  0  0  0
  8 21  1  0  0  0  0
  9 10  2  0  0  0  0
 11  4  1  6  0  0  0
 11 15  1  0  0  0  0
 11  9  1  0  0  0  0
 12 13  1  0  0  0  0
 12 11  1  0  0  0  0
 13 23  1  6  0  0  0
 13 14  1  0  0  0  0
 14 19  1  1  0  0  0
 15 14  1  0  0  0  0
 15 16  1  1  0  0  0
 16 17  2  0  0  0  0
 16 18  1  0  0  0  0
 18 29  1  0  0  0  0
 19 18  1  0  0  0  0
 19 20  2  0  0  0  0
 22 12  1  0  0  0  0
 24 25  2  0  0  0  0
 24 23  1  0  0  0  0
 26 28  1  0  0  0  0
 26 24  1  0  0  0  0
 27 26  1  0  0  0  0
 30 29  1  1  0  0  0
 30 31  1  0  0  0  0
 31 32  1  0  0  0  0
 33 32  1  0  0  0  0
 34 30  1  0  0  0  0
 34 33  1  0  0  0  0
M  END
>  <Pose>
1

>  <Score>
-9.034

$$$$
