/Users/jonathanwahrer/Desktop/Msc/3_Semester/Drug_Design_Praktikum/waehrer_HTS_screening/HTS_experiment/out/docking_results/vina_output/6e43/2242_docked.pdbqt
 OpenBabel03212221043D

 32 35  0  0  0  0  0  0  0  0999 V2000
   20.5610   78.0380   11.6970 N   0  0  0  0  0  0  0  0  0  0  0  0
   21.8780   78.4990   11.7680 C   0  0  0  0  0  0  0  0  0  0  0  0
   22.5750   78.7130   10.7660 O   0  0  0  0  0  0  0  0  0  0  0  0
   20.0400   77.8800   12.6160 H   0  0  0  0  0  0  0  0  0  0  0  0
   22.5160   78.7610   13.0880 C   0  0  0  0  0  0  0  0  0  0  0  0
   21.7550   78.9150   14.1270 N   0  0  0  0  0  0  0  0  0  0  0  0
   22.2710   79.1640   15.3970 N   0  0  0  0  0  0  0  0  0  0  0  0
   23.6690   79.2490   15.5620 C   0  0  0  0  0  0  0  0  0  0  0  0
   24.0980   79.3900   16.7570 O   0  0  0  0  0  0  0  0  0  0  0  0
   24.6110   79.1820   14.4270 C   0  0  0  0  0  2  0  0  0  0  0  0
   23.9250   78.8420   13.2300 N   0  0  0  0  0  0  0  0  0  0  0  0
   24.4920   78.6330   12.3670 H   0  0  0  0  0  0  0  0  0  0  0  0
   21.3900   79.3370   16.5330 C   0  0  0  0  0  0  0  0  0  0  0  0
   20.8930   78.2610   17.2280 C   0  0  0  0  0  3  0  0  0  0  0  0
   20.0470   78.4540   18.3250 C   0  0  0  0  0  3  0  0  0  0  0  0
   19.6920   79.7250   18.7300 C   0  0  0  0  0  0  0  0  0  0  0  0
   20.1970   80.7920   18.0230 C   0  0  0  0  0  3  0  0  0  0  0  0
   18.7950   79.9850   19.8960 C   0  0  0  0  0  1  0  0  0  0  0  0
   21.0220   80.5960   16.9550 C   0  0  0  0  0  3  0  0  0  0  0  0
   19.8680   77.7650   10.5110 C   0  0  0  0  0  0  0  0  0  0  0  0
   19.1420   78.8050    9.9260 C   0  0  0  0  0  0  0  0  0  0  0  0
   19.1160   80.3790   10.6920 Cl  0  0  0  0  0  0  0  0  0  0  0  0
   18.4420   78.6350    8.7650 C   0  0  0  0  0  3  0  0  0  0  0  0
   18.4150   77.4350    8.1110 C   0  0  0  0  0  0  0  0  0  0  0  0
   19.1150   76.3900    8.6520 C   0  0  0  0  0  0  0  0  0  0  0  0
   17.6980   77.2310    6.8880 N   0  0  0  0  0  0  0  0  0  0  0  0
   19.8340   76.5710    9.8470 C   0  0  0  0  0  3  0  0  0  0  0  0
   19.1400   75.1340    8.0510 O   0  0  0  0  0  0  0  0  0  0  0  0
   18.7690   74.9350    6.6790 C   0  0  0  0  0  2  0  0  0  0  0  0
   17.7430   75.9440    6.2800 C   0  0  0  0  0  0  0  0  0  0  0  0
   16.9160   75.6340    5.3930 O   0  0  0  0  0  0  0  0  0  0  0  0
   17.1570   78.0060    6.4550 H   0  0  0  0  0  0  0  0  0  0  0  0
  1  2  1  0  0  0  0
  1  4  1  0  0  0  0
  2  5  1  0  0  0  0
  3  2  2  0  0  0  0
  5 11  1  0  0  0  0
  5  6  2  0  0  0  0
  6  7  1  0  0  0  0
  7  8  1  0  0  0  0
  7 13  1  0  0  0  0
  8  9  2  0  0  0  0
 10  8  1  0  0  0  0
 11 10  1  0  0  0  0
 12 11  1  0  0  0  0
 13 19  2  0  0  0  0
 13 14  1  0  0  0  0
 14 15  2  0  0  0  0
 15 16  1  0  0  0  0
 16 18  1  0  0  0  0
 17 16  2  0  0  0  0
 19 17  1  0  0  0  0
 20  1  1  0  0  0  0
 21 20  1  0  0  0  0
 21 22  1  0  0  0  0
 23 21  2  0  0  0  0
 24 25  2  0  0  0  0
 24 23  1  0  0  0  0
 25 27  1  0  0  0  0
 26 24  1  0  0  0  0
 27 20  2  0  0  0  0
 28 25  1  0  0  0  0
 29 28  1  0  0  0  0
 30 29  1  0  0  0  0
 30 26  1  0  0  0  0
 31 30  2  0  0  0  0
 32 26  1  0  0  0  0
M  END
>  <Pose>
1

>  <Score>
-10.131

$$$$
