/Users/jonathanwahrer/Desktop/Msc/3_Semester/Drug_Design_Praktikum/waehrer_HTS_screening/HTS_experiment/out/docking_results/vina_output/6e43/2266_docked.pdbqt
 OpenBabel03212221043D

 27 30  0  0  1  0  0  0  0  0999 V2000
   21.0090   78.1010   18.0240 N   0  0  0  0  0  0  0  0  0  0  0  0
   22.3280   78.5430   18.2430 C   0  0  0  0  0  2  0  0  0  0  0  0
   23.3590   77.8570   17.3680 C   0  0  0  0  0  2  0  0  0  0  0  0
   22.8680   78.0020   15.9640 C   0  0  2  0  0  3  0  0  0  0  0  0
   21.5390   77.7090   15.7420 C   0  0  0  0  0  0  0  0  0  0  0  0
   21.0390   77.8180   14.5110 N   0  0  0  0  0  0  0  0  0  0  0  0
   21.8620   78.2150   13.5190 C   0  0  2  0  0  3  0  0  0  0  0  0
   23.1610   78.5070   13.7090 N   0  0  0  0  0  0  0  0  0  0  0  0
   23.7280   78.8720   12.5440 N   0  0  0  0  0  0  0  0  0  0  0  0
   22.8210   78.8310   11.5580 C   0  0  0  0  0  3  0  0  0  0  0  0
   21.6480   78.4230   12.1490 C   0  0  0  0  0  3  0  0  0  0  0  0
   23.7000   78.4070   14.9440 C   0  0  0  0  0  0  0  0  0  0  0  0
   24.9070   78.6650   15.1840 O   0  0  0  0  0  0  0  0  0  0  0  0
   20.7390   77.2820   16.9150 C   0  0  0  0  0  2  0  0  0  0  0  0
   24.7340   79.1440   12.4530 H   0  0  0  0  0  0  0  0  0  0  0  0
   19.7590   78.9710   18.7260 S   0  0  0  0  0  0  0  0  0  0  0  0
   18.4930   78.9300   17.8820 O   0  0  0  0  0  0  0  0  0  0  0  0
   19.3680   78.2670   20.0220 O   0  0  0  0  0  0  0  0  0  0  0  0
   20.0750   80.6250   19.0870 C   0  0  0  0  0  0  0  0  0  0  0  0
   20.4200   81.5210   18.0780 C   0  0  0  0  0  0  0  0  0  0  0  0
   20.6700   82.8370   18.4010 C   0  0  0  0  0  3  0  0  0  0  0  0
   20.5900   83.2970   19.6750 C   0  0  0  0  0  3  0  0  0  0  0  0
   20.2540   82.4430   20.6870 C   0  0  0  0  0  0  0  0  0  0  0  0
   20.0050   81.1250   20.3650 C   0  0  0  0  0  3  0  0  0  0  0  0
   20.1430   83.0160   22.3550 Cl  0  0  0  0  0  0  0  0  0  0  0  0
   20.5220   81.1370   16.7620 O   0  0  0  0  0  0  0  0  0  0  0  0
   21.7840   81.1670   16.1340 C   0  0  0  0  0  1  0  0  0  0  0  0
  1  2  1  0  0  0  0
  1 16  1  0  0  0  0
  3  2  1  0  0  0  0
  4  3  1  6  0  0  0
  5  4  1  0  0  0  0
  5 14  1  0  0  0  0
  6  5  2  0  0  0  0
  7 11  1  1  0  0  0
  7  8  1  0  0  0  0
  7  6  1  0  0  0  0
  8 12  1  0  0  0  0
  9  8  1  0  0  0  0
 10 11  2  0  0  0  0
 10  9  1  0  0  0  0
 12 13  2  0  0  0  0
 12  4  1  0  0  0  0
 14  1  1  0  0  0  0
 15  9  1  0  0  0  0
 16 19  1  0  0  0  0
 16 18  2  0  0  0  0
 17 16  2  0  0  0  0
 19 24  1  0  0  0  0
 20 21  1  0  0  0  0
 20 19  2  0  0  0  0
 21 22  2  0  0  0  0
 22 23  1  0  0  0  0
 23 25  1  0  0  0  0
 24 23  2  0  0  0  0
 26 20  1  0  0  0  0
 27 26  1  0  0  0  0
M  END
>  <Pose>
1

>  <Score>
-8.748

$$$$
