/Users/jonathanwahrer/Desktop/Msc/3_Semester/Drug_Design_Praktikum/waehrer_HTS_screening/HTS_experiment/out/docking_results/vina_output/6e43/2267_docked.pdbqt
 OpenBabel03212221043D

 27 30  0  0  1  0  0  0  0  0999 V2000
   22.1580   78.0970   16.8260 N   0  0  0  0  0  0  0  0  0  0  0  0
   22.9800   79.1820   17.1210 C   0  0  0  0  0  2  0  0  0  0  0  0
   23.7020   79.7430   15.9190 C   0  0  0  0  0  2  0  0  0  0  0  0
   22.9810   79.5290   14.6420 C   0  0  2  0  0  3  0  0  0  0  0  0
   22.3030   78.3430   14.5020 C   0  0  0  0  0  0  0  0  0  0  0  0
   21.6250   78.0610   13.3830 N   0  0  0  0  0  0  0  0  0  0  0  0
   21.6080   78.9760   12.3590 C   0  0  1  0  0  3  0  0  0  0  0  0
   22.2810   80.1350   12.5140 N   0  0  0  0  0  0  0  0  0  0  0  0
   22.1100   80.8390   11.3920 N   0  0  0  0  0  0  0  0  0  0  0  0
   21.3540   80.1640   10.5360 C   0  0  0  0  0  3  0  0  0  0  0  0
   21.0040   78.9480   11.1200 C   0  0  0  0  0  3  0  0  0  0  0  0
   22.9740   80.4680   13.6110 C   0  0  0  0  0  0  0  0  0  0  0  0
   23.5990   81.5460   13.7540 O   0  0  0  0  0  0  0  0  0  0  0  0
   22.3340   77.3820   15.6170 C   0  0  0  0  0  2  0  0  0  0  0  0
   22.5080   81.7870   11.2020 H   0  0  0  0  0  0  0  0  0  0  0  0
   20.7110   77.9200   17.6360 S   0  0  0  0  0  0  0  0  0  0  0  0
   19.6170   77.5860   16.6470 O   0  0  0  0  0  0  0  0  0  0  0  0
   20.7670   76.7870   18.6170 O   0  0  0  0  0  0  0  0  0  0  0  0
   20.1840   79.3480   18.5010 C   0  0  0  0  0  0  0  0  0  0  0  0
   20.4630   80.6330   18.0690 C   0  0  0  0  0  3  0  0  0  0  0  0
   20.0200   81.7280   18.7950 C   0  0  0  0  0  0  0  0  0  0  0  0
   19.2950   81.5960   19.9560 C   0  0  0  0  0  0  0  0  0  0  0  0
   20.3830   83.3480   18.2330 Cl  0  0  0  0  0  0  0  0  0  0  0  0
   19.0170   80.3170   20.3870 C   0  0  0  0  0  3  0  0  0  0  0  0
   19.4560   79.2290   19.6660 C   0  0  0  0  0  3  0  0  0  0  0  0
   18.8560   82.7200   20.6750 O   0  0  0  0  0  0  0  0  0  0  0  0
   19.5960   83.1670   21.7960 C   0  0  0  0  0  1  0  0  0  0  0  0
  1  2  1  0  0  0  0
  1 16  1  0  0  0  0
  3  2  1  0  0  0  0
  4  3  1  6  0  0  0
  5  4  1  0  0  0  0
  5 14  1  0  0  0  0
  6  5  2  0  0  0  0
  7 11  1  6  0  0  0
  7  8  1  0  0  0  0
  7  6  1  0  0  0  0
  8 12  1  0  0  0  0
  9  8  1  0  0  0  0
 10 11  2  0  0  0  0
 10  9  1  0  0  0  0
 12 13  2  0  0  0  0
 12  4  1  0  0  0  0
 14  1  1  0  0  0  0
 15  9  1  0  0  0  0
 16 19  1  0  0  0  0
 16 18  2  0  0  0  0
 17 16  2  0  0  0  0
 19 25  1  0  0  0  0
 20 19  2  0  0  0  0
 20 21  1  0  0  0  0
 21 22  2  0  0  0  0
 22 24  1  0  0  0  0
 22 26  1  0  0  0  0
 23 21  1  0  0  0  0
 25 24  2  0  0  0  0
 26 27  1  0  0  0  0
M  END
>  <Pose>
1

>  <Score>
-9.736

$$$$
