/Users/jonathanwahrer/Desktop/Msc/3_Semester/Drug_Design_Praktikum/waehrer_HTS_screening/HTS_experiment/out/docking_results/vina_output/6e43/2270_docked.pdbqt
 OpenBabel03212221043D

 22 24  0  0  1  0  0  0  0  0999 V2000
   20.2950   80.2010   18.9110 C   0  0  0  0  0  0  0  0  0  0  0  0
   19.3310   79.3880   18.9880 O   0  0  0  0  0  0  0  0  0  0  0  0
   21.5840   79.7850   18.4570 N   0  0  0  0  0  0  0  0  0  0  0  0
   22.3300   80.4780   18.4130 H   0  0  0  0  0  0  0  0  0  0  0  0
   20.0840   81.5750   19.2930 C   0  0  0  0  0  0  0  0  0  0  0  0
   19.6460   81.8250   20.5980 C   0  0  0  0  0  3  0  0  0  0  0  0
   19.4060   83.0920   21.0800 C   0  0  0  0  0  0  0  0  0  0  0  0
   19.6090   84.1660   20.2390 C   0  0  0  0  0  0  0  0  0  0  0  0
   19.3090   85.7970   20.8330 Cl  0  0  0  0  0  0  0  0  0  0  0  0
   20.0430   83.9390   18.9410 C   0  0  0  0  0  3  0  0  0  0  0  0
   20.2820   82.6440   18.4680 C   0  0  0  0  0  3  0  0  0  0  0  0
   18.9710   83.3100   22.3800 O   0  0  0  0  0  0  0  0  0  0  0  0
   19.8500   83.1900   23.4810 C   0  0  0  0  0  1  0  0  0  0  0  0
   21.7520   78.4110   18.0860 C   0  0  0  0  0  2  0  0  0  0  0  0
   22.9050   78.0810   17.2240 C   0  0  2  0  0  3  0  0  0  0  0  0
   23.9750   79.0280   17.1640 N   0  0  1  0  0  0  0  0  0  0  0  0
   25.2100   78.2100   17.0880 C   0  0  0  0  0  2  0  0  0  0  0  0
   24.0250   79.8180   15.9510 C   0  0  0  0  0  2  0  0  0  0  0  0
   24.8900   77.1620   16.0140 C   0  0  0  0  0  2  0  0  0  0  0  0
   23.8460   77.6060   15.1120 N   0  0  1  0  0  0  0  0  0  0  0  0
   22.5520   77.7290   15.7880 C   0  0  0  0  0  2  0  0  0  0  0  0
   24.1920   78.9570   14.7050 C   0  0  0  0  0  2  0  0  0  0  0  0
  1  2  2  0  0  0  0
  1  5  1  0  0  0  0
  3  1  1  0  0  0  0
  4  3  1  0  0  0  0
  5  6  1  0  0  0  0
  6  7  2  0  0  0  0
  7 12  1  0  0  0  0
  8  9  1  0  0  0  0
  8  7  1  0  0  0  0
 10  8  2  0  0  0  0
 11 10  1  0  0  0  0
 11  5  2  0  0  0  0
 12 13  1  0  0  0  0
 14  3  1  0  0  0  0
 15 14  1  6  0  0  0
 16 18  1  6  0  0  0
 16 15  1  0  0  0  0
 17 16  1  0  0  0  0
 19 17  1  0  0  0  0
 20 22  1  1  0  0  0
 20 21  1  0  0  0  0
 20 19  1  0  0  0  0
 21 15  1  0  0  0  0
 22 18  1  0  0  0  0
M  END
>  <Pose>
1

>  <Score>
-8.096

$$$$
