/Users/jonathanwahrer/Desktop/Msc/3_Semester/Drug_Design_Praktikum/waehrer_HTS_screening/HTS_experiment/out/docking_results/vina_output/6e43/2272_docked.pdbqt
 OpenBabel03212221043D

 29 32  0  0  0  0  0  0  0  0999 V2000
   23.0360   79.7180   12.5830 C   0  0  0  0  0  0  0  0  0  0  0  0
   22.6490   80.7240   13.2920 O   0  0  0  0  0  0  0  0  0  0  0  0
   22.6300   79.7300   11.2480 N   0  0  0  0  0  0  0  0  0  0  0  0
   22.7720   78.5910   10.3210 C   0  0  0  0  0  2  0  0  0  0  0  0
   21.2650   78.2060   10.1930 C   0  0  0  0  0  2  0  0  0  0  0  0
   20.5920   79.2940    9.4970 N   0  0  0  0  0  0  0  0  0  0  0  0
   21.0920   80.5570    9.5270 C   0  0  0  0  0  2  0  0  0  0  0  0
   22.0700   80.8940   10.6170 C   0  0  0  0  0  2  0  0  0  0  0  0
   23.8470   78.7570   13.2900 C   0  0  0  0  0  2  0  0  0  0  0  0
   24.4020   79.0300   14.6130 C   0  0  0  0  0  2  0  0  0  0  0  0
   23.6600   78.5410   15.7630 N   0  0  0  0  0  0  0  0  0  0  0  0
   22.6980   79.0920   16.4960 C   0  0  0  0  0  0  0  0  0  0  0  0
   22.3640   78.2650   17.5420 C   0  0  0  0  0  0  0  0  0  0  0  0
   22.0140   80.3120   16.3440 C   0  0  0  0  0  3  0  0  0  0  0  0
   21.3660   78.5970   18.4670 C   0  0  0  0  0  3  0  0  0  0  0  0
   23.1430   77.2240   17.4160 O   0  0  0  0  0  0  0  0  0  0  0  0
   20.6950   79.7810   18.3320 C   0  0  0  0  0  0  0  0  0  0  0  0
   19.4330   80.2200   19.4570 Cl  0  0  0  0  0  0  0  0  0  0  0  0
   21.0330   80.6070   17.2760 C   0  0  0  0  0  3  0  0  0  0  0  0
   23.9310   77.3390   16.3760 C   0  0  0  0  0  0  0  0  0  0  0  0
   24.7980   76.5030   15.9880 O   0  0  0  0  0  0  0  0  0  0  0  0
   19.2850   78.9020    9.2560 C   0  0  0  0  0  2  0  0  0  0  0  0
   19.1760   78.0140    8.0160 C   0  0  0  0  0  0  0  0  0  0  0  0
   19.2140   78.6730    6.9080 O   0  0  0  0  0  0  0  0  0  0  0  0
   19.0460   76.6960    8.1190 N   0  0  0  0  0  0  0  0  0  0  0  0
   19.2020   76.5370    6.7790 H   0  0  0  0  0  0  0  0  0  0  0  0
   18.9070   75.2940    8.2290 C   0  0  0  0  0  3  0  0  0  0  0  0
   20.1300   74.4670    7.6740 C   0  0  0  0  0  2  0  0  0  0  0  0
   18.8710   74.4800    6.9530 C   0  0  0  0  0  2  0  0  0  0  0  0
  1  9  1  0  0  0  0
  1  2  2  0  0  0  0
  3  1  1  0  0  0  0
  4  3  1  0  0  0  0
  5  4  1  0  0  0  0
  6  7  1  0  0  0  0
  6  5  1  0  0  0  0
  7  8  1  0  0  0  0
  8  3  1  0  0  0  0
  9 10  1  0  0  0  0
 10 11  1  0  0  0  0
 11 20  1  0  0  0  0
 11 12  1  0  0  0  0
 12 13  1  0  0  0  0
 13 15  2  0  0  0  0
 14 12  2  0  0  0  0
 14 19  1  0  0  0  0
 16 13  1  0  0  0  0
 17 15  1  0  0  0  0
 17 18  1  0  0  0  0
 19 17  2  0  0  0  0
 20 16  1  0  0  0  0
 21 20  2  0  0  0  0
 22  6  1  0  0  0  0
 23 25  1  0  0  0  0
 23 22  1  0  0  0  0
 24 23  2  0  0  0  0
 25 27  1  0  0  0  0
 26 25  1  0  0  0  0
 28 27  1  0  0  0  0
 29 28  1  0  0  0  0
 29 27  1  0  0  0  0
M  END
>  <Pose>
1

>  <Score>
-9.334

$$$$
