/Users/jonathanwahrer/Desktop/Msc/3_Semester/Drug_Design_Praktikum/waehrer_HTS_screening/HTS_experiment/out/docking_results/vina_output/6e43/2275_docked.pdbqt
 OpenBabel03212221043D

 21 23  0  0  1  0  0  0  0  0999 V2000
   18.5210   77.1640   17.3510 Cl  0  0  0  0  0  0  0  0  0  0  0  0
   19.8690   78.1900   16.9130 C   0  0  0  0  0  0  0  0  0  0  0  0
   19.8890   79.5120   17.3070 C   0  0  0  0  0  0  0  0  0  0  0  0
   20.9830   80.2590   16.9300 C   0  0  0  0  0  0  0  0  0  0  0  0
   21.1020   81.4840   17.2400 O   0  0  0  0  0  0  0  0  0  0  0  0
   21.9660   79.6940   16.2140 N   0  0  0  0  0  0  0  0  0  0  0  0
   21.9890   78.4360   15.8170 N   0  0  0  0  0  0  0  0  0  0  0  0
   23.0770   77.8640   15.0420 C   0  0  1  0  0  3  0  0  0  0  0  0
   23.0830   78.3530   13.6090 C   0  0  0  0  0  2  0  0  0  0  0  0
   23.7500   79.7150   13.5150 C   0  0  0  0  0  2  0  0  0  0  0  0
   23.0130   80.7450   14.3390 C   0  0  0  0  0  2  0  0  0  0  0  0
   23.1250   80.5110   15.8230 C   0  0  2  0  0  3  0  0  0  0  0  0
   24.3260   79.6690   16.0690 C   0  0  0  0  0  3  0  0  0  0  0  0
   24.3430   78.4040   15.6650 C   0  0  0  0  0  3  0  0  0  0  0  0
   20.9150   77.6740   16.1770 C   0  0  0  0  0  0  0  0  0  0  0  0
   20.9090   76.4520   15.8070 O   0  0  0  0  0  0  0  0  0  0  0  0
   18.8430   80.1140   18.0640 N   0  0  0  0  0  0  0  0  0  0  0  0
   18.0540   80.5140   17.4720 H   0  0  0  0  0  0  0  0  0  0  0  0
   18.8150   80.1930   19.4990 C   0  0  0  0  0  3  0  0  0  0  0  0
   19.5660   79.0410   20.1450 C   0  0  0  0  0  1  0  0  0  0  0  0
   19.3550   81.4660   20.0590 C   0  0  0  0  0  1  0  0  0  0  0  0
  2  3  2  0  0  0  0
  2  1  1  0  0  0  0
  3 17  1  0  0  0  0
  4  5  2  0  0  0  0
  4  3  1  0  0  0  0
  6  4  1  0  0  0  0
  7 15  1  0  0  0  0
  7  6  1  0  0  0  0
  8  9  1  6  0  0  0
  8 14  1  0  0  0  0
  8  7  1  0  0  0  0
 10  9  1  0  0  0  0
 10 11  1  0  0  0  0
 12 11  1  6  0  0  0
 12 13  1  0  0  0  0
 12  6  1  0  0  0  0
 14 13  2  0  0  0  0
 15  2  1  0  0  0  0
 16 15  2  0  0  0  0
 17 19  1  0  0  0  0
 18 17  1  0  0  0  0
 19 21  1  0  0  0  0
 19 20  1  0  0  0  0
M  END
>  <Pose>
1

>  <Score>
-8.421

$$$$
