/Users/jonathanwahrer/Desktop/Msc/3_Semester/Drug_Design_Praktikum/waehrer_HTS_screening/HTS_experiment/out/docking_results/vina_output/6e43/2276_docked.pdbqt
 OpenBabel03212221043D

 21 24  0  0  1  0  0  0  0  0999 V2000
   20.0370   77.3330   12.0600 Cl  0  0  0  0  0  0  0  0  0  0  0  0
   21.2070   78.0910   13.1220 C   0  0  0  0  0  0  0  0  0  0  0  0
   21.7350   79.3070   12.7400 C   0  0  0  0  0  0  0  0  0  0  0  0
   22.6670   79.8510   13.6320 C   0  0  0  0  0  0  0  0  0  0  0  0
   23.1760   80.9500   13.3370 O   0  0  0  0  0  0  0  0  0  0  0  0
   23.0000   79.2170   14.7630 N   0  0  0  0  0  0  0  0  0  0  0  0
   22.4890   78.0500   15.1240 N   0  0  0  0  0  0  0  0  0  0  0  0
   22.9560   77.5010   16.3890 C   0  0  1  0  0  3  0  0  0  0  0  0
   24.4660   77.3970   16.2820 C   0  0  1  0  0  3  0  0  0  0  0  0
   25.0450   78.6700   15.8370 C   0  0  1  0  0  3  0  0  0  0  0  0
   23.9770   79.7640   15.7080 C   0  0  2  0  0  3  0  0  0  0  0  0
   23.2480   79.7790   17.0230 C   0  0  0  0  0  2  0  0  0  0  0  0
   22.7210   78.6190   17.3780 C   0  0  0  0  0  2  0  0  0  0  0  0
   25.3300   78.1240   17.2430 C   0  0  0  0  0  2  0  0  0  0  0  0
   21.6000   77.4860   14.3130 C   0  0  0  0  0  0  0  0  0  0  0  0
   21.1090   76.3780   14.6460 O   0  0  0  0  0  0  0  0  0  0  0  0
   21.3860   79.9950   11.5420 N   0  0  0  0  0  0  0  0  0  0  0  0
   20.6700   80.7430   11.6530 H   0  0  0  0  0  0  0  0  0  0  0  0
   21.9290   79.7380   10.2580 C   0  0  0  0  0  3  0  0  0  0  0  0
   22.5800   80.9270    9.6010 C   0  0  0  0  0  1  0  0  0  0  0  0
   22.9650   78.6230   10.2570 C   0  0  0  0  0  1  0  0  0  0  0  0
  1  2  1  0  0  0  0
  2 15  1  0  0  0  0
  3  2  2  0  0  0  0
  3  4  1  0  0  0  0
  4  6  1  0  0  0  0
  5  4  2  0  0  0  0
  6  7  1  0  0  0  0
  6 11  1  0  0  0  0
  7  8  1  0  0  0  0
  8 13  1  1  0  0  0
  9  8  1  0  0  0  0
  9 14  1  1  0  0  0
 10  9  1  0  0  0  0
 10 14  1  1  0  0  0
 11 10  1  0  0  0  0
 11 12  1  1  0  0  0
 12 13  1  0  0  0  0
 15 16  2  0  0  0  0
 15  7  1  0  0  0  0
 17 18  1  0  0  0  0
 17  3  1  0  0  0  0
 19 17  1  0  0  0  0
 20 19  1  0  0  0  0
 21 19  1  0  0  0  0
M  END
>  <Pose>
1

>  <Score>
-8.454

$$$$
