/Users/jonathanwahrer/Desktop/Msc/3_Semester/Drug_Design_Praktikum/waehrer_HTS_screening/HTS_experiment/out/docking_results/vina_output/6e43/2282_docked.pdbqt
 OpenBabel03212221053D

 31 34  0  0  1  0  0  0  0  0999 V2000
   23.3730   79.0840   14.4510 N   0  0  0  0  0  0  0  0  0  0  0  0
   24.4510   78.1670   14.7310 C   0  0  0  0  0  2  0  0  0  0  0  0
   24.4330   77.7850   16.1780 C   0  0  0  0  0  2  0  0  0  0  0  0
   23.1850   78.2490   16.7300 N   0  0  0  0  0  0  0  0  0  0  0  0
   23.2120   79.6660   16.7960 C   0  0  0  0  0  2  0  0  0  0  0  0
   23.1350   80.1810   15.3550 C   0  0  0  0  0  2  0  0  0  0  0  0
   22.5330   78.9540   13.3140 C   0  0  0  0  0  0  0  0  0  0  0  0
   21.5170   78.0040   13.2540 C   0  0  0  0  0  0  0  0  0  0  0  0
   21.3200   76.9580   14.6440 Cl  0  0  0  0  0  0  0  0  0  0  0  0
   20.7100   77.9030   12.1380 C   0  0  0  0  0  0  0  0  0  0  0  0
   20.8700   78.7110   11.0730 N   0  0  0  0  0  0  0  0  0  0  0  0
   19.7910   77.0380   12.0880 O   0  0  0  0  0  0  0  0  0  0  0  0
   21.8390   79.6070   11.1500 N   0  0  0  0  0  0  0  0  0  0  0  0
   22.6610   79.7600   12.2030 C   0  0  0  0  0  3  0  0  0  0  0  0
   20.0290   78.6080    9.9160 C   0  0  0  0  0  0  0  0  0  0  0  0
   18.8270   79.2760    9.8750 C   0  0  0  0  0  3  0  0  0  0  0  0
   17.9990   79.1830    8.7510 C   0  0  0  0  0  3  0  0  0  0  0  0
   18.3570   78.4270    7.6590 C   0  0  0  0  0  3  0  0  0  0  0  0
   19.5600   77.7550    7.6910 C   0  0  0  0  0  3  0  0  0  0  0  0
   20.3740   77.8550    8.8150 C   0  0  0  0  0  3  0  0  0  0  0  0
   22.6800   77.5300   17.8300 C   0  0  0  0  0  2  0  0  0  0  0  0
   21.2580   77.7540   18.1110 C   0  0  0  0  0  0  0  0  0  0  0  0
   20.7790   77.1220   19.1130 O   0  0  0  0  0  0  0  0  0  0  0  0
   20.3830   78.5970   17.3840 N   0  0  0  0  0  0  0  0  0  0  0  0
   20.7790   79.1180   16.5760 H   0  0  0  0  0  0  0  0  0  0  0  0
   18.9900   78.7860   17.7010 C   0  0  0  0  0  2  0  0  0  0  0  0
   18.7870   80.1550   18.2730 C   0  0  1  0  0  3  0  0  0  0  0  0
   18.7730   80.0800   19.6400 O   0  0  0  0  0  0  0  0  0  0  0  0
   19.7370   80.8840   20.1850 C   0  0  0  0  0  2  0  0  0  0  0  0
   19.8990   81.9810   19.1550 C   0  0  0  0  0  2  0  0  0  0  0  0
   19.9200   81.0990   17.8950 C   0  0  0  0  0  2  0  0  0  0  0  0
  1  2  1  0  0  0  0
  1  6  1  0  0  0  0
  2  3  1  0  0  0  0
  3  4  1  0  0  0  0
  4  5  1  0  0  0  0
  4 21  1  0  0  0  0
  6  5  1  0  0  0  0
  7  1  1  0  0  0  0
  8  7  2  0  0  0  0
  8  9  1  0  0  0  0
 10  8  1  0  0  0  0
 11 13  1  0  0  0  0
 11 10  1  0  0  0  0
 12 10  2  0  0  0  0
 13 14  2  0  0  0  0
 14  7  1  0  0  0  0
 15 11  1  0  0  0  0
 16 15  1  0  0  0  0
 17 16  2  0  0  0  0
 18 19  2  0  0  0  0
 18 17  1  0  0  0  0
 19 20  1  0  0  0  0
 20 15  2  0  0  0  0
 21 22  1  0  0  0  0
 22 23  2  0  0  0  0
 24 26  1  0  0  0  0
 24 22  1  0  0  0  0
 25 24  1  0  0  0  0
 27 26  1  6  0  0  0
 27 28  1  0  0  0  0
 28 29  1  0  0  0  0
 30 29  1  0  0  0  0
 31 27  1  0  0  0  0
 31 30  1  0  0  0  0
M  END
>  <Pose>
1

>  <Score>
-9.545

$$$$
