/Users/jonathanwahrer/Desktop/Msc/3_Semester/Drug_Design_Praktikum/waehrer_HTS_screening/HTS_experiment/out/docking_results/vina_output/6e43/2285_docked.pdbqt
 OpenBabel03212221063D

 32 35  0  0  0  0  0  0  0  0999 V2000
   22.6420   77.2060   16.8060 N   0  0  0  0  0  0  0  0  0  0  0  0
   22.6170   78.2220   17.8160 C   0  0  0  0  0  2  0  0  0  0  0  0
   21.2290   78.4510   18.4420 C   0  0  0  0  0  2  0  0  0  0  0  0
   20.3380   78.7360   17.3620 N   0  0  0  0  0  0  0  0  0  0  0  0
   20.1920   77.5380   16.5820 C   0  0  0  0  0  2  0  0  0  0  0  0
   21.4990   77.4140   15.8490 C   0  0  0  0  0  2  0  0  0  0  0  0
   24.0510   77.5830   15.7870 S   0  0  0  0  0  0  0  0  0  0  0  0
   25.1300   78.1220   16.7070 O   0  0  0  0  0  0  0  0  0  0  0  0
   24.5200   76.3260   15.1470 O   0  0  0  0  0  0  0  0  0  0  0  0
   23.6890   78.7720   14.5980 C   0  0  0  0  0  0  0  0  0  0  0  0
   23.6060   78.2920   13.2840 C   0  0  0  0  0  3  0  0  0  0  0  0
   23.2280   79.0860   12.1980 C   0  0  0  0  0  0  0  0  0  0  0  0
   22.9180   80.4210   12.4390 C   0  0  0  0  0  0  0  0  0  0  0  0
   23.1630   78.5780   10.9110 O   0  0  0  0  0  0  0  0  0  0  0  0
   23.0110   80.8810   13.7400 C   0  0  0  0  0  3  0  0  0  0  0  0
   22.5480   81.1460   11.3210 O   0  0  0  0  0  0  0  0  0  0  0  0
   23.3840   80.0810   14.8120 C   0  0  0  0  0  3  0  0  0  0  0  0
   21.7190   80.4740   10.3350 C   0  0  0  0  0  2  0  0  0  0  0  0
   22.1570   79.0730   10.0620 C   0  0  0  0  0  2  0  0  0  0  0  0
   19.3110   79.6440   17.5500 C   0  0  0  0  0  2  0  0  0  0  0  0
   19.6440   80.9260   18.1750 C   0  0  0  0  0  0  0  0  0  0  0  0
   20.4140   81.6700   17.4200 O   0  0  0  0  0  0  0  0  0  0  0  0
   19.2980   81.4800   19.3740 N   0  0  0  0  0  0  0  0  0  0  0  0
   18.7080   80.9850   20.1220 H   0  0  0  0  0  0  0  0  0  0  0  0
   19.6340   82.8410   19.7980 C   0  0  0  0  0  2  0  0  0  0  0  0
   19.8420   82.8510   21.2600 C   0  0  0  0  0  0  0  0  0  0  0  0
   19.0820   83.7000   22.0970 C   0  0  0  0  0  0  0  0  0  0  0  0
   19.3300   83.8430   23.4080 C   0  0  0  0  0  3  0  0  0  0  0  0
   17.7280   84.5960   21.3650 Cl  0  0  0  0  0  0  0  0  0  0  0  0
   20.3990   83.1200   24.0250 C   0  0  0  0  0  3  0  0  0  0  0  0
   21.1330   82.3200   23.2460 C   0  0  0  0  0  3  0  0  0  0  0  0
   20.8990   82.1560   21.8760 C   0  0  0  0  0  3  0  0  0  0  0  0
  1  2  1  0  0  0  0
  2  3  1  0  0  0  0
  4 20  1  0  0  0  0
  4  3  1  0  0  0  0
  5  4  1  0  0  0  0
  6  5  1  0  0  0  0
  6  1  1  0  0  0  0
  7  8  2  0  0  0  0
  7  1  1  0  0  0  0
  9  7  2  0  0  0  0
 10 17  1  0  0  0  0
 10  7  1  0  0  0  0
 11 10  2  0  0  0  0
 12 13  2  0  0  0  0
 12 11  1  0  0  0  0
 13 15  1  0  0  0  0
 14 12  1  0  0  0  0
 15 17  2  0  0  0  0
 16 13  1  0  0  0  0
 18 16  1  0  0  0  0
 19 18  1  0  0  0  0
 19 14  1  0  0  0  0
 20 21  1  0  0  0  0
 21 23  1  0  0  0  0
 22 21  2  0  0  0  0
 23 25  1  0  0  0  0
 23 24  1  0  0  0  0
 25 26  1  0  0  0  0
 26 32  2  0  0  0  0
 26 27  1  0  0  0  0
 27 28  2  0  0  0  0
 28 30  1  0  0  0  0
 29 27  1  0  0  0  0
 31 30  2  0  0  0  0
 32 31  1  0  0  0  0
M  END
>  <Pose>
1

>  <Score>
-10.899

$$$$
