/Users/jonathanwahrer/Desktop/Msc/3_Semester/Drug_Design_Praktikum/waehrer_HTS_screening/HTS_experiment/out/docking_results/vina_output/6e43/2286_docked.pdbqt
 OpenBabel03212221063D

 31 34  0  0  0  0  0  0  0  0999 V2000
   21.0160   79.4450   18.4310 N   0  0  0  0  0  0  0  0  0  0  0  0
   20.1090   78.4630   18.9020 C   0  0  0  0  0  2  0  0  0  0  0  0
   19.5170   77.6000   17.8190 C   0  0  0  0  0  2  0  0  0  0  0  0
   20.4860   77.2610   16.7990 N   0  0  0  0  0  0  0  0  0  0  0  0
   21.8710   77.5640   17.1060 C   0  0  0  0  0  2  0  0  0  0  0  0
   22.0420   78.9930   17.5600 C   0  0  0  0  0  2  0  0  0  0  0  0
   20.0590   76.6770   15.6000 C   0  0  0  0  0  0  0  0  0  0  0  0
   18.8360   76.4550   15.4300 O   0  0  0  0  0  0  0  0  0  0  0  0
   21.0020   76.3070   14.5140 C   0  0  0  0  0  2  0  0  0  0  0  0
   20.8550   77.1480   13.3580 N   0  0  0  0  0  0  0  0  0  0  0  0
   19.9680   76.8860   12.2820 C   0  0  0  0  0  0  0  0  0  0  0  0
   19.1940   75.8720   12.2080 O   0  0  0  0  0  0  0  0  0  0  0  0
   20.0430   77.8940   11.2830 N   0  0  0  0  0  0  0  0  0  0  0  0
   21.1820   78.7290   11.6160 C   0  0  0  0  0  0  0  0  0  0  0  0
   19.1330   78.0410   10.1470 C   0  0  0  0  0  1  0  0  0  0  0  0
   20.8450   80.1920   11.5860 C   0  0  0  0  0  2  0  0  0  0  0  0
   22.2970   78.3560   10.6680 C   0  0  0  0  0  2  0  0  0  0  0  0
   21.5070   78.3640   13.0180 C   0  0  0  0  0  0  0  0  0  0  0  0
   20.9430   80.8070   10.2210 C   0  0  0  0  0  2  0  0  0  0  0  0
   22.2340   80.5120    9.5160 C   0  0  0  0  0  2  0  0  0  0  0  0
   23.1210   79.5710   10.3030 C   0  0  0  0  0  2  0  0  0  0  0  0
   22.2380   79.0030   13.8110 O   0  0  0  0  0  0  0  0  0  0  0  0
   20.2960   80.9250   17.9610 S   0  0  0  0  0  0  0  0  0  0  0  0
   18.9660   80.6480   17.3300 O   0  0  0  0  0  0  0  0  0  0  0  0
   21.1450   81.6520   16.9600 O   0  0  0  0  0  0  0  0  0  0  0  0
   20.0950   82.0180   19.3400 C   0  0  0  0  0  0  0  0  0  0  0  0
   19.6210   81.6470   20.9290 S   0  0  0  0  0  0  0  0  0  0  0  0
   19.6730   83.2070   21.6050 C   0  0  0  0  0  0  0  0  0  0  0  0
   20.0660   83.9940   20.5550 C   0  0  0  0  0  3  0  0  0  0  0  0
   19.3120   83.7280   23.2650 Cl  0  0  0  0  0  0  0  0  0  0  0  0
   20.2860   83.3730   19.3740 C   0  0  0  0  0  3  0  0  0  0  0  0
  1  2  1  0  0  0  0
  3  2  1  0  0  0  0
  4  5  1  0  0  0  0
  4  3  1  0  0  0  0
  5  6  1  0  0  0  0
  6  1  1  0  0  0  0
  7  4  1  0  0  0  0
  8  7  2  0  0  0  0
  9  7  1  0  0  0  0
 10  9  1  0  0  0  0
 11 10  1  0  0  0  0
 12 11  2  0  0  0  0
 13 14  1  0  0  0  0
 13 11  1  0  0  0  0
 14 18  1  0  0  0  0
 15 13  1  0  0  0  0
 16 14  1  0  0  0  0
 17 14  1  0  0  0  0
 18 10  1  0  0  0  0
 18 22  2  0  0  0  0
 19 16  1  0  0  0  0
 20 19  1  0  0  0  0
 20 21  1  0  0  0  0
 21 17  1  0  0  0  0
 23  1  1  0  0  0  0
 23 26  1  0  0  0  0
 24 23  2  0  0  0  0
 25 23  2  0  0  0  0
 26 31  2  0  0  0  0
 26 27  1  0  0  0  0
 27 28  1  0  0  0  0
 28 30  1  0  0  0  0
 29 28  2  0  0  0  0
 31 29  1  0  0  0  0
M  END
>  <Pose>
1

>  <Score>
-10.068

$$$$
