/Users/jonathanwahrer/Desktop/Msc/3_Semester/Drug_Design_Praktikum/waehrer_HTS_screening/HTS_experiment/out/docking_results/vina_output/6e43/2301_docked.pdbqt
 OpenBabel03212221063D

 24 27  0  0  1  0  0  0  0  0999 V2000
   20.8480   77.8630   17.9440 C   0  0  2  0  0  0  0  0  0  0  0  0
   19.5830   78.4340   18.4920 C   0  0  0  0  0  2  0  0  0  0  0  0
   19.3620   79.8630   17.9650 C   0  0  0  0  0  2  0  0  0  0  0  0
   20.4870   80.6020   18.5570 N   0  0  0  0  0  0  0  0  0  0  0  0
   21.7730   80.2160   18.0680 C   0  0  0  0  0  2  0  0  0  0  0  0
   22.0280   78.7390   18.1440 C   0  0  0  0  0  2  0  0  0  0  0  0
   20.6260   77.4100   16.5610 C   0  0  0  0  0  0  0  0  0  0  0  0
   21.4130   77.7100   15.4860 C   0  0  0  0  0  3  0  0  0  0  0  0
   21.0850   77.2190   14.2530 C   0  0  0  0  0  3  0  0  0  0  0  0
   19.9790   76.4160   14.0110 C   0  0  0  0  0  0  0  0  0  0  0  0
   19.6050   75.8010   12.4140 Cl  0  0  0  0  0  0  0  0  0  0  0  0
   19.1920   76.1200   15.0960 C   0  0  0  0  0  3  0  0  0  0  0  0
   19.5060   76.6070   16.3500 C   0  0  0  0  0  3  0  0  0  0  0  0
   21.0800   76.6720   18.6780 O   0  0  0  0  0  0  0  0  0  0  0  0
   21.8400   76.1960   18.2210 H   0  0  0  0  0  0  0  0  0  0  0  0
   20.2140   81.5970   19.5260 C   0  0  0  0  0  0  0  0  0  0  0  0
   19.3470   82.5830   19.2390 N   0  0  0  0  0  0  0  0  0  0  0  0
   19.0030   83.5570   20.0580 N   0  0  0  0  0  0  0  0  0  0  0  0
   18.1820   84.6080   19.9860 N   0  0  0  0  0  0  0  0  0  0  0  0
   19.5360   83.6030   21.2770 C   0  0  0  0  0  0  0  0  0  0  0  0
   18.1990   85.2870   21.1110 N   0  0  0  0  0  0  0  0  0  0  0  0
   19.0260   84.6830   21.9190 N   0  0  0  0  0  0  0  0  0  0  0  0
   20.4390   82.6200   21.6460 C   0  0  0  0  0  3  0  0  0  0  0  0
   20.7870   81.6090   20.7760 C   0  0  0  0  0  3  0  0  0  0  0  0
  1  6  1  0  0  0  0
  1  2  1  0  0  0  0
  1 14  1  1  0  0  0
  3  2  1  0  0  0  0
  3  4  1  0  0  0  0
  4 16  1  0  0  0  0
  5  6  1  0  0  0  0
  5  4  1  0  0  0  0
  7  1  1  0  0  0  0
  8  7  2  0  0  0  0
  9  8  1  0  0  0  0
 10  9  2  0  0  0  0
 10 12  1  0  0  0  0
 11 10  1  0  0  0  0
 12 13  2  0  0  0  0
 13  7  1  0  0  0  0
 15 14  1  0  0  0  0
 16 24  1  0  0  0  0
 17 16  2  0  0  0  0
 17 18  1  0  0  0  0
 18 20  1  0  0  0  0
 19 18  1  0  0  0  0
 19 21  2  0  0  0  0
 20 23  1  0  0  0  0
 20 22  2  0  0  0  0
 21 22  1  0  0  0  0
 24 23  2  0  0  0  0
M  END
>  <Pose>
1

>  <Score>
-9.792

$$$$
