/Users/jonathanwahrer/Desktop/Msc/3_Semester/Drug_Design_Praktikum/waehrer_HTS_screening/HTS_experiment/out/docking_results/vina_output/6e43/2304_docked.pdbqt
 OpenBabel03212221063D

 28 31  0  0  1  0  0  0  0  0999 V2000
   24.0140   78.0220   15.0880 N   0  0  0  0  0  0  0  0  0  0  0  0
   24.5380   79.0480   14.2680 C   0  0  0  0  0  2  0  0  0  0  0  0
   23.9520   79.1150   12.8820 C   0  0  0  0  0  2  0  0  0  0  0  0
   22.5270   78.9380   12.8620 N   0  0  0  0  0  0  0  0  0  0  0  0
   21.9110   78.4630   14.0750 C   0  0  0  0  0  2  0  0  0  0  0  0
   22.8280   77.3810   14.6390 C   0  0  0  0  0  2  0  0  0  0  0  0
   21.7980   79.2190   11.6950 C   0  0  0  0  0  0  0  0  0  0  0  0
   22.4490   79.6170   10.6880 O   0  0  0  0  0  0  0  0  0  0  0  0
   20.3210   79.0770   11.5750 C   0  0  2  0  0  3  0  0  0  0  0  0
   19.9480   77.7740   11.1600 N   0  0  0  0  0  0  0  0  0  0  0  0
   19.8460   77.5580    9.7540 C   0  0  2  0  0  0  0  0  0  0  0  0
   19.6180   76.4980   11.7550 C   0  0  0  0  0  0  0  0  0  0  0  0
   19.3280   79.1740    9.1390 S   0  0  0  0  0  0  0  0  0  0  0  0
   18.6490   76.6330    9.6440 C   0  0  0  0  0  2  0  0  0  0  0  0
   21.0450   77.0140    9.0850 C   0  0  0  0  0  1  0  0  0  0  0  0
   19.7180   80.1090   10.6700 C   0  0  0  0  0  2  0  0  0  0  0  0
   19.0220   75.6290   10.7430 C   0  0  0  0  0  2  0  0  0  0  0  0
   19.8000   76.1480   12.9600 O   0  0  0  0  0  0  0  0  0  0  0  0
   24.1200   78.2860   16.7600 S   0  0  0  0  0  0  0  0  0  0  0  0
   24.7380   77.1100   17.4510 O   0  0  0  0  0  0  0  0  0  0  0  0
   25.0390   79.4590   16.9990 O   0  0  0  0  0  0  0  0  0  0  0  0
   22.5730   78.7040   17.4910 C   0  0  0  0  0  0  0  0  0  0  0  0
   22.0580   79.9740   17.3600 C   0  0  0  0  0  3  0  0  0  0  0  0
   20.8550   80.3340   17.9200 C   0  0  0  0  0  3  0  0  0  0  0  0
   20.1010   79.4280   18.6440 C   0  0  0  0  0  0  0  0  0  0  0  0
   20.6440   78.1600   18.7590 C   0  0  0  0  0  3  0  0  0  0  0  0
   18.5640   79.8520   19.3700 Cl  0  0  0  0  0  0  0  0  0  0  0  0
   21.8440   77.7870   18.2050 C   0  0  0  0  0  3  0  0  0  0  0  0
  1 19  1  0  0  0  0
  2  1  1  0  0  0  0
  3  2  1  0  0  0  0
  4  3  1  0  0  0  0
  4  5  1  0  0  0  0
  5  6  1  0  0  0  0
  6  1  1  0  0  0  0
  7  4  1  0  0  0  0
  8  7  2  0  0  0  0
  9  7  1  6  0  0  0
 10  9  1  0  0  0  0
 10 12  1  0  0  0  0
 11 15  1  6  0  0  0
 11 10  1  0  0  0  0
 12 18  2  0  0  0  0
 13 11  1  0  0  0  0
 13 16  1  0  0  0  0
 14 11  1  0  0  0  0
 14 17  1  0  0  0  0
 16  9  1  0  0  0  0
 17 12  1  0  0  0  0
 19 21  2  0  0  0  0
 19 20  2  0  0  0  0
 19 22  1  0  0  0  0
 22 28  1  0  0  0  0
 23 22  2  0  0  0  0
 23 24  1  0  0  0  0
 24 25  2  0  0  0  0
 25 26  1  0  0  0  0
 25 27  1  0  0  0  0
 28 26  2  0  0  0  0
M  END
>  <Pose>
1

>  <Score>
-8.534

$$$$
