/Users/jonathanwahrer/Desktop/Msc/3_Semester/Drug_Design_Praktikum/waehrer_HTS_screening/HTS_experiment/out/docking_results/vina_output/6e43/2330_docked.pdbqt
 OpenBabel03212221073D

 28 31  0  0  0  0  0  0  0  0999 V2000
   21.1370   77.9410   16.3280 C   0  0  0  0  0  0  0  0  0  0  0  0
   20.7600   76.7550   16.4650 O   0  0  0  0  0  0  0  0  0  0  0  0
   20.5500   78.9400   17.1070 N   0  0  0  0  0  0  0  0  0  0  0  0
   20.9560   79.9250   16.9180 H   0  0  0  0  0  0  0  0  0  0  0  0
   22.1940   78.2010   15.3340 C   0  0  0  0  0  0  0  0  0  0  0  0
   23.5330   78.0960   15.6480 C   0  0  0  0  0  0  0  0  0  0  0  0
   23.9490   77.6350   17.2930 Cl  0  0  0  0  0  0  0  0  0  0  0  0
   24.5320   78.3420   14.7090 C   0  0  0  0  0  3  0  0  0  0  0  0
   24.1680   78.6990   13.4380 C   0  0  0  0  0  3  0  0  0  0  0  0
   22.8230   78.8190   13.0690 C   0  0  0  0  0  0  0  0  0  0  0  0
   21.8900   78.5640   14.0390 C   0  0  0  0  0  3  0  0  0  0  0  0
   22.4790   79.2020   11.7070 C   0  0  0  0  0  0  0  0  0  0  0  0
   21.5470   80.0550   11.2740 N   0  0  0  0  0  0  0  0  0  0  0  0
   21.5850   80.0990    9.9320 N   0  0  0  0  0  0  0  0  0  0  0  0
   22.5350   79.2780    9.5200 N   0  0  0  0  0  0  0  0  0  0  0  0
   20.9780   80.6740    9.3040 H   0  0  0  0  0  0  0  0  0  0  0  0
   23.0840   78.7290   10.6060 N   0  0  0  0  0  0  0  0  0  0  0  0
   19.5360   78.8820   18.0790 C   0  0  0  0  0  2  0  0  0  0  0  0
   19.4670   79.8700   19.1630 C   0  0  0  0  0  2  0  0  0  0  0  0
   19.7400   81.2760   18.8780 C   0  0  0  0  0  0  0  0  0  0  0  0
   19.5030   82.3310   19.6640 N   0  0  0  0  0  0  0  0  0  0  0  0
   19.9380   83.4170   19.0450 C   0  0  0  0  0  0  0  0  0  0  0  0
   18.9380   82.4280   20.8830 C   0  0  0  0  0  3  0  0  0  0  0  0
   20.4480   83.0370   17.8660 N   0  0  0  0  0  0  0  0  0  0  0  0
   19.8390   84.6760   19.5980 C   0  0  0  0  0  3  0  0  0  0  0  0
   20.3260   81.7410   17.7690 N   0  0  0  0  0  0  0  0  0  0  0  0
   19.2580   84.7750   20.8490 C   0  0  0  0  0  3  0  0  0  0  0  0
   18.8110   83.6470   21.4820 C   0  0  0  0  0  3  0  0  0  0  0  0
  1  2  2  0  0  0  0
  1  3  1  0  0  0  0
  3 18  1  0  0  0  0
  4  3  1  0  0  0  0
  5  6  1  0  0  0  0
  5  1  1  0  0  0  0
  6  7  1  0  0  0  0
  8  6  2  0  0  0  0
  9  8  1  0  0  0  0
 10  9  2  0  0  0  0
 10 11  1  0  0  0  0
 11  5  2  0  0  0  0
 12 10  1  0  0  0  0
 13 12  2  0  0  0  0
 14 13  1  0  0  0  0
 15 14  1  0  0  0  0
 15 17  2  0  0  0  0
 16 14  1  0  0  0  0
 17 12  1  0  0  0  0
 18 19  1  0  0  0  0
 20 19  1  0  0  0  0
 20 21  1  0  0  0  0
 21 23  1  0  0  0  0
 22 25  1  0  0  0  0
 22 21  1  0  0  0  0
 23 28  2  0  0  0  0
 24 22  2  0  0  0  0
 25 27  2  0  0  0  0
 26 24  1  0  0  0  0
 26 20  2  0  0  0  0
 27 28  1  0  0  0  0
M  END
>  <Pose>
1

>  <Score>
-10.044

$$$$
