/Users/jonathanwahrer/Desktop/Msc/3_Semester/Drug_Design_Praktikum/waehrer_HTS_screening/HTS_experiment/out/docking_results/vina_output/6e43/2334_docked.pdbqt
 OpenBabel03212221073D

 30 33  0  0  1  0  0  0  0  0999 V2000
   22.5840   78.5890   15.3430 S   0  0  0  0  0  0  0  0  0  0  0  0
   23.2270   77.2590   15.7420 O   0  0  0  0  0  0  0  0  0  0  0  0
   23.6650   79.6310   15.6510 O   0  0  0  0  0  0  0  0  0  0  0  0
   22.3100   78.5110   13.6730 N   0  0  0  0  0  0  0  0  0  0  0  0
   21.2870   79.3470   13.1530 C   0  0  0  0  0  2  0  0  0  0  0  0
   21.1320   79.2400   11.6540 C   0  0  1  0  0  3  0  0  0  0  0  0
   22.4280   79.5180   10.9750 C   0  0  0  0  0  2  0  0  0  0  0  0
   23.5630   78.7050   11.5740 C   0  0  0  0  0  2  0  0  0  0  0  0
   23.5840   78.9200   13.0470 C   0  0  0  0  0  2  0  0  0  0  0  0
   20.4410   78.0140   11.2040 C   0  0  0  0  0  0  0  0  0  0  0  0
   19.9120   77.3110   12.1420 O   0  0  0  0  0  0  0  0  0  0  0  0
   20.3000   77.5510    9.9030 N   0  0  0  0  0  0  0  0  0  0  0  0
   19.5690   76.3600    9.6020 C   0  0  0  0  0  2  0  0  0  0  0  0
   20.8980   78.2340    8.7820 C   0  0  0  0  0  2  0  0  0  0  0  0
   18.8040   76.4300    8.3100 C   0  0  0  0  0  2  0  0  0  0  0  0
   19.2780   77.3180    7.3950 O   0  0  0  0  0  0  0  0  0  0  0  0
   19.6950   78.5420    7.8740 C   0  0  0  0  0  2  0  0  0  0  0  0
   21.2370   78.9120   16.3520 C   0  0  0  0  0  0  0  0  0  0  0  0
   20.2510   77.9870   16.5920 C   0  0  0  0  0  0  0  0  0  0  0  0
   19.2200   78.2850   17.4700 C   0  0  0  0  0  3  0  0  0  0  0  0
   20.1620   76.4400   15.7780 Cl  0  0  0  0  0  0  0  0  0  0  0  0
   19.1560   79.5190   18.1250 C   0  0  0  0  0  3  0  0  0  0  0  0
   20.1370   80.4560   17.8920 C   0  0  0  0  0  0  0  0  0  0  0  0
   21.1500   80.1410   17.0170 C   0  0  0  0  0  3  0  0  0  0  0  0
   20.0930   81.7500   18.5590 C   0  0  0  0  0  0  0  0  0  0  0  0
   20.3610   82.9410   17.9970 N   0  0  0  0  0  0  0  0  0  0  0  0
   20.2260   83.8900   18.8820 O   0  0  0  0  0  0  0  0  0  0  0  0
   19.8740   83.3600   20.0230 C   0  0  0  0  0  0  0  0  0  0  0  0
   19.7890   82.0290   19.8370 N   0  0  0  0  0  0  0  0  0  0  0  0
   19.6120   84.0880   21.3140 C   0  0  0  0  0  1  0  0  0  0  0  0
  1  3  2  0  0  0  0
  1  2  2  0  0  0  0
  1 18  1  0  0  0  0
  4  1  1  0  0  0  0
  5  4  1  0  0  0  0
  6 10  1  1  0  0  0
  6  5  1  0  0  0  0
  7  8  1  0  0  0  0
  7  6  1  0  0  0  0
  8  9  1  0  0  0  0
  9  4  1  0  0  0  0
 10 11  2  0  0  0  0
 12 10  1  0  0  0  0
 13 12  1  0  0  0  0
 14 12  1  0  0  0  0
 15 13  1  0  0  0  0
 16 17  1  0  0  0  0
 16 15  1  0  0  0  0
 17 14  1  0  0  0  0
 18 19  2  0  0  0  0
 18 24  1  0  0  0  0
 19 20  1  0  0  0  0
 20 22  2  0  0  0  0
 21 19  1  0  0  0  0
 23 22  1  0  0  0  0
 23 25  1  0  0  0  0
 24 23  2  0  0  0  0
 25 29  1  0  0  0  0
 26 25  2  0  0  0  0
 26 27  1  0  0  0  0
 27 28  1  0  0  0  0
 28 30  1  0  0  0  0
 29 28  2  0  0  0  0
M  END
>  <Pose>
1

>  <Score>
-10.389

$$$$
