/Users/jonathanwahrer/Desktop/Msc/3_Semester/Drug_Design_Praktikum/waehrer_HTS_screening/HTS_experiment/out/docking_results/vina_output/6e43/2345_docked.pdbqt
 OpenBabel03212221073D

 27 30  0  0  1  0  0  0  0  0999 V2000
   22.7930   79.6110   12.6760 C   0  0  0  0  0  0  0  0  0  0  0  0
   22.3860   80.6390   13.3350 O   0  0  0  0  0  0  0  0  0  0  0  0
   22.7360   79.7080   11.2820 N   0  0  0  0  0  0  0  0  0  0  0  0
   22.2250   80.9160   10.6520 C   0  0  0  0  0  2  0  0  0  0  0  0
   21.0530   80.5860    9.7330 C   0  0  0  0  0  2  0  0  0  0  0  0
   21.2810   79.3070    9.1280 N   0  0  0  0  0  0  0  0  0  0  0  0
   22.6280   78.8500    8.9710 C   0  0  0  0  0  2  0  0  0  0  0  0
   23.1680   78.6500   10.4010 C   0  0  0  0  0  2  0  0  0  0  0  0
   23.2660   78.4660   13.4630 C   0  0  2  0  0  3  0  0  0  0  0  0
   22.2450   77.8660   14.3900 C   0  0  0  0  0  2  0  0  0  0  0  0
   22.7090   78.1370   15.7450 N   0  0  0  0  0  0  0  0  0  0  0  0
   24.1430   78.2700   15.6360 C   0  0  0  0  0  0  0  0  0  0  0  0
   24.5040   78.6960   14.2640 C   0  0  0  0  0  2  0  0  0  0  0  0
   24.8960   78.0320   16.6360 O   0  0  0  0  0  0  0  0  0  0  0  0
   21.9350   78.2490   16.9350 C   0  0  0  0  0  0  0  0  0  0  0  0
   21.3160   77.1630   17.5150 C   0  0  0  0  0  3  0  0  0  0  0  0
   20.5610   77.2690   18.6690 C   0  0  0  0  0  3  0  0  0  0  0  0
   20.4050   78.4840   19.2810 C   0  0  0  0  0  0  0  0  0  0  0  0
   19.4450   78.6380   20.7520 Cl  0  0  0  0  0  0  0  0  0  0  0  0
   21.0060   79.5830   18.7320 C   0  0  0  0  0  3  0  0  0  0  0  0
   21.7690   79.4660   17.5620 C   0  0  0  0  0  3  0  0  0  0  0  0
   20.2010   78.5050    8.7010 C   0  0  0  0  0  0  0  0  0  0  0  0
   19.4900   77.6270    9.4610 N   0  0  0  0  0  0  0  0  0  0  0  0
   18.5420   77.0610    8.7000 C   0  0  0  0  0  3  0  0  0  0  0  0
   19.7260   77.3450   10.8830 C   0  0  0  0  0  1  0  0  0  0  0  0
   18.6440   77.5800    7.4310 C   0  0  0  0  0  3  0  0  0  0  0  0
   19.6480   78.4380    7.4740 N   0  0  0  0  0  0  0  0  0  0  0  0
  1  2  2  0  0  0  0
  3  1  1  0  0  0  0
  4  3  1  0  0  0  0
  5  4  1  0  0  0  0
  6  5  1  0  0  0  0
  7  6  1  0  0  0  0
  7  8  1  0  0  0  0
  8  3  1  0  0  0  0
  9  1  1  1  0  0  0
  9 13  1  0  0  0  0
  9 10  1  0  0  0  0
 10 11  1  0  0  0  0
 11 15  1  0  0  0  0
 12 11  1  0  0  0  0
 12 14  2  0  0  0  0
 13 12  1  0  0  0  0
 15 16  2  0  0  0  0
 15 21  1  0  0  0  0
 16 17  1  0  0  0  0
 17 18  2  0  0  0  0
 18 19  1  0  0  0  0
 20 18  1  0  0  0  0
 21 20  2  0  0  0  0
 22  6  1  0  0  0  0
 22 23  1  0  0  0  0
 23 25  1  0  0  0  0
 24 23  1  0  0  0  0
 26 27  1  0  0  0  0
 26 24  2  0  0  0  0
 27 22  2  0  0  0  0
M  END
>  <Pose>
1

>  <Score>
-8.854

$$$$
