/Users/jonathanwahrer/Desktop/Msc/3_Semester/Drug_Design_Praktikum/waehrer_HTS_screening/HTS_experiment/out/docking_results/vina_output/6e43/2350_docked.pdbqt
 OpenBabel03212221083D

 23 26  0  0  1  0  0  0  0  0999 V2000
   22.6090   78.8590   15.7030 N   0  0  0  0  0  0  0  0  0  0  0  0
   22.2080   79.9160   16.5900 C   0  0  0  0  0  0  0  0  0  0  0  0
   22.0040   81.0960   16.2090 O   0  0  0  0  0  0  0  0  0  0  0  0
   22.0780   79.4150   17.9810 C   0  0  1  0  0  3  0  0  0  0  0  0
   20.6850   79.4810   18.5170 C   0  0  1  0  0  3  0  0  0  0  0  0
   19.7410   79.3170   17.3440 C   0  0  1  0  0  3  0  0  0  0  0  0
   20.0440   77.8830   16.9110 C   0  0  1  0  0  3  0  0  0  0  0  0
   21.0020   77.3300   17.9400 C   0  0  1  0  0  3  0  0  0  0  0  0
   22.3760   77.9160   17.8460 C   0  0  1  0  0  3  0  0  0  0  0  0
   23.0120   77.7670   16.5150 C   0  0  0  0  0  0  0  0  0  0  0  0
   23.7740   76.8210   16.1970 O   0  0  0  0  0  0  0  0  0  0  0  0
   20.4860   78.1050   19.1740 C   0  0  0  0  0  2  0  0  0  0  0  0
   22.6180   78.8450   14.2830 C   0  0  0  0  0  0  0  0  0  0  0  0
   23.8060   79.0650   13.5760 C   0  0  0  0  0  3  0  0  0  0  0  0
   23.8180   79.0600   12.2010 C   0  0  0  0  0  3  0  0  0  0  0  0
   22.6660   78.8390   11.4710 C   0  0  0  0  0  0  0  0  0  0  0  0
   22.7100   78.8430    9.7090 Cl  0  0  0  0  0  0  0  0  0  0  0  0
   21.4750   78.6190   12.1480 C   0  0  0  0  0  3  0  0  0  0  0  0
   21.4920   78.6280   13.5230 C   0  0  0  0  0  3  0  0  0  0  0  0
   18.4520   79.3410   17.8320 O   0  0  0  0  0  0  0  0  0  0  0  0
   17.8580   78.6400   17.4770 H   0  0  0  0  0  0  0  0  0  0  0  0
   18.9010   77.0890   16.9830 O   0  0  0  0  0  0  0  0  0  0  0  0
   18.2350   77.5790   17.5520 H   0  0  0  0  0  0  0  0  0  0  0  0
  1 10  1  0  0  0  0
  1  2  1  0  0  0  0
  3  2  2  0  0  0  0
  4  2  1  6  0  0  0
  4  5  1  0  0  0  0
  5 12  1  1  0  0  0
  6 20  1  1  0  0  0
  6  5  1  0  0  0  0
  7 22  1  1  0  0  0
  7  6  1  0  0  0  0
  7  8  1  0  0  0  0
  8 12  1  1  0  0  0
  9 10  1  6  0  0  0
  9  8  1  0  0  0  0
  9  4  1  0  0  0  0
 11 10  2  0  0  0  0
 13  1  1  0  0  0  0
 14 13  1  0  0  0  0
 15 14  2  0  0  0  0
 16 18  2  0  0  0  0
 16 15  1  0  0  0  0
 17 16  1  0  0  0  0
 18 19  1  0  0  0  0
 19 13  2  0  0  0  0
 21 20  1  0  0  0  0
 22 23  1  0  0  0  0
M  END
>  <Pose>
1

>  <Score>
-9.237

$$$$
