/Users/jonathanwahrer/Desktop/Msc/3_Semester/Drug_Design_Praktikum/waehrer_HTS_screening/HTS_experiment/out/docking_results/vina_output/6e43/2357_docked.pdbqt
 OpenBabel03212221083D

 36 39  0  0  1  0  0  0  0  0999 V2000
   22.3180   78.4780   13.5810 C   0  0  2  0  0  3  0  0  0  0  0  0
   22.7060   78.3060   12.3330 C   0  0  0  0  0  2  0  0  0  0  0  0
   22.4790   79.5500   11.5540 C   0  0  2  0  0  3  0  0  0  0  0  0
   22.3630   80.5480   12.5800 N   0  0  0  0  0  0  0  0  0  0  0  0
   21.8440   79.8180   13.6610 N   0  0  0  0  0  0  0  0  0  0  0  0
   21.8170   81.3700   12.3300 H   0  0  0  0  0  0  0  0  0  0  0  0
   21.2170   80.2100   14.3910 H   0  0  0  0  0  0  0  0  0  0  0  0
   22.3650   77.4840   14.7080 C   0  0  1  0  0  3  0  0  0  0  0  0
   23.7640   77.2570   15.1360 C   0  0  0  0  0  0  0  0  0  0  0  0
   24.3420   78.0890   16.1220 N   0  0  0  0  0  0  0  0  0  0  0  0
   24.4210   76.3320   14.6200 O   0  0  0  0  0  0  0  0  0  0  0  0
   23.5400   78.8790   16.9510 C   0  0  0  0  0  0  0  0  0  0  0  0
   25.3930   78.1360   16.2630 H   0  0  0  0  0  0  0  0  0  0  0  0
   22.1250   78.8670   16.8230 N   0  0  0  0  0  0  0  0  0  0  0  0
   24.0360   79.6410   17.8520 O   0  0  0  0  0  0  0  0  0  0  0  0
   21.5590   78.0270   15.8280 C   0  0  0  0  0  0  0  0  0  0  0  0
   20.3530   77.7330   15.8920 O   0  0  0  0  0  0  0  0  0  0  0  0
   21.3270   79.6780   17.6740 C   0  0  0  0  0  0  0  0  0  0  0  0
   21.0480   80.9770   17.3360 C   0  0  0  0  0  3  0  0  0  0  0  0
   20.2740   81.7890   18.1400 C   0  0  0  0  0  3  0  0  0  0  0  0
   19.7580   81.3050   19.3160 C   0  0  0  0  0  0  0  0  0  0  0  0
   18.7630   82.3270   20.3620 Cl  0  0  0  0  0  0  0  0  0  0  0  0
   20.0260   80.0050   19.6740 C   0  0  0  0  0  3  0  0  0  0  0  0
   20.8130   79.1960   18.8450 C   0  0  0  0  0  3  0  0  0  0  0  0
   21.2870   79.3760   10.7330 C   0  0  0  0  0  0  0  0  0  0  0  0
   21.3670   78.5640    9.6220 C   0  0  0  0  0  3  0  0  0  0  0  0
   20.2960   78.3330    8.7840 C   0  0  0  0  0  0  0  0  0  0  0  0
   19.0820   78.9620    9.0900 C   0  0  0  0  0  0  0  0  0  0  0  0
   18.9530   79.7840   10.1880 C   0  0  0  0  0  0  0  0  0  0  0  0
   20.0680   79.9680   10.9810 C   0  0  0  0  0  3  0  0  0  0  0  0
   20.3660   77.5160    7.6630 O   0  0  0  0  0  0  0  0  0  0  0  0
   19.9850   76.1660    7.8340 C   0  0  0  0  0  1  0  0  0  0  0  0
   17.9840   78.7640    8.2840 O   0  0  0  0  0  0  0  0  0  0  0  0
   18.0970   78.3330    7.3760 H   0  0  0  0  0  0  0  0  0  0  0  0
   17.7500   80.3730   10.4400 O   0  0  0  0  0  0  0  0  0  0  0  0
   17.5060   81.4330   11.3190 C   0  0  0  0  0  1  0  0  0  0  0  0
  1  2  1  1  0  0  0
  1  5  1  0  0  0  0
  1  8  1  0  0  0  0
  3 25  1  1  0  0  0
  3  2  1  0  0  0  0
  3  4  1  0  0  0  0
  4  5  1  0  0  0  0
  5  7  1  0  0  0  0
  6  4  1  0  0  0  0
  8  9  1  1  0  0  0
  8 16  1  0  0  0  0
  9 10  1  0  0  0  0
 10 13  1  0  0  0  0
 10 12  1  0  0  0  0
 11  9  2  0  0  0  0
 12 15  2  0  0  0  0
 14 12  1  0  0  0  0
 14 18  1  0  0  0  0
 16 17  2  0  0  0  0
 16 14  1  0  0  0  0
 18 24  1  0  0  0  0
 19 18  2  0  0  0  0
 19 20  1  0  0  0  0
 20 21  2  0  0  0  0
 21 23  1  0  0  0  0
 21 22  1  0  0  0  0
 24 23  2  0  0  0  0
 25 30  1  0  0  0  0
 26 25  2  0  0  0  0
 27 28  2  0  0  0  0
 27 26  1  0  0  0  0
 28 29  1  0  0  0  0
 29 35  1  0  0  0  0
 29 30  2  0  0  0  0
 31 32  1  0  0  0  0
 31 27  1  0  0  0  0
 33 28  1  0  0  0  0
 34 33  1  0  0  0  0
 35 36  1  0  0  0  0
M  END
>  <Pose>
1

>  <Score>
-9.378

$$$$
