/Users/jonathanwahrer/Desktop/Msc/3_Semester/Drug_Design_Praktikum/waehrer_HTS_screening/HTS_experiment/out/docking_results/vina_output/6e43/2361_docked.pdbqt
 OpenBabel03212221093D

 30 33  0  0  1  0  0  0  0  0999 V2000
   22.9000   78.8370   14.0820 N   0  0  0  0  0  0  0  0  0  0  0  0
   23.3680   80.0970   14.5260 C   0  0  0  0  0  0  0  0  0  0  0  0
   23.3050   81.0980   13.7700 O   0  0  0  0  0  0  0  0  0  0  0  0
   23.9100   80.2080   15.8540 N   0  0  0  0  0  0  0  0  0  0  0  0
   23.9820   79.0770   16.7120 C   0  0  0  0  0  0  0  0  0  0  0  0
   24.7460   79.1050   17.7080 O   0  0  0  0  0  0  0  0  0  0  0  0
   23.1580   77.8940   16.4170 C   0  0  2  0  0  3  0  0  0  0  0  0
   22.9870   77.7310   14.9630 C   0  0  0  0  0  0  0  0  0  0  0  0
   22.9100   76.5560   14.4620 O   0  0  0  0  0  0  0  0  0  0  0  0
   24.2660   81.1160   16.2220 H   0  0  0  0  0  0  0  0  0  0  0  0
   21.8180   77.9940   17.0860 C   0  0  1  0  0  3  0  0  0  0  0  0
   20.7320   78.5740   16.6460 C   0  0  0  0  0  2  0  0  0  0  0  0
   19.6620   78.4210   17.6450 C   0  0  1  0  0  3  0  0  0  0  0  0
   20.1520   77.3970   18.5240 N   0  0  0  0  0  0  0  0  0  0  0  0
   21.5450   77.4300   18.3580 N   0  0  0  0  0  0  0  0  0  0  0  0
   19.7640   76.4730   18.3080 H   0  0  0  0  0  0  0  0  0  0  0  0
   22.2030   77.0790   19.0910 H   0  0  0  0  0  0  0  0  0  0  0  0
   19.5580   79.7130   18.3710 C   0  0  0  0  0  0  0  0  0  0  0  0
   18.9460   79.7680   19.6010 C   0  0  0  0  0  3  0  0  0  0  0  0
   18.8460   80.9480   20.2720 N   0  0  0  0  0  0  0  0  0  0  0  0
   19.3290   82.1010   19.7800 C   0  0  0  0  0  3  0  0  0  0  0  0
   19.9470   82.0820   18.5510 C   0  0  0  0  0  3  0  0  0  0  0  0
   20.0590   80.8740   17.8460 C   0  0  0  0  0  3  0  0  0  0  0  0
   22.3510   78.6800   12.7510 C   0  0  0  0  0  0  0  0  0  0  0  0
   21.0120   78.4330   12.5380 C   0  0  0  0  0  3  0  0  0  0  0  0
   20.4990   78.2830   11.2550 C   0  0  0  0  0  3  0  0  0  0  0  0
   21.3150   78.3770   10.1470 C   0  0  0  0  0  0  0  0  0  0  0  0
   20.6730   78.1900    8.5240 Cl  0  0  0  0  0  0  0  0  0  0  0  0
   22.6540   78.6230   10.3650 C   0  0  0  0  0  3  0  0  0  0  0  0
   23.1630   78.7720   11.6430 C   0  0  0  0  0  3  0  0  0  0  0  0
  1  2  1  0  0  0  0
  1  8  1  0  0  0  0
  2  4  1  0  0  0  0
  3  2  2  0  0  0  0
  4 10  1  0  0  0  0
  4  5  1  0  0  0  0
  5  6  2  0  0  0  0
  7  8  1  6  0  0  0
  7  5  1  0  0  0  0
  7 11  1  0  0  0  0
  9  8  2  0  0  0  0
 11 12  1  6  0  0  0
 11 15  1  0  0  0  0
 12 13  1  0  0  0  0
 13 18  1  1  0  0  0
 13 14  1  0  0  0  0
 15 14  1  0  0  0  0
 15 17  1  0  0  0  0
 16 14  1  0  0  0  0
 18 19  1  0  0  0  0
 19 20  2  0  0  0  0
 21 20  1  0  0  0  0
 22 21  2  0  0  0  0
 23 18  2  0  0  0  0
 23 22  1  0  0  0  0
 24  1  1  0  0  0  0
 25 24  1  0  0  0  0
 26 25  2  0  0  0  0
 27 29  2  0  0  0  0
 27 26  1  0  0  0  0
 28 27  1  0  0  0  0
 29 30  1  0  0  0  0
 30 24  2  0  0  0  0
M  END
>  <Pose>
1

>  <Score>
-10.514

$$$$
