/Users/jonathanwahrer/Desktop/Msc/3_Semester/Drug_Design_Praktikum/waehrer_HTS_screening/HTS_experiment/out/docking_results/vina_output/6e43/2364_docked.pdbqt
 OpenBabel03212221093D

 33 37  0  0  1  0  0  0  0  0999 V2000
   21.5910   77.5030   16.9450 N   0  0  0  0  0  0  0  0  0  0  0  0
   22.8230   77.6590   16.2510 C   0  0  0  0  0  0  0  0  0  0  0  0
   23.8750   77.9520   16.9050 O   0  0  0  0  0  0  0  0  0  0  0  0
   22.9570   77.4990   14.7990 C   0  0  1  0  0  3  0  0  0  0  0  0
   21.7260   77.4050   14.0880 N   0  0  1  0  0  0  0  0  0  0  0  0
   20.6420   76.7760   14.7700 C   0  0  2  0  0  0  0  0  0  0  0  0
   20.5540   75.2760   14.6280 C   0  0  0  0  0  2  0  0  0  0  0  0
   19.3680   75.4240   13.8480 N   0  0  0  0  0  0  0  0  0  0  0  0
   19.3950   76.8320   13.9040 C   0  0  0  0  0  2  0  0  0  0  0  0
   20.4310   77.2730   16.1550 C   0  0  0  0  0  0  0  0  0  0  0  0
   19.2930   77.4930   16.6420 O   0  0  0  0  0  0  0  0  0  0  0  0
   21.3360   78.7260   13.6860 C   0  0  0  0  0  2  0  0  0  0  0  0
   22.4160   79.6800   14.1140 C   0  0  1  0  0  3  0  0  0  0  0  0
   23.6110   78.7840   14.2730 C   0  0  0  0  0  2  0  0  0  0  0  0
   19.2600   74.7430   12.6090 C   0  0  0  0  0  2  0  0  0  0  0  0
   18.8090   73.3490   12.6760 C   0  0  0  0  0  0  0  0  0  0  0  0
   17.5110   73.0300   12.3610 C   0  0  0  0  0  3  0  0  0  0  0  0
   17.0540   71.7110   12.4150 C   0  0  0  0  0  0  0  0  0  0  0  0
   17.9270   70.7160   12.7930 C   0  0  0  0  0  3  0  0  0  0  0  0
   19.2320   71.0070   13.1120 C   0  0  0  0  0  3  0  0  0  0  0  0
   19.6540   72.3330   13.0470 C   0  0  0  0  0  3  0  0  0  0  0  0
   15.7490   71.3870   12.1000 O   0  0  0  0  0  0  0  0  0  0  0  0
   15.5180   70.3820   11.1300 C   0  0  0  0  0  1  0  0  0  0  0  0
   21.5050   77.5750   18.3930 C   0  0  0  0  0  2  0  0  0  0  0  0
   20.6930   78.7750   18.7970 C   0  0  0  0  0  0  0  0  0  0  0  0
   21.0080   80.0310   18.3300 C   0  0  0  0  0  3  0  0  0  0  0  0
   20.2800   81.1480   18.6860 C   0  0  0  0  0  0  0  0  0  0  0  0
   20.7090   82.7290   18.0730 Cl  0  0  0  0  0  0  0  0  0  0  0  0
   19.2040   81.0240   19.5330 C   0  0  0  0  0  3  0  0  0  0  0  0
   18.9070   79.7600   19.9880 C   0  0  0  0  0  3  0  0  0  0  0  0
   19.6150   78.6520   19.6450 C   0  0  0  0  0  3  0  0  0  0  0  0
   22.6320   80.7000   13.1980 O   0  0  0  0  0  0  0  0  0  0  0  0
   22.9150   80.2780   12.3500 H   0  0  0  0  0  0  0  0  0  0  0  0
  1 24  1  0  0  0  0
  2  3  2  0  0  0  0
  2  1  1  0  0  0  0
  4 14  1  6  0  0  0
  4  2  1  0  0  0  0
  5 12  1  1  0  0  0
  5  6  1  0  0  0  0
  5  4  1  0  0  0  0
  6  9  1  6  0  0  0
  6 10  1  0  0  0  0
  7  6  1  0  0  0  0
  8  9  1  0  0  0  0
  8  7  1  0  0  0  0
 10 11  2  0  0  0  0
 10  1  1  0  0  0  0
 12 13  1  0  0  0  0
 13 32  1  6  0  0  0
 13 14  1  0  0  0  0
 15 16  1  0  0  0  0
 15  8  1  0  0  0  0
 16 21  1  0  0  0  0
 17 18  1  0  0  0  0
 17 16  2  0  0  0  0
 18 19  2  0  0  0  0
 19 20  1  0  0  0  0
 21 20  2  0  0  0  0
 22 18  1  0  0  0  0
 23 22  1  0  0  0  0
 24 25  1  0  0  0  0
 25 31  1  0  0  0  0
 26 27  1  0  0  0  0
 26 25  2  0  0  0  0
 27 29  2  0  0  0  0
 28 27  1  0  0  0  0
 29 30  1  0  0  0  0
 31 30  2  0  0  0  0
 33 32  1  0  0  0  0
M  END
>  <Pose>
1

>  <Score>
-9.869

$$$$
