/Users/jonathanwahrer/Desktop/Msc/3_Semester/Drug_Design_Praktikum/waehrer_HTS_screening/HTS_experiment/out/docking_results/vina_output/6e43/2373_docked.pdbqt
 OpenBabel03212221093D

 28 31  0  0  1  0  0  0  0  0999 V2000
   21.6270   78.8180   17.4550 N   0  0  0  0  0  0  0  0  0  0  0  0
   22.7560   78.8290   16.7670 C   0  0  2  0  0  3  0  0  0  0  0  0
   22.6100   78.1760   15.5840 N   0  0  0  0  0  0  0  0  0  0  0  0
   21.3730   77.7370   15.5180 C   0  0  0  0  0  0  0  0  0  0  0  0
   20.7470   78.1500   16.7130 C   0  0  0  0  0  3  0  0  0  0  0  0
   23.6510   78.0650   14.6000 C   0  0  0  0  0  2  0  0  0  0  0  0
   24.6990   77.0480   15.0470 C   0  0  0  0  0  2  0  0  0  0  0  0
   24.7870   77.2210   16.5670 C   0  0  0  0  0  2  0  0  0  0  0  0
   25.2220   78.6330   16.8470 C   0  0  0  0  0  2  0  0  0  0  0  0
   24.0070   79.4690   17.2800 C   0  0  0  0  0  2  0  0  0  0  0  0
   21.2880   79.3770   18.7680 C   0  0  0  0  0  2  0  0  0  0  0  0
   20.7450   80.7360   18.5640 C   0  0  0  0  0  0  0  0  0  0  0  0
   20.6760   81.1600   17.3620 O   0  0  0  0  0  0  0  0  0  0  0  0
   20.2950   81.5970   19.6360 C   0  0  0  0  0  0  0  0  0  0  0  0
   21.0710   81.6840   20.7980 C   0  0  0  0  0  3  0  0  0  0  0  0
   20.6930   82.4790   21.8510 C   0  0  0  0  0  3  0  0  0  0  0  0
   19.5410   83.2240   21.8150 C   0  0  0  0  0  0  0  0  0  0  0  0
   19.0040   84.2530   23.1170 Cl  0  0  0  0  0  0  0  0  0  0  0  0
   18.7800   83.1300   20.6600 C   0  0  0  0  0  3  0  0  0  0  0  0
   19.1490   82.3350   19.5980 C   0  0  0  0  0  3  0  0  0  0  0  0
   20.6760   76.9940   14.4630 C   0  0  0  0  0  0  0  0  0  0  0  0
   20.5740   77.3590   13.1600 C   0  0  0  0  0  3  0  0  0  0  0  0
   19.8360   76.6420   12.2190 C   0  0  0  0  0  3  0  0  0  0  0  0
   19.1680   75.5050   12.5840 C   0  0  0  0  0  0  0  0  0  0  0  0
   19.2530   75.1070   13.8960 C   0  0  0  0  0  3  0  0  0  0  0  0
   19.9860   75.8280   14.8130 C   0  0  0  0  0  3  0  0  0  0  0  0
   18.4170   74.7620   11.6560 O   0  0  0  0  0  0  0  0  0  0  0  0
   18.0600   73.4230   11.8690 C   0  0  0  0  0  1  0  0  0  0  0  0
  1 11  1  0  0  0  0
  2 10  1  1  0  0  0
  2  1  1  0  0  0  0
  3  2  1  0  0  0  0
  4  3  1  0  0  0  0
  4  5  2  0  0  0  0
  5  1  1  0  0  0  0
  6  7  1  0  0  0  0
  6  3  1  0  0  0  0
  7  8  1  0  0  0  0
  8  9  1  0  0  0  0
  9 10  1  0  0  0  0
 12 11  1  0  0  0  0
 12 14  1  0  0  0  0
 13 12  2  0  0  0  0
 14 15  1  0  0  0  0
 15 16  2  0  0  0  0
 17 16  1  0  0  0  0
 17 18  1  0  0  0  0
 19 17  2  0  0  0  0
 20 14  2  0  0  0  0
 20 19  1  0  0  0  0
 21 26  1  0  0  0  0
 21  4  1  0  0  0  0
 22 21  2  0  0  0  0
 23 24  2  0  0  0  0
 23 22  1  0  0  0  0
 24 25  1  0  0  0  0
 25 26  2  0  0  0  0
 27 28  1  0  0  0  0
 27 24  1  0  0  0  0
M  END
>  <Pose>
1

>  <Score>
-10.793

$$$$
