/Users/jonathanwahrer/Desktop/Msc/3_Semester/Drug_Design_Praktikum/waehrer_HTS_screening/HTS_experiment/out/docking_results/vina_output/6e43/2375_docked.pdbqt
 OpenBabel03212221103D

 37 40  0  0  1  0  0  0  0  0999 V2000
   23.4890   77.4080   15.4190 C   0  0  0  0  0  0  0  0  0  0  0  0
   24.6840   76.7770   15.8980 C   0  0  0  0  0  1  0  0  0  0  0  0
   23.5140   78.9120   15.1840 C   0  0  0  0  0  0  0  0  0  0  0  0
   22.9370   79.7890   16.1340 N   0  0  0  0  0  0  0  0  0  0  0  0
   22.5680   81.1500   15.9220 C   0  0  0  0  0  3  0  0  0  0  0  0
   22.9780   79.3920   17.5560 C   0  0  0  0  0  2  0  0  0  0  0  0
   21.3720   81.6330   16.7040 C   0  0  0  0  0  3  0  0  0  0  0  0
   20.8150   80.7280   17.7190 C   0  0  1  0  0  0  0  0  0  0  0  0
   21.7420   79.6670   18.2590 C   0  0  0  0  0  2  0  0  0  0  0  0
   24.0460   79.3410   14.1630 O   0  0  0  0  0  0  0  0  0  0  0  0
   20.2810   81.4150   18.9180 C   0  0  0  0  0  0  0  0  0  0  0  0
   20.3190   82.8010   18.8970 C   0  0  0  0  0  3  0  0  0  0  0  0
   19.8170   83.5700   19.9580 C   0  0  0  0  0  3  0  0  0  0  0  0
   19.2670   82.9480   21.0550 C   0  0  0  0  0  0  0  0  0  0  0  0
   18.6080   83.9080   22.4010 Cl  0  0  0  0  0  0  0  0  0  0  0  0
   19.2280   81.5650   21.0750 C   0  0  0  0  0  3  0  0  0  0  0  0
   19.7360   80.8270   20.0130 C   0  0  0  0  0  3  0  0  0  0  0  0
   19.7110   80.0550   17.1140 O   0  0  0  0  0  0  0  0  0  0  0  0
   19.2810   80.6090   16.4410 H   0  0  0  0  0  0  0  0  0  0  0  0
   22.6140   76.7840   14.4550 N   0  0  0  0  0  4  0  0  0  0  0  0
   21.2220   76.7920   14.5120 C   0  0  0  0  0  0  0  0  0  0  0  0
   20.8150   77.4300   15.6670 O   0  0  0  0  0  0  0  0  0  0  0  0
   20.1290   76.3860   13.7620 C   0  0  0  0  0  2  0  0  0  0  0  0
   23.1880   76.2540   13.7160 H   0  0  0  0  0  0  0  0  0  0  0  0
   19.6400   75.9070   12.6560 C   0  0  1  0  0  3  0  0  0  0  0  0
   19.7790   76.6840   11.4180 N   0  0  0  0  0  0  0  0  0  0  0  0
   19.3760   76.2190   10.1820 N   0  0  0  0  0  0  0  0  0  0  0  0
   20.2170   77.6390   11.5270 H   0  0  0  0  0  0  0  0  0  0  0  0
   18.8010   74.9680   10.0160 C   0  0  0  0  0  0  0  0  0  0  0  0
   19.5060   76.8340    9.3320 H   0  0  0  0  0  0  0  0  0  0  0  0
   18.4140   74.5070    8.9130 O   0  0  0  0  0  0  0  0  0  0  0  0
   18.6190   74.1090   11.2110 C   0  0  0  0  0  0  0  0  0  0  0  0
   19.0380   74.6100   12.4210 C   0  0  0  0  0  0  0  0  0  0  0  0
   18.1210   72.8420   11.0330 C   0  0  0  0  0  3  0  0  0  0  0  0
   18.9390   73.7250   13.5010 C   0  0  0  0  0  3  0  0  0  0  0  0
   18.4380   72.4420   13.3370 C   0  0  0  0  0  3  0  0  0  0  0  0
   18.0230   71.9890   12.1120 C   0  0  0  0  0  3  0  0  0  0  0  0
  1  2  1  0  0  0  0
  3  1  1  0  0  0  0
  3  4  1  0  0  0  0
  4  6  1  0  0  0  0
  5  4  1  0  0  0  0
  5  7  2  0  0  0  0
  6  9  1  0  0  0  0
  7  8  1  0  0  0  0
  8 18  1  6  0  0  0
  8  9  1  0  0  0  0
  8 11  1  0  0  0  0
 10  3  2  0  0  0  0
 11 17  1  0  0  0  0
 12 11  2  0  0  0  0
 12 13  1  0  0  0  0
 13 14  2  0  0  0  0
 14 16  1  0  0  0  0
 14 15  1  0  0  0  0
 17 16  2  0  0  0  0
 19 18  1  0  0  0  0
 20 21  1  0  0  0  0
 20  1  2  0  0  0  0
 21 22  2  0  0  0  0
 23 21  1  0  0  0  0
 24 20  1  0  0  0  0
 25 23  1  6  0  0  0
 26 28  1  0  0  0  0
 26 25  1  0  0  0  0
 27 26  1  0  0  0  0
 29 27  1  0  0  0  0
 29 32  1  0  0  0  0
 30 27  1  0  0  0  0
 31 29  2  0  0  0  0
 32 33  1  0  0  0  0
 33 25  1  0  0  0  0
 33 35  2  0  0  0  0
 34 32  2  0  0  0  0
 34 37  1  0  0  0  0
 36 35  1  0  0  0  0
 37 36  2  0  0  0  0
M  END
>  <Pose>
1

>  <Score>
-9.992

$$$$
