/Users/jonathanwahrer/Desktop/Msc/3_Semester/Drug_Design_Praktikum/waehrer_HTS_screening/HTS_experiment/out/docking_results/vina_output/6e43/2377_docked.pdbqt
 OpenBabel03212221103D

 33 36  0  0  0  0  0  0  0  0999 V2000
   21.6630   78.2240   16.4910 N   0  0  0  0  0  0  0  0  0  0  0  0
   20.7290   77.3410   15.7980 C   0  0  0  0  0  2  0  0  0  0  0  0
   20.9840   77.3020   14.3090 C   0  0  0  0  0  2  0  0  0  0  0  0
   22.3180   77.8000   14.0740 N   0  0  0  0  0  0  0  0  0  0  0  0
   23.3440   77.3060   14.9740 C   0  0  0  0  0  2  0  0  0  0  0  0
   23.1020   77.9720   16.3280 C   0  0  0  0  0  2  0  0  0  0  0  0
   22.6570   78.7080   13.0500 C   0  0  0  0  0  0  0  0  0  0  0  0
   23.8460   79.0770   12.9330 O   0  0  0  0  0  0  0  0  0  0  0  0
   21.1800   79.3010   17.2570 C   0  0  0  0  0  0  0  0  0  0  0  0
   20.7100   79.1760   18.5460 C   0  0  0  0  0  0  0  0  0  0  0  0
   20.6520   77.5770   19.2460 Cl  0  0  0  0  0  0  0  0  0  0  0  0
   20.2770   80.2940   19.2640 C   0  0  0  0  0  0  0  0  0  0  0  0
   20.2910   81.5310   18.7530 N   0  0  0  0  0  0  0  0  0  0  0  0
   19.8610   80.1000   20.4340 O   0  0  0  0  0  0  0  0  0  0  0  0
   20.7410   81.6440   17.5210 N   0  0  0  0  0  0  0  0  0  0  0  0
   21.1750   80.6160   16.7690 C   0  0  0  0  0  3  0  0  0  0  0  0
   19.8510   82.6750   19.4790 C   0  0  0  0  0  0  0  0  0  0  0  0
   18.9170   82.5860   20.5000 C   0  0  0  0  0  3  0  0  0  0  0  0
   18.4790   83.6840   21.2120 C   0  0  0  0  0  3  0  0  0  0  0  0
   18.9990   84.9200   20.8890 C   0  0  0  0  0  3  0  0  0  0  0  0
   19.9320   85.0450   19.8750 C   0  0  0  0  0  3  0  0  0  0  0  0
   20.3550   83.9120   19.1710 C   0  0  0  0  0  3  0  0  0  0  0  0
   21.6710   79.2600   12.0900 C   0  0  0  0  0  2  0  0  0  0  0  0
   21.7540   78.5410   10.7630 C   0  0  0  0  0  2  0  0  0  0  0  0
   20.4560   78.5730   10.0110 C   0  0  0  0  0  2  0  0  0  0  0  0
   19.9660   77.2660    9.6320 N   0  0  0  0  0  0  0  0  0  0  0  0
   19.9290   76.7350    8.3200 C   0  0  0  0  0  0  0  0  0  0  0  0
   20.3190   77.3190    7.2540 O   0  0  0  0  0  0  0  0  0  0  0  0
   19.3920   75.4300    8.3090 N   0  0  0  0  0  0  0  0  0  0  0  0
   19.0420   75.0730    9.6650 C   0  0  0  0  0  2  0  0  0  0  0  0
   19.2160   74.5820    7.1480 C   0  0  0  0  0  1  0  0  0  0  0  0
   19.4270   76.2460   10.4810 C   0  0  0  0  0  0  0  0  0  0  0  0
   19.3050   76.3440   11.7200 O   0  0  0  0  0  0  0  0  0  0  0  0
  1  9  1  0  0  0  0
  2  1  1  0  0  0  0
  3  2  1  0  0  0  0
  4  3  1  0  0  0  0
  4  5  1  0  0  0  0
  5  6  1  0  0  0  0
  6  1  1  0  0  0  0
  7  4  1  0  0  0  0
  8  7  2  0  0  0  0
  9 10  2  0  0  0  0
 10 11  1  0  0  0  0
 10 12  1  0  0  0  0
 12 14  2  0  0  0  0
 13 12  1  0  0  0  0
 13 17  1  0  0  0  0
 15 13  1  0  0  0  0
 16  9  1  0  0  0  0
 16 15  2  0  0  0  0
 17 18  1  0  0  0  0
 18 19  2  0  0  0  0
 20 19  1  0  0  0  0
 21 20  2  0  0  0  0
 22 17  2  0  0  0  0
 22 21  1  0  0  0  0
 23  7  1  0  0  0  0
 24 23  1  0  0  0  0
 25 24  1  0  0  0  0
 26 25  1  0  0  0  0
 26 32  1  0  0  0  0
 27 26  1  0  0  0  0
 28 27  2  0  0  0  0
 29 27  1  0  0  0  0
 29 30  1  0  0  0  0
 30 32  1  0  0  0  0
 31 29  1  0  0  0  0
 32 33  2  0  0  0  0
M  END
>  <Pose>
1

>  <Score>
-10.849

$$$$
