/Users/jonathanwahrer/Desktop/Msc/3_Semester/Drug_Design_Praktikum/waehrer_HTS_screening/HTS_experiment/out/docking_results/vina_output/6e43/2381_docked.pdbqt
 OpenBabel03212221103D

 30 33  0  0  0  0  0  0  0  0999 V2000
   20.3540   78.3050   16.8090 N   0  0  0  0  0  0  0  0  0  0  0  0
   21.4820   78.3900   15.9240 C   0  0  0  0  0  2  0  0  0  0  0  0
   21.1690   77.7970   14.5690 C   0  0  0  0  0  2  0  0  0  0  0  0
   20.2660   76.6770   14.6650 N   0  0  0  0  0  0  0  0  0  0  0  0
   20.0250   76.0920   15.9620 C   0  0  0  0  0  2  0  0  0  0  0  0
   19.4560   77.1680   16.8510 C   0  0  0  0  0  2  0  0  0  0  0  0
   19.6330   76.1690   13.5030 C   0  0  0  0  0  0  0  0  0  0  0  0
   19.8410   76.6810   12.3570 O   0  0  0  0  0  0  0  0  0  0  0  0
   20.1010   79.3970   17.6950 C   0  0  0  0  0  0  0  0  0  0  0  0
   20.6580   80.6460   17.5070 C   0  0  0  0  0  0  0  0  0  0  0  0
   21.7100   80.9080   16.1350 Cl  0  0  0  0  0  0  0  0  0  0  0  0
   20.3640   81.6550   18.4120 C   0  0  0  0  0  0  0  0  0  0  0  0
   19.5580   81.4820   19.4740 N   0  0  0  0  0  0  0  0  0  0  0  0
   20.8660   82.7870   18.2490 O   0  0  0  0  0  0  0  0  0  0  0  0
   19.0320   80.2790   19.6390 N   0  0  0  0  0  0  0  0  0  0  0  0
   19.2770   79.2570   18.7980 C   0  0  0  0  0  3  0  0  0  0  0  0
   19.2930   82.5630   20.3740 C   0  0  0  0  0  0  0  0  0  0  0  0
   19.8530   82.5870   21.6350 C   0  0  0  0  0  3  0  0  0  0  0  0
   19.6030   83.6250   22.5090 C   0  0  0  0  0  3  0  0  0  0  0  0
   18.7850   84.6820   22.1680 C   0  0  0  0  0  3  0  0  0  0  0  0
   18.2220   84.6640   20.9090 C   0  0  0  0  0  3  0  0  0  0  0  0
   18.4750   83.6260   20.0410 C   0  0  0  0  0  3  0  0  0  0  0  0
   18.6940   75.0160   13.5480 C   0  0  0  0  0  2  0  0  0  0  0  0
   19.3710   73.7930   13.6440 O   0  0  0  0  0  0  0  0  0  0  0  0
   18.8580   72.6570   13.0490 C   0  0  0  0  0  0  0  0  0  0  0  0
   19.4820   71.5460   12.6400 N   0  0  0  0  0  0  0  0  0  0  0  0
   18.6320   70.7150   12.1310 O   0  0  0  0  0  0  0  0  0  0  0  0
   17.4080   71.1990   12.1620 C   0  0  0  0  0  0  0  0  0  0  0  0
   17.5200   72.4450   12.7460 C   0  0  0  0  0  3  0  0  0  0  0  0
   16.2290   70.4770   11.6520 C   0  0  0  0  0  1  0  0  0  0  0  0
  1  6  1  0  0  0  0
  1  9  1  0  0  0  0
  2  1  1  0  0  0  0
  3  4  1  0  0  0  0
  3  2  1  0  0  0  0
  4  5  1  0  0  0  0
  5  6  1  0  0  0  0
  7 23  1  0  0  0  0
  7  4  1  0  0  0  0
  8  7  2  0  0  0  0
  9 16  1  0  0  0  0
 10  9  2  0  0  0  0
 10 12  1  0  0  0  0
 11 10  1  0  0  0  0
 12 13  1  0  0  0  0
 13 15  1  0  0  0  0
 13 17  1  0  0  0  0
 14 12  2  0  0  0  0
 16 15  2  0  0  0  0
 17 18  1  0  0  0  0
 18 19  2  0  0  0  0
 20 19  1  0  0  0  0
 21 20  2  0  0  0  0
 22 17  2  0  0  0  0
 22 21  1  0  0  0  0
 23 24  1  0  0  0  0
 25 24  1  0  0  0  0
 26 25  2  0  0  0  0
 27 28  1  0  0  0  0
 27 26  1  0  0  0  0
 28 29  2  0  0  0  0
 29 25  1  0  0  0  0
 30 28  1  0  0  0  0
M  END
>  <Pose>
1

>  <Score>
-10.771

$$$$
