/Users/jonathanwahrer/Desktop/Msc/3_Semester/Drug_Design_Praktikum/waehrer_HTS_screening/HTS_experiment/out/docking_results/vina_output/6e43/2386_docked.pdbqt
 OpenBabel03212221113D

 30 33  0  0  0  0  0  0  0  0999 V2000
   18.3500   73.9410   13.2520 Cl  0  0  0  0  0  0  0  0  0  0  0  0
   19.2910   75.4240   13.3750 C   0  0  0  0  0  0  0  0  0  0  0  0
   19.6600   76.0430   12.1830 C   0  0  0  0  0  3  0  0  0  0  0  0
   20.3960   77.2030   12.2620 C   0  0  0  0  0  0  0  0  0  0  0  0
   20.7510   77.7260   13.4990 C   0  0  0  0  0  0  0  0  0  0  0  0
   20.3790   77.1020   14.6840 C   0  0  0  0  0  3  0  0  0  0  0  0
   19.6400   75.9360   14.6030 C   0  0  0  0  0  3  0  0  0  0  0  0
   21.4890   78.8860   13.6610 O   0  0  0  0  0  0  0  0  0  0  0  0
   22.4450   79.4680   12.8190 C   0  0  0  0  0  0  0  0  0  0  0  0
   21.9750   79.8570   11.4650 C   0  0  0  0  0  2  0  0  0  0  0  0
   20.8260   79.1740   10.9630 N   0  0  0  0  0  0  0  0  0  0  0  0
   20.6900   77.7130   10.8960 C   0  0  0  0  0  2  0  0  0  0  0  0
   19.7290   79.9390   10.4810 C   0  0  0  0  0  0  0  0  0  0  0  0
   19.8450   81.1850   10.5230 O   0  0  0  0  0  0  0  0  0  0  0  0
   23.0010   80.7190   13.5250 C   0  0  0  0  0  2  0  0  0  0  0  0
   23.3910   80.2850   14.9120 C   0  0  0  0  0  2  0  0  0  0  0  0
   23.2790   78.9180   15.0950 O   0  0  0  0  0  0  0  0  0  0  0  0
   24.0220   78.1930   14.1790 C   0  0  0  0  0  2  0  0  0  0  0  0
   23.6640   78.5340   12.7490 C   0  0  0  0  0  2  0  0  0  0  0  0
   18.5190   79.3260    9.9550 C   0  0  0  0  0  2  0  0  0  0  0  0
   18.3830   79.1870    8.4940 C   0  0  0  0  0  2  0  0  0  0  0  0
   19.2250   78.2230    7.7680 C   0  0  0  0  0  2  0  0  0  0  0  0
   18.6740   77.0140    7.2790 N   0  0  0  0  0  0  0  0  0  0  0  0
   17.5140   76.9030    6.4740 C   0  0  0  0  0  0  0  0  0  0  0  0
   16.7660   77.8260    6.0360 O   0  0  0  0  0  0  0  0  0  0  0  0
   17.3140   75.5230    6.2210 N   0  0  0  0  0  0  0  0  0  0  0  0
   18.5430   74.8040    6.5470 C   0  0  0  0  0  2  0  0  0  0  0  0
   16.4550   75.0590    5.8650 H   0  0  0  0  0  0  0  0  0  0  0  0
   19.1810   75.7160    7.5200 C   0  0  0  0  0  0  0  0  0  0  0  0
   20.0360   75.3650    8.4100 O   0  0  0  0  0  0  0  0  0  0  0  0
  1  2  1  0  0  0  0
  2  7  1  0  0  0  0
  3  4  1  0  0  0  0
  3  2  2  0  0  0  0
  4  5  2  0  0  0  0
  5  8  1  0  0  0  0
  5  6  1  0  0  0  0
  7  6  2  0  0  0  0
  9 15  1  0  0  0  0
  9  8  1  0  0  0  0
 10  9  1  0  0  0  0
 11 10  1  0  0  0  0
 12 11  1  0  0  0  0
 12  4  1  0  0  0  0
 13 14  2  0  0  0  0
 13 11  1  0  0  0  0
 15 16  1  0  0  0  0
 16 17  1  0  0  0  0
 18 17  1  0  0  0  0
 19  9  1  0  0  0  0
 19 18  1  0  0  0  0
 20 13  1  0  0  0  0
 21 20  1  0  0  0  0
 22 21  1  0  0  0  0
 23 29  1  0  0  0  0
 23 22  1  0  0  0  0
 24 23  1  0  0  0  0
 25 24  2  0  0  0  0
 26 24  1  0  0  0  0
 26 27  1  0  0  0  0
 27 29  1  0  0  0  0
 28 26  1  0  0  0  0
 29 30  2  0  0  0  0
M  END
>  <Pose>
1

>  <Score>
-8.660

$$$$
