/Users/jonathanwahrer/Desktop/Msc/3_Semester/Drug_Design_Praktikum/waehrer_HTS_screening/HTS_experiment/out/docking_results/vina_output/6e43/2403_docked.pdbqt
 OpenBabel03212221113D

 26 29  0  0  0  0  0  0  0  0999 V2000
   21.8410   78.1030   15.1330 N   0  0  0  0  0  0  0  0  0  0  0  0
   21.1090   77.5600   14.1500 C   0  0  0  0  0  0  0  0  0  0  0  0
   21.2370   78.2910   12.9740 C   0  0  0  0  0  0  0  0  0  0  0  0
   22.0800   79.3050   13.2820 N   0  0  0  0  0  0  0  0  0  0  0  0
   22.4410   79.1970   14.5630 C   0  0  0  0  0  3  0  0  0  0  0  0
   20.6060   77.9720   11.8260 N   0  0  0  0  0  0  0  0  0  0  0  0
   19.8180   76.8810   11.8620 C   0  0  0  0  0  0  0  0  0  0  0  0
   19.2200   76.5670   10.7960 O   0  0  0  0  0  0  0  0  0  0  0  0
   19.6590   76.1420   12.9700 N   0  0  0  0  0  0  0  0  0  0  0  0
   20.2900   76.4580   14.1200 C   0  0  0  0  0  0  0  0  0  0  0  0
   20.1530   75.7850   15.1600 O   0  0  0  0  0  0  0  0  0  0  0  0
   18.8070   74.9660   13.0050 C   0  0  0  0  0  1  0  0  0  0  0  0
   20.7840   78.7760   10.6320 C   0  0  0  0  0  1  0  0  0  0  0  0
   22.0320   77.6780   16.5060 C   0  0  0  0  0  2  0  0  0  0  0  0
   21.3140   78.5650   17.4820 C   0  0  0  0  0  0  0  0  0  0  0  0
   21.3680   79.8970   17.3070 N   0  0  0  0  0  0  0  0  0  0  0  0
   20.7250   80.7460   18.1620 C   0  0  0  0  0  0  0  0  0  0  0  0
   20.0200   80.2730   19.2010 N   0  0  0  0  0  0  0  0  0  0  0  0
   20.8130   82.1110   17.9370 C   0  0  0  0  0  3  0  0  0  0  0  0
   19.3840   81.1110   20.0460 C   0  0  0  0  0  3  0  0  0  0  0  0
   19.9270   78.9310   19.4310 C   0  0  0  0  0  0  0  0  0  0  0  0
   19.4660   82.4600   19.8320 C   0  0  0  0  0  0  0  0  0  0  0  0
   18.5570   83.6190   21.0420 Br  0  0  0  0  0  0  0  0  0  0  0  0
   20.1780   82.9890   18.7790 C   0  0  0  0  0  3  0  0  0  0  0  0
   20.5870   78.1020   18.5500 C   0  0  0  0  0  3  0  0  0  0  0  0
   19.2650   78.5360   20.4030 O   0  0  0  0  0  0  0  0  0  0  0  0
  1 14  1  0  0  0  0
  2  1  1  0  0  0  0
  3  4  1  0  0  0  0
  3  2  2  0  0  0  0
  4  5  2  0  0  0  0
  5  1  1  0  0  0  0
  6  7  1  0  0  0  0
  6  3  1  0  0  0  0
  7  9  1  0  0  0  0
  8  7  2  0  0  0  0
  9 12  1  0  0  0  0
  9 10  1  0  0  0  0
 10  2  1  0  0  0  0
 10 11  2  0  0  0  0
 13  6  1  0  0  0  0
 14 15  1  0  0  0  0
 15 25  2  0  0  0  0
 16 15  1  0  0  0  0
 16 17  2  0  0  0  0
 17 18  1  0  0  0  0
 18 21  1  0  0  0  0
 18 20  1  0  0  0  0
 19 17  1  0  0  0  0
 19 24  2  0  0  0  0
 21 26  2  0  0  0  0
 22 20  2  0  0  0  0
 22 23  1  0  0  0  0
 24 22  1  0  0  0  0
 25 21  1  0  0  0  0
M  END
>  <Pose>
1

>  <Score>
-9.535

$$$$
