/Users/jonathanwahrer/Desktop/Msc/3_Semester/Drug_Design_Praktikum/waehrer_HTS_screening/HTS_experiment/out/docking_results/vina_output/6e43/2432_docked.pdbqt
 OpenBabel03212221123D

 26 29  0  0  0  0  0  0  0  0999 V2000
   21.2780   78.2050   16.4040 C   0  0  0  0  0  0  0  0  0  0  0  0
   20.6490   78.2580   15.2440 O   0  0  0  0  0  0  0  0  0  0  0  0
   20.5060   78.3620   17.5440 N   0  0  0  0  0  0  0  0  0  0  0  0
   19.0560   78.6200   17.3680 C   0  0  0  0  0  2  0  0  0  0  0  0
   18.7960   79.9650   17.9910 C   0  0  0  0  0  2  0  0  0  0  0  0
   19.9120   80.5310   18.6800 N   0  0  0  0  0  0  0  0  0  0  0  0
   20.9280   79.7520   19.3730 C   0  0  0  0  0  2  0  0  0  0  0  0
   20.8880   78.3050   18.9060 C   0  0  0  0  0  2  0  0  0  0  0  0
   22.6920   77.9870   16.2480 C   0  0  0  0  0  0  0  0  0  0  0  0
   23.3690   76.9670   15.7180 N   0  0  0  0  0  0  0  0  0  0  0  0
   24.7140   77.1770   15.7550 C   0  0  0  0  0  0  0  0  0  0  0  0
   23.0170   76.0760   15.3130 H   0  0  0  0  0  0  0  0  0  0  0  0
   25.9940   76.1300   15.1820 Cl  0  0  0  0  0  0  0  0  0  0  0  0
   24.9400   78.3940   16.3380 C   0  0  0  0  0  0  0  0  0  0  0  0
   23.6920   78.8860   16.6390 C   0  0  0  0  0  3  0  0  0  0  0  0
   26.4960   79.1430   16.6280 Cl  0  0  0  0  0  0  0  0  0  0  0  0
   20.0810   81.9430   18.7130 C   0  0  0  0  0  0  0  0  0  0  0  0
   20.7280   82.5890   17.7250 N   0  0  0  0  0  0  0  0  0  0  0  0
   20.9000   83.9320   17.7410 C   0  0  0  0  0  3  0  0  0  0  0  0
   20.4200   84.6670   18.7600 N   0  0  0  0  0  0  0  0  0  0  0  0
   19.7620   84.0970   19.7830 C   0  0  0  0  0  0  0  0  0  0  0  0
   19.1950   84.5950   20.8970 N   0  0  0  0  0  0  0  0  0  0  0  0
   19.5940   82.7080   19.7500 C   0  0  0  0  0  0  0  0  0  0  0  0
   18.6820   83.5770   21.5580 N   0  0  0  0  0  0  0  0  0  0  0  0
   19.1380   85.9930   21.3260 C   0  0  0  0  0  1  0  0  0  0  0  0
   18.9020   82.4170   20.8960 C   0  0  0  0  0  3  0  0  0  0  0  0
  1  3  1  0  0  0  0
  2  1  2  0  0  0  0
  3  8  1  0  0  0  0
  4  3  1  0  0  0  0
  4  5  1  0  0  0  0
  5  6  1  0  0  0  0
  6 17  1  0  0  0  0
  6  7  1  0  0  0  0
  8  7  1  0  0  0  0
  9  1  1  0  0  0  0
  9 15  2  0  0  0  0
 10 11  1  0  0  0  0
 10  9  1  0  0  0  0
 11 14  2  0  0  0  0
 12 10  1  0  0  0  0
 13 11  1  0  0  0  0
 14 16  1  0  0  0  0
 14 15  1  0  0  0  0
 17 23  1  0  0  0  0
 18 19  1  0  0  0  0
 18 17  2  0  0  0  0
 19 20  2  0  0  0  0
 20 21  1  0  0  0  0
 21 22  1  0  0  0  0
 22 25  1  0  0  0  0
 22 24  1  0  0  0  0
 23 21  2  0  0  0  0
 23 26  1  0  0  0  0
 26 24  2  0  0  0  0
M  END
>  <Pose>
1

>  <Score>
-8.749

$$$$
