/Users/jonathanwahrer/Desktop/Msc/3_Semester/Drug_Design_Praktikum/waehrer_HTS_screening/HTS_experiment/out/docking_results/vina_output/6e43/2447_docked.pdbqt
 OpenBabel03212221133D

 33 36  0  0  1  0  0  0  0  0999 V2000
   22.8150   79.4180   13.7610 C   0  0  1  0  0  3  0  0  0  0  0  0
   23.8610   78.3610   13.6440 C   0  0  0  0  0  0  0  0  0  0  0  0
   24.6520   78.2980   12.6730 O   0  0  0  0  0  0  0  0  0  0  0  0
   23.8730   77.4630   14.7080 O   0  0  0  0  0  0  0  0  0  0  0  0
   23.4670   77.7600   15.9920 C   0  0  0  0  0  3  0  0  0  0  0  0
   23.0260   79.0130   16.2390 C   0  0  0  0  0  0  0  0  0  0  0  0
   23.0080   79.9670   15.1510 C   0  0  0  0  0  0  0  0  0  0  0  0
   23.1460   81.1890   15.3300 O   0  0  0  0  0  0  0  0  0  0  0  0
   22.5930   79.4130   17.5840 C   0  0  0  0  0  2  0  0  0  0  0  0
   21.2040   79.5240   17.7640 N   0  0  0  0  0  0  0  0  0  0  0  0
   20.4560   80.4740   17.0580 C   0  0  0  0  0  2  0  0  0  0  0  0
   19.1260   80.7640   17.7890 C   0  0  0  0  0  2  0  0  0  0  0  0
   19.4990   80.9840   19.1630 N   0  0  0  0  0  0  0  0  0  0  0  0
   19.9560   79.7900   19.8590 C   0  0  0  0  0  2  0  0  0  0  0  0
   20.6060   78.8460   18.8560 C   0  0  0  0  0  2  0  0  0  0  0  0
   19.4380   82.2510   19.7760 C   0  0  0  0  0  0  0  0  0  0  0  0
   19.1880   82.4430   21.1150 C   0  0  0  0  0  3  0  0  0  0  0  0
   19.1430   83.7030   21.6630 C   0  0  0  0  0  0  0  0  0  0  0  0
   19.3440   84.8370   20.9110 C   0  0  0  0  0  3  0  0  0  0  0  0
   18.8200   83.8810   23.3660 Cl  0  0  0  0  0  0  0  0  0  0  0  0
   19.5960   84.6790   19.5730 C   0  0  0  0  0  3  0  0  0  0  0  0
   19.6410   83.4090   19.0170 C   0  0  0  0  0  3  0  0  0  0  0  0
   22.9370   80.4820   12.7280 C   0  0  0  0  0  2  0  0  0  0  0  0
   21.9310   80.2920   11.7440 N   0  0  0  0  0  0  0  0  0  0  0  0
   21.3510   78.9720   11.7040 C   0  0  0  0  0  2  0  0  0  0  0  0
   21.8110   78.3180   10.4150 C   0  0  0  0  0  2  0  0  0  0  0  0
   21.1730   78.9690    9.3210 N   0  0  0  0  0  0  0  0  0  0  0  0
   21.0460   80.3740    9.5320 C   0  0  0  0  0  2  0  0  0  0  0  0
   22.1150   80.9120   10.4850 C   0  0  0  0  0  2  0  0  0  0  0  0
   19.7700   78.1960    8.7530 S   0  0  0  0  0  0  0  0  0  0  0  0
   18.4950   78.9260    9.1180 O   0  0  0  0  0  0  0  0  0  0  0  0
   19.8210   78.1870    7.2310 O   0  0  0  0  0  0  0  0  0  0  0  0
   19.6170   76.5300    9.2760 C   0  0  0  0  0  1  0  0  0  0  0  0
  1 23  1  6  0  0  0
  1  7  1  0  0  0  0
  2  1  1  0  0  0  0
  2  4  1  0  0  0  0
  3  2  2  0  0  0  0
  4  5  1  0  0  0  0
  5  6  2  0  0  0  0
  6  9  1  0  0  0  0
  7  8  2  0  0  0  0
  7  6  1  0  0  0  0
  9 10  1  0  0  0  0
 10 15  1  0  0  0  0
 11 10  1  0  0  0  0
 11 12  1  0  0  0  0
 12 13  1  0  0  0  0
 13 16  1  0  0  0  0
 13 14  1  0  0  0  0
 15 14  1  0  0  0  0
 16 17  1  0  0  0  0
 17 18  2  0  0  0  0
 18 20  1  0  0  0  0
 19 18  1  0  0  0  0
 21 19  2  0  0  0  0
 22 21  1  0  0  0  0
 22 16  2  0  0  0  0
 24 23  1  0  0  0  0
 25 24  1  0  0  0  0
 26 25  1  0  0  0  0
 27 28  1  0  0  0  0
 27 26  1  0  0  0  0
 28 29  1  0  0  0  0
 29 24  1  0  0  0  0
 30 31  2  0  0  0  0
 30 33  1  0  0  0  0
 30 27  1  0  0  0  0
 32 30  2  0  0  0  0
M  END
>  <Pose>
1

>  <Score>
-10.018

$$$$
