
 OpenBabel03202210083D

 50 53  0  0  0  0  0  0  0  0999 V2000
   57.8940   98.6530   25.5810 B   0  0  0  0  0  0  0  0  0  0  0  0
   56.5620   97.2730   25.6800 C   0  0  0  0  0  0  0  0  0  0  0  0
   55.4210   97.5120   26.4230 C   0  0  0  0  0  0  0  0  0  0  0  0
   54.4780   96.5100   26.4800 C   0  0  0  0  0  0  0  0  0  0  0  0
   54.6810   95.3120   25.8150 C   0  0  0  0  0  0  0  0  0  0  0  0
   55.8180   95.0690   25.0730 C   0  0  0  0  0  0  0  0  0  0  0  0
   56.7580   96.0780   25.0200 C   0  0  0  0  0  0  0  0  0  0  0  0
   57.9160   95.8270   24.2620 O   0  0  0  0  0  0  0  0  0  0  0  0
   56.0420   93.8030   24.3640 C   0  0  0  0  0  0  0  0  0  0  0  0
   55.1180   92.9300   24.2080 N   0  0  0  0  0  0  0  0  0  0  0  0
   55.3850   91.7040   23.5060 N   0  0  0  0  0  0  0  0  0  0  0  0
   54.7390   91.5380   22.2760 C   0  0  0  0  0  0  0  0  0  0  0  0
   54.1870   92.6130   21.7810 O   0  0  0  0  0  0  0  0  0  0  0  0
   54.5820   90.3630   21.4530 C   0  0  0  0  0  0  0  0  0  0  0  0
   54.6530   90.4050   20.0770 N   0  0  0  0  0  0  0  0  0  0  0  0
   54.4660   89.2030   19.6350 N   0  0  0  0  0  0  0  0  0  0  0  0
   54.2720   88.3600   20.6860 N   0  0  0  0  0  0  0  0  0  0  0  0
   54.3380   89.0470   21.8250 C   0  0  0  0  0  0  0  0  0  0  0  0
   54.1870   88.5700   23.1990 C   0  0  0  0  0  0  0  0  0  0  0  0
   55.0350   89.0720   24.2140 N   0  0  0  0  0  4  0  0  0  0  0  0
   56.4360   88.7310   24.0180 C   0  0  0  0  0  0  0  0  0  0  0  0
   56.6100   87.2820   23.7960 C   0  0  0  0  0  0  0  0  0  0  0  0
   55.8020   86.4010   24.3880 O   0  0  0  0  0  0  0  0  0  0  0  0
   54.7750   86.8410   25.1580 C   0  0  0  0  0  0  0  0  0  0  0  0
   54.7210   88.2860   25.4510 C   0  0  0  0  0  0  0  0  0  0  0  0
   54.0530   86.9680   20.4410 C   0  0  0  0  0  0  0  0  0  0  0  0
   54.8790   85.9300   20.4230 N   0  0  0  0  0  0  0  0  0  0  0  0
   54.1750   84.8740   20.1840 O   0  0  0  0  0  0  0  0  0  0  0  0
   52.9180   85.1560   20.0410 N   0  0  0  0  0  0  0  0  0  0  0  0
   52.7660   86.4650   20.1910 C   0  0  0  0  0  0  0  0  0  0  0  0
   51.5870   87.2500   20.1260 N   0  0  0  0  0  0  0  0  0  0  0  0
   52.9010   96.8440   27.5080 B   0  0  0  0  0  0  0  0  0  0  0  0
   55.2500   98.7320   27.0810 O   0  0  0  0  0  0  0  0  0  0  0  0
   53.9230   94.5290   25.8720 H   0  0  0  0  0  0  0  0  0  0  0  0
   58.1290   94.8820   23.9830 H   0  0  0  0  0  0  0  0  0  0  0  0
   57.0030   93.5980   23.9630 H   0  0  0  0  0  0  0  0  0  0  0  0
   56.0180   91.0460   23.9300 H   0  0  0  0  0  0  0  0  0  0  0  0
   54.1940   87.4280   23.2350 H   0  0  0  0  0  0  0  0  0  0  0  0
   53.1310   88.8390   23.5240 H   0  0  0  0  0  0  0  0  0  0  0  0
   54.8870   90.0500   24.4140 H   0  0  0  0  0  0  0  0  0  0  0  0
   56.9370   88.9890   24.9970 H   0  0  0  0  0  0  0  0  0  0  0  0
   56.9450   89.3000   23.2450 H   0  0  0  0  0  0  0  0  0  0  0  0
   57.6760   87.0310   24.0780 H   0  0  0  0  0  0  0  0  0  0  0  0
   56.6040   87.1010   22.6800 H   0  0  0  0  0  0  0  0  0  0  0  0
   53.8170   86.5140   24.7040 H   0  0  0  0  0  0  0  0  0  0  0  0
   54.8290   86.2950   26.1430 H   0  0  0  0  0  0  0  0  0  0  0  0
   55.4410   88.6230   26.2080 H   0  0  0  0  0  0  0  0  0  0  0  0
   53.7130   88.6130   25.7380 H   0  0  0  0  0  0  0  0  0  0  0  0
   51.2650   87.7620   20.9740 H   0  0  0  0  0  0  0  0  0  0  0  0
   51.0090   87.3390   19.2410 H   0  0  0  0  0  0  0  0  0  0  0  0
  1  2  1  0  0  0  0
  2  3  1  0  0  0  0
  3  4  2  0  0  0  0
  3 33  1  0  0  0  0
  4 32  1  0  0  0  0
  5 34  1  0  0  0  0
  5  4  1  0  0  0  0
  6  5  2  0  0  0  0
  7  6  1  0  0  0  0
  7  2  2  0  0  0  0
  8  7  1  0  0  0  0
  9  6  1  0  0  0  0
 10  9  2  0  0  0  0
 11 37  1  0  0  0  0
 11 10  1  0  0  0  0
 12 11  1  0  0  0  0
 13 12  2  0  0  0  0
 14 18  2  0  0  0  0
 14 12  1  0  0  0  0
 15 14  1  0  0  0  0
 16 15  2  0  0  0  0
 16 17  1  0  0  0  0
 17 18  1  0  0  0  0
 18 19  1  0  0  0  0
 19 38  1  0  0  0  0
 19 39  1  0  0  0  0
 19 20  1  0  0  0  0
 20 40  1  0  0  0  0
 20 25  1  0  0  0  0
 21 20  1  0  0  0  0
 21 41  1  0  0  0  0
 22 21  1  0  0  0  0
 22 43  1  0  0  0  0
 22 23  1  0  0  0  0
 23 24  1  0  0  0  0
 24 25  1  0  0  0  0
 24 46  1  0  0  0  0
 25 48  1  0  0  0  0
 25 47  1  0  0  0  0
 26 17  1  0  0  0  0
 27 26  2  0  0  0  0
 28 27  1  0  0  0  0
 29 28  1  0  0  0  0
 29 30  2  0  0  0  0
 30 26  1  0  0  0  0
 31 30  1  0  0  0  0
 31 49  1  0  0  0  0
 35  8  1  0  0  0  0
 36  9  1  0  0  0  0
 42 21  1  0  0  0  0
 44 22  1  0  0  0  0
 45 24  1  0  0  0  0
 50 31  1  0  0  0  0
M  END
>  <Pose>
1

>  <Score>
-9.61

$$$$
