
 OpenBabel03202210083D

 50 53  0  0  0  0  0  0  0  0999 V2000
   58.0680   97.8340   25.1980 B   0  0  0  0  0  0  0  0  0  0  0  0
   56.5900   96.6600   25.3560 C   0  0  0  0  0  0  0  0  0  0  0  0
   55.5880   96.9390   26.2380 C   0  0  0  0  0  0  0  0  0  0  0  0
   54.5150   96.0550   26.3320 C   0  0  0  0  0  0  0  0  0  0  0  0
   54.4890   94.9180   25.5320 C   0  0  0  0  0  0  0  0  0  0  0  0
   55.4910   94.6310   24.6440 C   0  0  0  0  0  0  0  0  0  0  0  0
   56.5450   95.5130   24.5620 C   0  0  0  0  0  0  0  0  0  0  0  0
   57.5540   95.2120   23.6590 O   0  0  0  0  0  0  0  0  0  0  0  0
   55.4450   93.4350   23.8160 C   0  0  0  0  0  0  0  0  0  0  0  0
   55.3660   92.2430   24.2910 N   0  0  0  0  0  0  0  0  0  0  0  0
   55.3250   91.1300   23.3850 N   0  0  0  0  0  0  0  0  0  0  0  0
   55.7400   89.8990   23.8760 C   0  0  0  0  0  0  0  0  0  0  0  0
   56.6340   89.9200   24.8030 O   0  0  0  0  0  0  0  0  0  0  0  0
   55.3070   88.5690   23.4890 C   0  0  0  0  0  0  0  0  0  0  0  0
   55.0550   87.5350   24.3570 N   0  0  0  0  0  0  0  0  0  0  0  0
   54.6820   86.4840   23.6810 N   0  0  0  0  0  0  0  0  0  0  0  0
   54.6600   86.7280   22.3820 N   0  0  0  0  0  0  0  0  0  0  0  0
   55.0400   88.0090   22.2360 C   0  0  0  0  0  0  0  0  0  0  0  0
   55.2060   88.7400   20.9760 C   0  0  0  0  0  0  0  0  0  0  0  0
   53.9480   89.1070   20.3210 N   0  0  0  0  0  0  0  0  0  0  0  0
   54.2600   89.6900   19.0010 C   0  0  0  0  0  0  0  0  0  0  0  0
   55.3510   90.6940   19.1390 C   0  0  0  0  0  0  0  0  0  0  0  0
   55.0090   91.6200   20.0930 O   0  0  0  0  0  0  0  0  0  0  0  0
   53.7120   91.5340   20.5260 C   0  0  0  0  0  0  0  0  0  0  0  0
   53.3240   90.1980   21.1060 C   0  0  0  0  0  0  0  0  0  0  0  0
   54.3240   85.7640   21.4000 C   0  0  0  0  0  0  0  0  0  0  0  0
   55.1340   85.0140   20.6220 N   0  0  0  0  0  0  0  0  0  0  0  0
   54.4160   84.2380   19.8540 O   0  0  0  0  0  0  0  0  0  0  0  0
   53.1410   84.4300   20.0770 N   0  0  0  0  0  0  0  0  0  0  0  0
   53.0470   85.3710   21.0310 C   0  0  0  0  0  0  0  0  0  0  0  0
   51.8270   85.8560   21.5500 N   0  0  0  0  0  0  0  0  0  0  0  0
   53.1060   96.4140   27.5480 B   0  0  0  0  0  0  0  0  0  0  0  0
   55.5950   98.0670   27.0450 O   0  0  0  0  0  0  0  0  0  0  0  0
   53.6640   94.2390   25.6050 H   0  0  0  0  0  0  0  0  0  0  0  0
   58.0360   94.3230   23.7110 H   0  0  0  0  0  0  0  0  0  0  0  0
   55.4780   93.5330   22.7340 H   0  0  0  0  0  0  0  0  0  0  0  0
   54.9830   91.3460   22.4190 H   0  0  0  0  0  0  0  0  0  0  0  0
   55.7780   88.1650   20.2430 H   0  0  0  0  0  0  0  0  0  0  0  0
   55.7100   89.6970   21.1700 H   0  0  0  0  0  0  0  0  0  0  0  0
   54.4870   88.9010   18.2670 H   0  0  0  0  0  0  0  0  0  0  0  0
   53.3370   90.2000   18.6720 H   0  0  0  0  0  0  0  0  0  0  0  0
   56.3300   90.2520   19.3940 H   0  0  0  0  0  0  0  0  0  0  0  0
   55.4280   91.2600   18.1640 H   0  0  0  0  0  0  0  0  0  0  0  0
   53.6210   92.2740   21.3780 H   0  0  0  0  0  0  0  0  0  0  0  0
   53.0060   91.8840   19.7450 H   0  0  0  0  0  0  0  0  0  0  0  0
   52.2380   90.1040   20.9800 H   0  0  0  0  0  0  0  0  0  0  0  0
   53.6020   90.1660   22.1550 H   0  0  0  0  0  0  0  0  0  0  0  0
   51.2970   86.5600   21.0070 H   0  0  0  0  0  0  0  0  0  0  0  0
   51.4390   85.5350   22.4560 H   0  0  0  0  0  0  0  0  0  0  0  0
   55.2990   98.9620   26.6890 H   0  0  0  0  0  0  0  0  0  0  0  0
  1  2  1  0  0  0  0
  2  3  1  0  0  0  0
  3  4  2  0  0  0  0
  3 33  1  0  0  0  0
  4 32  1  0  0  0  0
  5 34  1  0  0  0  0
  5  4  1  0  0  0  0
  6  5  2  0  0  0  0
  7  6  1  0  0  0  0
  7  2  2  0  0  0  0
  8 35  1  0  0  0  0
  8  7  1  0  0  0  0
  9 10  2  0  0  0  0
  9  6  1  0  0  0  0
 11 12  1  0  0  0  0
 11 10  1  0  0  0  0
 12 13  2  0  0  0  0
 14 12  1  0  0  0  0
 14 15  1  0  0  0  0
 16 15  2  0  0  0  0
 17 16  1  0  0  0  0
 18 17  1  0  0  0  0
 18 14  2  0  0  0  0
 19 39  1  0  0  0  0
 19 18  1  0  0  0  0
 20 19  1  0  0  0  0
 20 25  1  0  0  0  0
 21 22  1  0  0  0  0
 21 20  1  0  0  0  0
 22 42  1  0  0  0  0
 22 23  1  0  0  0  0
 23 24  1  0  0  0  0
 24 25  1  0  0  0  0
 24 44  1  0  0  0  0
 25 47  1  0  0  0  0
 26 17  1  0  0  0  0
 27 26  2  0  0  0  0
 28 29  1  0  0  0  0
 28 27  1  0  0  0  0
 29 30  2  0  0  0  0
 30 26  1  0  0  0  0
 30 31  1  0  0  0  0
 31 49  1  0  0  0  0
 36  9  1  0  0  0  0
 37 11  1  0  0  0  0
 38 19  1  0  0  0  0
 40 21  1  0  0  0  0
 41 21  1  0  0  0  0
 43 22  1  0  0  0  0
 45 24  1  0  0  0  0
 46 25  1  0  0  0  0
 48 31  1  0  0  0  0
 50 33  1  0  0  0  0
M  END
>  <Pose>
1

>  <Score>
-9.16

$$$$
