
 OpenBabel03162216073D

 50 53  0  0  0  0  0  0  0  0999 V2000
   58.2970   97.3650   24.8520 B   0  0  0  0  0  0  0  0  0  0  0  0
   56.6220   96.6380   25.3590 C   0  0  0  0  0  0  0  0  0  0  0  0
   55.8300   97.3040   26.2480 C   0  0  0  0  0  0  0  0  0  0  0  0
   54.6060   96.7440   26.6020 C   0  0  0  0  0  0  0  0  0  0  0  0
   54.2190   95.5280   26.0470 C   0  0  0  0  0  0  0  0  0  0  0  0
   55.0080   94.8540   25.1540 C   0  0  0  0  0  0  0  0  0  0  0  0
   56.2170   95.4190   24.8130 C   0  0  0  0  0  0  0  0  0  0  0  0
   57.0070   94.7280   23.9080 O   0  0  0  0  0  0  0  0  0  0  0  0
   54.5860   93.5830   24.5850 C   0  0  0  0  0  0  0  0  0  0  0  0
   55.2110   92.9870   23.6320 N   0  0  0  0  0  0  0  0  0  0  0  0
   54.7100   91.7330   23.1430 N   0  0  0  0  0  0  0  0  0  0  0  0
   55.5930   90.9330   22.4310 C   0  0  0  0  0  0  0  0  0  0  0  0
   56.8280   91.2980   22.4310 O   0  0  0  0  0  0  0  0  0  0  0  0
   55.3240   89.7250   21.6750 C   0  0  0  0  0  0  0  0  0  0  0  0
   55.8270   88.4810   21.9630 N   0  0  0  0  0  0  0  0  0  0  0  0
   55.3840   87.6210   21.0890 N   0  0  0  0  0  0  0  0  0  0  0  0
   54.5960   88.1990   20.1990 N   0  0  0  0  0  0  0  0  0  0  0  0
   54.5390   89.4980   20.5380 C   0  0  0  0  0  0  0  0  0  0  0  0
   53.8160   90.5610   19.8350 C   0  0  0  0  0  0  0  0  0  0  0  0
   52.9940   90.0930   18.7160 N   0  0  0  0  0  0  0  0  0  0  0  0
   53.4380   90.7830   17.4890 C   0  0  0  0  0  0  0  0  0  0  0  0
   53.5800   92.2410   17.7530 C   0  0  0  0  0  0  0  0  0  0  0  0
   52.4100   92.7320   18.2770 O   0  0  0  0  0  0  0  0  0  0  0  0
   51.3600   91.8520   18.2400 C   0  0  0  0  0  0  0  0  0  0  0  0
   51.6020   90.5450   18.9500 C   0  0  0  0  0  0  0  0  0  0  0  0
   53.9950   87.5190   19.1120 C   0  0  0  0  0  0  0  0  0  0  0  0
   54.4880   87.2650   17.8810 N   0  0  0  0  0  0  0  0  0  0  0  0
   53.6100   86.5970   17.1810 O   0  0  0  0  0  0  0  0  0  0  0  0
   52.5300   86.3840   17.8880 N   0  0  0  0  0  0  0  0  0  0  0  0
   52.7340   86.9420   19.0930 C   0  0  0  0  0  0  0  0  0  0  0  0
   51.7940   86.9250   20.1460 N   0  0  0  0  0  0  0  0  0  0  0  0
   53.4810   97.6430   27.8350 B   0  0  0  0  0  0  0  0  0  0  0  0
   56.1970   98.5170   26.8130 O   0  0  0  0  0  0  0  0  0  0  0  0
   53.2770   95.0980   26.3190 H   0  0  0  0  0  0  0  0  0  0  0  0
   57.1010   93.7220   23.9780 H   0  0  0  0  0  0  0  0  0  0  0  0
   53.6950   93.0940   24.9720 H   0  0  0  0  0  0  0  0  0  0  0  0
   53.7060   91.5300   23.3660 H   0  0  0  0  0  0  0  0  0  0  0  0
   54.4940   91.3130   19.4240 H   0  0  0  0  0  0  0  0  0  0  0  0
   53.1060   91.0400   20.5220 H   0  0  0  0  0  0  0  0  0  0  0  0
   54.3560   90.3230   17.0900 H   0  0  0  0  0  0  0  0  0  0  0  0
   52.6340   90.6250   16.7470 H   0  0  0  0  0  0  0  0  0  0  0  0
   54.4160   92.4890   18.4290 H   0  0  0  0  0  0  0  0  0  0  0  0
   53.7230   92.7620   16.7610 H   0  0  0  0  0  0  0  0  0  0  0  0
   50.5160   92.3540   18.8040 H   0  0  0  0  0  0  0  0  0  0  0  0
   50.9910   91.7160   17.2030 H   0  0  0  0  0  0  0  0  0  0  0  0
   50.9410   89.8050   18.4810 H   0  0  0  0  0  0  0  0  0  0  0  0
   51.3750   90.6610   20.0050 H   0  0  0  0  0  0  0  0  0  0  0  0
   51.0060   86.2530   20.1020 H   0  0  0  0  0  0  0  0  0  0  0  0
   51.8590   87.5570   20.9640 H   0  0  0  0  0  0  0  0  0  0  0  0
   56.7590   99.1790   26.3030 H   0  0  0  0  0  0  0  0  0  0  0  0
  1  2  1  0  0  0  0
  2  3  1  0  0  0  0
  3  4  2  0  0  0  0
  3 33  1  0  0  0  0
  4 32  1  0  0  0  0
  5 34  1  0  0  0  0
  5  4  1  0  0  0  0
  6  5  2  0  0  0  0
  7  6  1  0  0  0  0
  7  2  2  0  0  0  0
  8 35  1  0  0  0  0
  8  7  1  0  0  0  0
  9 36  1  0  0  0  0
  9  6  1  0  0  0  0
 10  9  2  0  0  0  0
 11 37  1  0  0  0  0
 11 10  1  0  0  0  0
 12 13  2  0  0  0  0
 12 11  1  0  0  0  0
 14 15  1  0  0  0  0
 14 12  1  0  0  0  0
 16 15  2  0  0  0  0
 17 18  1  0  0  0  0
 17 16  1  0  0  0  0
 18 14  2  0  0  0  0
 19 39  1  0  0  0  0
 19 18  1  0  0  0  0
 20 25  1  0  0  0  0
 20 19  1  0  0  0  0
 21 22  1  0  0  0  0
 21 20  1  0  0  0  0
 22 23  1  0  0  0  0
 22 42  1  0  0  0  0
 24 23  1  0  0  0  0
 24 44  1  0  0  0  0
 24 25  1  0  0  0  0
 25 47  1  0  0  0  0
 26 17  1  0  0  0  0
 27 26  2  0  0  0  0
 28 27  1  0  0  0  0
 28 29  1  0  0  0  0
 29 30  2  0  0  0  0
 30 26  1  0  0  0  0
 30 31  1  0  0  0  0
 31 49  1  0  0  0  0
 38 19  1  0  0  0  0
 40 21  1  0  0  0  0
 41 21  1  0  0  0  0
 43 22  1  0  0  0  0
 45 24  1  0  0  0  0
 46 25  1  0  0  0  0
 48 31  1  0  0  0  0
 50 33  1  0  0  0  0
M  END
>  <Pose>
1

>  <Score>
-9.47

$$$$
