
 OpenBabel03202210083D

 60 64  0  0  1  0  0  0  0  0999 V2000
   54.6150   85.2750   26.5320 B   0  0  0  0  0  0  0  0  0  0  0  0
   54.4520   85.5030   24.6390 C   0  0  0  0  0  0  0  0  0  0  0  0
   55.2420   86.4920   24.0330 C   0  0  0  0  0  0  0  0  0  0  0  0
   55.1150   86.6420   22.6890 C   0  0  0  0  0  0  0  0  0  0  0  0
   54.2400   85.8550   21.9290 C   0  0  0  0  0  0  0  0  0  0  0  0
   53.4770   84.8920   22.5470 C   0  0  0  0  0  0  0  0  0  0  0  0
   53.5910   84.7230   23.9100 C   0  0  0  0  0  0  0  0  0  0  0  0
   52.2550   83.7640   21.6170 B   0  0  0  0  0  0  0  0  0  0  0  0
   56.1340   87.9200   21.7550 B   0  0  0  0  0  0  0  0  0  0  0  0
   56.0740   87.2310   24.7990 O   0  0  0  0  0  0  0  0  0  0  0  0
   56.8300   88.3650   24.3800 C   0  0  0  0  0  0  0  0  0  0  0  0
   56.0000   89.5770   24.4070 C   0  0  1  0  0  0  0  0  0  0  0  0
   55.3200   89.5580   25.6380 O   0  0  0  0  0  0  0  0  0  0  0  0
   56.3570   90.8610   23.8270 C   0  0  0  0  0  0  0  0  0  0  0  0
   55.4640   91.6070   23.0140 N   0  0  0  0  0  0  0  0  0  0  0  0
   55.0190   91.2430   21.7810 C   0  0  0  0  0  0  0  0  0  0  0  0
   54.1730   92.2060   21.2990 C   0  0  0  0  0  0  0  0  0  0  0  0
   54.1230   93.1280   22.2380 N   0  0  0  0  0  0  0  0  0  0  0  0
   54.9050   92.7970   23.3020 C   0  0  0  0  0  0  0  0  0  0  0  0
   55.1140   93.6950   24.4070 N   0  0  0  0  0  0  0  0  0  0  0  0
   54.1560   94.1570   25.3360 C   0  0  0  0  0  0  0  0  0  0  0  0
   54.8990   95.0290   26.3850 C   0  0  0  0  0  0  0  0  0  0  0  0
   55.4360   96.1400   25.6230 N   0  0  0  0  0  4  0  0  0  0  0  0
   56.6500   95.5680   25.0100 C   0  0  0  0  0  0  0  0  0  0  0  0
   56.4930   94.1530   24.6200 C   0  0  0  0  0  0  0  0  0  0  0  0
   55.8000   97.2500   26.4810 C   0  0  0  0  0  0  0  0  0  0  0  0
   57.0400   97.9120   25.9200 C   0  0  0  0  0  0  0  0  0  0  0  0
   57.7030   98.5880   26.9520 O   0  0  0  0  0  0  0  0  0  0  0  0
   53.5620   92.1540   20.0750 N   0  0  0  0  0  0  0  0  0  0  0  0
   53.8290   91.0830   19.3180 C   0  0  0  0  0  0  0  0  0  0  0  0
   53.2640   91.0380   18.1890 O   0  0  0  0  0  0  0  0  0  0  0  0
   54.6580   90.1100   19.7450 N   0  0  0  0  0  0  0  0  0  0  0  0
   55.2630   90.1480   20.9430 C   0  0  0  0  0  0  0  0  0  0  0  0
   56.1100   89.1440   21.3530 O   0  0  0  0  0  0  0  0  0  0  0  0
   52.6720   93.2330   19.6690 C   0  0  0  0  0  0  0  0  0  0  0  0
   54.1590   85.9940   20.8700 H   0  0  0  0  0  0  0  0  0  0  0  0
   52.9990   83.9650   24.4400 H   0  0  0  0  0  0  0  0  0  0  0  0
   57.0010   88.1330   23.2710 H   0  0  0  0  0  0  0  0  0  0  0  0
   57.8340   88.4150   24.7780 H   0  0  0  0  0  0  0  0  0  0  0  0
   55.0570   89.2380   23.7130 H   0  0  0  0  0  0  0  0  0  0  0  0
   54.4550   90.0030   25.5850 H   0  0  0  0  0  0  0  0  0  0  0  0
   56.9210   91.5310   24.5570 H   0  0  0  0  0  0  0  0  0  0  0  0
   57.2690   90.5940   23.1540 H   0  0  0  0  0  0  0  0  0  0  0  0
   53.7330   93.3500   25.9890 H   0  0  0  0  0  0  0  0  0  0  0  0
   53.4150   94.8530   24.9320 H   0  0  0  0  0  0  0  0  0  0  0  0
   55.7120   94.4440   26.8550 H   0  0  0  0  0  0  0  0  0  0  0  0
   54.2170   95.4260   27.1380 H   0  0  0  0  0  0  0  0  0  0  0  0
   54.8330   96.4330   24.8260 H   0  0  0  0  0  0  0  0  0  0  0  0
   57.1070   96.2410   24.2800 H   0  0  0  0  0  0  0  0  0  0  0  0
   57.3820   95.5720   25.8810 H   0  0  0  0  0  0  0  0  0  0  0  0
   57.0680   93.9750   23.6920 H   0  0  0  0  0  0  0  0  0  0  0  0
   56.9040   93.4330   25.3680 H   0  0  0  0  0  0  0  0  0  0  0  0
   56.0590   96.8960   27.5130 H   0  0  0  0  0  0  0  0  0  0  0  0
   55.0130   98.0260   26.5200 H   0  0  0  0  0  0  0  0  0  0  0  0
   57.7570   97.1510   25.5390 H   0  0  0  0  0  0  0  0  0  0  0  0
   56.7870   98.6620   25.1200 H   0  0  0  0  0  0  0  0  0  0  0  0
   57.8660   99.5390   26.7030 H   0  0  0  0  0  0  0  0  0  0  0  0
   51.6320   92.8160   19.8100 H   0  0  0  0  0  0  0  0  0  0  0  0
   52.7410   94.0440   20.4200 H   0  0  0  0  0  0  0  0  0  0  0  0
   52.7970   93.5590   18.6400 H   0  0  0  0  0  0  0  0  0  0  0  0
  2  1  1  0  0  0  0
  3  2  1  0  0  0  0
  3 10  1  0  0  0  0
  4  3  2  0  0  0  0
  5  6  2  0  0  0  0
  5  4  1  0  0  0  0
  6  7  1  0  0  0  0
  7 37  1  0  0  0  0
  7  2  2  0  0  0  0
  8  6  1  0  0  0  0
  9  4  1  0  0  0  0
 11 12  1  0  0  0  0
 11 39  1  0  0  0  0
 11 10  1  0  0  0  0
 12 40  1  6  0  0  0
 12 13  1  0  0  0  0
 14 12  1  0  0  0  0
 14 42  1  0  0  0  0
 15 19  1  0  0  0  0
 15 14  1  0  0  0  0
 16 15  1  0  0  0  0
 17 16  2  0  0  0  0
 17 18  1  0  0  0  0
 18 19  2  0  0  0  0
 19 20  1  0  0  0  0
 20 25  1  0  0  0  0
 20 21  1  0  0  0  0
 21 44  1  0  0  0  0
 21 22  1  0  0  0  0
 22 46  1  0  0  0  0
 22 47  1  0  0  0  0
 23 22  1  0  0  0  0
 23 26  1  0  0  0  0
 24 23  1  0  0  0  0
 24 50  1  0  0  0  0
 25 24  1  0  0  0  0
 25 52  1  0  0  0  0
 26 54  1  0  0  0  0
 26 53  1  0  0  0  0
 27 26  1  0  0  0  0
 27 28  1  0  0  0  0
 29 17  1  0  0  0  0
 30 32  1  0  0  0  0
 30 29  1  0  0  0  0
 31 30  2  0  0  0  0
 32 33  2  0  0  0  0
 33 34  1  0  0  0  0
 33 16  1  0  0  0  0
 34  9  1  0  0  0  0
 35 58  1  0  0  0  0
 35 29  1  0  0  0  0
 35 59  1  0  0  0  0
 36  5  1  0  0  0  0
 38 11  1  0  0  0  0
 41 13  1  0  0  0  0
 43 14  1  0  0  0  0
 45 21  1  0  0  0  0
 48 23  1  0  0  0  0
 49 24  1  0  0  0  0
 51 25  1  0  0  0  0
 55 27  1  0  0  0  0
 56 27  1  0  0  0  0
 57 28  1  0  0  0  0
 60 35  1  0  0  0  0
M  END
>  <Pose>
1

>  <Score>
-8.71

$$$$
