
 OpenBabel03202210083D

 43 46  0  0  0  0  0  0  0  0999 V2000
   57.7710   98.1370   25.5210 B   0  0  0  0  0  0  0  0  0  0  0  0
   56.2050   97.1430   25.9210 C   0  0  0  0  0  0  0  0  0  0  0  0
   56.0920   95.8570   25.4360 C   0  0  0  0  0  0  0  0  0  0  0  0
   54.9750   95.1310   25.7140 C   0  0  0  0  0  0  0  0  0  0  0  0
   53.9320   95.6610   26.4840 C   0  0  0  0  0  0  0  0  0  0  0  0
   54.0720   96.9440   26.9540 C   0  0  0  0  0  0  0  0  0  0  0  0
   55.1910   97.6930   26.6850 C   0  0  0  0  0  0  0  0  0  0  0  0
   52.6770   97.7170   28.0110 B   0  0  0  0  0  0  0  0  0  0  0  0
   54.8450   93.7780   25.2110 C   0  0  0  0  0  0  0  0  0  0  0  0
   55.4090   93.4670   24.1070 N   0  0  0  0  0  0  0  0  0  0  0  0
   55.3490   92.2060   23.5370 N   0  0  0  0  0  0  0  0  0  0  0  0
   54.9330   91.9430   22.2080 C   0  0  0  0  0  0  0  0  0  0  0  0
   53.9360   92.5780   21.7930 O   0  0  0  0  0  0  0  0  0  0  0  0
   55.5970   90.9990   21.3420 C   0  0  0  0  0  0  0  0  0  0  0  0
   54.7700   90.0000   20.7410 N   0  0  0  0  0  0  0  0  0  0  0  0
   53.7150   90.1910   19.9050 C   0  0  0  0  0  0  0  0  0  0  0  0
   53.1790   88.9860   19.5440 C   0  0  0  0  0  0  0  0  0  0  0  0
   53.9230   88.0640   20.1750 N   0  0  0  0  0  0  0  0  0  0  0  0
   54.9000   88.6830   20.9100 C   0  0  0  0  0  0  0  0  0  0  0  0
   55.8820   87.9700   21.7180 C   0  0  0  0  0  0  0  0  0  0  0  0
   56.6040   86.9160   21.3160 N   0  0  0  0  0  0  0  0  0  0  0  0
   57.3870   86.5330   22.3090 O   0  0  0  0  0  0  0  0  0  0  0  0
   57.2040   87.2920   23.3420 N   0  0  0  0  0  0  0  0  0  0  0  0
   56.2670   88.2100   23.0180 C   0  0  0  0  0  0  0  0  0  0  0  0
   55.7680   89.2350   23.8560 N   0  0  0  0  0  4  0  0  0  0  0  0
   52.0930   88.9710   18.6940 C   0  0  0  0  0  0  0  0  0  0  0  0
   51.5340   90.1370   18.1970 C   0  0  0  0  0  0  0  0  0  0  0  0
   52.0990   91.3410   18.5790 C   0  0  0  0  0  0  0  0  0  0  0  0
   53.1850   91.3590   19.4300 C   0  0  0  0  0  0  0  0  0  0  0  0
   57.1130   95.3180   24.6740 O   0  0  0  0  0  0  0  0  0  0  0  0
   53.0420   95.0990   26.7140 H   0  0  0  0  0  0  0  0  0  0  0  0
   55.3310   98.7010   27.0370 H   0  0  0  0  0  0  0  0  0  0  0  0
   54.2870   93.0060   25.7260 H   0  0  0  0  0  0  0  0  0  0  0  0
   55.6260   91.3900   24.1230 H   0  0  0  0  0  0  0  0  0  0  0  0
   56.1190   91.5130   20.4750 H   0  0  0  0  0  0  0  0  0  0  0  0
   56.4340   90.5240   21.8900 H   0  0  0  0  0  0  0  0  0  0  0  0
   56.4120   90.0330   23.9390 H   0  0  0  0  0  0  0  0  0  0  0  0
   55.6920   88.8110   24.8220 H   0  0  0  0  0  0  0  0  0  0  0  0
   54.7990   89.5470   23.5860 H   0  0  0  0  0  0  0  0  0  0  0  0
   51.6730   88.0060   18.4120 H   0  0  0  0  0  0  0  0  0  0  0  0
   50.6710   90.0890   17.5220 H   0  0  0  0  0  0  0  0  0  0  0  0
   51.6640   92.2550   18.1910 H   0  0  0  0  0  0  0  0  0  0  0  0
   53.6450   92.2920   19.7440 H   0  0  0  0  0  0  0  0  0  0  0  0
  1  2  1  0  0  0  0
  2  7  1  0  0  0  0
  3  4  1  0  0  0  0
  3  2  2  0  0  0  0
  4  5  2  0  0  0  0
  5 31  1  0  0  0  0
  5  6  1  0  0  0  0
  6  8  1  0  0  0  0
  7  6  2  0  0  0  0
  7 32  1  0  0  0  0
  9  4  1  0  0  0  0
  9 33  1  0  0  0  0
 10  9  2  0  0  0  0
 11 10  1  0  0  0  0
 11 34  1  0  0  0  0
 12 11  1  0  0  0  0
 13 12  2  0  0  0  0
 14 36  1  0  0  0  0
 14 12  1  0  0  0  0
 15 19  1  0  0  0  0
 15 14  1  0  0  0  0
 16 15  1  0  0  0  0
 17 16  1  0  0  0  0
 17 18  1  0  0  0  0
 18 19  2  0  0  0  0
 19 20  1  0  0  0  0
 20 24  1  0  0  0  0
 21 20  2  0  0  0  0
 21 22  1  0  0  0  0
 22 23  1  0  0  0  0
 24 23  2  0  0  0  0
 24 25  1  0  0  0  0
 25 37  1  0  0  0  0
 25 38  1  0  0  0  0
 26 17  2  0  0  0  0
 27 28  2  0  0  0  0
 27 26  1  0  0  0  0
 28 29  1  0  0  0  0
 29 43  1  0  0  0  0
 29 16  2  0  0  0  0
 30  3  1  0  0  0  0
 35 14  1  0  0  0  0
 39 25  1  0  0  0  0
 40 26  1  0  0  0  0
 41 27  1  0  0  0  0
 42 28  1  0  0  0  0
M  END
>  <Pose>
1

>  <Score>
-10.75

$$$$
