
 OpenBabel03202210083D

 50 53  0  0  0  0  0  0  0  0999 V2000
   56.7120   86.8880   23.6680 B   0  0  0  0  0  0  0  0  0  0  0  0
   55.9000   88.1800   22.5400 C   0  0  0  0  0  0  0  0  0  0  0  0
   55.2800   87.7920   21.3730 C   0  0  0  0  0  0  0  0  0  0  0  0
   54.7000   88.7760   20.5360 C   0  0  0  0  0  0  0  0  0  0  0  0
   54.7910   90.0770   20.9380 C   0  0  0  0  0  0  0  0  0  0  0  0
   55.4140   90.5180   22.1150 C   0  0  0  0  0  0  0  0  0  0  0  0
   55.9580   89.5160   22.8880 C   0  0  0  0  0  0  0  0  0  0  0  0
   55.4640   91.9060   22.4210 C   0  0  0  0  0  0  0  0  0  0  0  0
   55.2760   92.5480   23.3940 N   0  0  0  0  0  0  0  0  0  0  0  0
   55.0630   93.1390   24.4550 N   0  0  0  0  0  0  0  0  0  0  0  0
   54.8280   93.7860   25.6230 C   0  0  0  0  0  0  0  0  0  0  0  0
   55.1580   93.6450   26.7990 O   0  0  0  0  0  0  0  0  0  0  0  0
   53.9090   95.0080   25.4050 C   0  0  0  0  0  0  0  0  0  0  0  0
   54.4480   96.1820   25.9580 N   0  0  0  0  0  0  0  0  0  0  0  0
   55.7510   96.5490   25.6570 C   0  0  0  0  0  0  0  0  0  0  0  0
   56.0080   97.6820   26.3350 C   0  0  0  0  0  0  0  0  0  0  0  0
   54.9140   97.9840   27.0150 N   0  0  0  0  0  0  0  0  0  0  0  0
   53.9190   97.0440   26.7840 C   0  0  0  0  0  0  0  0  0  0  0  0
   52.6660   97.2490   27.4880 C   0  0  0  0  0  0  0  0  0  0  0  0
   51.5900   96.3730   27.3640 N   0  0  0  0  0  0  0  0  0  0  0  0
   50.6200   96.7520   28.0920 O   0  0  0  0  0  0  0  0  0  0  0  0
   50.9220   97.8190   28.7170 N   0  0  0  0  0  0  0  0  0  0  0  0
   52.2070   98.1650   28.3630 C   0  0  0  0  0  0  0  0  0  0  0  0
   52.8490   99.2970   28.9060 N   0  0  0  0  0  4  0  0  0  0  0  0
   57.2310   98.3320   26.2700 C   0  0  0  0  0  0  0  0  0  0  0  0
   58.1870   97.7590   25.4670 C   0  0  0  0  0  0  0  0  0  0  0  0
   57.9750   96.5990   24.7470 C   0  0  0  0  0  0  0  0  0  0  0  0
   56.7270   95.9860   24.8500 C   0  0  0  0  0  0  0  0  0  0  0  0
   54.0860   88.3570   19.3710 O   0  0  0  0  0  0  0  0  0  0  0  0
   53.1790   89.1390   18.6710 C   0  0  0  0  0  0  0  0  0  0  0  0
   52.0370   88.4090   18.0230 C   0  0  0  0  0  0  0  0  0  0  0  0
   55.1890   86.4930   20.9640 O   0  0  0  0  0  0  0  0  0  0  0  0
   54.3710   90.8540   20.3240 H   0  0  0  0  0  0  0  0  0  0  0  0
   56.4530   89.7900   23.8420 H   0  0  0  0  0  0  0  0  0  0  0  0
   55.7500   92.6370   21.5830 H   0  0  0  0  0  0  0  0  0  0  0  0
   54.8540   91.9280   25.1370 H   0  0  0  0  0  0  0  0  0  0  0  0
   52.9640   94.7570   25.9980 H   0  0  0  0  0  0  0  0  0  0  0  0
   53.6600   95.0240   24.3600 H   0  0  0  0  0  0  0  0  0  0  0  0
   53.8270   99.3900   28.4340 H   0  0  0  0  0  0  0  0  0  0  0  0
   53.0790   99.1340   29.8940 H   0  0  0  0  0  0  0  0  0  0  0  0
   52.3910  100.1620   28.6290 H   0  0  0  0  0  0  0  0  0  0  0  0
   57.3650   99.2450   26.8410 H   0  0  0  0  0  0  0  0  0  0  0  0
   59.1780   98.2470   25.3860 H   0  0  0  0  0  0  0  0  0  0  0  0
   58.7610   96.1870   24.1340 H   0  0  0  0  0  0  0  0  0  0  0  0
   56.5060   95.0850   24.3110 H   0  0  0  0  0  0  0  0  0  0  0  0
   52.7600   89.9510   19.3610 H   0  0  0  0  0  0  0  0  0  0  0  0
   53.6840   89.7450   17.8580 H   0  0  0  0  0  0  0  0  0  0  0  0
   52.0120   88.6680   16.9540 H   0  0  0  0  0  0  0  0  0  0  0  0
   52.1350   87.3410   18.1720 H   0  0  0  0  0  0  0  0  0  0  0  0
   51.0580   88.8090   18.4290 H   0  0  0  0  0  0  0  0  0  0  0  0
  2  7  1  0  0  0  0
  2  1  1  0  0  0  0
  3  2  2  0  0  0  0
  4  5  2  0  0  0  0
  4  3  1  0  0  0  0
  5  6  1  0  0  0  0
  6  8  1  0  0  0  0
  6  7  2  0  0  0  0
  7 34  1  0  0  0  0
  8  9  1  0  0  0  0
  9 10  1  0  0  0  0
 10 36  1  0  0  0  0
 10 11  1  0  0  0  0
 11 12  2  0  0  0  0
 13 11  1  0  0  0  0
 13 14  1  0  0  0  0
 13 37  1  0  0  0  0
 14 18  1  0  0  0  0
 15 14  1  0  0  0  0
 15 16  1  0  0  0  0
 16 17  1  0  0  0  0
 18 17  2  0  0  0  0
 18 19  1  0  0  0  0
 19 23  1  0  0  0  0
 20 19  2  0  0  0  0
 20 21  1  0  0  0  0
 21 22  1  0  0  0  0
 23 22  2  0  0  0  0
 23 24  1  0  0  0  0
 24 40  1  0  0  0  0
 25 16  2  0  0  0  0
 25 42  1  0  0  0  0
 26 25  1  0  0  0  0
 27 28  1  0  0  0  0
 27 26  2  0  0  0  0
 28 15  2  0  0  0  0
 29  4  1  0  0  0  0
 30 46  1  0  0  0  0
 30 29  1  0  0  0  0
 31 49  1  0  0  0  0
 31 50  1  0  0  0  0
 31 30  1  0  0  0  0
 32  3  1  0  0  0  0
 33  5  1  0  0  0  0
 35  8  1  0  0  0  0
 38 13  1  0  0  0  0
 39 24  1  0  0  0  0
 41 24  1  0  0  0  0
 43 26  1  0  0  0  0
 44 27  1  0  0  0  0
 45 28  1  0  0  0  0
 47 30  1  0  0  0  0
 48 31  1  0  0  0  0
M  END
>  <Pose>
1

>  <Score>
-9.73

$$$$
