
 OpenBabel03202210083D

 56 59  0  0  0  0  0  0  0  0999 V2000
   57.5380   97.9320   25.2290 B   0  0  0  0  0  0  0  0  0  0  0  0
   56.0620   96.7920   25.6240 C   0  0  0  0  0  0  0  0  0  0  0  0
   55.0500   97.1840   26.4930 C   0  0  0  0  0  0  0  0  0  0  0  0
   53.9820   96.3660   26.7820 C   0  0  0  0  0  0  0  0  0  0  0  0
   53.9460   95.1320   26.1790 C   0  0  0  0  0  0  0  0  0  0  0  0
   54.9370   94.7080   25.3080 C   0  0  0  0  0  0  0  0  0  0  0  0
   55.9880   95.5590   25.0460 C   0  0  0  0  0  0  0  0  0  0  0  0
   54.9250   93.4090   24.6550 C   0  0  0  0  0  0  0  0  0  0  0  0
   55.6440   93.1640   23.6230 N   0  0  0  0  0  0  0  0  0  0  0  0
   55.6940   91.9710   22.9460 N   0  0  0  0  0  0  0  0  0  0  0  0
   54.7410   91.5420   21.9950 C   0  0  0  0  0  0  0  0  0  0  0  0
   53.9800   92.3840   21.4780 O   0  0  0  0  0  0  0  0  0  0  0  0
   54.6220   90.1440   21.6020 C   0  0  0  0  0  0  0  0  0  0  0  0
   55.1450   89.0590   22.1870 N   0  0  0  0  0  0  0  0  0  0  0  0
   54.7980   87.9880   21.5180 N   0  0  0  0  0  0  0  0  0  0  0  0
   54.0310   88.3160   20.4620 N   0  0  0  0  0  0  0  0  0  0  0  0
   53.9090   89.6470   20.4950 C   0  0  0  0  0  0  0  0  0  0  0  0
   53.1570   90.5270   19.5980 C   0  0  0  0  0  0  0  0  0  0  0  0
   52.7640   89.9800   18.3240 N   0  0  0  0  0  0  0  0  0  0  0  0
   51.7970   90.9480   17.7910 C   0  0  0  0  0  0  0  0  0  0  0  0
   52.3300   92.3080   17.5730 C   0  0  0  0  0  0  0  0  0  0  0  0
   53.6690   92.2770   17.2140 O   0  0  0  0  0  0  0  0  0  0  0  0
   53.8950   91.1320   16.4820 C   0  0  0  0  0  0  0  0  0  0  0  0
   53.9230   89.9480   17.4290 C   0  0  0  0  0  0  0  0  0  0  0  0
   53.4850   87.3480   19.5600 C   0  0  0  0  0  0  0  0  0  0  0  0
   54.1280   86.4730   18.7700 N   0  0  0  0  0  0  0  0  0  0  0  0
   53.2450   85.7630   18.1080 O   0  0  0  0  0  0  0  0  0  0  0  0
   52.0280   86.1330   18.4270 N   0  0  0  0  0  0  0  0  0  0  0  0
   52.1490   87.1210   19.3320 C   0  0  0  0  0  0  0  0  0  0  0  0
   51.0400   87.7800   19.9220 N   0  0  0  0  0  0  0  0  0  0  0  0
   53.0180   96.8200   27.6510 O   0  0  0  0  0  0  0  0  0  0  0  0
   52.2050   97.9360   27.4900 C   0  0  0  0  0  0  0  0  0  0  0  0
   50.8860   97.8630   28.1880 C   0  0  0  0  0  0  0  0  0  0  0  0
   55.1410   98.4450   27.0750 O   0  0  0  0  0  0  0  0  0  0  0  0
   53.1170   94.4760   26.3920 H   0  0  0  0  0  0  0  0  0  0  0  0
   56.7790   95.2400   24.3610 H   0  0  0  0  0  0  0  0  0  0  0  0
   54.2940   92.6210   25.0440 H   0  0  0  0  0  0  0  0  0  0  0  0
   56.5130   91.3300   23.1570 H   0  0  0  0  0  0  0  0  0  0  0  0
   53.7630   91.4480   19.3870 H   0  0  0  0  0  0  0  0  0  0  0  0
   52.2470   90.9470   20.1300 H   0  0  0  0  0  0  0  0  0  0  0  0
   51.4130   90.5250   16.8620 H   0  0  0  0  0  0  0  0  0  0  0  0
   51.0070   91.0090   18.5930 H   0  0  0  0  0  0  0  0  0  0  0  0
   52.2990   92.8520   18.5630 H   0  0  0  0  0  0  0  0  0  0  0  0
   51.7220   92.9290   16.8830 H   0  0  0  0  0  0  0  0  0  0  0  0
   54.8750   91.1340   15.9620 H   0  0  0  0  0  0  0  0  0  0  0  0
   53.0570   91.0060   15.7680 H   0  0  0  0  0  0  0  0  0  0  0  0
   54.8560   90.0240   18.0030 H   0  0  0  0  0  0  0  0  0  0  0  0
   53.8630   89.0540   16.7890 H   0  0  0  0  0  0  0  0  0  0  0  0
   50.2920   88.2590   19.3800 H   0  0  0  0  0  0  0  0  0  0  0  0
   50.9270   87.8110   20.9680 H   0  0  0  0  0  0  0  0  0  0  0  0
   52.7270   98.8740   27.8110 H   0  0  0  0  0  0  0  0  0  0  0  0
   52.0040   98.0500   26.3940 H   0  0  0  0  0  0  0  0  0  0  0  0
   50.0210   97.9270   27.4690 H   0  0  0  0  0  0  0  0  0  0  0  0
   50.7360   98.6610   28.9530 H   0  0  0  0  0  0  0  0  0  0  0  0
   50.7860   96.8670   28.6730 H   0  0  0  0  0  0  0  0  0  0  0  0
   55.3470   99.2520   26.4980 H   0  0  0  0  0  0  0  0  0  0  0  0
  1  2  1  0  0  0  0
  2  3  1  0  0  0  0
  3  4  2  0  0  0  0
  3 34  1  0  0  0  0
  4 31  1  0  0  0  0
  5 35  1  0  0  0  0
  5  4  1  0  0  0  0
  6  5  2  0  0  0  0
  7  6  1  0  0  0  0
  7  2  2  0  0  0  0
  8 37  1  0  0  0  0
  8  6  1  0  0  0  0
  9  8  2  0  0  0  0
 10 38  1  0  0  0  0
 10  9  1  0  0  0  0
 11 10  1  0  0  0  0
 12 11  2  0  0  0  0
 13 11  1  0  0  0  0
 13 14  1  0  0  0  0
 15 14  2  0  0  0  0
 16 17  1  0  0  0  0
 16 15  1  0  0  0  0
 17 13  2  0  0  0  0
 18 40  1  0  0  0  0
 18 17  1  0  0  0  0
 19 18  1  0  0  0  0
 20 19  1  0  0  0  0
 20 42  1  0  0  0  0
 21 20  1  0  0  0  0
 21 43  1  0  0  0  0
 22 21  1  0  0  0  0
 23 22  1  0  0  0  0
 23 24  1  0  0  0  0
 24 47  1  0  0  0  0
 24 19  1  0  0  0  0
 25 16  1  0  0  0  0
 26 25  2  0  0  0  0
 27 28  1  0  0  0  0
 27 26  1  0  0  0  0
 28 29  2  0  0  0  0
 29 25  1  0  0  0  0
 29 30  1  0  0  0  0
 30 50  1  0  0  0  0
 32 31  1  0  0  0  0
 32 51  1  0  0  0  0
 32 33  1  0  0  0  0
 33 55  1  0  0  0  0
 33 54  1  0  0  0  0
 36  7  1  0  0  0  0
 39 18  1  0  0  0  0
 41 20  1  0  0  0  0
 44 21  1  0  0  0  0
 45 23  1  0  0  0  0
 46 23  1  0  0  0  0
 48 24  1  0  0  0  0
 49 30  1  0  0  0  0
 52 32  1  0  0  0  0
 53 33  1  0  0  0  0
 56 34  1  0  0  0  0
M  END
>  <Pose>
1

>  <Score>
-10.13

$$$$
