
 OpenBabel03202210083D

 53 56  0  0  0  0  0  0  0  0999 V2000
   52.4140   91.6100   18.3810 B   0  0  0  0  0  0  0  0  0  0  0  0
   53.7650   91.2690   19.7160 C   0  0  0  0  0  0  0  0  0  0  0  0
   54.5540   90.1450   19.5890 C   0  0  0  0  0  0  0  0  0  0  0  0
   55.5330   89.8900   20.5100 C   0  0  0  0  0  0  0  0  0  0  0  0
   55.6890   90.7800   21.5470 C   0  0  0  0  0  0  0  0  0  0  0  0
   54.9240   91.9190   21.7220 C   0  0  0  0  0  0  0  0  0  0  0  0
   53.9120   92.1320   20.7150 C   0  0  0  0  0  0  0  0  0  0  0  0
   54.9940   92.8610   22.7090 C   0  0  0  0  0  0  0  0  0  0  0  0
   55.7790   93.4380   23.6380 N   0  0  0  0  0  0  0  0  0  0  0  0
   54.6640   94.4510   24.1630 N   0  0  0  0  0  0  0  0  0  0  0  0
   54.6990   94.2290   25.5920 C   0  0  0  0  0  0  0  0  0  0  0  0
   55.5840   93.5330   26.0880 O   0  0  0  0  0  0  0  0  0  0  0  0
   53.7530   94.8970   26.4580 C   0  0  0  0  0  0  0  0  0  0  0  0
   52.5030   94.7660   26.7310 N   0  0  0  0  0  0  0  0  0  0  0  0
   52.0180   95.9080   27.1870 N   0  0  0  0  0  0  0  0  0  0  0  0
   52.9940   96.8040   27.2160 N   0  0  0  0  0  0  0  0  0  0  0  0
   54.1440   96.2940   26.7980 C   0  0  0  0  0  0  0  0  0  0  0  0
   55.4420   96.8240   26.4950 C   0  0  0  0  0  0  0  0  0  0  0  0
   55.7500   97.1310   25.0970 N   0  0  0  0  0  0  0  0  0  0  0  0
   57.1260   96.9200   24.7840 C   0  0  0  0  0  0  0  0  0  0  0  0
   58.0770   97.8780   25.4410 C   0  0  0  0  0  0  0  0  0  0  0  0
   57.9860   99.1160   24.8280 O   0  0  0  0  0  0  0  0  0  0  0  0
   56.7360   99.2740   24.2190 C   0  0  0  0  0  0  0  0  0  0  0  0
   55.6800   98.6560   25.0730 C   0  0  0  0  0  0  0  0  0  0  0  0
   52.6820   98.2180   27.2610 C   0  0  0  0  0  0  0  0  0  0  0  0
   52.5910   99.1310   26.3870 N   0  0  0  0  0  0  0  0  0  0  0  0
   52.3240  100.3230   26.9210 O   0  0  0  0  0  0  0  0  0  0  0  0
   52.2420  100.1400   28.1890 N   0  0  0  0  0  0  0  0  0  0  0  0
   52.4500   98.8630   28.5140 C   0  0  0  0  0  0  0  0  0  0  0  0
   52.4610   98.2800   29.7920 N   0  0  0  0  0  0  0  0  0  0  0  0
   56.3660   88.7690   20.4060 O   0  0  0  0  0  0  0  0  0  0  0  0
   56.5370   87.9240   21.5620 C   0  0  0  0  0  0  0  0  0  0  0  0
   54.3460   89.2730   18.5170 O   0  0  0  0  0  0  0  0  0  0  0  0
   56.4900   90.5710   22.2800 H   0  0  0  0  0  0  0  0  0  0  0  0
   53.2900   93.0280   20.7960 H   0  0  0  0  0  0  0  0  0  0  0  0
   53.9560   93.4310   22.8570 H   0  0  0  0  0  0  0  0  0  0  0  0
   54.2770   94.9370   23.4690 H   0  0  0  0  0  0  0  0  0  0  0  0
   55.9110   97.5610   27.1540 H   0  0  0  0  0  0  0  0  0  0  0  0
   56.2110   95.9330   26.6600 H   0  0  0  0  0  0  0  0  0  0  0  0
   57.3950   95.8910   25.0530 H   0  0  0  0  0  0  0  0  0  0  0  0
   57.2980   97.0330   23.6610 H   0  0  0  0  0  0  0  0  0  0  0  0
   58.0140   97.9010   26.5290 H   0  0  0  0  0  0  0  0  0  0  0  0
   59.1200   97.5170   25.1990 H   0  0  0  0  0  0  0  0  0  0  0  0
   56.6810   99.0820   23.1640 H   0  0  0  0  0  0  0  0  0  0  0  0
   56.5490  100.4070   24.3090 H   0  0  0  0  0  0  0  0  0  0  0  0
   54.6970   98.9970   24.7810 H   0  0  0  0  0  0  0  0  0  0  0  0
   55.9860   98.9610   26.1200 H   0  0  0  0  0  0  0  0  0  0  0  0
   51.8510   97.4840   30.0530 H   0  0  0  0  0  0  0  0  0  0  0  0
   53.1180   98.6230   30.5700 H   0  0  0  0  0  0  0  0  0  0  0  0
   57.1790   87.0630   21.3420 H   0  0  0  0  0  0  0  0  0  0  0  0
   57.0110   88.5810   22.3750 H   0  0  0  0  0  0  0  0  0  0  0  0
   55.5510   87.6180   21.8990 H   0  0  0  0  0  0  0  0  0  0  0  0
   55.1770   88.9660   17.9690 H   0  0  0  0  0  0  0  0  0  0  0  0
  1  2  1  0  0  0  0
  2  7  1  0  0  0  0
  3  2  2  0  0  0  0
  3  4  1  0  0  0  0
  4  5  2  0  0  0  0
  5  6  1  0  0  0  0
  5 34  1  0  0  0  0
  6  8  1  0  0  0  0
  7 35  1  0  0  0  0
  7  6  2  0  0  0  0
  8 36  1  0  0  0  0
  8  9  1  0  0  0  0
  9 10  1  0  0  0  0
 10 11  1  0  0  0  0
 11 12  2  0  0  0  0
 11 13  1  0  0  0  0
 13 14  1  0  0  0  0
 13 17  2  0  0  0  0
 14 15  2  0  0  0  0
 15 16  1  0  0  0  0
 16 25  1  0  0  0  0
 17 16  1  0  0  0  0
 18 39  1  0  0  0  0
 18 17  1  0  0  0  0
 18 38  1  0  0  0  0
 19 18  1  0  0  0  0
 20 40  1  0  0  0  0
 20 19  1  0  0  0  0
 20 21  1  0  0  0  0
 21 42  1  0  0  0  0
 22 21  1  0  0  0  0
 23 45  1  0  0  0  0
 23 22  1  0  0  0  0
 23 24  1  0  0  0  0
 24 19  1  0  0  0  0
 24 47  1  0  0  0  0
 25 29  1  0  0  0  0
 26 27  1  0  0  0  0
 26 25  2  0  0  0  0
 27 28  1  0  0  0  0
 28 29  2  0  0  0  0
 29 30  1  0  0  0  0
 30 48  1  0  0  0  0
 30 49  1  0  0  0  0
 31  4  1  0  0  0  0
 31 32  1  0  0  0  0
 32 52  1  0  0  0  0
 32 51  1  0  0  0  0
 33  3  1  0  0  0  0
 37 10  1  0  0  0  0
 41 20  1  0  0  0  0
 43 21  1  0  0  0  0
 44 23  1  0  0  0  0
 46 24  1  0  0  0  0
 50 32  1  0  0  0  0
 53 33  1  0  0  0  0
M  END
>  <Pose>
1

>  <Score>
-8.87

$$$$
