
 OpenBabel03202210083D

 58 61  0  0  0  0  0  0  0  0999 V2000
   58.0720   98.5120   25.5070 B   0  0  0  0  0  0  0  0  0  0  0  0
   56.6690   97.2200   25.7170 C   0  0  0  0  0  0  0  0  0  0  0  0
   55.8630   97.2760   26.8210 C   0  0  0  0  0  0  0  0  0  0  0  0
   54.8560   96.3270   26.9800 C   0  0  0  0  0  0  0  0  0  0  0  0
   54.6780   95.3330   26.0270 C   0  0  0  0  0  0  0  0  0  0  0  0
   55.4820   95.2610   24.9270 C   0  0  0  0  0  0  0  0  0  0  0  0
   56.4650   96.2160   24.7960 C   0  0  0  0  0  0  0  0  0  0  0  0
   55.5220   94.1260   23.9830 C   0  0  0  0  0  0  0  0  0  0  0  0
   55.3580   92.9920   24.1680 N   0  0  0  0  0  0  0  0  0  0  0  0
   55.1770   91.7090   24.3550 N   0  0  0  0  0  0  0  0  0  0  0  0
   55.3800   90.9780   23.0830 C   0  0  0  0  0  0  0  0  0  0  0  0
   55.0380   91.4410   21.8960 N   0  0  0  0  0  4  0  0  0  0  0  0
   55.0680   90.6370   20.7940 C   0  0  0  0  0  0  0  0  0  0  0  0
   55.4640   89.3600   21.0060 N   0  0  0  0  0  0  0  0  0  0  0  0
   55.8260   88.8340   22.1920 C   0  0  0  0  0  0  0  0  0  0  0  0
   55.7770   89.6860   23.2400 N   0  0  0  0  0  0  0  0  0  0  0  0
   56.0750   87.4820   22.3570 N   0  0  0  0  0  0  0  0  0  0  0  0
   55.2930   86.4840   22.9770 C   0  0  0  0  0  0  0  0  0  0  0  0
   56.1160   85.9510   24.1540 C   0  0  0  0  0  0  0  0  0  0  0  0
   57.3310   85.5340   23.6580 O   0  0  0  0  0  0  0  0  0  0  0  0
   58.0990   86.5090   23.0650 C   0  0  0  0  0  0  0  0  0  0  0  0
   57.3700   87.0080   21.7840 C   0  0  0  0  0  0  0  0  0  0  0  0
   54.6260   91.0700   19.5210 N   0  0  0  0  0  0  0  0  0  0  0  0
   53.4340   91.9260   19.4200 C   0  0  0  0  0  0  0  0  0  0  0  0
   52.5880   91.2950   18.2840 C   0  0  0  0  0  0  0  0  0  0  0  0
   53.3230   91.5070   17.1530 O   0  0  0  0  0  0  0  0  0  0  0  0
   54.4690   90.7640   17.0880 C   0  0  0  0  0  0  0  0  0  0  0  0
   55.2830   90.6690   18.3370 C   0  0  0  0  0  0  0  0  0  0  0  0
   54.0970   96.4620   28.1000 O   0  0  0  0  0  0  0  0  0  0  0  0
   52.8170   96.9670   28.2460 C   0  0  0  0  0  0  0  0  0  0  0  0
   52.7000   98.4170   27.8000 C   0  0  0  0  0  0  0  0  0  0  0  0
   56.0820   98.2790   27.7420 O   0  0  0  0  0  0  0  0  0  0  0  0
   53.8940   94.6100   26.1200 H   0  0  0  0  0  0  0  0  0  0  0  0
   57.1060   96.2300   23.9380 H   0  0  0  0  0  0  0  0  0  0  0  0
   55.7450   94.3910   22.9210 H   0  0  0  0  0  0  0  0  0  0  0  0
   54.9510   91.1390   25.1470 H   0  0  0  0  0  0  0  0  0  0  0  0
   54.2870   86.7440   23.3060 H   0  0  0  0  0  0  0  0  0  0  0  0
   55.2450   85.6190   22.2270 H   0  0  0  0  0  0  0  0  0  0  0  0
   55.5990   85.0270   24.5140 H   0  0  0  0  0  0  0  0  0  0  0  0
   56.1720   86.7310   24.9170 H   0  0  0  0  0  0  0  0  0  0  0  0
   59.0340   86.0930   22.7220 H   0  0  0  0  0  0  0  0  0  0  0  0
   58.3340   87.3770   23.7240 H   0  0  0  0  0  0  0  0  0  0  0  0
   57.9100   87.8210   21.3570 H   0  0  0  0  0  0  0  0  0  0  0  0
   57.1390   86.1690   21.1420 H   0  0  0  0  0  0  0  0  0  0  0  0
   52.8190   91.8700   20.3190 H   0  0  0  0  0  0  0  0  0  0  0  0
   53.6880   92.9490   19.2170 H   0  0  0  0  0  0  0  0  0  0  0  0
   51.6320   91.7970   18.2520 H   0  0  0  0  0  0  0  0  0  0  0  0
   52.4930   90.2120   18.5580 H   0  0  0  0  0  0  0  0  0  0  0  0
   55.1290   91.2170   16.2850 H   0  0  0  0  0  0  0  0  0  0  0  0
   54.2330   89.7520   16.7030 H   0  0  0  0  0  0  0  0  0  0  0  0
   56.2470   91.2280   18.2270 H   0  0  0  0  0  0  0  0  0  0  0  0
   55.5500   89.5730   18.4790 H   0  0  0  0  0  0  0  0  0  0  0  0
   52.1580   96.3540   27.5440 H   0  0  0  0  0  0  0  0  0  0  0  0
   52.4350   96.8830   29.2560 H   0  0  0  0  0  0  0  0  0  0  0  0
   53.6700   98.8850   27.6140 H   0  0  0  0  0  0  0  0  0  0  0  0
   52.1310   98.9840   28.5810 H   0  0  0  0  0  0  0  0  0  0  0  0
   52.0900   98.4700   26.8650 H   0  0  0  0  0  0  0  0  0  0  0  0
   56.9050   98.8300   27.7810 H   0  0  0  0  0  0  0  0  0  0  0  0
  1  2  1  0  0  0  0
  2  3  1  0  0  0  0
  3  4  2  0  0  0  0
  3 32  1  0  0  0  0
  4 29  1  0  0  0  0
  5 33  1  0  0  0  0
  5  4  1  0  0  0  0
  6  5  2  0  0  0  0
  7  6  1  0  0  0  0
  7  2  2  0  0  0  0
  8  9  1  0  0  0  0
  8  6  1  0  0  0  0
  9 10  1  0  0  0  0
 10 36  1  0  0  0  0
 11 16  1  0  0  0  0
 11 10  1  0  0  0  0
 12 11  2  0  0  0  0
 13 14  1  0  0  0  0
 13 12  2  0  0  0  0
 14 15  2  0  0  0  0
 15 17  1  0  0  0  0
 15 16  1  0  0  0  0
 17 18  1  0  0  0  0
 18 37  1  0  0  0  0
 18 19  1  0  0  0  0
 19 39  1  0  0  0  0
 19 40  1  0  0  0  0
 20 19  1  0  0  0  0
 21 20  1  0  0  0  0
 21 42  1  0  0  0  0
 22 17  1  0  0  0  0
 22 21  1  0  0  0  0
 23 13  1  0  0  0  0
 24 23  1  0  0  0  0
 24 45  1  0  0  0  0
 25 48  1  0  0  0  0
 25 24  1  0  0  0  0
 26 25  1  0  0  0  0
 27 26  1  0  0  0  0
 27 28  1  0  0  0  0
 28 52  1  0  0  0  0
 28 23  1  0  0  0  0
 29 30  1  0  0  0  0
 30 54  1  0  0  0  0
 31 30  1  0  0  0  0
 31 56  1  0  0  0  0
 32 58  1  0  0  0  0
 34  7  1  0  0  0  0
 35  8  1  0  0  0  0
 38 18  1  0  0  0  0
 41 21  1  0  0  0  0
 43 22  1  0  0  0  0
 44 22  1  0  0  0  0
 46 24  1  0  0  0  0
 47 25  1  0  0  0  0
 49 27  1  0  0  0  0
 50 27  1  0  0  0  0
 51 28  1  0  0  0  0
 53 30  1  0  0  0  0
 55 31  1  0  0  0  0
 57 31  1  0  0  0  0
M  END
>  <Pose>
1

>  <Score>
-8.65

$$$$
