
 OpenBabel03202210083D

 64 67  0  0  1  0  0  0  0  0999 V2000
   54.3080   83.5100   16.1940 B   0  0  0  0  0  0  0  0  0  0  0  0
   53.9510   83.3790   18.0520 C   0  0  0  0  0  0  0  0  0  0  0  0
   54.1700   82.1540   18.6980 C   0  0  0  0  0  0  0  0  0  0  0  0
   53.9070   82.0570   20.0590 C   0  0  0  0  0  0  0  0  0  0  0  0
   53.4490   83.1510   20.7130 C   0  0  0  0  0  0  0  0  0  0  0  0
   53.2330   84.3610   20.0720 C   0  0  0  0  0  0  0  0  0  0  0  0
   53.4830   84.4880   18.7280 C   0  0  0  0  0  0  0  0  0  0  0  0
   52.7200   85.4700   20.9180 C   0  0  1  0  0  0  0  0  0  0  0  0
   53.5340   85.5060   22.1150 N   0  0  0  0  0  0  0  0  0  0  0  0
   54.4120   86.5940   22.1080 C   0  0  0  0  0  0  0  0  0  0  0  0
   55.3130   86.8150   22.9310 O   0  0  0  0  0  0  0  0  0  0  0  0
   54.0780   87.4260   20.9510 C   0  0  0  0  0  0  0  0  0  0  0  0
   54.7000   88.4830   20.6730 O   0  0  0  0  0  0  0  0  0  0  0  0
   52.9670   86.8060   20.2620 C   0  0  0  0  0  0  0  0  0  0  0  0
   52.3420   87.3100   19.2320 C   0  0  0  0  0  0  0  0  0  0  0  0
   51.3330   86.5840   18.6200 O   0  0  0  0  0  0  0  0  0  0  0  0
   52.6620   88.6140   18.7050 C   0  0  0  0  0  0  0  0  0  0  0  0
   53.6960   88.6270   17.7600 C   0  0  0  0  0  0  0  0  0  0  0  0
   54.0830   89.7930   17.1480 C   0  0  0  0  0  0  0  0  0  0  0  0
   53.4560   90.9770   17.4580 C   0  0  0  0  0  0  0  0  0  0  0  0
   52.4390   90.9390   18.3930 C   0  0  0  0  0  0  0  0  0  0  0  0
   52.0350   89.7780   19.0170 C   0  0  0  0  0  0  0  0  0  0  0  0
   54.0480   92.0010   16.6900 O   0  0  0  0  0  0  0  0  0  0  0  0
   55.2960   91.5270   16.1950 C   0  0  2  0  0  0  0  0  0  0  0  0
   55.1580   90.0230   16.1290 C   0  0  0  0  0  0  0  0  0  0  0  0
   56.4410   91.8410   17.1400 C   0  0  0  0  0  0  0  0  0  0  0  0
   53.4010   84.4970   23.1460 C   0  0  0  0  0  0  0  0  0  0  0  0
   52.2660   84.6440   24.0690 C   0  0  0  0  0  0  0  0  0  0  0  0
   51.8040   83.4410   24.8050 C   0  0  0  0  0  0  0  0  0  0  0  0
   50.3700   83.3170   24.8960 N   0  0  0  0  0  4  0  0  0  0  0  0
   50.0370   82.4490   26.0350 C   0  0  0  0  0  0  0  0  0  0  0  0
   49.9210   82.6320   23.6960 C   0  0  0  0  0  0  0  0  0  0  0  0
   54.1240   80.8380   20.7080 O   0  0  0  0  0  0  0  0  0  0  0  0
   53.9530   80.6620   22.0880 C   0  0  0  0  0  0  0  0  0  0  0  0
   54.6350   81.0540   18.0230 O   0  0  0  0  0  0  0  0  0  0  0  0
   53.2520   83.0400   21.7880 H   0  0  0  0  0  0  0  0  0  0  0  0
   53.3090   85.4440   18.2460 H   0  0  0  0  0  0  0  0  0  0  0  0
   51.6510   85.3410   21.1790 H   0  0  0  0  0  0  0  0  0  0  0  0
   54.2200   87.6950   17.4860 H   0  0  0  0  0  0  0  0  0  0  0  0
   51.9190   91.8710   18.6600 H   0  0  0  0  0  0  0  0  0  0  0  0
   51.2220   89.7530   19.7320 H   0  0  0  0  0  0  0  0  0  0  0  0
   55.5340   91.8980   15.1880 H   0  0  0  0  0  0  0  0  0  0  0  0
   56.1140   89.5030   16.4350 H   0  0  0  0  0  0  0  0  0  0  0  0
   54.9010   89.6400   15.1380 H   0  0  0  0  0  0  0  0  0  0  0  0
   56.0260   92.0630   18.1530 H   0  0  0  0  0  0  0  0  0  0  0  0
   57.0730   92.6670   16.7460 H   0  0  0  0  0  0  0  0  0  0  0  0
   57.0820   90.9570   17.2420 H   0  0  0  0  0  0  0  0  0  0  0  0
   53.3360   83.5110   22.6440 H   0  0  0  0  0  0  0  0  0  0  0  0
   54.3770   84.4240   23.7180 H   0  0  0  0  0  0  0  0  0  0  0  0
   51.3840   85.0250   23.4770 H   0  0  0  0  0  0  0  0  0  0  0  0
   52.4630   85.4470   24.8040 H   0  0  0  0  0  0  0  0  0  0  0  0
   52.2110   82.4830   24.4570 H   0  0  0  0  0  0  0  0  0  0  0  0
   52.1660   83.5490   25.8650 H   0  0  0  0  0  0  0  0  0  0  0  0
   49.8570   84.2010   24.9560 H   0  0  0  0  0  0  0  0  0  0  0  0
   50.2370   82.9770   27.0050 H   0  0  0  0  0  0  0  0  0  0  0  0
   48.9660   82.1670   26.0330 H   0  0  0  0  0  0  0  0  0  0  0  0
   50.6550   81.5210   25.9580 H   0  0  0  0  0  0  0  0  0  0  0  0
   49.1240   83.1920   23.1720 H   0  0  0  0  0  0  0  0  0  0  0  0
   49.5890   81.5960   23.9250 H   0  0  0  0  0  0  0  0  0  0  0  0
   50.7580   82.5190   22.9510 H   0  0  0  0  0  0  0  0  0  0  0  0
   54.5530   81.3920   22.6890 H   0  0  0  0  0  0  0  0  0  0  0  0
   52.8510   80.7780   22.3030 H   0  0  0  0  0  0  0  0  0  0  0  0
   54.2400   79.6370   22.3480 H   0  0  0  0  0  0  0  0  0  0  0  0
   55.3310   81.1480   17.3260 H   0  0  0  0  0  0  0  0  0  0  0  0
  1  2  1  0  0  0  0
  2  3  2  0  0  0  0
  2  7  1  0  0  0  0
  3  4  1  0  0  0  0
  4 33  1  0  0  0  0
  4  5  2  0  0  0  0
  5 36  1  0  0  0  0
  6  5  1  0  0  0  0
  6  8  1  0  0  0  0
  7  6  2  0  0  0  0
  8 38  1  1  0  0  0
  8  9  1  0  0  0  0
  9 27  1  0  0  0  0
 10  9  1  0  0  0  0
 10 11  2  0  0  0  0
 12 10  1  0  0  0  0
 13 12  2  0  0  0  0
 14  8  1  0  0  0  0
 14 12  1  0  0  0  0
 15 14  2  0  0  0  0
 16 15  1  0  0  0  0
 17 22  1  0  0  0  0
 17 15  1  0  0  0  0
 18 17  2  0  0  0  0
 19 20  2  0  0  0  0
 19 18  1  0  0  0  0
 20 21  1  0  0  0  0
 21 40  1  0  0  0  0
 21 22  2  0  0  0  0
 22 41  1  0  0  0  0
 23 20  1  0  0  0  0
 24 42  1  6  0  0  0
 24 23  1  0  0  0  0
 24 26  1  0  0  0  0
 25 24  1  0  0  0  0
 25 43  1  0  0  0  0
 25 19  1  0  0  0  0
 26 47  1  0  0  0  0
 26 45  1  0  0  0  0
 27 49  1  0  0  0  0
 27 28  1  0  0  0  0
 28 51  1  0  0  0  0
 28 29  1  0  0  0  0
 29 30  1  0  0  0  0
 29 53  1  0  0  0  0
 30 54  1  0  0  0  0
 30 31  1  0  0  0  0
 31 55  1  0  0  0  0
 32 59  1  0  0  0  0
 32 30  1  0  0  0  0
 33 34  1  0  0  0  0
 34 62  1  0  0  0  0
 34 63  1  0  0  0  0
 34 61  1  0  0  0  0
 35  3  1  0  0  0  0
 37  7  1  0  0  0  0
 39 18  1  0  0  0  0
 44 25  1  0  0  0  0
 46 26  1  0  0  0  0
 48 27  1  0  0  0  0
 50 28  1  0  0  0  0
 52 29  1  0  0  0  0
 56 31  1  0  0  0  0
 57 31  1  0  0  0  0
 58 32  1  0  0  0  0
 60 32  1  0  0  0  0
 64 35  1  0  0  0  0
M  END
>  <Pose>
1

>  <Score>
-5.71

$$$$
