
 OpenBabel03202210083D

 47 50  0  0  1  0  0  0  0  0999 V2000
   52.4380   91.1820   18.4760 B   0  0  0  0  0  0  0  0  0  0  0  0
   53.8360   90.8500   19.7510 C   0  0  0  0  0  0  0  0  0  0  0  0
   54.3200   89.6060   19.9530 C   0  0  0  0  0  0  0  0  0  0  0  0
   55.3120   89.3630   20.9470 C   0  0  0  0  0  0  0  0  0  0  0  0
   55.7390   90.4170   21.6790 C   0  0  0  0  0  0  0  0  0  0  0  0
   55.2220   91.6790   21.4650 C   0  0  0  0  0  0  0  0  0  0  0  0
   54.2790   91.9110   20.5110 C   0  0  0  0  0  0  0  0  0  0  0  0
   55.4300   87.9380   21.3110 C   0  0  0  0  0  0  0  0  0  0  0  0
   55.9420   87.5360   22.5570 N   0  0  2  0  0  4  0  0  0  0  0  0
   57.1510   86.8910   22.6800 C   0  0  0  0  0  0  0  0  0  0  0  0
   57.5330   86.6970   24.0770 N   0  0  2  0  0  0  0  0  0  0  0  0
   56.4800   85.9230   24.7140 C   0  0  0  0  0  0  0  0  0  0  0  0
   55.1820   86.5490   24.5770 N   0  0  2  0  0  0  0  0  0  0  0  0
   54.8170   86.8110   23.2410 C   0  0  0  0  0  0  0  0  0  0  0  0
   55.1960   87.7810   25.3390 C   0  0  0  0  0  0  0  0  0  0  0  0
   56.2980   88.6280   24.7540 C   0  0  2  0  0  0  0  0  0  0  0  0
   55.9940   88.8340   23.3170 C   0  0  0  0  0  0  0  0  0  0  0  0
   57.6540   87.9300   24.8150 C   0  0  0  0  0  0  0  0  0  0  0  0
   53.8840   88.5580   19.2250 O   0  0  0  0  0  0  0  0  0  0  0  0
   52.6260   87.8910   19.4530 C   0  0  0  0  0  0  0  0  0  0  0  0
   52.3590   86.6820   18.6780 C   0  0  0  0  0  0  0  0  0  0  0  0
   51.5200   86.5810   17.7940 O   0  0  0  0  0  0  0  0  0  0  0  0
   53.1500   85.5600   18.9490 O   0  0  0  0  0  0  0  0  0  0  0  0
   53.2840   84.4840   18.0580 C   0  0  0  0  0  0  0  0  0  0  0  0
   56.4630   90.2650   22.4780 H   0  0  0  0  0  0  0  0  0  0  0  0
   55.5930   92.5110   22.1050 H   0  0  0  0  0  0  0  0  0  0  0  0
   53.9090   92.9040   20.3140 H   0  0  0  0  0  0  0  0  0  0  0  0
   55.5240   87.2390   20.4750 H   0  0  0  0  0  0  0  0  0  0  0  0
   54.2220   87.6570   21.5470 H   0  0  0  0  0  0  0  0  0  0  0  0
   57.9420   87.3690   22.0980 H   0  0  0  0  0  0  0  0  0  0  0  0
   57.0380   85.8520   22.2710 H   0  0  0  0  0  0  0  0  0  0  0  0
   56.6940   85.9180   25.8060 H   0  0  0  0  0  0  0  0  0  0  0  0
   56.4830   84.8770   24.3750 H   0  0  0  0  0  0  0  0  0  0  0  0
   54.5720   85.8850   22.7080 H   0  0  0  0  0  0  0  0  0  0  0  0
   53.9670   87.5450   23.2240 H   0  0  0  0  0  0  0  0  0  0  0  0
   54.2380   88.3220   25.1090 H   0  0  0  0  0  0  0  0  0  0  0  0
   55.3550   87.6280   26.4040 H   0  0  0  0  0  0  0  0  0  0  0  0
   56.3540   89.6380   25.2180 H   0  0  0  0  0  0  0  0  0  0  0  0
   55.0200   89.3320   23.1140 H   0  0  0  0  0  0  0  0  0  0  0  0
   56.8090   89.4000   22.7810 H   0  0  0  0  0  0  0  0  0  0  0  0
   57.8450   87.7010   25.8640 H   0  0  0  0  0  0  0  0  0  0  0  0
   58.3710   88.6190   24.3470 H   0  0  0  0  0  0  0  0  0  0  0  0
   51.8050   88.6730   19.3950 H   0  0  0  0  0  0  0  0  0  0  0  0
   52.6110   87.5730   20.5460 H   0  0  0  0  0  0  0  0  0  0  0  0
   54.1740   83.8710   18.3140 H   0  0  0  0  0  0  0  0  0  0  0  0
   53.3410   84.8800   17.0200 H   0  0  0  0  0  0  0  0  0  0  0  0
   52.3480   83.8710   18.1850 H   0  0  0  0  0  0  0  0  0  0  0  0
  1  2  1  0  0  0  0
  2  3  2  0  0  0  0
  2  7  1  0  0  0  0
  3  4  1  0  0  0  0
  4  8  1  0  0  0  0
  4  5  2  0  0  0  0
  5 25  1  0  0  0  0
  6  5  1  0  0  0  0
  6 26  1  0  0  0  0
  7  6  2  0  0  0  0
  8 29  1  0  0  0  0
  9  8  1  6  0  0  0
  9 10  1  0  0  0  0
  9 14  1  0  0  0  0
  9 17  1  0  0  0  0
 11 10  1  6  0  0  0
 11 12  1  0  0  0  0
 11 18  1  0  0  0  0
 12 32  1  0  0  0  0
 13 14  1  6  0  0  0
 13 12  1  0  0  0  0
 13 15  1  0  0  0  0
 15 37  1  0  0  0  0
 16 18  1  0  0  0  0
 16 38  1  1  0  0  0
 16 15  1  0  0  0  0
 17 16  1  0  0  0  0
 18 41  1  0  0  0  0
 19 20  1  0  0  0  0
 19  3  1  0  0  0  0
 20 44  1  0  0  0  0
 21 23  1  0  0  0  0
 21 20  1  0  0  0  0
 22 21  2  0  0  0  0
 24 47  1  0  0  0  0
 24 45  1  0  0  0  0
 24 23  1  0  0  0  0
 27  7  1  0  0  0  0
 28  8  1  0  0  0  0
 30 10  1  0  0  0  0
 31 10  1  0  0  0  0
 33 12  1  0  0  0  0
 34 14  1  0  0  0  0
 35 14  1  0  0  0  0
 36 15  1  0  0  0  0
 39 17  1  0  0  0  0
 40 17  1  0  0  0  0
 42 18  1  0  0  0  0
 43 20  1  0  0  0  0
 46 24  1  0  0  0  0
M  END
>  <Pose>
1

>  <Score>
-5.55

$$$$
