
 OpenBabel03202210083D

 52 55  0  0  0  0  0  0  0  0999 V2000
   54.4830   95.9320   26.8110 B   0  0  0  0  0  0  0  0  0  0  0  0
   56.0420   96.3970   25.8160 C   0  0  0  0  0  0  0  0  0  0  0  0
   56.6880   97.5990   26.0450 C   0  0  0  0  0  0  0  0  0  0  0  0
   57.8190   97.9130   25.3070 C   0  0  0  0  0  0  0  0  0  0  0  0
   58.2810   97.0280   24.3590 C   0  0  0  0  0  0  0  0  0  0  0  0
   57.6060   95.8340   24.1580 C   0  0  0  0  0  0  0  0  0  0  0  0
   56.4830   95.4970   24.8750 C   0  0  0  0  0  0  0  0  0  0  0  0
   55.8080   94.2470   24.6270 C   0  0  0  0  0  0  0  0  0  0  0  0
   54.9400   94.0550   23.6890 N   0  0  0  0  0  0  0  0  0  0  0  0
   54.3260   92.7830   23.5220 N   0  0  0  0  0  0  0  0  0  0  0  0
   54.9120   91.7710   22.7340 C   0  0  0  0  0  0  0  0  0  0  0  0
   55.4570   90.7070   23.3310 N   0  0  0  0  0  4  0  0  0  0  0  0
   56.0440   89.7020   22.6280 C   0  0  0  0  0  0  0  0  0  0  0  0
   56.0750   89.7830   21.2880 N   0  0  0  0  0  0  0  0  0  0  0  0
   55.5370   90.8390   20.6590 C   0  0  0  0  0  0  0  0  0  0  0  0
   54.9560   91.8290   21.3990 N   0  0  0  0  0  0  0  0  0  0  0  0
   55.5650   90.9320   19.2350 N   0  0  0  0  0  0  0  0  0  0  0  0
   56.3980   91.8640   18.5130 C   0  0  0  0  0  0  0  0  0  0  0  0
   55.6110   92.5510   17.4170 C   0  0  0  0  0  0  0  0  0  0  0  0
   54.2860   92.1440   17.3790 O   0  0  0  0  0  0  0  0  0  0  0  0
   54.2420   90.7480   17.2020 C   0  0  0  0  0  0  0  0  0  0  0  0
   54.7110   90.0510   18.4640 C   0  0  0  0  0  0  0  0  0  0  0  0
   56.5840   88.6230   23.3570 N   0  0  0  0  0  0  0  0  0  0  0  0
   56.4670   88.6110   24.7900 C   0  0  0  0  0  0  0  0  0  0  0  0
   55.7620   87.2880   25.1260 C   0  0  0  0  0  0  0  0  0  0  0  0
   56.6260   86.2850   24.6840 O   0  0  0  0  0  0  0  0  0  0  0  0
   56.7080   86.2390   23.2960 C   0  0  0  0  0  0  0  0  0  0  0  0
   57.2600   87.5240   22.7120 C   0  0  0  0  0  0  0  0  0  0  0  0
   59.4140   97.3830   23.6440 O   0  0  0  0  0  0  0  0  0  0  0  0
   56.2200   98.4840   26.9980 O   0  0  0  0  0  0  0  0  0  0  0  0
   58.3120   98.8570   25.5010 H   0  0  0  0  0  0  0  0  0  0  0  0
   58.0220   95.1860   23.3990 H   0  0  0  0  0  0  0  0  0  0  0  0
   56.0160   93.3780   25.2520 H   0  0  0  0  0  0  0  0  0  0  0  0
   53.4190   92.5750   23.9890 H   0  0  0  0  0  0  0  0  0  0  0  0
   57.1990   91.2540   18.0020 H   0  0  0  0  0  0  0  0  0  0  0  0
   56.8730   92.6210   19.1670 H   0  0  0  0  0  0  0  0  0  0  0  0
   56.0400   92.3420   16.4030 H   0  0  0  0  0  0  0  0  0  0  0  0
   55.5980   93.6630   17.5820 H   0  0  0  0  0  0  0  0  0  0  0  0
   53.1790   90.4940   16.9870 H   0  0  0  0  0  0  0  0  0  0  0  0
   54.8800   90.4380   16.3250 H   0  0  0  0  0  0  0  0  0  0  0  0
   55.3070   89.1630   18.2020 H   0  0  0  0  0  0  0  0  0  0  0  0
   53.8040   89.7560   19.0680 H   0  0  0  0  0  0  0  0  0  0  0  0
   55.8570   89.4710   25.1400 H   0  0  0  0  0  0  0  0  0  0  0  0
   57.4910   88.6200   25.2310 H   0  0  0  0  0  0  0  0  0  0  0  0
   55.5680   87.1650   26.1880 H   0  0  0  0  0  0  0  0  0  0  0  0
   54.8230   87.3000   24.5060 H   0  0  0  0  0  0  0  0  0  0  0  0
   55.7630   85.9420   22.8130 H   0  0  0  0  0  0  0  0  0  0  0  0
   57.4680   85.4550   23.0600 H   0  0  0  0  0  0  0  0  0  0  0  0
   58.3470   87.5800   22.9870 H   0  0  0  0  0  0  0  0  0  0  0  0
   57.1150   87.5110   21.6190 H   0  0  0  0  0  0  0  0  0  0  0  0
   59.6640   98.3330   23.4080 H   0  0  0  0  0  0  0  0  0  0  0  0
   56.7010   99.3670   27.1090 H   0  0  0  0  0  0  0  0  0  0  0  0
  2  3  1  0  0  0  0
  2  1  1  0  0  0  0
  3 30  1  0  0  0  0
  4 31  1  0  0  0  0
  4  3  2  0  0  0  0
  5  4  1  0  0  0  0
  6  5  2  0  0  0  0
  6  7  1  0  0  0  0
  7  2  2  0  0  0  0
  8  7  1  0  0  0  0
  8 33  1  0  0  0  0
  9  8  2  0  0  0  0
 10  9  1  0  0  0  0
 10 34  1  0  0  0  0
 11 12  2  0  0  0  0
 11 10  1  0  0  0  0
 13 12  2  0  0  0  0
 13 23  1  0  0  0  0
 14 13  1  0  0  0  0
 15 14  2  0  0  0  0
 15 16  1  0  0  0  0
 16 11  1  0  0  0  0
 17 15  1  0  0  0  0
 18 36  1  0  0  0  0
 18 17  1  0  0  0  0
 19 38  1  0  0  0  0
 19 18  1  0  0  0  0
 20 19  1  0  0  0  0
 21 20  1  0  0  0  0
 21 22  1  0  0  0  0
 22 42  1  0  0  0  0
 22 17  1  0  0  0  0
 23 24  1  0  0  0  0
 24 25  1  0  0  0  0
 24 43  1  0  0  0  0
 24 44  1  0  0  0  0
 25 45  1  0  0  0  0
 26 25  1  0  0  0  0
 27 26  1  0  0  0  0
 28 49  1  0  0  0  0
 28 27  1  0  0  0  0
 28 23  1  0  0  0  0
 29  5  1  0  0  0  0
 30 52  1  0  0  0  0
 32  6  1  0  0  0  0
 35 18  1  0  0  0  0
 37 19  1  0  0  0  0
 39 21  1  0  0  0  0
 40 21  1  0  0  0  0
 41 22  1  0  0  0  0
 46 25  1  0  0  0  0
 47 27  1  0  0  0  0
 48 27  1  0  0  0  0
 50 28  1  0  0  0  0
 51 29  1  0  0  0  0
M  END
>  <Pose>
1

>  <Score>
-7.86

$$$$
