
 OpenBabel03202210083D

 41 43  0  0  1  0  0  0  0  0999 V2000
   53.9720   94.4580   25.8940 B   0  0  0  0  0  0  0  0  0  0  0  0
   55.6300   95.1320   25.1930 C   0  0  0  0  0  0  0  0  0  0  0  0
   56.2700   94.3250   24.2410 C   0  0  0  0  0  0  0  0  0  0  0  0
   57.4560   94.8330   23.7550 C   0  0  0  0  0  0  0  0  0  0  0  0
   57.9640   96.0590   24.1900 C   0  0  0  0  0  0  0  0  0  0  0  0
   57.3190   96.8330   25.1240 C   0  0  0  0  0  0  0  0  0  0  0  0
   56.1350   96.3380   25.6160 C   0  0  0  0  0  0  0  0  0  0  0  0
   57.8780   98.1430   25.5760 C   0  0  0  0  0  0  0  0  0  0  0  0
   55.6990   93.0930   23.8460 N   0  0  0  0  0  0  0  0  0  0  0  0
   54.8880   92.8250   22.7430 C   0  0  0  0  0  0  0  0  0  0  0  0
   53.9000   93.5250   22.4800 O   0  0  0  0  0  0  0  0  0  0  0  0
   55.2210   91.6790   21.8740 C   0  0  0  0  0  0  0  0  0  0  0  0
   54.4060   91.5180   20.7140 N   0  0  1  0  0  4  0  0  0  0  0  0
   55.0490   90.5090   19.8570 C   0  0  0  0  0  0  0  0  0  0  0  0
   53.9720   89.9130   18.9860 C   0  0  0  0  0  0  0  0  0  0  0  0
   53.0980   91.0240   18.6100 N   0  0  1  0  0  0  0  0  0  0  0  0
   52.2120   91.2270   19.7530 C   0  0  0  0  0  0  0  0  0  0  0  0
   53.0440   91.0880   21.0200 C   0  0  0  0  0  0  0  0  0  0  0  0
   53.8950   92.2330   18.4780 C   0  0  0  0  0  0  0  0  0  0  0  0
   54.2970   92.7020   19.8860 C   0  0  0  0  0  0  0  0  0  0  0  0
   58.0150   94.2700   23.0160 H   0  0  0  0  0  0  0  0  0  0  0  0
   58.9040   96.4470   23.7960 H   0  0  0  0  0  0  0  0  0  0  0  0
   55.5980   96.9240   26.3560 H   0  0  0  0  0  0  0  0  0  0  0  0
   57.4760   98.4270   26.5710 H   0  0  0  0  0  0  0  0  0  0  0  0
   57.6560   98.9490   24.8740 H   0  0  0  0  0  0  0  0  0  0  0  0
   58.9660   97.9740   25.7260 H   0  0  0  0  0  0  0  0  0  0  0  0
   55.9180   92.2630   24.4740 H   0  0  0  0  0  0  0  0  0  0  0  0
   55.1310   90.7080   22.4500 H   0  0  0  0  0  0  0  0  0  0  0  0
   56.2790   91.7230   21.5110 H   0  0  0  0  0  0  0  0  0  0  0  0
   55.8310   91.0420   19.2860 H   0  0  0  0  0  0  0  0  0  0  0  0
   55.5480   89.7480   20.4920 H   0  0  0  0  0  0  0  0  0  0  0  0
   53.4320   89.1580   19.5830 H   0  0  0  0  0  0  0  0  0  0  0  0
   54.4110   89.4570   18.0540 H   0  0  0  0  0  0  0  0  0  0  0  0
   51.4600   90.4120   19.7750 H   0  0  0  0  0  0  0  0  0  0  0  0
   51.7210   92.2290   19.7190 H   0  0  0  0  0  0  0  0  0  0  0  0
   52.6240   91.7870   21.7450 H   0  0  0  0  0  0  0  0  0  0  0  0
   53.1030   90.0500   21.3820 H   0  0  0  0  0  0  0  0  0  0  0  0
   54.7640   91.9930   17.8520 H   0  0  0  0  0  0  0  0  0  0  0  0
   53.2810   93.0120   17.9760 H   0  0  0  0  0  0  0  0  0  0  0  0
   53.4590   93.3460   20.2370 H   0  0  0  0  0  0  0  0  0  0  0  0
   55.2430   93.2390   19.7650 H   0  0  0  0  0  0  0  0  0  0  0  0
  2  7  1  0  0  0  0
  2  1  1  0  0  0  0
  3  2  2  0  0  0  0
  4  5  2  0  0  0  0
  4  3  1  0  0  0  0
  5  6  1  0  0  0  0
  6  8  1  0  0  0  0
  6  7  2  0  0  0  0
  7 23  1  0  0  0  0
  8 26  1  0  0  0  0
  8 24  1  0  0  0  0
  9  3  1  0  0  0  0
  9 27  1  0  0  0  0
 10  9  1  0  0  0  0
 11 10  2  0  0  0  0
 12 28  1  0  0  0  0
 12 10  1  0  0  0  0
 13 18  1  0  0  0  0
 13 12  1  1  0  0  0
 14 31  1  0  0  0  0
 14 13  1  0  0  0  0
 15 32  1  0  0  0  0
 15 14  1  0  0  0  0
 16 19  1  1  0  0  0
 16 15  1  0  0  0  0
 16 17  1  0  0  0  0
 17 34  1  0  0  0  0
 17 18  1  0  0  0  0
 18 37  1  0  0  0  0
 18 36  1  0  0  0  0
 19 20  1  0  0  0  0
 20 40  1  0  0  0  0
 20 13  1  0  0  0  0
 21  4  1  0  0  0  0
 22  5  1  0  0  0  0
 25  8  1  0  0  0  0
 29 12  1  0  0  0  0
 30 14  1  0  0  0  0
 33 15  1  0  0  0  0
 35 17  1  0  0  0  0
 38 19  1  0  0  0  0
 39 19  1  0  0  0  0
 41 20  1  0  0  0  0
M  END
>  <Pose>
1

>  <Score>
-5.96

$$$$
