
 OpenBabel03202210083D

 33 36  0  0  1  0  0  0  0  0999 V2000
   55.4810   91.4100   21.1950 B   0  0  0  0  0  0  0  0  0  0  0  0
   54.5020   89.8740   20.6250 C   0  0  0  0  0  0  0  0  0  0  0  0
   54.8230   88.6120   21.0570 C   0  0  0  0  0  0  0  0  0  0  0  0
   54.1000   87.5270   20.6200 C   0  0  0  0  0  0  0  0  0  0  0  0
   53.0350   87.6720   19.7410 C   0  0  0  0  0  0  0  0  0  0  0  0
   52.6970   88.9270   19.2950 C   0  0  0  0  0  0  0  0  0  0  0  0
   53.4390   90.0250   19.7460 C   0  0  0  0  0  0  0  0  0  0  0  0
   55.9400   88.3600   22.0040 C   0  0  1  0  0  0  0  0  0  0  0  0
   55.6110   87.8120   23.2450 C   0  0  1  0  0  0  0  0  0  0  0  0
   55.1180   86.5110   23.7740 C   0  0  0  0  0  0  0  0  0  0  0  0
   56.4720   86.0040   24.1100 N   0  0  0  0  0  0  0  0  0  0  0  0
   57.2750   86.3600   23.1570 C   0  0  1  0  0  0  0  0  0  0  0  0
   56.5000   87.0780   22.1940 C   0  0  2  0  0  0  0  0  0  0  0  0
   55.8310   86.0700   21.3170 C   0  0  0  0  0  0  0  0  0  0  0  0
   55.2940   85.2580   20.6440 N   0  0  0  0  0  0  0  0  0  0  0  0
   58.6910   86.0750   23.0960 N   0  0  0  0  0  0  0  0  0  0  0  0
   54.4180   86.7620   24.9600 O   0  0  0  0  0  0  0  0  0  0  0  0
   53.2020   86.1160   24.8560 C   0  0  0  0  0  0  0  0  0  0  0  0
   53.5070   85.0070   23.8630 C   0  0  0  0  0  0  0  0  0  0  0  0
   54.3780   85.7140   22.9970 O   0  0  0  0  0  0  0  0  0  0  0  0
   56.3720   88.4570   24.3740 C   0  0  0  0  0  0  0  0  0  0  0  0
   56.9730   88.9420   25.2680 N   0  0  0  0  0  0  0  0  0  0  0  0
   54.3110   86.4940   20.9330 H   0  0  0  0  0  0  0  0  0  0  0  0
   52.4590   86.8360   19.3900 H   0  0  0  0  0  0  0  0  0  0  0  0
   51.8840   89.0560   18.6240 H   0  0  0  0  0  0  0  0  0  0  0  0
   53.2060   91.0370   19.4210 H   0  0  0  0  0  0  0  0  0  0  0  0
   56.6790   89.2060   21.9180 H   0  0  0  0  0  0  0  0  0  0  0  0
   59.3150   86.5910   22.4480 H   0  0  0  0  0  0  0  0  0  0  0  0
   59.1100   85.3450   23.7020 H   0  0  0  0  0  0  0  0  0  0  0  0
   52.4650   86.8170   24.4090 H   0  0  0  0  0  0  0  0  0  0  0  0
   52.8480   85.7190   25.8310 H   0  0  0  0  0  0  0  0  0  0  0  0
   54.0560   84.1830   24.3690 H   0  0  0  0  0  0  0  0  0  0  0  0
   52.6170   84.6430   23.3350 H   0  0  0  0  0  0  0  0  0  0  0  0
  2  3  1  0  0  0  0
  2  1  1  0  0  0  0
  3  8  1  0  0  0  0
  4 23  1  0  0  0  0
  4  3  2  0  0  0  0
  5  4  1  0  0  0  0
  6  5  2  0  0  0  0
  6  7  1  0  0  0  0
  7  2  2  0  0  0  0
  8 27  1  1  0  0  0
  8 13  1  0  0  0  0
  8  9  1  0  0  0  0
  9 10  1  0  0  0  0
  9 21  1  1  0  0  0
 10 11  1  0  0  0  0
 10 17  1  0  0  0  0
 12 16  1  1  0  0  0
 12 11  1  0  0  0  0
 13 14  1  6  0  0  0
 13 12  1  0  0  0  0
 13  9  1  0  0  0  0
 15 14  3  0  0  0  0
 16 29  1  0  0  0  0
 18 17  1  0  0  0  0
 18 31  1  0  0  0  0
 19 32  1  0  0  0  0
 19 18  1  0  0  0  0
 20 10  1  0  0  0  0
 20 19  1  0  0  0  0
 21 22  3  0  0  0  0
 24  5  1  0  0  0  0
 25  6  1  0  0  0  0
 26  7  1  0  0  0  0
 28 16  1  0  0  0  0
 30 18  1  0  0  0  0
 33 19  1  0  0  0  0
M  END
>  <Pose>
1

>  <Score>
-5.24

$$$$
