
 OpenBabel03202210083D

 33 36  0  0  1  0  0  0  0  0999 V2000
   55.2200   91.6710   21.4740 B   0  0  0  0  0  0  0  0  0  0  0  0
   55.5120   89.8910   22.1530 C   0  0  0  0  0  0  0  0  0  0  0  0
   55.1310   88.8440   21.3450 C   0  0  0  0  0  0  0  0  0  0  0  0
   55.3560   87.5720   21.8590 C   0  0  0  0  0  0  0  0  0  0  0  0
   55.9240   87.3660   23.1010 C   0  0  0  0  0  0  0  0  0  0  0  0
   56.2960   88.4470   23.8910 C   0  0  0  0  0  0  0  0  0  0  0  0
   56.0790   89.7050   23.3940 C   0  0  0  0  0  0  0  0  0  0  0  0
   54.5460   89.0100   20.0610 N   0  0  0  0  0  0  0  0  0  0  0  0
   55.0100   89.7670   18.9560 C   0  0  0  0  0  0  0  0  0  0  0  0
   56.1110   90.3430   18.9130 O   0  0  0  0  0  0  0  0  0  0  0  0
   54.0120   89.7810   17.8620 C   0  0  2  0  0  0  0  0  0  0  0  0
   53.4550   91.1350   17.5890 C   0  0  1  0  0  0  0  0  0  0  0  0
   52.0450   90.9780   17.6390 O   0  0  0  0  0  0  0  0  0  0  0  0
   52.0040   90.3480   18.9100 C   0  0  1  0  0  0  0  0  0  0  0  0
   52.8010   89.0960   18.5210 C   0  0  2  0  0  0  0  0  0  0  0  0
   53.3080   88.3860   19.7040 C   0  0  0  0  0  0  0  0  0  0  0  0
   52.7920   87.4210   20.3090 O   0  0  0  0  0  0  0  0  0  0  0  0
   52.8160   91.2920   19.7070 C   0  0  0  0  0  0  0  0  0  0  0  0
   53.6090   91.9290   18.8460 C   0  0  0  0  0  0  0  0  0  0  0  0
   53.9130   91.8280   16.3760 C   0  0  0  0  0  0  0  0  0  0  0  0
   54.9510   91.0690   15.8030 O   0  0  0  0  0  0  0  0  0  0  0  0
   55.0640   86.7300   21.2390 H   0  0  0  0  0  0  0  0  0  0  0  0
   56.0930   86.3530   23.4900 H   0  0  0  0  0  0  0  0  0  0  0  0
   56.7410   88.2510   24.8600 H   0  0  0  0  0  0  0  0  0  0  0  0
   56.3590   90.5590   23.9840 H   0  0  0  0  0  0  0  0  0  0  0  0
   54.3380   89.2340   16.9700 H   0  0  0  0  0  0  0  0  0  0  0  0
   51.0150   90.1520   19.2710 H   0  0  0  0  0  0  0  0  0  0  0  0
   52.2220   88.5020   17.8180 H   0  0  0  0  0  0  0  0  0  0  0  0
   52.8340   91.4980   20.7830 H   0  0  0  0  0  0  0  0  0  0  0  0
   54.2230   92.8050   18.9980 H   0  0  0  0  0  0  0  0  0  0  0  0
   54.3870   92.8180   16.6110 H   0  0  0  0  0  0  0  0  0  0  0  0
   53.1080   92.0170   15.6560 H   0  0  0  0  0  0  0  0  0  0  0  0
   55.7030   91.6780   15.5470 H   0  0  0  0  0  0  0  0  0  0  0  0
  1  2  1  0  0  0  0
  2  7  1  0  0  0  0
  3  4  1  0  0  0  0
  3  2  2  0  0  0  0
  4  5  2  0  0  0  0
  5 23  1  0  0  0  0
  5  6  1  0  0  0  0
  6 24  1  0  0  0  0
  7  6  2  0  0  0  0
  7 25  1  0  0  0  0
  8  3  1  0  0  0  0
  9  8  1  0  0  0  0
 10  9  2  0  0  0  0
 11 26  1  6  0  0  0
 11 15  1  0  0  0  0
 11  9  1  0  0  0  0
 12 20  1  6  0  0  0
 12 13  1  0  0  0  0
 12 11  1  0  0  0  0
 12 19  1  0  0  0  0
 13 14  1  0  0  0  0
 14 27  1  1  0  0  0
 14 18  1  0  0  0  0
 15 28  1  6  0  0  0
 15 14  1  0  0  0  0
 15 16  1  0  0  0  0
 16  8  1  0  0  0  0
 16 17  2  0  0  0  0
 18 29  1  0  0  0  0
 19 30  1  0  0  0  0
 19 18  2  0  0  0  0
 20 31  1  0  0  0  0
 21 20  1  0  0  0  0
 22  4  1  0  0  0  0
 32 20  1  0  0  0  0
 33 21  1  0  0  0  0
M  END
>  <Pose>
1

>  <Score>
-5.38

$$$$
