
 OpenBabel03202210083D

 36 39  0  0  1  0  0  0  0  0999 V2000
   55.5660   89.6060   21.3060 B   0  0  0  0  0  0  0  0  0  0  0  0
   54.7920   89.7990   19.5980 C   0  0  0  0  0  0  0  0  0  0  0  0
   53.8810   88.8820   19.1030 C   0  0  0  0  0  0  0  0  0  0  0  0
   53.3940   89.1510   17.8290 C   0  0  0  0  0  0  0  0  0  0  0  0
   53.7710   90.2430   17.0880 C   0  0  0  0  0  0  0  0  0  0  0  0
   54.6670   91.1310   17.5920 C   0  0  0  0  0  0  0  0  0  0  0  0
   55.1760   90.9100   18.8440 C   0  0  0  0  0  0  0  0  0  0  0  0
   53.4680   87.7420   19.8400 N   0  0  0  0  0  0  0  0  0  0  0  0
   54.1090   87.1790   21.0440 C   0  0  0  0  0  0  0  0  0  0  0  0
   53.7230   85.7770   20.9530 C   0  0  2  0  0  0  0  0  0  0  0  0
   54.5440   84.9620   20.1550 O   0  0  0  0  0  0  0  0  0  0  0  0
   53.7020   83.8180   20.2030 C   0  0  2  0  0  0  0  0  0  0  0  0
   52.4900   84.4350   19.4910 C   0  0  1  0  0  0  0  0  0  0  0  0
   52.3460   85.7040   20.2720 C   0  0  2  0  0  0  0  0  0  0  0  0
   52.3380   86.9440   19.5120 C   0  0  0  0  0  0  0  0  0  0  0  0
   51.4690   87.2830   18.6820 O   0  0  0  0  0  0  0  0  0  0  0  0
   52.9700   84.7300   18.1040 C   0  0  0  0  0  0  0  0  0  0  0  0
   52.8150   85.8310   17.5580 O   0  0  0  0  0  0  0  0  0  0  0  0
   53.6170   83.7220   17.4000 O   0  0  0  0  0  0  0  0  0  0  0  0
   53.0820   83.3190   16.1340 C   0  0  0  0  0  0  0  0  0  0  0  0
   53.4840   83.7030   21.6750 C   0  0  0  0  0  0  0  0  0  0  0  0
   53.6280   84.9580   22.1570 C   0  0  0  0  0  0  0  0  0  0  0  0
   52.6780   88.4830   17.3720 H   0  0  0  0  0  0  0  0  0  0  0  0
   53.3660   90.4120   16.0990 H   0  0  0  0  0  0  0  0  0  0  0  0
   54.9770   92.0020   17.0160 H   0  0  0  0  0  0  0  0  0  0  0  0
   55.8890   91.6190   19.2400 H   0  0  0  0  0  0  0  0  0  0  0  0
   55.1990   87.3020   20.8960 H   0  0  0  0  0  0  0  0  0  0  0  0
   53.7920   87.6840   21.9630 H   0  0  0  0  0  0  0  0  0  0  0  0
   54.1070   82.9560   19.7220 H   0  0  0  0  0  0  0  0  0  0  0  0
   51.6270   83.7800   19.5040 H   0  0  0  0  0  0  0  0  0  0  0  0
   51.5430   85.6570   21.0350 H   0  0  0  0  0  0  0  0  0  0  0  0
   53.7590   82.6150   15.6270 H   0  0  0  0  0  0  0  0  0  0  0  0
   52.9120   84.1900   15.4700 H   0  0  0  0  0  0  0  0  0  0  0  0
   52.1180   82.7710   16.2890 H   0  0  0  0  0  0  0  0  0  0  0  0
   53.2590   82.7930   22.2210 H   0  0  0  0  0  0  0  0  0  0  0  0
   53.6560   85.2240   23.2020 H   0  0  0  0  0  0  0  0  0  0  0  0
  2  1  1  0  0  0  0
  3  2  1  0  0  0  0
  3  8  1  0  0  0  0
  4  3  2  0  0  0  0
  5  6  2  0  0  0  0
  5  4  1  0  0  0  0
  6  7  1  0  0  0  0
  7 26  1  0  0  0  0
  7  2  2  0  0  0  0
  8  9  1  0  0  0  0
  9 28  1  0  0  0  0
 10 11  1  6  0  0  0
 10  9  1  0  0  0  0
 10 22  1  0  0  0  0
 11 12  1  0  0  0  0
 12 29  1  6  0  0  0
 12 21  1  0  0  0  0
 13 30  1  1  0  0  0
 13 12  1  0  0  0  0
 13 14  1  0  0  0  0
 14 10  1  0  0  0  0
 14 31  1  1  0  0  0
 15  8  1  0  0  0  0
 15 14  1  0  0  0  0
 16 15  2  0  0  0  0
 17 13  1  0  0  0  0
 18 17  2  0  0  0  0
 19 17  1  0  0  0  0
 20 34  1  0  0  0  0
 20 19  1  0  0  0  0
 21 22  2  0  0  0  0
 21 35  1  0  0  0  0
 22 36  1  0  0  0  0
 23  4  1  0  0  0  0
 24  5  1  0  0  0  0
 25  6  1  0  0  0  0
 27  9  1  0  0  0  0
 32 20  1  0  0  0  0
 33 20  1  0  0  0  0
M  END
>  <Pose>
1

>  <Score>
-3.88

$$$$
