
 OpenBabel03202210083D

 35 38  0  0  0  0  0  0  0  0999 V2000
   48.9420  100.9610   28.1480 B   0  0  0  0  0  0  0  0  0  0  0  0
   50.5040   99.9670   27.7260 C   0  0  0  0  0  0  0  0  0  0  0  0
   51.0210   98.9130   28.4330 C   0  0  0  0  0  0  0  0  0  0  0  0
   52.1220   98.5190   27.7770 N   0  0  0  0  0  0  0  0  0  0  0  0
   52.2940   99.2790   26.7140 N   0  0  0  0  0  0  0  0  0  0  0  0
   51.3070  100.2000   26.6400 C   0  0  0  0  0  0  0  0  0  0  0  0
   51.1440  101.2550   25.5750 C   0  0  0  0  0  0  0  0  0  0  0  0
   52.9740   97.4270   28.1880 C   0  0  0  0  0  0  0  0  0  0  0  0
   54.2380   97.3810   27.3730 C   0  0  0  0  0  0  0  0  0  0  0  0
   55.2200   98.3000   27.3400 N   0  0  0  0  0  0  0  0  0  0  0  0
   56.1730   97.9000   26.4960 N   0  0  0  0  0  0  0  0  0  0  0  0
   55.8180   96.7110   25.9680 C   0  0  0  0  0  0  0  0  0  0  0  0
   54.6270   96.4150   26.5230 N   0  0  0  0  0  0  0  0  0  0  0  0
   56.6590   96.0990   25.0600 C   0  0  0  0  0  0  0  0  0  0  0  0
   57.8570   96.6610   24.6680 C   0  0  0  0  0  0  0  0  0  0  0  0
   58.4760   95.8590   23.7780 N   0  0  0  0  0  0  0  0  0  0  0  0
   57.7020   94.8070   23.5970 N   0  0  0  0  0  0  0  0  0  0  0  0
   56.5760   94.9100   24.3630 C   0  0  0  0  0  0  0  0  0  0  0  0
   59.7530   96.0710   23.1170 C   0  0  0  0  0  0  0  0  0  0  0  0
   58.1740   97.8470   25.2180 N   0  0  0  0  0  0  0  0  0  0  0  0
   57.3410   98.4440   26.1120 C   0  0  0  0  0  0  0  0  0  0  0  0
   50.4350   98.3450   29.6890 C   0  0  0  0  0  0  0  0  0  0  0  0
   51.0360  102.2200   26.0890 H   0  0  0  0  0  0  0  0  0  0  0  0
   50.2540  101.0790   24.9640 H   0  0  0  0  0  0  0  0  0  0  0  0
   52.0810  101.3010   24.9830 H   0  0  0  0  0  0  0  0  0  0  0  0
   52.4230   96.4510   28.0860 H   0  0  0  0  0  0  0  0  0  0  0  0
   53.2590   97.5150   29.2490 H   0  0  0  0  0  0  0  0  0  0  0  0
   55.7690   94.2120   24.4250 H   0  0  0  0  0  0  0  0  0  0  0  0
   60.5890   95.5580   23.6490 H   0  0  0  0  0  0  0  0  0  0  0  0
   59.7200   95.8130   22.0420 H   0  0  0  0  0  0  0  0  0  0  0  0
   60.0120   97.1680   23.1500 H   0  0  0  0  0  0  0  0  0  0  0  0
   57.6000   99.4090   26.5590 H   0  0  0  0  0  0  0  0  0  0  0  0
   49.8480   97.4660   29.4020 H   0  0  0  0  0  0  0  0  0  0  0  0
   49.7740   99.0950   30.1690 H   0  0  0  0  0  0  0  0  0  0  0  0
   51.2310   98.1220   30.4430 H   0  0  0  0  0  0  0  0  0  0  0  0
  2  1  1  0  0  0  0
  2  3  2  0  0  0  0
  3 22  1  0  0  0  0
  4  8  1  0  0  0  0
  4  3  1  0  0  0  0
  5  4  1  0  0  0  0
  6  5  2  0  0  0  0
  6  2  1  0  0  0  0
  7 23  1  0  0  0  0
  7  6  1  0  0  0  0
  8 27  1  0  0  0  0
  9  8  1  0  0  0  0
 10  9  2  0  0  0  0
 11 10  1  0  0  0  0
 12 11  1  0  0  0  0
 12 13  2  0  0  0  0
 13  9  1  0  0  0  0
 14 12  1  0  0  0  0
 15 14  2  0  0  0  0
 15 20  1  0  0  0  0
 16 15  1  0  0  0  0
 17 16  1  0  0  0  0
 17 18  2  0  0  0  0
 18 28  1  0  0  0  0
 18 14  1  0  0  0  0
 19 31  1  0  0  0  0
 19 29  1  0  0  0  0
 19 16  1  0  0  0  0
 20 21  2  0  0  0  0
 21 11  1  0  0  0  0
 21 32  1  0  0  0  0
 22 34  1  0  0  0  0
 22 35  1  0  0  0  0
 24  7  1  0  0  0  0
 25  7  1  0  0  0  0
 26  8  1  0  0  0  0
 30 19  1  0  0  0  0
 33 22  1  0  0  0  0
M  END
>  <Pose>
1

>  <Score>
-6.90

$$$$
