
 OpenBabel03202210083D

 40 43  0  0  0  0  0  0  0  0999 V2000
   55.8920   89.2610   24.0530 B   0  0  0  0  0  0  0  0  0  0  0  0
   55.5690   89.6230   22.2060 C   0  0  0  0  0  0  0  0  0  0  0  0
   55.1690   90.7780   21.6170 C   0  0  0  0  0  0  0  0  0  0  0  0
   55.0510   90.5530   20.2630 N   0  0  0  0  0  0  0  0  0  0  0  0
   55.3740   89.3030   20.0600 N   0  0  0  0  0  0  0  0  0  0  0  0
   55.7000   88.6670   21.1790 C   0  0  0  0  0  0  0  0  0  0  0  0
   54.6520   91.5140   19.2680 C   0  0  0  0  0  0  0  0  0  0  0  0
   54.9070   92.0960   22.2310 C   0  0  0  0  0  0  0  0  0  0  0  0
   53.8780   92.7340   21.7940 O   0  0  0  0  0  0  0  0  0  0  0  0
   55.6990   92.6580   23.2290 N   0  0  0  0  0  0  0  0  0  0  0  0
   55.2900   93.6740   24.1290 C   0  0  0  0  0  0  0  0  0  0  0  0
   56.2280   94.6850   24.4220 C   0  0  0  0  0  0  0  0  0  0  0  0
   57.5020   94.8670   23.9800 N   0  0  0  0  0  0  0  0  0  0  0  0
   57.9490   95.9490   24.5420 O   0  0  0  0  0  0  0  0  0  0  0  0
   57.0460   96.4690   25.3140 N   0  0  0  0  0  0  0  0  0  0  0  0
   55.9400   95.7150   25.2770 C   0  0  0  0  0  0  0  0  0  0  0  0
   54.7180   95.8330   25.9080 C   0  0  0  0  0  0  0  0  0  0  0  0
   53.8020   94.8400   25.6190 C   0  0  0  0  0  0  0  0  0  0  0  0
   54.0840   93.7870   24.7500 C   0  0  0  0  0  0  0  0  0  0  0  0
   54.4090   96.8840   26.7900 N   0  0  0  0  0  0  0  0  0  0  0  0
   53.1200   96.8570   27.4770 C   0  0  0  0  0  0  0  0  0  0  0  0
   52.8720   98.1290   28.2410 C   0  0  0  0  0  0  0  0  0  0  0  0
   53.2700   99.2750   27.6360 O   0  0  0  0  0  0  0  0  0  0  0  0
   54.3490   99.2320   26.8020 C   0  0  0  0  0  0  0  0  0  0  0  0
   55.2040   98.0260   27.1290 C   0  0  0  0  0  0  0  0  0  0  0  0
   56.0040   87.6570   21.3530 H   0  0  0  0  0  0  0  0  0  0  0  0
   55.2480   92.4490   19.3740 H   0  0  0  0  0  0  0  0  0  0  0  0
   53.5890   91.7740   19.4080 H   0  0  0  0  0  0  0  0  0  0  0  0
   54.7730   91.0710   18.2700 H   0  0  0  0  0  0  0  0  0  0  0  0
   56.6930   92.2800   23.2870 H   0  0  0  0  0  0  0  0  0  0  0  0
   52.8380   94.9120   26.1020 H   0  0  0  0  0  0  0  0  0  0  0  0
   53.3250   93.0530   24.5720 H   0  0  0  0  0  0  0  0  0  0  0  0
   52.2820   96.7320   26.7590 H   0  0  0  0  0  0  0  0  0  0  0  0
   53.0750   96.0120   28.2030 H   0  0  0  0  0  0  0  0  0  0  0  0
   51.7580   98.1910   28.3970 H   0  0  0  0  0  0  0  0  0  0  0  0
   53.2910   97.9900   29.2730 H   0  0  0  0  0  0  0  0  0  0  0  0
   53.9690   99.0920   25.7550 H   0  0  0  0  0  0  0  0  0  0  0  0
   54.9880  100.1440   26.8340 H   0  0  0  0  0  0  0  0  0  0  0  0
   55.3000   98.0040   28.2570 H   0  0  0  0  0  0  0  0  0  0  0  0
   56.2070   98.0810   26.7510 H   0  0  0  0  0  0  0  0  0  0  0  0
  2  1  1  0  0  0  0
  3  2  2  0  0  0  0
  3  8  1  0  0  0  0
  4  3  1  0  0  0  0
  5  4  1  0  0  0  0
  5  6  2  0  0  0  0
  6 26  1  0  0  0  0
  6  2  1  0  0  0  0
  7 27  1  0  0  0  0
  7 28  1  0  0  0  0
  7  4  1  0  0  0  0
  8 10  1  0  0  0  0
  9  8  2  0  0  0  0
 10 30  1  0  0  0  0
 10 11  1  0  0  0  0
 11 12  1  0  0  0  0
 11 19  2  0  0  0  0
 12 16  1  0  0  0  0
 13 12  2  0  0  0  0
 13 14  1  0  0  0  0
 14 15  1  0  0  0  0
 16 15  2  0  0  0  0
 16 17  1  0  0  0  0
 17 20  1  0  0  0  0
 18 17  2  0  0  0  0
 18 31  1  0  0  0  0
 19 18  1  0  0  0  0
 20 25  1  0  0  0  0
 20 21  1  0  0  0  0
 21 34  1  0  0  0  0
 21 22  1  0  0  0  0
 22 35  1  0  0  0  0
 22 36  1  0  0  0  0
 23 22  1  0  0  0  0
 24 38  1  0  0  0  0
 24 25  1  0  0  0  0
 24 23  1  0  0  0  0
 25 39  1  0  0  0  0
 29  7  1  0  0  0  0
 32 19  1  0  0  0  0
 33 21  1  0  0  0  0
 37 24  1  0  0  0  0
 40 25  1  0  0  0  0
M  END
>  <Pose>
1

>  <Score>
-7.69

$$$$
