
 OpenBabel03202210083D

 36 39  0  0  0  0  0  0  0  0999 V2000
   56.8910   87.6460   23.8670 B   0  0  0  0  0  0  0  0  0  0  0  0
   55.9750   88.6980   22.5880 C   0  0  0  0  0  0  0  0  0  0  0  0
   55.8190   90.0720   22.8080 C   0  0  0  0  0  0  0  0  0  0  0  0
   55.1530   90.8190   21.8700 C   0  0  0  0  0  0  0  0  0  0  0  0
   54.6450   90.2410   20.7370 C   0  0  0  0  0  0  0  0  0  0  0  0
   54.7990   88.8630   20.5110 C   0  0  0  0  0  0  0  0  0  0  0  0
   55.4690   88.1100   21.4540 C   0  0  0  0  0  0  0  0  0  0  0  0
   53.9620   91.0720   19.8160 N   0  0  0  0  0  0  0  0  0  0  0  0
   52.7790   91.6070   20.0490 N   0  0  0  0  0  0  0  0  0  0  0  0
   52.3830   92.3320   19.0240 N   0  0  0  0  0  0  0  0  0  0  0  0
   53.3230   92.2770   18.0940 N   0  0  0  0  0  0  0  0  0  0  0  0
   54.2920   91.5000   18.5880 C   0  0  0  0  0  0  0  0  0  0  0  0
   54.9630   92.3080   22.0420 C   0  0  0  0  0  0  0  0  0  0  0  0
   54.5770   92.9320   21.0010 O   0  0  0  0  0  0  0  0  0  0  0  0
   55.2120   92.8640   23.2740 N   0  0  0  0  0  0  0  0  0  0  0  0
   55.4610   93.4160   24.4990 C   0  0  0  0  0  0  0  0  0  0  0  0
   56.4230   94.5920   24.4620 C   0  0  0  0  0  0  0  0  0  0  0  0
   56.3320   95.6920   25.2410 N   0  0  0  0  0  0  0  0  0  0  0  0
   57.3320   96.5390   24.9640 C   0  0  0  0  0  0  0  0  0  0  0  0
   58.0530   95.9480   23.9990 N   0  0  0  0  0  0  0  0  0  0  0  0
   57.5030   94.7640   23.6920 N   0  0  0  0  0  0  0  0  0  0  0  0
   57.4480   97.7560   25.6490 C   0  0  0  0  0  0  0  0  0  0  0  0
   56.5370   98.0930   26.6120 C   0  0  0  0  0  0  0  0  0  0  0  0
   55.5060   97.2200   26.8970 C   0  0  0  0  0  0  0  0  0  0  0  0
   55.4210   96.0240   26.1990 C   0  0  0  0  0  0  0  0  0  0  0  0
   56.2110   90.5430   23.6980 H   0  0  0  0  0  0  0  0  0  0  0  0
   54.3860   88.4480   19.6080 H   0  0  0  0  0  0  0  0  0  0  0  0
   55.5860   87.0450   21.2810 H   0  0  0  0  0  0  0  0  0  0  0  0
   55.2020   91.2580   18.0750 H   0  0  0  0  0  0  0  0  0  0  0  0
   56.3680   92.1510   23.3760 H   0  0  0  0  0  0  0  0  0  0  0  0
   55.8680   92.7270   25.2940 H   0  0  0  0  0  0  0  0  0  0  0  0
   54.5570   93.8660   25.0210 H   0  0  0  0  0  0  0  0  0  0  0  0
   58.2700   98.4010   25.3820 H   0  0  0  0  0  0  0  0  0  0  0  0
   56.5950   99.0390   27.1690 H   0  0  0  0  0  0  0  0  0  0  0  0
   54.7650   97.4200   27.6360 H   0  0  0  0  0  0  0  0  0  0  0  0
   54.6310   95.3160   26.3890 H   0  0  0  0  0  0  0  0  0  0  0  0
  2  3  1  0  0  0  0
  2  1  1  0  0  0  0
  3 26  1  0  0  0  0
  4 13  1  0  0  0  0
  4  3  2  0  0  0  0
  5  4  1  0  0  0  0
  6  5  2  0  0  0  0
  6  7  1  0  0  0  0
  7  2  2  0  0  0  0
  8  9  1  0  0  0  0
  8  5  1  0  0  0  0
 10  9  2  0  0  0  0
 11 12  2  0  0  0  0
 11 10  1  0  0  0  0
 12  8  1  0  0  0  0
 13 15  1  0  0  0  0
 14 13  2  0  0  0  0
 15 30  1  0  0  0  0
 15 16  1  0  0  0  0
 16 32  1  0  0  0  0
 16 31  1  0  0  0  0
 17 16  1  0  0  0  0
 17 18  1  0  0  0  0
 18 25  1  0  0  0  0
 19 18  1  0  0  0  0
 19 22  1  0  0  0  0
 20 19  2  0  0  0  0
 21 20  1  0  0  0  0
 21 17  2  0  0  0  0
 22 23  2  0  0  0  0
 23 24  1  0  0  0  0
 23 34  1  0  0  0  0
 24 35  1  0  0  0  0
 25 36  1  0  0  0  0
 25 24  2  0  0  0  0
 27  6  1  0  0  0  0
 28  7  1  0  0  0  0
 29 12  1  0  0  0  0
 33 22  1  0  0  0  0
M  END
>  <Pose>
1

>  <Score>
-7.93

$$$$
