
 OpenBabel03202210083D

 48 51  0  0  0  0  0  0  0  0999 V2000
   51.5000   82.1340   22.4080 B   0  0  0  0  0  0  0  0  0  0  0  0
   52.2110   82.9030   20.8170 C   0  0  0  0  0  0  0  0  0  0  0  0
   51.8100   84.0900   20.2750 C   0  0  0  0  0  0  0  0  0  0  0  0
   52.3410   84.6260   19.1220 C   0  0  0  0  0  0  0  0  0  0  0  0
   53.3490   83.8920   18.4900 C   0  0  0  0  0  0  0  0  0  0  0  0
   53.7900   82.6970   18.9870 C   0  0  0  0  0  0  0  0  0  0  0  0
   53.2170   82.2060   20.1540 C   0  0  0  0  0  0  0  0  0  0  0  0
   53.9020   84.4100   17.3350 O   0  0  0  0  0  0  0  0  0  0  0  0
   54.3850   83.5530   16.3330 C   0  0  0  0  0  0  0  0  0  0  0  0
   51.9090   85.8990   18.5720 C   0  0  0  0  0  0  0  0  0  0  0  0
   52.3960   87.0740   18.8620 C   0  0  0  0  0  0  0  0  0  0  0  0
   53.4290   87.2950   19.7600 O   0  0  0  0  0  0  0  0  0  0  0  0
   53.7360   88.6380   19.8700 C   0  0  0  0  0  0  0  0  0  0  0  0
   52.9240   89.3890   19.0510 C   0  0  0  0  0  0  0  0  0  0  0  0
   53.0620   90.7600   19.0070 C   0  0  0  0  0  0  0  0  0  0  0  0
   54.0190   91.3700   19.7910 C   0  0  0  0  0  0  0  0  0  0  0  0
   54.8370   90.5790   20.6210 C   0  0  0  0  0  0  0  0  0  0  0  0
   54.7200   89.2240   20.6800 C   0  0  0  0  0  0  0  0  0  0  0  0
   55.5380   88.3660   21.4920 C   0  0  0  0  0  0  0  0  0  0  0  0
   55.0410   87.6650   22.6030 N   0  0  0  0  0  4  0  0  0  0  0  0
   55.6210   86.3710   22.8390 C   0  0  0  0  0  0  0  0  0  0  0  0
   56.9360   86.4110   23.5790 C   0  0  0  0  0  0  0  0  0  0  0  0
   57.4140   87.6970   23.7920 O   0  0  0  0  0  0  0  0  0  0  0  0
   56.4380   88.3600   24.5280 C   0  0  0  0  0  0  0  0  0  0  0  0
   55.1130   88.4560   23.8450 C   0  0  0  0  0  0  0  0  0  0  0  0
   55.7610   91.3350   21.3600 O   0  0  0  0  0  0  0  0  0  0  0  0
   52.0500   88.4170   18.3860 C   0  0  0  0  0  0  0  0  0  0  0  0
   51.1540   88.6740   17.5520 O   0  0  0  0  0  0  0  0  0  0  0  0
   51.0200   84.6360   20.7990 H   0  0  0  0  0  0  0  0  0  0  0  0
   54.5740   82.0830   18.5290 H   0  0  0  0  0  0  0  0  0  0  0  0
   53.5630   81.2460   20.5650 H   0  0  0  0  0  0  0  0  0  0  0  0
   55.1540   84.0980   15.7030 H   0  0  0  0  0  0  0  0  0  0  0  0
   53.5480   83.2920   15.6370 H   0  0  0  0  0  0  0  0  0  0  0  0
   54.9210   82.6640   16.7250 H   0  0  0  0  0  0  0  0  0  0  0  0
   51.0880   85.8850   17.8360 H   0  0  0  0  0  0  0  0  0  0  0  0
   52.4150   91.3450   18.3540 H   0  0  0  0  0  0  0  0  0  0  0  0
   54.1740   92.4370   19.7990 H   0  0  0  0  0  0  0  0  0  0  0  0
   56.0890   87.5820   20.8610 H   0  0  0  0  0  0  0  0  0  0  0  0
   56.4550   88.9450   21.8960 H   0  0  0  0  0  0  0  0  0  0  0  0
   54.0150   87.5280   22.4890 H   0  0  0  0  0  0  0  0  0  0  0  0
   54.8970   85.8360   23.5250 H   0  0  0  0  0  0  0  0  0  0  0  0
   55.6720   85.7750   21.9290 H   0  0  0  0  0  0  0  0  0  0  0  0
   56.8730   85.9310   24.5980 H   0  0  0  0  0  0  0  0  0  0  0  0
   57.6860   85.8050   23.0330 H   0  0  0  0  0  0  0  0  0  0  0  0
   56.8090   89.4210   24.6480 H   0  0  0  0  0  0  0  0  0  0  0  0
   56.3780   87.9170   25.5640 H   0  0  0  0  0  0  0  0  0  0  0  0
   54.8100   89.4990   23.6180 H   0  0  0  0  0  0  0  0  0  0  0  0
   54.3440   88.0760   24.5500 H   0  0  0  0  0  0  0  0  0  0  0  0
  2  1  1  0  0  0  0
  3 29  1  0  0  0  0
  3  2  1  0  0  0  0
  4  3  2  0  0  0  0
  5  6  2  0  0  0  0
  5  4  1  0  0  0  0
  6  7  1  0  0  0  0
  7 31  1  0  0  0  0
  7  2  2  0  0  0  0
  8  5  1  0  0  0  0
  9 34  1  0  0  0  0
  9  8  1  0  0  0  0
 10 11  2  0  0  0  0
 10  4  1  0  0  0  0
 11 12  1  0  0  0  0
 12 13  1  0  0  0  0
 13 18  1  0  0  0  0
 14 13  2  0  0  0  0
 15 14  1  0  0  0  0
 15 16  2  0  0  0  0
 16 37  1  0  0  0  0
 16 17  1  0  0  0  0
 17 18  2  0  0  0  0
 17 26  1  0  0  0  0
 18 19  1  0  0  0  0
 19 39  1  0  0  0  0
 19 20  1  0  0  0  0
 20 21  1  0  0  0  0
 20 25  1  0  0  0  0
 21 41  1  0  0  0  0
 21 22  1  0  0  0  0
 22 23  1  0  0  0  0
 22 43  1  0  0  0  0
 23 24  1  0  0  0  0
 24 45  1  0  0  0  0
 24 46  1  0  0  0  0
 25 24  1  0  0  0  0
 25 48  1  0  0  0  0
 27 11  1  0  0  0  0
 27 14  1  0  0  0  0
 28 27  2  0  0  0  0
 30  6  1  0  0  0  0
 32  9  1  0  0  0  0
 33  9  1  0  0  0  0
 35 10  1  0  0  0  0
 36 15  1  0  0  0  0
 38 19  1  0  0  0  0
 40 20  1  0  0  0  0
 42 21  1  0  0  0  0
 44 22  1  0  0  0  0
 47 25  1  0  0  0  0
M  END
>  <Pose>
1

>  <Score>
-6.63

$$$$
