
 OpenBabel03202210083D

 52 55  0  0  1  0  0  0  0  0999 V2000
   54.1340   85.3370   20.7870 B   0  0  0  0  0  0  0  0  0  0  0  0
   54.3470   86.1050   22.5410 C   0  0  0  0  0  0  0  0  0  0  0  0
   55.1010   87.2440   22.6960 C   0  0  0  0  0  0  0  0  0  0  0  0
   55.2580   87.7840   23.9540 C   0  0  0  0  0  0  0  0  0  0  0  0
   54.6740   87.2050   25.0340 C   0  0  0  0  0  0  0  0  0  0  0  0
   53.9250   86.0740   24.8590 C   0  0  0  0  0  0  0  0  0  0  0  0
   53.7350   85.4820   23.6090 C   0  0  0  0  0  0  0  0  0  0  0  0
   56.0600   89.0600   24.0610 C   0  0  0  0  0  0  0  0  0  0  0  0
   57.2250   88.9330   24.3930 O   0  0  0  0  0  0  0  0  0  0  0  0
   55.3280   90.2010   23.7460 N   0  0  0  0  0  0  0  0  0  0  0  0
   55.6370   91.1060   22.7000 C   0  0  1  0  0  0  0  0  0  0  0  0
   55.3030   90.6070   21.3030 C   0  0  0  0  0  0  0  0  0  0  0  0
   55.0980   92.4450   22.8860 C   0  0  0  0  0  0  0  0  0  0  0  0
   54.0590   92.7400   22.2160 O   0  0  0  0  0  0  0  0  0  0  0  0
   55.6940   93.4030   23.7560 N   0  0  0  0  0  0  0  0  0  0  0  0
   55.5770   94.8230   23.5430 C   0  0  0  0  0  0  0  0  0  0  0  0
   54.7410   95.2860   24.7600 C   0  0  0  0  0  0  0  0  0  0  0  0
   55.6940   95.2210   25.9230 C   0  0  2  0  0  0  0  0  0  0  0  0
   54.8760   95.2840   27.1330 N   0  0  0  0  0  0  0  0  0  0  0  0
   54.0540   96.4350   27.1940 C   0  0  0  0  0  0  0  0  0  0  0  0
   54.8440   97.7290   27.2620 C   0  0  0  0  0  0  0  0  0  0  0  0
   56.1020   97.6450   26.4980 C   0  0  0  0  0  0  0  0  0  0  0  0
   57.0240   98.5960   26.2700 N   0  0  0  0  0  0  0  0  0  0  0  0
   58.0020   98.0380   25.5240 C   0  0  0  0  0  0  0  0  0  0  0  0
   57.6700   96.7410   25.2960 N   0  0  0  0  0  0  0  0  0  0  0  0
   56.4910   96.4680   25.8880 C   0  0  0  0  0  0  0  0  0  0  0  0
   56.5310   93.9920   25.9950 C   0  0  0  0  0  0  0  0  0  0  0  0
   56.4280   92.9890   24.8980 C   0  0  0  0  0  0  0  0  0  0  0  0
   55.5850   87.7570   21.8510 H   0  0  0  0  0  0  0  0  0  0  0  0
   54.7990   87.6610   26.0400 H   0  0  0  0  0  0  0  0  0  0  0  0
   53.4390   85.5790   25.7040 H   0  0  0  0  0  0  0  0  0  0  0  0
   53.1330   84.5950   23.4570 H   0  0  0  0  0  0  0  0  0  0  0  0
   54.4940   90.4680   24.3510 H   0  0  0  0  0  0  0  0  0  0  0  0
   56.7690   91.1230   22.6630 H   0  0  0  0  0  0  0  0  0  0  0  0
   55.0750   91.5010   20.6410 H   0  0  0  0  0  0  0  0  0  0  0  0
   56.2340   90.1560   20.8000 H   0  0  0  0  0  0  0  0  0  0  0  0
   54.4780   89.9310   21.2450 H   0  0  0  0  0  0  0  0  0  0  0  0
   55.0050   95.1530   22.6640 H   0  0  0  0  0  0  0  0  0  0  0  0
   56.4970   95.3940   23.6040 H   0  0  0  0  0  0  0  0  0  0  0  0
   54.5080   96.3390   24.5160 H   0  0  0  0  0  0  0  0  0  0  0  0
   53.8170   94.7360   24.8620 H   0  0  0  0  0  0  0  0  0  0  0  0
   55.4470   95.1430   28.0050 H   0  0  0  0  0  0  0  0  0  0  0  0
   53.3210   96.4310   26.3800 H   0  0  0  0  0  0  0  0  0  0  0  0
   53.4680   96.3950   28.1370 H   0  0  0  0  0  0  0  0  0  0  0  0
   55.1130   97.9730   28.3270 H   0  0  0  0  0  0  0  0  0  0  0  0
   54.1840   98.5340   26.8680 H   0  0  0  0  0  0  0  0  0  0  0  0
   58.9010   98.5580   25.1740 H   0  0  0  0  0  0  0  0  0  0  0  0
   58.3140   96.1480   24.7350 H   0  0  0  0  0  0  0  0  0  0  0  0
   57.5950   94.3030   26.0540 H   0  0  0  0  0  0  0  0  0  0  0  0
   56.3470   93.4410   26.9660 H   0  0  0  0  0  0  0  0  0  0  0  0
   55.9850   92.0480   25.2520 H   0  0  0  0  0  0  0  0  0  0  0  0
   57.4600   92.7030   24.5200 H   0  0  0  0  0  0  0  0  0  0  0  0
  1  2  1  0  0  0  0
  2  3  2  0  0  0  0
  2  7  1  0  0  0  0
  3  4  1  0  0  0  0
  4  8  1  0  0  0  0
  4  5  2  0  0  0  0
  5 30  1  0  0  0  0
  6  5  1  0  0  0  0
  6 31  1  0  0  0  0
  7  6  2  0  0  0  0
  8  9  2  0  0  0  0
 10  8  1  0  0  0  0
 10 33  1  0  0  0  0
 11 34  1  1  0  0  0
 11 13  1  0  0  0  0
 11 10  1  0  0  0  0
 12 11  1  0  0  0  0
 13 15  1  0  0  0  0
 14 13  2  0  0  0  0
 15 28  1  0  0  0  0
 16 39  1  0  0  0  0
 16 15  1  0  0  0  0
 16 17  1  0  0  0  0
 17 41  1  0  0  0  0
 17 18  1  0  0  0  0
 18 26  1  6  0  0  0
 18 27  1  0  0  0  0
 18 19  1  0  0  0  0
 19 20  1  0  0  0  0
 19 42  1  0  0  0  0
 20 21  1  0  0  0  0
 20 44  1  0  0  0  0
 21 45  1  0  0  0  0
 22 21  1  0  0  0  0
 23 22  1  0  0  0  0
 24 23  2  0  0  0  0
 25 24  1  0  0  0  0
 25 26  1  0  0  0  0
 26 22  2  0  0  0  0
 27 49  1  0  0  0  0
 27 50  1  0  0  0  0
 28 51  1  0  0  0  0
 28 27  1  0  0  0  0
 29  3  1  0  0  0  0
 32  7  1  0  0  0  0
 35 12  1  0  0  0  0
 36 12  1  0  0  0  0
 37 12  1  0  0  0  0
 38 16  1  0  0  0  0
 40 17  1  0  0  0  0
 43 20  1  0  0  0  0
 46 21  1  0  0  0  0
 47 24  1  0  0  0  0
 48 25  1  0  0  0  0
 52 28  1  0  0  0  0
M  END
>  <Pose>
1

>  <Score>
-7.08

$$$$
