
 OpenBabel03202210083D

 49 52  0  0  0  0  0  0  0  0999 V2000
   51.5360   87.4610   19.1760 B   0  0  0  0  0  0  0  0  0  0  0  0
   52.4500   89.0920   18.9190 C   0  0  0  0  0  0  0  0  0  0  0  0
   53.6650   89.3010   19.5520 C   0  0  0  0  0  0  0  0  0  0  0  0
   54.3510   90.4760   19.3900 C   0  0  0  0  0  0  0  0  0  0  0  0
   53.8840   91.4900   18.6090 C   0  0  0  0  0  0  0  0  0  0  0  0
   52.6590   91.2860   17.9660 C   0  0  0  0  0  0  0  0  0  0  0  0
   51.9640   90.1020   18.1260 C   0  0  0  0  0  0  0  0  0  0  0  0
   55.6890   90.7020   20.0430 C   0  0  0  0  0  0  0  0  0  0  0  0
   56.6140   89.9500   19.5730 O   0  0  0  0  0  0  0  0  0  0  0  0
   55.7730   91.6170   20.9950 N   0  0  0  0  0  0  0  0  0  0  0  0
   55.8600   92.5750   21.9920 C   0  0  0  0  0  0  0  0  0  0  0  0
   54.5010   92.9330   22.5370 C   0  0  0  0  0  0  0  0  0  0  0  0
   53.5820   93.0280   21.6500 O   0  0  0  0  0  0  0  0  0  0  0  0
   54.2320   93.1520   23.8950 N   0  0  0  0  0  0  0  0  0  0  0  0
   54.9260   92.4740   24.9430 C   0  0  0  0  0  0  0  0  0  0  0  0
   55.1500   93.3440   26.1480 C   0  0  0  0  0  0  0  0  0  0  0  0
   55.0960   94.8320   25.8760 C   0  0  0  0  0  0  0  0  0  0  0  0
   55.0420   95.4240   27.2060 N   0  0  0  0  0  0  0  0  0  0  0  0
   55.1950   96.8270   27.2690 C   0  0  0  0  0  0  0  0  0  0  0  0
   55.7870   97.5170   26.0940 C   0  0  0  0  0  0  0  0  0  0  0  0
   56.7000   96.6150   25.3250 C   0  0  0  0  0  0  0  0  0  0  0  0
   57.8440   96.8460   24.6830 N   0  0  0  0  0  0  0  0  0  0  0  0
   58.2250   95.6580   24.1710 C   0  0  0  0  0  0  0  0  0  0  0  0
   57.3270   94.7000   24.4910 N   0  0  0  0  0  0  0  0  0  0  0  0
   56.3450   95.2930   25.2290 C   0  0  0  0  0  0  0  0  0  0  0  0
   53.9040   95.2610   25.0600 C   0  0  0  0  0  0  0  0  0  0  0  0
   53.2270   94.1150   24.3300 C   0  0  0  0  0  0  0  0  0  0  0  0
   54.0740   88.5390   20.1740 H   0  0  0  0  0  0  0  0  0  0  0  0
   54.4420   92.3970   18.4990 H   0  0  0  0  0  0  0  0  0  0  0  0
   52.2540   92.0620   17.3410 H   0  0  0  0  0  0  0  0  0  0  0  0
   51.0190   89.9450   17.6280 H   0  0  0  0  0  0  0  0  0  0  0  0
   54.3990   91.7840   20.9740 H   0  0  0  0  0  0  0  0  0  0  0  0
   56.3280   93.5400   21.5930 H   0  0  0  0  0  0  0  0  0  0  0  0
   56.5640   92.2880   22.8120 H   0  0  0  0  0  0  0  0  0  0  0  0
   54.2310   91.6460   25.2800 H   0  0  0  0  0  0  0  0  0  0  0  0
   55.8330   91.9370   24.6100 H   0  0  0  0  0  0  0  0  0  0  0  0
   54.4170   93.1050   26.9270 H   0  0  0  0  0  0  0  0  0  0  0  0
   56.1820   93.1320   26.5000 H   0  0  0  0  0  0  0  0  0  0  0  0
   54.1000   95.1150   27.5820 H   0  0  0  0  0  0  0  0  0  0  0  0
   55.8680   97.0490   28.1510 H   0  0  0  0  0  0  0  0  0  0  0  0
   54.2040   97.2920   27.5510 H   0  0  0  0  0  0  0  0  0  0  0  0
   54.9740   97.9090   25.4390 H   0  0  0  0  0  0  0  0  0  0  0  0
   56.3320   98.4400   26.4400 H   0  0  0  0  0  0  0  0  0  0  0  0
   59.1220   95.5350   23.5960 H   0  0  0  0  0  0  0  0  0  0  0  0
   57.3850   93.7040   24.2200 H   0  0  0  0  0  0  0  0  0  0  0  0
   54.2570   95.9690   24.2500 H   0  0  0  0  0  0  0  0  0  0  0  0
   53.1260   95.7750   25.6460 H   0  0  0  0  0  0  0  0  0  0  0  0
   52.4480   93.6290   24.9610 H   0  0  0  0  0  0  0  0  0  0  0  0
   52.7530   94.5400   23.4260 H   0  0  0  0  0  0  0  0  0  0  0  0
  2  1  1  0  0  0  0
  2  3  1  0  0  0  0
  3 28  1  0  0  0  0
  4  3  2  0  0  0  0
  4  8  1  0  0  0  0
  5  4  1  0  0  0  0
  6  7  1  0  0  0  0
  6  5  2  0  0  0  0
  7  2  2  0  0  0  0
  8 10  1  0  0  0  0
  9  8  2  0  0  0  0
 10 11  1  0  0  0  0
 11 12  1  0  0  0  0
 11 34  1  0  0  0  0
 12 14  1  0  0  0  0
 13 12  2  0  0  0  0
 14 27  1  0  0  0  0
 14 15  1  0  0  0  0
 15 35  1  0  0  0  0
 15 16  1  0  0  0  0
 16 38  1  0  0  0  0
 16 37  1  0  0  0  0
 17 16  1  0  0  0  0
 17 18  1  0  0  0  0
 18 19  1  0  0  0  0
 18 39  1  0  0  0  0
 19 41  1  0  0  0  0
 19 40  1  0  0  0  0
 20 43  1  0  0  0  0
 20 19  1  0  0  0  0
 21 20  1  0  0  0  0
 22 21  1  0  0  0  0
 23 24  1  0  0  0  0
 23 22  2  0  0  0  0
 24 25  1  0  0  0  0
 25 21  2  0  0  0  0
 25 17  1  0  0  0  0
 26 47  1  0  0  0  0
 26 17  1  0  0  0  0
 27 48  1  0  0  0  0
 27 26  1  0  0  0  0
 29  5  1  0  0  0  0
 30  6  1  0  0  0  0
 31  7  1  0  0  0  0
 32 10  1  0  0  0  0
 33 11  1  0  0  0  0
 36 15  1  0  0  0  0
 42 20  1  0  0  0  0
 44 23  1  0  0  0  0
 45 24  1  0  0  0  0
 46 26  1  0  0  0  0
 49 27  1  0  0  0  0
M  END
>  <Pose>
1

>  <Score>
-7.70

$$$$
