
 OpenBabel03202210083D

 49 52  0  0  0  0  0  0  0  0999 V2000
   49.3490  102.7080   33.5410 B   0  0  0  0  0  0  0  0  0  0  0  0
   48.7100  102.4220   31.7820 C   0  0  0  0  0  0  0  0  0  0  0  0
   49.5880  101.9820   30.8080 C   0  0  0  0  0  0  0  0  0  0  0  0
   49.1850  101.7560   29.5050 C   0  0  0  0  0  0  0  0  0  0  0  0
   47.8520  101.9820   29.1900 C   0  0  0  0  0  0  0  0  0  0  0  0
   46.9850  102.4190   30.1630 C   0  0  0  0  0  0  0  0  0  0  0  0
   47.3690  102.6500   31.4650 C   0  0  0  0  0  0  0  0  0  0  0  0
   50.0860  101.2930   28.4590 C   0  0  0  0  0  0  0  0  0  0  0  0
   50.1720  101.9430   27.3850 O   0  0  0  0  0  0  0  0  0  0  0  0
   50.8830  100.1340   28.5850 N   0  0  0  0  0  0  0  0  0  0  0  0
   51.8620   99.7640   27.5850 C   0  0  0  0  0  0  0  0  0  0  0  0
   52.1340   98.3020   27.5980 C   0  0  0  0  0  0  0  0  0  0  0  0
   51.1590   97.5430   27.8200 O   0  0  0  0  0  0  0  0  0  0  0  0
   53.4030   97.7440   27.3780 N   0  0  0  0  0  0  0  0  0  0  0  0
   54.4780   98.4820   26.7620 C   0  0  0  0  0  0  0  0  0  0  0  0
   54.7920   97.7900   25.4540 C   0  0  0  0  0  0  0  0  0  0  0  0
   54.9890   96.3120   25.6950 C   0  0  0  0  0  0  0  0  0  0  0  0
   53.9610   95.5990   24.9660 N   0  0  0  0  0  0  0  0  0  0  0  0
   54.0840   94.1830   24.9890 C   0  0  0  0  0  0  0  0  0  0  0  0
   55.4530   93.6200   24.8820 C   0  0  0  0  0  0  0  0  0  0  0  0
   56.5180   94.6220   24.6630 C   0  0  0  0  0  0  0  0  0  0  0  0
   57.7690   94.5350   24.1170 N   0  0  0  0  0  0  0  0  0  0  0  0
   58.3000   95.7630   24.1790 C   0  0  0  0  0  0  0  0  0  0  0  0
   57.4140   96.5990   24.7440 N   0  0  0  0  0  0  0  0  0  0  0  0
   56.2840   95.9190   25.0620 C   0  0  0  0  0  0  0  0  0  0  0  0
   54.9870   95.9150   27.1360 C   0  0  0  0  0  0  0  0  0  0  0  0
   53.6750   96.3860   27.7710 C   0  0  0  0  0  0  0  0  0  0  0  0
   50.5990  101.8210   31.0870 H   0  0  0  0  0  0  0  0  0  0  0  0
   47.4530  101.8280   28.1910 H   0  0  0  0  0  0  0  0  0  0  0  0
   45.9390  102.6020   29.9360 H   0  0  0  0  0  0  0  0  0  0  0  0
   46.7240  102.9880   32.2430 H   0  0  0  0  0  0  0  0  0  0  0  0
   50.7620   99.5300   29.4220 H   0  0  0  0  0  0  0  0  0  0  0  0
   52.8330  100.2640   27.7780 H   0  0  0  0  0  0  0  0  0  0  0  0
   51.4690  100.1140   26.6100 H   0  0  0  0  0  0  0  0  0  0  0  0
   55.3920   98.4590   27.4080 H   0  0  0  0  0  0  0  0  0  0  0  0
   54.2430   99.5520   26.6220 H   0  0  0  0  0  0  0  0  0  0  0  0
   55.6750   98.2410   24.9520 H   0  0  0  0  0  0  0  0  0  0  0  0
   53.8990   97.9730   24.7970 H   0  0  0  0  0  0  0  0  0  0  0  0
   53.0270   95.8530   25.3830 H   0  0  0  0  0  0  0  0  0  0  0  0
   53.4980   93.7950   24.1030 H   0  0  0  0  0  0  0  0  0  0  0  0
   53.5540   93.7180   25.8640 H   0  0  0  0  0  0  0  0  0  0  0  0
   55.5430   92.8590   24.0510 H   0  0  0  0  0  0  0  0  0  0  0  0
   55.7300   93.0200   25.7960 H   0  0  0  0  0  0  0  0  0  0  0  0
   58.1930   93.6410   23.7320 H   0  0  0  0  0  0  0  0  0  0  0  0
   59.2810   96.0390   23.8300 H   0  0  0  0  0  0  0  0  0  0  0  0
   55.8620   96.2560   27.6880 H   0  0  0  0  0  0  0  0  0  0  0  0
   54.9640   94.8120   27.1850 H   0  0  0  0  0  0  0  0  0  0  0  0
   53.7440   96.3440   28.8780 H   0  0  0  0  0  0  0  0  0  0  0  0
   52.9030   95.6770   27.4600 H   0  0  0  0  0  0  0  0  0  0  0  0
  2  1  1  0  0  0  0
  3 28  1  0  0  0  0
  3  2  2  0  0  0  0
  4  3  1  0  0  0  0
  5  4  2  0  0  0  0
  5  6  1  0  0  0  0
  6  7  2  0  0  0  0
  7  2  1  0  0  0  0
  7 31  1  0  0  0  0
  8 10  1  0  0  0  0
  8  4  1  0  0  0  0
  9  8  2  0  0  0  0
 10 32  1  0  0  0  0
 11 12  1  0  0  0  0
 11 33  1  0  0  0  0
 11 10  1  0  0  0  0
 12 13  2  0  0  0  0
 14 12  1  0  0  0  0
 14 27  1  0  0  0  0
 15 14  1  0  0  0  0
 15 35  1  0  0  0  0
 16 17  1  0  0  0  0
 16 15  1  0  0  0  0
 17 26  1  0  0  0  0
 18 19  1  0  0  0  0
 18 39  1  0  0  0  0
 18 17  1  0  0  0  0
 19 41  1  0  0  0  0
 20 19  1  0  0  0  0
 20 43  1  0  0  0  0
 21 20  1  0  0  0  0
 21 25  2  0  0  0  0
 22 23  1  0  0  0  0
 22 21  1  0  0  0  0
 23 24  2  0  0  0  0
 24 25  1  0  0  0  0
 25 17  1  0  0  0  0
 26 47  1  0  0  0  0
 26 46  1  0  0  0  0
 26 27  1  0  0  0  0
 27 48  1  0  0  0  0
 29  5  1  0  0  0  0
 30  6  1  0  0  0  0
 34 11  1  0  0  0  0
 36 15  1  0  0  0  0
 37 16  1  0  0  0  0
 38 16  1  0  0  0  0
 40 19  1  0  0  0  0
 42 20  1  0  0  0  0
 44 22  1  0  0  0  0
 45 23  1  0  0  0  0
 49 27  1  0  0  0  0
M  END
>  <Pose>
1

>  <Score>
-7.78

$$$$
