
 OpenBabel03202210083D

 48 51  0  0  1  0  0  0  0  0999 V2000
   57.3090   97.9520   25.7060 B   0  0  0  0  0  0  0  0  0  0  0  0
   55.7890   96.8340   26.0210 C   0  0  0  0  0  0  0  0  0  0  0  0
   54.7410   97.2920   26.7710 C   0  0  0  0  0  0  0  0  0  0  0  0
   53.6320   96.4870   27.0040 C   0  0  0  0  0  0  0  0  0  0  0  0
   53.6250   95.2370   26.4690 C   0  0  0  0  0  0  0  0  0  0  0  0
   54.6930   94.7810   25.7120 C   0  0  0  0  0  0  0  0  0  0  0  0
   55.7860   95.5800   25.4810 C   0  0  0  0  0  0  0  0  0  0  0  0
   52.5230   96.9770   27.8050 C   0  0  0  0  0  0  0  0  0  0  0  0
   51.3290   96.8150   27.3580 O   0  0  0  0  0  0  0  0  0  0  0  0
   52.7180   97.6170   29.0460 N   0  0  0  0  0  0  0  0  0  0  0  0
   51.8080   98.6940   29.3930 C   0  0  2  0  0  0  0  0  0  0  0  0
   50.3640   98.3030   29.1460 C   0  0  0  0  0  0  0  0  0  0  0  0
   49.7090   99.5830   28.9620 N   0  0  0  0  0  0  0  0  0  0  0  0
   50.6790  100.6550   28.8780 C   0  0  1  0  0  0  0  0  0  0  0  0
   51.9550   99.8930   28.5000 C   0  0  0  0  0  0  0  0  0  0  0  0
   50.2640  101.5770   27.8220 C   0  0  0  0  0  0  0  0  0  0  0  0
   51.0340  101.9020   26.9060 O   0  0  0  0  0  0  0  0  0  0  0  0
   48.9450  102.0960   27.8750 N   0  0  0  0  0  0  0  0  0  0  0  0
   47.9070  101.3340   28.5310 C   0  0  1  0  0  0  0  0  0  0  0  0
   48.3260   99.9520   28.8550 C   0  0  0  0  0  0  0  0  0  0  0  0
   47.4540   99.0640   29.0450 O   0  0  0  0  0  0  0  0  0  0  0  0
   47.3330  102.0510   29.7350 C   0  0  0  0  0  0  0  0  0  0  0  0
   48.3520  102.7490   30.5360 C   0  0  0  0  0  0  0  0  0  0  0  0
   48.3450  104.1310   30.6060 C   0  0  0  0  0  0  0  0  0  0  0  0
   49.2940  104.7900   31.3520 C   0  0  0  0  0  0  0  0  0  0  0  0
   50.2820  104.1280   32.0560 C   0  0  0  0  0  0  0  0  0  0  0  0
   50.2920  102.7510   31.9880 C   0  0  0  0  0  0  0  0  0  0  0  0
   49.3470  102.0720   31.2440 C   0  0  0  0  0  0  0  0  0  0  0  0
   54.7190   98.2910   27.2130 H   0  0  0  0  0  0  0  0  0  0  0  0
   52.7700   94.5790   26.6380 H   0  0  0  0  0  0  0  0  0  0  0  0
   54.6880   93.7910   25.2870 H   0  0  0  0  0  0  0  0  0  0  0  0
   56.6410   95.2490   24.8900 H   0  0  0  0  0  0  0  0  0  0  0  0
   53.4800   97.3120   29.6660 H   0  0  0  0  0  0  0  0  0  0  0  0
   51.8890   99.0000   30.4340 H   0  0  0  0  0  0  0  0  0  0  0  0
   50.2420   97.6960   28.2220 H   0  0  0  0  0  0  0  0  0  0  0  0
   49.9350   97.7470   30.0090 H   0  0  0  0  0  0  0  0  0  0  0  0
   50.8250  101.1820   29.8450 H   0  0  0  0  0  0  0  0  0  0  0  0
   52.7910  100.5540   28.7750 H   0  0  0  0  0  0  0  0  0  0  0  0
   51.8880   99.6600   27.4310 H   0  0  0  0  0  0  0  0  0  0  0  0
   48.6860  103.0170   27.4540 H   0  0  0  0  0  0  0  0  0  0  0  0
   47.0570  101.2950   27.7850 H   0  0  0  0  0  0  0  0  0  0  0  0
   46.5530  102.7520   29.3810 H   0  0  0  0  0  0  0  0  0  0  0  0
   46.8660  101.2860   30.3740 H   0  0  0  0  0  0  0  0  0  0  0  0
   47.6120  104.7420   30.0910 H   0  0  0  0  0  0  0  0  0  0  0  0
   49.2940  105.8700   31.4110 H   0  0  0  0  0  0  0  0  0  0  0  0
   51.0180  104.6880   32.6380 H   0  0  0  0  0  0  0  0  0  0  0  0
   51.0720  102.2280   32.5440 H   0  0  0  0  0  0  0  0  0  0  0  0
   49.3840  100.9900   31.2120 H   0  0  0  0  0  0  0  0  0  0  0  0
  1  2  1  0  0  0  0
  2  3  1  0  0  0  0
  3  4  2  0  0  0  0
  3 29  1  0  0  0  0
  4  8  1  0  0  0  0
  5 30  1  0  0  0  0
  5  4  1  0  0  0  0
  6  5  2  0  0  0  0
  7  6  1  0  0  0  0
  7  2  2  0  0  0  0
  8 10  1  0  0  0  0
  9  8  2  0  0  0  0
 10 11  1  0  0  0  0
 10 33  1  0  0  0  0
 11 34  1  1  0  0  0
 12 11  1  0  0  0  0
 12 36  1  0  0  0  0
 13 12  1  0  0  0  0
 14 13  1  0  0  0  0
 14 37  1  1  0  0  0
 15 38  1  0  0  0  0
 15 14  1  0  0  0  0
 15 11  1  0  0  0  0
 16 18  1  0  0  0  0
 16 14  1  0  0  0  0
 17 16  2  0  0  0  0
 18 19  1  0  0  0  0
 19 41  1  6  0  0  0
 19 20  1  0  0  0  0
 19 22  1  0  0  0  0
 20 13  1  0  0  0  0
 20 21  2  0  0  0  0
 22 43  1  0  0  0  0
 22 23  1  0  0  0  0
 23 24  2  0  0  0  0
 23 28  1  0  0  0  0
 24 25  1  0  0  0  0
 25 45  1  0  0  0  0
 25 26  2  0  0  0  0
 26 46  1  0  0  0  0
 27 26  1  0  0  0  0
 27 47  1  0  0  0  0
 28 27  2  0  0  0  0
 31  6  1  0  0  0  0
 32  7  1  0  0  0  0
 35 12  1  0  0  0  0
 39 15  1  0  0  0  0
 40 18  1  0  0  0  0
 42 22  1  0  0  0  0
 44 24  1  0  0  0  0
 48 28  1  0  0  0  0
M  END
>  <Pose>
1

>  <Score>
-8.19

$$$$
