
 OpenBabel03202210083D

 42 45  0  0  1  0  0  0  0  0999 V2000
   57.8980   98.5120   25.6330 B   0  0  0  0  0  0  0  0  0  0  0  0
   56.4500   97.3410   26.0160 C   0  0  0  0  0  0  0  0  0  0  0  0
   56.3650   96.0790   25.4860 C   0  0  0  0  0  0  0  0  0  0  0  0
   55.3330   95.2130   25.7450 C   0  0  0  0  0  0  0  0  0  0  0  0
   54.3430   95.6620   26.5860 C   0  0  0  0  0  0  0  0  0  0  0  0
   54.3910   96.9460   27.1500 C   0  0  0  0  0  0  0  0  0  0  0  0
   55.4550   97.7850   26.8590 C   0  0  0  0  0  0  0  0  0  0  0  0
   55.2570   93.8790   25.1760 C   0  0  0  0  0  0  0  0  0  0  0  0
   56.2120   93.0890   25.4990 O   0  0  0  0  0  0  0  0  0  0  0  0
   54.2340   93.4150   24.3210 N   0  0  0  0  0  0  0  0  0  0  0  0
   54.5060   93.1590   22.9550 C   0  0  2  0  0  0  0  0  0  0  0  0
   53.3110   93.1180   22.0620 C   0  0  0  0  0  0  0  0  0  0  0  0
   53.8050   92.3760   20.8890 N   0  0  0  0  0  0  0  0  0  0  0  0
   55.0750   91.7480   21.2200 C   0  0  1  0  0  0  0  0  0  0  0  0
   55.0890   91.7580   22.7180 C   0  0  0  0  0  0  0  0  0  0  0  0
   55.0860   90.4140   20.6250 C   0  0  0  0  0  0  0  0  0  0  0  0
   55.6280   89.4620   21.2000 O   0  0  0  0  0  0  0  0  0  0  0  0
   54.4590   90.2010   19.3530 N   0  0  0  0  0  0  0  0  0  0  0  0
   54.0800   91.3880   18.6250 C   0  0  1  0  0  0  0  0  0  0  0  0
   53.3620   91.0270   17.3900 C   0  0  0  0  0  0  0  0  0  0  0  0
   53.7220   89.5640   17.2210 C   0  0  0  0  0  0  0  0  0  0  0  0
   54.0900   89.0590   18.5740 C   0  0  0  0  0  0  0  0  0  0  0  0
   53.2570   92.2020   19.5850 C   0  0  0  0  0  0  0  0  0  0  0  0
   52.1560   92.6960   19.2550 O   0  0  0  0  0  0  0  0  0  0  0  0
   57.1480   95.7180   24.8180 H   0  0  0  0  0  0  0  0  0  0  0  0
   53.4940   95.0490   26.8440 H   0  0  0  0  0  0  0  0  0  0  0  0
   53.6130   97.2980   27.8120 H   0  0  0  0  0  0  0  0  0  0  0  0
   55.4500   98.7650   27.3150 H   0  0  0  0  0  0  0  0  0  0  0  0
   53.2840   93.2650   24.7060 H   0  0  0  0  0  0  0  0  0  0  0  0
   55.2410   93.8580   22.5090 H   0  0  0  0  0  0  0  0  0  0  0  0
   52.5380   92.4850   22.5830 H   0  0  0  0  0  0  0  0  0  0  0  0
   52.8910   94.0860   21.7930 H   0  0  0  0  0  0  0  0  0  0  0  0
   55.8800   92.4110   20.8080 H   0  0  0  0  0  0  0  0  0  0  0  0
   54.4210   90.9790   23.0920 H   0  0  0  0  0  0  0  0  0  0  0  0
   56.1160   91.7180   23.1330 H   0  0  0  0  0  0  0  0  0  0  0  0
   54.9940   92.0200   18.4490 H   0  0  0  0  0  0  0  0  0  0  0  0
   53.8240   91.5780   16.5330 H   0  0  0  0  0  0  0  0  0  0  0  0
   52.2800   91.2100   17.3840 H   0  0  0  0  0  0  0  0  0  0  0  0
   54.6270   89.4710   16.5550 H   0  0  0  0  0  0  0  0  0  0  0  0
   52.8710   89.0580   16.7470 H   0  0  0  0  0  0  0  0  0  0  0  0
   53.2090   88.5160   18.9860 H   0  0  0  0  0  0  0  0  0  0  0  0
   54.9400   88.3230   18.4700 H   0  0  0  0  0  0  0  0  0  0  0  0
  1  2  1  0  0  0  0
  2  7  1  0  0  0  0
  3  4  1  0  0  0  0
  3  2  2  0  0  0  0
  4  5  2  0  0  0  0
  5 26  1  0  0  0  0
  5  6  1  0  0  0  0
  6 27  1  0  0  0  0
  7  6  2  0  0  0  0
  7 28  1  0  0  0  0
  8  9  2  0  0  0  0
  8  4  1  0  0  0  0
 10 29  1  0  0  0  0
 10  8  1  0  0  0  0
 11 30  1  6  0  0  0
 11 10  1  0  0  0  0
 12 31  1  0  0  0  0
 12 11  1  0  0  0  0
 13 14  1  0  0  0  0
 13 12  1  0  0  0  0
 14 33  1  6  0  0  0
 14 15  1  0  0  0  0
 15 11  1  0  0  0  0
 15 34  1  0  0  0  0
 15 35  1  0  0  0  0
 16 17  2  0  0  0  0
 16 14  1  0  0  0  0
 18 16  1  0  0  0  0
 19 36  1  6  0  0  0
 19 18  1  0  0  0  0
 19 23  1  0  0  0  0
 20 19  1  0  0  0  0
 21 20  1  0  0  0  0
 21 22  1  0  0  0  0
 22 41  1  0  0  0  0
 22 18  1  0  0  0  0
 23 13  1  0  0  0  0
 24 23  2  0  0  0  0
 25  3  1  0  0  0  0
 32 12  1  0  0  0  0
 37 20  1  0  0  0  0
 38 20  1  0  0  0  0
 39 21  1  0  0  0  0
 40 21  1  0  0  0  0
 42 22  1  0  0  0  0
M  END
>  <Pose>
1

>  <Score>
-7.18

$$$$
