
 OpenBabel03202210083D

 35 38  0  0  1  0  0  0  0  0999 V2000
   51.3290   92.1320   18.3920 B   0  0  0  0  0  0  0  0  0  0  0  0
   53.0480   91.5940   19.0090 C   0  0  0  0  0  0  0  0  0  0  0  0
   53.3690   91.8020   20.3280 C   0  0  0  0  0  0  0  0  0  0  0  0
   54.6120   91.4240   20.8290 C   0  0  0  0  0  0  0  0  0  0  0  0
   55.4990   90.8430   19.9760 C   0  0  0  0  0  0  0  0  0  0  0  0
   55.1710   90.6370   18.6550 C   0  0  0  0  0  0  0  0  0  0  0  0
   53.9530   91.0020   18.1360 C   0  0  0  0  0  0  0  0  0  0  0  0
   54.9080   91.6680   22.2270 C   0  0  0  0  0  0  0  0  0  0  0  0
   54.2710   92.5700   22.7990 O   0  0  0  0  0  0  0  0  0  0  0  0
   55.8760   90.9140   22.9120 N   0  0  0  0  0  0  0  0  0  0  0  0
   55.7220   89.5830   23.3470 N   0  0  0  0  0  0  0  0  0  0  0  0
   55.4460   89.2810   24.7290 C   0  0  0  0  0  0  0  0  0  0  0  0
   55.3080   90.0960   25.6950 O   0  0  0  0  0  0  0  0  0  0  0  0
   55.3410   87.8410   24.8690 C   0  0  1  0  0  0  0  0  0  0  0  0
   55.0910   87.2870   23.4530 C   0  0  2  0  0  0  0  0  0  0  0  0
   55.8960   86.0320   23.3580 C   0  0  2  0  0  0  0  0  0  0  0  0
   56.1550   85.7070   24.8430 C   0  0  0  0  0  0  0  0  0  0  0  0
   56.6580   87.1330   25.1530 C   0  0  1  0  0  0  0  0  0  0  0  0
   57.6020   87.3000   24.0120 C   0  0  0  0  0  0  0  0  0  0  0  0
   57.3070   86.4480   23.0210 C   0  0  0  0  0  0  0  0  0  0  0  0
   55.7910   88.3680   22.6540 C   0  0  0  0  0  0  0  0  0  0  0  0
   56.3410   88.1730   21.5470 O   0  0  0  0  0  0  0  0  0  0  0  0
   52.6420   92.2680   20.9890 H   0  0  0  0  0  0  0  0  0  0  0  0
   56.4650   90.5360   20.3080 H   0  0  0  0  0  0  0  0  0  0  0  0
   55.8770   90.1700   17.9560 H   0  0  0  0  0  0  0  0  0  0  0  0
   53.6470   90.8660   17.1240 H   0  0  0  0  0  0  0  0  0  0  0  0
   56.7970   91.4230   23.1030 H   0  0  0  0  0  0  0  0  0  0  0  0
   54.6010   87.4880   25.5890 H   0  0  0  0  0  0  0  0  0  0  0  0
   54.0380   87.2100   23.2030 H   0  0  0  0  0  0  0  0  0  0  0  0
   55.5000   85.2340   22.7840 H   0  0  0  0  0  0  0  0  0  0  0  0
   56.9690   84.9810   24.9550 H   0  0  0  0  0  0  0  0  0  0  0  0
   55.2440   85.4660   25.3880 H   0  0  0  0  0  0  0  0  0  0  0  0
   57.0550   87.2440   26.1340 H   0  0  0  0  0  0  0  0  0  0  0  0
   58.4340   88.0100   23.9530 H   0  0  0  0  0  0  0  0  0  0  0  0
   57.8390   86.0930   22.1800 H   0  0  0  0  0  0  0  0  0  0  0  0
  1  2  1  0  0  0  0
  2  3  1  0  0  0  0
  3  4  2  0  0  0  0
  3 23  1  0  0  0  0
  4  8  1  0  0  0  0
  5 24  1  0  0  0  0
  5  4  1  0  0  0  0
  6  5  2  0  0  0  0
  7  6  1  0  0  0  0
  7  2  2  0  0  0  0
  8  9  2  0  0  0  0
  8 10  1  0  0  0  0
 10 27  1  0  0  0  0
 10 11  1  0  0  0  0
 11 12  1  0  0  0  0
 12 14  1  0  0  0  0
 12 13  2  0  0  0  0
 14 18  1  0  0  0  0
 14 28  1  1  0  0  0
 15 29  1  6  0  0  0
 15 14  1  0  0  0  0
 16 30  1  6  0  0  0
 16 15  1  0  0  0  0
 16 17  1  0  0  0  0
 17 31  1  0  0  0  0
 17 18  1  0  0  0  0
 17 32  1  0  0  0  0
 18 33  1  1  0  0  0
 19 18  1  0  0  0  0
 20 16  1  0  0  0  0
 20 19  1  0  0  0  0
 21 11  1  0  0  0  0
 21 15  1  0  0  0  0
 22 21  2  0  0  0  0
 25  6  1  0  0  0  0
 26  7  1  0  0  0  0
 34 19  1  0  0  0  0
 35 20  1  0  0  0  0
M  END
>  <Pose>
1

>  <Score>
-7.20

$$$$
