
 OpenBabel03202210083D

 44 47  0  0  0  0  0  0  0  0999 V2000
   52.2860   91.8960   18.3060 B   0  0  0  0  0  0  0  0  0  0  0  0
   53.9300   91.1700   18.9490 C   0  0  0  0  0  0  0  0  0  0  0  0
   54.2720   91.4130   20.2860 C   0  0  0  0  0  0  0  0  0  0  0  0
   55.4520   90.9030   20.8490 C   0  0  0  0  0  0  0  0  0  0  0  0
   56.2600   90.1660   20.0320 C   0  0  0  0  0  0  0  0  0  0  0  0
   55.9390   89.9050   18.6820 C   0  0  0  0  0  0  0  0  0  0  0  0
   54.7330   90.4370   18.1540 C   0  0  0  0  0  0  0  0  0  0  0  0
   55.5800   90.8450   22.3300 C   0  0  0  0  0  0  0  0  0  0  0  0
   55.3820   89.6890   22.9740 C   0  0  0  0  0  0  0  0  0  0  0  0
   55.0570   88.5220   22.4190 O   0  0  0  0  0  0  0  0  0  0  0  0
   54.9660   87.5210   23.4190 C   0  0  0  0  0  0  0  0  0  0  0  0
   55.2360   88.0330   24.6430 C   0  0  0  0  0  0  0  0  0  0  0  0
   55.2620   87.1600   25.7270 C   0  0  0  0  0  0  0  0  0  0  0  0
   54.9990   85.8370   25.5550 C   0  0  0  0  0  0  0  0  0  0  0  0
   54.6960   85.3510   24.2990 C   0  0  0  0  0  0  0  0  0  0  0  0
   54.6580   86.1530   23.1840 C   0  0  0  0  0  0  0  0  0  0  0  0
   53.9380   85.9300   21.9460 C   0  0  0  0  0  0  0  0  0  0  0  0
   52.7150   85.6240   21.4710 N   0  0  0  0  0  4  0  0  0  0  0  0
   52.2080   85.8930   20.1970 C   0  0  0  0  0  0  0  0  0  0  0  0
   52.3440   84.7140   19.2080 C   0  0  0  0  0  0  0  0  0  0  0  0
   51.5880   83.6200   19.5550 O   0  0  0  0  0  0  0  0  0  0  0  0
   51.6230   83.4480   20.9430 C   0  0  0  0  0  0  0  0  0  0  0  0
   52.7580   84.0720   21.5660 C   0  0  0  0  0  0  0  0  0  0  0  0
   54.4210   83.9870   24.1750 O   0  0  0  0  0  0  0  0  0  0  0  0
   55.5110   89.4730   24.4210 C   0  0  0  0  0  0  0  0  0  0  0  0
   55.7880   90.3220   25.2880 O   0  0  0  0  0  0  0  0  0  0  0  0
   53.5910   91.9580   20.8550 H   0  0  0  0  0  0  0  0  0  0  0  0
   57.1660   89.7360   20.3690 H   0  0  0  0  0  0  0  0  0  0  0  0
   56.5170   89.3290   17.9970 H   0  0  0  0  0  0  0  0  0  0  0  0
   54.4620   90.2370   17.1430 H   0  0  0  0  0  0  0  0  0  0  0  0
   55.7960   91.7200   22.9000 H   0  0  0  0  0  0  0  0  0  0  0  0
   55.4790   87.5440   26.6890 H   0  0  0  0  0  0  0  0  0  0  0  0
   55.0330   85.1360   26.4190 H   0  0  0  0  0  0  0  0  0  0  0  0
   53.9750   87.1870   21.5670 H   0  0  0  0  0  0  0  0  0  0  0  0
   54.7980   85.7110   21.1170 H   0  0  0  0  0  0  0  0  0  0  0  0
   51.9630   85.8840   22.2140 H   0  0  0  0  0  0  0  0  0  0  0  0
   52.6190   86.7870   19.6990 H   0  0  0  0  0  0  0  0  0  0  0  0
   51.0510   86.0560   20.2420 H   0  0  0  0  0  0  0  0  0  0  0  0
   53.4220   84.5070   19.0510 H   0  0  0  0  0  0  0  0  0  0  0  0
   51.8980   85.1130   18.2460 H   0  0  0  0  0  0  0  0  0  0  0  0
   50.6950   83.6890   21.4690 H   0  0  0  0  0  0  0  0  0  0  0  0
   51.7730   82.3240   21.1080 H   0  0  0  0  0  0  0  0  0  0  0  0
   53.7660   83.8570   21.0600 H   0  0  0  0  0  0  0  0  0  0  0  0
   52.8550   83.8990   22.6020 H   0  0  0  0  0  0  0  0  0  0  0  0
  1  2  1  0  0  0  0
  2  3  1  0  0  0  0
  3  4  2  0  0  0  0
  3 27  1  0  0  0  0
  4  8  1  0  0  0  0
  5 28  1  0  0  0  0
  5  4  1  0  0  0  0
  6  5  2  0  0  0  0
  7  6  1  0  0  0  0
  7  2  2  0  0  0  0
  8 31  1  0  0  0  0
  8  9  2  0  0  0  0
  9 25  1  0  0  0  0
 10  9  1  0  0  0  0
 10 11  1  0  0  0  0
 11 12  1  0  0  0  0
 12 13  2  0  0  0  0
 13 32  1  0  0  0  0
 14 13  1  0  0  0  0
 14 33  1  0  0  0  0
 15 14  2  0  0  0  0
 16 11  2  0  0  0  0
 16 15  1  0  0  0  0
 17 16  1  0  0  0  0
 18 23  1  0  0  0  0
 18 17  1  0  0  0  0
 18 36  1  0  0  0  0
 19 38  1  0  0  0  0
 19 18  1  0  0  0  0
 20 21  1  0  0  0  0
 20 19  1  0  0  0  0
 21 22  1  0  0  0  0
 22 42  1  0  0  0  0
 22 41  1  0  0  0  0
 22 23  1  0  0  0  0
 23 44  1  0  0  0  0
 24 15  1  0  0  0  0
 25 12  1  0  0  0  0
 25 26  2  0  0  0  0
 29  6  1  0  0  0  0
 30  7  1  0  0  0  0
 34 17  1  0  0  0  0
 35 17  1  0  0  0  0
 37 19  1  0  0  0  0
 39 20  1  0  0  0  0
 40 20  1  0  0  0  0
 43 23  1  0  0  0  0
M  END
>  <Pose>
1

>  <Score>
-6.15

$$$$
