
 OpenBabel03202210083D

 52 55  0  0  0  0  0  0  0  0999 V2000
   54.3480   83.5080   28.8980 B   0  0  0  0  0  0  0  0  0  0  0  0
   52.8500   84.2440   27.9540 C   0  0  0  0  0  0  0  0  0  0  0  0
   52.7970   84.2520   26.5610 C   0  0  0  0  0  0  0  0  0  0  0  0
   51.7100   84.8250   25.9290 C   0  0  0  0  0  0  0  0  0  0  0  0
   50.7090   85.3630   26.7170 C   0  0  0  0  0  0  0  0  0  0  0  0
   50.8010   85.3310   28.0780 C   0  0  0  0  0  0  0  0  0  0  0  0
   51.8580   84.7890   28.7620 C   0  0  0  0  0  0  0  0  0  0  0  0
   51.5850   85.0270   24.4720 C   0  0  0  0  0  0  0  0  0  0  0  0
   52.5950   84.9160   23.6560 N   0  0  0  0  0  0  0  0  0  0  0  0
   52.6080   85.0900   22.3530 N   0  0  0  0  0  0  0  0  0  0  0  0
   52.6160   84.6780   21.0520 C   0  0  0  0  0  0  0  0  0  0  0  0
   52.5490   83.5100   20.6090 O   0  0  0  0  0  0  0  0  0  0  0  0
   52.6980   85.7970   20.0240 C   0  0  0  0  0  0  0  0  0  0  0  0
   51.9510   86.0840   19.0130 N   0  0  0  0  0  0  0  0  0  0  0  0
   52.2910   87.2720   18.5210 N   0  0  0  0  0  0  0  0  0  0  0  0
   53.3080   87.7770   19.2680 N   0  0  0  0  0  0  0  0  0  0  0  0
   53.6140   86.9100   20.1760 C   0  0  0  0  0  0  0  0  0  0  0  0
   54.6220   86.8050   21.2260 C   0  0  0  0  0  0  0  0  0  0  0  0
   55.5520   87.8030   21.4980 N   0  0  0  0  0  0  0  0  0  0  0  0
   55.5090   89.0800   21.9120 C   0  0  0  0  0  0  0  0  0  0  0  0
   56.0350   89.1410   23.3720 C   0  0  0  0  0  0  0  0  0  0  0  0
   55.8280   87.8610   23.9480 N   0  0  0  0  0  0  0  0  0  0  0  0
   56.7190   86.8920   23.3850 C   0  0  0  0  0  0  0  0  0  0  0  0
   56.8640   87.2080   21.8910 C   0  0  0  0  0  0  0  0  0  0  0  0
   55.5630   87.7510   25.3200 C   0  0  0  0  0  0  0  0  0  0  0  0
   53.5050   89.2180   19.2150 C   0  0  0  0  0  0  0  0  0  0  0  0
   54.8760   89.6020   18.9820 N   0  0  0  0  0  0  0  0  0  0  0  0
   54.9950   90.8430   18.9510 O   0  0  0  0  0  0  0  0  0  0  0  0
   53.8330   91.3870   19.1470 N   0  0  0  0  0  0  0  0  0  0  0  0
   52.9090   90.3550   19.3080 C   0  0  0  0  0  0  0  0  0  0  0  0
   51.5540   90.6720   19.5320 N   0  0  0  0  0  0  0  0  0  0  0  0
   53.5930   83.8290   25.9960 H   0  0  0  0  0  0  0  0  0  0  0  0
   49.8620   85.8000   26.1980 H   0  0  0  0  0  0  0  0  0  0  0  0
   49.9860   85.7530   28.7080 H   0  0  0  0  0  0  0  0  0  0  0  0
   51.8920   84.7950   29.8320 H   0  0  0  0  0  0  0  0  0  0  0  0
   50.6760   85.3730   24.0300 H   0  0  0  0  0  0  0  0  0  0  0  0
   52.5030   86.3050   22.2550 H   0  0  0  0  0  0  0  0  0  0  0  0
   53.8890   86.7630   22.2240 H   0  0  0  0  0  0  0  0  0  0  0  0
   55.0790   85.8190   21.3440 H   0  0  0  0  0  0  0  0  0  0  0  0
   54.6290   89.6850   21.8140 H   0  0  0  0  0  0  0  0  0  0  0  0
   56.3120   89.6760   21.3130 H   0  0  0  0  0  0  0  0  0  0  0  0
   57.0800   89.3900   23.3580 H   0  0  0  0  0  0  0  0  0  0  0  0
   55.4160   89.8830   23.8840 H   0  0  0  0  0  0  0  0  0  0  0  0
   56.3620   85.8200   23.4730 H   0  0  0  0  0  0  0  0  0  0  0  0
   57.6910   86.9370   23.8870 H   0  0  0  0  0  0  0  0  0  0  0  0
   57.1090   86.3820   21.2740 H   0  0  0  0  0  0  0  0  0  0  0  0
   57.5920   87.9880   21.7690 H   0  0  0  0  0  0  0  0  0  0  0  0
   55.5700   88.7920   25.7580 H   0  0  0  0  0  0  0  0  0  0  0  0
   54.5070   87.3520   25.4440 H   0  0  0  0  0  0  0  0  0  0  0  0
   56.2730   87.1280   25.8640 H   0  0  0  0  0  0  0  0  0  0  0  0
   50.9580   90.6060   18.6330 H   0  0  0  0  0  0  0  0  0  0  0  0
   51.0510   90.9420   20.3550 H   0  0  0  0  0  0  0  0  0  0  0  0
  2  7  1  0  0  0  0
  2  1  1  0  0  0  0
  3  2  2  0  0  0  0
  4  3  1  0  0  0  0
  4  5  2  0  0  0  0
  5  6  1  0  0  0  0
  6 34  1  0  0  0  0
  6  7  2  0  0  0  0
  7 35  1  0  0  0  0
  8  4  1  0  0  0  0
  9  8  2  0  0  0  0
 10  9  1  0  0  0  0
 11 10  1  0  0  0  0
 12 11  2  0  0  0  0
 13 17  2  0  0  0  0
 13 11  1  0  0  0  0
 14 13  1  0  0  0  0
 15 14  2  0  0  0  0
 15 16  1  0  0  0  0
 16 17  1  0  0  0  0
 17 18  1  0  0  0  0
 18 39  1  0  0  0  0
 18 19  1  0  0  0  0
 18 38  1  0  0  0  0
 19 24  1  0  0  0  0
 19 20  1  0  0  0  0
 20 21  1  0  0  0  0
 21 43  1  0  0  0  0
 21 22  1  0  0  0  0
 22 25  1  0  0  0  0
 23 44  1  0  0  0  0
 23 45  1  0  0  0  0
 23 22  1  0  0  0  0
 24 23  1  0  0  0  0
 25 49  1  0  0  0  0
 25 48  1  0  0  0  0
 25 50  1  0  0  0  0
 26 16  1  0  0  0  0
 26 30  1  0  0  0  0
 27 26  2  0  0  0  0
 28 27  1  0  0  0  0
 28 29  1  0  0  0  0
 29 30  2  0  0  0  0
 30 31  1  0  0  0  0
 31 52  1  0  0  0  0
 32  3  1  0  0  0  0
 33  5  1  0  0  0  0
 36  8  1  0  0  0  0
 37 10  1  0  0  0  0
 40 20  1  0  0  0  0
 41 20  1  0  0  0  0
 42 21  1  0  0  0  0
 46 24  1  0  0  0  0
 47 24  1  0  0  0  0
 51 31  1  0  0  0  0
M  END
>  <Pose>
1

>  <Score>
-7.81

$$$$
