
 OpenBabel03202210083D

 50 53  0  0  0  0  0  0  0  0999 V2000
   51.9470   79.7390   14.3550 B   0  0  0  0  0  0  0  0  0  0  0  0
   52.8840   81.2870   14.9820 C   0  0  0  0  0  0  0  0  0  0  0  0
   52.4690   81.9690   16.0990 C   0  0  0  0  0  0  0  0  0  0  0  0
   53.1120   83.0930   16.5890 C   0  0  0  0  0  0  0  0  0  0  0  0
   54.2230   83.5170   15.8930 C   0  0  0  0  0  0  0  0  0  0  0  0
   54.6760   82.8520   14.7550 C   0  0  0  0  0  0  0  0  0  0  0  0
   53.9990   81.7380   14.3060 C   0  0  0  0  0  0  0  0  0  0  0  0
   52.6470   83.7940   17.7790 C   0  0  0  0  0  0  0  0  0  0  0  0
   52.4350   85.0500   17.8210 N   0  0  0  0  0  0  0  0  0  0  0  0
   51.9900   85.7470   18.9480 N   0  0  0  0  0  0  0  0  0  0  0  0
   52.7980   86.7370   19.5750 C   0  0  0  0  0  0  0  0  0  0  0  0
   52.8040   87.9910   19.1100 N   0  0  0  0  0  4  0  0  0  0  0  0
   53.5540   88.9840   19.6640 C   0  0  0  0  0  0  0  0  0  0  0  0
   54.3040   88.6240   20.7270 N   0  0  0  0  0  0  0  0  0  0  0  0
   54.3410   87.3820   21.2400 C   0  0  0  0  0  0  0  0  0  0  0  0
   53.5630   86.4550   20.6270 N   0  0  0  0  0  0  0  0  0  0  0  0
   55.1300   87.0340   22.3480 N   0  0  0  0  0  0  0  0  0  0  0  0
   56.5650   86.9670   22.2730 C   0  0  0  0  0  0  0  0  0  0  0  0
   57.0800   87.5080   23.6140 C   0  0  0  0  0  0  0  0  0  0  0  0
   56.1560   88.3920   24.1650 O   0  0  0  0  0  0  0  0  0  0  0  0
   54.9970   87.7970   24.5960 C   0  0  0  0  0  0  0  0  0  0  0  0
   54.5100   86.7300   23.6060 C   0  0  0  0  0  0  0  0  0  0  0  0
   53.5440   90.3010   19.1550 N   0  0  0  0  0  0  0  0  0  0  0  0
   54.6080   90.7720   18.3130 C   0  0  0  0  0  0  0  0  0  0  0  0
   53.9600   91.3110   17.0420 C   0  0  0  0  0  0  0  0  0  0  0  0
   53.1140   92.3420   17.4440 O   0  0  0  0  0  0  0  0  0  0  0  0
   52.0310   91.8800   18.1700 C   0  0  0  0  0  0  0  0  0  0  0  0
   52.4720   91.2070   19.4660 C   0  0  0  0  0  0  0  0  0  0  0  0
   51.5900   81.6370   16.6550 H   0  0  0  0  0  0  0  0  0  0  0  0
   54.7810   84.3940   16.2190 H   0  0  0  0  0  0  0  0  0  0  0  0
   55.5470   83.1820   14.2040 H   0  0  0  0  0  0  0  0  0  0  0  0
   54.3660   81.2390   13.4260 H   0  0  0  0  0  0  0  0  0  0  0  0
   52.4750   83.2110   18.6730 H   0  0  0  0  0  0  0  0  0  0  0  0
   51.0450   85.5230   19.3230 H   0  0  0  0  0  0  0  0  0  0  0  0
   56.9830   87.5520   21.4300 H   0  0  0  0  0  0  0  0  0  0  0  0
   56.8520   85.9030   22.2420 H   0  0  0  0  0  0  0  0  0  0  0  0
   57.9830   88.0930   23.3820 H   0  0  0  0  0  0  0  0  0  0  0  0
   57.3140   86.6980   24.3130 H   0  0  0  0  0  0  0  0  0  0  0  0
   55.0230   87.4130   25.6170 H   0  0  0  0  0  0  0  0  0  0  0  0
   54.1910   88.5890   24.5750 H   0  0  0  0  0  0  0  0  0  0  0  0
   53.4230   86.7650   23.4920 H   0  0  0  0  0  0  0  0  0  0  0  0
   54.8520   85.7240   23.9960 H   0  0  0  0  0  0  0  0  0  0  0  0
   55.3670   90.0060   18.0910 H   0  0  0  0  0  0  0  0  0  0  0  0
   55.0550   91.6690   18.8210 H   0  0  0  0  0  0  0  0  0  0  0  0
   53.3260   90.5020   16.6450 H   0  0  0  0  0  0  0  0  0  0  0  0
   54.6930   91.6980   16.3320 H   0  0  0  0  0  0  0  0  0  0  0  0
   51.4850   91.1610   17.5110 H   0  0  0  0  0  0  0  0  0  0  0  0
   51.3900   92.7540   18.4010 H   0  0  0  0  0  0  0  0  0  0  0  0
   52.8630   92.0170   20.1170 H   0  0  0  0  0  0  0  0  0  0  0  0
   51.5970   90.7190   19.9220 H   0  0  0  0  0  0  0  0  0  0  0  0
  1  2  1  0  0  0  0
  2  3  1  0  0  0  0
  3  4  2  0  0  0  0
  3 29  1  0  0  0  0
  4  8  1  0  0  0  0
  5 30  1  0  0  0  0
  5  4  1  0  0  0  0
  6  5  2  0  0  0  0
  7  6  1  0  0  0  0
  7  2  2  0  0  0  0
  8  9  2  0  0  0  0
  8 33  1  0  0  0  0
  9 10  1  0  0  0  0
 10 34  1  0  0  0  0
 10 11  1  0  0  0  0
 11 16  1  0  0  0  0
 12 11  2  0  0  0  0
 12 13  2  0  0  0  0
 13 14  1  0  0  0  0
 14 15  2  0  0  0  0
 15 17  1  0  0  0  0
 16 15  1  0  0  0  0
 17 22  1  0  0  0  0
 18 17  1  0  0  0  0
 18 19  1  0  0  0  0
 19 20  1  0  0  0  0
 19 38  1  0  0  0  0
 20 21  1  0  0  0  0
 21 39  1  0  0  0  0
 22 42  1  0  0  0  0
 22 21  1  0  0  0  0
 23 28  1  0  0  0  0
 23 13  1  0  0  0  0
 24 44  1  0  0  0  0
 24 23  1  0  0  0  0
 25 26  1  0  0  0  0
 25 24  1  0  0  0  0
 26 27  1  0  0  0  0
 27 48  1  0  0  0  0
 27 28  1  0  0  0  0
 28 50  1  0  0  0  0
 28 49  1  0  0  0  0
 31  6  1  0  0  0  0
 32  7  1  0  0  0  0
 35 18  1  0  0  0  0
 36 18  1  0  0  0  0
 37 19  1  0  0  0  0
 40 21  1  0  0  0  0
 41 22  1  0  0  0  0
 43 24  1  0  0  0  0
 45 25  1  0  0  0  0
 46 25  1  0  0  0  0
 47 27  1  0  0  0  0
M  END
>  <Pose>
1

>  <Score>
-7.39

$$$$
