
 OpenBabel03202210083D

 61 64  0  0  1  0  0  0  0  0999 V2000
   53.9360   91.0300   16.8730 B   0  0  0  0  0  0  0  0  0  0  0  0
   55.2040   90.8590   18.2890 C   0  0  0  0  0  0  0  0  0  0  0  0
   54.8830   90.4640   19.5520 C   0  0  0  0  0  0  0  0  0  0  0  0
   55.7720   90.3290   20.6050 C   0  0  0  0  0  0  0  0  0  0  0  0
   57.1090   90.6220   20.3510 C   0  0  0  0  0  0  0  0  0  0  0  0
   57.4700   91.0250   19.0800 C   0  0  0  0  0  0  0  0  0  0  0  0
   56.5560   91.1510   18.0480 C   0  0  0  0  0  0  0  0  0  0  0  0
   55.2480   89.9110   21.9090 C   0  0  1  0  0  0  0  0  0  0  0  0
   55.9060   88.7470   22.3710 N   0  0  0  0  0  0  0  0  0  0  0  0
   56.6580   89.0520   23.5340 C   0  0  0  0  0  0  0  0  0  0  0  0
   57.4340   88.2430   24.1320 O   0  0  0  0  0  0  0  0  0  0  0  0
   56.3840   90.4210   23.9130 C   0  0  0  0  0  0  0  0  0  0  0  0
   56.9290   90.9520   24.9180 O   0  0  0  0  0  0  0  0  0  0  0  0
   55.4410   90.9550   22.9490 C   0  0  0  0  0  0  0  0  0  0  0  0
   54.9260   92.1620   23.0000 C   0  0  0  0  0  0  0  0  0  0  0  0
   54.0920   92.5780   21.9880 O   0  0  0  0  0  0  0  0  0  0  0  0
   55.2120   93.0520   24.0980 C   0  0  0  0  0  0  0  0  0  0  0  0
   55.8500   94.2970   23.9540 C   0  0  0  0  0  0  0  0  0  0  0  0
   55.9310   94.8890   25.1520 N   0  0  0  0  0  0  0  0  0  0  0  0
   55.3750   94.0700   26.0260 N   0  0  0  0  0  0  0  0  0  0  0  0
   54.9280   92.9540   25.4320 C   0  0  0  0  0  0  0  0  0  0  0  0
   56.4900   96.1610   25.4470 C   0  0  0  0  0  0  0  0  0  0  0  0
   55.7610   97.0460   26.2290 C   0  0  0  0  0  0  0  0  0  0  0  0
   56.2470   98.2940   26.5640 C   0  0  0  0  0  0  0  0  0  0  0  0
   57.5020   98.7170   26.1250 C   0  0  0  0  0  0  0  0  0  0  0  0
   58.2290   97.8350   25.3460 C   0  0  0  0  0  0  0  0  0  0  0  0
   57.7240   96.6010   25.0270 C   0  0  0  0  0  0  0  0  0  0  0  0
   56.3390   94.8330   22.6510 C   0  0  0  0  0  0  0  0  0  0  0  0
   55.8300   87.3820   21.7770 C   0  0  0  0  0  0  0  0  0  0  0  0
   54.6020   86.6750   22.2900 C   0  0  0  0  0  0  0  0  0  0  0  0
   54.8040   86.0150   23.6170 C   0  0  0  0  0  0  0  0  0  0  0  0
   53.9890   86.4870   24.6870 N   0  0  0  0  0  4  0  0  0  0  0  0
   53.7130   85.5580   25.7330 C   0  0  0  0  0  0  0  0  0  0  0  0
   54.5970   87.6790   25.3000 C   0  0  0  0  0  0  0  0  0  0  0  0
   53.8110   90.2420   19.7190 H   0  0  0  0  0  0  0  0  0  0  0  0
   57.8280   90.5320   21.1440 H   0  0  0  0  0  0  0  0  0  0  0  0
   58.5220   91.2540   18.8850 H   0  0  0  0  0  0  0  0  0  0  0  0
   56.8370   91.4700   17.0500 H   0  0  0  0  0  0  0  0  0  0  0  0
   54.1580   89.6770   21.7970 H   0  0  0  0  0  0  0  0  0  0  0  0
   54.4150   92.1210   25.9160 H   0  0  0  0  0  0  0  0  0  0  0  0
   54.7720   96.6890   26.5650 H   0  0  0  0  0  0  0  0  0  0  0  0
   55.6550   98.9600   27.1790 H   0  0  0  0  0  0  0  0  0  0  0  0
   57.8620   99.7110   26.4030 H   0  0  0  0  0  0  0  0  0  0  0  0
   59.2090   98.1800   25.0090 H   0  0  0  0  0  0  0  0  0  0  0  0
   58.3270   95.9430   24.4190 H   0  0  0  0  0  0  0  0  0  0  0  0
   55.6260   94.5780   21.8300 H   0  0  0  0  0  0  0  0  0  0  0  0
   57.3720   94.5070   22.4310 H   0  0  0  0  0  0  0  0  0  0  0  0
   56.3570   95.9500   22.6870 H   0  0  0  0  0  0  0  0  0  0  0  0
   55.8860   87.4460   20.6760 H   0  0  0  0  0  0  0  0  0  0  0  0
   56.7100   86.8040   22.1830 H   0  0  0  0  0  0  0  0  0  0  0  0
   53.8690   87.5140   22.4950 H   0  0  0  0  0  0  0  0  0  0  0  0
   54.1060   86.0660   21.5320 H   0  0  0  0  0  0  0  0  0  0  0  0
   55.8830   86.1170   23.9570 H   0  0  0  0  0  0  0  0  0  0  0  0
   54.6570   84.9000   23.5090 H   0  0  0  0  0  0  0  0  0  0  0  0
   53.0620   86.8390   24.2990 H   0  0  0  0  0  0  0  0  0  0  0  0
   54.0020   85.9580   26.7430 H   0  0  0  0  0  0  0  0  0  0  0  0
   54.0860   84.5250   25.5860 H   0  0  0  0  0  0  0  0  0  0  0  0
   52.5920   85.4400   25.8080 H   0  0  0  0  0  0  0  0  0  0  0  0
   53.9260   88.5520   25.2410 H   0  0  0  0  0  0  0  0  0  0  0  0
   55.5270   87.8970   24.7290 H   0  0  0  0  0  0  0  0  0  0  0  0
   54.9150   87.4520   26.3430 H   0  0  0  0  0  0  0  0  0  0  0  0
  1  2  1  0  0  0  0
  2  3  1  0  0  0  0
  3 35  1  0  0  0  0
  3  4  2  0  0  0  0
  4  8  1  0  0  0  0
  5  4  1  0  0  0  0
  5 36  1  0  0  0  0
  6  5  2  0  0  0  0
  7  2  2  0  0  0  0
  7  6  1  0  0  0  0
  8 39  1  6  0  0  0
  8  9  1  0  0  0  0
  8 14  1  0  0  0  0
  9 10  1  0  0  0  0
 10 12  1  0  0  0  0
 10 11  2  0  0  0  0
 12 13  2  0  0  0  0
 14 15  2  0  0  0  0
 14 12  1  0  0  0  0
 15 17  1  0  0  0  0
 16 15  1  0  0  0  0
 17 21  1  0  0  0  0
 18 17  2  0  0  0  0
 18 19  1  0  0  0  0
 19 22  1  0  0  0  0
 19 20  1  0  0  0  0
 21 40  1  0  0  0  0
 21 20  2  0  0  0  0
 22 23  1  0  0  0  0
 23 24  2  0  0  0  0
 23 41  1  0  0  0  0
 24 42  1  0  0  0  0
 25 43  1  0  0  0  0
 25 24  1  0  0  0  0
 26 25  2  0  0  0  0
 27 26  1  0  0  0  0
 27 22  2  0  0  0  0
 28 48  1  0  0  0  0
 28 18  1  0  0  0  0
 29 50  1  0  0  0  0
 29 30  1  0  0  0  0
 29  9  1  0  0  0  0
 30 51  1  0  0  0  0
 30 31  1  0  0  0  0
 31 53  1  0  0  0  0
 31 32  1  0  0  0  0
 32 34  1  0  0  0  0
 32 33  1  0  0  0  0
 33 58  1  0  0  0  0
 33 56  1  0  0  0  0
 34 61  1  0  0  0  0
 37  6  1  0  0  0  0
 38  7  1  0  0  0  0
 44 26  1  0  0  0  0
 45 27  1  0  0  0  0
 46 28  1  0  0  0  0
 47 28  1  0  0  0  0
 49 29  1  0  0  0  0
 52 30  1  0  0  0  0
 54 31  1  0  0  0  0
 55 32  1  0  0  0  0
 57 33  1  0  0  0  0
 59 34  1  0  0  0  0
 60 34  1  0  0  0  0
M  END
>  <Pose>
1

>  <Score>
-6.60

$$$$
