
 OpenBabel03202210083D

 63 66  0  0  1  0  0  0  0  0999 V2000
   52.4280   84.7530   25.8150 B   0  0  0  0  0  0  0  0  0  0  0  0
   53.7050   85.7930   24.8550 C   0  0  0  0  0  0  0  0  0  0  0  0
   53.7930   85.6980   23.4710 C   0  0  0  0  0  0  0  0  0  0  0  0
   54.7090   86.4440   22.7630 C   0  0  0  0  0  0  0  0  0  0  0  0
   55.5460   87.2930   23.4520 C   0  0  0  0  0  0  0  0  0  0  0  0
   55.4630   87.3910   24.8260 C   0  0  0  0  0  0  0  0  0  0  0  0
   54.5490   86.6500   25.5440 C   0  0  0  0  0  0  0  0  0  0  0  0
   54.8200   86.3590   21.2970 C   0  0  1  0  0  0  0  0  0  0  0  0
   53.9150   85.3900   20.7110 N   0  0  0  0  0  0  0  0  0  0  0  0
   52.6970   86.0000   20.3430 C   0  0  0  0  0  0  0  0  0  0  0  0
   51.5660   85.5080   20.0980 O   0  0  0  0  0  0  0  0  0  0  0  0
   52.9810   87.4560   20.2830 C   0  0  0  0  0  0  0  0  0  0  0  0
   52.1270   88.3140   19.9810 O   0  0  0  0  0  0  0  0  0  0  0  0
   54.3790   87.6330   20.6290 C   0  0  0  0  0  0  0  0  0  0  0  0
   55.1110   88.6830   20.3560 C   0  0  0  0  0  0  0  0  0  0  0  0
   56.4750   88.6760   20.6960 O   0  0  0  0  0  0  0  0  0  0  0  0
   54.5690   89.8560   19.7240 C   0  0  0  0  0  0  0  0  0  0  0  0
   55.0150   90.1350   18.4240 C   0  0  0  0  0  0  0  0  0  0  0  0
   54.5840   91.2510   17.7620 C   0  0  0  0  0  0  0  0  0  0  0  0
   53.6960   92.1500   18.3390 C   0  0  0  0  0  0  0  0  0  0  0  0
   53.2780   91.8610   19.6000 C   0  0  0  0  0  0  0  0  0  0  0  0
   53.7030   90.7390   20.2830 C   0  0  0  0  0  0  0  0  0  0  0  0
   53.3090   93.2520   17.6040 O   0  0  0  0  0  0  0  0  0  0  0  0
   52.0070   93.3340   17.0430 C   0  0  0  0  0  0  0  0  0  0  0  0
   55.0700   91.5330   16.3730 C   0  0  0  0  0  0  0  0  0  0  0  0
   54.1980   83.9600   20.5050 C   0  0  0  0  0  0  0  0  0  0  0  0
   54.2090   83.6490   19.0340 C   0  0  0  0  0  0  0  0  0  0  0  0
   52.9760   82.9900   18.5170 C   0  0  0  0  0  0  0  0  0  0  0  0
   52.7280   83.2370   17.1140 N   0  0  0  0  0  4  0  0  0  0  0  0
   53.8420   83.9160   16.4820 C   0  0  0  0  0  0  0  0  0  0  0  0
   54.4760   83.0420   15.4330 C   0  0  0  0  0  0  0  0  0  0  0  0
   53.5000   82.7750   14.4520 O   0  0  0  0  0  0  0  0  0  0  0  0
   52.4530   82.0320   14.9940 C   0  0  0  0  0  0  0  0  0  0  0  0
   52.4880   81.9350   16.4850 C   0  0  0  0  0  0  0  0  0  0  0  0
   53.1390   85.0350   22.9450 H   0  0  0  0  0  0  0  0  0  0  0  0
   56.2890   87.9070   22.9510 H   0  0  0  0  0  0  0  0  0  0  0  0
   56.1250   88.0620   25.3530 H   0  0  0  0  0  0  0  0  0  0  0  0
   54.4850   86.7260   26.6190 H   0  0  0  0  0  0  0  0  0  0  0  0
   55.8390   86.0640   20.9660 H   0  0  0  0  0  0  0  0  0  0  0  0
   55.7190   89.4430   17.9380 H   0  0  0  0  0  0  0  0  0  0  0  0
   52.5830   92.5400   20.0860 H   0  0  0  0  0  0  0  0  0  0  0  0
   53.3650   90.5570   21.3160 H   0  0  0  0  0  0  0  0  0  0  0  0
   51.7700   94.3450   16.6940 H   0  0  0  0  0  0  0  0  0  0  0  0
   51.2220   92.9810   17.7560 H   0  0  0  0  0  0  0  0  0  0  0  0
   51.9160   92.6550   16.1510 H   0  0  0  0  0  0  0  0  0  0  0  0
   56.1850   91.5770   16.4570 H   0  0  0  0  0  0  0  0  0  0  0  0
   54.7210   92.5060   16.0370 H   0  0  0  0  0  0  0  0  0  0  0  0
   54.7630   90.7390   15.6580 H   0  0  0  0  0  0  0  0  0  0  0  0
   53.4530   83.3390   21.0310 H   0  0  0  0  0  0  0  0  0  0  0  0
   55.2360   83.7690   20.8910 H   0  0  0  0  0  0  0  0  0  0  0  0
   54.3450   84.5840   18.4240 H   0  0  0  0  0  0  0  0  0  0  0  0
   55.0670   82.9680   18.7810 H   0  0  0  0  0  0  0  0  0  0  0  0
   52.1240   83.3630   19.1440 H   0  0  0  0  0  0  0  0  0  0  0  0
   52.9740   81.8910   18.6550 H   0  0  0  0  0  0  0  0  0  0  0  0
   51.8610   83.7860   16.9360 H   0  0  0  0  0  0  0  0  0  0  0  0
   54.6280   84.1750   17.2210 H   0  0  0  0  0  0  0  0  0  0  0  0
   53.4850   84.8390   15.9380 H   0  0  0  0  0  0  0  0  0  0  0  0
   55.2900   83.5600   14.9220 H   0  0  0  0  0  0  0  0  0  0  0  0
   54.8580   82.0900   15.8570 H   0  0  0  0  0  0  0  0  0  0  0  0
   51.4750   82.4700   14.7020 H   0  0  0  0  0  0  0  0  0  0  0  0
   52.5280   80.9910   14.5910 H   0  0  0  0  0  0  0  0  0  0  0  0
   51.4380   81.6680   16.8060 H   0  0  0  0  0  0  0  0  0  0  0  0
   53.1650   81.1570   16.8790 H   0  0  0  0  0  0  0  0  0  0  0  0
  2  7  1  0  0  0  0
  2  1  1  0  0  0  0
  3  2  2  0  0  0  0
  4  5  2  0  0  0  0
  4  3  1  0  0  0  0
  5  6  1  0  0  0  0
  6 37  1  0  0  0  0
  6  7  2  0  0  0  0
  7 38  1  0  0  0  0
  8 39  1  6  0  0  0
  8  4  1  0  0  0  0
  9  8  1  0  0  0  0
 10  9  1  0  0  0  0
 11 10  2  0  0  0  0
 12 10  1  0  0  0  0
 12 14  1  0  0  0  0
 13 12  2  0  0  0  0
 14  8  1  0  0  0  0
 15 14  2  0  0  0  0
 15 16  1  0  0  0  0
 17 22  1  0  0  0  0
 17 15  1  0  0  0  0
 18 17  2  0  0  0  0
 19 20  2  0  0  0  0
 19 18  1  0  0  0  0
 20 21  1  0  0  0  0
 21 41  1  0  0  0  0
 21 22  2  0  0  0  0
 22 42  1  0  0  0  0
 23 20  1  0  0  0  0
 24 23  1  0  0  0  0
 24 44  1  0  0  0  0
 25 46  1  0  0  0  0
 25 19  1  0  0  0  0
 26  9  1  0  0  0  0
 26 50  1  0  0  0  0
 26 49  1  0  0  0  0
 27 26  1  0  0  0  0
 28 54  1  0  0  0  0
 28 27  1  0  0  0  0
 28 53  1  0  0  0  0
 29 28  1  0  0  0  0
 30 29  1  0  0  0  0
 30 56  1  0  0  0  0
 31 59  1  0  0  0  0
 31 30  1  0  0  0  0
 32 33  1  0  0  0  0
 32 31  1  0  0  0  0
 33 34  1  0  0  0  0
 34 62  1  0  0  0  0
 34 63  1  0  0  0  0
 34 29  1  0  0  0  0
 35  3  1  0  0  0  0
 36  5  1  0  0  0  0
 40 18  1  0  0  0  0
 43 24  1  0  0  0  0
 45 24  1  0  0  0  0
 47 25  1  0  0  0  0
 48 25  1  0  0  0  0
 51 27  1  0  0  0  0
 52 27  1  0  0  0  0
 55 29  1  0  0  0  0
 57 30  1  0  0  0  0
 58 31  1  0  0  0  0
 60 33  1  0  0  0  0
 61 33  1  0  0  0  0
M  END
>  <Pose>
1

>  <Score>
-6.54

$$$$
