
 OpenBabel03202210083D

 56 59  0  0  1  0  0  0  0  0999 V2000
   52.9020   82.0730   14.5420 B   0  0  0  0  0  0  0  0  0  0  0  0
   53.4510   82.4940   16.3110 C   0  0  0  0  0  0  0  0  0  0  0  0
   52.6740   83.2530   17.1760 C   0  0  0  0  0  0  0  0  0  0  0  0
   53.0810   83.5560   18.4550 C   0  0  0  0  0  0  0  0  0  0  0  0
   54.2930   83.0880   18.8690 C   0  0  0  0  0  0  0  0  0  0  0  0
   55.0850   82.3200   18.0050 C   0  0  0  0  0  0  0  0  0  0  0  0
   54.6770   82.0180   16.7260 C   0  0  0  0  0  0  0  0  0  0  0  0
   52.2110   84.3690   19.3420 C   0  0  1  0  0  0  0  0  0  0  0  0
   52.4940   84.0850   20.7400 N   0  0  0  0  0  0  0  0  0  0  0  0
   53.4820   85.0440   21.1710 C   0  0  0  0  0  0  0  0  0  0  0  0
   54.2050   84.9180   22.1900 O   0  0  0  0  0  0  0  0  0  0  0  0
   53.4600   86.1330   20.2180 C   0  0  0  0  0  0  0  0  0  0  0  0
   54.1700   87.1870   20.2120 O   0  0  0  0  0  0  0  0  0  0  0  0
   52.4500   85.8190   19.2160 C   0  0  0  0  0  0  0  0  0  0  0  0
   51.9180   86.6850   18.3650 C   0  0  0  0  0  0  0  0  0  0  0  0
   51.0010   86.1120   17.4590 O   0  0  0  0  0  0  0  0  0  0  0  0
   52.2160   88.1070   18.3320 C   0  0  0  0  0  0  0  0  0  0  0  0
   51.5380   89.0790   19.0270 C   0  0  0  0  0  0  0  0  0  0  0  0
   51.8890   90.4140   18.9830 C   0  0  0  0  0  0  0  0  0  0  0  0
   52.9560   90.8310   18.2200 C   0  0  0  0  0  0  0  0  0  0  0  0
   53.6490   89.8680   17.5130 C   0  0  0  0  0  0  0  0  0  0  0  0
   53.2900   88.5360   17.5650 C   0  0  0  0  0  0  0  0  0  0  0  0
   53.4260   92.5330   18.1460 Cl  0  0  0  0  0  0  0  0  0  0  0  0
   51.9650   82.9930   21.4920 C   0  0  0  0  0  0  0  0  0  0  0  0
   52.1880   82.9430   22.9470 C   0  0  0  0  0  0  0  0  0  0  0  0
   51.4270   83.8410   23.8500 C   0  0  0  0  0  0  0  0  0  0  0  0
   50.1100   83.4580   24.2310 N   0  0  0  0  0  4  0  0  0  0  0  0
   49.5720   82.4850   23.3140 C   0  0  0  0  0  0  0  0  0  0  0  0
   49.8130   81.0550   23.7480 C   0  0  0  0  0  0  0  0  0  0  0  0
   49.1130   80.7880   24.9270 O   0  0  0  0  0  0  0  0  0  0  0  0
   48.8900   81.9620   25.6500 C   0  0  0  0  0  0  0  0  0  0  0  0
   50.1490   82.7790   25.5640 C   0  0  0  0  0  0  0  0  0  0  0  0
   51.7220   83.6120   16.8270 H   0  0  0  0  0  0  0  0  0  0  0  0
   54.6490   83.2980   19.8530 H   0  0  0  0  0  0  0  0  0  0  0  0
   56.0380   81.9480   18.3260 H   0  0  0  0  0  0  0  0  0  0  0  0
   55.2910   81.4200   16.0500 H   0  0  0  0  0  0  0  0  0  0  0  0
   51.1550   84.0850   19.1600 H   0  0  0  0  0  0  0  0  0  0  0  0
   50.6830   88.8030   19.6220 H   0  0  0  0  0  0  0  0  0  0  0  0
   51.3530   91.1760   19.5330 H   0  0  0  0  0  0  0  0  0  0  0  0
   54.4850   90.2170   16.9180 H   0  0  0  0  0  0  0  0  0  0  0  0
   53.8430   87.7860   17.0020 H   0  0  0  0  0  0  0  0  0  0  0  0
   52.4230   82.0550   21.0320 H   0  0  0  0  0  0  0  0  0  0  0  0
   50.8400   82.9400   21.2720 H   0  0  0  0  0  0  0  0  0  0  0  0
   53.3150   83.0430   23.1870 H   0  0  0  0  0  0  0  0  0  0  0  0
   51.9720   81.8760   23.3270 H   0  0  0  0  0  0  0  0  0  0  0  0
   51.3440   84.8780   23.4170 H   0  0  0  0  0  0  0  0  0  0  0  0
   52.0140   84.0120   24.8160 H   0  0  0  0  0  0  0  0  0  0  0  0
   49.4950   84.2510   24.3930 H   0  0  0  0  0  0  0  0  0  0  0  0
   50.0210   82.6240   22.3080 H   0  0  0  0  0  0  0  0  0  0  0  0
   48.4820   82.6290   23.2130 H   0  0  0  0  0  0  0  0  0  0  0  0
   50.9020   80.8850   23.8540 H   0  0  0  0  0  0  0  0  0  0  0  0
   49.4420   80.3940   22.9630 H   0  0  0  0  0  0  0  0  0  0  0  0
   48.0350   82.4830   25.1900 H   0  0  0  0  0  0  0  0  0  0  0  0
   48.6390   81.6800   26.6950 H   0  0  0  0  0  0  0  0  0  0  0  0
   51.0500   82.1330   25.5740 H   0  0  0  0  0  0  0  0  0  0  0  0
   50.1600   83.5610   26.3460 H   0  0  0  0  0  0  0  0  0  0  0  0
  1  2  1  0  0  0  0
  2  7  2  0  0  0  0
  2  3  1  0  0  0  0
  3  4  2  0  0  0  0
  4  5  1  0  0  0  0
  4  8  1  0  0  0  0
  5 34  1  0  0  0  0
  6 35  1  0  0  0  0
  6  5  2  0  0  0  0
  7  6  1  0  0  0  0
  8 37  1  6  0  0  0
  8  9  1  0  0  0  0
  9 10  1  0  0  0  0
  9 24  1  0  0  0  0
 10 11  2  0  0  0  0
 12 10  1  0  0  0  0
 13 12  2  0  0  0  0
 14  8  1  0  0  0  0
 14 12  1  0  0  0  0
 15 14  2  0  0  0  0
 16 15  1  0  0  0  0
 17 15  1  0  0  0  0
 17 18  1  0  0  0  0
 18 38  1  0  0  0  0
 19 18  2  0  0  0  0
 19 39  1  0  0  0  0
 20 19  1  0  0  0  0
 21 22  1  0  0  0  0
 21 20  2  0  0  0  0
 22 17  2  0  0  0  0
 23 20  1  0  0  0  0
 24 25  1  0  0  0  0
 25 44  1  0  0  0  0
 25 45  1  0  0  0  0
 25 26  1  0  0  0  0
 26 27  1  0  0  0  0
 26 47  1  0  0  0  0
 27 48  1  0  0  0  0
 27 32  1  0  0  0  0
 28 29  1  0  0  0  0
 28 27  1  0  0  0  0
 29 51  1  0  0  0  0
 29 30  1  0  0  0  0
 30 31  1  0  0  0  0
 31 54  1  0  0  0  0
 32 55  1  0  0  0  0
 32 31  1  0  0  0  0
 32 56  1  0  0  0  0
 33  3  1  0  0  0  0
 36  7  1  0  0  0  0
 40 21  1  0  0  0  0
 41 22  1  0  0  0  0
 42 24  1  0  0  0  0
 43 24  1  0  0  0  0
 46 26  1  0  0  0  0
 49 28  1  0  0  0  0
 50 28  1  0  0  0  0
 52 29  1  0  0  0  0
 53 31  1  0  0  0  0
M  END
>  <Pose>
1

>  <Score>
-6.58

$$$$
