
 OpenBabel03202210083D

 62 66  0  0  1  0  0  0  0  0999 V2000
   54.8590   86.2670   26.1240 B   0  0  0  0  0  0  0  0  0  0  0  0
   55.6020   87.0810   24.5570 C   0  0  0  0  0  0  0  0  0  0  0  0
   55.0250   88.1930   24.0020 C   0  0  0  0  0  0  0  0  0  0  0  0
   55.5290   88.8300   22.8500 C   0  0  0  0  0  0  0  0  0  0  0  0
   56.6580   88.2250   22.3430 C   0  0  0  0  0  0  0  0  0  0  0  0
   57.2540   87.1070   22.8850 C   0  0  0  0  0  0  0  0  0  0  0  0
   56.7240   86.5190   24.0110 C   0  0  0  0  0  0  0  0  0  0  0  0
   54.8670   89.9960   22.3480 C   0  0  2  0  0  0  0  0  0  0  0  0
   54.7480   90.2260   20.9500 N   0  0  0  0  0  0  0  0  0  0  0  0
   54.1210   91.5490   20.8770 C   0  0  0  0  0  0  0  0  0  0  0  0
   53.4040   91.9710   19.9560 O   0  0  0  0  0  0  0  0  0  0  0  0
   54.5160   92.2580   22.1060 C   0  0  0  0  0  0  0  0  0  0  0  0
   54.2130   93.4210   22.4590 O   0  0  0  0  0  0  0  0  0  0  0  0
   55.3530   91.3170   22.8450 C   0  0  0  0  0  0  0  0  0  0  0  0
   56.3110   91.6100   23.6870 C   0  0  0  0  0  0  0  0  0  0  0  0
   57.0340   90.5300   24.2370 O   0  0  0  0  0  0  0  0  0  0  0  0
   56.6400   92.9740   24.0710 C   0  0  0  0  0  0  0  0  0  0  0  0
   55.9670   93.8910   24.7810 N   0  0  0  0  0  0  0  0  0  0  0  0
   56.6690   95.0260   24.8300 C   0  0  0  0  0  0  0  0  0  0  0  0
   57.8170   94.8210   24.1320 N   0  0  0  0  0  0  0  0  0  0  0  0
   57.8390   93.5720   23.6500 C   0  0  0  0  0  0  0  0  0  0  0  0
   58.9150   92.9430   22.8320 C   0  0  0  0  0  0  0  0  0  0  0  0
   56.2060   96.1440   25.5200 C   0  0  0  0  0  0  0  0  0  0  0  0
   54.9870   96.0300   26.1590 C   0  0  0  0  0  0  0  0  0  0  0  0
   54.2860   94.8400   26.0900 C   0  0  0  0  0  0  0  0  0  0  0  0
   54.7620   93.7510   25.4010 C   0  0  0  0  0  0  0  0  0  0  0  0
   57.0280   97.3800   25.5390 C   0  0  0  0  0  0  0  0  0  0  0  0
   55.0530   89.4520   19.7600 C   0  0  0  0  0  0  0  0  0  0  0  0
   54.8090   90.1510   18.4670 C   0  0  0  0  0  0  0  0  0  0  0  0
   53.9920   89.3790   17.5520 N   0  0  0  0  0  4  0  0  0  0  0  0
   53.2580   88.3430   18.2430 C   0  0  0  0  0  0  0  0  0  0  0  0
   52.1230   88.9720   19.0570 C   0  0  0  0  0  0  0  0  0  0  0  0
   51.2420   89.5200   18.1180 O   0  0  0  0  0  0  0  0  0  0  0  0
   51.9080   90.6420   17.5830 C   0  0  0  0  0  0  0  0  0  0  0  0
   53.1150   90.2310   16.7730 C   0  0  0  0  0  0  0  0  0  0  0  0
   54.1290   88.5930   24.4870 H   0  0  0  0  0  0  0  0  0  0  0  0
   57.1150   88.6470   21.4860 H   0  0  0  0  0  0  0  0  0  0  0  0
   58.1390   86.6600   22.4560 H   0  0  0  0  0  0  0  0  0  0  0  0
   57.1490   85.6460   24.4740 H   0  0  0  0  0  0  0  0  0  0  0  0
   53.7870   89.9700   22.7260 H   0  0  0  0  0  0  0  0  0  0  0  0
   58.6690   93.0940   21.7620 H   0  0  0  0  0  0  0  0  0  0  0  0
   58.9100   91.8680   23.0470 H   0  0  0  0  0  0  0  0  0  0  0  0
   59.9010   93.4100   23.0810 H   0  0  0  0  0  0  0  0  0  0  0  0
   54.5960   96.8920   26.7110 H   0  0  0  0  0  0  0  0  0  0  0  0
   53.3320   94.7430   26.5860 H   0  0  0  0  0  0  0  0  0  0  0  0
   54.2280   92.8190   25.3390 H   0  0  0  0  0  0  0  0  0  0  0  0
   56.4490   98.1990   26.0140 H   0  0  0  0  0  0  0  0  0  0  0  0
   57.2800   97.6700   24.4870 H   0  0  0  0  0  0  0  0  0  0  0  0
   57.9590   97.2730   26.1030 H   0  0  0  0  0  0  0  0  0  0  0  0
   56.1380   89.2010   19.8020 H   0  0  0  0  0  0  0  0  0  0  0  0
   54.5360   88.4580   19.8100 H   0  0  0  0  0  0  0  0  0  0  0  0
   54.2000   91.0730   18.7410 H   0  0  0  0  0  0  0  0  0  0  0  0
   55.6540   90.5230   17.9170 H   0  0  0  0  0  0  0  0  0  0  0  0
   54.6190   88.8920   16.8660 H   0  0  0  0  0  0  0  0  0  0  0  0
   53.9490   87.9000   18.9850 H   0  0  0  0  0  0  0  0  0  0  0  0
   52.9090   87.5490   17.5830 H   0  0  0  0  0  0  0  0  0  0  0  0
   51.6560   88.2270   19.7080 H   0  0  0  0  0  0  0  0  0  0  0  0
   52.5440   89.8210   19.6190 H   0  0  0  0  0  0  0  0  0  0  0  0
   52.2940   91.2140   18.4620 H   0  0  0  0  0  0  0  0  0  0  0  0
   51.2510   91.2570   16.9680 H   0  0  0  0  0  0  0  0  0  0  0  0
   53.6810   91.1590   16.5500 H   0  0  0  0  0  0  0  0  0  0  0  0
   52.8470   89.7770   15.8000 H   0  0  0  0  0  0  0  0  0  0  0  0
  2  1  1  0  0  0  0
  3 36  1  0  0  0  0
  3  2  2  0  0  0  0
  4  3  1  0  0  0  0
  5  4  2  0  0  0  0
  5  6  1  0  0  0  0
  6  7  2  0  0  0  0
  7 39  1  0  0  0  0
  7  2  1  0  0  0  0
  8 40  1  1  0  0  0
  8 14  1  0  0  0  0
  8  4  1  0  0  0  0
  9  8  1  0  0  0  0
 10  9  1  0  0  0  0
 10 12  1  0  0  0  0
 11 10  2  0  0  0  0
 12 13  2  0  0  0  0
 12 14  1  0  0  0  0
 14 15  2  0  0  0  0
 15 17  1  0  0  0  0
 15 16  1  0  0  0  0
 17 18  1  0  0  0  0
 18 19  1  0  0  0  0
 18 26  1  0  0  0  0
 19 23  1  0  0  0  0
 20 19  2  0  0  0  0
 21 17  2  0  0  0  0
 21 20  1  0  0  0  0
 22 42  1  0  0  0  0
 22 43  1  0  0  0  0
 22 21  1  0  0  0  0
 23 27  1  0  0  0  0
 23 24  2  0  0  0  0
 24 44  1  0  0  0  0
 25 24  1  0  0  0  0
 25 45  1  0  0  0  0
 26 25  2  0  0  0  0
 27 47  1  0  0  0  0
 27 49  1  0  0  0  0
 28 50  1  0  0  0  0
 28 51  1  0  0  0  0
 28  9  1  0  0  0  0
 29 52  1  0  0  0  0
 29 28  1  0  0  0  0
 30 31  1  0  0  0  0
 30 29  1  0  0  0  0
 31 55  1  0  0  0  0
 31 32  1  0  0  0  0
 32 58  1  0  0  0  0
 32 57  1  0  0  0  0
 33 32  1  0  0  0  0
 34 33  1  0  0  0  0
 34 59  1  0  0  0  0
 35 30  1  0  0  0  0
 35 34  1  0  0  0  0
 37  5  1  0  0  0  0
 38  6  1  0  0  0  0
 41 22  1  0  0  0  0
 46 26  1  0  0  0  0
 48 27  1  0  0  0  0
 53 29  1  0  0  0  0
 54 30  1  0  0  0  0
 56 31  1  0  0  0  0
 60 34  1  0  0  0  0
 61 35  1  0  0  0  0
 62 35  1  0  0  0  0
M  END
>  <Pose>
1

>  <Score>
-5.14

$$$$
