
 OpenBabel03202210083D

 58 61  0  0  1  0  0  0  0  0999 V2000
   48.9710   94.6210   26.9360 B   0  0  0  0  0  0  0  0  0  0  0  0
   48.7420   96.3420   27.7680 C   0  0  0  0  0  0  0  0  0  0  0  0
   49.7970   97.2020   27.8770 C   0  0  0  0  0  0  0  0  0  0  0  0
   49.7010   98.4630   28.4690 C   0  0  0  0  0  0  0  0  0  0  0  0
   48.4510   98.7920   28.9470 C   0  0  0  0  0  0  0  0  0  0  0  0
   47.3680   97.9230   28.8410 C   0  0  0  0  0  0  0  0  0  0  0  0
   47.5190   96.7000   28.2520 C   0  0  0  0  0  0  0  0  0  0  0  0
   50.8760   99.3660   28.5610 C   0  0  2  0  0  0  0  0  0  0  0  0
   50.6800  100.6360   27.8930 N   0  0  0  0  0  0  0  0  0  0  0  0
   51.0060  100.4020   26.5050 C   0  0  0  0  0  0  0  0  0  0  0  0
   50.6050  101.0910   25.5360 O   0  0  0  0  0  0  0  0  0  0  0  0
   51.8800   99.2250   26.4730 C   0  0  0  0  0  0  0  0  0  0  0  0
   52.4030   98.6670   25.4750 O   0  0  0  0  0  0  0  0  0  0  0  0
   52.0650   98.7690   27.8460 C   0  0  0  0  0  0  0  0  0  0  0  0
   53.0340   98.0060   28.3220 C   0  0  0  0  0  0  0  0  0  0  0  0
   53.0280   97.6630   29.6500 O   0  0  0  0  0  0  0  0  0  0  0  0
   54.1240   97.5200   27.4550 C   0  0  0  0  0  0  0  0  0  0  0  0
   55.2030   98.1870   27.1460 O   0  0  0  0  0  0  0  0  0  0  0  0
   56.0070   97.5410   26.3700 C   0  0  0  0  0  0  0  0  0  0  0  0
   55.4260   96.3200   26.1250 C   0  0  0  0  0  0  0  0  0  0  0  0
   54.2320   96.3080   26.8140 C   0  0  0  0  0  0  0  0  0  0  0  0
   56.0940   95.4320   25.3110 C   0  0  0  0  0  0  0  0  0  0  0  0
   57.3150   95.7420   24.7460 C   0  0  0  0  0  0  0  0  0  0  0  0
   57.8690   96.9950   25.0230 C   0  0  0  0  0  0  0  0  0  0  0  0
   57.2330   97.9050   25.8290 C   0  0  0  0  0  0  0  0  0  0  0  0
   57.8120   99.1230   26.0770 O   0  0  0  0  0  0  0  0  0  0  0  0
   59.0580   99.5610   25.6380 C   0  0  0  0  0  0  0  0  0  0  0  0
   50.2310  101.8880   28.4520 C   0  0  0  0  0  0  0  0  0  0  0  0
   49.1610  101.6760   29.4960 C   0  0  0  0  0  0  0  0  0  0  0  0
   49.5300  102.0950   30.8730 C   0  0  0  0  0  0  0  0  0  0  0  0
   49.6590  103.5060   31.0630 N   0  0  0  0  0  4  0  0  0  0  0  0
   50.1970  103.8030   32.3940 C   0  0  0  0  0  0  0  0  0  0  0  0
   48.4260  104.2080   30.8800 C   0  0  0  0  0  0  0  0  0  0  0  0
   50.7770   96.9400   27.5000 H   0  0  0  0  0  0  0  0  0  0  0  0
   48.2570   99.7200   29.4140 H   0  0  0  0  0  0  0  0  0  0  0  0
   46.3860   98.1800   29.2180 H   0  0  0  0  0  0  0  0  0  0  0  0
   46.7090   95.9810   28.1440 H   0  0  0  0  0  0  0  0  0  0  0  0
   51.0710   99.5020   29.6440 H   0  0  0  0  0  0  0  0  0  0  0  0
   53.5170   95.5050   26.8460 H   0  0  0  0  0  0  0  0  0  0  0  0
   55.6300   94.4760   25.1240 H   0  0  0  0  0  0  0  0  0  0  0  0
   57.8230   95.0320   24.1090 H   0  0  0  0  0  0  0  0  0  0  0  0
   58.8410   97.1870   24.5470 H   0  0  0  0  0  0  0  0  0  0  0  0
   59.8340   98.7730   25.5840 H   0  0  0  0  0  0  0  0  0  0  0  0
   59.4520  100.4200   26.2320 H   0  0  0  0  0  0  0  0  0  0  0  0
   58.9410   99.9330   24.5940 H   0  0  0  0  0  0  0  0  0  0  0  0
   51.0890  102.4140   28.9180 H   0  0  0  0  0  0  0  0  0  0  0  0
   49.7770  102.4770   27.6270 H   0  0  0  0  0  0  0  0  0  0  0  0
   48.2260  102.2370   29.1870 H   0  0  0  0  0  0  0  0  0  0  0  0
   48.8230  100.6000   29.4610 H   0  0  0  0  0  0  0  0  0  0  0  0
   50.4850  101.5690   31.1250 H   0  0  0  0  0  0  0  0  0  0  0  0
   48.7540  101.7090   31.5820 H   0  0  0  0  0  0  0  0  0  0  0  0
   50.3650  103.9390   30.4010 H   0  0  0  0  0  0  0  0  0  0  0  0
   50.6000  104.8310   32.3790 H   0  0  0  0  0  0  0  0  0  0  0  0
   49.4530  103.6340   33.1890 H   0  0  0  0  0  0  0  0  0  0  0  0
   51.0380  103.0890   32.6190 H   0  0  0  0  0  0  0  0  0  0  0  0
   48.0700  104.0560   29.8420 H   0  0  0  0  0  0  0  0  0  0  0  0
   47.6450  103.8480   31.5790 H   0  0  0  0  0  0  0  0  0  0  0  0
   48.6020  105.2950   31.0920 H   0  0  0  0  0  0  0  0  0  0  0  0
  1  2  1  0  0  0  0
  2  3  2  0  0  0  0
  2  7  1  0  0  0  0
  3  4  1  0  0  0  0
  4  8  1  0  0  0  0
  4  5  2  0  0  0  0
  5 35  1  0  0  0  0
  6  5  1  0  0  0  0
  6 36  1  0  0  0  0
  7  6  2  0  0  0  0
  8 38  1  1  0  0  0
  9 28  1  0  0  0  0
  9  8  1  0  0  0  0
 10  9  1  0  0  0  0
 11 10  2  0  0  0  0
 12 10  1  0  0  0  0
 12 14  1  0  0  0  0
 13 12  2  0  0  0  0
 14 15  2  0  0  0  0
 14  8  1  0  0  0  0
 15 16  1  0  0  0  0
 17 15  1  0  0  0  0
 18 17  1  0  0  0  0
 19 18  1  0  0  0  0
 20 19  1  0  0  0  0
 20 21  1  0  0  0  0
 21 39  1  0  0  0  0
 21 17  2  0  0  0  0
 22 20  2  0  0  0  0
 23 24  2  0  0  0  0
 23 22  1  0  0  0  0
 24 25  1  0  0  0  0
 25 26  1  0  0  0  0
 25 19  2  0  0  0  0
 27 26  1  0  0  0  0
 27 44  1  0  0  0  0
 28 46  1  0  0  0  0
 28 29  1  0  0  0  0
 29 30  1  0  0  0  0
 30 31  1  0  0  0  0
 30 50  1  0  0  0  0
 30 51  1  0  0  0  0
 31 32  1  0  0  0  0
 32 55  1  0  0  0  0
 32 54  1  0  0  0  0
 33 31  1  0  0  0  0
 33 58  1  0  0  0  0
 33 57  1  0  0  0  0
 34  3  1  0  0  0  0
 37  7  1  0  0  0  0
 40 22  1  0  0  0  0
 41 23  1  0  0  0  0
 42 24  1  0  0  0  0
 43 27  1  0  0  0  0
 45 27  1  0  0  0  0
 47 28  1  0  0  0  0
 48 29  1  0  0  0  0
 49 29  1  0  0  0  0
 52 31  1  0  0  0  0
 53 32  1  0  0  0  0
 56 33  1  0  0  0  0
M  END
>  <Pose>
1

>  <Score>
-5.89

$$$$
