
 OpenBabel03202210083D

 38 41  0  0  1  0  0  0  0  0999 V2000
   57.1540   98.1870   26.1500 B   0  0  0  0  0  0  0  0  0  0  0  0
   55.7010   96.9580   26.2390 C   0  0  0  0  0  0  0  0  0  0  0  0
   55.7490   95.7410   25.6010 C   0  0  0  0  0  0  0  0  0  0  0  0
   54.6960   94.8140   25.6470 C   0  0  0  0  0  0  0  0  0  0  0  0
   53.5980   95.1850   26.3710 C   0  0  0  0  0  0  0  0  0  0  0  0
   53.5590   96.4230   27.0160 C   0  0  0  0  0  0  0  0  0  0  0  0
   54.5930   97.3020   26.9550 C   0  0  0  0  0  0  0  0  0  0  0  0
   54.8310   93.5900   24.9630 N   0  0  0  0  0  0  0  0  0  0  0  0
   55.4190   93.4260   23.7000 C   0  0  0  0  0  0  0  0  0  0  0  0
   56.4920   93.9250   23.3300 O   0  0  0  0  0  0  0  0  0  0  0  0
   54.7200   92.5800   22.6700 C   0  0  2  0  0  0  0  0  0  0  0  0
   54.1440   91.3020   23.2210 C   0  0  0  0  0  0  0  0  0  0  0  0
   55.3350   90.5490   22.8000 N   0  0  2  0  0  0  0  0  0  0  0  0
   55.6230   91.6560   21.9060 C   0  0  0  0  0  0  0  0  0  0  0  0
   55.8820   89.2890   23.1660 C   0  0  1  0  0  0  0  0  0  0  0  0
   56.6550   89.1320   24.2720 N   0  0  0  0  0  0  0  0  0  0  0  0
   57.1680   87.9100   24.6020 C   0  0  0  0  0  0  0  0  0  0  0  0
   56.9270   86.8320   23.8510 N   0  0  0  0  0  0  0  0  0  0  0  0
   56.1760   86.9140   22.7510 C   0  0  0  0  0  0  0  0  0  0  0  0
   55.7940   85.9940   21.8430 N   0  0  0  0  0  0  0  0  0  0  0  0
   55.0550   86.6280   20.9600 N   0  0  0  0  0  0  0  0  0  0  0  0
   54.9540   87.9240   21.2780 N   0  0  0  0  0  0  0  0  0  0  0  0
   55.6590   88.1500   22.4190 C   0  0  0  0  0  0  0  0  0  0  0  0
   56.1170   84.5690   21.8140 C   0  0  0  0  0  0  0  0  0  0  0  0
   56.6410   95.4900   25.0390 H   0  0  0  0  0  0  0  0  0  0  0  0
   52.7330   94.5230   26.4600 H   0  0  0  0  0  0  0  0  0  0  0  0
   52.6510   96.6680   27.5830 H   0  0  0  0  0  0  0  0  0  0  0  0
   54.5390   98.2620   27.4670 H   0  0  0  0  0  0  0  0  0  0  0  0
   54.4410   92.7140   25.4710 H   0  0  0  0  0  0  0  0  0  0  0  0
   53.9670   93.1360   22.0860 H   0  0  0  0  0  0  0  0  0  0  0  0
   54.0800   91.2370   24.3270 H   0  0  0  0  0  0  0  0  0  0  0  0
   53.2660   90.9080   22.7000 H   0  0  0  0  0  0  0  0  0  0  0  0
   56.6800   91.9940   21.9160 H   0  0  0  0  0  0  0  0  0  0  0  0
   55.2860   91.4110   20.8890 H   0  0  0  0  0  0  0  0  0  0  0  0
   57.7740   87.8610   25.4940 H   0  0  0  0  0  0  0  0  0  0  0  0
   55.3210   83.9850   21.3250 H   0  0  0  0  0  0  0  0  0  0  0  0
   56.1850   84.1600   22.8650 H   0  0  0  0  0  0  0  0  0  0  0  0
   57.0830   84.3690   21.3490 H   0  0  0  0  0  0  0  0  0  0  0  0
  1  2  1  0  0  0  0
  2  7  1  0  0  0  0
  3  4  1  0  0  0  0
  3  2  2  0  0  0  0
  4  5  2  0  0  0  0
  5 26  1  0  0  0  0
  5  6  1  0  0  0  0
  6 27  1  0  0  0  0
  7  6  2  0  0  0  0
  7 28  1  0  0  0  0
  8 29  1  0  0  0  0
  8  4  1  0  0  0  0
  9  8  1  0  0  0  0
 10  9  2  0  0  0  0
 11 30  1  6  0  0  0
 11 12  1  0  0  0  0
 11  9  1  0  0  0  0
 12 31  1  0  0  0  0
 13 14  1  6  0  0  0
 13 15  1  0  0  0  0
 13 12  1  0  0  0  0
 14 33  1  0  0  0  0
 14 11  1  0  0  0  0
 15 23  1  1  0  0  0
 15 16  1  0  0  0  0
 16 17  2  0  0  0  0
 17 35  1  0  0  0  0
 18 17  1  0  0  0  0
 19 18  1  0  0  0  0
 20 19  1  0  0  0  0
 21 22  2  0  0  0  0
 21 20  1  0  0  0  0
 22 23  1  0  0  0  0
 23 19  2  0  0  0  0
 24 20  1  0  0  0  0
 24 37  1  0  0  0  0
 25  3  1  0  0  0  0
 32 12  1  0  0  0  0
 34 14  1  0  0  0  0
 36 24  1  0  0  0  0
 38 24  1  0  0  0  0
M  END
>  <Pose>
1

>  <Score>
-6.41

$$$$
