
 OpenBabel03202210083D

 38 41  0  0  0  0  0  0  0  0999 V2000
   51.7720   98.0850   27.7920 B   0  0  0  0  0  0  0  0  0  0  0  0
   53.4740   97.4870   27.1770 C   0  0  0  0  0  0  0  0  0  0  0  0
   53.6200   96.2330   26.5760 C   0  0  0  0  0  0  0  0  0  0  0  0
   54.8480   95.8040   26.1340 C   0  0  0  0  0  0  0  0  0  0  0  0
   55.9260   96.6470   26.3010 C   0  0  0  0  0  0  0  0  0  0  0  0
   55.7930   97.9040   26.9010 C   0  0  0  0  0  0  0  0  0  0  0  0
   54.5580   98.3230   27.3400 C   0  0  0  0  0  0  0  0  0  0  0  0
   55.0510   94.5280   25.5120 N   0  0  0  0  0  0  0  0  0  0  0  0
   55.4430   93.4000   26.0420 N   0  0  0  0  0  0  0  0  0  0  0  0
   55.5050   92.4490   25.1250 N   0  0  0  0  0  0  0  0  0  0  0  0
   55.1330   92.9820   23.9350 C   0  0  0  0  0  0  0  0  0  0  0  0
   54.8490   94.3020   24.2030 C   0  0  0  0  0  0  0  0  0  0  0  0
   55.0470   92.3140   22.6420 C   0  0  0  0  0  0  0  0  0  0  0  0
   54.2280   92.7570   21.7990 O   0  0  0  0  0  0  0  0  0  0  0  0
   55.8410   91.2010   22.3020 N   0  0  0  0  0  0  0  0  0  0  0  0
   55.3540   90.0280   21.6120 C   0  0  0  0  0  0  0  0  0  0  0  0
   56.1830   88.8190   21.9450 C   0  0  0  0  0  0  0  0  0  0  0  0
   56.5650   88.3750   23.1670 N   0  0  0  0  0  0  0  0  0  0  0  0
   57.2940   87.2620   23.0300 C   0  0  0  0  0  0  0  0  0  0  0  0
   57.3590   87.0220   21.6990 N   0  0  0  0  0  0  0  0  0  0  0  0
   56.6930   87.9550   21.0480 N   0  0  0  0  0  0  0  0  0  0  0  0
   57.7390   86.7370   24.3720 C   0  0  0  0  0  0  0  0  0  0  0  0
   57.5350   87.9620   25.2390 C   0  0  0  0  0  0  0  0  0  0  0  0
   56.4250   88.7450   24.5650 C   0  0  0  0  0  0  0  0  0  0  0  0
   52.7760   95.5750   26.4460 H   0  0  0  0  0  0  0  0  0  0  0  0
   56.8930   96.3170   25.9570 H   0  0  0  0  0  0  0  0  0  0  0  0
   56.6540   98.5650   27.0290 H   0  0  0  0  0  0  0  0  0  0  0  0
   54.4480   99.2950   27.8050 H   0  0  0  0  0  0  0  0  0  0  0  0
   54.5190   95.0280   23.4680 H   0  0  0  0  0  0  0  0  0  0  0  0
   56.8520   91.2230   22.5670 H   0  0  0  0  0  0  0  0  0  0  0  0
   54.2880   89.8480   21.8440 H   0  0  0  0  0  0  0  0  0  0  0  0
   55.4880   90.1790   20.5000 H   0  0  0  0  0  0  0  0  0  0  0  0
   58.7780   86.4030   24.3270 H   0  0  0  0  0  0  0  0  0  0  0  0
   57.0280   85.9470   24.7200 H   0  0  0  0  0  0  0  0  0  0  0  0
   57.1660   87.7070   26.2520 H   0  0  0  0  0  0  0  0  0  0  0  0
   58.4970   88.5150   25.2490 H   0  0  0  0  0  0  0  0  0  0  0  0
   55.4370   88.5140   24.9910 H   0  0  0  0  0  0  0  0  0  0  0  0
   56.6250   89.8210   24.7460 H   0  0  0  0  0  0  0  0  0  0  0  0
  2  7  1  0  0  0  0
  2  1  1  0  0  0  0
  3  2  2  0  0  0  0
  4  5  2  0  0  0  0
  4  3  1  0  0  0  0
  5  6  1  0  0  0  0
  6 27  1  0  0  0  0
  6  7  2  0  0  0  0
  7 28  1  0  0  0  0
  8  9  1  0  0  0  0
  8  4  1  0  0  0  0
 10  9  2  0  0  0  0
 11 12  2  0  0  0  0
 11 10  1  0  0  0  0
 12  8  1  0  0  0  0
 13 11  1  0  0  0  0
 14 13  2  0  0  0  0
 15 30  1  0  0  0  0
 15 13  1  0  0  0  0
 16 31  1  0  0  0  0
 16 17  1  0  0  0  0
 16 15  1  0  0  0  0
 17 18  1  0  0  0  0
 18 24  1  0  0  0  0
 19 18  1  0  0  0  0
 19 22  1  0  0  0  0
 20 19  2  0  0  0  0
 21 20  1  0  0  0  0
 21 17  2  0  0  0  0
 22 34  1  0  0  0  0
 22 23  1  0  0  0  0
 23 36  1  0  0  0  0
 23 35  1  0  0  0  0
 24 38  1  0  0  0  0
 24 37  1  0  0  0  0
 24 23  1  0  0  0  0
 25  3  1  0  0  0  0
 26  5  1  0  0  0  0
 29 12  1  0  0  0  0
 32 16  1  0  0  0  0
 33 22  1  0  0  0  0
M  END
>  <Pose>
1

>  <Score>
-8.06

$$$$
