
 OpenBabel03202210083D

 37 40  0  0  1  0  0  0  0  0999 V2000
   57.5100   97.1410   24.8020 B   0  0  0  0  0  0  0  0  0  0  0  0
   56.1530   95.8250   25.0530 C   0  0  0  0  0  0  0  0  0  0  0  0
   56.1790   94.6050   24.4260 C   0  0  0  0  0  0  0  0  0  0  0  0
   55.2030   93.6250   24.5930 C   0  0  0  0  0  0  0  0  0  0  0  0
   54.1690   93.9570   25.4540 C   0  0  0  0  0  0  0  0  0  0  0  0
   54.1320   95.1770   26.0860 C   0  0  0  0  0  0  0  0  0  0  0  0
   55.1180   96.1430   25.9080 C   0  0  0  0  0  0  0  0  0  0  0  0
   55.2690   92.3810   23.9260 N   0  0  0  0  0  0  0  0  0  0  0  0
   55.0360   92.0760   22.5360 C   0  0  0  0  0  0  0  0  0  0  0  0
   54.3600   92.8100   21.7610 O   0  0  0  0  0  0  0  0  0  0  0  0
   55.6990   90.8160   22.2040 C   0  0  2  0  0  0  0  0  0  0  0  0
   55.0840   89.9800   21.3140 O   0  0  0  0  0  0  0  0  0  0  0  0
   55.4340   88.7230   21.8010 N   0  0  0  0  0  0  0  0  0  0  0  0
   55.3850   88.7700   23.2070 C   0  0  0  0  0  0  0  0  0  0  0  0
   55.5410   90.0680   23.5060 C   0  0  0  0  0  0  0  0  0  0  0  0
   55.5860   91.1120   24.5230 C   0  0  0  0  0  0  0  0  0  0  0  0
   55.8560   90.9310   25.7290 O   0  0  0  0  0  0  0  0  0  0  0  0
   55.2560   87.6800   24.1620 C   0  0  0  0  0  0  0  0  0  0  0  0
   56.1450   86.6070   24.2670 C   0  0  0  0  0  0  0  0  0  0  0  0
   55.7400   85.8250   25.2480 N   0  0  0  0  0  0  0  0  0  0  0  0
   54.6350   86.3490   25.7740 N   0  0  0  0  0  0  0  0  0  0  0  0
   54.3220   87.4640   25.1370 C   0  0  0  0  0  0  0  0  0  0  0  0
   56.3710   84.5870   25.7000 C   0  0  0  0  0  0  0  0  0  0  0  0
   57.3270   86.3640   23.4060 C   0  0  0  0  0  0  0  0  0  0  0  0
   56.9860   94.3460   23.7480 H   0  0  0  0  0  0  0  0  0  0  0  0
   53.3840   93.2250   25.6140 H   0  0  0  0  0  0  0  0  0  0  0  0
   53.3250   95.4680   26.7720 H   0  0  0  0  0  0  0  0  0  0  0  0
   55.0770   97.0960   26.4070 H   0  0  0  0  0  0  0  0  0  0  0  0
   56.7790   90.9640   21.9770 H   0  0  0  0  0  0  0  0  0  0  0  0
   55.6840   87.9040   21.2330 H   0  0  0  0  0  0  0  0  0  0  0  0
   53.4820   88.1020   25.3410 H   0  0  0  0  0  0  0  0  0  0  0  0
   56.5580   84.6420   26.8030 H   0  0  0  0  0  0  0  0  0  0  0  0
   55.7790   83.6890   25.4540 H   0  0  0  0  0  0  0  0  0  0  0  0
   57.3660   84.4960   25.1990 H   0  0  0  0  0  0  0  0  0  0  0  0
   57.3290   87.0460   22.5220 H   0  0  0  0  0  0  0  0  0  0  0  0
   58.2250   86.4620   24.0390 H   0  0  0  0  0  0  0  0  0  0  0  0
   57.2470   85.3180   23.0600 H   0  0  0  0  0  0  0  0  0  0  0  0
  1  2  1  0  0  0  0
  2  7  1  0  0  0  0
  3  4  1  0  0  0  0
  3  2  2  0  0  0  0
  4  5  2  0  0  0  0
  5 26  1  0  0  0  0
  5  6  1  0  0  0  0
  6 27  1  0  0  0  0
  7  6  2  0  0  0  0
  7 28  1  0  0  0  0
  8 16  1  0  0  0  0
  8  4  1  0  0  0  0
  9  8  1  0  0  0  0
 10  9  2  0  0  0  0
 11 29  1  6  0  0  0
 11  9  1  0  0  0  0
 11 15  1  0  0  0  0
 12 13  1  0  0  0  0
 12 11  1  0  0  0  0
 13 14  1  0  0  0  0
 14 15  2  0  0  0  0
 14 18  1  0  0  0  0
 15 16  1  0  0  0  0
 16 17  2  0  0  0  0
 18 19  2  0  0  0  0
 18 22  1  0  0  0  0
 19 20  1  0  0  0  0
 20 23  1  0  0  0  0
 20 21  1  0  0  0  0
 22 31  1  0  0  0  0
 22 21  2  0  0  0  0
 23 32  1  0  0  0  0
 24 36  1  0  0  0  0
 24 19  1  0  0  0  0
 25  3  1  0  0  0  0
 30 13  1  0  0  0  0
 33 23  1  0  0  0  0
 34 23  1  0  0  0  0
 35 24  1  0  0  0  0
 37 24  1  0  0  0  0
M  END
>  <Pose>
1

>  <Score>
-6.68

$$$$
