
 OpenBabel03202210083D

 52 55  0  0  1  0  0  0  0  0999 V2000
   52.3910   81.1750   14.8090 B   0  0  0  0  0  0  0  0  0  0  0  0
   53.2520   81.3750   16.4780 C   0  0  0  0  0  0  0  0  0  0  0  0
   52.9090   82.4460   17.2950 C   0  0  0  0  0  0  0  0  0  0  0  0
   53.4950   82.6580   18.5300 C   0  0  0  0  0  0  0  0  0  0  0  0
   54.4470   81.7370   18.9080 C   0  0  0  0  0  0  0  0  0  0  0  0
   54.8340   80.6530   18.1480 C   0  0  0  0  0  0  0  0  0  0  0  0
   54.2240   80.4810   16.9250 C   0  0  0  0  0  0  0  0  0  0  0  0
   53.0970   83.7630   19.3170 N   0  0  0  0  0  0  0  0  0  0  0  0
   53.8800   84.9760   19.4980 C   0  0  0  0  0  0  0  0  0  0  0  0
   52.7320   85.9750   19.2400 C   0  0  1  0  0  0  0  0  0  0  0  0
   51.7960   85.4740   20.3460 C   0  0  0  0  0  0  0  0  0  0  0  0
   51.9280   84.0130   20.0890 C   0  0  0  0  0  0  0  0  0  0  0  0
   51.1310   83.1360   20.4920 O   0  0  0  0  0  0  0  0  0  0  0  0
   53.1530   87.3520   19.4010 C   0  0  0  0  0  0  0  0  0  0  0  0
   53.7010   87.6850   20.4820 O   0  0  0  0  0  0  0  0  0  0  0  0
   52.9440   88.2790   18.3580 N   0  0  0  0  0  0  0  0  0  0  0  0
   53.9850   89.1650   17.8550 C   0  0  0  0  0  0  0  0  0  0  0  0
   53.3310   90.4230   17.2980 C   0  0  0  0  0  0  0  0  0  0  0  0
   52.0610   90.7220   17.9280 N   0  0  0  0  0  0  0  0  0  0  0  0
   51.1110   89.7320   17.5590 C   0  0  0  0  0  0  0  0  0  0  0  0
   51.6030   88.3390   17.7630 C   0  0  0  0  0  0  0  0  0  0  0  0
   52.1950   91.0130   19.3110 C   0  0  0  0  0  0  0  0  0  0  0  0
   53.1630   92.1280   19.6150 C   0  0  0  0  0  0  0  0  0  0  0  0
   54.2610   91.7380   20.4510 N   0  0  0  0  0  0  0  0  0  0  0  0
   55.2100   90.8320   20.2080 C   0  0  0  0  0  0  0  0  0  0  0  0
   56.0510   90.7660   21.2620 N   0  0  0  0  0  0  0  0  0  0  0  0
   55.6330   91.6410   22.1850 C   0  0  0  0  0  0  0  0  0  0  0  0
   54.5110   92.2440   21.6670 C   0  0  0  0  0  0  0  0  0  0  0  0
   52.1610   83.1480   16.9690 H   0  0  0  0  0  0  0  0  0  0  0  0
   54.9270   81.8690   19.8640 H   0  0  0  0  0  0  0  0  0  0  0  0
   55.5830   79.9370   18.4590 H   0  0  0  0  0  0  0  0  0  0  0  0
   54.4910   79.6420   16.2860 H   0  0  0  0  0  0  0  0  0  0  0  0
   54.6690   85.0920   18.7330 H   0  0  0  0  0  0  0  0  0  0  0  0
   54.2310   85.0400   20.5340 H   0  0  0  0  0  0  0  0  0  0  0  0
   52.3250   85.6890   18.2680 H   0  0  0  0  0  0  0  0  0  0  0  0
   52.1860   85.7770   21.3340 H   0  0  0  0  0  0  0  0  0  0  0  0
   50.7660   85.8330   20.1810 H   0  0  0  0  0  0  0  0  0  0  0  0
   54.5220   88.6090   17.0610 H   0  0  0  0  0  0  0  0  0  0  0  0
   54.7120   89.4820   18.5990 H   0  0  0  0  0  0  0  0  0  0  0  0
   53.1630   90.2670   16.2330 H   0  0  0  0  0  0  0  0  0  0  0  0
   53.9920   91.3110   17.3990 H   0  0  0  0  0  0  0  0  0  0  0  0
   50.1520   89.8930   18.1100 H   0  0  0  0  0  0  0  0  0  0  0  0
   50.8850   89.8980   16.4680 H   0  0  0  0  0  0  0  0  0  0  0  0
   50.8760   87.7800   18.3920 H   0  0  0  0  0  0  0  0  0  0  0  0
   51.6550   87.8250   16.7580 H   0  0  0  0  0  0  0  0  0  0  0  0
   51.2270   91.3170   19.7830 H   0  0  0  0  0  0  0  0  0  0  0  0
   52.5330   90.0960   19.8790 H   0  0  0  0  0  0  0  0  0  0  0  0
   53.5080   92.5970   18.6560 H   0  0  0  0  0  0  0  0  0  0  0  0
   52.5540   92.9410   20.1090 H   0  0  0  0  0  0  0  0  0  0  0  0
   55.3280   90.2300   19.3280 H   0  0  0  0  0  0  0  0  0  0  0  0
   56.1130   91.8160   23.1550 H   0  0  0  0  0  0  0  0  0  0  0  0
   53.9560   93.0080   22.2140 H   0  0  0  0  0  0  0  0  0  0  0  0
  1  2  1  0  0  0  0
  2  7  2  0  0  0  0
  2  3  1  0  0  0  0
  3  4  2  0  0  0  0
  4  5  1  0  0  0  0
  4  8  1  0  0  0  0
  5 30  1  0  0  0  0
  6 31  1  0  0  0  0
  6  5  2  0  0  0  0
  7  6  1  0  0  0  0
  8  9  1  0  0  0  0
  8 12  1  0  0  0  0
  9 34  1  0  0  0  0
 10 35  1  6  0  0  0
 10 14  1  0  0  0  0
 10  9  1  0  0  0  0
 10 11  1  0  0  0  0
 11 36  1  0  0  0  0
 12 11  1  0  0  0  0
 12 13  2  0  0  0  0
 14 15  2  0  0  0  0
 16 14  1  0  0  0  0
 17 16  1  0  0  0  0
 17 39  1  0  0  0  0
 18 41  1  0  0  0  0
 18 17  1  0  0  0  0
 18 19  1  0  0  0  0
 19 22  1  0  0  0  0
 20 21  1  0  0  0  0
 20 19  1  0  0  0  0
 20 42  1  0  0  0  0
 21 16  1  0  0  0  0
 21 44  1  0  0  0  0
 22 23  1  0  0  0  0
 22 46  1  0  0  0  0
 22 47  1  0  0  0  0
 23 49  1  0  0  0  0
 23 24  1  0  0  0  0
 24 28  1  0  0  0  0
 25 24  1  0  0  0  0
 25 26  2  0  0  0  0
 26 27  1  0  0  0  0
 27 51  1  0  0  0  0
 28 27  2  0  0  0  0
 28 52  1  0  0  0  0
 29  3  1  0  0  0  0
 32  7  1  0  0  0  0
 33  9  1  0  0  0  0
 37 11  1  0  0  0  0
 38 17  1  0  0  0  0
 40 18  1  0  0  0  0
 43 20  1  0  0  0  0
 45 21  1  0  0  0  0
 48 23  1  0  0  0  0
 50 25  1  0  0  0  0
M  END
>  <Pose>
1

>  <Score>
-6.38

$$$$
