
 OpenBabel03202210083D

 45 48  0  0  1  0  0  0  0  0999 V2000
   57.5230   97.3440   25.3040 B   0  0  0  0  0  0  0  0  0  0  0  0
   55.9460   96.2970   25.5580 C   0  0  0  0  0  0  0  0  0  0  0  0
   55.6520   95.2240   24.7610 C   0  0  0  0  0  0  0  0  0  0  0  0
   54.4990   94.4360   24.9250 C   0  0  0  0  0  0  0  0  0  0  0  0
   53.6590   94.8350   25.9840 C   0  0  0  0  0  0  0  0  0  0  0  0
   53.9510   95.9110   26.7860 C   0  0  0  0  0  0  0  0  0  0  0  0
   55.1000   96.6470   26.5750 C   0  0  0  0  0  0  0  0  0  0  0  0
   54.2810   93.4430   24.1440 O   0  0  0  0  0  0  0  0  0  0  0  0
   54.1020   92.4930   23.2850 C   0  0  0  0  0  0  0  0  0  0  0  0
   55.4240   91.8080   22.9040 C   0  0  0  0  0  0  0  0  0  0  0  0
   55.3990   90.4270   23.2800 N   0  0  0  0  0  0  0  0  0  0  0  0
   55.8140   89.3840   22.4070 C   0  0  0  0  0  0  0  0  0  0  0  0
   57.0580   89.0870   22.4740 O   0  0  0  0  0  0  0  0  0  0  0  0
   54.9310   88.6590   21.4710 C   0  0  0  0  0  0  0  0  0  0  0  0
   54.3710   89.4700   20.4240 N   0  0  0  0  0  0  0  0  0  0  0  0
   53.1610   89.1030   19.7400 C   0  0  0  0  0  0  0  0  0  0  0  0
   52.6050   87.9760   19.7090 O   0  0  0  0  0  0  0  0  0  0  0  0
   52.6580   90.2950   19.0580 C   0  0  1  0  0  0  0  0  0  0  0  0
   53.6430   91.4400   19.3720 C   0  0  2  0  0  0  0  0  0  0  0  0
   53.9840   92.0630   18.0650 C   0  0  2  0  0  0  0  0  0  0  0  0
   52.7000   91.7700   17.2610 C   0  0  0  0  0  0  0  0  0  0  0  0
   52.7590   90.2580   17.5580 C   0  0  1  0  0  0  0  0  0  0  0  0
   54.1950   90.0150   17.1910 C   0  0  0  0  0  0  0  0  0  0  0  0
   54.8950   91.1330   17.3520 C   0  0  0  0  0  0  0  0  0  0  0  0
   54.8340   90.7160   19.8880 C   0  0  0  0  0  0  0  0  0  0  0  0
   56.0200   91.0900   19.8710 O   0  0  0  0  0  0  0  0  0  0  0  0
   56.3270   94.9420   23.9480 H   0  0  0  0  0  0  0  0  0  0  0  0
   52.7760   94.2410   26.1190 H   0  0  0  0  0  0  0  0  0  0  0  0
   53.3030   96.2080   27.5930 H   0  0  0  0  0  0  0  0  0  0  0  0
   55.3150   97.4880   27.2120 H   0  0  0  0  0  0  0  0  0  0  0  0
   53.4800   91.6440   23.7420 H   0  0  0  0  0  0  0  0  0  0  0  0
   53.5550   92.7450   22.3190 H   0  0  0  0  0  0  0  0  0  0  0  0
   55.6510   91.9700   21.8360 H   0  0  0  0  0  0  0  0  0  0  0  0
   56.2050   92.3930   23.4740 H   0  0  0  0  0  0  0  0  0  0  0  0
   55.0620   90.1690   24.2320 H   0  0  0  0  0  0  0  0  0  0  0  0
   54.0700   88.2730   22.0960 H   0  0  0  0  0  0  0  0  0  0  0  0
   55.4540   87.7480   21.0500 H   0  0  0  0  0  0  0  0  0  0  0  0
   51.6220   90.5840   19.3570 H   0  0  0  0  0  0  0  0  0  0  0  0
   53.2170   92.1310   20.1190 H   0  0  0  0  0  0  0  0  0  0  0  0
   54.2650   93.0910   18.0620 H   0  0  0  0  0  0  0  0  0  0  0  0
   51.8230   92.2420   17.7010 H   0  0  0  0  0  0  0  0  0  0  0  0
   52.8490   91.9550   16.1900 H   0  0  0  0  0  0  0  0  0  0  0  0
   52.0370   89.6810   17.0320 H   0  0  0  0  0  0  0  0  0  0  0  0
   54.6450   89.0930   16.8420 H   0  0  0  0  0  0  0  0  0  0  0  0
   55.8990   91.4050   17.0660 H   0  0  0  0  0  0  0  0  0  0  0  0
  1  2  1  0  0  0  0
  2  7  1  0  0  0  0
  3  4  1  0  0  0  0
  3  2  2  0  0  0  0
  4  5  2  0  0  0  0
  5 28  1  0  0  0  0
  5  6  1  0  0  0  0
  6 29  1  0  0  0  0
  7  6  2  0  0  0  0
  7 30  1  0  0  0  0
  8  4  1  0  0  0  0
  9 31  1  0  0  0  0
  9  8  1  0  0  0  0
 10 11  1  0  0  0  0
 10  9  1  0  0  0  0
 10 34  1  0  0  0  0
 11 35  1  0  0  0  0
 12 13  2  0  0  0  0
 12 11  1  0  0  0  0
 14 36  1  0  0  0  0
 14 12  1  0  0  0  0
 15 14  1  0  0  0  0
 16 15  1  0  0  0  0
 17 16  2  0  0  0  0
 18 38  1  1  0  0  0
 18 19  1  0  0  0  0
 18 16  1  0  0  0  0
 19 25  1  0  0  0  0
 19 39  1  1  0  0  0
 20 40  1  1  0  0  0
 20 19  1  0  0  0  0
 21 22  1  0  0  0  0
 21 41  1  0  0  0  0
 21 20  1  0  0  0  0
 22 43  1  6  0  0  0
 22 18  1  0  0  0  0
 23 24  2  0  0  0  0
 23 22  1  0  0  0  0
 24 20  1  0  0  0  0
 25 15  1  0  0  0  0
 26 25  2  0  0  0  0
 27  3  1  0  0  0  0
 32  9  1  0  0  0  0
 33 10  1  0  0  0  0
 37 14  1  0  0  0  0
 42 21  1  0  0  0  0
 44 23  1  0  0  0  0
 45 24  1  0  0  0  0
M  END
>  <Pose>
1

>  <Score>
-6.63

$$$$
