
 OpenBabel03202210083D

 58 61  0  0  1  0  0  0  0  0999 V2000
   53.8650   84.0860   29.1450 B   0  0  0  0  0  0  0  0  0  0  0  0
   54.0370   84.5530   27.3140 C   0  0  0  0  0  0  0  0  0  0  0  0
   55.2820   84.5170   26.7340 C   0  0  0  0  0  0  0  0  0  0  0  0
   55.4210   84.8520   25.4120 C   0  0  0  0  0  0  0  0  0  0  0  0
   54.3250   85.2300   24.6280 C   0  0  0  0  0  0  0  0  0  0  0  0
   53.1040   85.2450   25.2700 C   0  0  0  0  0  0  0  0  0  0  0  0
   52.9250   84.9140   26.6000 C   0  0  0  0  0  0  0  0  0  0  0  0
   54.4980   85.5740   23.2280 C   0  0  0  0  0  0  0  0  0  0  0  0
   54.1610   84.7420   22.3600 O   0  0  0  0  0  0  0  0  0  0  0  0
   55.0540   86.8630   22.8600 C   0  0  2  0  0  0  0  0  0  0  0  0
   54.3460   87.5690   21.7300 C   0  0  1  0  0  0  0  0  0  0  0  0
   55.2910   88.6030   21.3770 N   0  0  0  0  0  0  0  0  0  0  0  0
   56.5860   88.0480   21.5830 C   0  0  0  0  0  0  0  0  0  0  0  0
   57.6870   88.5880   21.2530 O   0  0  0  0  0  0  0  0  0  0  0  0
   56.4260   86.7380   22.2440 C   0  0  0  0  0  0  0  0  0  0  0  0
   57.2370   85.7990   22.2650 O   0  0  0  0  0  0  0  0  0  0  0  0
   55.0620   89.9460   20.9050 C   0  0  0  0  0  0  0  0  0  0  0  0
   54.1500   90.0170   19.7180 C   0  0  0  0  0  0  0  0  0  0  0  0
   54.1010   91.2650   19.0600 N   0  0  0  0  0  4  0  0  0  0  0  0
   52.6960   91.6760   18.9700 C   0  0  0  0  0  0  0  0  0  0  0  0
   51.9170   90.8460   18.0030 C   0  0  0  0  0  0  0  0  0  0  0  0
   52.6800   90.0760   17.1590 O   0  0  0  0  0  0  0  0  0  0  0  0
   53.7520   90.7830   16.6720 C   0  0  0  0  0  0  0  0  0  0  0  0
   54.6500   91.3210   17.7530 C   0  0  0  0  0  0  0  0  0  0  0  0
   53.9610   86.7040   20.6250 C   0  0  0  0  0  0  0  0  0  0  0  0
   54.5720   85.4610   20.4070 C   0  0  0  0  0  0  0  0  0  0  0  0
   54.1990   84.6440   19.3590 C   0  0  0  0  0  0  0  0  0  0  0  0
   53.2010   85.0220   18.4800 C   0  0  0  0  0  0  0  0  0  0  0  0
   52.5860   86.2400   18.6770 C   0  0  0  0  0  0  0  0  0  0  0  0
   52.9730   87.0500   19.7340 C   0  0  0  0  0  0  0  0  0  0  0  0
   52.8060   84.2190   17.4180 O   0  0  0  0  0  0  0  0  0  0  0  0
   54.7980   83.4160   19.1380 O   0  0  0  0  0  0  0  0  0  0  0  0
   54.1190   82.1900   19.2360 C   0  0  0  0  0  0  0  0  0  0  0  0
   56.1210   84.2270   27.3400 H   0  0  0  0  0  0  0  0  0  0  0  0
   56.3760   84.8410   24.9090 H   0  0  0  0  0  0  0  0  0  0  0  0
   52.2070   85.5220   24.7330 H   0  0  0  0  0  0  0  0  0  0  0  0
   51.9700   84.9310   27.0810 H   0  0  0  0  0  0  0  0  0  0  0  0
   55.1760   87.5660   23.7110 H   0  0  0  0  0  0  0  0  0  0  0  0
   53.4150   87.9880   22.1710 H   0  0  0  0  0  0  0  0  0  0  0  0
   56.0610   90.3340   20.5690 H   0  0  0  0  0  0  0  0  0  0  0  0
   54.6990   90.6330   21.6700 H   0  0  0  0  0  0  0  0  0  0  0  0
   53.0940   89.7350   20.0030 H   0  0  0  0  0  0  0  0  0  0  0  0
   54.4700   89.2270   19.0080 H   0  0  0  0  0  0  0  0  0  0  0  0
   54.5610   92.0200   19.6410 H   0  0  0  0  0  0  0  0  0  0  0  0
   52.2270   91.7500   19.9690 H   0  0  0  0  0  0  0  0  0  0  0  0
   52.7220   92.7230   18.5600 H   0  0  0  0  0  0  0  0  0  0  0  0
   51.2690   90.1500   18.5910 H   0  0  0  0  0  0  0  0  0  0  0  0
   51.2520   91.4780   17.3480 H   0  0  0  0  0  0  0  0  0  0  0  0
   54.3180   90.1220   15.9520 H   0  0  0  0  0  0  0  0  0  0  0  0
   53.3370   91.5960   16.0160 H   0  0  0  0  0  0  0  0  0  0  0  0
   55.6400   90.8450   17.6350 H   0  0  0  0  0  0  0  0  0  0  0  0
   54.8190   92.4120   17.5080 H   0  0  0  0  0  0  0  0  0  0  0  0
   55.3580   85.1620   21.0980 H   0  0  0  0  0  0  0  0  0  0  0  0
   51.8080   86.5250   17.9830 H   0  0  0  0  0  0  0  0  0  0  0  0
   52.4690   87.9760   19.8440 H   0  0  0  0  0  0  0  0  0  0  0  0
   53.5360   82.1100   20.1920 H   0  0  0  0  0  0  0  0  0  0  0  0
   54.8770   81.3790   19.2890 H   0  0  0  0  0  0  0  0  0  0  0  0
   53.4560   81.9720   18.3920 H   0  0  0  0  0  0  0  0  0  0  0  0
  2  1  1  0  0  0  0
  3  2  1  0  0  0  0
  3 34  1  0  0  0  0
  4  3  2  0  0  0  0
  5  6  2  0  0  0  0
  5  4  1  0  0  0  0
  6  7  1  0  0  0  0
  7 37  1  0  0  0  0
  7  2  2  0  0  0  0
  8  5  1  0  0  0  0
  9  8  2  0  0  0  0
 10  8  1  0  0  0  0
 10 38  1  1  0  0  0
 11 39  1  1  0  0  0
 11 10  1  0  0  0  0
 12 13  1  0  0  0  0
 12 11  1  0  0  0  0
 13 15  1  0  0  0  0
 14 13  2  0  0  0  0
 15 16  2  0  0  0  0
 15 10  1  0  0  0  0
 17 12  1  0  0  0  0
 17 41  1  0  0  0  0
 18 42  1  0  0  0  0
 18 17  1  0  0  0  0
 19 44  1  0  0  0  0
 19 18  1  0  0  0  0
 20 19  1  0  0  0  0
 20 45  1  0  0  0  0
 21 47  1  0  0  0  0
 21 20  1  0  0  0  0
 22 21  1  0  0  0  0
 23 22  1  0  0  0  0
 23 24  1  0  0  0  0
 24 19  1  0  0  0  0
 25 11  1  0  0  0  0
 26 25  1  0  0  0  0
 26 53  1  0  0  0  0
 27 26  2  0  0  0  0
 28 29  2  0  0  0  0
 28 27  1  0  0  0  0
 29 30  1  0  0  0  0
 30 55  1  0  0  0  0
 30 25  2  0  0  0  0
 31 28  1  0  0  0  0
 32 33  1  0  0  0  0
 32 27  1  0  0  0  0
 33 57  1  0  0  0  0
 33 56  1  0  0  0  0
 35  4  1  0  0  0  0
 36  6  1  0  0  0  0
 40 17  1  0  0  0  0
 43 18  1  0  0  0  0
 46 20  1  0  0  0  0
 48 21  1  0  0  0  0
 49 23  1  0  0  0  0
 50 23  1  0  0  0  0
 51 24  1  0  0  0  0
 52 24  1  0  0  0  0
 54 29  1  0  0  0  0
 58 33  1  0  0  0  0
M  END
>  <Pose>
1

>  <Score>
-5.88

$$$$
