
 OpenBabel03202210083D

 41 45  0  0  1  0  0  0  0  0999 V2000
   55.4900   97.0100   27.3050 B   0  0  0  0  0  0  0  0  0  0  0  0
   55.2570   95.7420   25.8970 C   0  0  0  0  0  0  0  0  0  0  0  0
   56.2910   95.4270   25.0420 C   0  0  0  0  0  0  0  0  0  0  0  0
   56.1710   94.5200   24.0130 C   0  0  0  0  0  0  0  0  0  0  0  0
   54.9780   93.8790   23.7980 C   0  0  0  0  0  0  0  0  0  0  0  0
   53.9310   94.1870   24.6520 C   0  0  0  0  0  0  0  0  0  0  0  0
   54.0610   95.0950   25.6780 C   0  0  0  0  0  0  0  0  0  0  0  0
   54.7910   92.9210   22.7320 C   0  0  1  0  0  0  0  0  0  0  0  0
   53.7940   93.0760   21.9550 O   0  0  0  0  0  0  0  0  0  0  0  0
   55.6600   91.7680   22.4600 C   0  0  1  0  0  0  0  0  0  0  0  0
   55.2600   90.6060   23.2380 N   0  0  0  0  0  0  0  0  0  0  0  0
   54.3600   90.3260   24.2460 N   0  0  0  0  0  0  0  0  0  0  0  0
   54.1300   89.1390   24.6860 C   0  0  0  0  0  0  0  0  0  0  0  0
   54.8470   88.0170   24.1230 C   0  0  0  0  0  0  0  0  0  0  0  0
   55.7400   88.2070   23.1800 C   0  0  0  0  0  0  0  0  0  0  0  0
   56.0610   89.5260   22.6680 C   0  0  1  0  0  0  0  0  0  0  0  0
   55.8420   89.7410   21.2130 C   0  0  2  0  0  0  0  0  0  0  0  0
   55.4980   91.2270   21.0560 C   0  0  1  0  0  0  0  0  0  0  0  0
   54.1100   91.2220   20.6010 C   0  0  2  0  0  0  0  0  0  0  0  0
   53.3370   92.2190   20.5950 O   0  0  0  0  0  0  0  0  0  0  0  0
   53.7730   89.9170   20.1700 N   0  0  0  0  0  0  0  0  0  0  0  0
   54.7180   88.9750   20.6610 C   0  0  0  0  0  0  0  0  0  0  0  0
   54.6190   87.7240   20.6310 O   0  0  0  0  0  0  0  0  0  0  0  0
   52.6390   89.5660   19.3480 C   0  0  0  0  0  0  0  0  0  0  0  0
   52.3750   90.5430   18.2430 C   0  0  0  0  0  0  0  0  0  0  0  0
   57.2630   95.9160   25.1770 H   0  0  0  0  0  0  0  0  0  0  0  0
   57.0130   94.2870   23.3510 H   0  0  0  0  0  0  0  0  0  0  0  0
   52.9610   93.6890   24.5050 H   0  0  0  0  0  0  0  0  0  0  0  0
   53.2210   95.3070   26.3200 H   0  0  0  0  0  0  0  0  0  0  0  0
   56.6990   92.0510   22.6110 H   0  0  0  0  0  0  0  0  0  0  0  0
   53.4010   88.9370   25.4850 H   0  0  0  0  0  0  0  0  0  0  0  0
   54.6260   87.0150   24.5010 H   0  0  0  0  0  0  0  0  0  0  0  0
   56.2590   87.3500   22.7650 H   0  0  0  0  0  0  0  0  0  0  0  0
   57.1220   89.7680   22.9690 H   0  0  0  0  0  0  0  0  0  0  0  0
   56.7460   89.4670   20.6250 H   0  0  0  0  0  0  0  0  0  0  0  0
   56.2150   91.6210   20.3280 H   0  0  0  0  0  0  0  0  0  0  0  0
   51.7030   89.4620   19.9430 H   0  0  0  0  0  0  0  0  0  0  0  0
   52.7890   88.5640   18.8640 H   0  0  0  0  0  0  0  0  0  0  0  0
   52.7180   91.5720   18.4890 H   0  0  0  0  0  0  0  0  0  0  0  0
   52.8190   90.1830   17.2820 H   0  0  0  0  0  0  0  0  0  0  0  0
   51.2730   90.6160   18.0470 H   0  0  0  0  0  0  0  0  0  0  0  0
  2  1  1  0  0  0  0
  3 26  1  0  0  0  0
  3  2  2  0  0  0  0
  4  3  1  0  0  0  0
  5  4  2  0  0  0  0
  5  6  1  0  0  0  0
  6  7  2  0  0  0  0
  7  2  1  0  0  0  0
  7 29  1  0  0  0  0
  8  5  1  6  0  0  0
  9  8  1  0  0  0  0
 10 30  1  1  0  0  0
 10  8  1  0  0  0  0
 10 11  1  0  0  0  0
 11 12  1  0  0  0  0
 12 13  2  0  0  0  0
 13 31  1  0  0  0  0
 14 32  1  0  0  0  0
 14 13  1  0  0  0  0
 15 14  2  0  0  0  0
 16 34  1  1  0  0  0
 16 15  1  0  0  0  0
 16 11  1  0  0  0  0
 17 35  1  6  0  0  0
 17 16  1  0  0  0  0
 18 36  1  6  0  0  0
 18 17  1  0  0  0  0
 18 10  1  0  0  0  0
 19 20  1  1  0  0  0
 19 18  1  0  0  0  0
 20  9  1  0  0  0  0
 21 19  1  0  0  0  0
 21 22  1  0  0  0  0
 22 17  1  0  0  0  0
 23 22  2  0  0  0  0
 24 37  1  0  0  0  0
 24 21  1  0  0  0  0
 25 39  1  0  0  0  0
 25 24  1  0  0  0  0
 27  4  1  0  0  0  0
 28  6  1  0  0  0  0
 33 15  1  0  0  0  0
 38 24  1  0  0  0  0
 40 25  1  0  0  0  0
 41 25  1  0  0  0  0
M  END
>  <Pose>
1

>  <Score>
-5.56

$$$$
