
 OpenBabel03202210083D

 42 45  0  0  1  0  0  0  0  0999 V2000
   50.6800   82.6910   22.3060 B   0  0  0  0  0  0  0  0  0  0  0  0
   52.1240   83.9230   22.3100 C   0  0  0  0  0  0  0  0  0  0  0  0
   52.6710   84.3360   23.5120 C   0  0  0  0  0  0  0  0  0  0  0  0
   53.7190   85.2280   23.5710 C   0  0  0  0  0  0  0  0  0  0  0  0
   54.2650   85.7430   22.4170 C   0  0  0  0  0  0  0  0  0  0  0  0
   53.7320   85.3410   21.2300 C   0  0  0  0  0  0  0  0  0  0  0  0
   52.6720   84.4400   21.1510 C   0  0  0  0  0  0  0  0  0  0  0  0
   55.3880   86.6970   22.5170 C   0  0  0  0  0  0  0  0  0  0  0  0
   56.5560   86.2560   22.5520 O   0  0  0  0  0  0  0  0  0  0  0  0
   55.1630   88.0960   22.5730 N   0  0  0  0  0  0  0  0  0  0  0  0
   56.1510   88.9910   22.0680 C   0  0  2  0  0  0  0  0  0  0  0  0
   55.8100   90.4460   22.2880 C   0  0  0  0  0  0  0  0  0  0  0  0
   54.9490   90.7530   21.1600 N   0  0  0  0  0  0  0  0  0  0  0  0
   55.2660   89.8580   20.0650 C   0  0  1  0  0  0  0  0  0  0  0  0
   56.2150   88.8240   20.5690 C   0  0  0  0  0  0  0  0  0  0  0  0
   53.9770   89.2870   19.5980 C   0  0  0  0  0  0  0  0  0  0  0  0
   53.8040   88.0700   19.3580 O   0  0  0  0  0  0  0  0  0  0  0  0
   52.8640   90.1410   19.4040 N   0  0  0  0  0  0  0  0  0  0  0  0
   52.7040   91.3850   20.1280 C   0  0  2  0  0  0  0  0  0  0  0  0
   52.4310   92.3320   19.0030 C   0  0  0  0  0  0  0  0  0  0  0  0
   51.4970   91.4970   18.1200 C   0  0  0  0  0  0  0  0  0  0  0  0
   51.7200   90.0410   18.5420 C   0  0  0  0  0  0  0  0  0  0  0  0
   53.9160   91.7020   20.9230 C   0  0  0  0  0  0  0  0  0  0  0  0
   54.0580   92.8690   21.4260 O   0  0  0  0  0  0  0  0  0  0  0  0
   52.2810   83.9630   24.4440 H   0  0  0  0  0  0  0  0  0  0  0  0
   54.1450   85.5500   24.5300 H   0  0  0  0  0  0  0  0  0  0  0  0
   54.1110   85.7030   20.3100 H   0  0  0  0  0  0  0  0  0  0  0  0
   52.2590   84.1290   20.2010 H   0  0  0  0  0  0  0  0  0  0  0  0
   54.2840   88.5060   22.9770 H   0  0  0  0  0  0  0  0  0  0  0  0
   57.1340   88.7340   22.5070 H   0  0  0  0  0  0  0  0  0  0  0  0
   56.7410   91.0300   22.2440 H   0  0  0  0  0  0  0  0  0  0  0  0
   55.3430   90.5930   23.2570 H   0  0  0  0  0  0  0  0  0  0  0  0
   55.7070   90.4080   19.1930 H   0  0  0  0  0  0  0  0  0  0  0  0
   56.0220   87.8040   20.2380 H   0  0  0  0  0  0  0  0  0  0  0  0
   57.2650   89.0940   20.2670 H   0  0  0  0  0  0  0  0  0  0  0  0
   51.8220   91.3640   20.8020 H   0  0  0  0  0  0  0  0  0  0  0  0
   51.9270   93.2310   19.3770 H   0  0  0  0  0  0  0  0  0  0  0  0
   53.3740   92.5820   18.4460 H   0  0  0  0  0  0  0  0  0  0  0  0
   51.7310   91.6480   17.0470 H   0  0  0  0  0  0  0  0  0  0  0  0
   50.4420   91.7320   18.3170 H   0  0  0  0  0  0  0  0  0  0  0  0
   50.8320   89.6430   19.0700 H   0  0  0  0  0  0  0  0  0  0  0  0
   51.8950   89.4080   17.6510 H   0  0  0  0  0  0  0  0  0  0  0  0
  1  2  1  0  0  0  0
  2  3  1  0  0  0  0
  3  4  2  0  0  0  0
  3 25  1  0  0  0  0
  4 26  1  0  0  0  0
  5  8  1  0  0  0  0
  5  4  1  0  0  0  0
  6  5  2  0  0  0  0
  7  6  1  0  0  0  0
  7  2  2  0  0  0  0
  8  9  2  0  0  0  0
  8 10  1  0  0  0  0
 10 29  1  0  0  0  0
 11 12  1  0  0  0  0
 11 30  1  1  0  0  0
 11 10  1  0  0  0  0
 12 32  1  0  0  0  0
 13 12  1  0  0  0  0
 14 33  1  6  0  0  0
 14 15  1  0  0  0  0
 14 13  1  0  0  0  0
 15 11  1  0  0  0  0
 16 14  1  0  0  0  0
 17 16  2  0  0  0  0
 18 16  1  0  0  0  0
 18 19  1  0  0  0  0
 19 36  1  1  0  0  0
 19 23  1  0  0  0  0
 20 37  1  0  0  0  0
 20 19  1  0  0  0  0
 21 40  1  0  0  0  0
 21 22  1  0  0  0  0
 21 20  1  0  0  0  0
 22 41  1  0  0  0  0
 22 18  1  0  0  0  0
 23 13  1  0  0  0  0
 23 24  2  0  0  0  0
 27  6  1  0  0  0  0
 28  7  1  0  0  0  0
 31 12  1  0  0  0  0
 34 15  1  0  0  0  0
 35 15  1  0  0  0  0
 38 20  1  0  0  0  0
 39 21  1  0  0  0  0
 42 22  1  0  0  0  0
M  END
>  <Pose>
1

>  <Score>
-5.82

$$$$
