
 OpenBabel03202210083D

 35 38  0  0  1  0  0  0  0  0999 V2000
   58.7570   87.5670   25.5360 B   0  0  0  0  0  0  0  0  0  0  0  0
   57.4500   87.3680   24.1550 C   0  0  0  0  0  0  0  0  0  0  0  0
   57.7810   86.7280   22.9960 C   0  0  0  0  0  0  0  0  0  0  0  0
   56.8500   86.5720   21.9900 C   0  0  0  0  0  0  0  0  0  0  0  0
   55.5550   87.0620   22.1300 C   0  0  0  0  0  0  0  0  0  0  0  0
   55.2390   87.7050   23.3050 C   0  0  0  0  0  0  0  0  0  0  0  0
   56.1560   87.8650   24.3110 C   0  0  0  0  0  0  0  0  0  0  0  0
   54.6130   86.8640   21.0550 C   0  0  0  0  0  0  0  0  0  0  0  0
   54.7000   85.7850   20.3840 O   0  0  0  0  0  0  0  0  0  0  0  0
   53.6360   87.8400   20.7670 N   0  0  0  0  0  0  0  0  0  0  0  0
   53.9070   88.9230   19.8910 N   0  0  0  0  0  0  0  0  0  0  0  0
   53.7290   89.0020   18.4810 C   0  0  0  0  0  0  0  0  0  0  0  0
   53.4250   87.9730   17.7880 O   0  0  0  0  0  0  0  0  0  0  0  0
   53.9460   90.3930   18.0040 C   0  0  2  0  0  0  0  0  0  0  0  0
   54.1070   91.1500   19.3080 C   0  0  1  0  0  0  0  0  0  0  0  0
   52.7170   91.7270   19.4720 C   0  0  1  0  0  0  0  0  0  0  0  0
   52.5900   92.3330   18.0590 C   0  0  0  0  0  0  0  0  0  0  0  0
   52.7010   90.9560   17.3790 C   0  0  2  0  0  0  0  0  0  0  0  0
   51.5480   90.2910   18.0830 C   0  0  0  0  0  0  0  0  0  0  0  0
   51.6780   90.6670   19.3490 C   0  0  0  0  0  0  0  0  0  0  0  0
   54.4290   90.1550   20.3460 C   0  0  0  0  0  0  0  0  0  0  0  0
   55.0440   90.3840   21.4100 O   0  0  0  0  0  0  0  0  0  0  0  0
   58.7640   86.3390   22.8560 H   0  0  0  0  0  0  0  0  0  0  0  0
   57.1590   86.0620   21.0850 H   0  0  0  0  0  0  0  0  0  0  0  0
   54.2230   88.0980   23.4340 H   0  0  0  0  0  0  0  0  0  0  0  0
   55.9290   88.3690   25.2420 H   0  0  0  0  0  0  0  0  0  0  0  0
   52.6980   87.7800   21.2030 H   0  0  0  0  0  0  0  0  0  0  0  0
   54.8340   90.4680   17.3490 H   0  0  0  0  0  0  0  0  0  0  0  0
   54.8370   91.9470   19.1940 H   0  0  0  0  0  0  0  0  0  0  0  0
   52.5920   92.4370   20.2540 H   0  0  0  0  0  0  0  0  0  0  0  0
   51.6010   92.7830   17.9210 H   0  0  0  0  0  0  0  0  0  0  0  0
   53.4360   92.9780   17.8390 H   0  0  0  0  0  0  0  0  0  0  0  0
   52.6410   90.9860   16.3210 H   0  0  0  0  0  0  0  0  0  0  0  0
   50.8370   89.6690   17.5780 H   0  0  0  0  0  0  0  0  0  0  0  0
   51.1030   90.2530   20.1620 H   0  0  0  0  0  0  0  0  0  0  0  0
  2  7  1  0  0  0  0
  2  1  1  0  0  0  0
  3  2  2  0  0  0  0
  4  5  2  0  0  0  0
  4  3  1  0  0  0  0
  5  6  1  0  0  0  0
  6 25  1  0  0  0  0
  6  7  2  0  0  0  0
  7 26  1  0  0  0  0
  8  5  1  0  0  0  0
  9  8  2  0  0  0  0
 10  8  1  0  0  0  0
 10 27  1  0  0  0  0
 11 21  1  0  0  0  0
 11 10  1  0  0  0  0
 12 11  1  0  0  0  0
 13 12  2  0  0  0  0
 14 28  1  6  0  0  0
 14 12  1  0  0  0  0
 14 15  1  0  0  0  0
 15 29  1  6  0  0  0
 15 16  1  0  0  0  0
 15 21  1  0  0  0  0
 16 30  1  1  0  0  0
 17 16  1  0  0  0  0
 18 33  1  6  0  0  0
 18 14  1  0  0  0  0
 18 17  1  0  0  0  0
 18 19  1  0  0  0  0
 19 20  2  0  0  0  0
 20 16  1  0  0  0  0
 20 35  1  0  0  0  0
 21 22  2  0  0  0  0
 23  3  1  0  0  0  0
 24  4  1  0  0  0  0
 31 17  1  0  0  0  0
 32 17  1  0  0  0  0
 34 19  1  0  0  0  0
M  END
>  <Pose>
1

>  <Score>
-5.83

$$$$
