
 OpenBabel03202210083D

 48 51  0  0  1  0  0  0  0  0999 V2000
   54.7580   90.1650   18.8260 B   0  0  0  0  0  0  0  0  0  0  0  0
   54.8690   91.0650   20.5120 C   0  0  0  0  0  0  0  0  0  0  0  0
   55.5510   90.4700   21.5490 C   0  0  0  0  0  0  0  0  0  0  0  0
   55.6260   91.1190   22.7530 C   0  0  0  0  0  0  0  0  0  0  0  0
   55.0280   92.3430   22.9170 C   0  0  0  0  0  0  0  0  0  0  0  0
   54.3550   92.9060   21.8590 C   0  0  0  0  0  0  0  0  0  0  0  0
   54.2510   92.2880   20.6230 C   0  0  0  0  0  0  0  0  0  0  0  0
   55.1080   93.0560   24.2470 C   0  0  1  0  0  0  0  0  0  0  0  0
   55.5970   92.1450   25.1640 O   0  0  0  0  0  0  0  0  0  0  0  0
   55.9230   94.3080   24.1280 C   0  0  0  0  0  0  0  0  0  0  0  0
   55.7000   95.2370   25.1970 N   0  0  0  0  0  0  0  0  0  0  0  0
   56.4810   96.3290   25.3740 C   0  0  0  0  0  0  0  0  0  0  0  0
   55.9820   96.9850   26.4880 C   0  0  0  0  0  0  0  0  0  0  0  0
   56.5930   98.1550   26.8990 C   0  0  0  0  0  0  0  0  0  0  0  0
   57.6970   98.6900   26.2230 C   0  0  0  0  0  0  0  0  0  0  0  0
   58.1600   97.9970   25.1130 C   0  0  0  0  0  0  0  0  0  0  0  0
   57.5720   96.8330   24.6830 C   0  0  0  0  0  0  0  0  0  0  0  0
   54.9090   96.3020   26.9890 N   0  0  0  0  0  0  0  0  0  0  0  0
   54.7650   95.2300   26.1650 C   0  0  1  0  0  0  0  0  0  0  0  0
   53.8410   94.3410   26.3190 N   0  0  0  0  0  0  0  0  0  0  0  0
   54.1720   96.7050   28.1480 C   0  0  0  0  0  0  0  0  0  0  0  0
   53.0140   97.6130   27.8400 C   0  0  0  0  0  0  0  0  0  0  0  0
   53.2680   98.8680   27.3140 C   0  0  0  0  0  0  0  0  0  0  0  0
   52.2590   99.7580   27.0030 C   0  0  0  0  0  0  0  0  0  0  0  0
   50.9670   99.3560   27.2330 C   0  0  0  0  0  0  0  0  0  0  0  0
   50.6870   98.1200   27.7540 C   0  0  0  0  0  0  0  0  0  0  0  0
   51.7100   97.2610   28.0520 C   0  0  0  0  0  0  0  0  0  0  0  0
   56.0310   89.4800   21.4050 H   0  0  0  0  0  0  0  0  0  0  0  0
   56.1600   90.6630   23.5780 H   0  0  0  0  0  0  0  0  0  0  0  0
   53.8650   93.8890   21.9750 H   0  0  0  0  0  0  0  0  0  0  0  0
   53.7120   92.7480   19.7880 H   0  0  0  0  0  0  0  0  0  0  0  0
   54.0510   93.2690   24.5540 H   0  0  0  0  0  0  0  0  0  0  0  0
   56.3190   91.5860   24.8160 H   0  0  0  0  0  0  0  0  0  0  0  0
   57.0020   93.9830   24.2180 H   0  0  0  0  0  0  0  0  0  0  0  0
   55.8490   94.7870   23.1440 H   0  0  0  0  0  0  0  0  0  0  0  0
   56.1900   98.6660   27.7610 H   0  0  0  0  0  0  0  0  0  0  0  0
   58.1350   99.5950   26.5780 H   0  0  0  0  0  0  0  0  0  0  0  0
   59.0150   98.3970   24.5780 H   0  0  0  0  0  0  0  0  0  0  0  0
   57.9610   96.3220   23.8170 H   0  0  0  0  0  0  0  0  0  0  0  0
   53.7920   93.5280   25.6330 H   0  0  0  0  0  0  0  0  0  0  0  0
   53.1220   94.3270   27.0450 H   0  0  0  0  0  0  0  0  0  0  0  0
   54.8180   97.2540   28.8720 H   0  0  0  0  0  0  0  0  0  0  0  0
   53.7550   95.8020   28.6410 H   0  0  0  0  0  0  0  0  0  0  0  0
   54.2930   99.2260   27.1210 H   0  0  0  0  0  0  0  0  0  0  0  0
   52.4770  100.7500   26.5850 H   0  0  0  0  0  0  0  0  0  0  0  0
   50.1340  100.0210   27.0050 H   0  0  0  0  0  0  0  0  0  0  0  0
   49.6310   97.8420   27.9220 H   0  0  0  0  0  0  0  0  0  0  0  0
   51.4720   96.3070   28.4580 H   0  0  0  0  0  0  0  0  0  0  0  0
  1  2  1  0  0  0  0
  2  7  2  0  0  0  0
  2  3  1  0  0  0  0
  3  4  2  0  0  0  0
  4  5  1  0  0  0  0
  4 29  1  0  0  0  0
  5  8  1  0  0  0  0
  6 30  1  0  0  0  0
  6  5  2  0  0  0  0
  7  6  1  0  0  0  0
  8 32  1  1  0  0  0
  8  9  1  0  0  0  0
 10 34  1  0  0  0  0
 10  8  1  0  0  0  0
 10 11  1  0  0  0  0
 11 12  1  0  0  0  0
 11 19  1  0  0  0  0
 12 13  1  0  0  0  0
 13 14  2  0  0  0  0
 13 18  1  0  0  0  0
 14 36  1  0  0  0  0
 15 37  1  0  0  0  0
 15 14  1  0  0  0  0
 16 15  2  0  0  0  0
 17 16  1  0  0  0  0
 17 12  2  0  0  0  0
 18 21  1  0  0  0  0
 19 20  1  6  0  0  0
 19 18  1  0  0  0  0
 20 41  1  0  0  0  0
 21 43  1  0  0  0  0
 21 42  1  0  0  0  0
 22 27  1  0  0  0  0
 22 21  1  0  0  0  0
 23 22  2  0  0  0  0
 24 25  2  0  0  0  0
 24 23  1  0  0  0  0
 25 26  1  0  0  0  0
 26 47  1  0  0  0  0
 26 27  2  0  0  0  0
 27 48  1  0  0  0  0
 28  3  1  0  0  0  0
 31  7  1  0  0  0  0
 33  9  1  0  0  0  0
 35 10  1  0  0  0  0
 38 16  1  0  0  0  0
 39 17  1  0  0  0  0
 40 20  1  0  0  0  0
 44 23  1  0  0  0  0
 45 24  1  0  0  0  0
 46 25  1  0  0  0  0
M  END
>  <Pose>
1

>  <Score>
-7.39

$$$$
