
 OpenBabel03202210083D

 42 45  0  0  0  0  0  0  0  0999 V2000
   52.1550   87.1740   18.3590 B   0  0  0  0  0  0  0  0  0  0  0  0
   53.0930   88.5430   19.3010 C   0  0  0  0  0  0  0  0  0  0  0  0
   54.2140   88.2470   20.0620 C   0  0  0  0  0  0  0  0  0  0  0  0
   54.9090   89.2240   20.7540 C   0  0  0  0  0  0  0  0  0  0  0  0
   54.5030   90.5400   20.7050 C   0  0  0  0  0  0  0  0  0  0  0  0
   53.3880   90.8250   19.9450 C   0  0  0  0  0  0  0  0  0  0  0  0
   52.6870   89.8600   19.2510 C   0  0  0  0  0  0  0  0  0  0  0  0
   55.2190   91.5880   21.4240 C   0  0  0  0  0  0  0  0  0  0  0  0
   55.0490   91.8290   22.6650 N   0  0  0  0  0  0  0  0  0  0  0  0
   55.6980   92.8030   23.3910 N   0  0  0  0  0  0  0  0  0  0  0  0
   54.9430   93.7000   24.1850 C   0  0  0  0  0  0  0  0  0  0  0  0
   53.9690   94.2970   23.6740 O   0  0  0  0  0  0  0  0  0  0  0  0
   55.2910   93.9390   25.6100 C   0  0  0  0  0  0  0  0  0  0  0  0
   54.8150   95.2330   26.0590 N   0  0  0  0  0  0  0  0  0  0  0  0
   53.5860   95.3340   26.6500 N   0  0  0  0  0  0  0  0  0  0  0  0
   53.3590   96.6180   26.9590 C   0  0  0  0  0  0  0  0  0  0  0  0
   54.4430   97.2800   26.5570 N   0  0  0  0  0  0  0  0  0  0  0  0
   55.3660   96.4160   25.9900 C   0  0  0  0  0  0  0  0  0  0  0  0
   56.6370   96.8740   25.4690 C   0  0  0  0  0  0  0  0  0  0  0  0
   57.3770   96.1170   24.5640 N   0  0  0  0  0  0  0  0  0  0  0  0
   58.4410   96.7440   24.2500 O   0  0  0  0  0  0  0  0  0  0  0  0
   58.4890   97.8610   24.8610 N   0  0  0  0  0  0  0  0  0  0  0  0
   57.3700   97.9780   25.6390 C   0  0  0  0  0  0  0  0  0  0  0  0
   57.1590   99.1240   26.4140 N   0  0  0  0  0  0  0  0  0  0  0  0
   52.1780   97.1810   27.6010 C   0  0  0  0  0  0  0  0  0  0  0  0
   50.9680   96.6220   27.7010 N   0  0  0  0  0  0  0  0  0  0  0  0
   50.1630   97.4430   28.3520 O   0  0  0  0  0  0  0  0  0  0  0  0
   50.7980   98.5290   28.6890 N   0  0  0  0  0  0  0  0  0  0  0  0
   52.0800   98.3980   28.2280 C   0  0  0  0  0  0  0  0  0  0  0  0
   53.0840   99.3850   28.4010 N   0  0  0  0  0  0  0  0  0  0  0  0
   54.5420   87.2310   20.1110 H   0  0  0  0  0  0  0  0  0  0  0  0
   55.7930   88.9780   21.3530 H   0  0  0  0  0  0  0  0  0  0  0  0
   53.0820   91.8790   19.9190 H   0  0  0  0  0  0  0  0  0  0  0  0
   51.8010   90.1330   18.6570 H   0  0  0  0  0  0  0  0  0  0  0  0
   55.9300   92.1870   20.8770 H   0  0  0  0  0  0  0  0  0  0  0  0
   56.7600   92.8690   23.3490 H   0  0  0  0  0  0  0  0  0  0  0  0
   55.1870   93.1160   26.2930 H   0  0  0  0  0  0  0  0  0  0  0  0
   56.4520   94.0620   25.5880 H   0  0  0  0  0  0  0  0  0  0  0  0
   57.5380  100.0410   26.0840 H   0  0  0  0  0  0  0  0  0  0  0  0
   56.6320   99.1370   27.3130 H   0  0  0  0  0  0  0  0  0  0  0  0
   53.9800   99.1380   28.9090 H   0  0  0  0  0  0  0  0  0  0  0  0
   53.0020  100.3600   28.0560 H   0  0  0  0  0  0  0  0  0  0  0  0
  1  2  1  0  0  0  0
  2  3  1  0  0  0  0
  3 31  1  0  0  0  0
  3  4  2  0  0  0  0
  4 32  1  0  0  0  0
  5  4  1  0  0  0  0
  5  8  1  0  0  0  0
  6  5  2  0  0  0  0
  7  2  2  0  0  0  0
  7  6  1  0  0  0  0
  8  9  2  0  0  0  0
  9 10  1  0  0  0  0
 10 11  1  0  0  0  0
 11 13  1  0  0  0  0
 12 11  2  0  0  0  0
 13 14  1  0  0  0  0
 13 37  1  0  0  0  0
 14 15  1  0  0  0  0
 15 16  2  0  0  0  0
 16 25  1  0  0  0  0
 17 16  1  0  0  0  0
 18 14  1  0  0  0  0
 18 17  2  0  0  0  0
 19 23  1  0  0  0  0
 19 18  1  0  0  0  0
 20 19  2  0  0  0  0
 21 20  1  0  0  0  0
 21 22  1  0  0  0  0
 22 23  2  0  0  0  0
 23 24  1  0  0  0  0
 24 40  1  0  0  0  0
 25 26  2  0  0  0  0
 25 29  1  0  0  0  0
 26 27  1  0  0  0  0
 27 28  1  0  0  0  0
 29 30  1  0  0  0  0
 29 28  2  0  0  0  0
 30 41  1  0  0  0  0
 33  6  1  0  0  0  0
 34  7  1  0  0  0  0
 35  8  1  0  0  0  0
 36 10  1  0  0  0  0
 38 13  1  0  0  0  0
 39 24  1  0  0  0  0
 42 30  1  0  0  0  0
M  END
>  <Pose>
1

>  <Score>
-10.49

$$$$
