
 OpenBabel03202210083D

 50 54  0  0  1  0  0  0  0  0999 V2000
   54.4880   98.0330   26.9680 B   0  0  0  0  0  0  0  0  0  0  0  0
   54.7710   96.3510   26.1350 C   0  0  0  0  0  0  0  0  0  0  0  0
   53.7600   95.4100   26.1000 C   0  0  0  0  0  0  0  0  0  0  0  0
   53.9710   94.1770   25.4880 C   0  0  0  0  0  0  0  0  0  0  0  0
   55.1750   93.8530   24.9050 C   0  0  0  0  0  0  0  0  0  0  0  0
   56.1770   94.7970   24.9440 C   0  0  0  0  0  0  0  0  0  0  0  0
   55.9830   96.0390   25.5540 C   0  0  0  0  0  0  0  0  0  0  0  0
   55.3970   92.5610   24.2640 C   0  0  0  0  0  0  0  0  0  0  0  0
   55.2610   92.2770   22.9520 N   0  0  0  0  0  0  0  0  0  0  0  0
   55.5530   90.9720   22.7260 C   0  0  1  0  0  0  0  0  0  0  0  0
   55.8790   90.4040   23.9000 N   0  0  0  0  0  0  0  0  0  0  0  0
   55.7860   91.3700   24.8420 C   0  0  0  0  0  0  0  0  0  0  0  0
   56.1570   89.1150   23.6240 C   0  0  0  0  0  0  0  0  0  0  0  0
   56.0050   88.8750   22.2750 C   0  0  0  0  0  0  0  0  0  0  0  0
   56.2310   87.6220   21.7170 C   0  0  0  0  0  0  0  0  0  0  0  0
   56.6190   86.5780   22.5250 C   0  0  0  0  0  0  0  0  0  0  0  0
   56.7680   86.8270   23.8720 C   0  0  0  0  0  0  0  0  0  0  0  0
   56.5510   88.0590   24.4520 C   0  0  0  0  0  0  0  0  0  0  0  0
   55.6240   90.0640   21.7390 N   0  0  0  0  0  0  0  0  0  0  0  0
   55.3600   90.2310   20.3250 C   0  0  0  0  0  0  0  0  0  0  0  0
   54.2020   89.3710   19.8670 C   0  0  0  0  0  0  0  0  0  0  0  0
   53.2990   90.1390   19.0580 N   0  0  0  0  0  4  0  0  0  0  0  0
   53.8270   90.2900   17.7180 C   0  0  0  0  0  0  0  0  0  0  0  0
   53.7020   91.7020   17.1990 C   0  0  0  0  0  0  0  0  0  0  0  0
   52.3830   92.1280   17.3640 O   0  0  0  0  0  0  0  0  0  0  0  0
   51.9830   92.0910   18.6830 C   0  0  0  0  0  0  0  0  0  0  0  0
   53.0140   91.4450   19.5710 C   0  0  0  0  0  0  0  0  0  0  0  0
   52.8060   95.6570   26.5580 H   0  0  0  0  0  0  0  0  0  0  0  0
   53.1640   93.4750   25.4830 H   0  0  0  0  0  0  0  0  0  0  0  0
   57.1420   94.6020   24.5040 H   0  0  0  0  0  0  0  0  0  0  0  0
   56.7880   96.7760   25.5760 H   0  0  0  0  0  0  0  0  0  0  0  0
   54.9780   92.9430   22.2050 H   0  0  0  0  0  0  0  0  0  0  0  0
   55.9830   91.2410   25.8970 H   0  0  0  0  0  0  0  0  0  0  0  0
   56.0950   87.5010   20.6600 H   0  0  0  0  0  0  0  0  0  0  0  0
   56.8060   85.5710   22.1180 H   0  0  0  0  0  0  0  0  0  0  0  0
   57.0710   86.0170   24.5110 H   0  0  0  0  0  0  0  0  0  0  0  0
   56.6620   88.2700   25.4880 H   0  0  0  0  0  0  0  0  0  0  0  0
   55.0940   91.2950   20.1180 H   0  0  0  0  0  0  0  0  0  0  0  0
   56.2810   90.0060   19.7530 H   0  0  0  0  0  0  0  0  0  0  0  0
   53.6490   88.9660   20.7150 H   0  0  0  0  0  0  0  0  0  0  0  0
   54.6230   88.5480   19.2580 H   0  0  0  0  0  0  0  0  0  0  0  0
   52.3810   89.6380   18.9580 H   0  0  0  0  0  0  0  0  0  0  0  0
   54.9120   89.9910   17.6850 H   0  0  0  0  0  0  0  0  0  0  0  0
   53.3110   89.6280   16.9880 H   0  0  0  0  0  0  0  0  0  0  0  0
   53.9260   91.6630   16.1130 H   0  0  0  0  0  0  0  0  0  0  0  0
   54.4350   92.3610   17.6940 H   0  0  0  0  0  0  0  0  0  0  0  0
   51.8640   93.1620   19.0100 H   0  0  0  0  0  0  0  0  0  0  0  0
   51.0070   91.5750   18.8250 H   0  0  0  0  0  0  0  0  0  0  0  0
   52.5210   91.3150   20.5760 H   0  0  0  0  0  0  0  0  0  0  0  0
   53.8910   92.1030   19.6420 H   0  0  0  0  0  0  0  0  0  0  0  0
  2  1  1  0  0  0  0
  3  2  1  0  0  0  0
  3 28  1  0  0  0  0
  4  3  2  0  0  0  0
  5  6  2  0  0  0  0
  5  4  1  0  0  0  0
  6  7  1  0  0  0  0
  7 31  1  0  0  0  0
  7  2  2  0  0  0  0
  8 12  2  0  0  0  0
  8  5  1  0  0  0  0
  9  8  1  0  0  0  0
 10 19  1  1  0  0  0
 10  9  1  0  0  0  0
 10 11  1  0  0  0  0
 11 12  1  0  0  0  0
 12 33  1  0  0  0  0
 13 11  1  0  0  0  0
 13 18  1  0  0  0  0
 14 13  2  0  0  0  0
 15 14  1  0  0  0  0
 15 16  2  0  0  0  0
 16 17  1  0  0  0  0
 17 18  2  0  0  0  0
 17 36  1  0  0  0  0
 18 37  1  0  0  0  0
 19 14  1  0  0  0  0
 20 19  1  0  0  0  0
 21 20  1  0  0  0  0
 21 40  1  0  0  0  0
 22 27  1  0  0  0  0
 22 21  1  0  0  0  0
 23 22  1  0  0  0  0
 24 25  1  0  0  0  0
 24 46  1  0  0  0  0
 24 23  1  0  0  0  0
 25 26  1  0  0  0  0
 26 48  1  0  0  0  0
 26 47  1  0  0  0  0
 26 27  1  0  0  0  0
 27 50  1  0  0  0  0
 27 49  1  0  0  0  0
 29  4  1  0  0  0  0
 30  6  1  0  0  0  0
 32  9  1  0  0  0  0
 34 15  1  0  0  0  0
 35 16  1  0  0  0  0
 38 20  1  0  0  0  0
 39 20  1  0  0  0  0
 41 21  1  0  0  0  0
 42 22  1  0  0  0  0
 43 23  1  0  0  0  0
 44 23  1  0  0  0  0
 45 24  1  0  0  0  0
M  END
>  <Pose>
1

>  <Score>
-6.76

$$$$
