
 OpenBabel03202210083D

 41 44  0  0  0  0  0  0  0  0999 V2000
   50.2980  101.2910   29.3430 B   0  0  0  0  0  0  0  0  0  0  0  0
   51.2570   99.8210   28.6330 C   0  0  0  0  0  0  0  0  0  0  0  0
   51.5630   99.7890   27.2880 C   0  0  0  0  0  0  0  0  0  0  0  0
   52.2520   98.7340   26.7760 C   0  0  0  0  0  0  0  0  0  0  0  0
   52.6720   97.6610   27.5650 C   0  0  0  0  0  0  0  0  0  0  0  0
   52.3340   97.7540   28.8900 C   0  0  0  0  0  0  0  0  0  0  0  0
   51.6420   98.7910   29.4630 C   0  0  0  0  0  0  0  0  0  0  0  0
   53.2530   96.5170   26.8880 C   0  0  0  0  0  0  0  0  0  0  0  0
   54.4000   96.2290   26.2870 N   0  0  0  0  0  0  0  0  0  0  0  0
   54.3920   94.9550   25.8240 C   0  0  0  0  0  0  0  0  0  0  0  0
   53.1880   94.4460   26.1470 N   0  0  0  0  0  0  0  0  0  0  0  0
   52.5000   95.3460   26.7700 N   0  0  0  0  0  0  0  0  0  0  0  0
   55.5370   94.6380   25.2080 N   0  0  0  0  0  0  0  0  0  0  0  0
   56.2890   95.7420   25.2750 C   0  0  0  0  0  0  0  0  0  0  0  0
   55.6030   96.7660   25.9430 C   0  0  0  0  0  0  0  0  0  0  0  0
   56.1420   97.9650   26.0930 N   0  0  0  0  0  0  0  0  0  0  0  0
   57.3970   98.1620   25.5830 C   0  0  0  0  0  0  0  0  0  0  0  0
   57.9450   99.2830   25.7080 O   0  0  0  0  0  0  0  0  0  0  0  0
   58.0810   97.2030   24.9480 N   0  0  0  0  0  0  0  0  0  0  0  0
   57.5490   95.9810   24.7780 C   0  0  0  0  0  0  0  0  0  0  0  0
   58.1610   95.0540   24.1860 O   0  0  0  0  0  0  0  0  0  0  0  0
   55.5100   99.1370   26.6410 C   0  0  0  0  0  0  0  0  0  0  0  0
   55.8910   93.3740   24.6040 C   0  0  0  0  0  0  0  0  0  0  0  0
   54.9100   92.9440   23.5350 C   0  0  0  0  0  0  0  0  0  0  0  0
   55.4480   93.0630   22.2590 O   0  0  0  0  0  0  0  0  0  0  0  0
   55.2660   91.8390   21.6150 C   0  0  0  0  0  0  0  0  0  0  0  0
   51.2620  100.5960   26.6290 H   0  0  0  0  0  0  0  0  0  0  0  0
   52.4840   98.7290   25.7090 H   0  0  0  0  0  0  0  0  0  0  0  0
   52.6110   96.9040   29.5440 H   0  0  0  0  0  0  0  0  0  0  0  0
   51.4170   98.7930   30.5040 H   0  0  0  0  0  0  0  0  0  0  0  0
   59.0360   97.3520   24.5630 H   0  0  0  0  0  0  0  0  0  0  0  0
   54.4750   99.2710   26.2890 H   0  0  0  0  0  0  0  0  0  0  0  0
   55.7080   99.3230   27.7050 H   0  0  0  0  0  0  0  0  0  0  0  0
   56.0090  100.0700   26.1560 H   0  0  0  0  0  0  0  0  0  0  0  0
   55.9640   92.5840   25.3400 H   0  0  0  0  0  0  0  0  0  0  0  0
   56.8860   93.5380   24.1310 H   0  0  0  0  0  0  0  0  0  0  0  0
   54.0120   93.6100   23.5870 H   0  0  0  0  0  0  0  0  0  0  0  0
   54.5800   91.9280   23.7510 H   0  0  0  0  0  0  0  0  0  0  0  0
   54.1740   91.6010   21.5550 H   0  0  0  0  0  0  0  0  0  0  0  0
   55.8170   91.0110   22.1050 H   0  0  0  0  0  0  0  0  0  0  0  0
   55.6500   91.8900   20.5590 H   0  0  0  0  0  0  0  0  0  0  0  0
  2  1  1  0  0  0  0
  2  7  1  0  0  0  0
  3  2  2  0  0  0  0
  4  3  1  0  0  0  0
  4  5  2  0  0  0  0
  5  6  1  0  0  0  0
  6  7  2  0  0  0  0
  6 29  1  0  0  0  0
  7 30  1  0  0  0  0
  8  5  1  0  0  0  0
  9  8  1  0  0  0  0
 10 11  2  0  0  0  0
 10  9  1  0  0  0  0
 11 12  1  0  0  0  0
 12  8  2  0  0  0  0
 13 14  1  0  0  0  0
 13 10  1  0  0  0  0
 14 15  2  0  0  0  0
 15 16  1  0  0  0  0
 15  9  1  0  0  0  0
 16 22  1  0  0  0  0
 17 18  2  0  0  0  0
 17 16  1  0  0  0  0
 19 17  1  0  0  0  0
 20 19  1  0  0  0  0
 20 14  1  0  0  0  0
 21 20  2  0  0  0  0
 22 33  1  0  0  0  0
 23 13  1  0  0  0  0
 23 35  1  0  0  0  0
 24 37  1  0  0  0  0
 24 38  1  0  0  0  0
 24 23  1  0  0  0  0
 25 24  1  0  0  0  0
 26 40  1  0  0  0  0
 26 25  1  0  0  0  0
 27  3  1  0  0  0  0
 28  4  1  0  0  0  0
 31 19  1  0  0  0  0
 32 22  1  0  0  0  0
 34 22  1  0  0  0  0
 36 23  1  0  0  0  0
 39 26  1  0  0  0  0
 41 26  1  0  0  0  0
M  END
>  <Pose>
1

>  <Score>
-7.50

$$$$
