
 OpenBabel03202210083D

 57 60  0  0  0  0  0  0  0  0999 V2000
   51.0440   79.6760   24.3980 B   0  0  0  0  0  0  0  0  0  0  0  0
   51.8910   81.3720   24.1480 C   0  0  0  0  0  0  0  0  0  0  0  0
   51.1900   82.3680   23.5340 C   0  0  0  0  0  0  0  0  0  0  0  0
   51.7890   83.5940   23.3450 C   0  0  0  0  0  0  0  0  0  0  0  0
   53.0900   83.8800   23.7510 C   0  0  0  0  0  0  0  0  0  0  0  0
   53.7720   82.8630   24.3660 C   0  0  0  0  0  0  0  0  0  0  0  0
   53.1830   81.6050   24.5710 C   0  0  0  0  0  0  0  0  0  0  0  0
   53.7190   85.1560   23.5400 C   0  0  0  0  0  0  0  0  0  0  0  0
   53.9060   85.6460   22.2690 C   0  0  0  0  0  0  0  0  0  0  0  0
   54.5010   86.7980   22.0260 O   0  0  0  0  0  0  0  0  0  0  0  0
   54.9560   87.5520   22.9930 C   0  0  0  0  0  0  0  0  0  0  0  0
   54.8020   87.1270   24.2640 C   0  0  0  0  0  0  0  0  0  0  0  0
   55.2740   87.8980   25.3040 C   0  0  0  0  0  0  0  0  0  0  0  0
   55.8920   89.0860   25.0090 C   0  0  0  0  0  0  0  0  0  0  0  0
   56.0470   89.5200   23.6780 C   0  0  0  0  0  0  0  0  0  0  0  0
   55.5880   88.7750   22.6340 C   0  0  0  0  0  0  0  0  0  0  0  0
   55.6530   89.0940   21.2280 C   0  0  0  0  0  0  0  0  0  0  0  0
   54.5990   89.6970   20.5210 N   0  0  0  0  0  4  0  0  0  0  0  0
   54.2240   88.9580   19.3680 C   0  0  0  0  0  0  0  0  0  0  0  0
   53.6250   89.6680   18.2190 C   0  0  0  0  0  0  0  0  0  0  0  0
   53.8690   91.0450   18.2170 N   0  0  0  0  0  0  0  0  0  0  0  0
   53.7290   91.7540   19.4130 C   0  0  0  0  0  0  0  0  0  0  0  0
   54.5130   91.1130   20.5150 C   0  0  0  0  0  0  0  0  0  0  0  0
   54.2550   91.6990   17.0380 C   0  0  0  0  0  0  0  0  0  0  0  0
   56.6940   90.7400   23.5740 O   0  0  0  0  0  0  0  0  0  0  0  0
   54.1900   85.9350   24.5990 C   0  0  0  0  0  0  0  0  0  0  0  0
   54.0500   85.5470   25.7640 O   0  0  0  0  0  0  0  0  0  0  0  0
   53.4150   84.8420   21.1380 C   0  0  0  0  0  0  0  0  0  0  0  0
   54.1490   83.9150   20.7130 O   0  0  0  0  0  0  0  0  0  0  0  0
   52.2150   85.0480   20.5310 O   0  0  0  0  0  0  0  0  0  0  0  0
   52.1460   85.2890   19.1460 C   0  0  0  0  0  0  0  0  0  0  0  0
   52.2210   86.7710   18.9020 C   0  0  0  0  0  0  0  0  0  0  0  0
   50.1640   82.1630   23.2040 H   0  0  0  0  0  0  0  0  0  0  0  0
   51.2410   84.3660   22.8660 H   0  0  0  0  0  0  0  0  0  0  0  0
   54.7850   82.9730   24.7220 H   0  0  0  0  0  0  0  0  0  0  0  0
   53.7230   80.8090   25.0520 H   0  0  0  0  0  0  0  0  0  0  0  0
   55.1410   87.5420   26.3240 H   0  0  0  0  0  0  0  0  0  0  0  0
   56.2620   89.6990   25.8120 H   0  0  0  0  0  0  0  0  0  0  0  0
   55.9510   88.1460   20.6280 H   0  0  0  0  0  0  0  0  0  0  0  0
   56.5820   89.7320   21.0370 H   0  0  0  0  0  0  0  0  0  0  0  0
   53.7270   89.4510   21.2080 H   0  0  0  0  0  0  0  0  0  0  0  0
   55.1180   88.3750   19.0050 H   0  0  0  0  0  0  0  0  0  0  0  0
   53.5130   88.0950   19.6420 H   0  0  0  0  0  0  0  0  0  0  0  0
   52.5050   89.4700   18.1320 H   0  0  0  0  0  0  0  0  0  0  0  0
   54.0010   89.2570   17.2280 H   0  0  0  0  0  0  0  0  0  0  0  0
   52.6640   91.8820   19.7540 H   0  0  0  0  0  0  0  0  0  0  0  0
   54.0900   92.8040   19.2620 H   0  0  0  0  0  0  0  0  0  0  0  0
   55.5200   91.5690   20.5860 H   0  0  0  0  0  0  0  0  0  0  0  0
   54.0190   91.5020   21.4750 H   0  0  0  0  0  0  0  0  0  0  0  0
   55.0620   92.4280   17.2640 H   0  0  0  0  0  0  0  0  0  0  0  0
   54.7470   90.9520   16.3480 H   0  0  0  0  0  0  0  0  0  0  0  0
   53.4450   92.1460   16.4290 H   0  0  0  0  0  0  0  0  0  0  0  0
   52.9450   84.7370   18.5880 H   0  0  0  0  0  0  0  0  0  0  0  0
   51.1870   84.8660   18.7210 H   0  0  0  0  0  0  0  0  0  0  0  0
   51.4630   87.1010   18.1410 H   0  0  0  0  0  0  0  0  0  0  0  0
   52.1290   87.3000   19.8670 H   0  0  0  0  0  0  0  0  0  0  0  0
   53.2540   86.9670   18.5130 H   0  0  0  0  0  0  0  0  0  0  0  0
  2  1  1  0  0  0  0
  2  7  1  0  0  0  0
  3  2  2  0  0  0  0
  4  3  1  0  0  0  0
  4  5  2  0  0  0  0
  5  6  1  0  0  0  0
  6  7  2  0  0  0  0
  6 35  1  0  0  0  0
  7 36  1  0  0  0  0
  8  5  1  0  0  0  0
  8 26  1  0  0  0  0
  9  8  2  0  0  0  0
 10  9  1  0  0  0  0
 10 11  1  0  0  0  0
 11 12  1  0  0  0  0
 12 26  1  0  0  0  0
 12 13  2  0  0  0  0
 13 37  1  0  0  0  0
 14 13  1  0  0  0  0
 14 38  1  0  0  0  0
 15 14  2  0  0  0  0
 16 11  2  0  0  0  0
 16 15  1  0  0  0  0
 17 16  1  0  0  0  0
 18 41  1  0  0  0  0
 18 17  1  0  0  0  0
 19 43  1  0  0  0  0
 19 18  1  0  0  0  0
 20 19  1  0  0  0  0
 21 20  1  0  0  0  0
 21 22  1  0  0  0  0
 22 46  1  0  0  0  0
 22 23  1  0  0  0  0
 23 18  1  0  0  0  0
 23 48  1  0  0  0  0
 23 49  1  0  0  0  0
 24 50  1  0  0  0  0
 24 21  1  0  0  0  0
 25 15  1  0  0  0  0
 26 27  2  0  0  0  0
 28  9  1  0  0  0  0
 29 28  2  0  0  0  0
 30 28  1  0  0  0  0
 31 30  1  0  0  0  0
 32 31  1  0  0  0  0
 32 56  1  0  0  0  0
 33  3  1  0  0  0  0
 34  4  1  0  0  0  0
 39 17  1  0  0  0  0
 40 17  1  0  0  0  0
 42 19  1  0  0  0  0
 44 20  1  0  0  0  0
 45 20  1  0  0  0  0
 47 22  1  0  0  0  0
 51 24  1  0  0  0  0
 52 24  1  0  0  0  0
 53 31  1  0  0  0  0
 54 31  1  0  0  0  0
 55 32  1  0  0  0  0
 57 32  1  0  0  0  0
M  END
>  <Pose>
1

>  <Score>
-5.64

$$$$
