
 OpenBabel03202210083D

 58 62  0  0  1  0  0  0  0  0999 V2000
   58.7700   87.9160   25.4440 B   0  0  0  0  0  0  0  0  0  0  0  0
   57.1920   87.1050   24.6950 C   0  0  0  0  0  0  0  0  0  0  0  0
   56.5170   86.1200   25.3480 C   0  0  0  0  0  0  0  0  0  0  0  0
   55.3980   85.5490   24.8130 C   0  0  0  0  0  0  0  0  0  0  0  0
   54.8930   85.9340   23.5880 C   0  0  0  0  0  0  0  0  0  0  0  0
   55.5630   86.9130   22.9370 C   0  0  0  0  0  0  0  0  0  0  0  0
   56.7240   87.5160   23.4780 C   0  0  0  0  0  0  0  0  0  0  0  0
   53.7090   85.2700   23.0870 C   0  0  0  0  0  0  0  0  0  0  0  0
   52.9650   84.3590   23.8540 C   0  0  0  0  0  0  0  0  0  0  0  0
   51.9510   83.9610   23.0970 N   0  0  0  0  0  0  0  0  0  0  0  0
   50.8650   83.1320   23.1710 C   0  0  0  0  0  0  0  0  0  0  0  0
   50.2400   83.2440   21.9550 C   0  0  0  0  0  0  0  0  0  0  0  0
   50.9410   84.1000   21.2280 N   0  0  0  0  0  0  0  0  0  0  0  0
   52.0170   84.5570   21.9300 C   0  0  1  0  0  0  0  0  0  0  0  0
   53.1080   85.3800   21.8970 N   0  0  0  0  0  0  0  0  0  0  0  0
   53.4110   86.1670   20.7410 C   0  0  0  0  0  0  0  0  0  0  0  0
   52.3910   86.2340   19.6780 C   0  0  0  0  0  0  0  0  0  0  0  0
   51.7560   87.5420   19.3740 C   0  0  0  0  0  0  0  0  0  0  0  0
   52.2410   88.1050   18.1330 N   0  0  0  0  0  4  0  0  0  0  0  0
   52.6740   89.4660   18.2600 C   0  0  0  0  0  0  0  0  0  0  0  0
   53.5740   89.9520   17.1590 C   0  0  0  0  0  0  0  0  0  0  0  0
   54.2940   91.1910   17.7120 C   0  0  0  0  0  0  0  0  0  0  0  0
   53.2750   92.2330   18.0200 C   0  0  0  0  0  0  0  0  0  0  0  0
   52.1550   91.7460   18.9100 C   0  0  0  0  0  0  0  0  0  0  0  0
   51.5300   90.4680   18.3400 C   0  0  0  0  0  0  0  0  0  0  0  0
   49.0750   82.5280   21.6670 C   0  0  0  0  0  0  0  0  0  0  0  0
   48.5380   81.6880   22.6180 C   0  0  0  0  0  0  0  0  0  0  0  0
   49.1840   81.5920   23.8290 C   0  0  0  0  0  0  0  0  0  0  0  0
   50.3430   82.3010   24.1240 C   0  0  0  0  0  0  0  0  0  0  0  0
   56.8820   85.7790   26.3300 H   0  0  0  0  0  0  0  0  0  0  0  0
   54.8950   84.7530   25.4000 H   0  0  0  0  0  0  0  0  0  0  0  0
   55.3060   87.3100   21.9950 H   0  0  0  0  0  0  0  0  0  0  0  0
   57.2510   88.2940   22.9530 H   0  0  0  0  0  0  0  0  0  0  0  0
   53.1760   84.0370   24.8710 H   0  0  0  0  0  0  0  0  0  0  0  0
   50.6730   84.3710   20.2630 H   0  0  0  0  0  0  0  0  0  0  0  0
   54.4060   85.9720   20.3530 H   0  0  0  0  0  0  0  0  0  0  0  0
   53.4790   87.2670   21.1220 H   0  0  0  0  0  0  0  0  0  0  0  0
   52.9460   85.9520   18.7190 H   0  0  0  0  0  0  0  0  0  0  0  0
   51.6180   85.4050   19.7210 H   0  0  0  0  0  0  0  0  0  0  0  0
   51.9130   88.3090   20.1610 H   0  0  0  0  0  0  0  0  0  0  0  0
   50.6610   87.3350   19.2090 H   0  0  0  0  0  0  0  0  0  0  0  0
   52.8980   87.5380   17.6040 H   0  0  0  0  0  0  0  0  0  0  0  0
   51.3710   88.1530   17.4880 H   0  0  0  0  0  0  0  0  0  0  0  0
   53.2420   89.6230   19.2260 H   0  0  0  0  0  0  0  0  0  0  0  0
   54.2860   89.2130   16.7940 H   0  0  0  0  0  0  0  0  0  0  0  0
   52.9310   90.3500   16.3210 H   0  0  0  0  0  0  0  0  0  0  0  0
   54.8650   90.8920   18.6270 H   0  0  0  0  0  0  0  0  0  0  0  0
   54.9710   91.5890   16.9370 H   0  0  0  0  0  0  0  0  0  0  0  0
   53.7780   93.0600   18.5600 H   0  0  0  0  0  0  0  0  0  0  0  0
   52.8640   92.6300   17.0740 H   0  0  0  0  0  0  0  0  0  0  0  0
   51.3850   92.5340   18.9260 H   0  0  0  0  0  0  0  0  0  0  0  0
   52.5650   91.5300   19.8980 H   0  0  0  0  0  0  0  0  0  0  0  0
   51.1430   90.6930   17.3140 H   0  0  0  0  0  0  0  0  0  0  0  0
   50.7840   90.0990   19.0410 H   0  0  0  0  0  0  0  0  0  0  0  0
   48.5770   82.6100   20.7160 H   0  0  0  0  0  0  0  0  0  0  0  0
   47.6230   81.1080   22.4280 H   0  0  0  0  0  0  0  0  0  0  0  0
   48.7660   80.9370   24.5700 H   0  0  0  0  0  0  0  0  0  0  0  0
   50.8440   82.2250   25.0670 H   0  0  0  0  0  0  0  0  0  0  0  0
  2  3  1  0  0  0  0
  2  1  1  0  0  0  0
  3 30  1  0  0  0  0
  4  3  2  0  0  0  0
  4 31  1  0  0  0  0
  5  4  1  0  0  0  0
  6  7  1  0  0  0  0
  6  5  2  0  0  0  0
  7  2  2  0  0  0  0
  8  5  1  0  0  0  0
  8  9  2  0  0  0  0
  9 34  1  0  0  0  0
 10 11  1  0  0  0  0
 10  9  1  0  0  0  0
 11 29  1  0  0  0  0
 12 11  2  0  0  0  0
 13 12  1  0  0  0  0
 14 13  1  1  0  0  0
 14 10  1  0  0  0  0
 15 14  1  0  0  0  0
 15  8  1  0  0  0  0
 16 37  1  0  0  0  0
 16 15  1  0  0  0  0
 17 39  1  0  0  0  0
 17 16  1  0  0  0  0
 18 17  1  0  0  0  0
 18 40  1  0  0  0  0
 19 20  1  0  0  0  0
 19 18  1  0  0  0  0
 20 25  1  0  0  0  0
 20 44  1  0  0  0  0
 21 22  1  0  0  0  0
 21 20  1  0  0  0  0
 22 23  1  0  0  0  0
 22 47  1  0  0  0  0
 23 49  1  0  0  0  0
 23 24  1  0  0  0  0
 24 51  1  0  0  0  0
 24 52  1  0  0  0  0
 25 24  1  0  0  0  0
 25 54  1  0  0  0  0
 26 12  1  0  0  0  0
 26 27  2  0  0  0  0
 27 28  1  0  0  0  0
 28 29  2  0  0  0  0
 28 57  1  0  0  0  0
 29 58  1  0  0  0  0
 32  6  1  0  0  0  0
 33  7  1  0  0  0  0
 35 13  1  0  0  0  0
 36 16  1  0  0  0  0
 38 17  1  0  0  0  0
 41 18  1  0  0  0  0
 42 19  1  0  0  0  0
 43 19  1  0  0  0  0
 45 21  1  0  0  0  0
 46 21  1  0  0  0  0
 48 22  1  0  0  0  0
 50 23  1  0  0  0  0
 53 25  1  0  0  0  0
 55 26  1  0  0  0  0
 56 27  1  0  0  0  0
M  END
>  <Pose>
1

>  <Score>
-6.61

$$$$
