
 OpenBabel03202210083D

 63 66  0  0  1  0  0  0  0  0999 V2000
   55.5580   89.9620   20.8200 B   0  0  0  0  0  0  0  0  0  0  0  0
   54.6160   88.2940   20.6760 C   0  0  0  0  0  0  0  0  0  0  0  0
   53.5500   88.1880   19.8100 C   0  0  0  0  0  0  0  0  0  0  0  0
   52.8490   86.9840   19.6850 C   0  0  0  0  0  0  0  0  0  0  0  0
   53.2040   85.8750   20.4230 C   0  0  0  0  0  0  0  0  0  0  0  0
   54.2750   86.0230   21.2750 C   0  0  0  0  0  0  0  0  0  0  0  0
   54.9750   87.1980   21.4110 C   0  0  0  0  0  0  0  0  0  0  0  0
   52.4690   84.6150   20.2880 C   0  0  2  0  0  0  0  0  0  0  0  0
   52.6590   83.7230   21.3990 N   0  0  0  0  0  0  0  0  0  0  0  0
   53.1280   82.4610   20.9660 C   0  0  0  0  0  0  0  0  0  0  0  0
   53.3820   81.4340   21.6670 O   0  0  0  0  0  0  0  0  0  0  0  0
   53.3000   82.4910   19.4960 C   0  0  0  0  0  0  0  0  0  0  0  0
   53.7000   81.5330   18.7970 O   0  0  0  0  0  0  0  0  0  0  0  0
   52.9120   83.8260   19.0920 C   0  0  0  0  0  0  0  0  0  0  0  0
   52.9160   84.2210   17.8380 C   0  0  0  0  0  0  0  0  0  0  0  0
   52.4530   85.5250   17.5610 O   0  0  0  0  0  0  0  0  0  0  0  0
   53.3610   83.4510   16.7040 C   0  0  0  0  0  0  0  0  0  0  0  0
   54.5730   83.5090   16.1110 C   0  0  0  0  0  0  0  0  0  0  0  0
   54.8810   82.6860   15.0480 C   0  0  0  0  0  0  0  0  0  0  0  0
   53.9980   81.7650   14.5260 C   0  0  0  0  0  0  0  0  0  0  0  0
   52.7660   81.7260   15.1490 C   0  0  0  0  0  0  0  0  0  0  0  0
   52.4290   82.5290   16.2040 C   0  0  0  0  0  0  0  0  0  0  0  0
   54.3150   80.9390   13.4550 O   0  0  0  0  0  0  0  0  0  0  0  0
   53.4180   80.8170   12.3610 C   0  0  0  0  0  0  0  0  0  0  0  0
   56.2420   82.7870   14.4240 C   0  0  0  0  0  0  0  0  0  0  0  0
   52.3880   84.0920   22.7770 C   0  0  0  0  0  0  0  0  0  0  0  0
   51.0710   83.5750   23.2860 C   0  0  0  0  0  0  0  0  0  0  0  0
   51.2030   82.9570   24.6440 C   0  0  0  0  0  0  0  0  0  0  0  0
   50.7750   83.8230   25.7050 N   0  0  0  0  0  4  0  0  0  0  0  0
   51.6070   84.9980   25.8580 C   0  0  0  0  0  0  0  0  0  0  0  0
   50.8860   85.9240   26.8430 C   0  0  0  0  0  0  0  0  0  0  0  0
   49.8320   85.2620   27.4550 O   0  0  0  0  0  0  0  0  0  0  0  0
   50.2810   84.0530   28.0300 C   0  0  0  0  0  0  0  0  0  0  0  0
   50.6630   83.0750   26.9240 C   0  0  0  0  0  0  0  0  0  0  0  0
   53.2620   89.0490   19.2240 H   0  0  0  0  0  0  0  0  0  0  0  0
   52.0140   86.8970   19.0080 H   0  0  0  0  0  0  0  0  0  0  0  0
   54.5480   85.1290   21.8600 H   0  0  0  0  0  0  0  0  0  0  0  0
   55.8000   87.2580   22.0900 H   0  0  0  0  0  0  0  0  0  0  0  0
   51.3860   84.8440   20.2400 H   0  0  0  0  0  0  0  0  0  0  0  0
   55.2930   84.2440   16.4850 H   0  0  0  0  0  0  0  0  0  0  0  0
   52.0630   80.9900   14.7260 H   0  0  0  0  0  0  0  0  0  0  0  0
   51.4390   82.4400   16.6430 H   0  0  0  0  0  0  0  0  0  0  0  0
   53.2630   81.8450   11.9380 H   0  0  0  0  0  0  0  0  0  0  0  0
   53.8120   80.1920   11.5590 H   0  0  0  0  0  0  0  0  0  0  0  0
   52.4030   80.4960   12.7280 H   0  0  0  0  0  0  0  0  0  0  0  0
   56.6390   83.8210   14.4810 H   0  0  0  0  0  0  0  0  0  0  0  0
   56.1540   82.4220   13.3860 H   0  0  0  0  0  0  0  0  0  0  0  0
   56.8760   82.0520   14.9730 H   0  0  0  0  0  0  0  0  0  0  0  0
   52.3710   85.2060   22.8560 H   0  0  0  0  0  0  0  0  0  0  0  0
   53.1800   83.7230   23.4630 H   0  0  0  0  0  0  0  0  0  0  0  0
   50.6760   82.8420   22.5420 H   0  0  0  0  0  0  0  0  0  0  0  0
   50.3940   84.4470   23.3680 H   0  0  0  0  0  0  0  0  0  0  0  0
   50.6030   82.0290   24.7380 H   0  0  0  0  0  0  0  0  0  0  0  0
   52.2620   82.6690   24.8020 H   0  0  0  0  0  0  0  0  0  0  0  0
   49.8020   84.1830   25.4710 H   0  0  0  0  0  0  0  0  0  0  0  0
   51.6600   85.5270   24.9050 H   0  0  0  0  0  0  0  0  0  0  0  0
   52.5750   84.7460   26.3070 H   0  0  0  0  0  0  0  0  0  0  0  0
   51.5790   86.3420   27.5860 H   0  0  0  0  0  0  0  0  0  0  0  0
   50.4250   86.7940   26.3000 H   0  0  0  0  0  0  0  0  0  0  0  0
   49.3880   83.6510   28.5710 H   0  0  0  0  0  0  0  0  0  0  0  0
   51.0780   84.2060   28.7610 H   0  0  0  0  0  0  0  0  0  0  0  0
   51.6510   82.6060   27.1290 H   0  0  0  0  0  0  0  0  0  0  0  0
   49.8500   82.3270   26.7800 H   0  0  0  0  0  0  0  0  0  0  0  0
  2  1  1  0  0  0  0
  2  7  1  0  0  0  0
  3  2  2  0  0  0  0
  4  3  1  0  0  0  0
  4  5  2  0  0  0  0
  5  6  1  0  0  0  0
  6  7  2  0  0  0  0
  6 37  1  0  0  0  0
  7 38  1  0  0  0  0
  8 39  1  6  0  0  0
  8  5  1  0  0  0  0
  8  9  1  0  0  0  0
  9 26  1  0  0  0  0
 10  9  1  0  0  0  0
 10 11  2  0  0  0  0
 12 10  1  0  0  0  0
 13 12  2  0  0  0  0
 14 12  1  0  0  0  0
 14  8  1  0  0  0  0
 15 14  2  0  0  0  0
 16 15  1  0  0  0  0
 17 15  1  0  0  0  0
 18 40  1  0  0  0  0
 18 17  2  0  0  0  0
 19 18  1  0  0  0  0
 20 19  2  0  0  0  0
 20 21  1  0  0  0  0
 21 22  2  0  0  0  0
 22 42  1  0  0  0  0
 22 17  1  0  0  0  0
 23 20  1  0  0  0  0
 24 45  1  0  0  0  0
 24 23  1  0  0  0  0
 25 46  1  0  0  0  0
 25 48  1  0  0  0  0
 25 19  1  0  0  0  0
 26 49  1  0  0  0  0
 26 27  1  0  0  0  0
 26 50  1  0  0  0  0
 27 52  1  0  0  0  0
 27 28  1  0  0  0  0
 28 53  1  0  0  0  0
 28 54  1  0  0  0  0
 28 29  1  0  0  0  0
 29 30  1  0  0  0  0
 29 34  1  0  0  0  0
 30 57  1  0  0  0  0
 30 31  1  0  0  0  0
 31 32  1  0  0  0  0
 31 58  1  0  0  0  0
 32 33  1  0  0  0  0
 33 60  1  0  0  0  0
 33 61  1  0  0  0  0
 34 62  1  0  0  0  0
 34 33  1  0  0  0  0
 35  3  1  0  0  0  0
 36  4  1  0  0  0  0
 41 21  1  0  0  0  0
 43 24  1  0  0  0  0
 44 24  1  0  0  0  0
 47 25  1  0  0  0  0
 51 27  1  0  0  0  0
 55 29  1  0  0  0  0
 56 30  1  0  0  0  0
 59 31  1  0  0  0  0
 63 34  1  0  0  0  0
M  END
>  <Pose>
1

>  <Score>
-6.32

$$$$
