
 OpenBabel03202210083D

 60 63  0  0  1  0  0  0  0  0999 V2000
   49.5280   82.3100   24.5340 B   0  0  0  0  0  0  0  0  0  0  0  0
   50.7500   83.1200   23.3130 C   0  0  0  0  0  0  0  0  0  0  0  0
   51.6890   84.0140   23.7700 C   0  0  0  0  0  0  0  0  0  0  0  0
   52.5860   84.6080   22.8780 C   0  0  0  0  0  0  0  0  0  0  0  0
   52.5540   84.3180   21.5360 C   0  0  0  0  0  0  0  0  0  0  0  0
   51.6030   83.4200   21.1080 C   0  0  0  0  0  0  0  0  0  0  0  0
   50.7070   82.8230   21.9760 C   0  0  0  0  0  0  0  0  0  0  0  0
   53.5050   84.9350   20.6210 C   0  0  2  0  0  0  0  0  0  0  0  0
   53.1980   86.3350   20.4060 N   0  0  0  0  0  0  0  0  0  0  0  0
   52.1200   86.3710   19.4680 C   0  0  0  0  0  0  0  0  0  0  0  0
   51.2690   87.2840   19.3340 O   0  0  0  0  0  0  0  0  0  0  0  0
   52.2170   85.1310   18.7040 C   0  0  0  0  0  0  0  0  0  0  0  0
   51.4890   84.7130   17.7690 O   0  0  0  0  0  0  0  0  0  0  0  0
   53.3630   84.3900   19.2200 C   0  0  0  0  0  0  0  0  0  0  0  0
   54.0470   83.4600   18.6010 C   0  0  0  0  0  0  0  0  0  0  0  0
   55.0800   82.8570   19.3420 O   0  0  0  0  0  0  0  0  0  0  0  0
   53.7880   83.0520   17.2250 C   0  0  0  0  0  0  0  0  0  0  0  0
   52.7920   82.1780   16.8520 C   0  0  0  0  0  0  0  0  0  0  0  0
   52.5530   81.7710   15.5520 C   0  0  0  0  0  0  0  0  0  0  0  0
   53.3530   82.2610   14.5600 C   0  0  0  0  0  0  0  0  0  0  0  0
   54.3740   83.1490   14.8900 C   0  0  0  0  0  0  0  0  0  0  0  0
   54.5820   83.5330   16.1980 C   0  0  0  0  0  0  0  0  0  0  0  0
   51.5120   80.8900   15.3620 O   0  0  0  0  0  0  0  0  0  0  0  0
   51.5690   79.6030   14.8520 C   0  0  0  0  0  0  0  0  0  0  0  0
   53.8520   87.5040   21.0190 C   0  0  0  0  0  0  0  0  0  0  0  0
   55.3570   87.2460   21.1840 C   0  0  0  0  0  0  0  0  0  0  0  0
   55.8820   88.0930   22.3080 C   0  0  0  0  0  0  0  0  0  0  0  0
   55.4840   87.5060   23.5650 N   0  0  0  0  0  4  0  0  0  0  0  0
   55.1010   88.4580   24.5590 C   0  0  0  0  0  0  0  0  0  0  0  0
   56.2540   89.2160   25.1230 C   0  0  0  0  0  0  0  0  0  0  0  0
   57.2100   88.3550   25.6340 O   0  0  0  0  0  0  0  0  0  0  0  0
   57.6730   87.5640   24.5820 C   0  0  0  0  0  0  0  0  0  0  0  0
   56.5290   86.6750   24.1350 C   0  0  0  0  0  0  0  0  0  0  0  0
   51.6970   84.2280   24.8250 H   0  0  0  0  0  0  0  0  0  0  0  0
   53.2920   85.2920   23.2860 H   0  0  0  0  0  0  0  0  0  0  0  0
   51.6000   83.2100   20.0460 H   0  0  0  0  0  0  0  0  0  0  0  0
   49.9800   82.1200   21.6030 H   0  0  0  0  0  0  0  0  0  0  0  0
   54.5370   84.7850   20.9890 H   0  0  0  0  0  0  0  0  0  0  0  0
   52.1450   81.7960   17.6240 H   0  0  0  0  0  0  0  0  0  0  0  0
   53.1860   81.9550   13.5330 H   0  0  0  0  0  0  0  0  0  0  0  0
   54.9770   83.5040   14.0540 H   0  0  0  0  0  0  0  0  0  0  0  0
   55.4050   84.2370   16.4020 H   0  0  0  0  0  0  0  0  0  0  0  0
   50.7230   79.3750   14.1450 H   0  0  0  0  0  0  0  0  0  0  0  0
   52.5400   79.4160   14.3850 H   0  0  0  0  0  0  0  0  0  0  0  0
   51.4260   78.8860   15.6870 H   0  0  0  0  0  0  0  0  0  0  0  0
   53.4620   87.6200   22.0300 H   0  0  0  0  0  0  0  0  0  0  0  0
   53.6690   88.3330   20.3310 H   0  0  0  0  0  0  0  0  0  0  0  0
   55.5610   86.2050   21.4200 H   0  0  0  0  0  0  0  0  0  0  0  0
   55.8910   87.5090   20.2460 H   0  0  0  0  0  0  0  0  0  0  0  0
   56.9900   88.1120   22.1890 H   0  0  0  0  0  0  0  0  0  0  0  0
   55.4870   89.1030   22.2250 H   0  0  0  0  0  0  0  0  0  0  0  0
   54.6730   86.8690   23.3840 H   0  0  0  0  0  0  0  0  0  0  0  0
   54.3530   89.1580   24.1240 H   0  0  0  0  0  0  0  0  0  0  0  0
   54.5750   87.9100   25.3800 H   0  0  0  0  0  0  0  0  0  0  0  0
   56.7530   89.8080   24.3150 H   0  0  0  0  0  0  0  0  0  0  0  0
   55.8700   89.9240   25.8920 H   0  0  0  0  0  0  0  0  0  0  0  0
   58.5350   86.9300   24.8680 H   0  0  0  0  0  0  0  0  0  0  0  0
   57.9960   88.1740   23.7100 H   0  0  0  0  0  0  0  0  0  0  0  0
   56.1220   86.2060   25.0520 H   0  0  0  0  0  0  0  0  0  0  0  0
   56.8790   85.9020   23.4350 H   0  0  0  0  0  0  0  0  0  0  0  0
  2  3  1  0  0  0  0
  2  1  1  0  0  0  0
  3 34  1  0  0  0  0
  4 35  1  0  0  0  0
  4  3  2  0  0  0  0
  5  4  1  0  0  0  0
  6  5  2  0  0  0  0
  6  7  1  0  0  0  0
  7  2  2  0  0  0  0
  8 38  1  1  0  0  0
  8  5  1  0  0  0  0
  9  8  1  0  0  0  0
  9 25  1  0  0  0  0
 10  9  1  0  0  0  0
 11 10  2  0  0  0  0
 12 14  1  0  0  0  0
 12 10  1  0  0  0  0
 13 12  2  0  0  0  0
 14  8  1  0  0  0  0
 15 14  2  0  0  0  0
 15 16  1  0  0  0  0
 17 15  1  0  0  0  0
 18 17  1  0  0  0  0
 18 39  1  0  0  0  0
 19 18  2  0  0  0  0
 20 21  2  0  0  0  0
 20 19  1  0  0  0  0
 21 22  1  0  0  0  0
 22 42  1  0  0  0  0
 22 17  2  0  0  0  0
 23 19  1  0  0  0  0
 24 23  1  0  0  0  0
 24 45  1  0  0  0  0
 25 26  1  0  0  0  0
 25 46  1  0  0  0  0
 26 48  1  0  0  0  0
 26 27  1  0  0  0  0
 27 28  1  0  0  0  0
 28 33  1  0  0  0  0
 28 29  1  0  0  0  0
 29 30  1  0  0  0  0
 29 54  1  0  0  0  0
 30 31  1  0  0  0  0
 30 56  1  0  0  0  0
 32 57  1  0  0  0  0
 32 31  1  0  0  0  0
 33 32  1  0  0  0  0
 33 59  1  0  0  0  0
 36  6  1  0  0  0  0
 37  7  1  0  0  0  0
 40 20  1  0  0  0  0
 41 21  1  0  0  0  0
 43 24  1  0  0  0  0
 44 24  1  0  0  0  0
 47 25  1  0  0  0  0
 49 26  1  0  0  0  0
 50 27  1  0  0  0  0
 51 27  1  0  0  0  0
 52 28  1  0  0  0  0
 53 29  1  0  0  0  0
 55 30  1  0  0  0  0
 58 32  1  0  0  0  0
 60 33  1  0  0  0  0
M  END
>  <Pose>
1

>  <Score>
-6.64

$$$$
