
 OpenBabel03202210083D

 53 56  0  0  1  0  0  0  0  0999 V2000
   56.9990   88.0860   24.7060 B   0  0  0  0  0  0  0  0  0  0  0  0
   55.7400   87.4730   23.4180 C   0  0  0  0  0  0  0  0  0  0  0  0
   54.8170   86.4870   23.6780 C   0  0  0  0  0  0  0  0  0  0  0  0
   53.9030   86.0610   22.7030 C   0  0  0  0  0  0  0  0  0  0  0  0
   53.9010   86.6160   21.4540 C   0  0  0  0  0  0  0  0  0  0  0  0
   54.8370   87.6020   21.2230 C   0  0  0  0  0  0  0  0  0  0  0  0
   55.7400   88.0320   22.1680 C   0  0  0  0  0  0  0  0  0  0  0  0
   53.0140   86.2140   20.4300 C   0  0  1  0  0  0  0  0  0  0  0  0
   52.5770   87.0860   19.4020 N   0  0  0  0  0  0  0  0  0  0  0  0
   51.7330   86.2300   18.5720 C   0  0  0  0  0  0  0  0  0  0  0  0
   50.7560   86.6070   17.8700 O   0  0  0  0  0  0  0  0  0  0  0  0
   52.2620   84.8770   18.7310 C   0  0  0  0  0  0  0  0  0  0  0  0
   51.8540   83.8120   18.1970 O   0  0  0  0  0  0  0  0  0  0  0  0
   53.3920   84.9950   19.6550 C   0  0  0  0  0  0  0  0  0  0  0  0
   54.4670   84.2310   19.7180 C   0  0  0  0  0  0  0  0  0  0  0  0
   55.4820   84.5230   20.6160 O   0  0  0  0  0  0  0  0  0  0  0  0
   54.6690   83.0530   18.8850 C   0  0  0  0  0  0  0  0  0  0  0  0
   54.9410   83.3310   17.5390 C   0  0  0  0  0  0  0  0  0  0  0  0
   55.1960   82.3340   16.6260 C   0  0  0  0  0  0  0  0  0  0  0  0
   55.1800   81.0160   17.0700 C   0  0  0  0  0  0  0  0  0  0  0  0
   54.9130   80.7510   18.3950 C   0  0  0  0  0  0  0  0  0  0  0  0
   54.6590   81.7590   19.3030 C   0  0  0  0  0  0  0  0  0  0  0  0
   55.5040   79.7570   15.9010 Cl  0  0  0  0  0  0  0  0  0  0  0  0
   52.7720   88.5120   19.1260 C   0  0  0  0  0  0  0  0  0  0  0  0
   53.2940   88.8110   17.7550 C   0  0  0  0  0  0  0  0  0  0  0  0
   52.6910   89.9880   17.1700 N   0  0  0  0  0  4  0  0  0  0  0  0
   53.5720   91.1230   17.1630 C   0  0  0  0  0  0  0  0  0  0  0  0
   53.8350   91.6990   18.5230 C   0  0  0  0  0  0  0  0  0  0  0  0
   52.6540   91.9690   19.2170 O   0  0  0  0  0  0  0  0  0  0  0  0
   51.9900   90.7410   19.3520 C   0  0  0  0  0  0  0  0  0  0  0  0
   51.5300   90.3370   17.9680 C   0  0  0  0  0  0  0  0  0  0  0  0
   54.8240   86.0560   24.6570 H   0  0  0  0  0  0  0  0  0  0  0  0
   53.2310   85.2950   23.0440 H   0  0  0  0  0  0  0  0  0  0  0  0
   54.9120   88.1090   20.2470 H   0  0  0  0  0  0  0  0  0  0  0  0
   56.4610   88.8120   21.9480 H   0  0  0  0  0  0  0  0  0  0  0  0
   52.0390   85.8780   20.9460 H   0  0  0  0  0  0  0  0  0  0  0  0
   54.9600   84.3460   17.1690 H   0  0  0  0  0  0  0  0  0  0  0  0
   55.4020   82.5890   15.5930 H   0  0  0  0  0  0  0  0  0  0  0  0
   54.9070   79.7200   18.7070 H   0  0  0  0  0  0  0  0  0  0  0  0
   54.4810   81.5290   20.3480 H   0  0  0  0  0  0  0  0  0  0  0  0
   53.5670   88.8740   19.8440 H   0  0  0  0  0  0  0  0  0  0  0  0
   51.8340   89.0770   19.2560 H   0  0  0  0  0  0  0  0  0  0  0  0
   52.9570   87.9590   17.1070 H   0  0  0  0  0  0  0  0  0  0  0  0
   54.3810   88.8380   17.6390 H   0  0  0  0  0  0  0  0  0  0  0  0
   52.3580   89.8270   16.2000 H   0  0  0  0  0  0  0  0  0  0  0  0
   54.5280   90.9510   16.6580 H   0  0  0  0  0  0  0  0  0  0  0  0
   53.0450   91.9260   16.5740 H   0  0  0  0  0  0  0  0  0  0  0  0
   54.5240   91.0690   19.1260 H   0  0  0  0  0  0  0  0  0  0  0  0
   54.3310   92.6880   18.3700 H   0  0  0  0  0  0  0  0  0  0  0  0
   51.1200   90.8220   20.0340 H   0  0  0  0  0  0  0  0  0  0  0  0
   52.6980   90.0420   19.8010 H   0  0  0  0  0  0  0  0  0  0  0  0
   50.8010   89.4890   18.0150 H   0  0  0  0  0  0  0  0  0  0  0  0
   51.0310   91.2390   17.5280 H   0  0  0  0  0  0  0  0  0  0  0  0
  2  3  1  0  0  0  0
  2  1  1  0  0  0  0
  3 32  1  0  0  0  0
  4 33  1  0  0  0  0
  4  3  2  0  0  0  0
  5  4  1  0  0  0  0
  6  5  2  0  0  0  0
  6  7  1  0  0  0  0
  7  2  2  0  0  0  0
  8 36  1  1  0  0  0
  8  5  1  0  0  0  0
  9  8  1  0  0  0  0
 10 12  1  0  0  0  0
 10  9  1  0  0  0  0
 11 10  2  0  0  0  0
 12 14  1  0  0  0  0
 13 12  2  0  0  0  0
 14 15  2  0  0  0  0
 14  8  1  0  0  0  0
 15 16  1  0  0  0  0
 17 22  1  0  0  0  0
 17 15  1  0  0  0  0
 18 17  2  0  0  0  0
 19 20  2  0  0  0  0
 19 18  1  0  0  0  0
 20 21  1  0  0  0  0
 21 39  1  0  0  0  0
 21 22  2  0  0  0  0
 22 40  1  0  0  0  0
 23 20  1  0  0  0  0
 24 42  1  0  0  0  0
 24  9  1  0  0  0  0
 24 41  1  0  0  0  0
 25 24  1  0  0  0  0
 26 25  1  0  0  0  0
 26 31  1  0  0  0  0
 27 26  1  0  0  0  0
 27 28  1  0  0  0  0
 28 48  1  0  0  0  0
 28 29  1  0  0  0  0
 29 30  1  0  0  0  0
 30 51  1  0  0  0  0
 30 50  1  0  0  0  0
 31 52  1  0  0  0  0
 31 30  1  0  0  0  0
 34  6  1  0  0  0  0
 35  7  1  0  0  0  0
 37 18  1  0  0  0  0
 38 19  1  0  0  0  0
 43 25  1  0  0  0  0
 44 25  1  0  0  0  0
 45 26  1  0  0  0  0
 46 27  1  0  0  0  0
 47 27  1  0  0  0  0
 49 28  1  0  0  0  0
 53 31  1  0  0  0  0
M  END
>  <Pose>
1

>  <Score>
-5.14

$$$$
