
 OpenBabel03202210083D

 55 58  0  0  1  0  0  0  0  0999 V2000
   52.4990   90.8020   18.6820 B   0  0  0  0  0  0  0  0  0  0  0  0
   52.6170   88.9380   19.0770 C   0  0  0  0  0  0  0  0  0  0  0  0
   51.7300   88.0200   18.5580 C   0  0  0  0  0  0  0  0  0  0  0  0
   51.8290   86.6740   18.8540 C   0  0  0  0  0  0  0  0  0  0  0  0
   52.7930   86.1780   19.6650 C   0  0  0  0  0  0  0  0  0  0  0  0
   53.6910   87.1240   20.1870 C   0  0  0  0  0  0  0  0  0  0  0  0
   53.6120   88.4680   19.9050 C   0  0  0  0  0  0  0  0  0  0  0  0
   52.9810   84.7970   20.0640 C   0  0  1  0  0  0  0  0  0  0  0  0
   51.9660   84.1700   20.8470 N   0  0  0  0  0  0  0  0  0  0  0  0
   52.1610   82.7430   20.6670 C   0  0  0  0  0  0  0  0  0  0  0  0
   51.7250   81.8590   21.4490 O   0  0  0  0  0  0  0  0  0  0  0  0
   52.9290   82.5490   19.4530 C   0  0  0  0  0  0  0  0  0  0  0  0
   53.3080   81.4510   18.9410 O   0  0  0  0  0  0  0  0  0  0  0  0
   53.1890   83.8700   18.9200 C   0  0  0  0  0  0  0  0  0  0  0  0
   53.5080   84.1530   17.6690 C   0  0  0  0  0  0  0  0  0  0  0  0
   53.6700   85.5260   17.3630 O   0  0  0  0  0  0  0  0  0  0  0  0
   53.7030   83.1650   16.6280 C   0  0  0  0  0  0  0  0  0  0  0  0
   54.9640   82.5580   16.5830 C   0  0  0  0  0  0  0  0  0  0  0  0
   55.2730   81.5700   15.6710 C   0  0  0  0  0  0  0  0  0  0  0  0
   54.3420   81.1660   14.7890 N   0  0  0  0  0  0  0  0  0  0  0  0
   53.1180   81.7340   14.8090 C   0  0  0  0  0  0  0  0  0  0  0  0
   52.7930   82.7320   15.7260 C   0  0  0  0  0  0  0  0  0  0  0  0
   50.9460   84.7120   21.7470 C   0  0  0  0  0  0  0  0  0  0  0  0
   51.4720   85.4560   22.9270 C   0  0  0  0  0  0  0  0  0  0  0  0
   52.8150   84.9130   23.3890 C   0  0  0  0  0  0  0  0  0  0  0  0
   53.4400   85.8000   24.3430 N   0  0  0  0  0  4  0  0  0  0  0  0
   53.7130   85.1540   25.6060 C   0  0  0  0  0  0  0  0  0  0  0  0
   54.7290   86.0350   26.3380 C   0  0  0  0  0  0  0  0  0  0  0  0
   55.9800   85.8430   25.7530 O   0  0  0  0  0  0  0  0  0  0  0  0
   55.8890   85.7500   24.3650 C   0  0  0  0  0  0  0  0  0  0  0  0
   54.6320   86.4150   23.8450 C   0  0  0  0  0  0  0  0  0  0  0  0
   50.9530   88.3980   17.9090 H   0  0  0  0  0  0  0  0  0  0  0  0
   51.1100   85.9730   18.4060 H   0  0  0  0  0  0  0  0  0  0  0  0
   54.4940   86.8150   20.8440 H   0  0  0  0  0  0  0  0  0  0  0  0
   54.3360   89.1730   20.3350 H   0  0  0  0  0  0  0  0  0  0  0  0
   53.9260   84.6980   20.6660 H   0  0  0  0  0  0  0  0  0  0  0  0
   55.7450   82.8490   17.2710 H   0  0  0  0  0  0  0  0  0  0  0  0
   56.2440   81.0970   15.6290 H   0  0  0  0  0  0  0  0  0  0  0  0
   52.3610   81.4100   14.0970 H   0  0  0  0  0  0  0  0  0  0  0  0
   51.7920   83.1260   15.7160 H   0  0  0  0  0  0  0  0  0  0  0  0
   50.3490   83.8570   22.1080 H   0  0  0  0  0  0  0  0  0  0  0  0
   50.2430   85.3800   21.2090 H   0  0  0  0  0  0  0  0  0  0  0  0
   51.5950   86.5610   22.6850 H   0  0  0  0  0  0  0  0  0  0  0  0
   50.7850   85.4040   23.7750 H   0  0  0  0  0  0  0  0  0  0  0  0
   52.6440   83.9580   23.8870 H   0  0  0  0  0  0  0  0  0  0  0  0
   53.4650   84.8590   22.5020 H   0  0  0  0  0  0  0  0  0  0  0  0
   52.7460   86.5620   24.5360 H   0  0  0  0  0  0  0  0  0  0  0  0
   52.8370   85.0810   26.2660 H   0  0  0  0  0  0  0  0  0  0  0  0
   54.1490   84.1550   25.4650 H   0  0  0  0  0  0  0  0  0  0  0  0
   54.7220   85.8450   27.4100 H   0  0  0  0  0  0  0  0  0  0  0  0
   54.4230   87.0810   26.1420 H   0  0  0  0  0  0  0  0  0  0  0  0
   56.7430   86.2690   23.8860 H   0  0  0  0  0  0  0  0  0  0  0  0
   55.8800   84.6780   24.0620 H   0  0  0  0  0  0  0  0  0  0  0  0
   54.6450   86.3670   22.7580 H   0  0  0  0  0  0  0  0  0  0  0  0
   54.7110   87.4950   24.1340 H   0  0  0  0  0  0  0  0  0  0  0  0
  1  2  1  0  0  0  0
  2  7  1  0  0  0  0
  3  4  1  0  0  0  0
  3  2  2  0  0  0  0
  4  5  2  0  0  0  0
  5  8  1  0  0  0  0
  5  6  1  0  0  0  0
  6 34  1  0  0  0  0
  7  6  2  0  0  0  0
  7 35  1  0  0  0  0
  8 36  1  1  0  0  0
  8  9  1  0  0  0  0
  9 23  1  0  0  0  0
 10  9  1  0  0  0  0
 10 11  2  0  0  0  0
 12 10  1  0  0  0  0
 13 12  2  0  0  0  0
 14 12  1  0  0  0  0
 14  8  1  0  0  0  0
 15 14  2  0  0  0  0
 16 15  1  0  0  0  0
 17 15  1  0  0  0  0
 18 17  1  0  0  0  0
 18 37  1  0  0  0  0
 19 18  2  0  0  0  0
 20 21  2  0  0  0  0
 20 19  1  0  0  0  0
 21 22  1  0  0  0  0
 22 17  2  0  0  0  0
 23 41  1  0  0  0  0
 23 24  1  0  0  0  0
 24 25  1  0  0  0  0
 24 44  1  0  0  0  0
 25 45  1  0  0  0  0
 25 26  1  0  0  0  0
 26 47  1  0  0  0  0
 26 27  1  0  0  0  0
 27 48  1  0  0  0  0
 27 28  1  0  0  0  0
 28 50  1  0  0  0  0
 29 28  1  0  0  0  0
 30 29  1  0  0  0  0
 31 55  1  0  0  0  0
 31 26  1  0  0  0  0
 31 30  1  0  0  0  0
 32  3  1  0  0  0  0
 33  4  1  0  0  0  0
 38 19  1  0  0  0  0
 39 21  1  0  0  0  0
 40 22  1  0  0  0  0
 42 23  1  0  0  0  0
 43 24  1  0  0  0  0
 46 25  1  0  0  0  0
 49 27  1  0  0  0  0
 51 28  1  0  0  0  0
 52 30  1  0  0  0  0
 53 30  1  0  0  0  0
 54 31  1  0  0  0  0
M  END
>  <Pose>
1

>  <Score>
-6.72

$$$$
