
 OpenBabel03202210083D

 57 60  0  0  1  0  0  0  0  0999 V2000
   54.6920   81.2080   14.8010 B   0  0  0  0  0  0  0  0  0  0  0  0
   53.8630   82.1810   16.2360 C   0  0  0  0  0  0  0  0  0  0  0  0
   53.5090   81.5420   17.4110 C   0  0  0  0  0  0  0  0  0  0  0  0
   52.9080   82.2610   18.4430 C   0  0  0  0  0  0  0  0  0  0  0  0
   52.6470   83.6070   18.3430 C   0  0  0  0  0  0  0  0  0  0  0  0
   53.0080   84.2240   17.1650 C   0  0  0  0  0  0  0  0  0  0  0  0
   53.6000   83.5240   16.1400 C   0  0  0  0  0  0  0  0  0  0  0  0
   51.9960   84.3490   19.4450 C   0  0  1  0  0  0  0  0  0  0  0  0
   52.0970   83.6000   20.7120 N   0  0  0  0  0  0  0  0  0  0  0  0
   53.4540   83.7580   21.1100 C   0  0  0  0  0  0  0  0  0  0  0  0
   54.0750   82.9490   21.8590 O   0  0  0  0  0  0  0  0  0  0  0  0
   53.9790   84.9840   20.5180 C   0  0  0  0  0  0  0  0  0  0  0  0
   55.1290   85.4500   20.6510 O   0  0  0  0  0  0  0  0  0  0  0  0
   52.8760   85.5360   19.7530 C   0  0  0  0  0  0  0  0  0  0  0  0
   52.6590   86.7850   19.4290 C   0  0  0  0  0  0  0  0  0  0  0  0
   51.5190   87.1550   18.7300 O   0  0  0  0  0  0  0  0  0  0  0  0
   53.5940   87.8380   19.7780 C   0  0  0  0  0  0  0  0  0  0  0  0
   54.4530   87.9670   20.8100 N   0  0  0  0  0  0  0  0  0  0  0  0
   55.1020   89.1390   20.7470 C   0  0  0  0  0  0  0  0  0  0  0  0
   54.6380   89.7630   19.6430 N   0  0  0  0  0  0  0  0  0  0  0  0
   53.7350   89.0250   19.0270 C   0  0  0  0  0  0  0  0  0  0  0  0
   52.9610   89.3090   17.7760 C   0  0  0  0  0  0  0  0  0  0  0  0
   56.0640   89.5280   21.6800 C   0  0  0  0  0  0  0  0  0  0  0  0
   56.3850   88.6920   22.7250 C   0  0  0  0  0  0  0  0  0  0  0  0
   55.7110   87.4940   22.7720 C   0  0  0  0  0  0  0  0  0  0  0  0
   54.7670   87.1380   21.8390 C   0  0  0  0  0  0  0  0  0  0  0  0
   51.0390   82.8690   21.3580 C   0  0  0  0  0  0  0  0  0  0  0  0
   50.5570   83.3100   22.6840 C   0  0  0  0  0  0  0  0  0  0  0  0
   51.4680   83.9810   23.6330 C   0  0  0  0  0  0  0  0  0  0  0  0
   50.9230   84.4570   24.8680 N   0  0  0  0  0  4  0  0  0  0  0  0
   50.7010   83.2580   25.7260 C   0  0  0  0  0  0  0  0  0  0  0  0
   51.9210   85.2230   25.5850 C   0  0  0  0  0  0  0  0  0  0  0  0
   53.7100   80.4680   17.5090 H   0  0  0  0  0  0  0  0  0  0  0  0
   52.6440   81.7390   19.3470 H   0  0  0  0  0  0  0  0  0  0  0  0
   52.7960   85.2780   17.0750 H   0  0  0  0  0  0  0  0  0  0  0  0
   53.8650   84.0400   15.2410 H   0  0  0  0  0  0  0  0  0  0  0  0
   50.9700   84.6520   19.2260 H   0  0  0  0  0  0  0  0  0  0  0  0
   51.9330   88.9360   17.8440 H   0  0  0  0  0  0  0  0  0  0  0  0
   53.4900   88.8520   16.8870 H   0  0  0  0  0  0  0  0  0  0  0  0
   52.9300   90.4030   17.5930 H   0  0  0  0  0  0  0  0  0  0  0  0
   56.5660   90.4820   21.5970 H   0  0  0  0  0  0  0  0  0  0  0  0
   57.1320   88.9740   23.4630 H   0  0  0  0  0  0  0  0  0  0  0  0
   55.9680   86.8310   23.6020 H   0  0  0  0  0  0  0  0  0  0  0  0
   54.2450   86.2020   21.8850 H   0  0  0  0  0  0  0  0  0  0  0  0
   51.2800   81.7660   21.3930 H   0  0  0  0  0  0  0  0  0  0  0  0
   50.1470   82.9460   20.6480 H   0  0  0  0  0  0  0  0  0  0  0  0
   49.9430   82.5070   23.1930 H   0  0  0  0  0  0  0  0  0  0  0  0
   49.7430   84.0940   22.4500 H   0  0  0  0  0  0  0  0  0  0  0  0
   52.0590   84.8080   23.1280 H   0  0  0  0  0  0  0  0  0  0  0  0
   52.2980   83.2460   23.8920 H   0  0  0  0  0  0  0  0  0  0  0  0
   50.0500   84.9810   24.8170 H   0  0  0  0  0  0  0  0  0  0  0  0
   50.2930   83.5540   26.7010 H   0  0  0  0  0  0  0  0  0  0  0  0
   50.0340   82.5500   25.1940 H   0  0  0  0  0  0  0  0  0  0  0  0
   51.7190   82.8520   25.8950 H   0  0  0  0  0  0  0  0  0  0  0  0
   52.6630   85.6810   24.8910 H   0  0  0  0  0  0  0  0  0  0  0  0
   51.4050   86.0660   26.0860 H   0  0  0  0  0  0  0  0  0  0  0  0
   52.4180   84.6480   26.3880 H   0  0  0  0  0  0  0  0  0  0  0  0
  1  2  1  0  0  0  0
  2  3  1  0  0  0  0
  3 33  1  0  0  0  0
  3  4  2  0  0  0  0
  4 34  1  0  0  0  0
  5  4  1  0  0  0  0
  5  8  1  0  0  0  0
  6  5  2  0  0  0  0
  7  2  2  0  0  0  0
  7  6  1  0  0  0  0
  8 37  1  6  0  0  0
  8 14  1  0  0  0  0
  8  9  1  0  0  0  0
  9 10  1  0  0  0  0
  9 27  1  0  0  0  0
 10 11  2  0  0  0  0
 12 13  2  0  0  0  0
 12 10  1  0  0  0  0
 14 12  1  0  0  0  0
 15 14  2  0  0  0  0
 15 17  1  0  0  0  0
 16 15  1  0  0  0  0
 17 18  1  0  0  0  0
 18 26  1  0  0  0  0
 19 18  1  0  0  0  0
 19 23  1  0  0  0  0
 20 19  2  0  0  0  0
 21 20  1  0  0  0  0
 21 17  2  0  0  0  0
 22 38  1  0  0  0  0
 22 21  1  0  0  0  0
 23 24  2  0  0  0  0
 24 25  1  0  0  0  0
 24 42  1  0  0  0  0
 25 43  1  0  0  0  0
 26 44  1  0  0  0  0
 26 25  2  0  0  0  0
 27 45  1  0  0  0  0
 27 28  1  0  0  0  0
 28 47  1  0  0  0  0
 28 29  1  0  0  0  0
 29 50  1  0  0  0  0
 29 30  1  0  0  0  0
 30 32  1  0  0  0  0
 30 31  1  0  0  0  0
 31 54  1  0  0  0  0
 31 52  1  0  0  0  0
 32 56  1  0  0  0  0
 32 57  1  0  0  0  0
 35  6  1  0  0  0  0
 36  7  1  0  0  0  0
 39 22  1  0  0  0  0
 40 22  1  0  0  0  0
 41 23  1  0  0  0  0
 46 27  1  0  0  0  0
 48 28  1  0  0  0  0
 49 29  1  0  0  0  0
 51 30  1  0  0  0  0
 53 31  1  0  0  0  0
 55 32  1  0  0  0  0
M  END
>  <Pose>
1

>  <Score>
-6.30

$$$$
