
 OpenBabel03202210083D

 62 66  0  0  1  0  0  0  0  0999 V2000
   51.0380   81.9780   19.2790 B   0  0  0  0  0  0  0  0  0  0  0  0
   52.2460   83.2750   19.9850 C   0  0  0  0  0  0  0  0  0  0  0  0
   52.0720   83.8370   21.2360 C   0  0  0  0  0  0  0  0  0  0  0  0
   52.9440   84.7740   21.7480 C   0  0  0  0  0  0  0  0  0  0  0  0
   54.0240   85.1790   21.0160 C   0  0  0  0  0  0  0  0  0  0  0  0
   54.2000   84.6270   19.7790 C   0  0  0  0  0  0  0  0  0  0  0  0
   53.3410   83.6910   19.2520 C   0  0  0  0  0  0  0  0  0  0  0  0
   54.9710   86.1340   21.5010 C   0  0  2  0  0  0  0  0  0  0  0  0
   55.3220   86.2540   22.8540 N   0  0  0  0  0  0  0  0  0  0  0  0
   56.2150   87.4000   22.8530 C   0  0  0  0  0  0  0  0  0  0  0  0
   57.1520   87.6680   23.6800 O   0  0  0  0  0  0  0  0  0  0  0  0
   55.8580   88.2350   21.7110 C   0  0  0  0  0  0  0  0  0  0  0  0
   56.3520   89.3320   21.2960 O   0  0  0  0  0  0  0  0  0  0  0  0
   54.7460   87.5380   21.0690 C   0  0  0  0  0  0  0  0  0  0  0  0
   53.8150   88.0330   20.2750 C   0  0  0  0  0  0  0  0  0  0  0  0
   52.8640   87.1940   19.7120 O   0  0  0  0  0  0  0  0  0  0  0  0
   53.7290   89.4490   19.9530 C   0  0  0  0  0  0  0  0  0  0  0  0
   53.8160   90.0280   18.7430 N   0  0  0  0  0  0  0  0  0  0  0  0
   53.6480   91.3660   18.8550 C   0  0  0  0  0  0  0  0  0  0  0  0
   53.4540   91.6140   20.1610 N   0  0  0  0  0  0  0  0  0  0  0  0
   53.4960   90.4830   20.8610 C   0  0  0  0  0  0  0  0  0  0  0  0
   53.3370   90.2630   22.3230 C   0  0  0  0  0  0  0  0  0  0  0  0
   53.7000   92.2120   17.7680 C   0  0  0  0  0  0  0  0  0  0  0  0
   53.9290   91.7240   16.5030 C   0  0  0  0  0  0  0  0  0  0  0  0
   54.1040   90.3650   16.3710 C   0  0  0  0  0  0  0  0  0  0  0  0
   54.0430   89.5730   17.4760 C   0  0  0  0  0  0  0  0  0  0  0  0
   55.0890   85.6000   24.1010 C   0  0  0  0  0  0  0  0  0  0  0  0
   54.4020   86.2230   25.2110 C   0  0  0  0  0  0  0  0  0  0  0  0
   53.4290   85.3820   26.0030 C   0  0  0  0  0  0  0  0  0  0  0  0
   52.0540   85.6050   25.5650 N   0  0  0  0  0  4  0  0  0  0  0  0
   51.0980   85.6200   26.6320 C   0  0  0  0  0  0  0  0  0  0  0  0
   50.5440   84.2740   26.9990 C   0  0  0  0  0  0  0  0  0  0  0  0
   51.2540   83.2250   26.4790 O   0  0  0  0  0  0  0  0  0  0  0  0
   51.4720   83.2740   25.1260 C   0  0  0  0  0  0  0  0  0  0  0  0
   51.6390   84.6530   24.5790 C   0  0  0  0  0  0  0  0  0  0  0  0
   51.2130   83.5220   21.8320 H   0  0  0  0  0  0  0  0  0  0  0  0
   52.7300   85.1770   22.7660 H   0  0  0  0  0  0  0  0  0  0  0  0
   55.0560   84.8990   19.1340 H   0  0  0  0  0  0  0  0  0  0  0  0
   53.4880   83.2500   18.2560 H   0  0  0  0  0  0  0  0  0  0  0  0
   55.9520   85.8740   20.9760 H   0  0  0  0  0  0  0  0  0  0  0  0
   52.6960   89.3730   22.4730 H   0  0  0  0  0  0  0  0  0  0  0  0
   52.8320   91.1450   22.7380 H   0  0  0  0  0  0  0  0  0  0  0  0
   54.3450   90.1350   22.7550 H   0  0  0  0  0  0  0  0  0  0  0  0
   53.5600   93.2720   17.8930 H   0  0  0  0  0  0  0  0  0  0  0  0
   53.9770   92.3400   15.6330 H   0  0  0  0  0  0  0  0  0  0  0  0
   54.2820   89.9660   15.3890 H   0  0  0  0  0  0  0  0  0  0  0  0
   54.1920   88.4870   17.3750 H   0  0  0  0  0  0  0  0  0  0  0  0
   56.0470   85.1230   24.4880 H   0  0  0  0  0  0  0  0  0  0  0  0
   54.4870   84.6740   23.8290 H   0  0  0  0  0  0  0  0  0  0  0  0
   54.9910   86.9250   25.8620 H   0  0  0  0  0  0  0  0  0  0  0  0
   53.7060   87.0000   24.7300 H   0  0  0  0  0  0  0  0  0  0  0  0
   53.4270   85.6580   27.0820 H   0  0  0  0  0  0  0  0  0  0  0  0
   53.6540   84.3190   25.8170 H   0  0  0  0  0  0  0  0  0  0  0  0
   52.0400   86.5610   25.1300 H   0  0  0  0  0  0  0  0  0  0  0  0
   51.4090   86.1940   27.5290 H   0  0  0  0  0  0  0  0  0  0  0  0
   50.2140   86.2030   26.2300 H   0  0  0  0  0  0  0  0  0  0  0  0
   49.4400   84.1790   26.8000 H   0  0  0  0  0  0  0  0  0  0  0  0
   50.6120   84.1860   28.1220 H   0  0  0  0  0  0  0  0  0  0  0  0
   50.6990   82.6930   24.5510 H   0  0  0  0  0  0  0  0  0  0  0  0
   52.4330   82.7190   24.9230 H   0  0  0  0  0  0  0  0  0  0  0  0
   50.6420   84.9870   24.2020 H   0  0  0  0  0  0  0  0  0  0  0  0
   52.3250   84.7140   23.7110 H   0  0  0  0  0  0  0  0  0  0  0  0
  1  2  1  0  0  0  0
  2  3  1  0  0  0  0
  3  4  2  0  0  0  0
  3 36  1  0  0  0  0
  4 37  1  0  0  0  0
  5  8  1  0  0  0  0
  5  4  1  0  0  0  0
  6  5  2  0  0  0  0
  7  6  1  0  0  0  0
  7  2  2  0  0  0  0
  8 40  1  6  0  0  0
  8  9  1  0  0  0  0
  9 27  1  0  0  0  0
 10  9  1  0  0  0  0
 10 11  2  0  0  0  0
 12 10  1  0  0  0  0
 13 12  2  0  0  0  0
 14  8  1  0  0  0  0
 14 12  1  0  0  0  0
 15 14  2  0  0  0  0
 16 15  1  0  0  0  0
 17 15  1  0  0  0  0
 17 21  2  0  0  0  0
 18 19  1  0  0  0  0
 18 17  1  0  0  0  0
 19 20  2  0  0  0  0
 20 21  1  0  0  0  0
 21 22  1  0  0  0  0
 22 41  1  0  0  0  0
 22 42  1  0  0  0  0
 22 43  1  0  0  0  0
 23 44  1  0  0  0  0
 23 19  1  0  0  0  0
 24 23  2  0  0  0  0
 25 24  1  0  0  0  0
 25 26  2  0  0  0  0
 26 18  1  0  0  0  0
 27 48  1  0  0  0  0
 27 28  1  0  0  0  0
 28 50  1  0  0  0  0
 28 29  1  0  0  0  0
 29 52  1  0  0  0  0
 30 29  1  0  0  0  0
 30 31  1  0  0  0  0
 31 32  1  0  0  0  0
 31 55  1  0  0  0  0
 32 58  1  0  0  0  0
 33 32  1  0  0  0  0
 34 33  1  0  0  0  0
 35 34  1  0  0  0  0
 35 30  1  0  0  0  0
 38  6  1  0  0  0  0
 39  7  1  0  0  0  0
 45 24  1  0  0  0  0
 46 25  1  0  0  0  0
 47 26  1  0  0  0  0
 49 27  1  0  0  0  0
 51 28  1  0  0  0  0
 53 29  1  0  0  0  0
 54 30  1  0  0  0  0
 56 31  1  0  0  0  0
 57 32  1  0  0  0  0
 59 34  1  0  0  0  0
 60 34  1  0  0  0  0
 61 35  1  0  0  0  0
 62 35  1  0  0  0  0
M  END
>  <Pose>
1

>  <Score>
-5.89

$$$$
