
 OpenBabel03202210083D

 44 47  0  0  0  0  0  0  0  0999 V2000
   57.7190   98.6960   25.6200 B   0  0  0  0  0  0  0  0  0  0  0  0
   56.9380   96.9590   25.4760 C   0  0  0  0  0  0  0  0  0  0  0  0
   57.4170   96.0190   24.6020 C   0  0  0  0  0  0  0  0  0  0  0  0
   56.8330   94.7490   24.5030 C   0  0  0  0  0  0  0  0  0  0  0  0
   55.7580   94.3610   25.2630 C   0  0  0  0  0  0  0  0  0  0  0  0
   55.2920   95.3500   26.1510 C   0  0  0  0  0  0  0  0  0  0  0  0
   55.8560   96.5910   26.2520 C   0  0  0  0  0  0  0  0  0  0  0  0
   55.0900   93.1340   25.2200 N   0  0  0  0  0  0  0  0  0  0  0  0
   55.6440   91.8900   25.5450 C   0  0  0  0  0  0  0  0  0  0  0  0
   55.1710   91.2400   26.5610 O   0  0  0  0  0  0  0  0  0  0  0  0
   56.7320   91.1850   24.8690 C   0  0  0  0  0  0  0  0  0  0  0  0
   56.2760   89.8770   24.3710 N   0  0  0  0  0  0  0  0  0  0  0  0
   55.8110   89.7080   23.1360 N   0  0  0  0  0  0  0  0  0  0  0  0
   55.3620   88.4970   22.6980 C   0  0  0  0  0  0  0  0  0  0  0  0
   55.3920   87.4460   23.5320 N   0  0  0  0  0  0  0  0  0  0  0  0
   54.8980   86.2590   22.8680 C   0  0  0  0  0  0  0  0  0  0  0  0
   54.5230   86.6630   21.4730 C   0  0  0  0  0  0  0  0  0  0  0  0
   54.7940   88.0890   21.4590 N   0  0  0  0  0  0  0  0  0  0  0  0
   54.5120   88.9100   20.3430 C   0  0  0  0  0  0  0  0  0  0  0  0
   53.4740   88.6910   19.4780 C   0  0  0  0  0  0  0  0  0  0  0  0
   53.2340   89.5050   18.3850 C   0  0  0  0  0  0  0  0  0  0  0  0
   54.0630   90.5830   18.1420 C   0  0  0  0  0  0  0  0  0  0  0  0
   55.0990   90.8190   18.9890 C   0  0  0  0  0  0  0  0  0  0  0  0
   55.3320   90.0030   20.0750 C   0  0  0  0  0  0  0  0  0  0  0  0
   55.8490   87.5540   24.7870 C   0  0  0  0  0  0  0  0  0  0  0  0
   55.8750   86.5700   25.5640 O   0  0  0  0  0  0  0  0  0  0  0  0
   56.2890   88.8020   25.1790 C   0  0  0  0  0  0  0  0  0  0  0  0
   56.7280   88.9530   26.3470 O   0  0  0  0  0  0  0  0  0  0  0  0
   58.2640   96.2710   23.9790 H   0  0  0  0  0  0  0  0  0  0  0  0
   57.2540   94.0300   23.8050 H   0  0  0  0  0  0  0  0  0  0  0  0
   54.4440   95.0910   26.7720 H   0  0  0  0  0  0  0  0  0  0  0  0
   55.4820   97.3510   26.9420 H   0  0  0  0  0  0  0  0  0  0  0  0
   54.0770   93.1320   24.9130 H   0  0  0  0  0  0  0  0  0  0  0  0
   57.5880   90.9540   25.5480 H   0  0  0  0  0  0  0  0  0  0  0  0
   57.0930   91.7630   24.0010 H   0  0  0  0  0  0  0  0  0  0  0  0
   55.7680   85.5680   22.7720 H   0  0  0  0  0  0  0  0  0  0  0  0
   54.0620   85.7730   23.4210 H   0  0  0  0  0  0  0  0  0  0  0  0
   53.4150   86.5030   21.3950 H   0  0  0  0  0  0  0  0  0  0  0  0
   55.0710   86.1250   20.6730 H   0  0  0  0  0  0  0  0  0  0  0  0
   52.8350   87.8610   19.6640 H   0  0  0  0  0  0  0  0  0  0  0  0
   52.4060   89.3040   17.7150 H   0  0  0  0  0  0  0  0  0  0  0  0
   53.8670   91.2230   17.2720 H   0  0  0  0  0  0  0  0  0  0  0  0
   55.7590   91.6500   18.8220 H   0  0  0  0  0  0  0  0  0  0  0  0
   56.1460   90.1950   20.7280 H   0  0  0  0  0  0  0  0  0  0  0  0
  2  1  1  0  0  0  0
  2  7  1  0  0  0  0
  3  2  2  0  0  0  0
  4  3  1  0  0  0  0
  4  5  2  0  0  0  0
  5  6  1  0  0  0  0
  6  7  2  0  0  0  0
  6 31  1  0  0  0  0
  7 32  1  0  0  0  0
  8  5  1  0  0  0  0
  8  9  1  0  0  0  0
  9 10  2  0  0  0  0
 11  9  1  0  0  0  0
 11 34  1  0  0  0  0
 12 11  1  0  0  0  0
 12 27  1  0  0  0  0
 13 12  1  0  0  0  0
 14 13  2  0  0  0  0
 14 15  1  0  0  0  0
 15 25  1  0  0  0  0
 16 37  1  0  0  0  0
 16 15  1  0  0  0  0
 17 16  1  0  0  0  0
 18 17  1  0  0  0  0
 18 14  1  0  0  0  0
 19 18  1  0  0  0  0
 20 40  1  0  0  0  0
 20 19  2  0  0  0  0
 21 20  1  0  0  0  0
 22 21  2  0  0  0  0
 22 23  1  0  0  0  0
 23 24  2  0  0  0  0
 24 19  1  0  0  0  0
 24 44  1  0  0  0  0
 25 27  1  0  0  0  0
 25 26  2  0  0  0  0
 27 28  2  0  0  0  0
 29  3  1  0  0  0  0
 30  4  1  0  0  0  0
 33  8  1  0  0  0  0
 35 11  1  0  0  0  0
 36 16  1  0  0  0  0
 38 17  1  0  0  0  0
 39 17  1  0  0  0  0
 41 21  1  0  0  0  0
 42 22  1  0  0  0  0
 43 23  1  0  0  0  0
M  END
>  <Pose>
1

>  <Score>
-7.28

$$$$
