
 OpenBabel03202210083D

 44 47  0  0  0  0  0  0  0  0999 V2000
   53.8170   89.9530   16.9930 B   0  0  0  0  0  0  0  0  0  0  0  0
   54.3130   90.6490   18.6900 C   0  0  0  0  0  0  0  0  0  0  0  0
   53.5550   91.5770   19.3590 C   0  0  0  0  0  0  0  0  0  0  0  0
   53.9630   92.0560   20.5970 C   0  0  0  0  0  0  0  0  0  0  0  0
   55.1210   91.6450   21.2210 C   0  0  0  0  0  0  0  0  0  0  0  0
   55.8710   90.6920   20.5060 C   0  0  0  0  0  0  0  0  0  0  0  0
   55.4750   90.2230   19.2940 C   0  0  0  0  0  0  0  0  0  0  0  0
   55.5940   92.1180   22.4660 N   0  0  0  0  0  0  0  0  0  0  0  0
   54.9160   92.9910   23.3270 C   0  0  0  0  0  0  0  0  0  0  0  0
   54.0980   93.8260   22.8860 O   0  0  0  0  0  0  0  0  0  0  0  0
   55.1750   92.9330   24.8230 C   0  0  0  0  0  0  0  0  0  0  0  0
   55.7530   94.1960   25.2400 N   0  0  0  0  0  0  0  0  0  0  0  0
   57.0300   94.5350   25.0640 N   0  0  0  0  0  0  0  0  0  0  0  0
   57.2330   95.7390   25.5480 N   0  0  0  0  0  0  0  0  0  0  0  0
   56.0640   96.1990   26.0550 C   0  0  0  0  0  0  0  0  0  0  0  0
   55.1600   95.2330   25.8560 C   0  0  0  0  0  0  0  0  0  0  0  0
   53.9890   95.7380   26.3820 C   0  0  0  0  0  0  0  0  0  0  0  0
   52.9010   95.0890   26.3730 O   0  0  0  0  0  0  0  0  0  0  0  0
   54.1560   96.9700   26.8900 N   0  0  0  0  0  0  0  0  0  0  0  0
   55.4700   97.2680   26.6840 C   0  0  0  0  0  0  0  0  0  0  0  0
   55.9860   98.3630   27.0390 O   0  0  0  0  0  0  0  0  0  0  0  0
   53.1890   97.8220   27.5210 C   0  0  0  0  0  0  0  0  0  0  0  0
   53.0230   99.1290   27.1140 C   0  0  0  0  0  0  0  0  0  0  0  0
   52.0880   99.9520   27.7080 C   0  0  0  0  0  0  0  0  0  0  0  0
   51.2740   99.5140   28.7380 C   0  0  0  0  0  0  0  0  0  0  0  0
   51.4380   98.2070   29.1470 C   0  0  0  0  0  0  0  0  0  0  0  0
   52.3780   97.3850   28.5460 C   0  0  0  0  0  0  0  0  0  0  0  0
   50.2730  100.4260   29.3540 C   0  0  0  0  0  0  0  0  0  0  0  0
   52.6440   91.9240   18.9080 H   0  0  0  0  0  0  0  0  0  0  0  0
   53.3320   92.7940   21.1180 H   0  0  0  0  0  0  0  0  0  0  0  0
   56.8000   90.3560   20.9970 H   0  0  0  0  0  0  0  0  0  0  0  0
   56.0890   89.4850   18.7740 H   0  0  0  0  0  0  0  0  0  0  0  0
   56.5580   91.7630   22.7590 H   0  0  0  0  0  0  0  0  0  0  0  0
   55.8820   92.1280   25.0450 H   0  0  0  0  0  0  0  0  0  0  0  0
   54.1820   92.8060   25.3220 H   0  0  0  0  0  0  0  0  0  0  0  0
   57.7260   93.9100   24.6080 H   0  0  0  0  0  0  0  0  0  0  0  0
   58.1230   96.2950   25.5680 H   0  0  0  0  0  0  0  0  0  0  0  0
   53.6540   99.4860   26.3070 H   0  0  0  0  0  0  0  0  0  0  0  0
   51.9470  100.9920   27.3920 H   0  0  0  0  0  0  0  0  0  0  0  0
   50.8060   97.8370   29.9600 H   0  0  0  0  0  0  0  0  0  0  0  0
   52.5090   96.3560   28.8670 H   0  0  0  0  0  0  0  0  0  0  0  0
   50.7420  101.3440   29.7760 H   0  0  0  0  0  0  0  0  0  0  0  0
   49.8370   99.8860   30.2290 H   0  0  0  0  0  0  0  0  0  0  0  0
   49.4460  100.6700   28.6690 H   0  0  0  0  0  0  0  0  0  0  0  0
  1  2  1  0  0  0  0
  2  7  2  0  0  0  0
  2  3  1  0  0  0  0
  3  4  2  0  0  0  0
  4 30  1  0  0  0  0
  4  5  1  0  0  0  0
  5  8  1  0  0  0  0
  6 31  1  0  0  0  0
  6  5  2  0  0  0  0
  7  6  1  0  0  0  0
  8 33  1  0  0  0  0
  8  9  1  0  0  0  0
  9 11  1  0  0  0  0
 10  9  2  0  0  0  0
 11 34  1  0  0  0  0
 11 12  1  0  0  0  0
 11 35  1  0  0  0  0
 12 16  1  0  0  0  0
 13 12  1  0  0  0  0
 13 14  1  0  0  0  0
 14 37  1  0  0  0  0
 14 15  1  0  0  0  0
 15 20  1  0  0  0  0
 16 15  2  0  0  0  0
 16 17  1  0  0  0  0
 17 19  1  0  0  0  0
 18 17  2  0  0  0  0
 19 22  1  0  0  0  0
 20 19  1  0  0  0  0
 20 21  2  0  0  0  0
 22 27  1  0  0  0  0
 23 22  2  0  0  0  0
 23 24  1  0  0  0  0
 24 25  2  0  0  0  0
 25 26  1  0  0  0  0
 25 28  1  0  0  0  0
 26 40  1  0  0  0  0
 27 41  1  0  0  0  0
 27 26  2  0  0  0  0
 28 42  1  0  0  0  0
 28 43  1  0  0  0  0
 29  3  1  0  0  0  0
 32  7  1  0  0  0  0
 36 13  1  0  0  0  0
 38 23  1  0  0  0  0
 39 24  1  0  0  0  0
 44 28  1  0  0  0  0
M  END
>  <Pose>
1

>  <Score>
-9.44

$$$$
