
 OpenBabel03202210083D

 52 55  0  0  1  0  0  0  0  0999 V2000
   52.2680   91.3350   18.5730 B   0  0  0  0  0  0  0  0  0  0  0  0
   53.1950   91.9110   20.1190 C   0  0  0  0  0  0  0  0  0  0  0  0
   52.7110   92.9800   20.8530 C   0  0  0  0  0  0  0  0  0  0  0  0
   53.3150   93.4520   21.9700 C   0  0  0  0  0  0  0  0  0  0  0  0
   54.5150   92.7990   22.4010 C   0  0  0  0  0  0  0  0  0  0  0  0
   54.9680   91.7410   21.6510 C   0  0  0  0  0  0  0  0  0  0  0  0
   54.3370   91.2780   20.5180 C   0  0  0  0  0  0  0  0  0  0  0  0
   55.0280   93.2880   23.5770 N   0  0  0  0  0  0  0  0  0  0  0  0
   55.5300   93.7670   24.7320 C   0  0  0  0  0  0  0  0  0  0  0  0
   55.8870   93.0960   25.7940 O   0  0  0  0  0  0  0  0  0  0  0  0
   55.7660   95.2180   24.9570 C   0  0  2  0  0  0  0  0  0  0  0  0
   57.2260   95.5870   25.1450 C   0  0  0  0  0  0  0  0  0  0  0  0
   57.3470   97.0680   24.9880 C   0  0  0  0  0  0  0  0  0  0  0  0
   58.1970   97.5510   24.2620 O   0  0  0  0  0  0  0  0  0  0  0  0
   56.4400   97.8500   25.7180 N   0  0  0  0  0  0  0  0  0  0  0  0
   55.2190   97.3040   26.1770 C   0  0  0  0  0  0  0  0  0  0  0  0
   54.3840   98.0140   26.9610 N   0  0  0  0  0  0  0  0  0  0  0  0
   53.2620   97.5510   27.5120 C   0  0  0  0  0  0  0  0  0  0  0  0
   52.9780   96.2520   27.2330 N   0  0  0  0  0  0  0  0  0  0  0  0
   53.7710   95.4780   26.4490 C   0  0  0  0  0  0  0  0  0  0  0  0
   54.9140   95.9540   25.8830 C   0  0  0  0  0  0  0  0  0  0  0  0
   53.4080   94.1540   26.2160 O   0  0  0  0  0  0  0  0  0  0  0  0
   52.3760   98.3320   28.2910 N   0  0  0  0  0  0  0  0  0  0  0  0
   52.6470   99.6260   28.8620 C   0  0  0  0  0  0  0  0  0  0  0  0
   51.3840  100.4740   28.7490 C   0  0  0  0  0  0  0  0  0  0  0  0
   50.5490  100.0910   27.5620 C   0  0  2  0  0  0  0  0  0  0  0  0
   50.1160   98.6690   27.6330 C   0  0  0  0  0  0  0  0  0  0  0  0
   51.0250   97.8220   28.5530 C   0  0  0  0  0  0  0  0  0  0  0  0
   51.2140  100.4310   26.2820 C   0  0  0  0  0  0  0  0  0  0  0  0
   52.4160  100.7640   26.3240 O   0  0  0  0  0  0  0  0  0  0  0  0
   50.5660  100.4040   25.0270 N   0  0  0  0  0  0  0  0  0  0  0  0
   51.7840   93.4830   20.5140 H   0  0  0  0  0  0  0  0  0  0  0  0
   52.9290   94.2980   22.5400 H   0  0  0  0  0  0  0  0  0  0  0  0
   55.8710   91.2120   21.9630 H   0  0  0  0  0  0  0  0  0  0  0  0
   54.7140   90.4400   19.9440 H   0  0  0  0  0  0  0  0  0  0  0  0
   54.4100   92.2960   24.2470 H   0  0  0  0  0  0  0  0  0  0  0  0
   55.5800   95.6390   23.8780 H   0  0  0  0  0  0  0  0  0  0  0  0
   57.8770   95.1290   24.3760 H   0  0  0  0  0  0  0  0  0  0  0  0
   57.5970   95.3020   26.1330 H   0  0  0  0  0  0  0  0  0  0  0  0
   56.6210   98.8610   25.9600 H   0  0  0  0  0  0  0  0  0  0  0  0
   53.9990   93.5110   25.6930 H   0  0  0  0  0  0  0  0  0  0  0  0
   53.4560  100.1490   28.3240 H   0  0  0  0  0  0  0  0  0  0  0  0
   52.9320   99.6220   29.9280 H   0  0  0  0  0  0  0  0  0  0  0  0
   50.8350  100.4690   29.7030 H   0  0  0  0  0  0  0  0  0  0  0  0
   51.7100  101.5330   28.6120 H   0  0  0  0  0  0  0  0  0  0  0  0
   49.6150  100.7160   27.5980 H   0  0  0  0  0  0  0  0  0  0  0  0
   50.1660   98.1970   26.6110 H   0  0  0  0  0  0  0  0  0  0  0  0
   49.0740   98.5300   27.9710 H   0  0  0  0  0  0  0  0  0  0  0  0
   50.7240   97.9830   29.5870 H   0  0  0  0  0  0  0  0  0  0  0  0
   50.9190   96.7800   28.1970 H   0  0  0  0  0  0  0  0  0  0  0  0
   51.0190  100.0350   24.1710 H   0  0  0  0  0  0  0  0  0  0  0  0
   49.5930  100.7680   24.9610 H   0  0  0  0  0  0  0  0  0  0  0  0
  1  2  1  0  0  0  0
  2  7  2  0  0  0  0
  2  3  1  0  0  0  0
  3  4  2  0  0  0  0
  4  5  1  0  0  0  0
  4 33  1  0  0  0  0
  5  8  1  0  0  0  0
  6 34  1  0  0  0  0
  6  5  2  0  0  0  0
  7  6  1  0  0  0  0
  8 36  1  0  0  0  0
  8  9  1  0  0  0  0
  9 11  1  0  0  0  0
  9 10  2  0  0  0  0
 11 37  1  6  0  0  0
 11 12  1  0  0  0  0
 11 21  1  0  0  0  0
 12 39  1  0  0  0  0
 13 12  1  0  0  0  0
 13 15  1  0  0  0  0
 14 13  2  0  0  0  0
 15 40  1  0  0  0  0
 15 16  1  0  0  0  0
 16 17  1  0  0  0  0
 17 18  2  0  0  0  0
 18 23  1  0  0  0  0
 19 18  1  0  0  0  0
 20 19  2  0  0  0  0
 21 16  2  0  0  0  0
 21 20  1  0  0  0  0
 22 20  1  0  0  0  0
 23 28  1  0  0  0  0
 23 24  1  0  0  0  0
 24 43  1  0  0  0  0
 25 24  1  0  0  0  0
 25 44  1  0  0  0  0
 26 46  1  1  0  0  0
 26 27  1  0  0  0  0
 26 25  1  0  0  0  0
 27 48  1  0  0  0  0
 27 28  1  0  0  0  0
 28 49  1  0  0  0  0
 29 30  2  0  0  0  0
 29 26  1  0  0  0  0
 31 29  1  0  0  0  0
 32  3  1  0  0  0  0
 35  7  1  0  0  0  0
 38 12  1  0  0  0  0
 41 22  1  0  0  0  0
 42 24  1  0  0  0  0
 45 25  1  0  0  0  0
 47 27  1  0  0  0  0
 50 28  1  0  0  0  0
 51 31  1  0  0  0  0
 52 31  1  0  0  0  0
M  END
>  <Pose>
1

>  <Score>
-9.28

$$$$
