
 OpenBabel03202210083D

 42 45  0  0  0  0  0  0  0  0999 V2000
   54.8640   96.3380   27.3270 B   0  0  0  0  0  0  0  0  0  0  0  0
   54.8270   95.1290   25.8450 C   0  0  0  0  0  0  0  0  0  0  0  0
   55.9310   94.9860   25.0310 C   0  0  0  0  0  0  0  0  0  0  0  0
   55.8870   94.1090   23.9670 C   0  0  0  0  0  0  0  0  0  0  0  0
   54.7750   93.3480   23.6620 C   0  0  0  0  0  0  0  0  0  0  0  0
   53.6760   93.5010   24.4880 C   0  0  0  0  0  0  0  0  0  0  0  0
   53.7050   94.3740   25.5560 C   0  0  0  0  0  0  0  0  0  0  0  0
   54.7540   92.4450   22.5530 N   0  0  0  0  0  0  0  0  0  0  0  0
   54.2550   92.7010   21.3690 N   0  0  0  0  0  0  0  0  0  0  0  0
   54.3770   91.6600   20.5220 C   0  0  0  0  0  0  0  0  0  0  0  0
   55.0030   90.6720   21.2320 C   0  0  0  0  0  0  0  0  0  0  0  0
   55.2280   91.1830   22.4930 C   0  0  0  0  0  0  0  0  0  0  0  0
   55.8680   90.4940   23.5900 N   0  0  0  0  0  0  0  0  0  0  0  0
   55.6350   89.2700   24.0410 C   0  0  0  0  0  0  0  0  0  0  0  0
   56.4570   88.9830   25.1050 C   0  0  0  0  0  0  0  0  0  0  0  0
   57.2200   90.1110   25.2900 C   0  0  0  0  0  0  0  0  0  0  0  0
   56.8410   91.0350   24.3420 C   0  0  0  0  0  0  0  0  0  0  0  0
   55.3460   89.3530   20.7150 C   0  0  0  0  0  0  0  0  0  0  0  0
   56.4180   88.8500   21.1300 O   0  0  0  0  0  0  0  0  0  0  0  0
   54.5430   88.6430   19.7960 N   0  0  0  0  0  0  0  0  0  0  0  0
   54.6410   87.2050   19.7440 C   0  0  0  0  0  0  0  0  0  0  0  0
   53.3400   86.6340   20.2250 C   0  0  0  0  0  0  0  0  0  0  0  0
   52.2460   87.5930   20.1220 N   0  0  0  0  0  0  0  0  0  0  0  0
   52.2730   88.6920   19.2170 C   0  0  0  0  0  0  0  0  0  0  0  0
   51.1990   89.1450   18.7530 O   0  0  0  0  0  0  0  0  0  0  0  0
   53.6050   89.2430   18.8750 C   0  0  0  0  0  0  0  0  0  0  0  0
   56.8310   95.5790   25.2480 H   0  0  0  0  0  0  0  0  0  0  0  0
   56.7660   94.0160   23.3420 H   0  0  0  0  0  0  0  0  0  0  0  0
   52.7980   92.9020   24.2500 H   0  0  0  0  0  0  0  0  0  0  0  0
   52.8480   94.4870   26.1910 H   0  0  0  0  0  0  0  0  0  0  0  0
   54.0280   91.6590   19.4850 H   0  0  0  0  0  0  0  0  0  0  0  0
   54.9000   88.5810   23.6340 H   0  0  0  0  0  0  0  0  0  0  0  0
   56.4960   88.0500   25.6870 H   0  0  0  0  0  0  0  0  0  0  0  0
   57.9830   90.2480   26.0470 H   0  0  0  0  0  0  0  0  0  0  0  0
   57.2700   92.0450   24.2290 H   0  0  0  0  0  0  0  0  0  0  0  0
   55.5270   86.8060   20.2540 H   0  0  0  0  0  0  0  0  0  0  0  0
   54.7390   86.9020   18.6600 H   0  0  0  0  0  0  0  0  0  0  0  0
   53.4420   86.2830   21.2710 H   0  0  0  0  0  0  0  0  0  0  0  0
   53.0220   85.7450   19.6230 H   0  0  0  0  0  0  0  0  0  0  0  0
   51.4050   87.4470   20.7570 H   0  0  0  0  0  0  0  0  0  0  0  0
   53.8820   88.9260   17.8490 H   0  0  0  0  0  0  0  0  0  0  0  0
   53.6330   90.3440   18.8830 H   0  0  0  0  0  0  0  0  0  0  0  0
  2  1  1  0  0  0  0
  3 27  1  0  0  0  0
  3  2  2  0  0  0  0
  4  3  1  0  0  0  0
  5  4  2  0  0  0  0
  5  6  1  0  0  0  0
  6  7  2  0  0  0  0
  7  2  1  0  0  0  0
  7 30  1  0  0  0  0
  8  5  1  0  0  0  0
  9  8  1  0  0  0  0
 10 11  1  0  0  0  0
 10  9  2  0  0  0  0
 11 12  2  0  0  0  0
 12  8  1  0  0  0  0
 12 13  1  0  0  0  0
 13 14  1  0  0  0  0
 13 17  1  0  0  0  0
 14 15  2  0  0  0  0
 15 16  1  0  0  0  0
 15 33  1  0  0  0  0
 16 34  1  0  0  0  0
 17 16  2  0  0  0  0
 18 19  2  0  0  0  0
 18 11  1  0  0  0  0
 20 18  1  0  0  0  0
 21 20  1  0  0  0  0
 21 22  1  0  0  0  0
 21 36  1  0  0  0  0
 22 38  1  0  0  0  0
 23 22  1  0  0  0  0
 23 40  1  0  0  0  0
 24 23  1  0  0  0  0
 25 24  2  0  0  0  0
 26 42  1  0  0  0  0
 26 24  1  0  0  0  0
 26 20  1  0  0  0  0
 28  4  1  0  0  0  0
 29  6  1  0  0  0  0
 31 10  1  0  0  0  0
 32 14  1  0  0  0  0
 35 17  1  0  0  0  0
 37 21  1  0  0  0  0
 39 22  1  0  0  0  0
 41 26  1  0  0  0  0
M  END
>  <Pose>
1

>  <Score>
-5.47

$$$$
