
 OpenBabel03202210083D

 47 50  0  0  1  0  0  0  0  0999 V2000
   48.8860  100.3030   28.7490 B   0  0  0  0  0  0  0  0  0  0  0  0
   50.4850   99.4540   28.1250 C   0  0  0  0  0  0  0  0  0  0  0  0
   51.3280  100.0850   27.2350 C   0  0  0  0  0  0  0  0  0  0  0  0
   52.4900   99.4860   26.7720 C   0  0  0  0  0  0  0  0  0  0  0  0
   52.8430   98.2220   27.1940 C   0  0  0  0  0  0  0  0  0  0  0  0
   51.9940   97.5960   28.0850 C   0  0  0  0  0  0  0  0  0  0  0  0
   50.8380   98.1900   28.5470 C   0  0  0  0  0  0  0  0  0  0  0  0
   54.0420   97.6100   26.7120 N   0  0  0  0  0  0  0  0  0  0  0  0
   55.2440   98.1490   26.5940 N   0  0  0  0  0  0  0  0  0  0  0  0
   56.1170   97.2820   26.1100 N   0  0  0  0  0  0  0  0  0  0  0  0
   55.4790   96.1010   25.8910 C   0  0  0  0  0  0  0  0  0  0  0  0
   54.1750   96.3430   26.2810 C   0  0  0  0  0  0  0  0  0  0  0  0
   53.3090   95.3300   26.1700 N   0  0  0  0  0  0  0  0  0  0  0  0
   53.7030   94.1340   25.6980 C   0  0  0  0  0  0  0  0  0  0  0  0
   54.9770   93.8890   25.3140 N   0  0  0  0  0  0  0  0  0  0  0  0
   55.8760   94.8760   25.4100 C   0  0  0  0  0  0  0  0  0  0  0  0
   57.0550   94.6520   25.0560 O   0  0  0  0  0  0  0  0  0  0  0  0
   55.3080   92.5660   24.8190 C   0  0  0  0  0  0  0  0  0  0  0  0
   55.0190   92.4770   23.3420 C   0  0  0  0  0  0  0  0  0  0  0  0
   54.3600   93.3810   22.7620 O   0  0  0  0  0  0  0  0  0  0  0  0
   55.4800   91.3800   22.5780 N   0  0  0  0  0  0  0  0  0  0  0  0
   55.7850   91.5180   21.1730 C   0  0  0  0  0  0  0  0  0  0  0  0
   55.1720   90.3210   20.4690 C   0  0  2  0  0  0  0  0  0  0  0  0
   55.5770   89.1150   20.9810 O   0  0  0  0  0  0  0  0  0  0  0  0
   56.2940   89.1950   22.1490 C   0  0  1  0  0  0  0  0  0  0  0  0
   55.6540   90.0850   23.1950 C   0  0  0  0  0  0  0  0  0  0  0  0
   56.6090   87.8570   22.7510 C   0  0  0  0  0  0  0  0  0  0  0  0
   55.6660   90.3820   19.0200 C   0  0  0  0  0  0  0  0  0  0  0  0
   51.0600  101.0720   26.9010 H   0  0  0  0  0  0  0  0  0  0  0  0
   53.1440   99.9870   26.0750 H   0  0  0  0  0  0  0  0  0  0  0  0
   52.2430   96.6080   28.4320 H   0  0  0  0  0  0  0  0  0  0  0  0
   50.1680   97.6930   29.2510 H   0  0  0  0  0  0  0  0  0  0  0  0
   52.9690   93.3220   25.6190 H   0  0  0  0  0  0  0  0  0  0  0  0
   56.3810   92.3360   24.9570 H   0  0  0  0  0  0  0  0  0  0  0  0
   54.6600   91.7990   25.2910 H   0  0  0  0  0  0  0  0  0  0  0  0
   56.8780   91.5740   20.9860 H   0  0  0  0  0  0  0  0  0  0  0  0
   55.3110   92.4480   20.8220 H   0  0  0  0  0  0  0  0  0  0  0  0
   54.0660   90.4640   20.4660 H   0  0  0  0  0  0  0  0  0  0  0  0
   57.2820   89.6830   21.9050 H   0  0  0  0  0  0  0  0  0  0  0  0
   56.3400   90.1190   24.0610 H   0  0  0  0  0  0  0  0  0  0  0  0
   54.6610   89.7250   23.5090 H   0  0  0  0  0  0  0  0  0  0  0  0
   57.6000   87.8940   23.2510 H   0  0  0  0  0  0  0  0  0  0  0  0
   55.8690   87.5570   23.5340 H   0  0  0  0  0  0  0  0  0  0  0  0
   56.6900   87.0690   21.9600 H   0  0  0  0  0  0  0  0  0  0  0  0
   55.7200   91.4530   18.7560 H   0  0  0  0  0  0  0  0  0  0  0  0
   56.6640   89.9470   18.9110 H   0  0  0  0  0  0  0  0  0  0  0  0
   54.9110   89.9080   18.3380 H   0  0  0  0  0  0  0  0  0  0  0  0
  2  7  1  0  0  0  0
  2  1  1  0  0  0  0
  3  2  2  0  0  0  0
  4  5  2  0  0  0  0
  4  3  1  0  0  0  0
  5  6  1  0  0  0  0
  6 31  1  0  0  0  0
  6  7  2  0  0  0  0
  7 32  1  0  0  0  0
  8  5  1  0  0  0  0
  9  8  1  0  0  0  0
 10  9  2  0  0  0  0
 11 10  1  0  0  0  0
 11 12  2  0  0  0  0
 12  8  1  0  0  0  0
 13 12  1  0  0  0  0
 14 13  2  0  0  0  0
 15 16  1  0  0  0  0
 15 14  1  0  0  0  0
 16 11  1  0  0  0  0
 17 16  2  0  0  0  0
 18 34  1  0  0  0  0
 18 35  1  0  0  0  0
 18 15  1  0  0  0  0
 19 18  1  0  0  0  0
 20 19  2  0  0  0  0
 21 26  1  0  0  0  0
 21 19  1  0  0  0  0
 22 21  1  0  0  0  0
 23 38  1  1  0  0  0
 23 24  1  0  0  0  0
 23 22  1  0  0  0  0
 24 25  1  0  0  0  0
 25 39  1  6  0  0  0
 25 27  1  0  0  0  0
 25 26  1  0  0  0  0
 26 41  1  0  0  0  0
 26 40  1  0  0  0  0
 27 42  1  0  0  0  0
 27 43  1  0  0  0  0
 28 23  1  0  0  0  0
 29  3  1  0  0  0  0
 30  4  1  0  0  0  0
 33 14  1  0  0  0  0
 36 22  1  0  0  0  0
 37 22  1  0  0  0  0
 44 27  1  0  0  0  0
 45 28  1  0  0  0  0
 46 28  1  0  0  0  0
 47 28  1  0  0  0  0
M  END
>  <Pose>
1

>  <Score>
-8.03

$$$$
