
 OpenBabel03202210083D

 47 50  0  0  1  0  0  0  0  0999 V2000
   57.8070   98.7220   25.8390 B   0  0  0  0  0  0  0  0  0  0  0  0
   57.0800   96.9950   25.4420 C   0  0  0  0  0  0  0  0  0  0  0  0
   57.7040   96.1340   24.5810 C   0  0  0  0  0  0  0  0  0  0  0  0
   57.1670   94.8740   24.2950 C   0  0  0  0  0  0  0  0  0  0  0  0
   56.0000   94.4520   24.8620 C   0  0  0  0  0  0  0  0  0  0  0  0
   55.3740   95.3080   25.7210 C   0  0  0  0  0  0  0  0  0  0  0  0
   55.9020   96.5740   26.0150 C   0  0  0  0  0  0  0  0  0  0  0  0
   55.4490   93.1650   24.5740 N   0  0  0  0  0  0  0  0  0  0  0  0
   55.2550   92.5340   23.3130 C   0  0  0  0  0  0  0  0  0  0  0  0
   55.4480   93.0770   22.2040 O   0  0  0  0  0  0  0  0  0  0  0  0
   54.7920   91.1480   23.4750 C   0  0  2  0  0  0  0  0  0  0  0  0
   54.1590   91.1840   24.8610 C   0  0  0  0  0  0  0  0  0  0  0  0
   54.9730   92.2280   25.5600 C   0  0  0  0  0  0  0  0  0  0  0  0
   55.1430   92.1920   26.7930 O   0  0  0  0  0  0  0  0  0  0  0  0
   55.8290   90.1420   23.4230 N   0  0  0  0  0  4  0  0  0  0  0  0
   55.7920   89.2540   24.5600 C   0  0  0  0  0  0  0  0  0  0  0  0
   55.0820   87.9430   24.3050 C   0  0  0  0  0  0  0  0  0  0  0  0
   55.4050   87.4150   23.0040 N   0  0  0  0  0  0  0  0  0  0  0  0
   56.4910   88.0940   22.3370 C   0  0  0  0  0  0  0  0  0  0  0  0
   55.9740   89.5330   22.1510 C   0  0  0  0  0  0  0  0  0  0  0  0
   54.7270   86.3490   22.4040 C   0  0  0  0  0  0  0  0  0  0  0  0
   54.6780   86.0930   21.0480 C   0  0  0  0  0  0  0  0  0  0  0  0
   53.9700   85.0340   20.5030 C   0  0  0  0  0  0  0  0  0  0  0  0
   53.2730   84.1830   21.3180 C   0  0  0  0  0  0  0  0  0  0  0  0
   53.2870   84.3930   22.6820 C   0  0  0  0  0  0  0  0  0  0  0  0
   54.0020   85.4570   23.2020 C   0  0  0  0  0  0  0  0  0  0  0  0
   52.5410   83.0980   20.8340 O   0  0  0  0  0  0  0  0  0  0  0  0
   58.6190   96.4430   24.1260 H   0  0  0  0  0  0  0  0  0  0  0  0
   57.7230   94.2770   23.6170 H   0  0  0  0  0  0  0  0  0  0  0  0
   54.4620   95.0900   26.2190 H   0  0  0  0  0  0  0  0  0  0  0  0
   55.4020   97.2450   26.6950 H   0  0  0  0  0  0  0  0  0  0  0  0
   53.9530   90.8920   22.7860 H   0  0  0  0  0  0  0  0  0  0  0  0
   53.0930   91.4600   24.8090 H   0  0  0  0  0  0  0  0  0  0  0  0
   54.2930   90.1940   25.3310 H   0  0  0  0  0  0  0  0  0  0  0  0
   56.7320   90.7070   23.5780 H   0  0  0  0  0  0  0  0  0  0  0  0
   55.2540   89.7720   25.3830 H   0  0  0  0  0  0  0  0  0  0  0  0
   56.8110   89.0250   24.9460 H   0  0  0  0  0  0  0  0  0  0  0  0
   55.4940   87.2140   25.0630 H   0  0  0  0  0  0  0  0  0  0  0  0
   54.0350   88.0860   24.5290 H   0  0  0  0  0  0  0  0  0  0  0  0
   57.3540   88.1440   23.0310 H   0  0  0  0  0  0  0  0  0  0  0  0
   56.8130   87.6840   21.3940 H   0  0  0  0  0  0  0  0  0  0  0  0
   54.9750   89.5010   21.6520 H   0  0  0  0  0  0  0  0  0  0  0  0
   56.6630   90.1120   21.5230 H   0  0  0  0  0  0  0  0  0  0  0  0
   55.2410   86.7690   20.3800 H   0  0  0  0  0  0  0  0  0  0  0  0
   53.9790   84.8990   19.4510 H   0  0  0  0  0  0  0  0  0  0  0  0
   52.7430   83.7380   23.3550 H   0  0  0  0  0  0  0  0  0  0  0  0
   54.0280   85.6450   24.2750 H   0  0  0  0  0  0  0  0  0  0  0  0
  2  1  1  0  0  0  0
  2  7  1  0  0  0  0
  3  2  2  0  0  0  0
  4  3  1  0  0  0  0
  4  5  2  0  0  0  0
  5  6  1  0  0  0  0
  6  7  2  0  0  0  0
  6 30  1  0  0  0  0
  7 31  1  0  0  0  0
  8  5  1  0  0  0  0
  8 13  1  0  0  0  0
  9 11  1  0  0  0  0
  9  8  1  0  0  0  0
 10  9  2  0  0  0  0
 11 32  1  6  0  0  0
 11 12  1  0  0  0  0
 12 34  1  0  0  0  0
 12 13  1  0  0  0  0
 13 14  2  0  0  0  0
 15 11  1  0  0  0  0
 15 35  1  0  0  0  0
 15 16  1  0  0  0  0
 16 37  1  0  0  0  0
 16 36  1  0  0  0  0
 17 39  1  0  0  0  0
 17 16  1  0  0  0  0
 17 38  1  0  0  0  0
 18 17  1  0  0  0  0
 19 18  1  0  0  0  0
 19 40  1  0  0  0  0
 20 19  1  0  0  0  0
 20 15  1  0  0  0  0
 21 18  1  0  0  0  0
 21 26  1  0  0  0  0
 22 21  2  0  0  0  0
 23 22  1  0  0  0  0
 23 24  2  0  0  0  0
 24 25  1  0  0  0  0
 25 26  2  0  0  0  0
 25 46  1  0  0  0  0
 26 47  1  0  0  0  0
 27 24  1  0  0  0  0
 28  3  1  0  0  0  0
 29  4  1  0  0  0  0
 33 12  1  0  0  0  0
 41 19  1  0  0  0  0
 42 20  1  0  0  0  0
 43 20  1  0  0  0  0
 44 22  1  0  0  0  0
 45 23  1  0  0  0  0
M  END
>  <Pose>
1

>  <Score>
-6.38

$$$$
