
 OpenBabel03202210083D

 56 59  0  0  1  0  0  0  0  0999 V2000
   49.4300  104.7560   32.7040 B   0  0  0  0  0  0  0  0  0  0  0  0
   49.6130  103.4130   31.3550 C   0  0  0  0  0  0  0  0  0  0  0  0
   49.4880  103.7010   30.0150 C   0  0  0  0  0  0  0  0  0  0  0  0
   49.6230  102.7120   29.0330 C   0  0  0  0  0  0  0  0  0  0  0  0
   49.8870  101.4130   29.3770 C   0  0  0  0  0  0  0  0  0  0  0  0
   50.0090  101.1360   30.7210 C   0  0  0  0  0  0  0  0  0  0  0  0
   49.8780  102.1070   31.7020 C   0  0  0  0  0  0  0  0  0  0  0  0
   50.0200  100.4170   28.3600 N   0  0  0  0  0  0  0  0  0  0  0  0
   50.6110  100.5870   27.0670 C   0  0  0  0  0  0  0  0  0  0  0  0
   50.7110  101.6470   26.4030 O   0  0  0  0  0  0  0  0  0  0  0  0
   51.1060   99.2590   26.6210 C   0  0  2  0  0  0  0  0  0  0  0  0
   50.5030   98.2350   27.5560 C   0  0  0  0  0  0  0  0  0  0  0  0
   49.6000   99.0590   28.4020 C   0  0  0  0  0  0  0  0  0  0  0  0
   48.5940   98.6340   29.0730 O   0  0  0  0  0  0  0  0  0  0  0  0
   52.5130   99.2610   26.5980 N   0  0  2  0  0  0  0  0  0  0  0  0
   53.1850   98.8720   25.4250 C   0  0  0  0  0  0  0  0  0  0  0  0
   54.6920   98.8310   25.7150 C   0  0  0  0  0  0  0  0  0  0  0  0
   55.0310   97.7220   26.6850 C   0  0  1  0  0  0  0  0  0  0  0  0
   54.0090   97.6630   27.7480 C   0  0  0  0  0  0  0  0  0  0  0  0
   53.1730   98.9170   27.8000 C   0  0  0  0  0  0  0  0  0  0  0  0
   55.2540   96.5440   25.9530 N   0  0  0  0  0  0  0  0  0  0  0  0
   54.2040   96.0130   25.1900 C   0  0  0  0  0  0  0  0  0  0  0  0
   54.0160   94.5560   25.6470 C   0  0  0  0  0  0  0  0  0  0  0  0
   55.2870   93.8330   25.2490 C   0  0  0  0  0  0  0  0  0  0  0  0
   56.4220   94.7530   24.9410 C   0  0  0  0  0  0  0  0  0  0  0  0
   56.5000   95.9480   25.9020 C   0  0  0  0  0  0  0  0  0  0  0  0
   56.3400   98.1260   27.3110 C   0  0  0  0  0  0  0  0  0  0  0  0
   56.7080   97.5970   28.4020 O   0  0  0  0  0  0  0  0  0  0  0  0
   57.2030   99.0880   26.7330 N   0  0  0  0  0  0  0  0  0  0  0  0
   49.2810  104.7200   29.7540 H   0  0  0  0  0  0  0  0  0  0  0  0
   49.5090  103.0170   27.9980 H   0  0  0  0  0  0  0  0  0  0  0  0
   50.2140  100.1250   31.0230 H   0  0  0  0  0  0  0  0  0  0  0  0
   49.9800  101.8630   32.7610 H   0  0  0  0  0  0  0  0  0  0  0  0
   50.6390   99.0830   25.6140 H   0  0  0  0  0  0  0  0  0  0  0  0
   51.2470   97.7810   28.2440 H   0  0  0  0  0  0  0  0  0  0  0  0
   49.8820   97.5020   27.0270 H   0  0  0  0  0  0  0  0  0  0  0  0
   52.8690   97.8400   25.1290 H   0  0  0  0  0  0  0  0  0  0  0  0
   53.0910   99.5800   24.5620 H   0  0  0  0  0  0  0  0  0  0  0  0
   54.8890   99.7890   26.2660 H   0  0  0  0  0  0  0  0  0  0  0  0
   55.2660   98.8070   24.7920 H   0  0  0  0  0  0  0  0  0  0  0  0
   54.5390   97.6330   28.7480 H   0  0  0  0  0  0  0  0  0  0  0  0
   53.3990   96.7400   27.7640 H   0  0  0  0  0  0  0  0  0  0  0  0
   52.4810   98.8900   28.6920 H   0  0  0  0  0  0  0  0  0  0  0  0
   53.8490   99.7930   28.0520 H   0  0  0  0  0  0  0  0  0  0  0  0
   53.2720   96.5540   25.3580 H   0  0  0  0  0  0  0  0  0  0  0  0
   54.5060   95.9780   24.1220 H   0  0  0  0  0  0  0  0  0  0  0  0
   53.9340   94.5140   26.7640 H   0  0  0  0  0  0  0  0  0  0  0  0
   53.1150   94.1380   25.1720 H   0  0  0  0  0  0  0  0  0  0  0  0
   55.5530   93.0350   25.9730 H   0  0  0  0  0  0  0  0  0  0  0  0
   55.0280   93.2800   24.3030 H   0  0  0  0  0  0  0  0  0  0  0  0
   57.3780   94.1790   25.0900 H   0  0  0  0  0  0  0  0  0  0  0  0
   56.4250   95.1240   23.8850 H   0  0  0  0  0  0  0  0  0  0  0  0
   57.3550   96.5470   25.5690 H   0  0  0  0  0  0  0  0  0  0  0  0
   56.7830   95.5250   26.8940 H   0  0  0  0  0  0  0  0  0  0  0  0
   58.1330   98.8040   26.4030 H   0  0  0  0  0  0  0  0  0  0  0  0
   56.9090  100.0790   26.6360 H   0  0  0  0  0  0  0  0  0  0  0  0
  2  7  1  0  0  0  0
  2  1  1  0  0  0  0
  3  2  2  0  0  0  0
  4  5  2  0  0  0  0
  4  3  1  0  0  0  0
  5  6  1  0  0  0  0
  6 32  1  0  0  0  0
  6  7  2  0  0  0  0
  7 33  1  0  0  0  0
  8 13  1  0  0  0  0
  8  5  1  0  0  0  0
  9  8  1  0  0  0  0
 10  9  2  0  0  0  0
 11 34  1  6  0  0  0
 11  9  1  0  0  0  0
 11 12  1  0  0  0  0
 12 35  1  0  0  0  0
 12 13  1  0  0  0  0
 13 14  2  0  0  0  0
 15 16  1  6  0  0  0
 15 11  1  0  0  0  0
 15 20  1  0  0  0  0
 16 17  1  0  0  0  0
 17 39  1  0  0  0  0
 17 18  1  0  0  0  0
 18 27  1  1  0  0  0
 18 19  1  0  0  0  0
 19 42  1  0  0  0  0
 19 20  1  0  0  0  0
 19 41  1  0  0  0  0
 20 44  1  0  0  0  0
 20 43  1  0  0  0  0
 21 18  1  0  0  0  0
 22 45  1  0  0  0  0
 22 23  1  0  0  0  0
 22 21  1  0  0  0  0
 23 47  1  0  0  0  0
 24 23  1  0  0  0  0
 24 49  1  0  0  0  0
 25 51  1  0  0  0  0
 25 24  1  0  0  0  0
 25 26  1  0  0  0  0
 26 21  1  0  0  0  0
 26 54  1  0  0  0  0
 27 28  2  0  0  0  0
 29 27  1  0  0  0  0
 30  3  1  0  0  0  0
 31  4  1  0  0  0  0
 36 12  1  0  0  0  0
 37 16  1  0  0  0  0
 38 16  1  0  0  0  0
 40 17  1  0  0  0  0
 46 22  1  0  0  0  0
 48 23  1  0  0  0  0
 50 24  1  0  0  0  0
 52 25  1  0  0  0  0
 53 26  1  0  0  0  0
 55 29  1  0  0  0  0
 56 29  1  0  0  0  0
M  END
>  <Pose>
1

>  <Score>
-5.28

$$$$
