
 OpenBabel03202210083D

 44 47  0  0  0  0  0  0  0  0999 V2000
   50.0700  100.7560   29.0310 B   0  0  0  0  0  0  0  0  0  0  0  0
   51.3990   99.5910   28.2810 C   0  0  0  0  0  0  0  0  0  0  0  0
   52.2740  100.0390   27.3140 C   0  0  0  0  0  0  0  0  0  0  0  0
   53.2310   99.2020   26.7730 C   0  0  0  0  0  0  0  0  0  0  0  0
   53.3520   97.8830   27.1770 C   0  0  0  0  0  0  0  0  0  0  0  0
   52.4670   97.4550   28.1450 C   0  0  0  0  0  0  0  0  0  0  0  0
   51.5100   98.2810   28.6900 C   0  0  0  0  0  0  0  0  0  0  0  0
   54.3470   97.0390   26.6040 N   0  0  0  0  0  0  0  0  0  0  0  0
   54.2010   95.7700   26.1870 C   0  0  0  0  0  0  0  0  0  0  0  0
   53.1070   95.1300   26.2500 O   0  0  0  0  0  0  0  0  0  0  0  0
   55.4010   95.2680   25.6830 C   0  0  0  0  0  0  0  0  0  0  0  0
   56.2780   96.2600   25.8030 C   0  0  0  0  0  0  0  0  0  0  0  0
   57.4240   95.7550   25.3130 N   0  0  0  0  0  0  0  0  0  0  0  0
   57.2420   94.5070   24.9120 N   0  0  0  0  0  0  0  0  0  0  0  0
   55.9890   94.1960   25.1370 N   0  0  0  0  0  0  0  0  0  0  0  0
   55.3380   92.9410   24.8600 C   0  0  0  0  0  0  0  0  0  0  0  0
   54.9130   92.8360   23.4250 C   0  0  0  0  0  0  0  0  0  0  0  0
   53.9770   93.6070   23.1030 O   0  0  0  0  0  0  0  0  0  0  0  0
   55.5130   91.9510   22.5250 N   0  0  0  0  0  0  0  0  0  0  0  0
   54.9350   91.3770   21.3870 C   0  0  0  0  0  0  0  0  0  0  0  0
   55.3220   90.0670   21.0620 C   0  0  0  0  0  0  0  0  0  0  0  0
   54.7800   89.4650   19.9540 C   0  0  0  0  0  0  0  0  0  0  0  0
   53.8640   90.0900   19.1360 C   0  0  0  0  0  0  0  0  0  0  0  0
   53.4830   91.3620   19.4440 C   0  0  0  0  0  0  0  0  0  0  0  0
   54.0220   91.9780   20.5550 C   0  0  0  0  0  0  0  0  0  0  0  0
   56.2970   89.3260   21.8860 C   0  0  0  0  0  0  0  0  0  0  0  0
   55.6420   97.3480   26.3670 C   0  0  0  0  0  0  0  0  0  0  0  0
   56.1450   98.4620   26.6330 O   0  0  0  0  0  0  0  0  0  0  0  0
   52.2150  101.0670   26.9680 H   0  0  0  0  0  0  0  0  0  0  0  0
   53.9290   99.5490   26.0070 H   0  0  0  0  0  0  0  0  0  0  0  0
   52.5370   96.4360   28.4790 H   0  0  0  0  0  0  0  0  0  0  0  0
   50.8050   97.9540   29.4560 H   0  0  0  0  0  0  0  0  0  0  0  0
   58.3050   96.3290   25.2820 H   0  0  0  0  0  0  0  0  0  0  0  0
   58.0050   93.9240   24.4970 H   0  0  0  0  0  0  0  0  0  0  0  0
   56.0500   92.0830   25.0120 H   0  0  0  0  0  0  0  0  0  0  0  0
   54.4640   92.8590   25.5430 H   0  0  0  0  0  0  0  0  0  0  0  0
   56.5320   91.7030   22.7610 H   0  0  0  0  0  0  0  0  0  0  0  0
   55.0560   88.4410   19.6670 H   0  0  0  0  0  0  0  0  0  0  0  0
   53.4390   89.5980   18.2550 H   0  0  0  0  0  0  0  0  0  0  0  0
   52.7570   91.8740   18.8040 H   0  0  0  0  0  0  0  0  0  0  0  0
   53.6880   92.9740   20.7490 H   0  0  0  0  0  0  0  0  0  0  0  0
   56.6280   88.4180   21.3460 H   0  0  0  0  0  0  0  0  0  0  0  0
   57.2200   89.9390   22.0410 H   0  0  0  0  0  0  0  0  0  0  0  0
   55.9010   89.0030   22.8610 H   0  0  0  0  0  0  0  0  0  0  0  0
  2  7  1  0  0  0  0
  2  1  1  0  0  0  0
  3  2  2  0  0  0  0
  4  5  2  0  0  0  0
  4  3  1  0  0  0  0
  5  6  1  0  0  0  0
  6 31  1  0  0  0  0
  6  7  2  0  0  0  0
  7 32  1  0  0  0  0
  8  5  1  0  0  0  0
  9 10  2  0  0  0  0
  9  8  1  0  0  0  0
 11 12  2  0  0  0  0
 11  9  1  0  0  0  0
 12 27  1  0  0  0  0
 13 12  1  0  0  0  0
 14 15  1  0  0  0  0
 14 13  1  0  0  0  0
 15 11  1  0  0  0  0
 16 35  1  0  0  0  0
 16 15  1  0  0  0  0
 16 36  1  0  0  0  0
 17 16  1  0  0  0  0
 18 17  2  0  0  0  0
 19 37  1  0  0  0  0
 19 17  1  0  0  0  0
 20 19  1  0  0  0  0
 21 20  1  0  0  0  0
 21 26  1  0  0  0  0
 22 21  2  0  0  0  0
 23 24  2  0  0  0  0
 23 22  1  0  0  0  0
 24 25  1  0  0  0  0
 25 41  1  0  0  0  0
 25 20  2  0  0  0  0
 26 43  1  0  0  0  0
 26 44  1  0  0  0  0
 27  8  1  0  0  0  0
 27 28  2  0  0  0  0
 29  3  1  0  0  0  0
 30  4  1  0  0  0  0
 33 13  1  0  0  0  0
 34 14  1  0  0  0  0
 38 22  1  0  0  0  0
 39 23  1  0  0  0  0
 40 24  1  0  0  0  0
 42 26  1  0  0  0  0
M  END
>  <Pose>
1

>  <Score>
-9.29

$$$$
