
 OpenBabel03202210083D

 49 52  0  0  0  0  0  0  0  0999 V2000
   50.4460  100.9330   29.5300 B   0  0  0  0  0  0  0  0  0  0  0  0
   51.6420   99.7100   28.6680 C   0  0  0  0  0  0  0  0  0  0  0  0
   51.9690   98.5000   29.2460 C   0  0  0  0  0  0  0  0  0  0  0  0
   52.8390   97.6150   28.6150 C   0  0  0  0  0  0  0  0  0  0  0  0
   53.4060   97.9120   27.3930 C   0  0  0  0  0  0  0  0  0  0  0  0
   53.0760   99.1210   26.8220 C   0  0  0  0  0  0  0  0  0  0  0  0
   52.2140  100.0000   27.4450 C   0  0  0  0  0  0  0  0  0  0  0  0
   54.2980   97.0320   26.7190 N   0  0  0  0  0  0  0  0  0  0  0  0
   54.1110   95.7730   26.2900 C   0  0  0  0  0  0  0  0  0  0  0  0
   53.0230   95.1620   26.4460 O   0  0  0  0  0  0  0  0  0  0  0  0
   55.2500   95.2780   25.6780 C   0  0  0  0  0  0  0  0  0  0  0  0
   56.1450   96.2560   25.7360 C   0  0  0  0  0  0  0  0  0  0  0  0
   57.2490   95.7760   25.1430 N   0  0  0  0  0  0  0  0  0  0  0  0
   57.0330   94.5380   24.7330 N   0  0  0  0  0  0  0  0  0  0  0  0
   55.8090   94.2140   25.0530 N   0  0  0  0  0  0  0  0  0  0  0  0
   55.1350   92.9610   24.8050 C   0  0  0  0  0  0  0  0  0  0  0  0
   54.8500   92.8360   23.3270 C   0  0  0  0  0  0  0  0  0  0  0  0
   53.9170   93.5030   22.8270 O   0  0  0  0  0  0  0  0  0  0  0  0
   55.6270   91.9820   22.5300 N   0  0  0  0  0  0  0  0  0  0  0  0
   55.2740   91.4930   21.2570 C   0  0  0  0  0  0  0  0  0  0  0  0
   54.1990   91.8990   20.5070 C   0  0  0  0  0  0  0  0  0  0  0  0
   53.8970   91.3670   19.2710 C   0  0  0  0  0  0  0  0  0  0  0  0
   54.7220   90.3800   18.7710 C   0  0  0  0  0  0  0  0  0  0  0  0
   55.8180   89.9430   19.4960 C   0  0  0  0  0  0  0  0  0  0  0  0
   56.0970   90.4840   20.7210 C   0  0  0  0  0  0  0  0  0  0  0  0
   54.4350   89.8300   17.5250 O   0  0  0  0  0  0  0  0  0  0  0  0
   54.6600   90.6020   16.3620 C   0  0  0  0  0  0  0  0  0  0  0  0
   52.7980   91.7990   18.5320 O   0  0  0  0  0  0  0  0  0  0  0  0
   51.5020   91.3490   18.9480 C   0  0  0  0  0  0  0  0  0  0  0  0
   55.5690   97.3340   26.3740 C   0  0  0  0  0  0  0  0  0  0  0  0
   56.1450   98.4490   26.6030 O   0  0  0  0  0  0  0  0  0  0  0  0
   51.5170   98.2730   30.2100 H   0  0  0  0  0  0  0  0  0  0  0  0
   53.0880   96.6740   29.0730 H   0  0  0  0  0  0  0  0  0  0  0  0
   53.5270   99.3480   25.8580 H   0  0  0  0  0  0  0  0  0  0  0  0
   51.9710  100.9520   26.9670 H   0  0  0  0  0  0  0  0  0  0  0  0
   58.1530   96.2700   25.0080 H   0  0  0  0  0  0  0  0  0  0  0  0
   57.7160   93.8970   24.2300 H   0  0  0  0  0  0  0  0  0  0  0  0
   54.1570   92.8860   25.3350 H   0  0  0  0  0  0  0  0  0  0  0  0
   55.7720   92.1030   25.0680 H   0  0  0  0  0  0  0  0  0  0  0  0
   56.5740   91.6820   22.9310 H   0  0  0  0  0  0  0  0  0  0  0  0
   53.5420   92.6770   20.8720 H   0  0  0  0  0  0  0  0  0  0  0  0
   56.4490   89.1600   19.0710 H   0  0  0  0  0  0  0  0  0  0  0  0
   56.9740   90.1250   21.2880 H   0  0  0  0  0  0  0  0  0  0  0  0
   55.7220   90.9420   16.4130 H   0  0  0  0  0  0  0  0  0  0  0  0
   54.0030   91.4810   16.3720 H   0  0  0  0  0  0  0  0  0  0  0  0
   54.5140   89.9560   15.4650 H   0  0  0  0  0  0  0  0  0  0  0  0
   51.2610   91.7680   19.9640 H   0  0  0  0  0  0  0  0  0  0  0  0
   50.7270   91.6690   18.2230 H   0  0  0  0  0  0  0  0  0  0  0  0
   51.4820   90.2420   19.0200 H   0  0  0  0  0  0  0  0  0  0  0  0
  2  3  1  0  0  0  0
  2  1  1  0  0  0  0
  3 32  1  0  0  0  0
  4 33  1  0  0  0  0
  4  3  2  0  0  0  0
  5  4  1  0  0  0  0
  6  5  2  0  0  0  0
  6  7  1  0  0  0  0
  7  2  2  0  0  0  0
  8  5  1  0  0  0  0
  9 10  2  0  0  0  0
  9  8  1  0  0  0  0
 11 12  2  0  0  0  0
 11  9  1  0  0  0  0
 12 30  1  0  0  0  0
 13 12  1  0  0  0  0
 14 15  1  0  0  0  0
 14 13  1  0  0  0  0
 15 11  1  0  0  0  0
 16 15  1  0  0  0  0
 16 39  1  0  0  0  0
 16 38  1  0  0  0  0
 17 16  1  0  0  0  0
 18 17  2  0  0  0  0
 19 40  1  0  0  0  0
 19 17  1  0  0  0  0
 20 19  1  0  0  0  0
 21 41  1  0  0  0  0
 21 20  2  0  0  0  0
 22 21  1  0  0  0  0
 23 22  2  0  0  0  0
 23 24  1  0  0  0  0
 24 25  2  0  0  0  0
 25 20  1  0  0  0  0
 25 43  1  0  0  0  0
 26 23  1  0  0  0  0
 27 45  1  0  0  0  0
 27 44  1  0  0  0  0
 27 26  1  0  0  0  0
 28 29  1  0  0  0  0
 28 22  1  0  0  0  0
 29 49  1  0  0  0  0
 29 47  1  0  0  0  0
 30 31  2  0  0  0  0
 30  8  1  0  0  0  0
 34  6  1  0  0  0  0
 35  7  1  0  0  0  0
 36 13  1  0  0  0  0
 37 14  1  0  0  0  0
 42 24  1  0  0  0  0
 46 27  1  0  0  0  0
 48 29  1  0  0  0  0
M  END
>  <Pose>
1

>  <Score>
-10.57

$$$$
