
 OpenBabel03202210083D

 50 53  0  0  0  0  0  0  0  0999 V2000
   50.3080  100.1740   29.2570 B   0  0  0  0  0  0  0  0  0  0  0  0
   51.6630   99.1730   28.3750 C   0  0  0  0  0  0  0  0  0  0  0  0
   52.2320   99.5640   27.1810 C   0  0  0  0  0  0  0  0  0  0  0  0
   53.1990   98.8250   26.5740 C   0  0  0  0  0  0  0  0  0  0  0  0
   53.6560   97.6420   27.1340 C   0  0  0  0  0  0  0  0  0  0  0  0
   53.0980   97.2420   28.3210 C   0  0  0  0  0  0  0  0  0  0  0  0
   52.1250   97.9960   28.9200 C   0  0  0  0  0  0  0  0  0  0  0  0
   54.6710   96.8950   26.4690 N   0  0  0  0  0  0  0  0  0  0  0  0
   54.5270   95.5980   26.0930 C   0  0  0  0  0  0  0  0  0  0  0  0
   53.4970   94.8770   26.2720 O   0  0  0  0  0  0  0  0  0  0  0  0
   55.6860   95.1630   25.4750 C   0  0  0  0  0  0  0  0  0  0  0  0
   56.5120   96.2070   25.4870 C   0  0  0  0  0  0  0  0  0  0  0  0
   57.6580   95.8070   24.8860 N   0  0  0  0  0  0  0  0  0  0  0  0
   57.4960   94.5370   24.5260 N   0  0  0  0  0  0  0  0  0  0  0  0
   56.2970   94.1080   24.8720 N   0  0  0  0  0  0  0  0  0  0  0  0
   55.6940   92.7950   24.6770 C   0  0  0  0  0  0  0  0  0  0  0  0
   55.0460   92.7480   23.3150 C   0  0  0  0  0  0  0  0  0  0  0  0
   53.9400   93.3430   23.2880 O   0  0  0  0  0  0  0  0  0  0  0  0
   55.6820   92.0900   22.2640 N   0  0  0  0  0  0  0  0  0  0  0  0
   55.0830   91.5610   21.0950 C   0  0  0  0  0  0  0  0  0  0  0  0
   53.8960   91.9890   20.5500 C   0  0  0  0  0  0  0  0  0  0  0  0
   53.3670   91.4120   19.3870 C   0  0  0  0  0  0  0  0  0  0  0  0
   54.0140   90.3880   18.7380 C   0  0  0  0  0  0  0  0  0  0  0  0
   55.2020   89.9530   19.2740 C   0  0  0  0  0  0  0  0  0  0  0  0
   55.7210   90.5230   20.4200 C   0  0  0  0  0  0  0  0  0  0  0  0
   53.4260   89.8180   17.5310 C   0  0  0  0  0  0  0  0  0  0  0  0
   54.0490   89.9540   16.4480 O   0  0  0  0  0  0  0  0  0  0  0  0
   52.2380   89.1430   17.4950 O   0  0  0  0  0  0  0  0  0  0  0  0
   51.5020   88.7020   18.5990 C   0  0  0  0  0  0  0  0  0  0  0  0
   52.0910   87.3430   19.0020 C   0  0  0  0  0  0  0  0  0  0  0  0
   55.9000   97.2780   26.0960 C   0  0  0  0  0  0  0  0  0  0  0  0
   56.3810   98.4170   26.2810 O   0  0  0  0  0  0  0  0  0  0  0  0
   51.8750  100.4890   26.7440 H   0  0  0  0  0  0  0  0  0  0  0  0
   53.6290   99.1720   25.6200 H   0  0  0  0  0  0  0  0  0  0  0  0
   53.4310   96.3240   28.7860 H   0  0  0  0  0  0  0  0  0  0  0  0
   51.6700   97.6880   29.8700 H   0  0  0  0  0  0  0  0  0  0  0  0
   58.5020   96.3970   24.7390 H   0  0  0  0  0  0  0  0  0  0  0  0
   58.2140   93.9710   24.0430 H   0  0  0  0  0  0  0  0  0  0  0  0
   56.4350   91.9820   24.7980 H   0  0  0  0  0  0  0  0  0  0  0  0
   54.9390   92.6730   25.4820 H   0  0  0  0  0  0  0  0  0  0  0  0
   56.7410   91.9800   22.3630 H   0  0  0  0  0  0  0  0  0  0  0  0
   53.3690   92.7850   21.0330 H   0  0  0  0  0  0  0  0  0  0  0  0
   52.4200   91.7800   18.9840 H   0  0  0  0  0  0  0  0  0  0  0  0
   55.7080   89.1400   18.7510 H   0  0  0  0  0  0  0  0  0  0  0  0
   56.6740   90.1480   20.8210 H   0  0  0  0  0  0  0  0  0  0  0  0
   51.5900   89.3560   19.4890 H   0  0  0  0  0  0  0  0  0  0  0  0
   50.4230   88.5600   18.3990 H   0  0  0  0  0  0  0  0  0  0  0  0
   53.1070   87.5270   19.4570 H   0  0  0  0  0  0  0  0  0  0  0  0
   52.2600   86.7050   18.1180 H   0  0  0  0  0  0  0  0  0  0  0  0
   51.4490   86.8050   19.7020 H   0  0  0  0  0  0  0  0  0  0  0  0
  2  7  1  0  0  0  0
  2  1  1  0  0  0  0
  3  2  2  0  0  0  0
  4  5  2  0  0  0  0
  4  3  1  0  0  0  0
  5  6  1  0  0  0  0
  6 35  1  0  0  0  0
  6  7  2  0  0  0  0
  7 36  1  0  0  0  0
  8  5  1  0  0  0  0
  9 10  2  0  0  0  0
  9  8  1  0  0  0  0
 11 12  2  0  0  0  0
 11  9  1  0  0  0  0
 12 31  1  0  0  0  0
 13 12  1  0  0  0  0
 14 15  1  0  0  0  0
 14 13  1  0  0  0  0
 15 11  1  0  0  0  0
 16 39  1  0  0  0  0
 16 15  1  0  0  0  0
 16 40  1  0  0  0  0
 17 16  1  0  0  0  0
 18 17  2  0  0  0  0
 19 41  1  0  0  0  0
 19 17  1  0  0  0  0
 20 19  1  0  0  0  0
 21 42  1  0  0  0  0
 21 20  1  0  0  0  0
 22 21  2  0  0  0  0
 23 24  2  0  0  0  0
 23 22  1  0  0  0  0
 24 25  1  0  0  0  0
 25 45  1  0  0  0  0
 25 20  2  0  0  0  0
 26 23  1  0  0  0  0
 27 26  2  0  0  0  0
 28 26  1  0  0  0  0
 28 29  1  0  0  0  0
 29 30  1  0  0  0  0
 29 46  1  0  0  0  0
 30 48  1  0  0  0  0
 30 50  1  0  0  0  0
 31 32  2  0  0  0  0
 31  8  1  0  0  0  0
 33  3  1  0  0  0  0
 34  4  1  0  0  0  0
 37 13  1  0  0  0  0
 38 14  1  0  0  0  0
 43 22  1  0  0  0  0
 44 24  1  0  0  0  0
 47 29  1  0  0  0  0
 49 30  1  0  0  0  0
M  END
>  <Pose>
1

>  <Score>
-9.81

$$$$
