
 OpenBabel03202210083D

 48 51  0  0  0  0  0  0  0  0999 V2000
   49.9850  100.4050   29.5330 B   0  0  0  0  0  0  0  0  0  0  0  0
   51.3080   99.3750   28.6210 C   0  0  0  0  0  0  0  0  0  0  0  0
   51.9000   99.8080   27.4540 C   0  0  0  0  0  0  0  0  0  0  0  0
   52.8620   99.0490   26.8050 C   0  0  0  0  0  0  0  0  0  0  0  0
   53.2760   97.8260   27.2920 C   0  0  0  0  0  0  0  0  0  0  0  0
   52.6840   97.3880   28.4630 C   0  0  0  0  0  0  0  0  0  0  0  0
   51.7260   98.1430   29.1080 C   0  0  0  0  0  0  0  0  0  0  0  0
   54.2650   97.0180   26.6590 N   0  0  0  0  0  0  0  0  0  0  0  0
   54.1320   95.7420   26.2010 C   0  0  0  0  0  0  0  0  0  0  0  0
   53.0680   95.0820   26.2770 O   0  0  0  0  0  0  0  0  0  0  0  0
   55.3130   95.2900   25.6540 C   0  0  0  0  0  0  0  0  0  0  0  0
   56.1740   96.2890   25.7750 C   0  0  0  0  0  0  0  0  0  0  0  0
   57.3410   95.8750   25.2490 N   0  0  0  0  0  0  0  0  0  0  0  0
   57.1780   94.6340   24.8150 N   0  0  0  0  0  0  0  0  0  0  0  0
   55.9400   94.2420   25.0490 N   0  0  0  0  0  0  0  0  0  0  0  0
   55.3410   92.9730   24.7540 C   0  0  0  0  0  0  0  0  0  0  0  0
   54.9840   92.8020   23.2960 C   0  0  0  0  0  0  0  0  0  0  0  0
   54.0450   93.5160   22.8830 O   0  0  0  0  0  0  0  0  0  0  0  0
   55.6640   91.9090   22.4710 N   0  0  0  0  0  0  0  0  0  0  0  0
   55.1860   91.0910   21.4330 C   0  0  0  0  0  0  0  0  0  0  0  0
   55.6020   89.7620   21.3420 C   0  0  0  0  0  0  0  0  0  0  0  0
   55.1760   88.9360   20.3380 C   0  0  0  0  0  0  0  0  0  0  0  0
   54.2990   89.4090   19.3610 C   0  0  0  0  0  0  0  0  0  0  0  0
   53.9060   90.7200   19.4790 C   0  0  0  0  0  0  0  0  0  0  0  0
   54.3300   91.5550   20.4870 C   0  0  0  0  0  0  0  0  0  0  0  0
   53.8990   88.5450   18.3680 O   0  0  0  0  0  0  0  0  0  0  0  0
   52.6210   88.0300   18.1740 C   0  0  0  0  0  0  0  0  0  0  0  0
   51.5400   89.0550   18.1540 C   0  0  0  0  0  0  0  0  0  0  0  0
   55.5360   97.3440   26.3880 C   0  0  0  0  0  0  0  0  0  0  0  0
   56.0410   98.4760   26.6710 O   0  0  0  0  0  0  0  0  0  0  0  0
   51.5740  100.7730   27.0690 H   0  0  0  0  0  0  0  0  0  0  0  0
   53.3230   99.3890   25.8920 H   0  0  0  0  0  0  0  0  0  0  0  0
   53.0120   96.4260   28.8410 H   0  0  0  0  0  0  0  0  0  0  0  0
   51.2810   97.7800   30.0190 H   0  0  0  0  0  0  0  0  0  0  0  0
   58.2270   96.4040   25.1750 H   0  0  0  0  0  0  0  0  0  0  0  0
   57.9350   94.0530   24.3500 H   0  0  0  0  0  0  0  0  0  0  0  0
   56.0500   92.1420   25.0170 H   0  0  0  0  0  0  0  0  0  0  0  0
   54.3790   92.8080   25.3100 H   0  0  0  0  0  0  0  0  0  0  0  0
   56.7250   91.8290   22.6570 H   0  0  0  0  0  0  0  0  0  0  0  0
   56.2780   89.3760   22.0830 H   0  0  0  0  0  0  0  0  0  0  0  0
   55.5230   87.8950   20.2950 H   0  0  0  0  0  0  0  0  0  0  0  0
   53.2310   91.1290   18.7470 H   0  0  0  0  0  0  0  0  0  0  0  0
   53.9730   92.5920   20.5250 H   0  0  0  0  0  0  0  0  0  0  0  0
   52.6070   87.5170   17.1660 H   0  0  0  0  0  0  0  0  0  0  0  0
   52.3670   87.2540   18.9280 H   0  0  0  0  0  0  0  0  0  0  0  0
   51.0280   89.1790   17.1790 H   0  0  0  0  0  0  0  0  0  0  0  0
   50.7320   88.7850   18.8740 H   0  0  0  0  0  0  0  0  0  0  0  0
   51.8770   90.0770   18.4730 H   0  0  0  0  0  0  0  0  0  0  0  0
  2  7  1  0  0  0  0
  2  1  1  0  0  0  0
  3  2  2  0  0  0  0
  4  5  2  0  0  0  0
  4  3  1  0  0  0  0
  5  6  1  0  0  0  0
  6 33  1  0  0  0  0
  6  7  2  0  0  0  0
  7 34  1  0  0  0  0
  8  5  1  0  0  0  0
  9 10  2  0  0  0  0
  9  8  1  0  0  0  0
 11 12  2  0  0  0  0
 11  9  1  0  0  0  0
 12 29  1  0  0  0  0
 13 12  1  0  0  0  0
 14 15  1  0  0  0  0
 14 13  1  0  0  0  0
 15 11  1  0  0  0  0
 16 37  1  0  0  0  0
 16 15  1  0  0  0  0
 16 38  1  0  0  0  0
 17 16  1  0  0  0  0
 18 17  2  0  0  0  0
 19 39  1  0  0  0  0
 19 17  1  0  0  0  0
 20 19  1  0  0  0  0
 21 20  1  0  0  0  0
 21 40  1  0  0  0  0
 22 21  2  0  0  0  0
 23 24  2  0  0  0  0
 23 22  1  0  0  0  0
 24 25  1  0  0  0  0
 25 43  1  0  0  0  0
 25 20  2  0  0  0  0
 26 23  1  0  0  0  0
 27 26  1  0  0  0  0
 27 45  1  0  0  0  0
 28 27  1  0  0  0  0
 28 48  1  0  0  0  0
 28 47  1  0  0  0  0
 29  8  1  0  0  0  0
 29 30  2  0  0  0  0
 31  3  1  0  0  0  0
 32  4  1  0  0  0  0
 35 13  1  0  0  0  0
 36 14  1  0  0  0  0
 41 22  1  0  0  0  0
 42 24  1  0  0  0  0
 44 27  1  0  0  0  0
 46 28  1  0  0  0  0
M  END
>  <Pose>
1

>  <Score>
-9.67

$$$$
