
 OpenBabel03202210083D

 36 39  0  0  0  0  0  0  0  0999 V2000
   53.0510   98.8650   27.6990 B   0  0  0  0  0  0  0  0  0  0  0  0
   53.5660   97.2070   26.8920 C   0  0  0  0  0  0  0  0  0  0  0  0
   54.7360   97.0850   26.1710 C   0  0  0  0  0  0  0  0  0  0  0  0
   55.0970   95.8730   25.5880 C   0  0  0  0  0  0  0  0  0  0  0  0
   54.2980   94.7560   25.7140 C   0  0  0  0  0  0  0  0  0  0  0  0
   53.1310   94.8930   26.4380 C   0  0  0  0  0  0  0  0  0  0  0  0
   52.7640   96.0920   27.0190 C   0  0  0  0  0  0  0  0  0  0  0  0
   54.6420   93.4940   25.1280 N   0  0  0  0  0  0  0  0  0  0  0  0
   54.5640   93.1800   23.8160 C   0  0  0  0  0  0  0  0  0  0  0  0
   54.1780   93.9280   22.8610 O   0  0  0  0  0  0  0  0  0  0  0  0
   54.9730   91.8770   23.5970 C   0  0  0  0  0  0  0  0  0  0  0  0
   55.2990   91.4090   24.8040 C   0  0  0  0  0  0  0  0  0  0  0  0
   55.7010   90.1320   24.5930 N   0  0  0  0  0  0  0  0  0  0  0  0
   55.6080   89.8710   23.3000 N   0  0  0  0  0  0  0  0  0  0  0  0
   55.1590   90.9350   22.6560 N   0  0  0  0  0  0  0  0  0  0  0  0
   54.9230   91.0500   21.2470 C   0  0  0  0  0  0  0  0  0  0  0  0
   55.7460   90.4230   20.3340 C   0  0  0  0  0  0  0  0  0  0  0  0
   55.5430   90.5150   18.9630 C   0  0  0  0  0  0  0  0  0  0  0  0
   54.4880   91.2540   18.4700 C   0  0  0  0  0  0  0  0  0  0  0  0
   53.6650   91.8810   19.3800 C   0  0  0  0  0  0  0  0  0  0  0  0
   53.8700   91.7870   20.7480 C   0  0  0  0  0  0  0  0  0  0  0  0
   54.2540   91.3670   17.0690 N   0  0  0  0  0  0  0  0  0  0  0  0
   55.0710   90.9550   16.2240 O   0  0  0  0  0  0  0  0  0  0  0  0
   53.1040   91.9450   16.6330 O   0  0  0  0  0  0  0  0  0  0  0  0
   55.0990   92.3930   25.7480 C   0  0  0  0  0  0  0  0  0  0  0  0
   55.2940   92.3310   26.9880 O   0  0  0  0  0  0  0  0  0  0  0  0
   55.3580   97.9730   26.0780 H   0  0  0  0  0  0  0  0  0  0  0  0
   56.0000   95.7760   25.0320 H   0  0  0  0  0  0  0  0  0  0  0  0
   52.4890   94.0180   26.5460 H   0  0  0  0  0  0  0  0  0  0  0  0
   51.8350   96.1850   27.5910 H   0  0  0  0  0  0  0  0  0  0  0  0
   56.0270   89.4790   25.3520 H   0  0  0  0  0  0  0  0  0  0  0  0
   55.8440   88.9680   22.8120 H   0  0  0  0  0  0  0  0  0  0  0  0
   56.5760   89.8410   20.6980 H   0  0  0  0  0  0  0  0  0  0  0  0
   56.2070   90.0100   18.2520 H   0  0  0  0  0  0  0  0  0  0  0  0
   52.8440   92.4550   18.9760 H   0  0  0  0  0  0  0  0  0  0  0  0
   53.2190   92.2820   21.4520 H   0  0  0  0  0  0  0  0  0  0  0  0
  2  7  1  0  0  0  0
  2  1  1  0  0  0  0
  3  2  2  0  0  0  0
  4  5  2  0  0  0  0
  4  3  1  0  0  0  0
  5  6  1  0  0  0  0
  6 29  1  0  0  0  0
  6  7  2  0  0  0  0
  7 30  1  0  0  0  0
  8  5  1  0  0  0  0
  8 25  1  0  0  0  0
  9  8  1  0  0  0  0
 10  9  2  0  0  0  0
 11  9  1  0  0  0  0
 11 12  2  0  0  0  0
 12 25  1  0  0  0  0
 13 12  1  0  0  0  0
 13 31  1  0  0  0  0
 14 13  1  0  0  0  0
 15 14  1  0  0  0  0
 15 11  1  0  0  0  0
 16 15  1  0  0  0  0
 17 33  1  0  0  0  0
 17 16  2  0  0  0  0
 18 17  1  0  0  0  0
 19 18  2  0  0  0  0
 19 20  1  0  0  0  0
 20 21  2  0  0  0  0
 21 16  1  0  0  0  0
 21 36  1  0  0  0  0
 22 19  1  0  0  0  0
 23 22  2  0  0  0  0
 24 22  2  0  0  0  0
 25 26  2  0  0  0  0
 27  3  1  0  0  0  0
 28  4  1  0  0  0  0
 32 14  1  0  0  0  0
 34 18  1  0  0  0  0
 35 20  1  0  0  0  0
M  END
>  <Pose>
1

>  <Score>
-6.20

$$$$
