
 OpenBabel03202210083D

 45 48  0  0  1  0  0  0  0  0999 V2000
   54.9710   96.5650   25.9250 B   0  0  0  0  0  0  0  0  0  0  0  0
   55.0640   94.8790   25.0390 C   0  0  0  0  0  0  0  0  0  0  0  0
   56.2860   94.3910   24.6610 C   0  0  0  0  0  0  0  0  0  0  0  0
   56.3600   93.1630   24.0140 C   0  0  0  0  0  0  0  0  0  0  0  0
   55.2360   92.4170   23.7410 C   0  0  0  0  0  0  0  0  0  0  0  0
   54.0170   92.9260   24.1300 C   0  0  0  0  0  0  0  0  0  0  0  0
   53.9160   94.1480   24.7760 C   0  0  0  0  0  0  0  0  0  0  0  0
   55.4090   91.1730   23.0790 N   0  0  0  0  0  0  0  0  0  0  0  0
   55.8340   90.0090   23.8130 C   0  0  0  0  0  0  0  0  0  0  0  0
   56.0530   90.1030   25.0520 O   0  0  0  0  0  0  0  0  0  0  0  0
   55.9810   88.8100   23.0880 N   0  0  0  0  0  0  0  0  0  0  0  0
   55.7650   88.6930   21.8430 C   0  0  0  0  0  0  0  0  0  0  0  0
   55.3250   89.7750   20.9280 C   0  0  1  0  0  0  0  0  0  0  0  0
   56.2980   89.8580   19.8040 C   0  0  0  0  0  0  0  0  0  0  0  0
   55.8100   90.3340   18.5610 N   0  0  0  0  0  4  0  0  0  0  0  0
   54.5230   90.9080   18.5810 C   0  0  0  0  0  0  0  0  0  0  0  0
   53.5480   90.4320   19.4680 C   0  0  0  0  0  0  0  0  0  0  0  0
   52.3060   91.0010   19.4730 C   0  0  0  0  0  0  0  0  0  0  0  0
   51.9370   92.0370   18.6460 C   0  0  0  0  0  0  0  0  0  0  0  0
   52.9000   92.5030   17.7760 C   0  0  0  0  0  0  0  0  0  0  0  0
   54.1720   91.9450   17.7460 C   0  0  0  0  0  0  0  0  0  0  0  0
   50.5800   92.6300   18.6830 C   0  0  0  0  0  0  0  0  0  0  0  0
   53.9870   89.3140   20.3420 C   0  0  0  0  0  0  0  0  0  0  0  0
   55.9010   89.3170   17.4990 C   0  0  0  0  0  0  0  0  0  0  0  0
   55.1690   91.0370   21.6820 C   0  0  0  0  0  0  0  0  0  0  0  0
   54.7970   92.1050   21.0920 O   0  0  0  0  0  0  0  0  0  0  0  0
   55.9520   87.4290   21.2440 O   0  0  0  0  0  0  0  0  0  0  0  0
   57.1630   94.9850   24.8800 H   0  0  0  0  0  0  0  0  0  0  0  0
   57.3580   92.8340   23.7420 H   0  0  0  0  0  0  0  0  0  0  0  0
   53.1110   92.3650   23.9320 H   0  0  0  0  0  0  0  0  0  0  0  0
   52.9780   94.5720   25.0930 H   0  0  0  0  0  0  0  0  0  0  0  0
   57.1870   90.4260   20.1670 H   0  0  0  0  0  0  0  0  0  0  0  0
   56.6910   88.8120   19.6310 H   0  0  0  0  0  0  0  0  0  0  0  0
   56.4690   91.1010   18.2320 H   0  0  0  0  0  0  0  0  0  0  0  0
   51.5750   90.6040   20.1770 H   0  0  0  0  0  0  0  0  0  0  0  0
   52.6490   93.3180   17.1050 H   0  0  0  0  0  0  0  0  0  0  0  0
   54.9070   92.3250   17.0550 H   0  0  0  0  0  0  0  0  0  0  0  0
   50.3030   93.1470   17.7680 H   0  0  0  0  0  0  0  0  0  0  0  0
   49.8700   91.8410   19.0000 H   0  0  0  0  0  0  0  0  0  0  0  0
   50.5990   93.3840   19.5220 H   0  0  0  0  0  0  0  0  0  0  0  0
   53.2590   89.0860   21.1330 H   0  0  0  0  0  0  0  0  0  0  0  0
   54.2220   88.4470   19.6990 H   0  0  0  0  0  0  0  0  0  0  0  0
   54.9810   88.7110   17.4380 H   0  0  0  0  0  0  0  0  0  0  0  0
   56.8040   88.7060   17.6720 H   0  0  0  0  0  0  0  0  0  0  0  0
   56.0100   89.8400   16.5270 H   0  0  0  0  0  0  0  0  0  0  0  0
  2  1  1  0  0  0  0
  3 28  1  0  0  0  0
  3  2  2  0  0  0  0
  4  3  1  0  0  0  0
  5  4  2  0  0  0  0
  5  6  1  0  0  0  0
  6  7  2  0  0  0  0
  7  2  1  0  0  0  0
  7 31  1  0  0  0  0
  8  5  1  0  0  0  0
  8  9  1  0  0  0  0
  9 10  2  0  0  0  0
 11  9  1  0  0  0  0
 12 11  1  0  0  0  0
 13 25  1  1  0  0  0
 13 12  1  0  0  0  0
 14 32  1  0  0  0  0
 14 13  1  0  0  0  0
 15 16  1  0  0  0  0
 15 14  1  0  0  0  0
 16 17  1  0  0  0  0
 17 18  2  0  0  0  0
 17 23  1  0  0  0  0
 18 35  1  0  0  0  0
 19 22  1  0  0  0  0
 19 18  1  0  0  0  0
 20 19  2  0  0  0  0
 21 20  1  0  0  0  0
 21 16  2  0  0  0  0
 22 39  1  0  0  0  0
 22 40  1  0  0  0  0
 23 13  1  0  0  0  0
 23 41  1  0  0  0  0
 24 44  1  0  0  0  0
 24 15  1  0  0  0  0
 25  8  1  0  0  0  0
 26 25  2  0  0  0  0
 27 12  2  0  0  0  0
 29  4  1  0  0  0  0
 30  6  1  0  0  0  0
 33 14  1  0  0  0  0
 34 15  1  0  0  0  0
 36 20  1  0  0  0  0
 37 21  1  0  0  0  0
 38 22  1  0  0  0  0
 42 23  1  0  0  0  0
 43 24  1  0  0  0  0
 45 24  1  0  0  0  0
M  END
>  <Pose>
1

>  <Score>
-4.49

$$$$
