
 OpenBabel03202210083D

 50 53  0  0  0  0  0  0  0  0999 V2000
   56.9500   84.5150   26.5910 B   0  0  0  0  0  0  0  0  0  0  0  0
   56.4970   85.7950   25.2420 C   0  0  0  0  0  0  0  0  0  0  0  0
   57.4110   86.1480   24.2640 C   0  0  0  0  0  0  0  0  0  0  0  0
   57.0750   87.0720   23.2940 C   0  0  0  0  0  0  0  0  0  0  0  0
   55.8330   87.6750   23.2570 C   0  0  0  0  0  0  0  0  0  0  0  0
   54.9110   87.3340   24.2240 C   0  0  0  0  0  0  0  0  0  0  0  0
   55.2640   86.4080   25.1850 C   0  0  0  0  0  0  0  0  0  0  0  0
   55.5390   88.6070   22.2560 N   0  0  0  0  0  0  0  0  0  0  0  0
   55.1090   88.1530   20.9710 C   0  0  0  0  0  0  0  0  0  0  0  0
   55.0120   86.8970   20.7950 O   0  0  0  0  0  0  0  0  0  0  0  0
   54.8120   89.0950   19.9560 N   0  0  0  0  0  0  0  0  0  0  0  0
   54.9140   90.5050   20.1300 C   0  0  0  0  0  0  0  0  0  0  0  0
   54.6420   91.3210   19.2050 O   0  0  0  0  0  0  0  0  0  0  0  0
   55.3540   91.0090   21.4430 C   0  0  0  0  0  0  0  0  0  0  0  0
   55.4700   92.3090   21.6660 C   0  0  0  0  0  0  0  0  0  0  0  0
   55.8970   92.7630   22.9430 N   0  0  0  0  0  0  0  0  0  0  0  0
   55.0690   92.9920   24.0290 N   0  0  0  0  0  0  0  0  0  0  0  0
   55.0140   94.2110   24.7610 C   0  0  0  0  0  0  0  0  0  0  0  0
   56.0040   95.1060   24.8420 N   0  0  0  0  0  0  0  0  0  0  0  0
   55.6150   96.1380   25.6080 C   0  0  0  0  0  0  0  0  0  0  0  0
   54.3170   95.8730   26.0260 C   0  0  0  0  0  0  0  0  0  0  0  0
   54.0050   94.6970   25.4850 N   0  0  0  0  0  0  0  0  0  0  0  0
   53.6420   96.7270   26.8160 N   0  0  0  0  0  0  0  0  0  0  0  0
   54.2390   97.8540   27.2060 C   0  0  0  0  0  0  0  0  0  0  0  0
   53.6360   98.6860   27.9510 O   0  0  0  0  0  0  0  0  0  0  0  0
   55.5070   98.1750   26.8330 N   0  0  0  0  0  0  0  0  0  0  0  0
   56.1780   97.3090   26.0380 C   0  0  0  0  0  0  0  0  0  0  0  0
   57.3420   97.6010   25.6950 O   0  0  0  0  0  0  0  0  0  0  0  0
   56.1070   99.4070   27.2790 C   0  0  0  0  0  0  0  0  0  0  0  0
   52.3070   96.3850   27.2070 C   0  0  0  0  0  0  0  0  0  0  0  0
   57.3390   95.0690   24.2330 C   0  0  0  0  0  0  0  0  0  0  0  0
   55.6520   90.0130   22.4670 C   0  0  0  0  0  0  0  0  0  0  0  0
   56.0310   90.3960   23.6030 O   0  0  0  0  0  0  0  0  0  0  0  0
   58.3760   85.6630   24.3120 H   0  0  0  0  0  0  0  0  0  0  0  0
   57.8590   87.2920   22.5620 H   0  0  0  0  0  0  0  0  0  0  0  0
   53.9040   87.7780   24.2480 H   0  0  0  0  0  0  0  0  0  0  0  0
   54.5140   86.1680   25.9250 H   0  0  0  0  0  0  0  0  0  0  0  0
   54.5000   88.7210   19.0300 H   0  0  0  0  0  0  0  0  0  0  0  0
   55.2540   93.0360   20.9160 H   0  0  0  0  0  0  0  0  0  0  0  0
   56.9360   92.9290   23.0390 H   0  0  0  0  0  0  0  0  0  0  0  0
   54.4490   92.1740   24.2980 H   0  0  0  0  0  0  0  0  0  0  0  0
   55.3250  100.0360   27.7520 H   0  0  0  0  0  0  0  0  0  0  0  0
   56.4970  100.0040   26.4250 H   0  0  0  0  0  0  0  0  0  0  0  0
   56.9250   99.1900   27.9880 H   0  0  0  0  0  0  0  0  0  0  0  0
   52.2560   95.9250   28.2140 H   0  0  0  0  0  0  0  0  0  0  0  0
   51.6840   97.3020   27.1540 H   0  0  0  0  0  0  0  0  0  0  0  0
   51.8680   95.6600   26.4900 H   0  0  0  0  0  0  0  0  0  0  0  0
   57.2890   95.6640   23.2760 H   0  0  0  0  0  0  0  0  0  0  0  0
   58.0880   95.5460   24.8650 H   0  0  0  0  0  0  0  0  0  0  0  0
   57.5820   94.0280   23.9450 H   0  0  0  0  0  0  0  0  0  0  0  0
  2  1  1  0  0  0  0
  3 34  1  0  0  0  0
  3  2  2  0  0  0  0
  4  3  1  0  0  0  0
  5  4  2  0  0  0  0
  5  6  1  0  0  0  0
  6 36  1  0  0  0  0
  6  7  2  0  0  0  0
  7  2  1  0  0  0  0
  7 37  1  0  0  0  0
  8 32  1  0  0  0  0
  8  5  1  0  0  0  0
  9  8  1  0  0  0  0
 10  9  2  0  0  0  0
 11 12  1  0  0  0  0
 11  9  1  0  0  0  0
 12 14  1  0  0  0  0
 13 12  2  0  0  0  0
 14 15  2  0  0  0  0
 14 32  1  0  0  0  0
 15 16  1  0  0  0  0
 16 40  1  0  0  0  0
 16 17  1  0  0  0  0
 17 41  1  0  0  0  0
 17 18  1  0  0  0  0
 18 19  1  0  0  0  0
 18 22  2  0  0  0  0
 19 20  1  0  0  0  0
 20 21  2  0  0  0  0
 20 27  1  0  0  0  0
 21 23  1  0  0  0  0
 22 21  1  0  0  0  0
 23 24  1  0  0  0  0
 23 30  1  0  0  0  0
 24 25  2  0  0  0  0
 26 24  1  0  0  0  0
 26 29  1  0  0  0  0
 27 26  1  0  0  0  0
 28 27  2  0  0  0  0
 29 42  1  0  0  0  0
 29 44  1  0  0  0  0
 30 45  1  0  0  0  0
 31 19  1  0  0  0  0
 31 49  1  0  0  0  0
 32 33  2  0  0  0  0
 35  4  1  0  0  0  0
 38 11  1  0  0  0  0
 39 15  1  0  0  0  0
 43 29  1  0  0  0  0
 46 30  1  0  0  0  0
 47 30  1  0  0  0  0
 48 31  1  0  0  0  0
 50 31  1  0  0  0  0
M  END
>  <Pose>
1

>  <Score>
-8.47

$$$$
