
 OpenBabel03202210083D

 47 51  0  0  1  0  0  0  0  0999 V2000
   55.5560   90.0900   21.2580 B   0  0  0  0  0  0  0  0  0  0  0  0
   55.6020   91.6750   22.3470 C   0  0  0  0  0  0  0  0  0  0  0  0
   54.5760   92.5720   22.3530 C   0  0  0  0  0  0  0  0  0  0  0  0
   54.6460   93.7080   23.1560 C   0  0  0  0  0  0  0  0  0  0  0  0
   55.7390   93.9600   23.9590 C   0  0  0  0  0  0  0  0  0  0  0  0
   56.7570   93.0310   23.9260 C   0  0  0  0  0  0  0  0  0  0  0  0
   56.7130   91.9010   23.1420 C   0  0  0  0  0  0  0  0  0  0  0  0
   55.7770   95.1310   24.7660 N   0  0  0  0  0  0  0  0  0  0  0  0
   56.7730   96.0010   24.8920 N   0  0  0  0  0  0  0  0  0  0  0  0
   56.4350   96.9820   25.7490 C   0  0  0  0  0  0  0  0  0  0  0  0
   57.1930   98.0120   26.1040 C   0  0  0  0  0  0  0  0  0  0  0  0
   55.1560   96.7420   26.2080 C   0  0  1  0  0  0  0  0  0  0  0  0
   54.4310   97.4610   27.0700 C   0  0  0  0  0  0  0  0  0  0  0  0
   53.1230   96.9990   27.3850 N   0  0  0  0  0  4  0  0  0  0  0  0
   52.0560   97.8960   27.7250 C   0  0  2  0  0  0  0  0  0  0  0  0
   52.2940   98.5240   29.0610 C   0  0  0  0  0  0  0  0  0  0  0  0
   51.2440   99.4980   29.3230 N   0  0  1  0  0  0  0  0  0  0  0  0
   51.3000  100.5050   28.2710 C   0  0  0  0  0  0  0  0  0  0  0  0
   51.0050   99.9410   26.9760 N   0  0  2  0  0  0  0  0  0  0  0  0
   49.7220   99.2470   27.0260 C   0  0  0  0  0  0  0  0  0  0  0  0
   49.7090   98.2200   28.0430 N   0  0  2  0  0  0  0  0  0  0  0  0
   49.9690   98.8270   29.3280 C   0  0  0  0  0  0  0  0  0  0  0  0
   50.7070   97.2170   27.7580 C   0  0  0  0  0  0  0  0  0  0  0  0
   52.0130   98.9720   26.6350 C   0  0  0  0  0  0  0  0  0  0  0  0
   54.7830   95.5720   25.5650 C   0  0  0  0  0  0  0  0  0  0  0  0
   53.6710   95.0160   25.7170 O   0  0  0  0  0  0  0  0  0  0  0  0
   53.7140   92.3940   21.7340 H   0  0  0  0  0  0  0  0  0  0  0  0
   53.8310   94.4150   23.1570 H   0  0  0  0  0  0  0  0  0  0  0  0
   57.6190   93.2130   24.5480 H   0  0  0  0  0  0  0  0  0  0  0  0
   57.5120   91.1640   23.1120 H   0  0  0  0  0  0  0  0  0  0  0  0
   57.6850   95.9340   24.3970 H   0  0  0  0  0  0  0  0  0  0  0  0
   58.1870   98.1180   25.6910 H   0  0  0  0  0  0  0  0  0  0  0  0
   56.8740   98.7680   26.7930 H   0  0  0  0  0  0  0  0  0  0  0  0
   54.8600   98.3530   27.4890 H   0  0  0  0  0  0  0  0  0  0  0  0
   52.9520   95.9830   27.3650 H   0  0  0  0  0  0  0  0  0  0  0  0
   53.2910   98.9750   29.0910 H   0  0  0  0  0  0  0  0  0  0  0  0
   52.2460   97.7160   29.8260 H   0  0  0  0  0  0  0  0  0  0  0  0
   52.3120  100.9280   28.2590 H   0  0  0  0  0  0  0  0  0  0  0  0
   50.5250  101.2790   28.4800 H   0  0  0  0  0  0  0  0  0  0  0  0
   49.4760   98.8710   26.0270 H   0  0  0  0  0  0  0  0  0  0  0  0
   48.9710  100.0190   27.2930 H   0  0  0  0  0  0  0  0  0  0  0  0
   50.0240   98.0400   30.1240 H   0  0  0  0  0  0  0  0  0  0  0  0
   49.1930   99.5700   29.5760 H   0  0  0  0  0  0  0  0  0  0  0  0
   50.6980   96.4600   28.5680 H   0  0  0  0  0  0  0  0  0  0  0  0
   50.4690   96.7140   26.7960 H   0  0  0  0  0  0  0  0  0  0  0  0
   53.0130   99.4530   26.6550 H   0  0  0  0  0  0  0  0  0  0  0  0
   51.7910   98.4640   25.6760 H   0  0  0  0  0  0  0  0  0  0  0  0
  1  2  1  0  0  0  0
  2  3  2  0  0  0  0
  2  7  1  0  0  0  0
  3  4  1  0  0  0  0
  4 28  1  0  0  0  0
  4  5  2  0  0  0  0
  5  8  1  0  0  0  0
  6  5  1  0  0  0  0
  6 29  1  0  0  0  0
  7  6  2  0  0  0  0
  8  9  1  0  0  0  0
  8 25  1  0  0  0  0
  9 10  1  0  0  0  0
 10 11  2  0  0  0  0
 10 12  1  0  0  0  0
 11 33  1  0  0  0  0
 12 13  1  6  0  0  0
 13 14  2  0  0  0  0
 13 34  1  0  0  0  0
 15 14  1  6  0  0  0
 15 23  1  0  0  0  0
 15 16  1  0  0  0  0
 16 36  1  0  0  0  0
 16 17  1  0  0  0  0
 16 37  1  0  0  0  0
 17 18  1  6  0  0  0
 17 22  1  0  0  0  0
 18 39  1  0  0  0  0
 19 24  1  1  0  0  0
 19 20  1  0  0  0  0
 19 18  1  0  0  0  0
 20 41  1  0  0  0  0
 21 20  1  6  0  0  0
 21 22  1  0  0  0  0
 22 43  1  0  0  0  0
 22 42  1  0  0  0  0
 23 21  1  0  0  0  0
 23 44  1  0  0  0  0
 24 46  1  0  0  0  0
 24 15  1  0  0  0  0
 25 26  2  0  0  0  0
 25 12  1  0  0  0  0
 27  3  1  0  0  0  0
 30  7  1  0  0  0  0
 31  9  1  0  0  0  0
 32 11  1  0  0  0  0
 35 14  1  0  0  0  0
 38 18  1  0  0  0  0
 40 20  1  0  0  0  0
 45 23  1  0  0  0  0
 47 24  1  0  0  0  0
M  END
>  <Pose>
1

>  <Score>
-5.76

$$$$
