
 OpenBabel03202210083D

 49 52  0  0  0  0  0  0  0  0999 V2000
   54.9640   92.9360   23.1250 B   0  0  0  0  0  0  0  0  0  0  0  0
   54.8440   91.8400   21.5660 C   0  0  0  0  0  0  0  0  0  0  0  0
   54.2870   92.3330   20.4080 C   0  0  0  0  0  0  0  0  0  0  0  0
   54.1950   91.5580   19.2790 C   0  0  0  0  0  0  0  0  0  0  0  0
   54.6720   90.2790   19.3390 C   0  0  0  0  0  0  0  0  0  0  0  0
   55.2350   89.7830   20.5140 C   0  0  0  0  0  0  0  0  0  0  0  0
   55.3400   90.5410   21.6610 C   0  0  0  0  0  0  0  0  0  0  0  0
   55.9560   90.0450   22.9170 C   0  0  0  0  0  0  0  0  0  0  0  0
   55.6590   88.6390   23.1060 N   0  0  0  0  0  0  0  0  0  0  0  0
   56.8790   87.8370   22.8280 C   0  0  0  0  0  0  0  0  0  0  0  0
   56.3610   86.4020   22.8420 C   0  0  0  0  0  0  0  0  0  0  0  0
   55.0450   86.2700   23.3510 N   0  0  0  0  0  0  0  0  0  0  0  0
   54.8520   86.9600   24.6000 C   0  0  0  0  0  0  0  0  0  0  0  0
   55.4140   88.3490   24.5210 C   0  0  0  0  0  0  0  0  0  0  0  0
   53.9680   86.3320   22.4380 C   0  0  0  0  0  0  0  0  0  0  0  0
   53.5520   85.0750   21.8430 C   0  0  0  0  0  0  0  0  0  0  0  0
   54.3840   84.3010   21.3220 O   0  0  0  0  0  0  0  0  0  0  0  0
   52.1930   84.6860   21.8380 N   0  0  0  0  0  0  0  0  0  0  0  0
   51.7570   83.3670   21.3960 C   0  0  0  0  0  0  0  0  0  0  0  0
   50.5950   82.7150   22.0210 C   0  0  0  0  0  0  0  0  0  0  0  0
   51.9640   82.2520   22.4180 C   0  0  0  0  0  0  0  0  0  0  0  0
   54.5880   89.4800   18.2100 O   0  0  0  0  0  0  0  0  0  0  0  0
   53.8110   89.8020   17.0860 C   0  0  0  0  0  0  0  0  0  0  0  0
   53.7090   91.2820   16.8970 C   0  0  0  0  0  0  0  0  0  0  0  0
   53.6420   92.0190   18.0910 O   0  0  0  0  0  0  0  0  0  0  0  0
   53.9000   93.3510   20.3380 H   0  0  0  0  0  0  0  0  0  0  0  0
   55.5900   88.7840   20.4670 H   0  0  0  0  0  0  0  0  0  0  0  0
   55.6670   90.6330   23.7960 H   0  0  0  0  0  0  0  0  0  0  0  0
   57.0640   90.1290   22.7940 H   0  0  0  0  0  0  0  0  0  0  0  0
   57.3510   88.1200   21.8910 H   0  0  0  0  0  0  0  0  0  0  0  0
   57.5660   88.0310   23.6760 H   0  0  0  0  0  0  0  0  0  0  0  0
   57.0520   85.8410   23.5390 H   0  0  0  0  0  0  0  0  0  0  0  0
   56.5110   85.9130   21.8590 H   0  0  0  0  0  0  0  0  0  0  0  0
   55.3070   86.3660   25.4300 H   0  0  0  0  0  0  0  0  0  0  0  0
   53.7530   86.9800   24.8610 H   0  0  0  0  0  0  0  0  0  0  0  0
   54.8800   89.1210   25.0610 H   0  0  0  0  0  0  0  0  0  0  0  0
   56.4250   88.2930   25.0380 H   0  0  0  0  0  0  0  0  0  0  0  0
   53.0850   86.8290   22.9040 H   0  0  0  0  0  0  0  0  0  0  0  0
   54.2540   87.0270   21.5970 H   0  0  0  0  0  0  0  0  0  0  0  0
   51.4150   85.3340   22.1560 H   0  0  0  0  0  0  0  0  0  0  0  0
   51.9950   83.1630   20.3490 H   0  0  0  0  0  0  0  0  0  0  0  0
   50.0000   83.1940   22.8350 H   0  0  0  0  0  0  0  0  0  0  0  0
   50.0020   82.0020   21.4130 H   0  0  0  0  0  0  0  0  0  0  0  0
   52.3250   82.5490   23.4200 H   0  0  0  0  0  0  0  0  0  0  0  0
   52.3710   81.3260   21.9650 H   0  0  0  0  0  0  0  0  0  0  0  0
   52.8350   89.2990   17.1780 H   0  0  0  0  0  0  0  0  0  0  0  0
   54.3650   89.3960   16.1930 H   0  0  0  0  0  0  0  0  0  0  0  0
   54.5990   91.6380   16.3050 H   0  0  0  0  0  0  0  0  0  0  0  0
   52.7650   91.4890   16.3410 H   0  0  0  0  0  0  0  0  0  0  0  0
  2  7  1  0  0  0  0
  2  1  1  0  0  0  0
  3  2  2  0  0  0  0
  4  5  2  0  0  0  0
  4  3  1  0  0  0  0
  5  6  1  0  0  0  0
  6  7  2  0  0  0  0
  7  8  1  0  0  0  0
  8  9  1  0  0  0  0
  8 28  1  0  0  0  0
  9 14  1  0  0  0  0
 10 11  1  0  0  0  0
 10  9  1  0  0  0  0
 10 31  1  0  0  0  0
 11 12  1  0  0  0  0
 11 32  1  0  0  0  0
 12 13  1  0  0  0  0
 13 35  1  0  0  0  0
 13 34  1  0  0  0  0
 14 13  1  0  0  0  0
 14 37  1  0  0  0  0
 14 36  1  0  0  0  0
 15 38  1  0  0  0  0
 15 12  1  0  0  0  0
 16 15  1  0  0  0  0
 17 16  2  0  0  0  0
 18 16  1  0  0  0  0
 18 40  1  0  0  0  0
 19 18  1  0  0  0  0
 19 20  1  0  0  0  0
 19 21  1  0  0  0  0
 20 21  1  0  0  0  0
 20 42  1  0  0  0  0
 21 44  1  0  0  0  0
 22  5  1  0  0  0  0
 23 46  1  0  0  0  0
 23 22  1  0  0  0  0
 24 23  1  0  0  0  0
 24 25  1  0  0  0  0
 25  4  1  0  0  0  0
 26  3  1  0  0  0  0
 27  6  1  0  0  0  0
 29  8  1  0  0  0  0
 30 10  1  0  0  0  0
 33 11  1  0  0  0  0
 39 15  1  0  0  0  0
 41 19  1  0  0  0  0
 43 20  1  0  0  0  0
 45 21  1  0  0  0  0
 47 23  1  0  0  0  0
 48 24  1  0  0  0  0
 49 24  1  0  0  0  0
M  END
>  <Pose>
1

>  <Score>
-6.57

$$$$
