
 OpenBabel03202210083D

 41 44  0  0  0  0  0  0  0  0999 V2000
   57.6640   98.0230   25.9170 B   0  0  0  0  0  0  0  0  0  0  0  0
   56.5470   96.5710   25.3580 C   0  0  0  0  0  0  0  0  0  0  0  0
   56.9550   95.6760   24.4000 C   0  0  0  0  0  0  0  0  0  0  0  0
   56.1370   94.6350   24.0110 C   0  0  0  0  0  0  0  0  0  0  0  0
   54.8960   94.5020   24.5980 C   0  0  0  0  0  0  0  0  0  0  0  0
   54.4900   95.4140   25.5700 C   0  0  0  0  0  0  0  0  0  0  0  0
   55.2920   96.4590   25.9710 C   0  0  0  0  0  0  0  0  0  0  0  0
   54.8910   97.4060   27.0250 C   0  0  0  0  0  0  0  0  0  0  0  0
   53.6520   97.1270   27.6040 O   0  0  0  0  0  0  0  0  0  0  0  0
   52.6720   98.0770   27.8320 C   0  0  0  0  0  0  0  0  0  0  0  0
   52.2280   98.3430   29.1340 C   0  0  0  0  0  0  0  0  0  0  0  0
   51.2600   99.2800   29.4170 C   0  0  0  0  0  0  0  0  0  0  0  0
   50.6770  100.0100   28.4050 C   0  0  0  0  0  0  0  0  0  0  0  0
   51.1020   99.7630   27.1170 C   0  0  0  0  0  0  0  0  0  0  0  0
   52.0840   98.8130   26.8280 C   0  0  0  0  0  0  0  0  0  0  0  0
   49.6450  101.0110   28.6900 C   0  0  0  0  0  0  0  0  0  0  0  0
   49.4790  101.7560   29.7960 N   0  0  0  0  0  0  0  0  0  0  0  0
   48.4080  102.5390   29.6270 N   0  0  0  0  0  0  0  0  0  0  0  0
   47.8970  102.2950   28.4290 N   0  0  0  0  0  0  0  0  0  0  0  0
   48.6500  101.3670   27.8630 N   0  0  0  0  0  0  0  0  0  0  0  0
   47.8500  103.5040   30.5510 C   0  0  0  0  0  0  0  0  0  0  0  0
   48.8490  104.5490   30.8640 C   0  0  0  0  0  0  0  0  0  0  0  0
   49.7180  104.3300   31.7230 O   0  0  0  0  0  0  0  0  0  0  0  0
   48.7970  105.7820   30.1790 N   0  0  0  0  0  0  0  0  0  0  0  0
   54.2990   93.3940   24.0290 O   0  0  0  0  0  0  0  0  0  0  0  0
   55.2520   92.6370   23.3040 C   0  0  0  0  0  0  0  0  0  0  0  0
   56.2660   93.5940   23.0890 O   0  0  0  0  0  0  0  0  0  0  0  0
   57.9440   95.7720   23.9250 H   0  0  0  0  0  0  0  0  0  0  0  0
   53.5090   95.2380   26.0000 H   0  0  0  0  0  0  0  0  0  0  0  0
   55.6740   97.5380   27.8010 H   0  0  0  0  0  0  0  0  0  0  0  0
   54.8000   98.4030   26.5290 H   0  0  0  0  0  0  0  0  0  0  0  0
   52.7100   97.7480   29.9100 H   0  0  0  0  0  0  0  0  0  0  0  0
   50.9400   99.4620   30.4340 H   0  0  0  0  0  0  0  0  0  0  0  0
   50.6430  100.3360   26.3310 H   0  0  0  0  0  0  0  0  0  0  0  0
   52.3880   98.6610   25.7950 H   0  0  0  0  0  0  0  0  0  0  0  0
   46.9580  103.9720   30.0880 H   0  0  0  0  0  0  0  0  0  0  0  0
   47.5310  102.9540   31.4600 H   0  0  0  0  0  0  0  0  0  0  0  0
   48.9190  105.8590   29.1310 H   0  0  0  0  0  0  0  0  0  0  0  0
   48.6320  106.6650   30.7080 H   0  0  0  0  0  0  0  0  0  0  0  0
   55.5870   91.8030   23.9490 H   0  0  0  0  0  0  0  0  0  0  0  0
   54.8030   92.2530   22.3730 H   0  0  0  0  0  0  0  0  0  0  0  0
  2  1  1  0  0  0  0
  2  7  1  0  0  0  0
  3  2  2  0  0  0  0
  4  3  1  0  0  0  0
  4  5  2  0  0  0  0
  5  6  1  0  0  0  0
  6  7  2  0  0  0  0
  6 29  1  0  0  0  0
  7  8  1  0  0  0  0
  8  9  1  0  0  0  0
  8 30  1  0  0  0  0
  9 10  1  0  0  0  0
 10 11  1  0  0  0  0
 11 12  2  0  0  0  0
 11 32  1  0  0  0  0
 12 33  1  0  0  0  0
 13 16  1  0  0  0  0
 13 12  1  0  0  0  0
 14 13  2  0  0  0  0
 15 14  1  0  0  0  0
 15 10  2  0  0  0  0
 16 17  2  0  0  0  0
 18 17  1  0  0  0  0
 18 21  1  0  0  0  0
 19 18  1  0  0  0  0
 20 19  2  0  0  0  0
 20 16  1  0  0  0  0
 21 22  1  0  0  0  0
 21 37  1  0  0  0  0
 22 23  2  0  0  0  0
 24 39  1  0  0  0  0
 24 22  1  0  0  0  0
 25  5  1  0  0  0  0
 26 40  1  0  0  0  0
 26 25  1  0  0  0  0
 27 26  1  0  0  0  0
 27  4  1  0  0  0  0
 28  3  1  0  0  0  0
 31  8  1  0  0  0  0
 34 14  1  0  0  0  0
 35 15  1  0  0  0  0
 36 21  1  0  0  0  0
 38 24  1  0  0  0  0
 41 26  1  0  0  0  0
M  END
>  <Pose>
1

>  <Score>
-8.06

$$$$
