
 OpenBabel03202210083D

 44 47  0  0  1  0  0  0  0  0999 V2000
   56.2410   88.7680   21.8260 B   0  0  0  0  0  0  0  0  0  0  0  0
   55.3380   90.0340   20.7440 C   0  0  0  0  0  0  0  0  0  0  0  0
   55.0820   89.7540   19.4150 C   0  0  0  0  0  0  0  0  0  0  0  0
   54.4210   90.6560   18.5790 C   0  0  0  0  0  0  0  0  0  0  0  0
   54.0160   91.8700   19.1280 C   0  0  0  0  0  0  0  0  0  0  0  0
   54.2830   92.1270   20.4570 C   0  0  0  0  0  0  0  0  0  0  0  0
   54.9420   91.2310   21.2970 C   0  0  0  0  0  0  0  0  0  0  0  0
   55.1990   91.5580   22.6840 C   0  0  0  0  0  0  0  0  0  0  0  0
   54.6700   92.5630   23.2420 N   0  0  0  0  0  0  0  0  0  0  0  0
   54.8200   92.9990   24.5430 N   0  0  0  0  0  0  0  0  0  0  0  0
   55.2200   94.3140   24.8660 C   0  0  0  0  0  0  0  0  0  0  0  0
   54.2960   95.0930   25.4520 N   0  0  0  0  0  0  0  0  0  0  0  0
   54.5530   96.3700   25.8440 C   0  0  1  0  0  0  0  0  0  0  0  0
   55.7880   96.8120   25.6120 N   0  0  0  0  0  0  0  0  0  0  0  0
   56.7480   96.0920   25.0370 C   0  0  0  0  0  0  0  0  0  0  0  0
   56.4370   94.8150   24.6610 N   0  0  0  0  0  0  0  0  0  0  0  0
   58.0230   96.5810   24.8100 O   0  0  0  0  0  0  0  0  0  0  0  0
   58.2280   97.6810   23.9640 C   0  0  0  0  0  0  0  0  0  0  0  0
   53.5320   97.1160   26.4370 N   0  0  0  0  0  0  0  0  0  0  0  0
   52.5260   96.4900   27.2620 C   0  0  0  0  0  0  0  0  0  0  0  0
   51.7930   97.5160   28.1000 C   0  0  0  0  0  0  0  0  0  0  0  0
   52.5310   98.5750   28.5170 O   0  0  0  0  0  0  0  0  0  0  0  0
   53.4620   99.1070   27.6810 C   0  0  0  0  0  0  0  0  0  0  0  0
   53.4510   98.5440   26.2630 C   0  0  0  0  0  0  0  0  0  0  0  0
   53.3990   92.5700   18.1160 O   0  0  0  0  0  0  0  0  0  0  0  0
   53.5560   91.9130   16.8750 C   0  0  0  0  0  0  0  0  0  0  0  0
   54.0400   90.6490   17.2470 O   0  0  0  0  0  0  0  0  0  0  0  0
   55.4040   88.7940   18.9870 H   0  0  0  0  0  0  0  0  0  0  0  0
   53.9400   93.1020   20.8410 H   0  0  0  0  0  0  0  0  0  0  0  0
   55.8570   90.9360   23.2590 H   0  0  0  0  0  0  0  0  0  0  0  0
   54.6310   92.3290   25.3200 H   0  0  0  0  0  0  0  0  0  0  0  0
   58.6630   97.2860   23.0070 H   0  0  0  0  0  0  0  0  0  0  0  0
   59.0000   98.3850   24.3670 H   0  0  0  0  0  0  0  0  0  0  0  0
   57.2960   98.2620   23.8100 H   0  0  0  0  0  0  0  0  0  0  0  0
   52.8790   95.6510   27.8730 H   0  0  0  0  0  0  0  0  0  0  0  0
   51.7490   96.0620   26.5550 H   0  0  0  0  0  0  0  0  0  0  0  0
   50.8500   97.8810   27.6010 H   0  0  0  0  0  0  0  0  0  0  0  0
   51.4260   96.9620   29.0150 H   0  0  0  0  0  0  0  0  0  0  0  0
   53.4690  100.2240   27.6810 H   0  0  0  0  0  0  0  0  0  0  0  0
   54.4750   98.8070   28.0860 H   0  0  0  0  0  0  0  0  0  0  0  0
   52.4400   98.7390   25.8220 H   0  0  0  0  0  0  0  0  0  0  0  0
   54.2600   98.9990   25.6990 H   0  0  0  0  0  0  0  0  0  0  0  0
   54.2210   92.4510   16.1690 H   0  0  0  0  0  0  0  0  0  0  0  0
   52.5280   91.7980   16.4530 H   0  0  0  0  0  0  0  0  0  0  0  0
  2  7  1  0  0  0  0
  2  1  1  0  0  0  0
  3  2  2  0  0  0  0
  4  5  2  0  0  0  0
  4  3  1  0  0  0  0
  5  6  1  0  0  0  0
  6 29  1  0  0  0  0
  6  7  2  0  0  0  0
  7  8  1  0  0  0  0
  8  9  2  0  0  0  0
  8 30  1  0  0  0  0
  9 10  1  0  0  0  0
 10 11  1  0  0  0  0
 10 31  1  0  0  0  0
 11 12  2  0  0  0  0
 12 13  1  0  0  0  0
 13 19  1  6  0  0  0
 14 13  1  0  0  0  0
 15 14  2  0  0  0  0
 16 11  1  0  0  0  0
 16 15  2  0  0  0  0
 17 15  1  0  0  0  0
 18 33  1  0  0  0  0
 18 17  1  0  0  0  0
 19 20  1  0  0  0  0
 20 35  1  0  0  0  0
 20 21  1  0  0  0  0
 21 22  1  0  0  0  0
 21 38  1  0  0  0  0
 23 39  1  0  0  0  0
 23 40  1  0  0  0  0
 23 22  1  0  0  0  0
 24 19  1  0  0  0  0
 24 23  1  0  0  0  0
 25  5  1  0  0  0  0
 26 27  1  0  0  0  0
 26 25  1  0  0  0  0
 27  4  1  0  0  0  0
 28  3  1  0  0  0  0
 32 18  1  0  0  0  0
 34 18  1  0  0  0  0
 36 20  1  0  0  0  0
 37 21  1  0  0  0  0
 41 24  1  0  0  0  0
 42 24  1  0  0  0  0
 43 26  1  0  0  0  0
 44 26  1  0  0  0  0
M  END
>  <Pose>
1

>  <Score>
-7.89

$$$$
