
 OpenBabel03202210083D

 53 57  0  0  1  0  0  0  0  0999 V2000
   57.2730   94.7670   24.2100 B   0  0  0  0  0  0  0  0  0  0  0  0
   55.7890   95.4050   25.2060 C   0  0  0  0  0  0  0  0  0  0  0  0
   55.8300   96.6040   25.8770 C   0  0  0  0  0  0  0  0  0  0  0  0
   54.7730   97.0710   26.5930 C   0  0  0  0  0  0  0  0  0  0  0  0
   53.6160   96.3250   26.6570 C   0  0  0  0  0  0  0  0  0  0  0  0
   53.5520   95.1010   25.9820 C   0  0  0  0  0  0  0  0  0  0  0  0
   54.6260   94.6220   25.2520 C   0  0  0  0  0  0  0  0  0  0  0  0
   54.6260   93.3930   24.5500 N   0  0  0  0  0  0  0  0  0  0  0  0
   54.5810   93.2550   23.1470 C   0  0  0  0  0  0  0  0  0  0  0  0
   53.7110   93.7310   22.3980 O   0  0  0  0  0  0  0  0  0  0  0  0
   55.6840   92.4570   22.4890 C   0  0  0  0  0  0  0  0  0  0  0  0
   55.1660   91.2820   21.8270 N   0  0  0  0  0  0  0  0  0  0  0  0
   56.0660   90.5750   21.0470 C   0  0  0  0  0  0  0  0  0  0  0  0
   55.6070   89.8200   19.8600 C   0  0  0  0  0  0  0  0  0  0  0  0
   54.1920   89.6060   19.9630 N   0  0  0  0  0  0  0  0  0  0  0  0
   53.4260   90.8140   20.1480 C   0  0  0  0  0  0  0  0  0  0  0  0
   53.7940   91.3510   21.5060 C   0  0  0  0  0  0  0  0  0  0  0  0
   53.5250   88.3710   19.9030 C   0  0  1  0  0  0  0  0  0  0  0  0
   52.3800   88.1640   19.2060 N   0  0  0  0  0  0  0  0  0  0  0  0
   51.7650   86.9680   19.1660 C   0  0  0  0  0  0  0  0  0  0  0  0
   52.2650   85.9080   19.8250 N   0  0  0  0  0  0  0  0  0  0  0  0
   53.4010   86.0210   20.5440 C   0  0  0  0  0  0  0  0  0  0  0  0
   54.1180   85.1440   21.2910 N   0  0  0  0  0  0  0  0  0  0  0  0
   55.1480   85.8210   21.7660 N   0  0  0  0  0  0  0  0  0  0  0  0
   55.1330   87.0940   21.3650 C   0  0  0  0  0  0  0  0  0  0  0  0
   54.0160   87.2470   20.5750 C   0  0  0  0  0  0  0  0  0  0  0  0
   53.7890   83.7340   21.5070 C   0  0  0  0  0  0  0  0  0  0  0  0
   52.5630   96.8160   27.3850 O   0  0  0  0  0  0  0  0  0  0  0  0
   52.6910   97.7350   28.4420 C   0  0  0  0  0  0  0  0  0  0  0  0
   54.0480   98.3600   28.5210 C   0  0  0  0  0  0  0  0  0  0  0  0
   54.7710   98.2740   27.2850 O   0  0  0  0  0  0  0  0  0  0  0  0
   56.7350   97.1980   25.8320 H   0  0  0  0  0  0  0  0  0  0  0  0
   52.6400   94.5500   26.0530 H   0  0  0  0  0  0  0  0  0  0  0  0
   54.6650   92.4960   25.1290 H   0  0  0  0  0  0  0  0  0  0  0  0
   56.1250   93.1360   21.7360 H   0  0  0  0  0  0  0  0  0  0  0  0
   56.4580   92.2240   23.2450 H   0  0  0  0  0  0  0  0  0  0  0  0
   56.8810   91.2790   20.6970 H   0  0  0  0  0  0  0  0  0  0  0  0
   56.6440   89.8610   21.7100 H   0  0  0  0  0  0  0  0  0  0  0  0
   55.8130   90.3640   18.9040 H   0  0  0  0  0  0  0  0  0  0  0  0
   56.1840   88.8780   19.7710 H   0  0  0  0  0  0  0  0  0  0  0  0
   52.3500   90.6540   20.0620 H   0  0  0  0  0  0  0  0  0  0  0  0
   53.7370   91.5970   19.4060 H   0  0  0  0  0  0  0  0  0  0  0  0
   53.2010   90.8410   22.2940 H   0  0  0  0  0  0  0  0  0  0  0  0
   53.4780   92.4180   21.5240 H   0  0  0  0  0  0  0  0  0  0  0  0
   50.8540   86.9200   18.5750 H   0  0  0  0  0  0  0  0  0  0  0  0
   55.8180   87.9060   21.5690 H   0  0  0  0  0  0  0  0  0  0  0  0
   54.6710   83.0770   21.3950 H   0  0  0  0  0  0  0  0  0  0  0  0
   53.3900   83.5610   22.5330 H   0  0  0  0  0  0  0  0  0  0  0  0
   52.9720   83.4640   20.8040 H   0  0  0  0  0  0  0  0  0  0  0  0
   51.8790   98.5060   28.3490 H   0  0  0  0  0  0  0  0  0  0  0  0
   52.4980   97.1770   29.4030 H   0  0  0  0  0  0  0  0  0  0  0  0
   54.6650   97.7840   29.2670 H   0  0  0  0  0  0  0  0  0  0  0  0
   54.0200   99.3950   28.8840 H   0  0  0  0  0  0  0  0  0  0  0  0
  1  2  1  0  0  0  0
  2  7  2  0  0  0  0
  2  3  1  0  0  0  0
  3  4  2  0  0  0  0
  4  5  1  0  0  0  0
  4 31  1  0  0  0  0
  5 28  1  0  0  0  0
  6 33  1  0  0  0  0
  6  5  2  0  0  0  0
  7  6  1  0  0  0  0
  8 34  1  0  0  0  0
  8  7  1  0  0  0  0
  9  8  1  0  0  0  0
 10  9  2  0  0  0  0
 11  9  1  0  0  0  0
 11 36  1  0  0  0  0
 12 11  1  0  0  0  0
 13 38  1  0  0  0  0
 13 12  1  0  0  0  0
 14 15  1  0  0  0  0
 14 13  1  0  0  0  0
 15 16  1  0  0  0  0
 16 17  1  0  0  0  0
 17 44  1  0  0  0  0
 17 12  1  0  0  0  0
 17 43  1  0  0  0  0
 18 15  1  6  0  0  0
 18 26  1  0  0  0  0
 19 18  1  0  0  0  0
 20 19  2  0  0  0  0
 20 21  1  0  0  0  0
 21 22  1  0  0  0  0
 22 26  2  0  0  0  0
 22 23  1  0  0  0  0
 23 27  1  0  0  0  0
 23 24  1  0  0  0  0
 25 46  1  0  0  0  0
 25 24  2  0  0  0  0
 26 25  1  0  0  0  0
 27 48  1  0  0  0  0
 28 29  1  0  0  0  0
 29 30  1  0  0  0  0
 29 51  1  0  0  0  0
 30 53  1  0  0  0  0
 30 52  1  0  0  0  0
 31 30  1  0  0  0  0
 32  3  1  0  0  0  0
 35 11  1  0  0  0  0
 37 13  1  0  0  0  0
 39 14  1  0  0  0  0
 40 14  1  0  0  0  0
 41 16  1  0  0  0  0
 42 16  1  0  0  0  0
 45 20  1  0  0  0  0
 47 27  1  0  0  0  0
 49 27  1  0  0  0  0
 50 29  1  0  0  0  0
M  END
>  <Pose>
1

>  <Score>
-7.64

$$$$
