
 OpenBabel03202210083D

 44 47  0  0  0  0  0  0  0  0999 V2000
   58.2550   98.2810   25.4380 B   0  0  0  0  0  0  0  0  0  0  0  0
   56.8440   96.9980   25.4270 C   0  0  0  0  0  0  0  0  0  0  0  0
   56.9180   95.8830   24.6100 C   0  0  0  0  0  0  0  0  0  0  0  0
   55.9070   94.9330   24.5810 C   0  0  0  0  0  0  0  0  0  0  0  0
   54.8290   95.1660   25.4120 C   0  0  0  0  0  0  0  0  0  0  0  0
   54.7280   96.2630   26.2310 C   0  0  0  0  0  0  0  0  0  0  0  0
   55.7430   97.1890   26.2420 C   0  0  0  0  0  0  0  0  0  0  0  0
   53.8180   94.2220   25.3860 C   0  0  0  0  0  0  0  0  0  0  0  0
   52.7930   94.3770   26.1280 O   0  0  0  0  0  0  0  0  0  0  0  0
   53.9450   93.1310   24.5530 C   0  0  0  0  0  0  0  0  0  0  0  0
   55.0470   92.9530   23.7480 C   0  0  0  0  0  0  0  0  0  0  0  0
   55.9750   93.8750   23.8090 O   0  0  0  0  0  0  0  0  0  0  0  0
   55.1370   91.7740   22.8780 C   0  0  0  0  0  0  0  0  0  0  0  0
   55.4000   90.6600   23.4170 O   0  0  0  0  0  0  0  0  0  0  0  0
   54.9440   91.8390   21.4840 N   0  0  0  0  0  0  0  0  0  0  0  0
   56.0490   91.5280   20.6130 C   0  0  0  0  0  0  0  0  0  0  0  0
   55.7190   90.4450   19.6080 C   0  0  0  0  0  0  0  0  0  0  0  0
   54.3390   90.5220   19.3010 N   0  0  0  0  0  0  0  0  0  0  0  0
   53.8380   91.8390   19.3490 C   0  0  0  0  0  0  0  0  0  0  0  0
   53.7040   92.1990   20.8410 C   0  0  0  0  0  0  0  0  0  0  0  0
   53.5140   89.4870   19.7790 C   0  0  0  0  0  0  0  0  0  0  0  0
   52.6710   88.8370   18.7800 C   0  0  0  0  0  0  0  0  0  0  0  0
   52.6910   87.5290   18.4750 N   0  0  0  0  0  0  0  0  0  0  0  0
   51.8130   87.3380   17.5560 O   0  0  0  0  0  0  0  0  0  0  0  0
   51.2080   88.4540   17.2340 N   0  0  0  0  0  0  0  0  0  0  0  0
   51.7280   89.4420   17.9960 C   0  0  0  0  0  0  0  0  0  0  0  0
   51.3460   90.8860   17.9760 C   0  0  0  0  0  0  0  0  0  0  0  0
   57.7810   95.7520   23.9860 H   0  0  0  0  0  0  0  0  0  0  0  0
   53.8530   96.3800   26.8540 H   0  0  0  0  0  0  0  0  0  0  0  0
   55.6770   98.0660   26.8880 H   0  0  0  0  0  0  0  0  0  0  0  0
   53.1430   92.3970   24.5450 H   0  0  0  0  0  0  0  0  0  0  0  0
   56.9670   91.2590   21.2020 H   0  0  0  0  0  0  0  0  0  0  0  0
   56.3200   92.4580   20.0280 H   0  0  0  0  0  0  0  0  0  0  0  0
   56.0140   89.4460   20.0220 H   0  0  0  0  0  0  0  0  0  0  0  0
   56.3490   90.5960   18.6820 H   0  0  0  0  0  0  0  0  0  0  0  0
   54.5970   92.5310   18.9330 H   0  0  0  0  0  0  0  0  0  0  0  0
   52.8680   92.0090   18.8790 H   0  0  0  0  0  0  0  0  0  0  0  0
   53.5170   93.2860   20.9580 H   0  0  0  0  0  0  0  0  0  0  0  0
   52.8270   91.6850   21.2790 H   0  0  0  0  0  0  0  0  0  0  0  0
   52.8830   89.8690   20.6070 H   0  0  0  0  0  0  0  0  0  0  0  0
   54.1690   88.7010   20.2540 H   0  0  0  0  0  0  0  0  0  0  0  0
   51.5290   91.3530   18.9810 H   0  0  0  0  0  0  0  0  0  0  0  0
   51.9700   91.3950   17.2380 H   0  0  0  0  0  0  0  0  0  0  0  0
   50.2550   90.9920   17.7960 H   0  0  0  0  0  0  0  0  0  0  0  0
  2  1  1  0  0  0  0
  2  7  1  0  0  0  0
  3  2  2  0  0  0  0
  4  3  1  0  0  0  0
  4  5  2  0  0  0  0
  5  6  1  0  0  0  0
  6  7  2  0  0  0  0
  6 29  1  0  0  0  0
  7 30  1  0  0  0  0
  8  5  1  0  0  0  0
  8  9  2  0  0  0  0
 10  8  1  0  0  0  0
 11 12  1  0  0  0  0
 11 10  2  0  0  0  0
 12  4  1  0  0  0  0
 13 14  2  0  0  0  0
 13 11  1  0  0  0  0
 15 13  1  0  0  0  0
 16 32  1  0  0  0  0
 16 15  1  0  0  0  0
 17 34  1  0  0  0  0
 17 16  1  0  0  0  0
 18 19  1  0  0  0  0
 18 17  1  0  0  0  0
 18 21  1  0  0  0  0
 19 20  1  0  0  0  0
 20 38  1  0  0  0  0
 20 39  1  0  0  0  0
 20 15  1  0  0  0  0
 21 41  1  0  0  0  0
 21 40  1  0  0  0  0
 22 21  1  0  0  0  0
 23 22  2  0  0  0  0
 24 23  1  0  0  0  0
 25 24  1  0  0  0  0
 25 26  2  0  0  0  0
 26 22  1  0  0  0  0
 27 26  1  0  0  0  0
 27 42  1  0  0  0  0
 28  3  1  0  0  0  0
 31 10  1  0  0  0  0
 33 16  1  0  0  0  0
 35 17  1  0  0  0  0
 36 19  1  0  0  0  0
 37 19  1  0  0  0  0
 43 27  1  0  0  0  0
 44 27  1  0  0  0  0
M  END
>  <Pose>
1

>  <Score>
-6.53

$$$$
