
 OpenBabel03202210083D

 44 47  0  0  0  0  0  0  0  0999 V2000
   57.0240   88.1500   24.9530 B   0  0  0  0  0  0  0  0  0  0  0  0
   56.3550   88.8070   23.2990 C   0  0  0  0  0  0  0  0  0  0  0  0
   55.7910   90.0830   23.1870 C   0  0  0  0  0  0  0  0  0  0  0  0
   55.3050   90.5640   21.9900 C   0  0  0  0  0  0  0  0  0  0  0  0
   55.3760   89.7540   20.8510 C   0  0  0  0  0  0  0  0  0  0  0  0
   55.9380   88.4910   20.9740 C   0  0  0  0  0  0  0  0  0  0  0  0
   56.4170   88.0290   22.1770 C   0  0  0  0  0  0  0  0  0  0  0  0
   54.8250   90.4280   19.7250 N   0  0  0  0  0  0  0  0  0  0  0  0
   54.3950   91.7030   20.1780 C   0  0  0  0  0  0  0  0  0  0  0  0
   53.8480   92.6450   19.5420 O   0  0  0  0  0  0  0  0  0  0  0  0
   54.6850   91.8290   21.6230 C   0  0  0  0  0  0  0  0  0  0  0  0
   54.4370   92.8430   22.3780 N   0  0  0  0  0  0  0  0  0  0  0  0
   54.7540   92.8540   23.7390 N   0  0  0  0  0  0  0  0  0  0  0  0
   55.6260   93.8140   24.3100 C   0  0  0  0  0  0  0  0  0  0  0  0
   56.3920   94.4630   23.5620 O   0  0  0  0  0  0  0  0  0  0  0  0
   55.6300   94.0380   25.7490 C   0  0  0  0  0  0  0  0  0  0  0  0
   55.2650   95.3940   26.1140 N   0  0  0  0  0  0  0  0  0  0  0  0
   55.9620   96.4960   25.8920 N   0  0  0  0  0  0  0  0  0  0  0  0
   55.3170   97.5500   26.3640 N   0  0  0  0  0  0  0  0  0  0  0  0
   54.1660   97.1230   26.9100 C   0  0  0  0  0  0  0  0  0  0  0  0
   54.1670   95.7940   26.7380 N   0  0  0  0  0  0  0  0  0  0  0  0
   53.1620   97.9710   27.5430 C   0  0  0  0  0  0  0  0  0  0  0  0
   52.8280   99.1840   26.9810 C   0  0  0  0  0  0  0  0  0  0  0  0
   51.8670   99.9990   27.5840 C   0  0  0  0  0  0  0  0  0  0  0  0
   51.2290   99.6250   28.7450 C   0  0  0  0  0  0  0  0  0  0  0  0
   51.5630   98.4070   29.3120 C   0  0  0  0  0  0  0  0  0  0  0  0
   52.5190   97.6040   28.7050 C   0  0  0  0  0  0  0  0  0  0  0  0
   54.6890   89.9800   18.3540 C   0  0  0  0  0  0  0  0  0  0  0  0
   53.2890   89.7690   18.0240 C   0  0  0  0  0  0  0  0  0  0  0  0
   52.1250   89.6070   17.7620 C   0  0  0  0  0  0  0  0  0  0  0  0
   55.7530   90.6820   24.0900 H   0  0  0  0  0  0  0  0  0  0  0  0
   56.0140   87.8320   20.1220 H   0  0  0  0  0  0  0  0  0  0  0  0
   56.8610   87.0310   22.2760 H   0  0  0  0  0  0  0  0  0  0  0  0
   54.3370   92.1210   24.3470 H   0  0  0  0  0  0  0  0  0  0  0  0
   56.6180   93.7930   26.1820 H   0  0  0  0  0  0  0  0  0  0  0  0
   54.9080   93.3220   26.2130 H   0  0  0  0  0  0  0  0  0  0  0  0
   53.3190   99.5030   26.0620 H   0  0  0  0  0  0  0  0  0  0  0  0
   51.6020  100.9590   27.1420 H   0  0  0  0  0  0  0  0  0  0  0  0
   50.4780  100.2810   29.2000 H   0  0  0  0  0  0  0  0  0  0  0  0
   51.0630   98.1050   30.2270 H   0  0  0  0  0  0  0  0  0  0  0  0
   52.7910   96.6440   29.1380 H   0  0  0  0  0  0  0  0  0  0  0  0
   55.1080   90.7220   17.6300 H   0  0  0  0  0  0  0  0  0  0  0  0
   55.3060   89.0570   18.2300 H   0  0  0  0  0  0  0  0  0  0  0  0
   51.0820   89.4570   17.5420 H   0  0  0  0  0  0  0  0  0  0  0  0
  2  1  1  0  0  0  0
  3  2  1  0  0  0  0
  3 31  1  0  0  0  0
  4  3  2  0  0  0  0
  5  6  2  0  0  0  0
  5  4  1  0  0  0  0
  6  7  1  0  0  0  0
  7 33  1  0  0  0  0
  7  2  2  0  0  0  0
  8  9  1  0  0  0  0
  8  5  1  0  0  0  0
  9 11  1  0  0  0  0
 10  9  2  0  0  0  0
 11  4  1  0  0  0  0
 11 12  2  0  0  0  0
 12 13  1  0  0  0  0
 13 14  1  0  0  0  0
 13 34  1  0  0  0  0
 14 16  1  0  0  0  0
 15 14  2  0  0  0  0
 16 17  1  0  0  0  0
 16 35  1  0  0  0  0
 16 36  1  0  0  0  0
 17 21  1  0  0  0  0
 18 17  1  0  0  0  0
 18 19  1  0  0  0  0
 19 20  2  0  0  0  0
 20 22  1  0  0  0  0
 21 20  1  0  0  0  0
 22 27  1  0  0  0  0
 23 22  2  0  0  0  0
 23 24  1  0  0  0  0
 24 25  2  0  0  0  0
 25 39  1  0  0  0  0
 25 26  1  0  0  0  0
 26 40  1  0  0  0  0
 27 41  1  0  0  0  0
 27 26  2  0  0  0  0
 28  8  1  0  0  0  0
 29 28  1  0  0  0  0
 30 29  3  0  0  0  0
 32  6  1  0  0  0  0
 37 23  1  0  0  0  0
 38 24  1  0  0  0  0
 42 28  1  0  0  0  0
 43 28  1  0  0  0  0
 44 30  1  0  0  0  0
M  END
>  <Pose>
1

>  <Score>
-9.22

$$$$
