
 OpenBabel03202210083D

 59 62  0  0  0  0  0  0  0  0999 V2000
   54.7330   85.2130   26.2560 B   0  0  0  0  0  0  0  0  0  0  0  0
   54.9780   86.4610   24.8150 C   0  0  0  0  0  0  0  0  0  0  0  0
   55.1390   87.8080   25.0490 C   0  0  0  0  0  0  0  0  0  0  0  0
   55.3190   88.7480   24.0410 C   0  0  0  0  0  0  0  0  0  0  0  0
   55.3370   88.2990   22.7170 C   0  0  0  0  0  0  0  0  0  0  0  0
   55.1760   86.9490   22.4810 C   0  0  0  0  0  0  0  0  0  0  0  0
   54.9980   86.0250   23.5070 C   0  0  0  0  0  0  0  0  0  0  0  0
   55.5330   89.4070   21.8270 N   0  0  0  0  0  0  0  0  0  0  0  0
   55.6370   90.5690   22.6390 C   0  0  0  0  0  0  0  0  0  0  0  0
   55.8140   91.7330   22.2170 O   0  0  0  0  0  0  0  0  0  0  0  0
   55.5070   90.1870   24.0320 C   0  0  0  0  0  0  0  0  0  0  0  0
   55.5480   90.9590   25.0590 N   0  0  0  0  0  0  0  0  0  0  0  0
   55.7320   92.3330   24.9710 N   0  0  0  0  0  0  0  0  0  0  0  0
   55.1370   93.1830   25.9270 C   0  0  0  0  0  0  0  0  0  0  0  0
   55.2050   92.9320   27.1800 O   0  0  0  0  0  0  0  0  0  0  0  0
   54.3970   94.4200   25.5720 C   0  0  0  0  0  0  0  0  0  0  0  0
   54.7970   95.4930   26.4230 O   0  0  0  0  0  0  0  0  0  0  0  0
   55.8110   96.3480   26.0250 C   0  0  0  0  0  0  0  0  0  0  0  0
   55.9200   97.6020   26.5880 C   0  0  0  0  0  0  0  0  0  0  0  0
   56.9410   98.4560   26.1830 C   0  0  0  0  0  0  0  0  0  0  0  0
   57.8470   98.0580   25.2180 C   0  0  0  0  0  0  0  0  0  0  0  0
   57.7250   96.8150   24.6700 C   0  0  0  0  0  0  0  0  0  0  0  0
   56.7090   95.9660   25.0740 C   0  0  0  0  0  0  0  0  0  0  0  0
   55.0370   98.0270   27.5480 O   0  0  0  0  0  0  0  0  0  0  0  0
   53.6970   98.2920   27.2190 C   0  0  0  0  0  0  0  0  0  0  0  0
   55.6080   89.3070   20.3790 C   0  0  0  0  0  0  0  0  0  0  0  0
   54.5030   89.8620   19.6830 N   0  0  0  0  0  0  0  0  0  0  0  0
   54.8190   90.7820   18.6460 C   0  0  0  0  0  0  0  0  0  0  0  0
   53.5630   91.3840   18.0100 C   0  0  0  0  0  0  0  0  0  0  0  0
   52.4650   91.0600   18.8750 N   0  0  0  0  0  0  0  0  0  0  0  0
   52.1820   89.6590   18.9220 C   0  0  0  0  0  0  0  0  0  0  0  0
   53.4440   88.9460   19.3710 C   0  0  0  0  0  0  0  0  0  0  0  0
   51.3130   91.8950   18.6900 C   0  0  0  0  0  0  0  0  0  0  0  0
   55.1240   88.1530   26.0820 H   0  0  0  0  0  0  0  0  0  0  0  0
   55.1840   86.5490   21.4610 H   0  0  0  0  0  0  0  0  0  0  0  0
   54.8720   84.9700   23.3290 H   0  0  0  0  0  0  0  0  0  0  0  0
   56.3020   92.7220   24.2070 H   0  0  0  0  0  0  0  0  0  0  0  0
   54.5670   94.7420   24.5320 H   0  0  0  0  0  0  0  0  0  0  0  0
   53.3080   94.2710   25.6870 H   0  0  0  0  0  0  0  0  0  0  0  0
   57.0170   99.4440   26.6360 H   0  0  0  0  0  0  0  0  0  0  0  0
   58.6560   98.7080   24.8820 H   0  0  0  0  0  0  0  0  0  0  0  0
   58.4150   96.4930   23.9260 H   0  0  0  0  0  0  0  0  0  0  0  0
   56.6620   94.9970   24.6070 H   0  0  0  0  0  0  0  0  0  0  0  0
   53.5980   99.0230   26.3880 H   0  0  0  0  0  0  0  0  0  0  0  0
   53.2490   97.3410   26.8280 H   0  0  0  0  0  0  0  0  0  0  0  0
   53.1830   98.6200   28.1480 H   0  0  0  0  0  0  0  0  0  0  0  0
   56.5780   89.7070   19.9970 H   0  0  0  0  0  0  0  0  0  0  0  0
   55.6410   88.2100   20.1440 H   0  0  0  0  0  0  0  0  0  0  0  0
   55.3600   91.6430   19.0890 H   0  0  0  0  0  0  0  0  0  0  0  0
   55.4790   90.3610   17.8580 H   0  0  0  0  0  0  0  0  0  0  0  0
   53.6330   92.4760   17.9070 H   0  0  0  0  0  0  0  0  0  0  0  0
   53.4730   90.9510   16.9950 H   0  0  0  0  0  0  0  0  0  0  0  0
   51.8400   89.2270   17.9640 H   0  0  0  0  0  0  0  0  0  0  0  0
   51.3480   89.5200   19.6550 H   0  0  0  0  0  0  0  0  0  0  0  0
   53.8000   88.2620   18.5550 H   0  0  0  0  0  0  0  0  0  0  0  0
   53.1860   88.3800   20.2870 H   0  0  0  0  0  0  0  0  0  0  0  0
   50.8400   92.1490   19.6770 H   0  0  0  0  0  0  0  0  0  0  0  0
   50.5450   91.4560   18.0260 H   0  0  0  0  0  0  0  0  0  0  0  0
   51.6750   92.8730   18.2810 H   0  0  0  0  0  0  0  0  0  0  0  0
  2  3  1  0  0  0  0
  2  1  1  0  0  0  0
  3 34  1  0  0  0  0
  4  3  2  0  0  0  0
  5  4  1  0  0  0  0
  6  5  2  0  0  0  0
  6  7  1  0  0  0  0
  7  2  2  0  0  0  0
  8  9  1  0  0  0  0
  8  5  1  0  0  0  0
  9 11  1  0  0  0  0
 10  9  2  0  0  0  0
 11  4  1  0  0  0  0
 11 12  2  0  0  0  0
 13 12  1  0  0  0  0
 13 14  1  0  0  0  0
 14 15  2  0  0  0  0
 16 39  1  0  0  0  0
 16 14  1  0  0  0  0
 16 17  1  0  0  0  0
 18 17  1  0  0  0  0
 18 19  1  0  0  0  0
 19 24  1  0  0  0  0
 20 19  2  0  0  0  0
 20 40  1  0  0  0  0
 21 20  1  0  0  0  0
 22 23  1  0  0  0  0
 22 21  2  0  0  0  0
 23 18  2  0  0  0  0
 25 24  1  0  0  0  0
 25 46  1  0  0  0  0
 26  8  1  0  0  0  0
 27 26  1  0  0  0  0
 28 49  1  0  0  0  0
 28 27  1  0  0  0  0
 29 28  1  0  0  0  0
 29 30  1  0  0  0  0
 30 31  1  0  0  0  0
 31 32  1  0  0  0  0
 31 54  1  0  0  0  0
 32 27  1  0  0  0  0
 32 56  1  0  0  0  0
 33 30  1  0  0  0  0
 33 57  1  0  0  0  0
 35  6  1  0  0  0  0
 36  7  1  0  0  0  0
 37 13  1  0  0  0  0
 38 16  1  0  0  0  0
 41 21  1  0  0  0  0
 42 22  1  0  0  0  0
 43 23  1  0  0  0  0
 44 25  1  0  0  0  0
 45 25  1  0  0  0  0
 47 26  1  0  0  0  0
 48 26  1  0  0  0  0
 50 28  1  0  0  0  0
 51 29  1  0  0  0  0
 52 29  1  0  0  0  0
 53 31  1  0  0  0  0
 55 32  1  0  0  0  0
 58 33  1  0  0  0  0
 59 33  1  0  0  0  0
M  END
>  <Pose>
1

>  <Score>
-9.09

$$$$
