
 OpenBabel03202210083D

 45 48  0  0  1  0  0  0  0  0999 V2000
   47.4500   96.3860   23.7870 B   0  0  0  0  0  0  0  0  0  0  0  0
   47.9810   96.7480   25.6010 C   0  0  0  0  0  0  0  0  0  0  0  0
   48.9080   97.6900   25.9400 C   0  0  0  0  0  0  0  0  0  0  0  0
   49.2820   97.8960   27.2430 C   0  0  0  0  0  0  0  0  0  0  0  0
   48.6870   97.1190   28.1960 C   0  0  0  0  0  0  0  0  0  0  0  0
   47.7310   96.1470   27.8760 C   0  0  0  0  0  0  0  0  0  0  0  0
   47.3630   95.9470   26.5610 C   0  0  0  0  0  0  0  0  0  0  0  0
   49.1930   97.4080   29.4850 N   0  0  0  0  0  0  0  0  0  0  0  0
   50.1510   98.4090   29.3410 C   0  0  0  0  0  0  0  0  0  0  0  0
   50.8130   98.8860   30.3000 O   0  0  0  0  0  0  0  0  0  0  0  0
   50.2480   98.8040   27.8880 C   0  0  2  0  0  0  0  0  0  0  0  0
   49.9310  100.2230   27.8650 C   0  0  0  0  0  0  0  0  0  0  0  0
   50.8840  101.1320   27.5190 C   0  0  0  0  0  0  0  0  0  0  0  0
   50.2970  102.3590   27.6000 N   0  0  0  0  0  0  0  0  0  0  0  0
   49.0520  102.2210   27.9760 N   0  0  0  0  0  0  0  0  0  0  0  0
   48.7460  100.9160   28.1630 C   0  0  0  0  0  0  0  0  0  0  0  0
   47.4140  100.4020   28.5710 C   0  0  0  0  0  0  0  0  0  0  0  0
   47.0070  100.9370   29.8880 C   0  0  0  0  0  0  0  0  0  0  0  0
   46.1090  100.4540   30.6250 O   0  0  0  0  0  0  0  0  0  0  0  0
   47.6660  102.0560   30.3460 O   0  0  0  0  0  0  0  0  0  0  0  0
   47.1010  103.1140   31.0730 C   0  0  0  0  0  0  0  0  0  0  0  0
   48.0780  104.2640   31.1410 C   0  0  0  0  0  0  0  0  0  0  0  0
   52.1980  100.7660   27.1660 O   0  0  0  0  0  0  0  0  0  0  0  0
   52.4930   99.4160   27.1880 C   0  0  0  0  0  0  0  0  0  0  0  0
   51.6220   98.5020   27.5140 C   0  0  0  0  0  0  0  0  0  0  0  0
   52.0350   97.0960   27.5130 C   0  0  0  0  0  0  0  0  0  0  0  0
   52.3430   95.9920   27.5250 N   0  0  0  0  0  0  0  0  0  0  0  0
   53.8420   99.0370   26.8260 N   0  0  0  0  0  0  0  0  0  0  0  0
   48.7780   96.7670   30.7500 C   0  0  0  0  0  0  0  0  0  0  0  0
   49.3520   98.2780   25.1730 H   0  0  0  0  0  0  0  0  0  0  0  0
   47.2500   95.5290   28.6190 H   0  0  0  0  0  0  0  0  0  0  0  0
   46.6280   95.2020   26.2970 H   0  0  0  0  0  0  0  0  0  0  0  0
   48.3400  102.9930   28.1280 H   0  0  0  0  0  0  0  0  0  0  0  0
   46.6200  100.6770   27.8550 H   0  0  0  0  0  0  0  0  0  0  0  0
   47.4120   99.2830   28.5920 H   0  0  0  0  0  0  0  0  0  0  0  0
   46.9450  102.7940   32.1540 H   0  0  0  0  0  0  0  0  0  0  0  0
   46.1240  103.3980   30.6610 H   0  0  0  0  0  0  0  0  0  0  0  0
   49.0620  103.9130   30.7120 H   0  0  0  0  0  0  0  0  0  0  0  0
   48.2860  104.5770   32.1630 H   0  0  0  0  0  0  0  0  0  0  0  0
   47.7700  105.1060   30.4760 H   0  0  0  0  0  0  0  0  0  0  0  0
   54.1100   98.7080   25.8820 H   0  0  0  0  0  0  0  0  0  0  0  0
   54.5690   99.1020   27.5560 H   0  0  0  0  0  0  0  0  0  0  0  0
   47.7910   97.2020   31.0580 H   0  0  0  0  0  0  0  0  0  0  0  0
   48.7200   95.6680   30.6240 H   0  0  0  0  0  0  0  0  0  0  0  0
   49.5030   97.0400   31.5290 H   0  0  0  0  0  0  0  0  0  0  0  0
  1  2  1  0  0  0  0
  2  3  2  0  0  0  0
  2  7  1  0  0  0  0
  3  4  1  0  0  0  0
  4  5  2  0  0  0  0
  5  8  1  0  0  0  0
  6  5  1  0  0  0  0
  6 31  1  0  0  0  0
  7  6  2  0  0  0  0
  8 29  1  0  0  0  0
  9  8  1  0  0  0  0
  9 10  2  0  0  0  0
 11  4  1  6  0  0  0
 11  9  1  0  0  0  0
 12 11  1  0  0  0  0
 12 16  2  0  0  0  0
 13 14  2  0  0  0  0
 13 12  1  0  0  0  0
 14 15  1  0  0  0  0
 15 33  1  0  0  0  0
 15 16  1  0  0  0  0
 16 17  1  0  0  0  0
 17 35  1  0  0  0  0
 17 18  1  0  0  0  0
 18 20  1  0  0  0  0
 18 19  2  0  0  0  0
 20 21  1  0  0  0  0
 21 22  1  0  0  0  0
 21 36  1  0  0  0  0
 22 39  1  0  0  0  0
 23 24  1  0  0  0  0
 23 13  1  0  0  0  0
 24 25  2  0  0  0  0
 25 11  1  0  0  0  0
 26 25  1  0  0  0  0
 26 27  3  0  0  0  0
 28 24  1  0  0  0  0
 28 42  1  0  0  0  0
 29 43  1  0  0  0  0
 29 45  1  0  0  0  0
 30  3  1  0  0  0  0
 32  7  1  0  0  0  0
 34 17  1  0  0  0  0
 37 21  1  0  0  0  0
 38 22  1  0  0  0  0
 40 22  1  0  0  0  0
 41 28  1  0  0  0  0
 44 29  1  0  0  0  0
M  END
>  <Pose>
1

>  <Score>
-4.00

$$$$
