
 OpenBabel03202210083D

 41 44  0  0  1  0  0  0  0  0999 V2000
   51.3320   88.7710   18.1860 B   0  0  0  0  0  0  0  0  0  0  0  0
   52.0380   87.1020   18.7550 C   0  0  0  0  0  0  0  0  0  0  0  0
   52.3000   86.8090   20.0720 C   0  0  0  0  0  0  0  0  0  0  0  0
   52.8190   85.5590   20.4090 C   0  0  0  0  0  0  0  0  0  0  0  0
   53.0860   84.5960   19.4950 C   0  0  0  0  0  0  0  0  0  0  0  0
   52.8190   84.8940   18.1560 C   0  0  0  0  0  0  0  0  0  0  0  0
   52.3070   86.1230   17.8050 C   0  0  0  0  0  0  0  0  0  0  0  0
   53.6040   83.4220   20.0910 N   0  0  0  0  0  0  0  0  0  0  0  0
   53.6750   83.6480   21.4790 C   0  0  0  0  0  0  0  0  0  0  0  0
   54.0870   82.8290   22.3460 O   0  0  0  0  0  0  0  0  0  0  0  0
   53.1770   85.0240   21.7610 C   0  0  1  0  0  0  0  0  0  0  0  0
   54.2560   85.8520   22.3570 C   0  0  0  0  0  0  0  0  0  0  0  0
   54.1060   86.4980   23.4560 C   0  0  0  0  0  0  0  0  0  0  0  0
   52.8670   86.4760   24.2180 N   0  0  0  0  0  0  0  0  0  0  0  0
   51.8320   85.6920   23.6620 C   0  0  0  0  0  0  0  0  0  0  0  0
   51.9630   85.0270   22.5470 C   0  0  0  0  0  0  0  0  0  0  0  0
   50.8080   84.2600   22.0970 C   0  0  0  0  0  0  0  0  0  0  0  0
   49.9030   83.6370   21.7290 N   0  0  0  0  0  0  0  0  0  0  0  0
   50.5700   85.6320   24.3810 N   0  0  0  0  0  0  0  0  0  0  0  0
   55.3770   87.2220   23.7650 C   0  0  0  0  0  0  0  0  0  0  0  0
   56.2370   86.9110   22.7320 O   0  0  0  0  0  0  0  0  0  0  0  0
   55.6400   86.0850   21.8290 C   0  0  0  0  0  0  0  0  0  0  0  0
   56.0940   85.5820   20.7570 O   0  0  0  0  0  0  0  0  0  0  0  0
   55.8940   86.8020   25.1280 C   0  0  0  0  0  0  0  0  0  0  0  0
   55.1550   88.7230   23.7580 C   0  0  0  0  0  0  0  0  0  0  0  0
   54.0080   82.1760   19.4210 C   0  0  0  0  0  0  0  0  0  0  0  0
   52.0930   87.5650   20.8110 H   0  0  0  0  0  0  0  0  0  0  0  0
   53.0340   84.1210   17.4260 H   0  0  0  0  0  0  0  0  0  0  0  0
   52.1150   86.3130   16.7540 H   0  0  0  0  0  0  0  0  0  0  0  0
   52.8000   87.0150   25.0980 H   0  0  0  0  0  0  0  0  0  0  0  0
   50.1680   86.5380   24.7000 H   0  0  0  0  0  0  0  0  0  0  0  0
   50.0970   84.7370   24.5680 H   0  0  0  0  0  0  0  0  0  0  0  0
   56.7110   86.0420   25.0490 H   0  0  0  0  0  0  0  0  0  0  0  0
   56.2250   87.7050   25.6740 H   0  0  0  0  0  0  0  0  0  0  0  0
   55.0450   86.3630   25.6750 H   0  0  0  0  0  0  0  0  0  0  0  0
   55.2650   89.1010   22.7230 H   0  0  0  0  0  0  0  0  0  0  0  0
   55.8740   89.2280   24.4280 H   0  0  0  0  0  0  0  0  0  0  0  0
   54.1400   88.9840   24.1160 H   0  0  0  0  0  0  0  0  0  0  0  0
   53.2950   81.3680   19.7400 H   0  0  0  0  0  0  0  0  0  0  0  0
   53.8840   82.2830   18.3210 H   0  0  0  0  0  0  0  0  0  0  0  0
   55.0320   81.8950   19.6650 H   0  0  0  0  0  0  0  0  0  0  0  0
  1  2  1  0  0  0  0
  2  3  1  0  0  0  0
  3  4  2  0  0  0  0
  3 27  1  0  0  0  0
  5  8  1  0  0  0  0
  5  4  1  0  0  0  0
  6  5  2  0  0  0  0
  7  6  1  0  0  0  0
  7  2  2  0  0  0  0
  8  9  1  0  0  0  0
  9 11  1  0  0  0  0
  9 10  2  0  0  0  0
 11  4  1  6  0  0  0
 11 12  1  0  0  0  0
 11 16  1  0  0  0  0
 12 13  2  0  0  0  0
 13 20  1  0  0  0  0
 13 14  1  0  0  0  0
 14 30  1  0  0  0  0
 15 14  1  0  0  0  0
 15 19  1  0  0  0  0
 16 15  2  0  0  0  0
 17 16  1  0  0  0  0
 18 17  3  0  0  0  0
 19 32  1  0  0  0  0
 19 31  1  0  0  0  0
 20 24  1  0  0  0  0
 21 20  1  0  0  0  0
 22 12  1  0  0  0  0
 22 21  1  0  0  0  0
 23 22  2  0  0  0  0
 24 34  1  0  0  0  0
 24 35  1  0  0  0  0
 25 20  1  0  0  0  0
 25 38  1  0  0  0  0
 25 37  1  0  0  0  0
 26 41  1  0  0  0  0
 26 39  1  0  0  0  0
 26  8  1  0  0  0  0
 28  6  1  0  0  0  0
 29  7  1  0  0  0  0
 33 24  1  0  0  0  0
 36 25  1  0  0  0  0
 40 26  1  0  0  0  0
M  END
>  <Pose>
1

>  <Score>
-4.82

$$$$
