
 OpenBabel03202210083D

 46 49  0  0  0  0  0  0  0  0999 V2000
   57.4970   87.2770   24.4180 B   0  0  0  0  0  0  0  0  0  0  0  0
   56.3240   87.4990   22.9220 C   0  0  0  0  0  0  0  0  0  0  0  0
   56.0770   88.7680   22.3970 C   0  0  0  0  0  0  0  0  0  0  0  0
   55.2400   88.9900   21.3250 C   0  0  0  0  0  0  0  0  0  0  0  0
   54.6370   87.8870   20.7680 C   0  0  0  0  0  0  0  0  0  0  0  0
   54.8630   86.5970   21.2690 C   0  0  0  0  0  0  0  0  0  0  0  0
   55.7040   86.4250   22.3380 C   0  0  0  0  0  0  0  0  0  0  0  0
   53.8260   88.3400   19.6930 N   0  0  0  0  0  0  0  0  0  0  0  0
   53.9160   89.7470   19.5660 C   0  0  0  0  0  0  0  0  0  0  0  0
   53.3470   90.4970   18.7360 O   0  0  0  0  0  0  0  0  0  0  0  0
   54.8340   90.2100   20.6190 C   0  0  0  0  0  0  0  0  0  0  0  0
   55.1870   91.4570   20.8440 C   0  0  0  0  0  0  0  0  0  0  0  0
   56.0640   91.8810   21.8510 N   0  0  0  0  0  0  0  0  0  0  0  0
   55.6740   92.2110   23.1360 N   0  0  0  0  0  0  0  0  0  0  0  0
   54.8200   93.3030   23.4450 C   0  0  0  0  0  0  0  0  0  0  0  0
   54.0460   93.6870   22.5540 O   0  0  0  0  0  0  0  0  0  0  0  0
   54.8150   93.9820   24.7600 C   0  0  0  0  0  0  0  0  0  0  0  0
   55.8410   94.9080   24.8830 N   0  0  0  0  0  0  0  0  0  0  0  0
   55.9160   96.0810   25.5100 C   0  0  0  0  0  0  0  0  0  0  0  0
   57.1630   96.6420   25.2670 C   0  0  0  0  0  0  0  0  0  0  0  0
   57.8300   95.7740   24.4830 N   0  0  0  0  0  0  0  0  0  0  0  0
   57.0480   94.7440   24.2550 C   0  0  0  0  0  0  0  0  0  0  0  0
   57.4900   97.8640   25.8200 C   0  0  0  0  0  0  0  0  0  0  0  0
   58.6260   98.3470   25.5800 O   0  0  0  0  0  0  0  0  0  0  0  0
   56.5770   98.4580   26.5730 N   0  0  0  0  0  0  0  0  0  0  0  0
   55.3730   97.9050   26.8040 C   0  0  0  0  0  0  0  0  0  0  0  0
   54.5390   98.5020   27.5240 O   0  0  0  0  0  0  0  0  0  0  0  0
   55.0010   96.7020   26.2830 N   0  0  0  0  0  0  0  0  0  0  0  0
   53.7220   96.1220   26.5770 C   0  0  0  0  0  0  0  0  0  0  0  0
   56.8740   99.7650   27.1840 C   0  0  0  0  0  0  0  0  0  0  0  0
   56.5680   89.6150   22.8460 H   0  0  0  0  0  0  0  0  0  0  0  0
   54.3730   85.7580   20.8070 H   0  0  0  0  0  0  0  0  0  0  0  0
   55.8680   85.4070   22.7170 H   0  0  0  0  0  0  0  0  0  0  0  0
   53.2410   87.7320   19.0740 H   0  0  0  0  0  0  0  0  0  0  0  0
   54.7720   92.2200   20.2010 H   0  0  0  0  0  0  0  0  0  0  0  0
   57.0840   91.9430   21.5820 H   0  0  0  0  0  0  0  0  0  0  0  0
   56.0190   91.6380   23.9360 H   0  0  0  0  0  0  0  0  0  0  0  0
   53.7900   94.2640   24.9640 H   0  0  0  0  0  0  0  0  0  0  0  0
   55.0050   93.1370   25.5090 H   0  0  0  0  0  0  0  0  0  0  0  0
   57.3380   93.8960   23.6530 H   0  0  0  0  0  0  0  0  0  0  0  0
   53.1710   96.9180   27.1910 H   0  0  0  0  0  0  0  0  0  0  0  0
   53.0360   95.9720   25.7580 H   0  0  0  0  0  0  0  0  0  0  0  0
   53.7790   95.3150   27.3440 H   0  0  0  0  0  0  0  0  0  0  0  0
   57.2940  100.4240   26.3980 H   0  0  0  0  0  0  0  0  0  0  0  0
   57.6590   99.6660   27.9660 H   0  0  0  0  0  0  0  0  0  0  0  0
   55.9640  100.2170   27.6260 H   0  0  0  0  0  0  0  0  0  0  0  0
  2  1  1  0  0  0  0
  3 31  1  0  0  0  0
  3  2  1  0  0  0  0
  4  3  2  0  0  0  0
  5  6  2  0  0  0  0
  5  4  1  0  0  0  0
  6  7  1  0  0  0  0
  7 33  1  0  0  0  0
  7  2  2  0  0  0  0
  8  5  1  0  0  0  0
  9  8  1  0  0  0  0
  9 11  1  0  0  0  0
 10  9  2  0  0  0  0
 11 12  2  0  0  0  0
 11  4  1  0  0  0  0
 12 13  1  0  0  0  0
 13 14  1  0  0  0  0
 14 15  1  0  0  0  0
 14 37  1  0  0  0  0
 15 17  1  0  0  0  0
 16 15  2  0  0  0  0
 17 18  1  0  0  0  0
 17 38  1  0  0  0  0
 17 39  1  0  0  0  0
 18 19  1  0  0  0  0
 19 28  1  0  0  0  0
 20 19  2  0  0  0  0
 20 23  1  0  0  0  0
 21 20  1  0  0  0  0
 22 21  2  0  0  0  0
 22 18  1  0  0  0  0
 23 25  1  0  0  0  0
 24 23  2  0  0  0  0
 25 26  1  0  0  0  0
 25 30  1  0  0  0  0
 26 27  2  0  0  0  0
 28 29  1  0  0  0  0
 28 26  1  0  0  0  0
 29 41  1  0  0  0  0
 29 43  1  0  0  0  0
 30 46  1  0  0  0  0
 30 45  1  0  0  0  0
 32  6  1  0  0  0  0
 34  8  1  0  0  0  0
 35 12  1  0  0  0  0
 36 13  1  0  0  0  0
 40 22  1  0  0  0  0
 42 29  1  0  0  0  0
 44 30  1  0  0  0  0
M  END
>  <Pose>
1

>  <Score>
-9.57

$$$$
