
 OpenBabel03202210083D

 41 44  0  0  0  0  0  0  0  0999 V2000
   53.5200   91.9230   17.1700 B   0  0  0  0  0  0  0  0  0  0  0  0
   54.2140   91.0740   18.7190 C   0  0  0  0  0  0  0  0  0  0  0  0
   54.2710   91.7080   19.9280 C   0  0  0  0  0  0  0  0  0  0  0  0
   54.7810   91.0830   21.0440 C   0  0  0  0  0  0  0  0  0  0  0  0
   55.2530   89.8090   21.0130 C   0  0  0  0  0  0  0  0  0  0  0  0
   55.1990   89.1520   19.7790 C   0  0  0  0  0  0  0  0  0  0  0  0
   54.6920   89.7700   18.6640 C   0  0  0  0  0  0  0  0  0  0  0  0
   55.7220   89.3910   22.2760 N   0  0  0  0  0  0  0  0  0  0  0  0
   55.5550   90.4590   23.2130 C   0  0  0  0  0  0  0  0  0  0  0  0
   55.8280   90.5310   24.4130 O   0  0  0  0  0  0  0  0  0  0  0  0
   54.9440   91.5670   22.4210 C   0  0  0  0  0  0  0  0  0  0  0  0
   54.6690   92.6040   22.9390 N   0  0  0  0  0  0  0  0  0  0  0  0
   54.7190   93.2520   24.1220 N   0  0  0  0  0  0  0  0  0  0  0  0
   55.6960   94.2370   24.3540 C   0  0  0  0  0  0  0  0  0  0  0  0
   56.7150   94.2730   23.5770 O   0  0  0  0  0  0  0  0  0  0  0  0
   55.6940   95.2660   25.3990 C   0  0  0  0  0  0  0  0  0  0  0  0
   54.4370   95.5120   26.0470 N   0  0  0  0  0  0  0  0  0  0  0  0
   54.2990   96.5080   27.0540 C   0  0  0  0  0  0  0  0  0  0  0  0
   55.2670   96.5790   27.9080 O   0  0  0  0  0  0  0  0  0  0  0  0
   53.2050   97.4180   27.2060 C   0  0  0  0  0  0  0  0  0  0  0  0
   53.2560   98.7840   26.9710 C   0  0  0  0  0  0  0  0  0  0  0  0
   52.1800   99.5890   27.1270 C   0  0  0  0  0  0  0  0  0  0  0  0
   50.9620   99.0800   27.5310 C   0  0  0  0  0  0  0  0  0  0  0  0
   50.8660   97.7470   27.7770 C   0  0  0  0  0  0  0  0  0  0  0  0
   51.9700   96.8960   27.6180 C   0  0  0  0  0  0  0  0  0  0  0  0
   50.0380  100.1360   27.5960 O   0  0  0  0  0  0  0  0  0  0  0  0
   50.5170  101.0200   26.5540 C   0  0  0  0  0  0  0  0  0  0  0  0
   51.9340  101.0010   26.9540 O   0  0  0  0  0  0  0  0  0  0  0  0
   53.9140   92.7080   20.0160 H   0  0  0  0  0  0  0  0  0  0  0  0
   55.5620   88.1620   19.7290 H   0  0  0  0  0  0  0  0  0  0  0  0
   54.6250   89.3020   17.6950 H   0  0  0  0  0  0  0  0  0  0  0  0
   56.1370   88.4620   22.5300 H   0  0  0  0  0  0  0  0  0  0  0  0
   54.0270   93.0260   24.8870 H   0  0  0  0  0  0  0  0  0  0  0  0
   56.4000   94.9180   26.2010 H   0  0  0  0  0  0  0  0  0  0  0  0
   56.1020   96.2180   24.9920 H   0  0  0  0  0  0  0  0  0  0  0  0
   53.5890   94.9690   25.8240 H   0  0  0  0  0  0  0  0  0  0  0  0
   54.2160   99.2300   26.6540 H   0  0  0  0  0  0  0  0  0  0  0  0
   49.8960   97.3310   28.1050 H   0  0  0  0  0  0  0  0  0  0  0  0
   51.9090   95.8720   27.8030 H   0  0  0  0  0  0  0  0  0  0  0  0
   50.1020  101.9970   26.5490 H   0  0  0  0  0  0  0  0  0  0  0  0
   50.4270  100.5130   25.5910 H   0  0  0  0  0  0  0  0  0  0  0  0
  1  2  1  0  0  0  0
  2  3  1  0  0  0  0
  3 29  1  0  0  0  0
  3  4  2  0  0  0  0
  4 11  1  0  0  0  0
  5  4  1  0  0  0  0
  5  8  1  0  0  0  0
  6  5  2  0  0  0  0
  7  2  2  0  0  0  0
  7  6  1  0  0  0  0
  8 32  1  0  0  0  0
  8  9  1  0  0  0  0
  9 10  2  0  0  0  0
 11 12  2  0  0  0  0
 11  9  1  0  0  0  0
 12 13  1  0  0  0  0
 13 14  1  0  0  0  0
 13 33  1  0  0  0  0
 14 16  1  0  0  0  0
 15 14  2  0  0  0  0
 16 17  1  0  0  0  0
 16 34  1  0  0  0  0
 17 18  1  0  0  0  0
 18 20  1  0  0  0  0
 18 19  2  0  0  0  0
 20 25  1  0  0  0  0
 21 22  1  0  0  0  0
 21 20  2  0  0  0  0
 22 23  2  0  0  0  0
 23 26  1  0  0  0  0
 23 24  1  0  0  0  0
 24 38  1  0  0  0  0
 25 24  2  0  0  0  0
 25 39  1  0  0  0  0
 27 28  1  0  0  0  0
 27 26  1  0  0  0  0
 28 22  1  0  0  0  0
 30  6  1  0  0  0  0
 31  7  1  0  0  0  0
 35 16  1  0  0  0  0
 36 17  1  0  0  0  0
 37 21  1  0  0  0  0
 40 27  1  0  0  0  0
 41 27  1  0  0  0  0
M  END
>  <Pose>
1

>  <Score>
-8.41

$$$$
