
 OpenBabel03202210083D

 41 44  0  0  1  0  0  0  0  0999 V2000
   50.9050  100.9180   25.8530 B   0  0  0  0  0  0  0  0  0  0  0  0
   51.7810   99.7460   27.0760 C   0  0  0  0  0  0  0  0  0  0  0  0
   52.6990   98.8680   26.5540 C   0  0  0  0  0  0  0  0  0  0  0  0
   53.3690   97.9880   27.4120 C   0  0  0  0  0  0  0  0  0  0  0  0
   53.0960   98.0220   28.7410 C   0  0  0  0  0  0  0  0  0  0  0  0
   52.1600   98.9140   29.2960 C   0  0  0  0  0  0  0  0  0  0  0  0
   51.5170   99.7670   28.4300 C   0  0  0  0  0  0  0  0  0  0  0  0
   53.8660   97.0580   29.4350 N   0  0  0  0  0  0  0  0  0  0  0  0
   54.6540   96.3920   28.4940 C   0  0  0  0  0  0  0  0  0  0  0  0
   55.4920   95.4340   28.7170 O   0  0  0  0  0  0  0  0  0  0  0  0
   54.3750   96.9730   27.1470 C   0  0  2  0  0  0  0  0  0  0  0  0
   55.6430   97.4260   26.6380 C   0  0  0  0  0  0  0  0  0  0  0  0
   56.2260   96.8340   25.5800 C   0  0  0  0  0  0  0  0  0  0  0  0
   57.4080   97.4970   25.3530 N   0  0  0  0  0  0  0  0  0  0  0  0
   57.5280   98.4540   26.2480 N   0  0  0  0  0  0  0  0  0  0  0  0
   56.4810   98.4730   27.0740 C   0  0  0  0  0  0  0  0  0  0  0  0
   56.2170   99.3880   28.2220 C   0  0  0  0  0  0  0  0  0  0  0  0
   55.6590   95.7450   24.8930 O   0  0  0  0  0  0  0  0  0  0  0  0
   54.4340   95.2930   25.3690 C   0  0  0  0  0  0  0  0  0  0  0  0
   53.8260   95.8240   26.3860 C   0  0  0  0  0  0  0  0  0  0  0  0
   52.5130   95.2620   26.8160 C   0  0  0  0  0  0  0  0  0  0  0  0
   52.3100   94.0500   26.6260 O   0  0  0  0  0  0  0  0  0  0  0  0
   51.5330   96.0130   27.4060 O   0  0  0  0  0  0  0  0  0  0  0  0
   50.1540   95.8620   27.1710 C   0  0  0  0  0  0  0  0  0  0  0  0
   49.4510   97.0690   27.8000 C   0  0  0  0  0  0  0  0  0  0  0  0
   53.7880   94.1770   24.7160 N   0  0  0  0  0  0  0  0  0  0  0  0
   52.9200   98.8390   25.4810 H   0  0  0  0  0  0  0  0  0  0  0  0
   51.9490   98.9360   30.3480 H   0  0  0  0  0  0  0  0  0  0  0  0
   50.7880  100.4740   28.8040 H   0  0  0  0  0  0  0  0  0  0  0  0
   53.8710   96.8500   30.4740 H   0  0  0  0  0  0  0  0  0  0  0  0
   58.0940   97.2740   24.5970 H   0  0  0  0  0  0  0  0  0  0  0  0
   56.9790  100.1920   28.2500 H   0  0  0  0  0  0  0  0  0  0  0  0
   56.3500   98.7870   29.1440 H   0  0  0  0  0  0  0  0  0  0  0  0
   55.2360   99.8860   28.1530 H   0  0  0  0  0  0  0  0  0  0  0  0
   49.7520   94.9200   27.5580 H   0  0  0  0  0  0  0  0  0  0  0  0
   49.9670   95.9320   26.0770 H   0  0  0  0  0  0  0  0  0  0  0  0
   50.0950   97.9700   27.7400 H   0  0  0  0  0  0  0  0  0  0  0  0
   48.4980   97.2960   27.2870 H   0  0  0  0  0  0  0  0  0  0  0  0
   49.1950   96.8180   28.8570 H   0  0  0  0  0  0  0  0  0  0  0  0
   53.6370   93.3240   25.2580 H   0  0  0  0  0  0  0  0  0  0  0  0
   53.5000   94.2680   23.7410 H   0  0  0  0  0  0  0  0  0  0  0  0
  1  2  1  0  0  0  0
  2  7  1  0  0  0  0
  3  2  2  0  0  0  0
  3  4  1  0  0  0  0
  4  5  2  0  0  0  0
  5  6  1  0  0  0  0
  5  8  1  0  0  0  0
  6 28  1  0  0  0  0
  7 29  1  0  0  0  0
  7  6  2  0  0  0  0
  8 30  1  0  0  0  0
  9 10  2  0  0  0  0
  9  8  1  0  0  0  0
 11 20  1  6  0  0  0
 11  4  1  0  0  0  0
 11  9  1  0  0  0  0
 12 16  1  0  0  0  0
 12 11  1  0  0  0  0
 13 12  2  0  0  0  0
 14 13  1  0  0  0  0
 14 15  1  0  0  0  0
 15 16  2  0  0  0  0
 16 17  1  0  0  0  0
 17 32  1  0  0  0  0
 17 33  1  0  0  0  0
 18 19  1  0  0  0  0
 18 13  1  0  0  0  0
 19 20  2  0  0  0  0
 20 21  1  0  0  0  0
 21 23  1  0  0  0  0
 22 21  2  0  0  0  0
 24 23  1  0  0  0  0
 24 35  1  0  0  0  0
 24 25  1  0  0  0  0
 25 39  1  0  0  0  0
 26 40  1  0  0  0  0
 26 19  1  0  0  0  0
 27  3  1  0  0  0  0
 31 14  1  0  0  0  0
 34 17  1  0  0  0  0
 36 24  1  0  0  0  0
 37 25  1  0  0  0  0
 38 25  1  0  0  0  0
 41 26  1  0  0  0  0
M  END
>  <Pose>
1

>  <Score>
-3.90

$$$$
