
 OpenBabel03202210083D

 49 52  0  0  1  0  0  0  0  0999 V2000
   50.7480  101.0900   26.2970 B   0  0  0  0  0  0  0  0  0  0  0  0
   51.5010   99.5170   27.0720 C   0  0  0  0  0  0  0  0  0  0  0  0
   52.6510   98.9670   26.5650 C   0  0  0  0  0  0  0  0  0  0  0  0
   53.2150   97.8070   27.1280 C   0  0  0  0  0  0  0  0  0  0  0  0
   52.6360   97.1880   28.2000 C   0  0  0  0  0  0  0  0  0  0  0  0
   51.4610   97.7520   28.7180 C   0  0  0  0  0  0  0  0  0  0  0  0
   50.9260   98.8860   28.1520 C   0  0  0  0  0  0  0  0  0  0  0  0
   53.3820   96.0440   28.5900 N   0  0  0  0  0  0  0  0  0  0  0  0
   54.4860   95.9430   27.7130 C   0  0  0  0  0  0  0  0  0  0  0  0
   55.3470   95.0070   27.8130 O   0  0  0  0  0  0  0  0  0  0  0  0
   54.4260   97.0410   26.7640 C   0  0  2  0  0  0  0  0  0  0  0  0
   55.6150   97.8710   26.7610 N   0  0  0  0  0  0  0  0  0  0  0  0
   56.5110   97.2710   25.7900 C   0  0  1  0  0  0  0  0  0  0  0  0
   55.5700   96.9070   24.6780 C   0  0  2  0  0  0  0  0  0  0  0  0
   54.3130   96.4840   25.3600 C   0  0  1  0  0  0  0  0  0  0  0  0
   54.3130   95.0140   25.3220 C   0  0  0  0  0  0  0  0  0  0  0  0
   53.6100   94.1980   26.0040 O   0  0  0  0  0  0  0  0  0  0  0  0
   55.2620   94.5630   24.3640 N   0  0  0  0  0  0  0  0  0  0  0  0
   55.9960   95.6960   23.9450 C   0  0  0  0  0  0  0  0  0  0  0  0
   56.9060   95.7160   23.0610 O   0  0  0  0  0  0  0  0  0  0  0  0
   55.4490   93.2020   23.8990 C   0  0  0  0  0  0  0  0  0  0  0  0
   54.7280   92.9330   22.6180 C   0  0  0  0  0  0  0  0  0  0  0  0
   55.1590   91.5360   22.1540 C   0  0  0  0  0  0  0  0  0  0  0  0
   54.7270   91.2980   20.7330 C   0  0  0  0  0  0  0  0  0  0  0  0
   57.5460   98.2740   25.3880 C   0  0  2  0  0  0  0  0  0  0  0  0
   58.2520   98.6460   26.5390 O   0  0  0  0  0  0  0  0  0  0  0  0
   56.8830   99.5190   24.8520 C   0  0  0  0  0  0  0  0  0  0  0  0
   53.1650   99.4150   25.7050 H   0  0  0  0  0  0  0  0  0  0  0  0
   50.9950   97.2600   29.5750 H   0  0  0  0  0  0  0  0  0  0  0  0
   50.0160   99.3300   28.5460 H   0  0  0  0  0  0  0  0  0  0  0  0
   53.1130   95.4210   29.3940 H   0  0  0  0  0  0  0  0  0  0  0  0
   56.0410   97.9670   27.7000 H   0  0  0  0  0  0  0  0  0  0  0  0
   56.9710   96.3400   26.1590 H   0  0  0  0  0  0  0  0  0  0  0  0
   55.3750   97.7530   23.9880 H   0  0  0  0  0  0  0  0  0  0  0  0
   53.4270   96.9050   24.8220 H   0  0  0  0  0  0  0  0  0  0  0  0
   56.5150   92.9490   23.7530 H   0  0  0  0  0  0  0  0  0  0  0  0
   55.0610   92.5100   24.6820 H   0  0  0  0  0  0  0  0  0  0  0  0
   55.0940   93.6250   21.8180 H   0  0  0  0  0  0  0  0  0  0  0  0
   53.6450   93.0280   22.6570 H   0  0  0  0  0  0  0  0  0  0  0  0
   56.2790   91.5540   22.1850 H   0  0  0  0  0  0  0  0  0  0  0  0
   54.8150   90.7590   22.8530 H   0  0  0  0  0  0  0  0  0  0  0  0
   53.7820   91.7970   20.4710 H   0  0  0  0  0  0  0  0  0  0  0  0
   55.5000   91.6830   20.0140 H   0  0  0  0  0  0  0  0  0  0  0  0
   54.6800   90.2050   20.5570 H   0  0  0  0  0  0  0  0  0  0  0  0
   58.2210   97.8480   24.6170 H   0  0  0  0  0  0  0  0  0  0  0  0
   58.9110   99.3580   26.3360 H   0  0  0  0  0  0  0  0  0  0  0  0
   56.6330   99.3730   23.7820 H   0  0  0  0  0  0  0  0  0  0  0  0
   55.9980   99.7240   25.4690 H   0  0  0  0  0  0  0  0  0  0  0  0
   57.6460  100.3390   24.8940 H   0  0  0  0  0  0  0  0  0  0  0  0
  1  2  1  0  0  0  0
  2  7  1  0  0  0  0
  3  2  2  0  0  0  0
  3  4  1  0  0  0  0
  4  5  2  0  0  0  0
  5  8  1  0  0  0  0
  5  6  1  0  0  0  0
  6 29  1  0  0  0  0
  7 30  1  0  0  0  0
  7  6  2  0  0  0  0
  8 31  1  0  0  0  0
  9 10  2  0  0  0  0
  9  8  1  0  0  0  0
 11  4  1  1  0  0  0
 11  9  1  0  0  0  0
 12 11  1  0  0  0  0
 12 32  1  0  0  0  0
 13 33  1  1  0  0  0
 13 12  1  0  0  0  0
 14 34  1  6  0  0  0
 14 15  1  0  0  0  0
 14 13  1  0  0  0  0
 15 35  1  6  0  0  0
 15 11  1  0  0  0  0
 16 15  1  0  0  0  0
 16 17  2  0  0  0  0
 18 16  1  0  0  0  0
 19 18  1  0  0  0  0
 19 14  1  0  0  0  0
 20 19  2  0  0  0  0
 21 18  1  0  0  0  0
 21 37  1  0  0  0  0
 22 39  1  0  0  0  0
 22 21  1  0  0  0  0
 23 40  1  0  0  0  0
 23 22  1  0  0  0  0
 23 41  1  0  0  0  0
 24 23  1  0  0  0  0
 25 45  1  6  0  0  0
 25 13  1  0  0  0  0
 25 26  1  0  0  0  0
 27 49  1  0  0  0  0
 27 25  1  0  0  0  0
 27 48  1  0  0  0  0
 28  3  1  0  0  0  0
 36 21  1  0  0  0  0
 38 22  1  0  0  0  0
 42 24  1  0  0  0  0
 43 24  1  0  0  0  0
 44 24  1  0  0  0  0
 46 26  1  0  0  0  0
 47 27  1  0  0  0  0
M  END
>  <Pose>
1

>  <Score>
-5.12

$$$$
