
 OpenBabel03202210083D

 45 48  0  0  1  0  0  0  0  0999 V2000
   50.7080   83.5240   23.5300 B   0  0  0  0  0  0  0  0  0  0  0  0
   52.4120   83.8980   24.3090 C   0  0  0  0  0  0  0  0  0  0  0  0
   53.1160   85.0390   24.0180 C   0  0  0  0  0  0  0  0  0  0  0  0
   54.3710   85.3470   24.5710 C   0  0  0  0  0  0  0  0  0  0  0  0
   54.8930   84.4420   25.4450 C   0  0  0  0  0  0  0  0  0  0  0  0
   54.1860   83.2650   25.7560 C   0  0  0  0  0  0  0  0  0  0  0  0
   52.9590   82.9920   25.1970 C   0  0  0  0  0  0  0  0  0  0  0  0
   56.1530   84.8810   25.9330 N   0  0  0  0  0  0  0  0  0  0  0  0
   56.4250   86.1250   25.3300 C   0  0  0  0  0  0  0  0  0  0  0  0
   57.4700   86.8430   25.5350 O   0  0  0  0  0  0  0  0  0  0  0  0
   55.3010   86.4480   24.4320 C   0  0  2  0  0  0  0  0  0  0  0  0
   54.7320   87.6740   25.0200 N   0  0  0  0  0  0  0  0  0  0  0  0
   55.1870   88.7960   24.2590 C   0  0  2  0  0  0  0  0  0  0  0  0
   55.4120   88.2520   22.8960 C   0  0  1  0  0  0  0  0  0  0  0  0
   55.7330   86.7900   23.0540 C   0  0  2  0  0  0  0  0  0  0  0  0
   55.0490   86.1670   21.9440 C   0  0  0  0  0  0  0  0  0  0  0  0
   55.2560   84.9880   21.5320 O   0  0  0  0  0  0  0  0  0  0  0  0
   54.1150   87.0880   21.3970 N   0  0  0  0  0  0  0  0  0  0  0  0
   54.1070   88.2830   22.1640 C   0  0  0  0  0  0  0  0  0  0  0  0
   53.1850   89.1220   22.1740 O   0  0  0  0  0  0  0  0  0  0  0  0
   53.3120   86.7900   20.2190 C   0  0  0  0  0  0  0  0  0  0  0  0
   53.2170   87.9640   19.2920 C   0  0  0  0  0  0  0  0  0  0  0  0
   51.8010   88.3220   18.9310 C   0  0  0  0  0  0  0  0  0  0  0  0
   51.8880   89.3160   17.7670 C   0  0  0  0  0  0  0  0  0  0  0  0
   56.3980   89.4970   24.8270 C   0  0  0  0  0  0  0  0  0  0  0  0
   52.6660   85.7260   23.3280 H   0  0  0  0  0  0  0  0  0  0  0  0
   54.6450   82.5650   26.4630 H   0  0  0  0  0  0  0  0  0  0  0  0
   52.3990   82.0900   25.4240 H   0  0  0  0  0  0  0  0  0  0  0  0
   56.7880   84.3810   26.6240 H   0  0  0  0  0  0  0  0  0  0  0  0
   53.6910   87.6200   25.0550 H   0  0  0  0  0  0  0  0  0  0  0  0
   54.3230   89.5360   24.2000 H   0  0  0  0  0  0  0  0  0  0  0  0
   56.1980   88.7940   22.3230 H   0  0  0  0  0  0  0  0  0  0  0  0
   56.8550   86.6330   23.0240 H   0  0  0  0  0  0  0  0  0  0  0  0
   53.7570   85.9510   19.6570 H   0  0  0  0  0  0  0  0  0  0  0  0
   52.2910   86.4820   20.5540 H   0  0  0  0  0  0  0  0  0  0  0  0
   53.7420   87.7020   18.3610 H   0  0  0  0  0  0  0  0  0  0  0  0
   53.6730   88.8400   19.8010 H   0  0  0  0  0  0  0  0  0  0  0  0
   51.2640   88.7890   19.7890 H   0  0  0  0  0  0  0  0  0  0  0  0
   51.2430   87.4390   18.6150 H   0  0  0  0  0  0  0  0  0  0  0  0
   50.9720   89.9340   17.7100 H   0  0  0  0  0  0  0  0  0  0  0  0
   52.8140   89.9100   17.8580 H   0  0  0  0  0  0  0  0  0  0  0  0
   52.0220   88.6790   16.8450 H   0  0  0  0  0  0  0  0  0  0  0  0
   56.2730   90.6150   24.6900 H   0  0  0  0  0  0  0  0  0  0  0  0
   56.4220   89.3420   25.9030 H   0  0  0  0  0  0  0  0  0  0  0  0
   57.3230   89.2650   24.2740 H   0  0  0  0  0  0  0  0  0  0  0  0
  1  2  1  0  0  0  0
  2  7  1  0  0  0  0
  3  2  2  0  0  0  0
  3  4  1  0  0  0  0
  4  5  2  0  0  0  0
  5  6  1  0  0  0  0
  5  8  1  0  0  0  0
  6 27  1  0  0  0  0
  7 28  1  0  0  0  0
  7  6  2  0  0  0  0
  8 29  1  0  0  0  0
  9 10  2  0  0  0  0
  9  8  1  0  0  0  0
 11  4  1  6  0  0  0
 11 12  1  0  0  0  0
 11  9  1  0  0  0  0
 12 30  1  0  0  0  0
 13 31  1  6  0  0  0
 13 25  1  0  0  0  0
 13 12  1  0  0  0  0
 14 32  1  6  0  0  0
 14 15  1  0  0  0  0
 14 13  1  0  0  0  0
 15 33  1  6  0  0  0
 15 11  1  0  0  0  0
 16 15  1  0  0  0  0
 17 16  2  0  0  0  0
 18 16  1  0  0  0  0
 18 19  1  0  0  0  0
 19 20  2  0  0  0  0
 19 14  1  0  0  0  0
 21 35  1  0  0  0  0
 21 18  1  0  0  0  0
 22 37  1  0  0  0  0
 22 21  1  0  0  0  0
 23 22  1  0  0  0  0
 23 38  1  0  0  0  0
 24 41  1  0  0  0  0
 24 23  1  0  0  0  0
 25 44  1  0  0  0  0
 26  3  1  0  0  0  0
 34 21  1  0  0  0  0
 36 22  1  0  0  0  0
 39 23  1  0  0  0  0
 40 24  1  0  0  0  0
 42 24  1  0  0  0  0
 43 25  1  0  0  0  0
 45 25  1  0  0  0  0
M  END
>  <Pose>
1

>  <Score>
-5.63

$$$$
