
 OpenBabel03202210083D

 47 50  0  0  1  0  0  0  0  0999 V2000
   55.5460   90.0820   21.3450 B   0  0  0  0  0  0  0  0  0  0  0  0
   54.3560   89.0890   20.2350 C   0  0  0  0  0  0  0  0  0  0  0  0
   54.1540   87.7340   20.3780 C   0  0  0  0  0  0  0  0  0  0  0  0
   53.2820   87.0140   19.5630 C   0  0  0  0  0  0  0  0  0  0  0  0
   52.5920   87.6710   18.5750 C   0  0  0  0  0  0  0  0  0  0  0  0
   52.7750   89.0340   18.4060 C   0  0  0  0  0  0  0  0  0  0  0  0
   53.6560   89.7330   19.2380 C   0  0  0  0  0  0  0  0  0  0  0  0
   51.7550   86.7530   17.8650 N   0  0  0  0  0  0  0  0  0  0  0  0
   51.9280   85.4660   18.4340 C   0  0  0  0  0  0  0  0  0  0  0  0
   51.3190   84.4540   18.0340 O   0  0  0  0  0  0  0  0  0  0  0  0
   52.9000   85.5730   19.5100 C   0  0  2  0  0  0  0  0  0  0  0  0
   52.2240   85.1750   20.7440 N   0  0  0  0  0  0  0  0  0  0  0  0
   53.1950   84.4400   21.4980 C   0  0  2  0  0  0  0  0  0  0  0  0
   53.9520   83.6880   20.4660 C   0  0  2  0  0  0  0  0  0  0  0  0
   54.1180   84.7120   19.3670 C   0  0  1  0  0  0  0  0  0  0  0  0
   54.2040   83.9280   18.1430 C   0  0  0  0  0  0  0  0  0  0  0  0
   54.6440   84.3300   17.0440 O   0  0  0  0  0  0  0  0  0  0  0  0
   53.6960   82.6290   18.4210 N   0  0  0  0  0  0  0  0  0  0  0  0
   53.1890   82.6180   19.7770 C   0  0  0  0  0  0  0  0  0  0  0  0
   52.3060   81.8320   20.1560 O   0  0  0  0  0  0  0  0  0  0  0  0
   53.7060   81.5390   17.4890 C   0  0  0  0  0  0  0  0  0  0  0  0
   53.1510   81.8480   16.1380 C   0  0  0  0  0  0  0  0  0  0  0  0
   51.8700   81.3590   15.9460 O   0  0  0  0  0  0  0  0  0  0  0  0
   51.8450   80.3390   14.9970 C   0  0  0  0  0  0  0  0  0  0  0  0
   52.6090   83.6150   22.5920 C   0  0  0  0  0  0  0  0  0  0  0  0
   51.1810   83.9190   22.7360 C   0  0  0  0  0  0  0  0  0  0  0  0
   50.3340   83.2880   22.0430 O   0  0  0  0  0  0  0  0  0  0  0  0
   50.7350   84.9190   23.6510 N   0  0  0  0  0  0  0  0  0  0  0  0
   54.7150   87.2470   21.1680 H   0  0  0  0  0  0  0  0  0  0  0  0
   52.2260   89.5390   17.6240 H   0  0  0  0  0  0  0  0  0  0  0  0
   53.7850   90.7980   19.0900 H   0  0  0  0  0  0  0  0  0  0  0  0
   51.1260   87.0200   17.0570 H   0  0  0  0  0  0  0  0  0  0  0  0
   51.4270   84.5300   20.5310 H   0  0  0  0  0  0  0  0  0  0  0  0
   53.9320   85.1340   21.9870 H   0  0  0  0  0  0  0  0  0  0  0  0
   54.9360   83.3130   20.8310 H   0  0  0  0  0  0  0  0  0  0  0  0
   55.0550   85.2670   19.6070 H   0  0  0  0  0  0  0  0  0  0  0  0
   53.0860   80.7120   17.9030 H   0  0  0  0  0  0  0  0  0  0  0  0
   54.7560   81.1790   17.3220 H   0  0  0  0  0  0  0  0  0  0  0  0
   53.8160   81.5150   15.3090 H   0  0  0  0  0  0  0  0  0  0  0  0
   53.0910   82.9520   16.0480 H   0  0  0  0  0  0  0  0  0  0  0  0
   50.7680   80.0170   14.9200 H   0  0  0  0  0  0  0  0  0  0  0  0
   52.1330   80.6680   13.9950 H   0  0  0  0  0  0  0  0  0  0  0  0
   52.3870   79.4320   15.3470 H   0  0  0  0  0  0  0  0  0  0  0  0
   52.7830   82.5320   22.5100 H   0  0  0  0  0  0  0  0  0  0  0  0
   53.1070   83.9300   23.5470 H   0  0  0  0  0  0  0  0  0  0  0  0
   51.2540   85.8150   23.7420 H   0  0  0  0  0  0  0  0  0  0  0  0
   49.8850   84.7440   24.2250 H   0  0  0  0  0  0  0  0  0  0  0  0
  2  3  1  0  0  0  0
  2  1  1  0  0  0  0
  3 29  1  0  0  0  0
  4  3  2  0  0  0  0
  5  4  1  0  0  0  0
  6  5  2  0  0  0  0
  6  7  1  0  0  0  0
  7  2  2  0  0  0  0
  8  9  1  0  0  0  0
  8  5  1  0  0  0  0
 10  9  2  0  0  0  0
 11  9  1  6  0  0  0
 11  4  1  0  0  0  0
 11 12  1  0  0  0  0
 12 13  1  0  0  0  0
 13 34  1  1  0  0  0
 13 25  1  0  0  0  0
 14 35  1  1  0  0  0
 14 13  1  0  0  0  0
 15 11  1  0  0  0  0
 15 36  1  1  0  0  0
 15 14  1  0  0  0  0
 16 18  1  0  0  0  0
 16 15  1  0  0  0  0
 17 16  2  0  0  0  0
 18 19  1  0  0  0  0
 19 20  2  0  0  0  0
 19 14  1  0  0  0  0
 21 37  1  0  0  0  0
 21 18  1  0  0  0  0
 22 21  1  0  0  0  0
 23 22  1  0  0  0  0
 24 43  1  0  0  0  0
 24 23  1  0  0  0  0
 25 26  1  0  0  0  0
 25 45  1  0  0  0  0
 26 28  1  0  0  0  0
 27 26  2  0  0  0  0
 28 46  1  0  0  0  0
 28 47  1  0  0  0  0
 30  6  1  0  0  0  0
 31  7  1  0  0  0  0
 32  8  1  0  0  0  0
 33 12  1  0  0  0  0
 38 21  1  0  0  0  0
 39 22  1  0  0  0  0
 40 22  1  0  0  0  0
 41 24  1  0  0  0  0
 42 24  1  0  0  0  0
 44 25  1  0  0  0  0
M  END
>  <Pose>
1

>  <Score>
-6.10

$$$$
