
 OpenBabel03202210083D

 39 42  0  0  1  0  0  0  0  0999 V2000
   57.3690   87.8210   24.8730 B   0  0  0  0  0  0  0  0  0  0  0  0
   56.1330   87.5100   23.4570 C   0  0  0  0  0  0  0  0  0  0  0  0
   56.1610   88.3440   22.3770 C   0  0  0  0  0  0  0  0  0  0  0  0
   55.2740   88.1410   21.3340 C   0  0  0  0  0  0  0  0  0  0  0  0
   54.3600   87.0950   21.3840 C   0  0  0  0  0  0  0  0  0  0  0  0
   54.3190   86.2430   22.4690 C   0  0  0  0  0  0  0  0  0  0  0  0
   55.2190   86.4840   23.4820 C   0  0  0  0  0  0  0  0  0  0  0  0
   53.4110   86.7910   20.3820 N   0  0  0  0  0  0  0  0  0  0  0  0
   52.8900   85.5630   20.2730 N   0  0  0  0  0  0  0  0  0  0  0  0
   52.0600   85.6130   19.2670 N   0  0  0  0  0  0  0  0  0  0  0  0
   52.0420   86.8280   18.7420 N   0  0  0  0  0  0  0  0  0  0  0  0
   52.9140   87.5960   19.4580 C   0  0  0  0  0  0  0  0  0  0  0  0
   53.1420   89.0460   19.1290 C   0  0  2  0  0  0  0  0  0  0  0  0
   54.5630   89.3750   19.2090 N   0  0  0  0  0  0  0  0  0  0  0  0
   55.4720   89.1420   20.2790 C   0  0  0  0  0  0  0  0  0  0  0  0
   56.5220   89.8420   20.3300 O   0  0  0  0  0  0  0  0  0  0  0  0
   52.4670   89.8310   20.2210 C   0  0  0  0  0  0  0  0  0  0  0  0
   52.2030   91.2240   19.7510 C   0  0  0  0  0  0  0  0  0  0  0  0
   51.3320   91.1390   18.6970 O   0  0  0  0  0  0  0  0  0  0  0  0
   51.8210   90.5330   17.5720 C   0  0  0  0  0  0  0  0  0  0  0  0
   52.6370   89.3270   17.7620 C   0  0  0  0  0  0  0  0  0  0  0  0
   51.4840   92.0040   20.8590 C   0  0  0  0  0  0  0  0  0  0  0  0
   53.4550   91.9990   19.4350 C   0  0  0  0  0  0  0  0  0  0  0  0
   56.8490   89.1750   22.2790 H   0  0  0  0  0  0  0  0  0  0  0  0
   53.5940   85.4420   22.4720 H   0  0  0  0  0  0  0  0  0  0  0  0
   55.1990   85.8270   24.3350 H   0  0  0  0  0  0  0  0  0  0  0  0
   54.9960   89.8560   18.3630 H   0  0  0  0  0  0  0  0  0  0  0  0
   53.1580   89.8690   21.0940 H   0  0  0  0  0  0  0  0  0  0  0  0
   51.4930   89.3810   20.5030 H   0  0  0  0  0  0  0  0  0  0  0  0
   52.3850   91.3290   16.9990 H   0  0  0  0  0  0  0  0  0  0  0  0
   50.9290   90.3250   16.9080 H   0  0  0  0  0  0  0  0  0  0  0  0
   52.0640   88.4340   17.3680 H   0  0  0  0  0  0  0  0  0  0  0  0
   53.5210   89.3830   17.0600 H   0  0  0  0  0  0  0  0  0  0  0  0
   50.8020   91.3570   21.4320 H   0  0  0  0  0  0  0  0  0  0  0  0
   51.0430   92.9280   20.4820 H   0  0  0  0  0  0  0  0  0  0  0  0
   52.3040   92.3060   21.5730 H   0  0  0  0  0  0  0  0  0  0  0  0
   53.2250   93.0950   19.5820 H   0  0  0  0  0  0  0  0  0  0  0  0
   53.7680   91.9170   18.3760 H   0  0  0  0  0  0  0  0  0  0  0  0
   54.2650   91.7750   20.1410 H   0  0  0  0  0  0  0  0  0  0  0  0
  2  7  1  0  0  0  0
  2  1  1  0  0  0  0
  3  2  2  0  0  0  0
  4  5  2  0  0  0  0
  4  3  1  0  0  0  0
  5  6  1  0  0  0  0
  6 25  1  0  0  0  0
  6  7  2  0  0  0  0
  7 26  1  0  0  0  0
  8  5  1  0  0  0  0
  9  8  1  0  0  0  0
 10  9  2  0  0  0  0
 11 10  1  0  0  0  0
 11 12  2  0  0  0  0
 12  8  1  0  0  0  0
 13 14  1  0  0  0  0
 13 12  1  1  0  0  0
 13 17  1  0  0  0  0
 14 15  1  0  0  0  0
 15 16  2  0  0  0  0
 15  4  1  0  0  0  0
 17 29  1  0  0  0  0
 17 28  1  0  0  0  0
 18 17  1  0  0  0  0
 18 22  1  0  0  0  0
 19 18  1  0  0  0  0
 20 21  1  0  0  0  0
 20 19  1  0  0  0  0
 21 13  1  0  0  0  0
 22 34  1  0  0  0  0
 22 36  1  0  0  0  0
 23 37  1  0  0  0  0
 23 18  1  0  0  0  0
 23 39  1  0  0  0  0
 24  3  1  0  0  0  0
 27 14  1  0  0  0  0
 30 20  1  0  0  0  0
 31 20  1  0  0  0  0
 32 21  1  0  0  0  0
 33 21  1  0  0  0  0
 35 22  1  0  0  0  0
 38 23  1  0  0  0  0
M  END
>  <Pose>
1

>  <Score>
-4.58

$$$$
