
 OpenBabel03202210083D

 33 36  0  0  1  0  0  0  0  0999 V2000
   50.4670   97.1390   28.0660 B   0  0  0  0  0  0  0  0  0  0  0  0
   52.2480   97.6670   27.6690 C   0  0  0  0  0  0  0  0  0  0  0  0
   53.0480   96.8150   26.9600 C   0  0  0  0  0  0  0  0  0  0  0  0
   54.3600   97.2050   26.6680 C   0  0  0  0  0  0  0  0  0  0  0  0
   54.7950   98.4150   27.0970 C   0  0  0  0  0  0  0  0  0  0  0  0
   53.9660   99.2910   27.8280 C   0  0  0  0  0  0  0  0  0  0  0  0
   52.6790   98.9050   28.1130 C   0  0  0  0  0  0  0  0  0  0  0  0
   56.0820   98.8460   26.8340 O   0  0  0  0  0  0  0  0  0  0  0  0
   56.9230   98.0180   26.1220 C   0  0  0  0  0  0  0  0  0  0  0  0
   56.5730   96.8350   25.6750 C   0  0  0  0  0  0  0  0  0  0  0  0
   55.2390   96.2960   25.9030 C   0  0  1  0  0  0  0  0  0  0  0  0
   55.2610   94.9370   26.4950 C   0  0  0  0  0  0  0  0  0  0  0  0
   54.6960   94.0660   25.6060 C   0  0  0  0  0  0  0  0  0  0  0  0
   54.7190   92.8150   26.1550 N   0  0  0  0  0  0  0  0  0  0  0  0
   55.2830   92.9380   27.3430 N   0  0  0  0  0  0  0  0  0  0  0  0
   55.6290   94.2080   27.5910 C   0  0  0  0  0  0  0  0  0  0  0  0
   56.2870   94.6700   28.8510 C   0  0  0  0  0  0  0  0  0  0  0  0
   54.2830   94.7320   24.4320 N   0  0  0  0  0  0  0  0  0  0  0  0
   54.6000   96.0920   24.5850 C   0  0  0  0  0  0  0  0  0  0  0  0
   54.3910   97.0180   23.7570 O   0  0  0  0  0  0  0  0  0  0  0  0
   57.5110   96.0250   24.9360 C   0  0  0  0  0  0  0  0  0  0  0  0
   58.2640   95.3880   24.3290 N   0  0  0  0  0  0  0  0  0  0  0  0
   58.2570   98.4800   25.8570 N   0  0  0  0  0  0  0  0  0  0  0  0
   52.7470   95.8450   26.5980 H   0  0  0  0  0  0  0  0  0  0  0  0
   54.3420  100.2550   28.1590 H   0  0  0  0  0  0  0  0  0  0  0  0
   51.9880   99.5240   28.6680 H   0  0  0  0  0  0  0  0  0  0  0  0
   55.4200   92.1060   27.9760 H   0  0  0  0  0  0  0  0  0  0  0  0
   56.4170   95.7560   28.8380 H   0  0  0  0  0  0  0  0  0  0  0  0
   57.2580   94.1260   28.9630 H   0  0  0  0  0  0  0  0  0  0  0  0
   55.6850   94.3930   29.7520 H   0  0  0  0  0  0  0  0  0  0  0  0
   53.8120   94.2620   23.5890 H   0  0  0  0  0  0  0  0  0  0  0  0
   58.5850   99.3740   26.2820 H   0  0  0  0  0  0  0  0  0  0  0  0
   58.9210   97.9510   25.2490 H   0  0  0  0  0  0  0  0  0  0  0  0
  2  1  1  0  0  0  0
  2  7  1  0  0  0  0
  3  2  2  0  0  0  0
  4  3  1  0  0  0  0
  4  5  2  0  0  0  0
  5  6  1  0  0  0  0
  6  7  2  0  0  0  0
  6 25  1  0  0  0  0
  7 26  1  0  0  0  0
  8  5  1  0  0  0  0
  9  8  1  0  0  0  0
 10 11  1  0  0  0  0
 10  9  2  0  0  0  0
 11 19  1  6  0  0  0
 11 12  1  0  0  0  0
 11  4  1  0  0  0  0
 12 16  2  0  0  0  0
 13 14  2  0  0  0  0
 13 12  1  0  0  0  0
 14 15  1  0  0  0  0
 15 16  1  0  0  0  0
 15 27  1  0  0  0  0
 16 17  1  0  0  0  0
 17 29  1  0  0  0  0
 17 30  1  0  0  0  0
 18 19  1  0  0  0  0
 18 13  1  0  0  0  0
 20 19  2  0  0  0  0
 21 10  1  0  0  0  0
 22 21  3  0  0  0  0
 23  9  1  0  0  0  0
 23 32  1  0  0  0  0
 24  3  1  0  0  0  0
 28 17  1  0  0  0  0
 31 18  1  0  0  0  0
 33 23  1  0  0  0  0
M  END
>  <Pose>
1

>  <Score>
-4.60

$$$$
