
 OpenBabel03202210083D

 44 47  0  0  0  0  0  0  0  0999 V2000
   56.5220   86.3070   24.6640 B   0  0  0  0  0  0  0  0  0  0  0  0
   56.1240   87.9350   23.7820 C   0  0  0  0  0  0  0  0  0  0  0  0
   55.9780   89.1200   24.4810 C   0  0  0  0  0  0  0  0  0  0  0  0
   55.6990   90.3320   23.8780 C   0  0  0  0  0  0  0  0  0  0  0  0
   55.5630   90.3480   22.5050 C   0  0  0  0  0  0  0  0  0  0  0  0
   55.6980   89.1920   21.7500 C   0  0  0  0  0  0  0  0  0  0  0  0
   55.9740   88.0060   22.3890 C   0  0  0  0  0  0  0  0  0  0  0  0
   55.2930   91.5050   21.8980 O   0  0  0  0  0  0  0  0  0  0  0  0
   55.1520   92.6170   22.5300 C   0  0  0  0  0  0  0  0  0  0  0  0
   54.8970   93.7230   21.9590 O   0  0  0  0  0  0  0  0  0  0  0  0
   55.2740   92.6680   23.9020 C   0  0  0  0  0  0  0  0  0  0  0  0
   55.5510   91.5030   24.5800 C   0  0  0  0  0  0  0  0  0  0  0  0
   55.0800   93.9240   24.6250 C   0  0  0  0  0  0  0  0  0  0  0  0
   53.9440   94.1400   25.3890 C   0  0  0  0  0  0  0  0  0  0  0  0
   53.8020   95.3060   26.1120 C   0  0  0  0  0  0  0  0  0  0  0  0
   52.7340   95.4310   26.7900 O   0  0  0  0  0  0  0  0  0  0  0  0
   54.7240   96.2190   26.0870 O   0  0  0  0  0  0  0  0  0  0  0  0
   55.7940   96.0820   25.4030 C   0  0  0  0  0  0  0  0  0  0  0  0
   56.0210   94.9230   24.6370 C   0  0  0  0  0  0  0  0  0  0  0  0
   57.1680   94.8110   23.9060 C   0  0  0  0  0  0  0  0  0  0  0  0
   58.0830   95.8680   23.9580 C   0  0  0  0  0  0  0  0  0  0  0  0
   57.8320   96.9900   24.7230 C   0  0  0  0  0  0  0  0  0  0  0  0
   56.6840   97.1380   25.4690 C   0  0  0  0  0  0  0  0  0  0  0  0
   56.5410   98.2900   26.3180 C   0  0  0  0  0  0  0  0  0  0  0  0
   57.4500   98.6430   27.3300 N   0  0  0  0  0  4  0  0  0  0  0  0
   56.9250   99.2960   28.4980 C   0  0  0  0  0  0  0  0  0  0  0  0
   58.3790   97.5340   27.6660 C   0  0  0  0  0  0  0  0  0  0  0  0
   58.8220   97.9960   24.7090 O   0  0  0  0  0  0  0  0  0  0  0  0
   56.0940   89.1360   25.5750 H   0  0  0  0  0  0  0  0  0  0  0  0
   55.5690   89.2760   20.6830 H   0  0  0  0  0  0  0  0  0  0  0  0
   56.0910   87.0650   21.8650 H   0  0  0  0  0  0  0  0  0  0  0  0
   55.6410   91.4670   25.6860 H   0  0  0  0  0  0  0  0  0  0  0  0
   53.1760   93.3700   25.3870 H   0  0  0  0  0  0  0  0  0  0  0  0
   57.3560   93.9450   23.2830 H   0  0  0  0  0  0  0  0  0  0  0  0
   58.9850   95.7440   23.3760 H   0  0  0  0  0  0  0  0  0  0  0  0
   55.5280   98.1520   26.8590 H   0  0  0  0  0  0  0  0  0  0  0  0
   56.3130   99.2070   25.7030 H   0  0  0  0  0  0  0  0  0  0  0  0
   58.1010   99.3720   26.9180 H   0  0  0  0  0  0  0  0  0  0  0  0
   56.7700   98.6100   29.3710 H   0  0  0  0  0  0  0  0  0  0  0  0
   56.0200   99.9190   28.3120 H   0  0  0  0  0  0  0  0  0  0  0  0
   57.6600  100.0530   28.9390 H   0  0  0  0  0  0  0  0  0  0  0  0
   58.1190   96.6120   27.0830 H   0  0  0  0  0  0  0  0  0  0  0  0
   59.4240   97.7380   27.3160 H   0  0  0  0  0  0  0  0  0  0  0  0
   58.4440   97.3980   28.7490 H   0  0  0  0  0  0  0  0  0  0  0  0
  2  3  1  0  0  0  0
  2  1  1  0  0  0  0
  3 29  1  0  0  0  0
  4  3  2  0  0  0  0
  4 12  1  0  0  0  0
  5  4  1  0  0  0  0
  6  7  1  0  0  0  0
  6  5  2  0  0  0  0
  7  2  2  0  0  0  0
  8  5  1  0  0  0  0
  8  9  1  0  0  0  0
  9 11  1  0  0  0  0
 10  9  2  0  0  0  0
 11 12  2  0  0  0  0
 11 13  1  0  0  0  0
 12 32  1  0  0  0  0
 13 19  1  0  0  0  0
 13 14  2  0  0  0  0
 14 15  1  0  0  0  0
 15 16  2  0  0  0  0
 17 15  1  0  0  0  0
 18 23  1  0  0  0  0
 18 17  1  0  0  0  0
 19 18  2  0  0  0  0
 20 21  2  0  0  0  0
 20 19  1  0  0  0  0
 21 22  1  0  0  0  0
 22 23  2  0  0  0  0
 23 24  1  0  0  0  0
 24 36  1  0  0  0  0
 24 25  1  0  0  0  0
 25 27  1  0  0  0  0
 25 26  1  0  0  0  0
 26 41  1  0  0  0  0
 26 39  1  0  0  0  0
 27 44  1  0  0  0  0
 28 22  1  0  0  0  0
 30  6  1  0  0  0  0
 31  7  1  0  0  0  0
 33 14  1  0  0  0  0
 34 20  1  0  0  0  0
 35 21  1  0  0  0  0
 37 24  1  0  0  0  0
 38 25  1  0  0  0  0
 40 26  1  0  0  0  0
 42 27  1  0  0  0  0
 43 27  1  0  0  0  0
M  END
>  <Pose>
1

>  <Score>
-5.76

$$$$
