
 OpenBabel03202210083D

 54 57  0  0  0  0  0  0  0  0999 V2000
   55.6010   85.0800   20.4040 B   0  0  0  0  0  0  0  0  0  0  0  0
   55.6460   86.7380   21.3550 C   0  0  0  0  0  0  0  0  0  0  0  0
   55.2860   87.9350   20.7600 C   0  0  0  0  0  0  0  0  0  0  0  0
   55.3080   89.1450   21.4180 C   0  0  0  0  0  0  0  0  0  0  0  0
   55.7050   89.1980   22.7410 C   0  0  0  0  0  0  0  0  0  0  0  0
   55.7410   90.3810   23.4050 N   0  0  0  0  0  0  0  0  0  0  0  0
   55.3980   91.5430   22.8250 C   0  0  0  0  0  0  0  0  0  0  0  0
   55.0110   91.4930   21.5370 N   0  0  0  0  0  0  0  0  0  0  0  0
   54.9570   90.3390   20.8310 C   0  0  0  0  0  0  0  0  0  0  0  0
   54.5330   90.3430   19.4390 C   0  0  0  0  0  0  0  0  0  0  0  0
   55.2470   91.0110   18.4570 C   0  0  0  0  0  0  0  0  0  0  0  0
   54.8430   91.0380   17.1350 C   0  0  0  0  0  0  0  0  0  0  0  0
   53.6660   90.3560   16.8050 C   0  0  0  0  0  0  0  0  0  0  0  0
   52.9310   89.6820   17.7580 C   0  0  0  0  0  0  0  0  0  0  0  0
   53.3660   89.6830   19.0450 C   0  0  0  0  0  0  0  0  0  0  0  0
   56.7210   91.8590   18.8980 Cl  0  0  0  0  0  0  0  0  0  0  0  0
   55.4480   92.7650   23.5520 N   0  0  0  0  0  4  0  0  0  0  0  0
   54.4190   93.6770   23.1050 C   0  0  0  0  0  0  0  0  0  0  0  0
   54.2150   94.7180   24.1610 C   0  0  0  0  0  0  0  0  0  0  0  0
   55.3390   94.6770   25.0740 N   0  0  0  0  0  0  0  0  0  0  0  0
   56.6650   94.5780   24.4920 C   0  0  0  0  0  0  0  0  0  0  0  0
   56.7120   93.4480   23.4550 C   0  0  0  0  0  0  0  0  0  0  0  0
   55.0960   94.7360   26.4560 C   0  0  0  0  0  0  0  0  0  0  0  0
   55.1300   93.6600   27.1040 O   0  0  0  0  0  0  0  0  0  0  0  0
   54.8090   95.9920   27.1530 C   0  0  0  0  0  0  0  0  0  0  0  0
   53.3240   96.1970   27.2430 C   0  0  0  0  0  0  0  0  0  0  0  0
   52.9450   97.6570   27.3590 C   0  0  0  0  0  0  0  0  0  0  0  0
   52.3190   97.9920   28.6540 C   0  0  0  0  0  0  0  0  0  0  0  0
   51.0920   97.7680   28.7760 O   0  0  0  0  0  0  0  0  0  0  0  0
   53.0840   98.5320   29.6770 O   0  0  0  0  0  0  0  0  0  0  0  0
   56.0640   88.0120   23.3420 C   0  0  0  0  0  0  0  0  0  0  0  0
   56.0410   86.7940   22.6730 C   0  0  0  0  0  0  0  0  0  0  0  0
   54.9890   87.8760   19.7240 H   0  0  0  0  0  0  0  0  0  0  0  0
   55.4070   91.5630   16.3680 H   0  0  0  0  0  0  0  0  0  0  0  0
   53.3500   90.3820   15.7570 H   0  0  0  0  0  0  0  0  0  0  0  0
   52.0120   89.1500   17.4880 H   0  0  0  0  0  0  0  0  0  0  0  0
   52.7920   89.1610   19.7960 H   0  0  0  0  0  0  0  0  0  0  0  0
   55.2900   92.5310   24.5550 H   0  0  0  0  0  0  0  0  0  0  0  0
   53.5060   93.0720   22.9290 H   0  0  0  0  0  0  0  0  0  0  0  0
   54.7480   94.0930   22.1300 H   0  0  0  0  0  0  0  0  0  0  0  0
   53.2590   94.4920   24.6770 H   0  0  0  0  0  0  0  0  0  0  0  0
   54.1160   95.7260   23.7040 H   0  0  0  0  0  0  0  0  0  0  0  0
   56.8350   95.5210   23.9320 H   0  0  0  0  0  0  0  0  0  0  0  0
   57.4620   94.4920   25.2330 H   0  0  0  0  0  0  0  0  0  0  0  0
   56.9260   93.8270   22.4500 H   0  0  0  0  0  0  0  0  0  0  0  0
   57.5400   92.7920   23.7520 H   0  0  0  0  0  0  0  0  0  0  0  0
   55.1880   95.9900   28.2150 H   0  0  0  0  0  0  0  0  0  0  0  0
   55.3150   96.8600   26.6830 H   0  0  0  0  0  0  0  0  0  0  0  0
   52.8050   95.8210   26.3240 H   0  0  0  0  0  0  0  0  0  0  0  0
   52.8840   95.6490   28.0870 H   0  0  0  0  0  0  0  0  0  0  0  0
   52.2130   97.8720   26.5570 H   0  0  0  0  0  0  0  0  0  0  0  0
   53.8500   98.2860   27.1570 H   0  0  0  0  0  0  0  0  0  0  0  0
   56.3750   88.0510   24.3790 H   0  0  0  0  0  0  0  0  0  0  0  0
   56.3180   85.8600   23.1350 H   0  0  0  0  0  0  0  0  0  0  0  0
  1  2  1  0  0  0  0
  2 32  1  0  0  0  0
  3  2  2  0  0  0  0
  3  4  1  0  0  0  0
  4  5  2  0  0  0  0
  5 31  1  0  0  0  0
  5  6  1  0  0  0  0
  7  6  2  0  0  0  0
  7 17  1  0  0  0  0
  8  7  1  0  0  0  0
  9  4  1  0  0  0  0
  9  8  2  0  0  0  0
 10  9  1  0  0  0  0
 11 16  1  0  0  0  0
 11 10  2  0  0  0  0
 12 11  1  0  0  0  0
 13 12  2  0  0  0  0
 13 14  1  0  0  0  0
 14 15  2  0  0  0  0
 15 10  1  0  0  0  0
 15 37  1  0  0  0  0
 17 38  1  0  0  0  0
 18 17  1  0  0  0  0
 18 19  1  0  0  0  0
 19 41  1  0  0  0  0
 19 20  1  0  0  0  0
 20 23  1  0  0  0  0
 21 20  1  0  0  0  0
 21 44  1  0  0  0  0
 22 17  1  0  0  0  0
 22 46  1  0  0  0  0
 22 21  1  0  0  0  0
 23 24  2  0  0  0  0
 23 25  1  0  0  0  0
 25 26  1  0  0  0  0
 25 47  1  0  0  0  0
 26 27  1  0  0  0  0
 26 50  1  0  0  0  0
 27 28  1  0  0  0  0
 28 29  2  0  0  0  0
 28 30  1  0  0  0  0
 31 53  1  0  0  0  0
 32 54  1  0  0  0  0
 32 31  2  0  0  0  0
 33  3  1  0  0  0  0
 34 12  1  0  0  0  0
 35 13  1  0  0  0  0
 36 14  1  0  0  0  0
 39 18  1  0  0  0  0
 40 18  1  0  0  0  0
 42 19  1  0  0  0  0
 43 21  1  0  0  0  0
 45 22  1  0  0  0  0
 48 25  1  0  0  0  0
 49 26  1  0  0  0  0
 51 27  1  0  0  0  0
 52 27  1  0  0  0  0
M  END
>  <Pose>
1

>  <Score>
-5.72

$$$$
