
 OpenBabel03202210083D

 50 53  0  0  0  0  0  0  0  0999 V2000
   54.6740   97.8000   27.3400 B   0  0  0  0  0  0  0  0  0  0  0  0
   55.2480   96.4750   26.0780 C   0  0  0  0  0  0  0  0  0  0  0  0
   54.3740   95.5760   25.5230 C   0  0  0  0  0  0  0  0  0  0  0  0
   54.8010   94.6130   24.6040 C   0  0  0  0  0  0  0  0  0  0  0  0
   56.1190   94.5570   24.2420 C   0  0  0  0  0  0  0  0  0  0  0  0
   56.2750   93.5380   23.3410 N   0  0  0  0  0  0  0  0  0  0  0  0
   55.1140   92.9250   23.0990 C   0  0  0  0  0  0  0  0  0  0  0  0
   54.1770   93.6170   23.9080 C   0  0  0  0  0  0  0  0  0  0  0  0
   54.7640   91.8060   22.2460 C   0  0  0  0  0  0  0  0  0  0  0  0
   53.7260   91.9130   21.4880 O   0  0  0  0  0  0  0  0  0  0  0  0
   55.4530   90.5950   22.1620 N   0  0  0  0  0  0  0  0  0  0  0  0
   55.9970   89.8430   23.2600 C   0  0  0  0  0  0  0  0  0  0  0  0
   56.6380   88.5280   22.7980 C   0  0  0  0  0  0  0  0  0  0  0  0
   55.7110   87.8500   21.9040 N   0  0  0  0  0  0  0  0  0  0  0  0
   55.0030   88.6150   20.8770 C   0  0  0  0  0  0  0  0  0  0  0  0
   55.6850   89.9850   20.8250 C   0  0  0  0  0  0  0  0  0  0  0  0
   55.4760   86.4620   22.0090 C   0  0  0  0  0  0  0  0  0  0  0  0
   55.9230   85.7350   21.0900 O   0  0  0  0  0  0  0  0  0  0  0  0
   54.7440   85.9460   23.1540 C   0  0  0  0  0  0  0  0  0  0  0  0
   55.1240   86.5110   24.4300 N   0  0  0  0  0  0  0  0  0  0  0  0
   56.4300   85.9740   24.8180 C   0  0  0  0  0  0  0  0  0  0  0  0
   56.2810   84.8220   25.7500 C   0  0  0  0  0  0  0  0  0  0  0  0
   55.1560   84.0680   25.4260 O   0  0  0  0  0  0  0  0  0  0  0  0
   53.9800   84.7660   25.7140 C   0  0  0  0  0  0  0  0  0  0  0  0
   54.1530   86.2480   25.4770 C   0  0  0  0  0  0  0  0  0  0  0  0
   57.0070   95.4600   24.7960 C   0  0  0  0  0  0  0  0  0  0  0  0
   56.5740   96.4120   25.7080 C   0  0  0  0  0  0  0  0  0  0  0  0
   53.3270   95.5980   25.7900 H   0  0  0  0  0  0  0  0  0  0  0  0
   57.1990   93.3280   22.9360 H   0  0  0  0  0  0  0  0  0  0  0  0
   53.1340   93.3870   23.9610 H   0  0  0  0  0  0  0  0  0  0  0  0
   55.1370   89.5970   23.9390 H   0  0  0  0  0  0  0  0  0  0  0  0
   56.8100   90.4000   23.7500 H   0  0  0  0  0  0  0  0  0  0  0  0
   57.5830   88.7160   22.2590 H   0  0  0  0  0  0  0  0  0  0  0  0
   56.8320   87.9260   23.6840 H   0  0  0  0  0  0  0  0  0  0  0  0
   55.1070   88.1370   19.8780 H   0  0  0  0  0  0  0  0  0  0  0  0
   53.9450   88.7800   21.1130 H   0  0  0  0  0  0  0  0  0  0  0  0
   56.7630   89.8910   20.6370 H   0  0  0  0  0  0  0  0  0  0  0  0
   55.2320   90.6030   20.0510 H   0  0  0  0  0  0  0  0  0  0  0  0
   54.9720   84.8460   23.2300 H   0  0  0  0  0  0  0  0  0  0  0  0
   53.6400   86.0150   23.0520 H   0  0  0  0  0  0  0  0  0  0  0  0
   56.9570   85.6200   23.8990 H   0  0  0  0  0  0  0  0  0  0  0  0
   57.0210   86.8020   25.2570 H   0  0  0  0  0  0  0  0  0  0  0  0
   57.1650   84.1570   25.6110 H   0  0  0  0  0  0  0  0  0  0  0  0
   56.2110   85.1290   26.8220 H   0  0  0  0  0  0  0  0  0  0  0  0
   53.1580   84.3090   25.1580 H   0  0  0  0  0  0  0  0  0  0  0  0
   53.7760   84.6230   26.7940 H   0  0  0  0  0  0  0  0  0  0  0  0
   53.1960   86.7050   25.2740 H   0  0  0  0  0  0  0  0  0  0  0  0
   54.5760   86.6840   26.4060 H   0  0  0  0  0  0  0  0  0  0  0  0
   58.0590   95.4120   24.5060 H   0  0  0  0  0  0  0  0  0  0  0  0
   57.2750   97.1300   26.1500 H   0  0  0  0  0  0  0  0  0  0  0  0
  2  1  1  0  0  0  0
  3 28  1  0  0  0  0
  3  2  2  0  0  0  0
  4  3  1  0  0  0  0
  5  4  2  0  0  0  0
  5 26  1  0  0  0  0
  6  5  1  0  0  0  0
  7  6  1  0  0  0  0
  7  8  2  0  0  0  0
  8 30  1  0  0  0  0
  8  4  1  0  0  0  0
  9  7  1  0  0  0  0
 10  9  2  0  0  0  0
 11  9  1  0  0  0  0
 11 12  1  0  0  0  0
 12 32  1  0  0  0  0
 12 31  1  0  0  0  0
 13 12  1  0  0  0  0
 13 34  1  0  0  0  0
 14 17  1  0  0  0  0
 14 13  1  0  0  0  0
 15 36  1  0  0  0  0
 15 14  1  0  0  0  0
 16 15  1  0  0  0  0
 16 11  1  0  0  0  0
 17 19  1  0  0  0  0
 18 17  2  0  0  0  0
 19 39  1  0  0  0  0
 19 20  1  0  0  0  0
 20 21  1  0  0  0  0
 20 25  1  0  0  0  0
 21 42  1  0  0  0  0
 21 22  1  0  0  0  0
 22 44  1  0  0  0  0
 23 24  1  0  0  0  0
 23 22  1  0  0  0  0
 24 46  1  0  0  0  0
 25 24  1  0  0  0  0
 25 48  1  0  0  0  0
 26 27  2  0  0  0  0
 27  2  1  0  0  0  0
 27 50  1  0  0  0  0
 29  6  1  0  0  0  0
 33 13  1  0  0  0  0
 35 15  1  0  0  0  0
 37 16  1  0  0  0  0
 38 16  1  0  0  0  0
 40 19  1  0  0  0  0
 41 21  1  0  0  0  0
 43 22  1  0  0  0  0
 45 24  1  0  0  0  0
 47 25  1  0  0  0  0
 49 26  1  0  0  0  0
M  END
>  <Pose>
1

>  <Score>
-7.50

$$$$
