
 OpenBabel03202210083D

 37 40  0  0  0  0  0  0  0  0999 V2000
   55.2420   92.4420   22.9360 B   0  0  0  0  0  0  0  0  0  0  0  0
   55.4200   93.9980   24.0200 C   0  0  0  0  0  0  0  0  0  0  0  0
   56.5980   94.7130   23.9710 C   0  0  0  0  0  0  0  0  0  0  0  0
   56.7590   95.8620   24.7560 C   0  0  0  0  0  0  0  0  0  0  0  0
   55.7310   96.2420   25.5560 C   0  0  0  0  0  0  0  0  0  0  0  0
   54.5370   95.5600   25.6390 C   0  0  0  0  0  0  0  0  0  0  0  0
   54.4020   94.4390   24.8620 C   0  0  0  0  0  0  0  0  0  0  0  0
   53.5830   96.0540   26.4890 C   0  0  0  0  0  0  0  0  0  0  0  0
   52.5020   95.4490   26.5730 O   0  0  0  0  0  0  0  0  0  0  0  0
   53.7790   97.1950   27.2520 C   0  0  0  0  0  0  0  0  0  0  0  0
   54.9950   97.8310   27.1220 C   0  0  0  0  0  0  0  0  0  0  0  0
   55.9570   97.3430   26.2740 N   0  0  0  0  0  0  0  0  0  0  0  0
   57.2900   97.8000   25.9520 C   0  0  0  0  0  0  0  0  0  0  0  0
   57.8510   96.8330   24.9440 C   0  0  0  0  0  0  0  0  0  0  0  0
   52.7520   97.7100   28.1520 C   0  0  0  0  0  0  0  0  0  0  0  0
   52.8920   97.5590   29.3870 O   0  0  0  0  0  0  0  0  0  0  0  0
   51.5940   98.3800   27.6370 N   0  0  0  0  0  0  0  0  0  0  0  0
   51.7000   99.5380   26.7760 C   0  0  0  0  0  0  0  0  0  0  0  0
   50.8520  100.6350   27.4330 C   0  0  0  0  0  0  0  0  0  0  0  0
   49.5870  100.1510   27.6690 O   0  0  0  0  0  0  0  0  0  0  0  0
   49.5380   99.1200   28.5840 C   0  0  0  0  0  0  0  0  0  0  0  0
   50.2580   97.9210   27.9630 C   0  0  0  0  0  0  0  0  0  0  0  0
   57.4270   94.4270   23.3410 H   0  0  0  0  0  0  0  0  0  0  0  0
   53.4820   93.8930   24.9100 H   0  0  0  0  0  0  0  0  0  0  0  0
   55.2410   98.7230   27.6730 H   0  0  0  0  0  0  0  0  0  0  0  0
   57.9290   97.7770   26.8810 H   0  0  0  0  0  0  0  0  0  0  0  0
   57.2900   98.8420   25.5690 H   0  0  0  0  0  0  0  0  0  0  0  0
   58.1200   97.3590   23.9980 H   0  0  0  0  0  0  0  0  0  0  0  0
   58.7510   96.2910   25.3510 H   0  0  0  0  0  0  0  0  0  0  0  0
   51.1580   99.3090   25.8130 H   0  0  0  0  0  0  0  0  0  0  0  0
   52.7300   99.8730   26.6130 H   0  0  0  0  0  0  0  0  0  0  0  0
   50.7880  101.5220   26.7940 H   0  0  0  0  0  0  0  0  0  0  0  0
   51.3080  100.9340   28.3840 H   0  0  0  0  0  0  0  0  0  0  0  0
   48.4760   98.8210   28.6960 H   0  0  0  0  0  0  0  0  0  0  0  0
   50.0140   99.3750   29.5630 H   0  0  0  0  0  0  0  0  0  0  0  0
   49.7390   97.7650   26.9720 H   0  0  0  0  0  0  0  0  0  0  0  0
   50.2340   97.0420   28.6030 H   0  0  0  0  0  0  0  0  0  0  0  0
  1  2  1  0  0  0  0
  2  7  1  0  0  0  0
  3  2  2  0  0  0  0
  3  4  1  0  0  0  0
  4 14  1  0  0  0  0
  4  5  2  0  0  0  0
  5  6  1  0  0  0  0
  5 12  1  0  0  0  0
  6  8  1  0  0  0  0
  7 24  1  0  0  0  0
  7  6  2  0  0  0  0
  8  9  2  0  0  0  0
  8 10  1  0  0  0  0
 10 15  1  0  0  0  0
 11 10  2  0  0  0  0
 11 25  1  0  0  0  0
 12 11  1  0  0  0  0
 13 12  1  0  0  0  0
 13 26  1  0  0  0  0
 14 29  1  0  0  0  0
 14 13  1  0  0  0  0
 15 16  2  0  0  0  0
 17 22  1  0  0  0  0
 17 15  1  0  0  0  0
 18 19  1  0  0  0  0
 18 17  1  0  0  0  0
 19 20  1  0  0  0  0
 19 33  1  0  0  0  0
 20 21  1  0  0  0  0
 21 34  1  0  0  0  0
 21 35  1  0  0  0  0
 22 21  1  0  0  0  0
 22 37  1  0  0  0  0
 23  3  1  0  0  0  0
 27 13  1  0  0  0  0
 28 14  1  0  0  0  0
 30 18  1  0  0  0  0
 31 18  1  0  0  0  0
 32 19  1  0  0  0  0
 36 22  1  0  0  0  0
M  END
>  <Pose>
1

>  <Score>
-6.51

$$$$
