
 OpenBabel03202210083D

 55 58  0  0  0  0  0  0  0  0999 V2000
   53.5310   91.5550   17.4670 B   0  0  0  0  0  0  0  0  0  0  0  0
   53.2650   89.9290   18.3810 C   0  0  0  0  0  0  0  0  0  0  0  0
   54.1840   89.4650   19.3070 C   0  0  0  0  0  0  0  0  0  0  0  0
   54.0230   88.2830   19.9700 C   0  0  0  0  0  0  0  0  0  0  0  0
   54.7850   87.7030   20.9450 N   0  0  0  0  0  0  0  0  0  0  0  0
   54.1540   86.5780   21.3260 C   0  0  0  0  0  0  0  0  0  0  0  0
   52.9740   86.4220   20.5500 C   0  0  0  0  0  0  0  0  0  0  0  0
   52.9360   87.5190   19.7280 C   0  0  0  0  0  0  0  0  0  0  0  0
   51.9930   87.9660   18.7990 C   0  0  0  0  0  0  0  0  0  0  0  0
   52.1420   89.1670   18.1200 C   0  0  0  0  0  0  0  0  0  0  0  0
   51.2060   89.6480   17.1870 O   0  0  0  0  0  0  0  0  0  0  0  0
   52.0810   85.2580   20.4840 C   0  0  0  0  0  0  0  0  0  0  0  0
   50.9910   85.3300   21.1130 O   0  0  0  0  0  0  0  0  0  0  0  0
   52.3200   84.1160   19.7950 O   0  0  0  0  0  0  0  0  0  0  0  0
   53.4020   83.7020   19.0410 C   0  0  0  0  0  0  0  0  0  0  0  0
   53.1930   83.7840   17.5340 C   0  0  0  0  0  0  0  0  0  0  0  0
   54.4870   85.6380   22.3960 C   0  0  0  0  0  0  0  0  0  0  0  0
   53.8380   85.7720   23.6630 N   0  0  0  0  0  4  0  0  0  0  0  0
   54.3260   86.1390   24.8720 C   0  0  0  0  0  0  0  0  0  0  0  0
   53.5410   85.3570   25.9540 C   0  0  0  0  0  0  0  0  0  0  0  0
   52.2340   85.1090   25.2040 C   0  0  0  0  0  0  0  0  0  0  0  0
   52.8170   84.7270   23.8510 C   0  0  0  0  0  0  0  0  0  0  0  0
   56.1720   88.1430   21.1930 C   0  0  0  0  0  0  0  0  0  0  0  0
   56.2630   88.3470   22.7230 C   0  0  0  0  0  0  0  0  0  0  0  0
   55.6680   89.4790   23.1980 C   0  0  0  0  0  0  0  0  0  0  0  0
   55.7000   89.7270   24.5810 C   0  0  0  0  0  0  0  0  0  0  0  0
   56.2940   88.8800   25.4680 C   0  0  0  0  0  0  0  0  0  0  0  0
   56.8850   87.7340   24.9340 C   0  0  0  0  0  0  0  0  0  0  0  0
   56.8650   87.4780   23.5580 C   0  0  0  0  0  0  0  0  0  0  0  0
   55.0670   90.0600   19.5340 H   0  0  0  0  0  0  0  0  0  0  0  0
   51.0970   87.3680   18.6070 H   0  0  0  0  0  0  0  0  0  0  0  0
   51.1470   89.1990   16.2620 H   0  0  0  0  0  0  0  0  0  0  0  0
   54.2570   84.4070   19.2650 H   0  0  0  0  0  0  0  0  0  0  0  0
   53.7310   82.6870   19.2860 H   0  0  0  0  0  0  0  0  0  0  0  0
   54.1750   83.7570   17.0120 H   0  0  0  0  0  0  0  0  0  0  0  0
   52.6030   82.9340   17.1420 H   0  0  0  0  0  0  0  0  0  0  0  0
   52.6610   84.7250   17.2380 H   0  0  0  0  0  0  0  0  0  0  0  0
   54.3130   84.6090   22.0560 H   0  0  0  0  0  0  0  0  0  0  0  0
   55.6120   85.7610   22.6340 H   0  0  0  0  0  0  0  0  0  0  0  0
   53.0800   86.6290   23.3720 H   0  0  0  0  0  0  0  0  0  0  0  0
   54.0510   87.2410   25.1660 H   0  0  0  0  0  0  0  0  0  0  0  0
   55.3760   86.0510   25.1340 H   0  0  0  0  0  0  0  0  0  0  0  0
   53.4320   85.9470   26.8580 H   0  0  0  0  0  0  0  0  0  0  0  0
   54.0250   84.4010   26.0610 H   0  0  0  0  0  0  0  0  0  0  0  0
   51.7110   86.0770   25.1710 H   0  0  0  0  0  0  0  0  0  0  0  0
   51.6450   84.3350   25.6710 H   0  0  0  0  0  0  0  0  0  0  0  0
   53.3230   83.7590   23.9530 H   0  0  0  0  0  0  0  0  0  0  0  0
   52.0660   84.7220   23.0470 H   0  0  0  0  0  0  0  0  0  0  0  0
   56.5000   89.0370   20.7430 H   0  0  0  0  0  0  0  0  0  0  0  0
   56.8330   87.2860   21.0100 H   0  0  0  0  0  0  0  0  0  0  0  0
   55.1710   90.1890   22.5520 H   0  0  0  0  0  0  0  0  0  0  0  0
   55.2400   90.6240   24.9890 H   0  0  0  0  0  0  0  0  0  0  0  0
   56.3100   89.0820   26.5370 H   0  0  0  0  0  0  0  0  0  0  0  0
   57.3430   87.0470   25.6120 H   0  0  0  0  0  0  0  0  0  0  0  0
   57.3320   86.5960   23.2000 H   0  0  0  0  0  0  0  0  0  0  0  0
  1  2  1  0  0  0  0
  2  3  1  0  0  0  0
  3 30  1  0  0  0  0
  3  4  2  0  0  0  0
  4  5  1  0  0  0  0
  5 23  1  0  0  0  0
  5  6  1  0  0  0  0
  6 17  1  0  0  0  0
  7  6  2  0  0  0  0
  8  4  1  0  0  0  0
  8  7  1  0  0  0  0
  9  8  2  0  0  0  0
 10  2  2  0  0  0  0
 10  9  1  0  0  0  0
 11 10  1  0  0  0  0
 12  7  1  0  0  0  0
 12 13  2  0  0  0  0
 14 12  1  0  0  0  0
 15 33  1  0  0  0  0
 15 34  1  0  0  0  0
 15 14  1  0  0  0  0
 16 15  1  0  0  0  0
 17 39  1  0  0  0  0
 17 18  1  0  0  0  0
 18 22  1  0  0  0  0
 18 19  1  0  0  0  0
 19 42  1  0  0  0  0
 19 41  1  0  0  0  0
 19 20  1  0  0  0  0
 20 44  1  0  0  0  0
 20 43  1  0  0  0  0
 21 46  1  0  0  0  0
 21 20  1  0  0  0  0
 22 47  1  0  0  0  0
 22 21  1  0  0  0  0
 23 24  1  0  0  0  0
 24 25  2  0  0  0  0
 24 29  1  0  0  0  0
 25 26  1  0  0  0  0
 26 52  1  0  0  0  0
 26 27  2  0  0  0  0
 27 53  1  0  0  0  0
 28 27  1  0  0  0  0
 28 54  1  0  0  0  0
 29 28  2  0  0  0  0
 31  9  1  0  0  0  0
 32 11  1  0  0  0  0
 35 16  1  0  0  0  0
 36 16  1  0  0  0  0
 37 16  1  0  0  0  0
 38 17  1  0  0  0  0
 40 18  1  0  0  0  0
 45 21  1  0  0  0  0
 48 22  1  0  0  0  0
 49 23  1  0  0  0  0
 50 23  1  0  0  0  0
 51 25  1  0  0  0  0
 55 29  1  0  0  0  0
M  END
>  <Pose>
1

>  <Score>
-7.05

$$$$
