
 OpenBabel03202210083D

 43 46  0  0  1  0  0  0  0  0999 V2000
   53.2720   83.0350   22.3210 B   0  0  0  0  0  0  0  0  0  0  0  0
   53.8070   84.7420   23.0040 C   0  0  0  0  0  0  0  0  0  0  0  0
   54.0170   84.9340   24.3680 C   0  0  0  0  0  0  0  0  0  0  0  0
   54.4000   86.1900   24.7800 C   0  0  0  0  0  0  0  0  0  0  0  0
   54.6770   86.7080   25.9900 N   0  0  0  0  0  0  0  0  0  0  0  0
   55.0040   87.9910   25.8620 N   0  0  0  0  0  0  0  0  0  0  0  0
   54.9590   88.3740   24.5780 C   0  0  0  0  0  0  0  0  0  0  0  0
   54.5700   87.2110   23.8860 C   0  0  0  0  0  0  0  0  0  0  0  0
   54.3670   87.0330   22.5460 C   0  0  0  0  0  0  0  0  0  0  0  0
   53.9840   85.7890   22.1100 C   0  0  0  0  0  0  0  0  0  0  0  0
   55.2190   89.6250   23.9880 N   0  0  0  0  0  0  0  0  0  0  0  0
   54.9440   90.8910   24.7030 C   0  0  0  0  0  0  0  0  0  0  0  0
   54.4050   91.7920   23.6030 C   0  0  2  0  0  0  0  0  0  0  0  0
   55.1690   91.3230   22.3830 C   0  0  0  0  0  0  0  0  0  0  0  0
   55.7250   89.9840   22.7040 C   0  0  0  0  0  0  0  0  0  0  0  0
   56.4840   89.2960   22.0080 O   0  0  0  0  0  0  0  0  0  0  0  0
   54.7210   93.1650   24.0310 C   0  0  0  0  0  0  0  0  0  0  0  0
   53.8750   94.0840   23.9400 O   0  0  0  0  0  0  0  0  0  0  0  0
   56.0170   93.4210   24.5550 N   0  0  0  0  0  0  0  0  0  0  0  0
   56.6320   94.7260   24.4560 C   0  0  0  0  0  0  0  0  0  0  0  0
   56.0090   95.7370   25.3950 C   0  0  0  0  0  0  0  0  0  0  0  0
   56.8470   96.9490   25.4910 C   0  0  0  0  0  0  0  0  0  0  0  0
   57.9140   97.1840   24.7110 N   0  0  0  0  0  0  0  0  0  0  0  0
   58.4640   98.3570   25.0280 C   0  0  0  0  0  0  0  0  0  0  0  0
   57.7320   98.8950   26.0400 N   0  0  0  0  0  0  0  0  0  0  0  0
   56.7500   98.0290   26.3130 C   0  0  0  0  0  0  0  0  0  0  0  0
   53.8630   84.0860   25.0100 H   0  0  0  0  0  0  0  0  0  0  0  0
   55.2550   88.5870   26.6740 H   0  0  0  0  0  0  0  0  0  0  0  0
   54.5170   87.8740   21.8700 H   0  0  0  0  0  0  0  0  0  0  0  0
   53.8180   85.6160   21.0590 H   0  0  0  0  0  0  0  0  0  0  0  0
   54.2060   90.7160   25.4790 H   0  0  0  0  0  0  0  0  0  0  0  0
   55.8900   91.2360   25.1330 H   0  0  0  0  0  0  0  0  0  0  0  0
   53.3220   91.6900   23.4840 H   0  0  0  0  0  0  0  0  0  0  0  0
   54.3860   91.1200   21.5900 H   0  0  0  0  0  0  0  0  0  0  0  0
   55.8760   92.0340   21.9720 H   0  0  0  0  0  0  0  0  0  0  0  0
   56.5230   92.6390   25.0150 H   0  0  0  0  0  0  0  0  0  0  0  0
   57.6960   94.6410   24.7150 H   0  0  0  0  0  0  0  0  0  0  0  0
   56.5700   95.1160   23.4170 H   0  0  0  0  0  0  0  0  0  0  0  0
   55.0370   96.0290   24.9520 H   0  0  0  0  0  0  0  0  0  0  0  0
   55.7520   95.2970   26.3860 H   0  0  0  0  0  0  0  0  0  0  0  0
   59.3290   98.7970   24.5630 H   0  0  0  0  0  0  0  0  0  0  0  0
   57.9640   99.8190   26.4690 H   0  0  0  0  0  0  0  0  0  0  0  0
   56.0080   98.1930   27.0750 H   0  0  0  0  0  0  0  0  0  0  0  0
  1  2  1  0  0  0  0
  2  3  2  0  0  0  0
  3  4  1  0  0  0  0
  3 27  1  0  0  0  0
  4  5  2  0  0  0  0
  6  5  1  0  0  0  0
  6 28  1  0  0  0  0
  7  6  1  0  0  0  0
  8  7  2  0  0  0  0
  8  4  1  0  0  0  0
  9  8  1  0  0  0  0
 10  9  2  0  0  0  0
 10  2  1  0  0  0  0
 11  7  1  0  0  0  0
 11 12  1  0  0  0  0
 12 32  1  0  0  0  0
 12 31  1  0  0  0  0
 13 33  1  6  0  0  0
 13 17  1  0  0  0  0
 13 12  1  0  0  0  0
 14 15  1  0  0  0  0
 14 13  1  0  0  0  0
 15 11  1  0  0  0  0
 16 15  2  0  0  0  0
 17 19  1  0  0  0  0
 18 17  2  0  0  0  0
 19 36  1  0  0  0  0
 20 19  1  0  0  0  0
 20 37  1  0  0  0  0
 20 21  1  0  0  0  0
 21 22  1  0  0  0  0
 21 40  1  0  0  0  0
 22 26  2  0  0  0  0
 23 24  2  0  0  0  0
 23 22  1  0  0  0  0
 24 25  1  0  0  0  0
 25 26  1  0  0  0  0
 25 42  1  0  0  0  0
 26 43  1  0  0  0  0
 29  9  1  0  0  0  0
 30 10  1  0  0  0  0
 34 14  1  0  0  0  0
 35 14  1  0  0  0  0
 38 20  1  0  0  0  0
 39 21  1  0  0  0  0
 41 24  1  0  0  0  0
M  END
>  <Pose>
1

>  <Score>
-7.72

$$$$
