
 OpenBabel03202210083D

 58 61  0  0  0  0  0  0  0  0999 V2000
   56.0960   89.4720   21.9940 B   0  0  0  0  0  0  0  0  0  0  0  0
   55.1340   90.5210   20.7000 C   0  0  0  0  0  0  0  0  0  0  0  0
   54.8700   90.1880   19.3990 C   0  0  0  0  0  0  0  0  0  0  0  0
   54.1790   91.2010   18.8660 N   0  0  0  0  0  0  0  0  0  0  0  0
   54.0120   92.1270   19.7720 N   0  0  0  0  0  0  0  0  0  0  0  0
   54.5840   91.7800   20.9620 C   0  0  0  0  0  0  0  0  0  0  0  0
   54.6230   92.5160   22.2000 C   0  0  0  0  0  0  0  0  0  0  0  0
   53.7930   93.4920   22.2910 O   0  0  0  0  0  0  0  0  0  0  0  0
   55.4450   92.2810   23.2690 N   0  0  0  0  0  0  0  0  0  0  0  0
   56.8740   92.2370   23.2340 C   0  0  0  0  0  0  0  0  0  0  0  0
   57.4100   93.4560   23.9110 C   0  0  0  0  0  0  0  0  0  0  0  0
   56.4810   93.9640   24.9100 N   0  0  0  0  0  0  0  0  0  0  0  0
   55.4680   93.1660   25.5170 C   0  0  0  0  0  0  0  0  0  0  0  0
   54.9070   92.0610   24.6270 C   0  0  0  0  0  0  0  0  0  0  0  0
   56.6410   95.3650   25.1820 C   0  0  0  0  0  0  0  0  0  0  0  0
   57.7660   95.9060   24.8130 O   0  0  0  0  0  0  0  0  0  0  0  0
   55.6710   96.1890   25.8140 C   0  0  0  0  0  0  0  0  0  0  0  0
   55.9430   97.4760   26.2600 N   0  0  0  0  0  0  0  0  0  0  0  0
   54.9010   97.9650   26.8470 N   0  0  0  0  0  0  0  0  0  0  0  0
   53.8930   97.0980   26.8480 C   0  0  0  0  0  0  0  0  0  0  0  0
   54.3920   95.9590   26.1850 C   0  0  0  0  0  0  0  0  0  0  0  0
   52.5480   97.2410   27.3750 C   0  0  0  0  0  0  0  0  0  0  0  0
   51.9450   96.1560   27.6970 O   0  0  0  0  0  0  0  0  0  0  0  0
   51.8750   98.4400   27.5520 N   0  0  0  0  0  0  0  0  0  0  0  0
   51.5180   99.2130   26.3580 C   0  0  0  0  0  0  0  0  0  0  0  0
   52.0680  100.6050   26.5890 C   0  0  0  0  0  0  0  0  0  0  0  0
   51.3210  101.1260   27.6620 O   0  0  0  0  0  0  0  0  0  0  0  0
   51.6860  100.5090   28.8270 C   0  0  0  0  0  0  0  0  0  0  0  0
   51.5160   98.9950   28.8190 C   0  0  0  0  0  0  0  0  0  0  0  0
   57.1960   98.1730   26.0940 C   0  0  0  0  0  0  0  0  0  0  0  0
   53.7340   91.1810   17.4770 C   0  0  0  0  0  0  0  0  0  0  0  0
   54.8740   91.2350   16.4960 C   0  0  0  0  0  0  0  0  0  0  0  0
   55.1780   89.2640   18.9110 H   0  0  0  0  0  0  0  0  0  0  0  0
   57.2120   91.3600   23.8680 H   0  0  0  0  0  0  0  0  0  0  0  0
   57.3310   92.1770   22.2320 H   0  0  0  0  0  0  0  0  0  0  0  0
   57.5730   94.2970   23.1790 H   0  0  0  0  0  0  0  0  0  0  0  0
   58.3800   93.1710   24.3850 H   0  0  0  0  0  0  0  0  0  0  0  0
   54.5670   93.8630   25.6040 H   0  0  0  0  0  0  0  0  0  0  0  0
   55.6730   92.7700   26.5070 H   0  0  0  0  0  0  0  0  0  0  0  0
   53.8260   92.0030   24.6040 H   0  0  0  0  0  0  0  0  0  0  0  0
   55.3390   91.1130   24.9770 H   0  0  0  0  0  0  0  0  0  0  0  0
   53.8030   95.0750   26.0610 H   0  0  0  0  0  0  0  0  0  0  0  0
   50.4080   99.2190   26.3290 H   0  0  0  0  0  0  0  0  0  0  0  0
   51.9320   98.7890   25.4410 H   0  0  0  0  0  0  0  0  0  0  0  0
   53.1200  100.5280   26.8980 H   0  0  0  0  0  0  0  0  0  0  0  0
   51.9130  101.2360   25.6870 H   0  0  0  0  0  0  0  0  0  0  0  0
   52.7570  100.7230   29.0340 H   0  0  0  0  0  0  0  0  0  0  0  0
   51.1200  100.9470   29.6670 H   0  0  0  0  0  0  0  0  0  0  0  0
   52.2030   98.6120   29.5980 H   0  0  0  0  0  0  0  0  0  0  0  0
   50.4720   98.7580   29.0580 H   0  0  0  0  0  0  0  0  0  0  0  0
   57.9640   97.8240   26.7860 H   0  0  0  0  0  0  0  0  0  0  0  0
   57.5390   98.1120   25.0350 H   0  0  0  0  0  0  0  0  0  0  0  0
   57.0370   99.2510   26.2880 H   0  0  0  0  0  0  0  0  0  0  0  0
   53.1180   90.2770   17.2680 H   0  0  0  0  0  0  0  0  0  0  0  0
   53.0700   92.0550   17.2770 H   0  0  0  0  0  0  0  0  0  0  0  0
   55.7360   90.6350   16.8650 H   0  0  0  0  0  0  0  0  0  0  0  0
   54.5320   90.7580   15.5530 H   0  0  0  0  0  0  0  0  0  0  0  0
   55.1300   92.2870   16.2750 H   0  0  0  0  0  0  0  0  0  0  0  0
  2  6  1  0  0  0  0
  2  1  1  0  0  0  0
  3  2  2  0  0  0  0
  4  3  1  0  0  0  0
  4  5  1  0  0  0  0
  5  6  2  0  0  0  0
  6  7  1  0  0  0  0
  7  8  2  0  0  0  0
  7  9  1  0  0  0  0
  9 14  1  0  0  0  0
 10  9  1  0  0  0  0
 10 34  1  0  0  0  0
 10 11  1  0  0  0  0
 11 37  1  0  0  0  0
 11 12  1  0  0  0  0
 12 15  1  0  0  0  0
 12 13  1  0  0  0  0
 13 38  1  0  0  0  0
 13 39  1  0  0  0  0
 14 41  1  0  0  0  0
 14 13  1  0  0  0  0
 15 17  1  0  0  0  0
 16 15  2  0  0  0  0
 17 21  2  0  0  0  0
 17 18  1  0  0  0  0
 18 19  1  0  0  0  0
 19 20  2  0  0  0  0
 20 22  1  0  0  0  0
 21 20  1  0  0  0  0
 22 24  1  0  0  0  0
 22 23  2  0  0  0  0
 24 29  1  0  0  0  0
 25 26  1  0  0  0  0
 25 24  1  0  0  0  0
 26 45  1  0  0  0  0
 26 27  1  0  0  0  0
 27 28  1  0  0  0  0
 28 47  1  0  0  0  0
 28 48  1  0  0  0  0
 29 28  1  0  0  0  0
 29 50  1  0  0  0  0
 29 49  1  0  0  0  0
 30 18  1  0  0  0  0
 30 53  1  0  0  0  0
 30 51  1  0  0  0  0
 31  4  1  0  0  0  0
 32 56  1  0  0  0  0
 32 31  1  0  0  0  0
 33  3  1  0  0  0  0
 35 10  1  0  0  0  0
 36 11  1  0  0  0  0
 40 14  1  0  0  0  0
 42 21  1  0  0  0  0
 43 25  1  0  0  0  0
 44 25  1  0  0  0  0
 46 26  1  0  0  0  0
 52 30  1  0  0  0  0
 54 31  1  0  0  0  0
 55 31  1  0  0  0  0
 57 32  1  0  0  0  0
 58 32  1  0  0  0  0
M  END
>  <Pose>
1

>  <Score>
-7.66

$$$$
