
 OpenBabel03202210083D

 47 50  0  0  0  0  0  0  0  0999 V2000
   57.4100   98.2870   25.5800 B   0  0  0  0  0  0  0  0  0  0  0  0
   57.1730   96.4970   24.9600 C   0  0  0  0  0  0  0  0  0  0  0  0
   56.1120   95.6560   25.2030 C   0  0  0  0  0  0  0  0  0  0  0  0
   56.3450   94.5050   24.5810 N   0  0  0  0  0  0  0  0  0  0  0  0
   57.5180   94.6150   23.9630 N   0  0  0  0  0  0  0  0  0  0  0  0
   58.0690   95.8220   24.1630 C   0  0  0  0  0  0  0  0  0  0  0  0
   55.4850   93.3060   24.5620 C   0  0  0  0  0  0  0  0  0  0  0  0
   55.0460   93.1180   23.1530 C   0  0  0  0  0  0  0  0  0  0  0  0
   53.8800   93.5290   22.8460 O   0  0  0  0  0  0  0  0  0  0  0  0
   55.8720   92.5240   22.2240 N   0  0  0  0  0  0  0  0  0  0  0  0
   55.7100   92.4140   20.7860 C   0  0  0  0  0  0  0  0  0  0  0  0
   54.8760   91.2650   20.3740 C   0  0  0  0  0  0  0  0  0  0  0  0
   53.9710   91.3410   19.3470 C   0  0  0  0  0  0  0  0  0  0  0  0
   53.2330   90.2390   18.9560 C   0  0  0  0  0  0  0  0  0  0  0  0
   53.3860   89.0250   19.5890 C   0  0  0  0  0  0  0  0  0  0  0  0
   54.3130   88.9310   20.6450 C   0  0  0  0  0  0  0  0  0  0  0  0
   55.0420   90.0240   21.0310 C   0  0  0  0  0  0  0  0  0  0  0  0
   55.9960   89.9170   22.1380 C   0  0  0  0  0  0  0  0  0  0  0  0
   56.4930   88.5700   22.4850 C   0  0  0  0  0  0  0  0  0  0  0  0
   55.5090   87.5110   22.2970 N   0  0  0  0  0  0  0  0  0  0  0  0
   54.5280   87.6340   21.2760 C   0  0  0  0  0  0  0  0  0  0  0  0
   53.8610   86.6100   20.9360 O   0  0  0  0  0  0  0  0  0  0  0  0
   55.6090   86.3660   23.1720 C   0  0  0  0  0  0  0  0  0  0  0  0
   52.6640   87.9010   19.2270 O   0  0  0  0  0  0  0  0  0  0  0  0
   51.3300   87.7200   19.6520 C   0  0  0  0  0  0  0  0  0  0  0  0
   52.4280   90.6540   17.9140 O   0  0  0  0  0  0  0  0  0  0  0  0
   52.5070   92.0480   17.7540 C   0  0  0  0  0  0  0  0  0  0  0  0
   53.6250   92.4500   18.5410 O   0  0  0  0  0  0  0  0  0  0  0  0
   55.2490   95.9320   25.8130 H   0  0  0  0  0  0  0  0  0  0  0  0
   59.0000   96.2310   23.8080 H   0  0  0  0  0  0  0  0  0  0  0  0
   54.6100   93.5210   25.2240 H   0  0  0  0  0  0  0  0  0  0  0  0
   56.0000   92.4230   24.9380 H   0  0  0  0  0  0  0  0  0  0  0  0
   56.7680   92.0610   22.5770 H   0  0  0  0  0  0  0  0  0  0  0  0
   56.7760   92.1620   20.4590 H   0  0  0  0  0  0  0  0  0  0  0  0
   55.4490   93.3520   20.2910 H   0  0  0  0  0  0  0  0  0  0  0  0
   55.6760   90.4620   23.0520 H   0  0  0  0  0  0  0  0  0  0  0  0
   56.9160   90.4990   21.8050 H   0  0  0  0  0  0  0  0  0  0  0  0
   57.3720   88.2960   21.8310 H   0  0  0  0  0  0  0  0  0  0  0  0
   56.8760   88.5870   23.5420 H   0  0  0  0  0  0  0  0  0  0  0  0
   56.6880   86.1720   23.3860 H   0  0  0  0  0  0  0  0  0  0  0  0
   55.1140   86.6290   24.1250 H   0  0  0  0  0  0  0  0  0  0  0  0
   55.1040   85.4670   22.7710 H   0  0  0  0  0  0  0  0  0  0  0  0
   51.2460   88.2030   20.6660 H   0  0  0  0  0  0  0  0  0  0  0  0
   51.0640   86.6500   19.7650 H   0  0  0  0  0  0  0  0  0  0  0  0
   50.5970   88.1970   18.9470 H   0  0  0  0  0  0  0  0  0  0  0  0
   51.6170   92.5850   18.1520 H   0  0  0  0  0  0  0  0  0  0  0  0
   52.7560   92.3240   16.7060 H   0  0  0  0  0  0  0  0  0  0  0  0
  2  3  2  0  0  0  0
  2  1  1  0  0  0  0
  3 29  1  0  0  0  0
  4  3  1  0  0  0  0
  5  6  2  0  0  0  0
  5  4  1  0  0  0  0
  6  2  1  0  0  0  0
  7  4  1  0  0  0  0
  7 32  1  0  0  0  0
  7 31  1  0  0  0  0
  8  7  1  0  0  0  0
  9  8  2  0  0  0  0
 10 33  1  0  0  0  0
 10  8  1  0  0  0  0
 11 10  1  0  0  0  0
 12 11  1  0  0  0  0
 12 17  1  0  0  0  0
 13 12  2  0  0  0  0
 14 13  1  0  0  0  0
 14 15  2  0  0  0  0
 15 16  1  0  0  0  0
 16 17  2  0  0  0  0
 16 21  1  0  0  0  0
 17 18  1  0  0  0  0
 18 19  1  0  0  0  0
 18 36  1  0  0  0  0
 19 39  1  0  0  0  0
 20 19  1  0  0  0  0
 20 23  1  0  0  0  0
 21 20  1  0  0  0  0
 22 21  2  0  0  0  0
 23 40  1  0  0  0  0
 23 41  1  0  0  0  0
 24 15  1  0  0  0  0
 24 25  1  0  0  0  0
 25 44  1  0  0  0  0
 25 43  1  0  0  0  0
 26 14  1  0  0  0  0
 27 26  1  0  0  0  0
 27 46  1  0  0  0  0
 27 28  1  0  0  0  0
 28 13  1  0  0  0  0
 30  6  1  0  0  0  0
 34 11  1  0  0  0  0
 35 11  1  0  0  0  0
 37 18  1  0  0  0  0
 38 19  1  0  0  0  0
 42 23  1  0  0  0  0
 45 25  1  0  0  0  0
 47 27  1  0  0  0  0
M  END
>  <Pose>
1

>  <Score>
-7.65

$$$$
