
 OpenBabel03202210083D

 33 37  0  0  0  0  0  0  0  0999 V2000
   52.6530   85.0260   18.3680 B   0  0  0  0  0  0  0  0  0  0  0  0
   52.1570   86.7860   18.8510 C   0  0  0  0  0  0  0  0  0  0  0  0
   52.7780   87.9540   18.4600 C   0  0  0  0  0  0  0  0  0  0  0  0
   52.1210   88.9860   19.0160 N   0  0  0  0  0  0  0  0  0  0  0  0
   51.1210   88.5060   19.7330 N   0  0  0  0  0  0  0  0  0  0  0  0
   51.1050   87.1550   19.6590 C   0  0  0  0  0  0  0  0  0  0  0  0
   52.4450   90.3890   18.8620 C   0  0  0  0  0  0  0  0  0  0  0  0
   53.5240   90.7920   19.7680 N   0  0  0  0  0  0  0  0  0  0  0  0
   53.4460   91.7560   20.6680 N   0  0  0  0  0  0  0  0  0  0  0  0
   54.6010   91.8840   21.3420 C   0  0  0  0  0  0  0  0  0  0  0  0
   55.4420   90.9280   20.8130 C   0  0  0  0  0  0  0  0  0  0  0  0
   54.7500   90.2450   19.8180 C   0  0  0  0  0  0  0  0  0  0  0  0
   54.9240   92.8270   22.4120 C   0  0  0  0  0  0  0  0  0  0  0  0
   56.0970   93.4530   22.5930 N   0  0  0  0  0  0  0  0  0  0  0  0
   56.0380   94.2390   23.6680 N   0  0  0  0  0  0  0  0  0  0  0  0
   54.7870   94.1130   24.1960 C   0  0  0  0  0  0  0  0  0  0  0  0
   54.1260   93.2430   23.4090 N   0  0  0  0  0  0  0  0  0  0  0  0
   54.4780   94.8370   25.3290 C   0  0  0  0  0  0  0  0  0  0  0  0
   55.3860   95.6810   25.9450 C   0  0  0  0  0  0  0  0  0  0  0  0
   54.8040   96.2450   27.0170 N   0  0  0  0  0  0  0  0  0  0  0  0
   53.5680   95.7770   27.0820 N   0  0  0  0  0  0  0  0  0  0  0  0
   53.3310   94.9160   26.0710 C   0  0  0  0  0  0  0  0  0  0  0  0
   56.6040   95.7720   25.3890 N   0  0  0  0  0  0  0  0  0  0  0  0
   56.9010   95.0650   24.2870 C   0  0  0  0  0  0  0  0  0  0  0  0
   53.6360   87.9910   17.8220 H   0  0  0  0  0  0  0  0  0  0  0  0
   50.4190   86.4790   20.1290 H   0  0  0  0  0  0  0  0  0  0  0  0
   51.5670   91.0460   19.0600 H   0  0  0  0  0  0  0  0  0  0  0  0
   52.7460   90.6150   17.7990 H   0  0  0  0  0  0  0  0  0  0  0  0
   56.4570   90.7620   21.1330 H   0  0  0  0  0  0  0  0  0  0  0  0
   55.1020   89.4330   19.1970 H   0  0  0  0  0  0  0  0  0  0  0  0
   55.2220   96.9250   27.6880 H   0  0  0  0  0  0  0  0  0  0  0  0
   52.4120   94.3650   25.8500 H   0  0  0  0  0  0  0  0  0  0  0  0
   57.8920   95.1660   23.8700 H   0  0  0  0  0  0  0  0  0  0  0  0
  1  2  1  0  0  0  0
  2  6  1  0  0  0  0
  3  2  2  0  0  0  0
  3  4  1  0  0  0  0
  4  5  1  0  0  0  0
  6  5  2  0  0  0  0
  6 26  1  0  0  0  0
  7  4  1  0  0  0  0
  7 27  1  0  0  0  0
  7  8  1  0  0  0  0
  8 12  1  0  0  0  0
  8  9  1  0  0  0  0
  9 10  2  0  0  0  0
 10 13  1  0  0  0  0
 11 29  1  0  0  0  0
 11 10  1  0  0  0  0
 12 11  2  0  0  0  0
 13 14  2  0  0  0  0
 13 17  1  0  0  0  0
 14 15  1  0  0  0  0
 15 16  1  0  0  0  0
 15 24  1  0  0  0  0
 16 18  1  0  0  0  0
 17 16  2  0  0  0  0
 18 19  2  0  0  0  0
 18 22  1  0  0  0  0
 19 20  1  0  0  0  0
 20 21  1  0  0  0  0
 20 31  1  0  0  0  0
 22 21  2  0  0  0  0
 23 19  1  0  0  0  0
 24 23  2  0  0  0  0
 25  3  1  0  0  0  0
 28  7  1  0  0  0  0
 30 12  1  0  0  0  0
 32 22  1  0  0  0  0
 33 24  1  0  0  0  0
M  END
>  <Pose>
1

>  <Score>
-8.11

$$$$
