
 OpenBabel03202210083D

 42 45  0  0  0  0  0  0  0  0999 V2000
   47.9410  103.9010   31.9530 B   0  0  0  0  0  0  0  0  0  0  0  0
   48.3720  102.7950   30.4370 C   0  0  0  0  0  0  0  0  0  0  0  0
   49.4120  101.8980   30.3240 C   0  0  0  0  0  0  0  0  0  0  0  0
   49.3750  101.3220   29.1100 N   0  0  0  0  0  0  0  0  0  0  0  0
   48.3420  101.8400   28.4800 N   0  0  0  0  0  0  0  0  0  0  0  0
   47.7040  102.7330   29.2340 C   0  0  0  0  0  0  0  0  0  0  0  0
   50.2490  100.3430   28.5660 C   0  0  0  0  0  0  0  0  0  0  0  0
   50.3560   99.1010   29.1420 C   0  0  0  0  0  0  0  0  0  0  0  0
   51.1900   98.1390   28.6390 C   0  0  0  0  0  0  0  0  0  0  0  0
   51.9960   98.3480   27.5010 C   0  0  0  0  0  0  0  0  0  0  0  0
   51.8810   99.5960   26.9350 C   0  0  0  0  0  0  0  0  0  0  0  0
   51.0200  100.5730   27.4600 C   0  0  0  0  0  0  0  0  0  0  0  0
   52.8810   97.2940   27.0580 C   0  0  0  0  0  0  0  0  0  0  0  0
   52.4030   96.1000   27.2040 O   0  0  0  0  0  0  0  0  0  0  0  0
   54.1500   97.3700   26.5080 N   0  0  0  0  0  0  0  0  0  0  0  0
   55.4510   97.1600   27.0830 C   0  0  0  0  0  0  0  0  0  0  0  0
   55.8960   95.7670   26.6790 C   0  0  0  0  0  0  0  0  0  0  0  0
   55.4570   95.4630   25.2610 C   0  0  0  0  0  0  0  0  0  0  0  0
   56.5290   94.7240   24.6310 N   0  0  0  0  0  0  0  0  0  0  0  0
   56.3640   93.3520   24.9580 C   0  0  0  0  0  0  0  0  0  0  0  0
   57.2370   92.4250   24.9180 O   0  0  0  0  0  0  0  0  0  0  0  0
   54.9930   93.1870   25.3540 N   0  0  0  0  0  0  0  0  0  0  0  0
   54.3580   94.4790   25.2550 C   0  0  0  0  0  0  0  0  0  0  0  0
   53.1230   94.6520   25.1830 O   0  0  0  0  0  0  0  0  0  0  0  0
   55.1820   96.6860   24.4470 C   0  0  0  0  0  0  0  0  0  0  0  0
   54.2400   97.6740   25.0460 C   0  0  0  0  0  0  0  0  0  0  0  0
   50.1440  101.6940   31.0950 H   0  0  0  0  0  0  0  0  0  0  0  0
   46.8150  103.3360   29.0030 H   0  0  0  0  0  0  0  0  0  0  0  0
   49.7320   98.9310   30.0260 H   0  0  0  0  0  0  0  0  0  0  0  0
   51.2440   97.1790   29.1170 H   0  0  0  0  0  0  0  0  0  0  0  0
   52.4820   99.8460   26.0780 H   0  0  0  0  0  0  0  0  0  0  0  0
   50.9590  101.5440   26.9830 H   0  0  0  0  0  0  0  0  0  0  0  0
   56.1840   97.8290   26.4750 H   0  0  0  0  0  0  0  0  0  0  0  0
   55.6140   97.4460   28.1000 H   0  0  0  0  0  0  0  0  0  0  0  0
   56.9760   95.6610   26.7830 H   0  0  0  0  0  0  0  0  0  0  0  0
   55.3980   95.0480   27.3480 H   0  0  0  0  0  0  0  0  0  0  0  0
   57.3010   95.0880   24.0390 H   0  0  0  0  0  0  0  0  0  0  0  0
   54.4980   92.3220   25.6630 H   0  0  0  0  0  0  0  0  0  0  0  0
   54.7010   96.3190   23.4920 H   0  0  0  0  0  0  0  0  0  0  0  0
   56.1270   97.1690   24.1040 H   0  0  0  0  0  0  0  0  0  0  0  0
   54.6940   98.6860   25.0100 H   0  0  0  0  0  0  0  0  0  0  0  0
   53.2470   97.7200   24.5960 H   0  0  0  0  0  0  0  0  0  0  0  0
  2  1  1  0  0  0  0
  3  2  2  0  0  0  0
  3 27  1  0  0  0  0
  4  3  1  0  0  0  0
  5  4  1  0  0  0  0
  5  6  2  0  0  0  0
  6  2  1  0  0  0  0
  7  4  1  0  0  0  0
  7  8  1  0  0  0  0
  8 29  1  0  0  0  0
  9 30  1  0  0  0  0
  9  8  2  0  0  0  0
 10  9  1  0  0  0  0
 11 12  1  0  0  0  0
 11 10  2  0  0  0  0
 12  7  2  0  0  0  0
 13 14  2  0  0  0  0
 13 10  1  0  0  0  0
 15 13  1  0  0  0  0
 15 16  1  0  0  0  0
 16 34  1  0  0  0  0
 17 35  1  0  0  0  0
 17 16  1  0  0  0  0
 17 36  1  0  0  0  0
 18 17  1  0  0  0  0
 19 20  1  0  0  0  0
 19 18  1  0  0  0  0
 20 22  1  0  0  0  0
 21 20  2  0  0  0  0
 22 38  1  0  0  0  0
 23 18  1  0  0  0  0
 23 22  1  0  0  0  0
 24 23  2  0  0  0  0
 25 26  1  0  0  0  0
 25 18  1  0  0  0  0
 26 15  1  0  0  0  0
 28  6  1  0  0  0  0
 31 11  1  0  0  0  0
 32 12  1  0  0  0  0
 33 16  1  0  0  0  0
 37 19  1  0  0  0  0
 39 25  1  0  0  0  0
 40 25  1  0  0  0  0
 41 26  1  0  0  0  0
 42 26  1  0  0  0  0
M  END
>  <Pose>
1

>  <Score>
-5.35

$$$$
