
 OpenBabel03202210083D

 41 44  0  0  0  0  0  0  0  0999 V2000
   53.0240   81.5520   16.9090 B   0  0  0  0  0  0  0  0  0  0  0  0
   53.1000   82.8830   18.2790 C   0  0  0  0  0  0  0  0  0  0  0  0
   52.4340   84.0750   18.1730 C   0  0  0  0  0  0  0  0  0  0  0  0
   52.4970   84.9880   19.1480 N   0  0  0  0  0  0  0  0  0  0  0  0
   53.2050   84.8180   20.2970 C   0  0  0  0  0  0  0  0  0  0  0  0
   53.8830   83.5970   20.3960 C   0  0  0  0  0  0  0  0  0  0  0  0
   53.8380   82.6430   19.4160 C   0  0  0  0  0  0  0  0  0  0  0  0
   53.2230   85.8090   21.3050 N   0  0  0  0  0  0  0  0  0  0  0  0
   53.7720   87.0740   20.9870 C   0  0  0  0  0  0  0  0  0  0  0  0
   54.7670   87.6980   21.5460 C   0  0  0  0  0  0  0  0  0  0  0  0
   54.9180   88.9670   20.8320 C   0  0  0  0  0  0  0  0  0  0  0  0
   55.8020   89.8360   21.1120 O   0  0  0  0  0  0  0  0  0  0  0  0
   53.9430   89.0890   19.7860 N   0  0  0  0  0  0  0  0  0  0  0  0
   53.1990   87.8750   19.8790 C   0  0  0  0  0  0  0  0  0  0  0  0
   52.2290   87.5450   19.1470 O   0  0  0  0  0  0  0  0  0  0  0  0
   53.7790   90.1660   18.8770 C   0  0  0  0  0  0  0  0  0  0  0  0
   52.9960   91.2610   19.1360 C   0  0  0  0  0  0  0  0  0  0  0  0
   52.8700   92.3210   18.2140 C   0  0  0  0  0  0  0  0  0  0  0  0
   53.5400   92.2840   17.0130 C   0  0  0  0  0  0  0  0  0  0  0  0
   54.3250   91.1910   16.7490 C   0  0  0  0  0  0  0  0  0  0  0  0
   54.4380   90.1510   17.6720 C   0  0  0  0  0  0  0  0  0  0  0  0
   55.5770   87.2800   22.6470 N   0  0  0  0  0  0  0  0  0  0  0  0
   56.8130   86.7990   22.4250 C   0  0  0  0  0  0  0  0  0  0  0  0
   57.6330   86.3710   23.4840 C   0  0  0  0  0  0  0  0  0  0  0  0
   57.1690   86.4410   24.7840 C   0  0  0  0  0  0  0  0  0  0  0  0
   55.8990   86.9380   24.9860 C   0  0  0  0  0  0  0  0  0  0  0  0
   55.1330   87.3450   23.9250 C   0  0  0  0  0  0  0  0  0  0  0  0
   51.8600   84.2670   17.2820 H   0  0  0  0  0  0  0  0  0  0  0  0
   54.4580   83.4420   21.3050 H   0  0  0  0  0  0  0  0  0  0  0  0
   54.3650   81.6900   19.4900 H   0  0  0  0  0  0  0  0  0  0  0  0
   52.8540   85.6200   22.2370 H   0  0  0  0  0  0  0  0  0  0  0  0
   52.4580   91.3130   20.0700 H   0  0  0  0  0  0  0  0  0  0  0  0
   52.2350   93.1680   18.4660 H   0  0  0  0  0  0  0  0  0  0  0  0
   53.4350   93.1090   16.3090 H   0  0  0  0  0  0  0  0  0  0  0  0
   54.8540   91.1520   15.8040 H   0  0  0  0  0  0  0  0  0  0  0  0
   55.0760   89.3270   17.3980 H   0  0  0  0  0  0  0  0  0  0  0  0
   57.1570   86.7540   21.3970 H   0  0  0  0  0  0  0  0  0  0  0  0
   58.6310   85.9900   23.2550 H   0  0  0  0  0  0  0  0  0  0  0  0
   57.7950   86.1100   25.6190 H   0  0  0  0  0  0  0  0  0  0  0  0
   55.5270   86.9940   25.9940 H   0  0  0  0  0  0  0  0  0  0  0  0
   54.1170   87.7450   24.0770 H   0  0  0  0  0  0  0  0  0  0  0  0
  1  2  1  0  0  0  0
  2  7  1  0  0  0  0
  3  2  2  0  0  0  0
  3  4  1  0  0  0  0
  4  5  2  0  0  0  0
  5  6  1  0  0  0  0
  5  8  1  0  0  0  0
  6 29  1  0  0  0  0
  7 30  1  0  0  0  0
  7  6  2  0  0  0  0
  8 31  1  0  0  0  0
  9  8  1  0  0  0  0
  9 10  2  0  0  0  0
 10 22  1  0  0  0  0
 11 12  2  0  0  0  0
 11 10  1  0  0  0  0
 13 14  1  0  0  0  0
 13 11  1  0  0  0  0
 14  9  1  0  0  0  0
 15 14  2  0  0  0  0
 16 17  1  0  0  0  0
 16 13  1  0  0  0  0
 17 32  1  0  0  0  0
 18 33  1  0  0  0  0
 18 17  2  0  0  0  0
 19 18  1  0  0  0  0
 20 19  2  0  0  0  0
 20 21  1  0  0  0  0
 21 16  2  0  0  0  0
 22 27  1  0  0  0  0
 23 22  1  0  0  0  0
 23 24  1  0  0  0  0
 24 25  2  0  0  0  0
 25 26  1  0  0  0  0
 25 39  1  0  0  0  0
 26 40  1  0  0  0  0
 27 41  1  0  0  0  0
 27 26  2  0  0  0  0
 28  3  1  0  0  0  0
 34 19  1  0  0  0  0
 35 20  1  0  0  0  0
 36 21  1  0  0  0  0
 37 23  1  0  0  0  0
 38 24  1  0  0  0  0
M  END
>  <Pose>
1

>  <Score>
-6.98

$$$$
