
 OpenBabel03202210083D

 38 41  0  0  0  0  0  0  0  0999 V2000
   55.2010   95.7550   26.8060 B   0  0  0  0  0  0  0  0  0  0  0  0
   55.1130   94.7010   25.2130 C   0  0  0  0  0  0  0  0  0  0  0  0
   56.2450   94.4720   24.4630 C   0  0  0  0  0  0  0  0  0  0  0  0
   56.1620   93.7380   23.3610 N   0  0  0  0  0  0  0  0  0  0  0  0
   55.0290   93.1730   22.8910 C   0  0  0  0  0  0  0  0  0  0  0  0
   53.9090   93.4050   23.6390 N   0  0  0  0  0  0  0  0  0  0  0  0
   53.9360   94.1410   24.7640 C   0  0  0  0  0  0  0  0  0  0  0  0
   54.9650   92.4030   21.7250 N   0  0  0  0  0  0  0  0  0  0  0  0
   55.8520   91.5310   21.0110 C   0  0  0  0  0  0  0  0  0  0  0  0
   54.6100   90.7220   20.6920 C   0  0  0  0  0  0  0  0  0  0  0  0
   54.0010   92.1200   20.6990 C   0  0  0  0  0  0  0  0  0  0  0  0
   54.6020   90.0350   19.3630 C   0  0  0  0  0  0  0  0  0  0  0  0
   53.5950   89.0080   19.4000 N   0  0  0  0  0  0  0  0  0  0  0  0
   53.8690   87.7730   19.9880 N   0  0  0  0  0  0  0  0  0  0  0  0
   52.9080   86.7290   20.0490 C   0  0  0  0  0  0  0  0  0  0  0  0
   53.2190   85.5800   20.6170 C   0  0  0  0  0  0  0  0  0  0  0  0
   54.0870   84.6130   21.3180 C   0  0  0  0  0  0  0  0  0  0  0  0
   52.7340   84.1930   20.9890 C   0  0  0  0  0  0  0  0  0  0  0  0
   51.5840   86.9200   19.4890 C   0  0  0  0  0  0  0  0  0  0  0  0
   51.3020   88.0830   18.9250 C   0  0  0  0  0  0  0  0  0  0  0  0
   52.2940   89.1760   18.8570 C   0  0  0  0  0  0  0  0  0  0  0  0
   52.0010   90.2740   18.3150 O   0  0  0  0  0  0  0  0  0  0  0  0
   57.1640   94.9180   24.8280 H   0  0  0  0  0  0  0  0  0  0  0  0
   53.0550   94.3300   25.3660 H   0  0  0  0  0  0  0  0  0  0  0  0
   56.2440   91.9520   20.0420 H   0  0  0  0  0  0  0  0  0  0  0  0
   56.6120   91.0010   21.6070 H   0  0  0  0  0  0  0  0  0  0  0  0
   54.3030   90.1280   21.5580 H   0  0  0  0  0  0  0  0  0  0  0  0
   54.1770   92.6260   19.7260 H   0  0  0  0  0  0  0  0  0  0  0  0
   52.9400   92.1630   20.9970 H   0  0  0  0  0  0  0  0  0  0  0  0
   55.5970   89.5790   19.1600 H   0  0  0  0  0  0  0  0  0  0  0  0
   54.3700   90.7140   18.5430 H   0  0  0  0  0  0  0  0  0  0  0  0
   54.8400   87.6420   20.3960 H   0  0  0  0  0  0  0  0  0  0  0  0
   54.9170   84.1350   20.7440 H   0  0  0  0  0  0  0  0  0  0  0  0
   54.3460   84.7700   22.3780 H   0  0  0  0  0  0  0  0  0  0  0  0
   52.5860   83.4830   20.1370 H   0  0  0  0  0  0  0  0  0  0  0  0
   51.9280   84.1790   21.7580 H   0  0  0  0  0  0  0  0  0  0  0  0
   50.8220   86.1170   19.5270 H   0  0  0  0  0  0  0  0  0  0  0  0
   50.3130   88.2100   18.5120 H   0  0  0  0  0  0  0  0  0  0  0  0
  2  1  1  0  0  0  0
  3 23  1  0  0  0  0
  3  2  2  0  0  0  0
  4  3  1  0  0  0  0
  5  4  2  0  0  0  0
  5  6  1  0  0  0  0
  6  7  2  0  0  0  0
  7  2  1  0  0  0  0
  7 24  1  0  0  0  0
  8  5  1  0  0  0  0
  9 26  1  0  0  0  0
  9  8  1  0  0  0  0
 10 11  1  0  0  0  0
 10  9  1  0  0  0  0
 10 27  1  0  0  0  0
 11 29  1  0  0  0  0
 11  8  1  0  0  0  0
 12 13  1  0  0  0  0
 12 10  1  0  0  0  0
 13 14  1  0  0  0  0
 14 15  1  0  0  0  0
 14 32  1  0  0  0  0
 15 16  2  0  0  0  0
 16 18  1  0  0  0  0
 16 17  1  0  0  0  0
 17 34  1  0  0  0  0
 18 17  1  0  0  0  0
 18 36  1  0  0  0  0
 19 37  1  0  0  0  0
 19 15  1  0  0  0  0
 20 19  2  0  0  0  0
 21 20  1  0  0  0  0
 21 13  1  0  0  0  0
 22 21  2  0  0  0  0
 25  9  1  0  0  0  0
 28 11  1  0  0  0  0
 30 12  1  0  0  0  0
 31 12  1  0  0  0  0
 33 17  1  0  0  0  0
 35 18  1  0  0  0  0
 38 20  1  0  0  0  0
M  END
>  <Pose>
1

>  <Score>
-6.36

$$$$
