
 OpenBabel03202210083D

 40 43  0  0  1  0  0  0  0  0999 V2000
   57.8320   95.3970   23.9750 B   0  0  0  0  0  0  0  0  0  0  0  0
   57.0270   96.5800   25.2300 C   0  0  0  0  0  0  0  0  0  0  0  0
   57.6670   97.7520   25.5530 C   0  0  0  0  0  0  0  0  0  0  0  0
   57.1060   98.6080   26.4450 N   0  0  0  0  0  0  0  0  0  0  0  0
   55.9320   98.3310   27.0240 C   0  0  0  0  0  0  0  0  0  0  0  0
   55.2110   97.1600   26.7540 C   0  0  0  0  0  0  0  0  0  0  0  0
   55.8120   96.3200   25.8440 C   0  0  0  0  0  0  0  0  0  0  0  0
   53.9400   96.9200   27.3960 C   0  0  0  0  0  0  0  0  0  0  0  0
   53.8010   95.7510   27.9150 O   0  0  0  0  0  0  0  0  0  0  0  0
   52.8580   97.8120   27.5130 N   0  0  0  0  0  0  0  0  0  0  0  0
   51.4300   97.7900   27.5680 C   0  0  0  0  0  0  0  0  0  0  0  0
   51.5110   99.0980   28.3760 C   0  0  0  0  0  0  0  0  0  0  0  0
   52.7630   99.2830   27.6050 C   0  0  0  0  0  0  0  0  0  0  0  0
   50.4130   99.9770   28.0820 N   0  0  0  0  0  0  0  0  0  0  0  0
   50.4340  101.2220   27.3600 C   0  0  0  0  0  0  0  0  0  0  0  0
   51.2860  101.5370   26.5110 O   0  0  0  0  0  0  0  0  0  0  0  0
   49.2440  101.9950   27.8580 C   0  0  1  0  0  0  0  0  0  0  0  0
   48.2350  100.8780   27.9810 C   0  0  2  0  0  0  0  0  0  0  0  0
   47.1190  101.2500   28.9170 C   0  0  0  0  0  0  0  0  0  0  0  0
   47.6770  101.5600   30.2600 C   0  0  0  0  0  0  0  0  0  0  0  0
   48.8350  102.1860   30.3150 C   0  0  0  0  0  0  0  0  0  0  0  0
   49.6360  102.6110   29.1580 C   0  0  0  0  0  0  0  0  0  0  0  0
   49.0610   99.7570   28.4700 C   0  0  0  0  0  0  0  0  0  0  0  0
   48.5940   98.7900   29.1200 O   0  0  0  0  0  0  0  0  0  0  0  0
   58.6170   97.9700   25.0810 H   0  0  0  0  0  0  0  0  0  0  0  0
   55.5260   99.0380   27.7260 H   0  0  0  0  0  0  0  0  0  0  0  0
   55.3350   95.4130   25.5700 H   0  0  0  0  0  0  0  0  0  0  0  0
   50.9390   97.0510   28.2370 H   0  0  0  0  0  0  0  0  0  0  0  0
   50.9150   97.9170   26.5820 H   0  0  0  0  0  0  0  0  0  0  0  0
   51.7030   98.8910   29.4340 H   0  0  0  0  0  0  0  0  0  0  0  0
   52.6560   99.6710   26.5730 H   0  0  0  0  0  0  0  0  0  0  0  0
   53.6270   99.7280   28.1290 H   0  0  0  0  0  0  0  0  0  0  0  0
   48.9260  102.7500   27.1110 H   0  0  0  0  0  0  0  0  0  0  0  0
   47.8010  100.6910   26.9780 H   0  0  0  0  0  0  0  0  0  0  0  0
   46.3840  100.4350   28.9320 H   0  0  0  0  0  0  0  0  0  0  0  0
   46.6590  102.1810   28.5150 H   0  0  0  0  0  0  0  0  0  0  0  0
   47.1050  101.2570   31.1410 H   0  0  0  0  0  0  0  0  0  0  0  0
   49.2380  102.4100   31.3090 H   0  0  0  0  0  0  0  0  0  0  0  0
   50.7160  102.4170   29.4190 H   0  0  0  0  0  0  0  0  0  0  0  0
   49.5640  103.7170   29.0970 H   0  0  0  0  0  0  0  0  0  0  0  0
  1  2  1  0  0  0  0
  2  3  2  0  0  0  0
  2  7  1  0  0  0  0
  3  4  1  0  0  0  0
  4  5  2  0  0  0  0
  5 26  1  0  0  0  0
  6  5  1  0  0  0  0
  6  8  1  0  0  0  0
  7  6  2  0  0  0  0
  8 10  1  0  0  0  0
  8  9  2  0  0  0  0
 10 11  1  0  0  0  0
 10 13  1  0  0  0  0
 11 28  1  0  0  0  0
 11 12  1  0  0  0  0
 12 30  1  0  0  0  0
 13 32  1  0  0  0  0
 13 12  1  0  0  0  0
 14 12  1  0  0  0  0
 14 23  1  0  0  0  0
 15 17  1  0  0  0  0
 15 14  1  0  0  0  0
 16 15  2  0  0  0  0
 17 33  1  6  0  0  0
 17 18  1  0  0  0  0
 17 22  1  0  0  0  0
 18 34  1  6  0  0  0
 18 23  1  0  0  0  0
 18 19  1  0  0  0  0
 19 35  1  0  0  0  0
 19 20  1  0  0  0  0
 20 21  2  0  0  0  0
 20 37  1  0  0  0  0
 21 38  1  0  0  0  0
 22 39  1  0  0  0  0
 22 21  1  0  0  0  0
 23 24  2  0  0  0  0
 25  3  1  0  0  0  0
 27  7  1  0  0  0  0
 29 11  1  0  0  0  0
 31 13  1  0  0  0  0
 36 19  1  0  0  0  0
 40 22  1  0  0  0  0
M  END
>  <Pose>
1

>  <Score>
-6.87

$$$$
