
 OpenBabel03202210083D

 37 40  0  0  1  0  0  0  0  0999 V2000
   49.5360  102.7120   32.2600 B   0  0  0  0  0  0  0  0  0  0  0  0
   48.9900  102.1570   30.5030 C   0  0  0  0  0  0  0  0  0  0  0  0
   47.6700  102.3110   30.1460 C   0  0  0  0  0  0  0  0  0  0  0  0
   47.3150  101.9180   28.9180 N   0  0  0  0  0  0  0  0  0  0  0  0
   48.2070  101.3810   28.0360 C   0  0  0  0  0  0  0  0  0  0  0  0
   49.5350  101.2030   28.3320 C   0  0  0  0  0  0  0  0  0  0  0  0
   49.8990  101.6200   29.6260 C   0  0  0  0  0  0  0  0  0  0  0  0
   50.5400  100.6380   27.4670 C   0  0  0  0  0  0  0  0  0  0  0  0
   51.0090  101.3700   26.5410 O   0  0  0  0  0  0  0  0  0  0  0  0
   51.0220   99.3300   27.5960 N   0  0  0  0  0  0  0  0  0  0  0  0
   50.5630   97.9660   27.5870 C   0  0  0  0  0  0  0  0  0  0  0  0
   51.9160   97.4400   28.0430 C   0  0  0  0  0  0  0  0  0  0  0  0
   52.3990   98.8380   27.8000 C   0  0  0  0  0  0  0  0  0  0  0  0
   52.4990   96.4420   27.2660 O   0  0  0  0  0  0  0  0  0  0  0  0
   53.7870   96.4450   26.7710 C   0  0  2  0  0  0  0  0  0  0  0  0
   54.6060   97.4510   27.0670 C   0  0  0  0  0  0  0  0  0  0  0  0
   55.9770   97.5110   26.5760 C   0  0  0  0  0  0  0  0  0  0  0  0
   56.7630   98.5260   26.8900 C   0  0  0  0  0  0  0  0  0  0  0  0
   56.4260   96.4450   25.7520 N   0  0  0  0  0  0  0  0  0  0  0  0
   55.5200   95.3730   25.4490 C   0  0  0  0  0  0  0  0  0  0  0  0
   54.2700   95.3760   25.9330 N   0  0  0  0  0  0  0  0  0  0  0  0
   53.6390   94.2780   25.5020 N   0  0  0  0  0  0  0  0  0  0  0  0
   54.5080   93.5960   24.7480 C   0  0  0  0  0  0  0  0  0  0  0  0
   55.6650   94.2660   24.7130 N   0  0  0  0  0  0  0  0  0  0  0  0
   46.9330  102.7400   30.8420 H   0  0  0  0  0  0  0  0  0  0  0  0
   47.8710  101.0840   27.0450 H   0  0  0  0  0  0  0  0  0  0  0  0
   50.9320  101.5060   29.9220 H   0  0  0  0  0  0  0  0  0  0  0  0
   49.7990   97.7310   28.3730 H   0  0  0  0  0  0  0  0  0  0  0  0
   50.2730   97.6620   26.5740 H   0  0  0  0  0  0  0  0  0  0  0  0
   51.9050   97.1380   29.1220 H   0  0  0  0  0  0  0  0  0  0  0  0
   52.9490   98.9890   26.8740 H   0  0  0  0  0  0  0  0  0  0  0  0
   52.8980   99.2900   28.6660 H   0  0  0  0  0  0  0  0  0  0  0  0
   54.2110   98.2590   27.7010 H   0  0  0  0  0  0  0  0  0  0  0  0
   57.7640   98.5370   26.5110 H   0  0  0  0  0  0  0  0  0  0  0  0
   56.4220   99.3200   27.5050 H   0  0  0  0  0  0  0  0  0  0  0  0
   57.3970   96.4770   25.3980 H   0  0  0  0  0  0  0  0  0  0  0  0
   54.3410   92.6450   24.2280 H   0  0  0  0  0  0  0  0  0  0  0  0
  2  1  1  0  0  0  0
  3  2  1  0  0  0  0
  3 25  1  0  0  0  0
  4  3  2  0  0  0  0
  5  6  2  0  0  0  0
  5  4  1  0  0  0  0
  6  7  1  0  0  0  0
  7 27  1  0  0  0  0
  7  2  2  0  0  0  0
  8 10  1  0  0  0  0
  8  6  1  0  0  0  0
  9  8  2  0  0  0  0
 10 13  1  0  0  0  0
 11 10  1  0  0  0  0
 11 12  1  0  0  0  0
 11 28  1  0  0  0  0
 12 30  1  0  0  0  0
 13 12  1  0  0  0  0
 13 32  1  0  0  0  0
 14 12  1  0  0  0  0
 15 16  1  0  0  0  0
 15 14  1  6  0  0  0
 16 33  1  0  0  0  0
 17 18  1  0  0  0  0
 17 16  2  0  0  0  0
 18 35  1  0  0  0  0
 19 17  1  0  0  0  0
 20 19  1  0  0  0  0
 20 21  1  0  0  0  0
 21 15  1  0  0  0  0
 22 21  1  0  0  0  0
 23 22  2  0  0  0  0
 24 23  1  0  0  0  0
 24 20  2  0  0  0  0
 26  5  1  0  0  0  0
 29 11  1  0  0  0  0
 31 13  1  0  0  0  0
 34 18  1  0  0  0  0
 36 19  1  0  0  0  0
 37 23  1  0  0  0  0
M  END
>  <Pose>
1

>  <Score>
-7.65

$$$$
