
 OpenBabel03202210083D

 48 43  0  0  1  0  0  0  0  0999 V2000
   55.4770   90.9760   20.8210 B   0  0  0  0  0  0  0  0  0  0  0  0
   54.0620   90.9590   19.5710 C   0  0  0  0  0  0  0  0  0  0  0  0
   53.7860   92.0960   18.8290 C   0  0  0  0  0  0  0  0  0  0  0  0
   52.7720   92.0340   17.9540 N   0  0  0  0  0  0  0  0  0  0  0  0
   52.0160   90.9430   17.7570 C   0  0  0  0  0  0  0  0  0  0  0  0
   52.2960   89.8210   18.4970 C   0  0  0  0  0  0  0  0  0  0  0  0
   53.3270   89.8020   19.4210 C   0  0  1  0  0  0  0  0  0  0  0  0
   51.5000   88.6180   18.3120 C   0  0  0  0  0  0  0  0  0  0  0  0
   50.5620   88.5920   17.4660 O   0  0  0  0  0  0  0  0  0  0  0  0
   51.7400   87.4740   19.0520 O   0  0  0  0  0  0  0  0  0  0  0  0
   54.7410   91.1780   18.3150 N   0  0  0  0  0  0  0  0  0  0  0  0
   53.5800   92.0530   18.3120 C   0  0  0  0  0  0  0  0  0  0  0  0
   52.4970   91.5640   19.2470 C   0  0  0  0  0  0  0  0  0  0  0  0
   51.5590   90.6250   18.5100 C   0  0  0  0  0  0  0  0  0  0  0  0
   52.2080   89.2770   18.2930 C   0  0  0  0  0  0  0  0  0  0  0  0
   53.4110   89.1720   19.1350 C   0  0  0  0  0  0  0  0  0  0  0  0
   54.5000   90.0090   19.1280 C   0  0  1  0  0  0  0  0  0  0  0  0
   55.5160   89.7720   19.9620 N   0  0  0  0  0  0  0  0  0  0  0  0
   55.5140   88.7400   20.8110 C   0  0  0  0  0  0  0  0  0  0  0  0
   54.4370   87.8920   20.8350 C   0  0  0  0  0  0  0  0  0  0  0  0
   53.3730   88.1120   19.9840 C   0  0  0  0  0  0  0  0  0  0  0  0
   52.2560   87.2110   20.0260 N   0  0  0  0  0  0  0  0  0  0  0  0
   54.3820   86.8020   21.7000 C   0  0  0  0  0  0  0  0  0  0  0  0
   55.4480   86.5940   22.5400 C   0  0  0  0  0  0  0  0  0  0  0  0
   56.5250   87.4440   22.5150 C   0  0  0  0  0  0  0  0  0  0  0  0
   56.5700   88.5330   21.6450 C   0  0  0  0  0  0  0  0  0  0  0  0
   55.8470   91.9110   18.9220 C   0  0  0  0  0  0  0  0  0  0  0  0
   54.3870   92.9770   18.9780 H   0  0  0  0  0  0  0  0  0  0  0  0
   51.2200   90.9690   17.0380 H   0  0  0  0  0  0  0  0  0  0  0  0
   53.5690   88.9460   20.0100 H   0  0  0  0  0  0  0  0  0  0  0  0
   54.9880   90.8970   17.3380 H   0  0  0  0  0  0  0  0  0  0  0  0
   53.1420   92.1810   17.3110 H   0  0  0  0  0  0  0  0  0  0  0  0
   53.8520   93.0840   18.6600 H   0  0  0  0  0  0  0  0  0  0  0  0
   51.8830   92.4370   19.5560 H   0  0  0  0  0  0  0  0  0  0  0  0
   52.9940   91.0630   20.0950 H   0  0  0  0  0  0  0  0  0  0  0  0
   50.6340   90.5370   19.0830 H   0  0  0  0  0  0  0  0  0  0  0  0
   51.3480   91.0700   17.5250 H   0  0  0  0  0  0  0  0  0  0  0  0
   51.4700   88.4800   18.5220 H   0  0  0  0  0  0  0  0  0  0  0  0
   52.4660   89.1270   17.2060 H   0  0  0  0  0  0  0  0  0  0  0  0
   52.0550   86.6050   19.2150 H   0  0  0  0  0  0  0  0  0  0  0  0
   51.6370   87.1570   20.8680 H   0  0  0  0  0  0  0  0  0  0  0  0
   53.5220   86.1530   21.6950 H   0  0  0  0  0  0  0  0  0  0  0  0
   55.4490   85.7570   23.2310 H   0  0  0  0  0  0  0  0  0  0  0  0
   57.3620   87.2870   23.1690 H   0  0  0  0  0  0  0  0  0  0  0  0
   57.4070   89.2150   21.6070 H   0  0  0  0  0  0  0  0  0  0  0  0
   55.8150   92.9400   18.5260 H   0  0  0  0  0  0  0  0  0  0  0  0
   56.8020   91.3910   18.7570 H   0  0  0  0  0  0  0  0  0  0  0  0
   55.6410   91.9770   20.0200 H   0  0  0  0  0  0  0  0  0  0  0  0
  4 12  1  0  0  0  0
  4 13  1  0  0  0  0
  5 14  1  0  0  0  0
  6 14  1  0  0  0  0
  7 16  1  6  0  0  0
  7  2  1  0  0  0  0
  9  8  2  0  0  0  0
 10 40  1  0  0  0  0
 10 22  1  0  0  0  0
 11 27  1  0  0  0  0
 12  3  1  0  0  0  0
 13 34  1  0  0  0  0
 13 35  1  0  0  0  0
 14 36  1  0  0  0  0
 15  8  1  0  0  0  0
 15  6  1  0  0  0  0
 17 11  1  6  0  0  0
 17  7  1  0  0  0  0
 17  2  1  0  0  0  0
 17 18  1  0  0  0  0
 18 19  1  0  0  0  0
 18  1  1  0  0  0  0
 19 20  2  0  0  0  0
 19 26  1  0  0  0  0
 20 23  1  0  0  0  0
 21 30  1  0  0  0  0
 21 22  1  0  0  0  0
 21 20  1  0  0  0  0
 22 41  1  0  0  0  0
 23 24  2  0  0  0  0
 24 43  1  0  0  0  0
 25 24  1  0  0  0  0
 25 44  1  0  0  0  0
 26 25  2  0  0  0  0
 27 48  1  0  0  0  0
 31 11  1  0  0  0  0
 32  4  1  0  0  0  0
 33  3  1  0  0  0  0
 37  5  1  0  0  0  0
 42 23  1  0  0  0  0
 45 26  1  0  0  0  0
 46 27  1  0  0  0  0
 47 27  1  0  0  0  0
M  END
>  <Pose>
1

>  <Score>
-6.60

$$$$
