
 OpenBabel03202210083D

 44 47  0  0  1  0  0  0  0  0999 V2000
   54.1070   84.8120   26.7890 B   0  0  0  0  0  0  0  0  0  0  0  0
   54.1370   85.1460   24.9040 C   0  0  0  0  0  0  0  0  0  0  0  0
   54.6710   86.3060   24.3820 C   0  0  0  0  0  0  0  0  0  0  0  0
   54.7000   86.5570   23.0200 C   0  0  0  0  0  0  0  0  0  0  0  0
   54.1640   85.5850   22.2050 C   0  0  0  0  0  0  0  0  0  0  0  0
   53.6210   84.4150   22.6890 C   0  0  0  0  0  0  0  0  0  0  0  0
   53.6010   84.1790   24.0540 C   0  0  0  0  0  0  0  0  0  0  0  0
   52.8940   83.1060   21.5010 B   0  0  0  0  0  0  0  0  0  0  0  0
   55.3170   87.8450   22.7390 C   0  0  0  0  0  0  0  0  0  0  0  0
   55.5300   88.4320   21.6220 N   0  0  0  0  0  0  0  0  0  0  0  0
   56.1440   89.6850   21.5300 N   0  0  0  0  0  0  0  0  0  0  0  0
   55.4210   90.7350   20.9220 C   0  0  0  0  0  0  0  0  0  0  0  0
   55.3580   90.8230   19.6780 O   0  0  0  0  0  0  0  0  0  0  0  0
   54.7050   91.7810   21.7190 C   0  0  0  0  0  0  0  0  0  0  0  0
   55.5660   92.4000   22.6890 N   0  0  0  0  0  0  0  0  0  0  0  0
   55.1200   93.4110   23.5830 C   0  0  0  0  0  0  0  0  0  0  0  0
   54.0430   93.9940   23.3300 O   0  0  0  0  0  0  0  0  0  0  0  0
   55.8700   93.8170   24.8090 C   0  0  2  0  0  0  0  0  0  0  0  0
   55.0120   94.1300   25.8660 O   0  0  0  0  0  0  0  0  0  0  0  0
   54.8050   95.4120   26.3710 C   0  0  0  0  0  0  0  0  0  0  0  0
   55.7510   96.3570   26.0740 C   0  0  0  0  0  0  0  0  0  0  0  0
   55.5710   97.6490   26.5680 C   0  0  0  0  0  0  0  0  0  0  0  0
   54.4850   98.0010   27.3360 C   0  0  0  0  0  0  0  0  0  0  0  0
   53.5510   97.0220   27.6150 C   0  0  0  0  0  0  0  0  0  0  0  0
   53.7240   95.7460   27.1310 C   0  0  0  0  0  0  0  0  0  0  0  0
   56.8350   96.0170   25.3120 O   0  0  0  0  0  0  0  0  0  0  0  0
   56.9010   94.8550   24.5320 C   0  0  0  0  0  0  0  0  0  0  0  0
   55.6850   88.4010   24.0450 C   0  0  0  0  0  0  0  0  0  0  0  0
   56.2480   89.5180   24.2000 O   0  0  0  0  0  0  0  0  0  0  0  0
   55.2750   87.4390   24.9960 N   0  0  0  0  0  0  0  0  0  0  0  0
   54.1630   85.7350   21.1390 H   0  0  0  0  0  0  0  0  0  0  0  0
   53.1870   83.2800   24.4500 H   0  0  0  0  0  0  0  0  0  0  0  0
   57.1080   89.7760   21.9150 H   0  0  0  0  0  0  0  0  0  0  0  0
   54.3910   92.5530   20.9830 H   0  0  0  0  0  0  0  0  0  0  0  0
   53.7760   91.3720   22.1740 H   0  0  0  0  0  0  0  0  0  0  0  0
   56.5720   92.1250   22.7770 H   0  0  0  0  0  0  0  0  0  0  0  0
   56.4060   92.8740   25.1250 H   0  0  0  0  0  0  0  0  0  0  0  0
   56.3320   98.3780   26.3200 H   0  0  0  0  0  0  0  0  0  0  0  0
   54.3830   99.0130   27.6980 H   0  0  0  0  0  0  0  0  0  0  0  0
   52.6820   97.3110   28.2310 H   0  0  0  0  0  0  0  0  0  0  0  0
   52.9790   94.9980   27.3660 H   0  0  0  0  0  0  0  0  0  0  0  0
   57.9400   94.4160   24.6420 H   0  0  0  0  0  0  0  0  0  0  0  0
   56.8260   95.1730   23.4660 H   0  0  0  0  0  0  0  0  0  0  0  0
   55.3980   87.5430   26.0180 H   0  0  0  0  0  0  0  0  0  0  0  0
  2  1  1  0  0  0  0
  3  2  1  0  0  0  0
  3 30  1  0  0  0  0
  4  3  2  0  0  0  0
  5  6  2  0  0  0  0
  5  4  1  0  0  0  0
  6  7  1  0  0  0  0
  7 32  1  0  0  0  0
  7  2  2  0  0  0  0
  8  6  1  0  0  0  0
  9  4  1  0  0  0  0
  9 28  1  0  0  0  0
 10  9  2  0  0  0  0
 11 10  1  0  0  0  0
 11 33  1  0  0  0  0
 12 11  1  0  0  0  0
 12 14  1  0  0  0  0
 13 12  2  0  0  0  0
 14 35  1  0  0  0  0
 14 15  1  0  0  0  0
 15 36  1  0  0  0  0
 15 16  1  0  0  0  0
 16 18  1  0  0  0  0
 17 16  2  0  0  0  0
 18 37  1  1  0  0  0
 18 19  1  0  0  0  0
 19 20  1  0  0  0  0
 20 25  1  0  0  0  0
 21 20  2  0  0  0  0
 21 22  1  0  0  0  0
 22 23  2  0  0  0  0
 23 24  1  0  0  0  0
 23 39  1  0  0  0  0
 24 40  1  0  0  0  0
 25 41  1  0  0  0  0
 25 24  2  0  0  0  0
 26 21  1  0  0  0  0
 27 42  1  0  0  0  0
 27 18  1  0  0  0  0
 27 26  1  0  0  0  0
 28 29  2  0  0  0  0
 28 30  1  0  0  0  0
 30 44  1  0  0  0  0
 31  5  1  0  0  0  0
 34 14  1  0  0  0  0
 38 22  1  0  0  0  0
 43 27  1  0  0  0  0
M  END
>  <Pose>
1

>  <Score>
-8.62

$$$$
