
 OpenBabel03202210083D

 31 34  0  0  0  0  0  0  0  0999 V2000
   57.7340   97.7370   25.1300 B   0  0  0  0  0  0  0  0  0  0  0  0
   56.1180   96.9610   25.8210 C   0  0  0  0  0  0  0  0  0  0  0  0
   55.8180   95.6710   25.4370 C   0  0  0  0  0  0  0  0  0  0  0  0
   54.6630   95.1150   25.9310 C   0  0  0  0  0  0  0  0  0  0  0  0
   53.8370   95.8450   26.7870 C   0  0  0  0  0  0  0  0  0  0  0  0
   54.1270   97.1320   27.1760 C   0  0  0  0  0  0  0  0  0  0  0  0
   55.3050   97.6880   26.6670 C   0  0  0  0  0  0  0  0  0  0  0  0
   53.2680   97.9310   28.0870 C   0  0  0  0  0  0  0  0  0  0  0  0
   52.3870   98.7650   27.3070 N   0  0  0  0  0  0  0  0  0  0  0  0
   51.0280   98.9280   27.7530 C   0  0  0  0  0  0  0  0  0  0  0  0
   50.3090   97.8800   28.1790 N   0  0  0  0  0  0  0  0  0  0  0  0
   49.0400   98.0420   28.5940 C   0  0  0  0  0  0  0  0  0  0  0  0
   48.4330   99.2940   28.5940 C   0  0  0  0  0  0  0  0  0  0  0  0
   49.1540  100.3310   28.1690 N   0  0  0  0  0  0  0  0  0  0  0  0
   50.4360  100.1720   27.7490 C   0  0  0  0  0  0  0  0  0  0  0  0
   50.8990  101.3780   27.3850 N   0  0  0  0  0  0  0  0  0  0  0  0
   49.9580  102.2910   27.5590 N   0  0  0  0  0  0  0  0  0  0  0  0
   48.8920  101.6440   28.0390 C   0  0  0  0  0  0  0  0  0  0  0  0
   54.5910   93.8260   25.4010 O   0  0  0  0  0  0  0  0  0  0  0  0
   55.3960   93.8110   24.2130 C   0  0  0  0  0  0  0  0  0  0  0  0
   56.4320   94.7170   24.6180 O   0  0  0  0  0  0  0  0  0  0  0  0
   52.9450   95.3740   27.1450 H   0  0  0  0  0  0  0  0  0  0  0  0
   55.5900   98.6920   26.9330 H   0  0  0  0  0  0  0  0  0  0  0  0
   53.9300   98.6210   28.6780 H   0  0  0  0  0  0  0  0  0  0  0  0
   52.7140   97.2890   28.8030 H   0  0  0  0  0  0  0  0  0  0  0  0
   52.7030   99.2430   26.4460 H   0  0  0  0  0  0  0  0  0  0  0  0
   48.4410   97.2180   28.9420 H   0  0  0  0  0  0  0  0  0  0  0  0
   47.4210   99.4180   28.9260 H   0  0  0  0  0  0  0  0  0  0  0  0
   47.9560  102.1460   28.2800 H   0  0  0  0  0  0  0  0  0  0  0  0
   55.7750   92.8180   23.9770 H   0  0  0  0  0  0  0  0  0  0  0  0
   54.8340   94.3040   23.3960 H   0  0  0  0  0  0  0  0  0  0  0  0
  1  2  1  0  0  0  0
  2  7  1  0  0  0  0
  3  2  2  0  0  0  0
  3  4  1  0  0  0  0
  4  5  2  0  0  0  0
  5 22  1  0  0  0  0
  5  6  1  0  0  0  0
  6  8  1  0  0  0  0
  7 23  1  0  0  0  0
  7  6  2  0  0  0  0
  8 24  1  0  0  0  0
  8 25  1  0  0  0  0
  9 10  1  0  0  0  0
  9  8  1  0  0  0  0
 10 11  2  0  0  0  0
 11 12  1  0  0  0  0
 12 27  1  0  0  0  0
 13 12  2  0  0  0  0
 13 28  1  0  0  0  0
 14 13  1  0  0  0  0
 15 10  1  0  0  0  0
 15 14  1  0  0  0  0
 16 17  1  0  0  0  0
 16 15  2  0  0  0  0
 17 18  2  0  0  0  0
 18 14  1  0  0  0  0
 18 29  1  0  0  0  0
 19  4  1  0  0  0  0
 20 21  1  0  0  0  0
 20 19  1  0  0  0  0
 21  3  1  0  0  0  0
 26  9  1  0  0  0  0
 30 20  1  0  0  0  0
 31 20  1  0  0  0  0
M  END
>  <Pose>
1

>  <Score>
-7.13

$$$$
