
 OpenBabel03202210083D

 56 59  0  0  1  0  0  0  0  0999 V2000
   51.9820   88.0250   18.5110 B   0  0  0  0  0  0  0  0  0  0  0  0
   53.1740   86.9940   19.5760 C   0  0  0  0  0  0  0  0  0  0  0  0
   53.1710   85.6180   19.4550 C   0  0  0  0  0  0  0  0  0  0  0  0
   54.0250   84.8450   20.2150 C   0  0  0  0  0  0  0  0  0  0  0  0
   54.8660   85.5080   21.0860 C   0  0  0  0  0  0  0  0  0  0  0  0
   54.8620   86.8840   21.2000 C   0  0  0  0  0  0  0  0  0  0  0  0
   54.0110   87.6660   20.4450 C   0  0  0  0  0  0  0  0  0  0  0  0
   53.9980   89.0550   20.5520 O   0  0  0  0  0  0  0  0  0  0  0  0
   55.1490   89.6840   21.0830 C   0  0  0  0  0  0  0  0  0  0  0  0
   54.9340   91.1580   21.3130 C   0  0  2  0  0  0  0  0  0  0  0  0
   55.2000   91.9210   20.2060 O   0  0  0  0  0  0  0  0  0  0  0  0
   55.6820   91.6220   22.5150 C   0  0  0  0  0  0  0  0  0  0  0  0
   54.8540   92.2740   23.5050 N   0  0  0  0  0  4  0  0  0  0  0  0
   54.7960   93.6800   23.1450 C   0  0  0  0  0  0  0  0  0  0  0  0
   54.1580   94.5310   24.2530 C   0  0  0  0  0  0  0  0  0  0  0  0
   54.8990   94.3520   25.4500 N   0  0  0  0  0  0  0  0  0  0  0  0
   56.0100   93.3820   25.3520 C   0  0  0  0  0  0  0  0  0  0  0  0
   55.4690   92.1000   24.8120 C   0  0  0  0  0  0  0  0  0  0  0  0
   54.6510   95.0090   26.6600 C   0  0  0  0  0  0  0  0  0  0  0  0
   55.2890   94.4700   27.6860 O   0  0  0  0  0  0  0  0  0  0  0  0
   53.8450   96.1400   26.9930 C   0  0  0  0  0  0  0  0  0  0  0  0
   52.5100   96.1380   27.2800 C   0  0  0  0  0  0  0  0  0  0  0  0
   51.7840   97.2770   27.5960 C   0  0  0  0  0  0  0  0  0  0  0  0
   52.3980   98.4880   27.6340 C   0  0  0  0  0  0  0  0  0  0  0  0
   53.7470   98.5240   27.3490 C   0  0  0  0  0  0  0  0  0  0  0  0
   54.4650   97.3970   27.0350 C   0  0  0  0  0  0  0  0  0  0  0  0
   54.0220   83.4660   20.0930 C   0  0  0  0  0  0  0  0  0  0  0  0
   53.1820   82.8020   19.2220 C   0  0  0  0  0  0  0  0  0  0  0  0
   52.3270   83.5750   18.4610 C   0  0  0  0  0  0  0  0  0  0  0  0
   52.3290   84.9510   18.5830 C   0  0  0  0  0  0  0  0  0  0  0  0
   55.5390   84.9080   21.6860 H   0  0  0  0  0  0  0  0  0  0  0  0
   55.5270   87.4020   21.8890 H   0  0  0  0  0  0  0  0  0  0  0  0
   55.3700   89.1950   22.0530 H   0  0  0  0  0  0  0  0  0  0  0  0
   55.9860   89.4980   20.3750 H   0  0  0  0  0  0  0  0  0  0  0  0
   53.8380   91.2730   21.5570 H   0  0  0  0  0  0  0  0  0  0  0  0
   56.1090   91.8490   19.8630 H   0  0  0  0  0  0  0  0  0  0  0  0
   56.4330   92.3870   22.1810 H   0  0  0  0  0  0  0  0  0  0  0  0
   56.1880   90.7800   23.0190 H   0  0  0  0  0  0  0  0  0  0  0  0
   53.8760   91.9160   23.5370 H   0  0  0  0  0  0  0  0  0  0  0  0
   55.7890   94.0500   22.8450 H   0  0  0  0  0  0  0  0  0  0  0  0
   54.1120   93.7600   22.2740 H   0  0  0  0  0  0  0  0  0  0  0  0
   54.2680   95.5740   23.9040 H   0  0  0  0  0  0  0  0  0  0  0  0
   53.0860   94.2670   24.2990 H   0  0  0  0  0  0  0  0  0  0  0  0
   56.7210   93.8130   24.6250 H   0  0  0  0  0  0  0  0  0  0  0  0
   56.4700   93.2190   26.3230 H   0  0  0  0  0  0  0  0  0  0  0  0
   54.7560   91.6700   25.5430 H   0  0  0  0  0  0  0  0  0  0  0  0
   56.3240   91.3800   24.7510 H   0  0  0  0  0  0  0  0  0  0  0  0
   51.9480   95.2380   27.2750 H   0  0  0  0  0  0  0  0  0  0  0  0
   50.7210   97.2070   27.8160 H   0  0  0  0  0  0  0  0  0  0  0  0
   51.8650   99.3960   27.8760 H   0  0  0  0  0  0  0  0  0  0  0  0
   54.2350   99.4900   27.3790 H   0  0  0  0  0  0  0  0  0  0  0  0
   55.5150   97.5420   26.8300 H   0  0  0  0  0  0  0  0  0  0  0  0
   54.6910   82.8590   20.6870 H   0  0  0  0  0  0  0  0  0  0  0  0
   53.2040   81.7210   19.1500 H   0  0  0  0  0  0  0  0  0  0  0  0
   51.6680   83.0450   17.7770 H   0  0  0  0  0  0  0  0  0  0  0  0
   51.6580   85.5560   17.9850 H   0  0  0  0  0  0  0  0  0  0  0  0
  1  2  1  0  0  0  0
  2  7  1  0  0  0  0
  3  2  2  0  0  0  0
  3  4  1  0  0  0  0
  4  5  2  0  0  0  0
  5  6  1  0  0  0  0
  5 31  1  0  0  0  0
  6 32  1  0  0  0  0
  7  8  1  0  0  0  0
  7  6  2  0  0  0  0
  8  9  1  0  0  0  0
  9 10  1  0  0  0  0
  9 33  1  0  0  0  0
 10 35  1  1  0  0  0
 10 12  1  0  0  0  0
 11 10  1  0  0  0  0
 12 38  1  0  0  0  0
 12 13  1  0  0  0  0
 13 39  1  0  0  0  0
 13 18  1  0  0  0  0
 14 13  1  0  0  0  0
 14 15  1  0  0  0  0
 15 43  1  0  0  0  0
 15 16  1  0  0  0  0
 16 19  1  0  0  0  0
 17 16  1  0  0  0  0
 17 45  1  0  0  0  0
 18 17  1  0  0  0  0
 18 46  1  0  0  0  0
 19 21  1  0  0  0  0
 19 20  2  0  0  0  0
 21 26  2  0  0  0  0
 21 22  1  0  0  0  0
 22 23  2  0  0  0  0
 23 24  1  0  0  0  0
 23 49  1  0  0  0  0
 24 50  1  0  0  0  0
 25 51  1  0  0  0  0
 25 24  2  0  0  0  0
 26 25  1  0  0  0  0
 27  4  1  0  0  0  0
 27 53  1  0  0  0  0
 28 27  2  0  0  0  0
 29 30  2  0  0  0  0
 29 28  1  0  0  0  0
 30  3  1  0  0  0  0
 34  9  1  0  0  0  0
 36 11  1  0  0  0  0
 37 12  1  0  0  0  0
 40 14  1  0  0  0  0
 41 14  1  0  0  0  0
 42 15  1  0  0  0  0
 44 17  1  0  0  0  0
 47 18  1  0  0  0  0
 48 22  1  0  0  0  0
 52 26  1  0  0  0  0
 54 28  1  0  0  0  0
 55 29  1  0  0  0  0
 56 30  1  0  0  0  0
M  END
>  <Pose>
1

>  <Score>
-6.86

$$$$
