
 OpenBabel03202210083D

 46 49  0  0  0  0  0  0  0  0999 V2000
   54.5650   92.0740   20.9920 B   0  0  0  0  0  0  0  0  0  0  0  0
   55.3220   90.6800   22.0890 C   0  0  0  0  0  0  0  0  0  0  0  0
   55.3690   90.6410   23.4340 N   0  0  0  0  0  0  0  0  0  0  0  0
   55.9720   89.5090   23.8280 C   0  0  0  0  0  0  0  0  0  0  0  0
   56.3170   88.8100   22.6880 C   0  0  0  0  0  0  0  0  0  0  0  0
   55.9070   89.5520   21.6510 N   0  0  0  0  0  0  0  0  0  0  0  0
   56.9410   87.6220   22.8190 N   0  0  0  0  0  0  0  0  0  0  0  0
   57.2420   87.0840   24.0220 C   0  0  0  0  0  0  0  0  0  0  0  0
   57.8290   85.9640   24.1020 O   0  0  0  0  0  0  0  0  0  0  0  0
   56.9200   87.7370   25.1530 N   0  0  0  0  0  0  0  0  0  0  0  0
   56.2980   88.9220   25.0330 C   0  0  0  0  0  0  0  0  0  0  0  0
   55.9930   89.5360   26.0760 O   0  0  0  0  0  0  0  0  0  0  0  0
   57.2530   87.1390   26.4320 C   0  0  0  0  0  0  0  0  0  0  0  0
   57.2990   86.8960   21.6180 C   0  0  0  0  0  0  0  0  0  0  0  0
   54.8340   91.6710   24.2600 C   0  0  0  0  0  0  0  0  0  0  0  0
   55.1930   93.0710   23.9210 C   0  0  0  0  0  0  0  0  0  0  0  0
   54.6900   94.1020   24.7660 N   0  0  0  0  0  0  0  0  0  0  0  0
   55.3510   95.2380   25.1020 C   0  0  0  0  0  0  0  0  0  0  0  0
   54.5630   95.9930   25.9350 C   0  0  0  0  0  0  0  0  0  0  0  0
   53.4300   95.2870   26.0820 N   0  0  0  0  0  0  0  0  0  0  0  0
   53.5040   94.1480   25.3800 C   0  0  0  0  0  0  0  0  0  0  0  0
   52.1650   92.7680   25.2420 B   0  0  0  0  0  0  0  0  0  0  0  0
   54.9520   97.1930   26.4440 N   0  0  0  0  0  0  0  0  0  0  0  0
   56.1750   97.6300   26.0930 C   0  0  0  0  0  0  0  0  0  0  0  0
   56.5480   98.7420   26.5580 O   0  0  0  0  0  0  0  0  0  0  0  0
   56.9890   96.9340   25.2810 N   0  0  0  0  0  0  0  0  0  0  0  0
   56.5990   95.7590   24.7880 C   0  0  0  0  0  0  0  0  0  0  0  0
   57.3140   95.0570   24.0230 O   0  0  0  0  0  0  0  0  0  0  0  0
   58.2970   97.4500   24.9340 C   0  0  0  0  0  0  0  0  0  0  0  0
   54.0880   97.9670   27.3250 C   0  0  0  0  0  0  0  0  0  0  0  0
   57.2690   87.9060   27.2280 H   0  0  0  0  0  0  0  0  0  0  0  0
   56.5150   86.3650   26.7430 H   0  0  0  0  0  0  0  0  0  0  0  0
   58.2520   86.6650   26.3240 H   0  0  0  0  0  0  0  0  0  0  0  0
   58.2970   86.4150   21.8010 H   0  0  0  0  0  0  0  0  0  0  0  0
   57.4060   87.5800   20.7720 H   0  0  0  0  0  0  0  0  0  0  0  0
   56.5590   86.0840   21.4400 H   0  0  0  0  0  0  0  0  0  0  0  0
   53.7030   91.6470   24.3030 H   0  0  0  0  0  0  0  0  0  0  0  0
   55.1250   91.4150   25.3200 H   0  0  0  0  0  0  0  0  0  0  0  0
   54.8710   93.2420   22.8610 H   0  0  0  0  0  0  0  0  0  0  0  0
   56.3200   93.1960   23.8540 H   0  0  0  0  0  0  0  0  0  0  0  0
   58.9820   96.6480   24.5910 H   0  0  0  0  0  0  0  0  0  0  0  0
   58.2440   98.1900   24.0860 H   0  0  0  0  0  0  0  0  0  0  0  0
   58.8030   97.9130   25.8190 H   0  0  0  0  0  0  0  0  0  0  0  0
   53.0260   97.9300   27.0050 H   0  0  0  0  0  0  0  0  0  0  0  0
   54.2160   97.6570   28.3850 H   0  0  0  0  0  0  0  0  0  0  0  0
   54.3980   99.0290   27.2220 H   0  0  0  0  0  0  0  0  0  0  0  0
  1  2  1  0  0  0  0
  2  3  1  0  0  0  0
  3  4  1  0  0  0  0
  3 15  1  0  0  0  0
  4 11  1  0  0  0  0
  5  7  1  0  0  0  0
  5  4  2  0  0  0  0
  6  2  2  0  0  0  0
  6  5  1  0  0  0  0
  7  8  1  0  0  0  0
  8  9  2  0  0  0  0
  8 10  1  0  0  0  0
 10 13  1  0  0  0  0
 11 10  1  0  0  0  0
 11 12  2  0  0  0  0
 13 32  1  0  0  0  0
 13 31  1  0  0  0  0
 14 34  1  0  0  0  0
 14  7  1  0  0  0  0
 15 37  1  0  0  0  0
 15 38  1  0  0  0  0
 16 15  1  0  0  0  0
 16 17  1  0  0  0  0
 17 18  1  0  0  0  0
 17 21  1  0  0  0  0
 18 19  2  0  0  0  0
 19 20  1  0  0  0  0
 19 23  1  0  0  0  0
 21 20  2  0  0  0  0
 22 21  1  0  0  0  0
 23 30  1  0  0  0  0
 24 23  1  0  0  0  0
 24 25  2  0  0  0  0
 26 24  1  0  0  0  0
 27 18  1  0  0  0  0
 27 26  1  0  0  0  0
 28 27  2  0  0  0  0
 29 26  1  0  0  0  0
 29 43  1  0  0  0  0
 30 45  1  0  0  0  0
 33 13  1  0  0  0  0
 35 14  1  0  0  0  0
 36 14  1  0  0  0  0
 39 16  1  0  0  0  0
 40 16  1  0  0  0  0
 41 29  1  0  0  0  0
 42 29  1  0  0  0  0
 44 30  1  0  0  0  0
 46 30  1  0  0  0  0
M  END
>  <Pose>
1

>  <Score>
-7.05

$$$$
