
 OpenBabel03202210083D

 43 46  0  0  0  0  0  0  0  0999 V2000
   52.2040   99.6740   24.5620 B   0  0  0  0  0  0  0  0  0  0  0  0
   51.3680  100.2770   26.1620 C   0  0  0  0  0  0  0  0  0  0  0  0
   51.3420   99.5350   27.3110 N   0  0  0  0  0  0  0  0  0  0  0  0
   50.6700  100.2980   28.1960 C   0  0  0  0  0  0  0  0  0  0  0  0
   50.2790  101.4960   27.6200 C   0  0  0  0  0  0  0  0  0  0  0  0
   50.7340  101.4440   26.3500 N   0  0  0  0  0  0  0  0  0  0  0  0
   49.5980  102.4580   28.2650 N   0  0  0  0  0  0  0  0  0  0  0  0
   49.2910  102.2170   29.5520 C   0  0  0  0  0  0  0  0  0  0  0  0
   48.6430  103.1010   30.2090 O   0  0  0  0  0  0  0  0  0  0  0  0
   49.6520  101.0680   30.1520 N   0  0  0  0  0  0  0  0  0  0  0  0
   50.3430  100.0910   29.5010 C   0  0  0  0  0  0  0  0  0  0  0  0
   50.6720   99.0310   30.0720 O   0  0  0  0  0  0  0  0  0  0  0  0
   49.1920  103.7060   27.6550 C   0  0  0  0  0  0  0  0  0  0  0  0
   51.9470   98.2280   27.4650 C   0  0  0  0  0  0  0  0  0  0  0  0
   53.1840   98.0300   26.6390 C   0  0  0  0  0  0  0  0  0  0  0  0
   54.2930   97.2960   27.3370 C   0  0  0  0  0  0  0  0  0  0  0  0
   55.1420   96.6280   26.3600 N   0  0  0  0  0  0  0  0  0  0  0  0
   54.8700   95.5270   25.6240 C   0  0  0  0  0  0  0  0  0  0  0  0
   55.9390   95.2180   24.8150 C   0  0  0  0  0  0  0  0  0  0  0  0
   56.8710   96.1540   25.0740 N   0  0  0  0  0  0  0  0  0  0  0  0
   56.3830   97.0000   26.0070 C   0  0  0  0  0  0  0  0  0  0  0  0
   57.2720   98.5170   26.7510 B   0  0  0  0  0  0  0  0  0  0  0  0
   55.9570   94.1700   23.9700 N   0  0  0  0  0  0  0  0  0  0  0  0
   54.8420   93.3990   23.9390 C   0  0  0  0  0  0  0  0  0  0  0  0
   54.8550   92.4110   23.1430 O   0  0  0  0  0  0  0  0  0  0  0  0
   53.7710   93.6670   24.7160 N   0  0  0  0  0  0  0  0  0  0  0  0
   53.7640   94.7200   25.5590 C   0  0  0  0  0  0  0  0  0  0  0  0
   52.7850   94.9960   26.2940 O   0  0  0  0  0  0  0  0  0  0  0  0
   57.1160   93.8800   23.1300 C   0  0  0  0  0  0  0  0  0  0  0  0
   49.4220  100.8660   31.1480 H   0  0  0  0  0  0  0  0  0  0  0  0
   49.2520  103.6560   26.5470 H   0  0  0  0  0  0  0  0  0  0  0  0
   48.0970  103.8560   27.8760 H   0  0  0  0  0  0  0  0  0  0  0  0
   49.8020  104.5680   27.9920 H   0  0  0  0  0  0  0  0  0  0  0  0
   51.1880   97.4340   27.2910 H   0  0  0  0  0  0  0  0  0  0  0  0
   52.2840   98.1620   28.5400 H   0  0  0  0  0  0  0  0  0  0  0  0
   53.5440   98.9860   26.1960 H   0  0  0  0  0  0  0  0  0  0  0  0
   52.9020   97.3920   25.7480 H   0  0  0  0  0  0  0  0  0  0  0  0
   54.9670   98.0560   27.8320 H   0  0  0  0  0  0  0  0  0  0  0  0
   53.9210   96.5830   28.0720 H   0  0  0  0  0  0  0  0  0  0  0  0
   52.9450   93.0410   24.6490 H   0  0  0  0  0  0  0  0  0  0  0  0
   57.2780   94.6840   22.3810 H   0  0  0  0  0  0  0  0  0  0  0  0
   58.0410   93.7920   23.7320 H   0  0  0  0  0  0  0  0  0  0  0  0
   56.8880   92.9550   22.5780 H   0  0  0  0  0  0  0  0  0  0  0  0
  1  2  1  0  0  0  0
  2  6  2  0  0  0  0
  2  3  1  0  0  0  0
  3 14  1  0  0  0  0
  3  4  1  0  0  0  0
  4 11  1  0  0  0  0
  5  4  2  0  0  0  0
  5  7  1  0  0  0  0
  6  5  1  0  0  0  0
  7  8  1  0  0  0  0
  8 10  1  0  0  0  0
  8  9  2  0  0  0  0
 10 30  1  0  0  0  0
 11 12  2  0  0  0  0
 11 10  1  0  0  0  0
 13 32  1  0  0  0  0
 13 33  1  0  0  0  0
 13  7  1  0  0  0  0
 14 35  1  0  0  0  0
 15 16  1  0  0  0  0
 15 14  1  0  0  0  0
 16 38  1  0  0  0  0
 16 39  1  0  0  0  0
 17 16  1  0  0  0  0
 18 17  1  0  0  0  0
 19 20  1  0  0  0  0
 19 18  2  0  0  0  0
 20 21  2  0  0  0  0
 21 17  1  0  0  0  0
 21 22  1  0  0  0  0
 23 19  1  0  0  0  0
 24 23  1  0  0  0  0
 24 26  1  0  0  0  0
 25 24  2  0  0  0  0
 26 27  1  0  0  0  0
 27 18  1  0  0  0  0
 27 28  2  0  0  0  0
 29 42  1  0  0  0  0
 29 23  1  0  0  0  0
 31 13  1  0  0  0  0
 34 14  1  0  0  0  0
 36 15  1  0  0  0  0
 37 15  1  0  0  0  0
 40 26  1  0  0  0  0
 41 29  1  0  0  0  0
 43 29  1  0  0  0  0
M  END
>  <Pose>
1

>  <Score>
-7.39

$$$$
