
 OpenBabel03202210083D

 50 54  0  0  1  0  0  0  0  0999 V2000
   56.2850   85.6310   25.3070 B   0  0  0  0  0  0  0  0  0  0  0  0
   56.5180   86.5600   23.6460 C   0  0  0  0  0  0  0  0  0  0  0  0
   56.1060   87.8020   23.3330 N   0  0  0  0  0  0  0  0  0  0  0  0
   56.4470   88.1110   22.0890 N   0  0  0  0  0  0  0  0  0  0  0  0
   57.0900   87.0280   21.6140 C   0  0  0  0  0  0  0  0  0  0  0  0
   57.1440   86.0700   22.5520 N   0  0  0  0  0  0  0  0  0  0  0  0
   56.1820   89.3610   21.3780 C   0  0  2  0  0  0  0  0  0  0  0  0
   55.5080   90.3360   22.3170 C   0  0  0  0  0  0  0  0  0  0  0  0
   55.4300   91.6850   21.6650 C   0  0  2  0  0  0  0  0  0  0  0  0
   54.4800   91.5270   20.4700 C   0  0  0  0  0  0  0  0  0  0  0  0
   55.0420   90.4800   19.5420 C   0  0  2  0  0  0  0  0  0  0  0  0
   55.2400   89.1450   20.2130 C   0  0  0  0  0  0  0  0  0  0  0  0
   56.3390   90.9780   18.9890 C   0  0  0  0  0  0  0  0  0  0  0  0
   57.3030   91.1850   20.1370 C   0  0  2  0  0  0  0  0  0  0  0  0
   57.4780   89.8800   20.8380 C   0  0  0  0  0  0  0  0  0  0  0  0
   56.7280   92.1810   21.1190 C   0  0  0  0  0  0  0  0  0  0  0  0
   54.8730   92.7000   22.5830 C   0  0  0  0  0  0  0  0  0  0  0  0
   53.8370   93.3160   22.2240 O   0  0  0  0  0  0  0  0  0  0  0  0
   55.4910   92.9730   23.8370 N   0  0  0  0  0  0  0  0  0  0  0  0
   55.0750   93.9810   24.7470 C   0  0  0  0  0  0  0  0  0  0  0  0
   55.8060   95.0940   25.0540 C   0  0  0  0  0  0  0  0  0  0  0  0
   55.0850   95.8100   25.9500 N   0  0  0  0  0  0  0  0  0  0  0  0
   53.9590   95.1740   26.1920 N   0  0  0  0  0  0  0  0  0  0  0  0
   53.9070   94.0450   25.4770 C   0  0  0  0  0  0  0  0  0  0  0  0
   55.4440   97.0720   26.5720 C   0  0  0  0  0  0  0  0  0  0  0  0
   57.1020   95.5420   24.5880 C   0  0  0  0  0  0  0  0  0  0  0  0
   57.7530   94.8830   23.7390 O   0  0  0  0  0  0  0  0  0  0  0  0
   57.7280   96.7350   25.0420 N   0  0  0  0  0  0  0  0  0  0  0  0
   57.5040   86.9410   20.6210 H   0  0  0  0  0  0  0  0  0  0  0  0
   54.4440   89.9710   22.4190 H   0  0  0  0  0  0  0  0  0  0  0  0
   55.9260   90.3420   23.3230 H   0  0  0  0  0  0  0  0  0  0  0  0
   54.3850   92.4630   19.9120 H   0  0  0  0  0  0  0  0  0  0  0  0
   53.4810   91.1980   20.7810 H   0  0  0  0  0  0  0  0  0  0  0  0
   54.3330   90.3330   18.7070 H   0  0  0  0  0  0  0  0  0  0  0  0
   54.2840   88.6850   20.5140 H   0  0  0  0  0  0  0  0  0  0  0  0
   55.7150   88.4740   19.4810 H   0  0  0  0  0  0  0  0  0  0  0  0
   56.1780   91.9200   18.4120 H   0  0  0  0  0  0  0  0  0  0  0  0
   56.7690   90.2500   18.2800 H   0  0  0  0  0  0  0  0  0  0  0  0
   58.2830   91.5560   19.8050 H   0  0  0  0  0  0  0  0  0  0  0  0
   57.8790   89.1390   20.1330 H   0  0  0  0  0  0  0  0  0  0  0  0
   58.2060   90.0300   21.6620 H   0  0  0  0  0  0  0  0  0  0  0  0
   57.4420   92.3110   21.9600 H   0  0  0  0  0  0  0  0  0  0  0  0
   56.5330   93.1100   20.5590 H   0  0  0  0  0  0  0  0  0  0  0  0
   56.3050   92.3810   24.0880 H   0  0  0  0  0  0  0  0  0  0  0  0
   53.1010   93.3040   25.4610 H   0  0  0  0  0  0  0  0  0  0  0  0
   54.5370   97.5140   27.0290 H   0  0  0  0  0  0  0  0  0  0  0  0
   55.6980   97.7740   25.7300 H   0  0  0  0  0  0  0  0  0  0  0  0
   56.2680   96.9670   27.3060 H   0  0  0  0  0  0  0  0  0  0  0  0
   57.3370   97.6590   24.6980 H   0  0  0  0  0  0  0  0  0  0  0  0
   58.5420   96.7740   25.6850 H   0  0  0  0  0  0  0  0  0  0  0  0
  2  1  1  0  0  0  0
  3  2  2  0  0  0  0
  4  3  1  0  0  0  0
  5  4  1  0  0  0  0
  5  6  2  0  0  0  0
  6  2  1  0  0  0  0
  7  4  1  1  0  0  0
  7  8  1  0  0  0  0
  8 30  1  0  0  0  0
  8 31  1  0  0  0  0
  9  8  1  0  0  0  0
  9 17  1  1  0  0  0
 10 33  1  0  0  0  0
 10  9  1  0  0  0  0
 11 34  1  6  0  0  0
 11 12  1  0  0  0  0
 11 10  1  0  0  0  0
 12 35  1  0  0  0  0
 12  7  1  0  0  0  0
 13 11  1  0  0  0  0
 13 14  1  0  0  0  0
 14 39  1  6  0  0  0
 14 15  1  0  0  0  0
 14 16  1  0  0  0  0
 15  7  1  0  0  0  0
 15 41  1  0  0  0  0
 16  9  1  0  0  0  0
 16 42  1  0  0  0  0
 17 19  1  0  0  0  0
 18 17  2  0  0  0  0
 19 44  1  0  0  0  0
 19 20  1  0  0  0  0
 20 21  2  0  0  0  0
 20 24  1  0  0  0  0
 21 22  1  0  0  0  0
 22 23  1  0  0  0  0
 22 25  1  0  0  0  0
 24 23  2  0  0  0  0
 25 46  1  0  0  0  0
 25 48  1  0  0  0  0
 26 28  1  0  0  0  0
 26 21  1  0  0  0  0
 27 26  2  0  0  0  0
 28 50  1  0  0  0  0
 29  5  1  0  0  0  0
 32 10  1  0  0  0  0
 36 12  1  0  0  0  0
 37 13  1  0  0  0  0
 38 13  1  0  0  0  0
 40 15  1  0  0  0  0
 43 16  1  0  0  0  0
 45 24  1  0  0  0  0
 47 25  1  0  0  0  0
 49 28  1  0  0  0  0
M  END
>  <Pose>
1

>  <Score>
-7.04

$$$$
