
 OpenBabel03202210083D

 35 38  0  0  0  0  0  0  0  0999 V2000
   51.6720   97.6930   30.2230 B   0  0  0  0  0  0  0  0  0  0  0  0
   50.9020   99.1060   29.2060 C   0  0  0  0  0  0  0  0  0  0  0  0
   49.7020   99.7080   29.4530 N   0  0  0  0  0  0  0  0  0  0  0  0
   49.5130  100.6500   28.5600 N   0  0  0  0  0  0  0  0  0  0  0  0
   50.5560  100.6970   27.7160 C   0  0  0  0  0  0  0  0  0  0  0  0
   50.8620  101.4650   26.6580 N   0  0  0  0  0  0  0  0  0  0  0  0
   51.9980  101.3100   25.9820 C   0  0  0  0  0  0  0  0  0  0  0  0
   52.8640  100.3720   26.3540 N   0  0  0  0  0  0  0  0  0  0  0  0
   52.6510   99.5330   27.4210 C   0  0  0  0  0  0  0  0  0  0  0  0
   51.4750   99.7080   28.1060 C   0  0  0  0  0  0  0  0  0  0  0  0
   53.5710   98.5370   27.7470 N   0  0  0  0  0  0  0  0  0  0  0  0
   53.2900   97.1420   27.4920 C   0  0  0  0  0  0  0  0  0  0  0  0
   54.1820   96.7040   26.3120 C   0  0  0  0  0  0  0  0  0  0  0  0
   55.5000   97.3650   26.4260 C   0  0  0  0  0  0  0  0  0  0  0  0
   56.5920   97.1360   25.6610 N   0  0  0  0  0  0  0  0  0  0  0  0
   57.5750   97.9430   26.0960 C   0  0  0  0  0  0  0  0  0  0  0  0
   57.1450   98.6820   27.1180 N   0  0  0  0  0  0  0  0  0  0  0  0
   55.8580   98.3250   27.3240 C   0  0  0  0  0  0  0  0  0  0  0  0
   54.8670   98.8040   28.3180 C   0  0  0  0  0  0  0  0  0  0  0  0
   56.7360   96.2110   24.5660 C   0  0  0  0  0  0  0  0  0  0  0  0
   48.3640  101.5590   28.4310 C   0  0  0  0  0  0  0  0  0  0  0  0
   52.2120  101.9370   25.1460 H   0  0  0  0  0  0  0  0  0  0  0  0
   52.2560   96.9350   27.1890 H   0  0  0  0  0  0  0  0  0  0  0  0
   53.5270   96.4920   28.3690 H   0  0  0  0  0  0  0  0  0  0  0  0
   53.7140   96.9720   25.3450 H   0  0  0  0  0  0  0  0  0  0  0  0
   54.2340   95.6020   26.3650 H   0  0  0  0  0  0  0  0  0  0  0  0
   58.5980   98.0150   25.6970 H   0  0  0  0  0  0  0  0  0  0  0  0
   55.0110   99.8670   28.5930 H   0  0  0  0  0  0  0  0  0  0  0  0
   54.9980   98.1360   29.2210 H   0  0  0  0  0  0  0  0  0  0  0  0
   57.2890   96.6660   23.7160 H   0  0  0  0  0  0  0  0  0  0  0  0
   57.3490   95.3350   24.8910 H   0  0  0  0  0  0  0  0  0  0  0  0
   55.7410   95.8910   24.1780 H   0  0  0  0  0  0  0  0  0  0  0  0
   48.7170  102.6090   28.4350 H   0  0  0  0  0  0  0  0  0  0  0  0
   47.6520  101.3570   29.2500 H   0  0  0  0  0  0  0  0  0  0  0  0
   47.8310  101.3430   27.4770 H   0  0  0  0  0  0  0  0  0  0  0  0
  2  3  2  0  0  0  0
  2  1  1  0  0  0  0
  4  3  1  0  0  0  0
  5 10  2  0  0  0  0
  5  4  1  0  0  0  0
  6  5  1  0  0  0  0
  7  8  1  0  0  0  0
  7  6  2  0  0  0  0
  8  9  2  0  0  0  0
  9 11  1  0  0  0  0
  9 10  1  0  0  0  0
 10  2  1  0  0  0  0
 11 19  1  0  0  0  0
 12 11  1  0  0  0  0
 12 24  1  0  0  0  0
 13 26  1  0  0  0  0
 13 14  1  0  0  0  0
 13 12  1  0  0  0  0
 14 18  2  0  0  0  0
 15 16  1  0  0  0  0
 15 14  1  0  0  0  0
 16 17  2  0  0  0  0
 17 18  1  0  0  0  0
 18 19  1  0  0  0  0
 19 28  1  0  0  0  0
 19 29  1  0  0  0  0
 20 31  1  0  0  0  0
 20 15  1  0  0  0  0
 21 33  1  0  0  0  0
 21  4  1  0  0  0  0
 21 34  1  0  0  0  0
 22  7  1  0  0  0  0
 23 12  1  0  0  0  0
 25 13  1  0  0  0  0
 27 16  1  0  0  0  0
 30 20  1  0  0  0  0
 32 20  1  0  0  0  0
 35 21  1  0  0  0  0
M  END
>  <Pose>
1

>  <Score>
-5.68

$$$$
