
 OpenBabel03202210083D

 53 56  0  0  1  0  0  0  0  0999 V2000
   53.7170   96.3940   27.2560 B   0  0  0  0  0  0  0  0  0  0  0  0
   55.3530   97.1640   26.6860 C   0  0  0  0  0  0  0  0  0  0  0  0
   55.9150   98.3210   27.0800 N   0  0  0  0  0  0  0  0  0  0  0  0
   57.0430   98.5480   26.4610 N   0  0  0  0  0  0  0  0  0  0  0  0
   57.2570   97.5160   25.6230 C   0  0  0  0  0  0  0  0  0  0  0  0
   58.2370   97.2310   24.7480 N   0  0  0  0  0  0  0  0  0  0  0  0
   58.2300   96.1250   23.9980 C   0  0  0  0  0  0  0  0  0  0  0  0
   57.2210   95.2700   24.1160 N   0  0  0  0  0  0  0  0  0  0  0  0
   56.1880   95.4690   24.9690 C   0  0  0  0  0  0  0  0  0  0  0  0
   56.1980   96.6210   25.7470 C   0  0  0  0  0  0  0  0  0  0  0  0
   55.1570   94.5300   25.0940 N   0  0  0  0  0  0  0  0  0  0  0  0
   55.2860   93.3770   25.9390 C   0  0  0  0  0  0  0  0  0  0  0  0
   55.4350   92.1950   24.9770 C   0  0  0  0  0  0  0  0  0  0  0  0
   54.9320   92.5410   23.6420 N   0  0  0  0  0  0  0  0  0  0  0  0
   53.6680   93.2720   23.7710 C   0  0  0  0  0  0  0  0  0  0  0  0
   53.9210   94.6470   24.3600 C   0  0  0  0  0  0  0  0  0  0  0  0
   54.6620   91.2810   22.9660 C   0  0  2  0  0  0  0  0  0  0  0  0
   55.6190   90.2270   23.5870 C   0  0  0  0  0  0  0  0  0  0  0  0
   54.9480   91.3780   21.5240 C   0  0  0  0  0  0  0  0  0  0  0  0
   55.9860   92.1150   21.2520 O   0  0  0  0  0  0  0  0  0  0  0  0
   54.2570   90.7960   20.4500 N   0  0  0  0  0  0  0  0  0  0  0  0
   54.5090   89.5470   19.7970 C   0  0  0  0  0  0  0  0  0  0  0  0
   54.4670   89.6130   18.2840 C   0  0  0  0  0  0  0  0  0  0  0  0
   53.4610   90.5650   17.7350 C   0  0  0  0  0  0  0  0  0  0  0  0
   53.4460   91.8820   18.4820 C   0  0  0  0  0  0  0  0  0  0  0  0
   53.1030   91.5510   19.9110 C   0  0  0  0  0  0  0  0  0  0  0  0
   57.9630   99.6700   26.5860 C   0  0  0  0  0  0  0  0  0  0  0  0
   59.0580   95.9220   23.2840 H   0  0  0  0  0  0  0  0  0  0  0  0
   54.2620   93.1850   26.3910 H   0  0  0  0  0  0  0  0  0  0  0  0
   56.0820   93.4030   26.6770 H   0  0  0  0  0  0  0  0  0  0  0  0
   56.5200   92.0220   24.8590 H   0  0  0  0  0  0  0  0  0  0  0  0
   54.9900   91.2650   25.3730 H   0  0  0  0  0  0  0  0  0  0  0  0
   53.2740   93.4110   22.7540 H   0  0  0  0  0  0  0  0  0  0  0  0
   52.9570   92.7480   24.4160 H   0  0  0  0  0  0  0  0  0  0  0  0
   53.9020   95.4200   23.6000 H   0  0  0  0  0  0  0  0  0  0  0  0
   53.1210   94.8700   25.1290 H   0  0  0  0  0  0  0  0  0  0  0  0
   53.6310   90.9600   23.1230 H   0  0  0  0  0  0  0  0  0  0  0  0
   56.5360   90.7280   23.9520 H   0  0  0  0  0  0  0  0  0  0  0  0
   55.9300   89.5030   22.8170 H   0  0  0  0  0  0  0  0  0  0  0  0
   55.1120   89.6890   24.3990 H   0  0  0  0  0  0  0  0  0  0  0  0
   53.6520   88.8700   20.1230 H   0  0  0  0  0  0  0  0  0  0  0  0
   55.4240   89.0370   20.0740 H   0  0  0  0  0  0  0  0  0  0  0  0
   54.1700   88.5860   17.9390 H   0  0  0  0  0  0  0  0  0  0  0  0
   55.4730   89.7760   17.8760 H   0  0  0  0  0  0  0  0  0  0  0  0
   52.4560   90.1100   17.7560 H   0  0  0  0  0  0  0  0  0  0  0  0
   53.7100   90.7770   16.6850 H   0  0  0  0  0  0  0  0  0  0  0  0
   54.4550   92.3540   18.3960 H   0  0  0  0  0  0  0  0  0  0  0  0
   52.6830   92.5250   18.0140 H   0  0  0  0  0  0  0  0  0  0  0  0
   52.8800   92.4380   20.5110 H   0  0  0  0  0  0  0  0  0  0  0  0
   52.2220   90.8820   19.9070 H   0  0  0  0  0  0  0  0  0  0  0  0
   57.9910  100.2750   25.6440 H   0  0  0  0  0  0  0  0  0  0  0  0
   58.9730   99.2490   26.7230 H   0  0  0  0  0  0  0  0  0  0  0  0
   57.6440  100.3590   27.3820 H   0  0  0  0  0  0  0  0  0  0  0  0
  2  3  2  0  0  0  0
  2  1  1  0  0  0  0
  4 27  1  0  0  0  0
  4  3  1  0  0  0  0
  5 10  2  0  0  0  0
  5  4  1  0  0  0  0
  6  5  1  0  0  0  0
  7  8  1  0  0  0  0
  7  6  2  0  0  0  0
  8  9  2  0  0  0  0
  9 11  1  0  0  0  0
  9 10  1  0  0  0  0
 10  2  1  0  0  0  0
 11 12  1  0  0  0  0
 12 29  1  0  0  0  0
 12 30  1  0  0  0  0
 13 32  1  0  0  0  0
 13 12  1  0  0  0  0
 14 15  1  0  0  0  0
 14 13  1  0  0  0  0
 15 16  1  0  0  0  0
 15 34  1  0  0  0  0
 16 11  1  0  0  0  0
 16 36  1  0  0  0  0
 17 37  1  1  0  0  0
 17 18  1  0  0  0  0
 17 14  1  0  0  0  0
 18 38  1  0  0  0  0
 18 40  1  0  0  0  0
 19 17  1  0  0  0  0
 20 19  2  0  0  0  0
 21 19  1  0  0  0  0
 22 42  1  0  0  0  0
 22 41  1  0  0  0  0
 22 21  1  0  0  0  0
 23 22  1  0  0  0  0
 24 45  1  0  0  0  0
 24 23  1  0  0  0  0
 24 25  1  0  0  0  0
 25 26  1  0  0  0  0
 26 21  1  0  0  0  0
 26 49  1  0  0  0  0
 27 52  1  0  0  0  0
 27 53  1  0  0  0  0
 28  7  1  0  0  0  0
 31 13  1  0  0  0  0
 33 15  1  0  0  0  0
 35 16  1  0  0  0  0
 39 18  1  0  0  0  0
 43 23  1  0  0  0  0
 44 23  1  0  0  0  0
 46 24  1  0  0  0  0
 47 25  1  0  0  0  0
 48 25  1  0  0  0  0
 50 26  1  0  0  0  0
 51 27  1  0  0  0  0
M  END
>  <Pose>
1

>  <Score>
-5.23

$$$$
