
 OpenBabel03202210083D

 32 35  0  0  1  0  0  0  0  0999 V2000
   48.8800   97.6550   28.6960 B   0  0  0  0  0  0  0  0  0  0  0  0
   50.5080   98.4940   28.1280 C   0  0  0  0  0  0  0  0  0  0  0  0
   51.7080   97.9330   27.9420 N   0  0  0  0  0  0  0  0  0  0  0  0
   52.5760   98.8610   27.5430 C   0  0  0  0  0  0  0  0  0  0  0  0
   51.9000  100.0380   27.4770 N   0  0  0  0  0  0  0  0  0  0  0  0
   50.6190   99.8370   27.8320 C   0  0  0  0  0  0  0  0  0  0  0  0
   53.9990   98.5030   27.2640 C   0  0  0  0  0  0  0  0  0  0  0  0
   54.0910   97.1410   26.8000 N   0  0  2  0  0  0  0  0  0  0  0  0
   53.1210   96.1160   27.1070 C   0  0  0  0  0  0  0  0  0  0  0  0
   52.1020   96.5500   28.1200 C   0  0  0  0  0  0  0  0  0  0  0  0
   55.1970   96.7900   26.0010 C   0  0  2  0  0  0  0  0  0  0  0  0
   56.1490   97.6710   25.7960 C   0  0  0  0  0  0  0  0  0  0  0  0
   57.3260   97.3610   24.9710 C   0  0  0  0  0  0  0  0  0  0  0  0
   58.2920   98.2370   24.7570 C   0  0  0  0  0  0  0  0  0  0  0  0
   57.3540   96.0530   24.4200 N   0  0  0  0  0  0  0  0  0  0  0  0
   56.3040   95.1040   24.6550 C   0  0  0  0  0  0  0  0  0  0  0  0
   55.2610   95.4960   25.4340 N   0  0  0  0  0  0  0  0  0  0  0  0
   54.4380   94.4430   25.4920 N   0  0  0  0  0  0  0  0  0  0  0  0
   54.9220   93.4130   24.7830 C   0  0  0  0  0  0  0  0  0  0  0  0
   56.0870   93.8360   24.2650 N   0  0  0  0  0  0  0  0  0  0  0  0
   49.8190  100.5880   27.8820 H   0  0  0  0  0  0  0  0  0  0  0  0
   54.4230   99.2300   26.5430 H   0  0  0  0  0  0  0  0  0  0  0  0
   54.5920   98.5640   28.2150 H   0  0  0  0  0  0  0  0  0  0  0  0
   53.6880   95.2530   27.5480 H   0  0  0  0  0  0  0  0  0  0  0  0
   52.6770   95.7660   26.1730 H   0  0  0  0  0  0  0  0  0  0  0  0
   51.2280   95.8730   28.0200 H   0  0  0  0  0  0  0  0  0  0  0  0
   52.4560   96.4400   29.1650 H   0  0  0  0  0  0  0  0  0  0  0  0
   56.1220   98.6780   26.2230 H   0  0  0  0  0  0  0  0  0  0  0  0
   58.2770   99.2370   25.1740 H   0  0  0  0  0  0  0  0  0  0  0  0
   59.1550   98.0070   24.1500 H   0  0  0  0  0  0  0  0  0  0  0  0
   58.1620   95.7710   23.8260 H   0  0  0  0  0  0  0  0  0  0  0  0
   54.4550   92.4230   24.6570 H   0  0  0  0  0  0  0  0  0  0  0  0
  2  1  1  0  0  0  0
  3 10  1  0  0  0  0
  3  2  1  0  0  0  0
  4  3  1  0  0  0  0
  5  4  2  0  0  0  0
  5  6  1  0  0  0  0
  6 21  1  0  0  0  0
  6  2  2  0  0  0  0
  7  4  1  0  0  0  0
  7 23  1  0  0  0  0
  8  9  1  1  0  0  0
  8  7  1  0  0  0  0
  9 24  1  0  0  0  0
  9 10  1  0  0  0  0
 10 27  1  0  0  0  0
 11 12  1  6  0  0  0
 11  8  1  0  0  0  0
 12 28  1  0  0  0  0
 13 12  2  0  0  0  0
 14 13  1  0  0  0  0
 14 29  1  0  0  0  0
 15 16  1  0  0  0  0
 15 13  1  0  0  0  0
 16 17  1  0  0  0  0
 17 18  1  0  0  0  0
 17 11  1  0  0  0  0
 19 18  2  0  0  0  0
 20 16  2  0  0  0  0
 20 19  1  0  0  0  0
 22  7  1  0  0  0  0
 25  9  1  0  0  0  0
 26 10  1  0  0  0  0
 30 14  1  0  0  0  0
 31 15  1  0  0  0  0
 32 19  1  0  0  0  0
M  END
>  <Pose>
1

>  <Score>
-5.84

$$$$
