
 OpenBabel03202210083D

 53 56  0  0  0  0  0  0  0  0999 V2000
   53.2860   84.4220   18.0520 B   0  0  0  0  0  0  0  0  0  0  0  0
   52.6830   86.1640   18.5540 C   0  0  0  0  0  0  0  0  0  0  0  0
   53.0880   87.2950   18.0360 O   0  0  0  0  0  0  0  0  0  0  0  0
   52.4980   88.3310   18.5790 C   0  0  0  0  0  0  0  0  0  0  0  0
   51.6390   87.8310   19.5280 C   0  0  0  0  0  0  0  0  0  0  0  0
   51.7470   86.4640   19.5210 C   0  0  0  0  0  0  0  0  0  0  0  0
   52.7160   89.7550   18.2370 C   0  0  0  0  0  0  0  0  0  0  0  0
   52.0230   90.2880   17.3580 O   0  0  0  0  0  0  0  0  0  0  0  0
   53.7190   90.4900   18.9230 N   0  0  0  0  0  0  0  0  0  0  0  0
   54.8750   89.8100   19.5010 C   0  0  0  0  0  0  0  0  0  0  0  0
   55.7590   90.8170   20.2340 C   0  0  0  0  0  0  0  0  0  0  0  0
   54.8980   91.5840   21.1130 N   0  0  0  0  0  0  0  0  0  0  0  0
   53.7910   92.3000   20.5410 C   0  0  0  0  0  0  0  0  0  0  0  0
   53.6540   91.9280   19.0860 C   0  0  0  0  0  0  0  0  0  0  0  0
   55.1310   91.6390   22.5260 C   0  0  0  0  0  0  0  0  0  0  0  0
   55.3940   90.5360   23.2400 N   0  0  0  0  0  0  0  0  0  0  0  0
   55.6070   90.6180   24.5580 C   0  0  0  0  0  0  0  0  0  0  0  0
   55.5650   91.7960   25.2110 N   0  0  0  0  0  0  0  0  0  0  0  0
   55.3060   92.9410   24.5550 C   0  0  0  0  0  0  0  0  0  0  0  0
   55.0900   92.8350   23.1970 C   0  0  0  0  0  0  0  0  0  0  0  0
   55.2510   94.2020   25.1960 N   0  0  0  0  0  0  0  0  0  0  0  0
   56.3370   95.1490   25.0440 C   0  0  0  0  0  0  0  0  0  0  0  0
   55.8500   96.4820   25.5730 C   0  0  0  0  0  0  0  0  0  0  0  0
   55.5310   96.3370   26.9680 N   0  0  0  0  0  0  0  0  0  0  0  0
   54.7290   95.1990   27.2900 C   0  0  0  0  0  0  0  0  0  0  0  0
   54.1350   94.6160   26.0250 C   0  0  0  0  0  0  0  0  0  0  0  0
   56.7250   96.4720   27.7630 C   0  0  0  0  0  0  0  0  0  0  0  0
   55.8980   89.3900   25.3390 C   0  0  0  0  0  0  0  0  0  0  0  0
   50.9880   88.4010   20.1710 H   0  0  0  0  0  0  0  0  0  0  0  0
   51.2080   85.7350   20.1480 H   0  0  0  0  0  0  0  0  0  0  0  0
   55.4550   89.2860   18.7250 H   0  0  0  0  0  0  0  0  0  0  0  0
   54.5130   89.0480   20.2240 H   0  0  0  0  0  0  0  0  0  0  0  0
   56.5240   90.2980   20.8140 H   0  0  0  0  0  0  0  0  0  0  0  0
   56.1930   91.4830   19.4570 H   0  0  0  0  0  0  0  0  0  0  0  0
   52.8530   92.0840   21.1070 H   0  0  0  0  0  0  0  0  0  0  0  0
   54.0190   93.4020   20.5810 H   0  0  0  0  0  0  0  0  0  0  0  0
   52.7480   92.3620   18.6450 H   0  0  0  0  0  0  0  0  0  0  0  0
   54.5410   92.3540   18.5540 H   0  0  0  0  0  0  0  0  0  0  0  0
   54.8800   93.7280   22.6250 H   0  0  0  0  0  0  0  0  0  0  0  0
   57.2090   94.8110   25.6200 H   0  0  0  0  0  0  0  0  0  0  0  0
   56.5830   95.1990   23.9630 H   0  0  0  0  0  0  0  0  0  0  0  0
   56.6860   97.1940   25.4620 H   0  0  0  0  0  0  0  0  0  0  0  0
   54.9920   96.8280   24.9740 H   0  0  0  0  0  0  0  0  0  0  0  0
   53.9030   95.4770   27.9750 H   0  0  0  0  0  0  0  0  0  0  0  0
   55.3210   94.4120   27.7840 H   0  0  0  0  0  0  0  0  0  0  0  0
   53.5960   95.4270   25.4770 H   0  0  0  0  0  0  0  0  0  0  0  0
   53.4750   93.7530   26.2360 H   0  0  0  0  0  0  0  0  0  0  0  0
   57.5770   96.8300   27.1790 H   0  0  0  0  0  0  0  0  0  0  0  0
   56.5140   97.2170   28.5740 H   0  0  0  0  0  0  0  0  0  0  0  0
   56.9700   95.4980   28.2370 H   0  0  0  0  0  0  0  0  0  0  0  0
   56.6350   89.6390   26.1290 H   0  0  0  0  0  0  0  0  0  0  0  0
   54.9660   89.0060   25.8030 H   0  0  0  0  0  0  0  0  0  0  0  0
   56.3790   88.6390   24.6880 H   0  0  0  0  0  0  0  0  0  0  0  0
  1  2  1  0  0  0  0
  2  6  2  0  0  0  0
  3  2  1  0  0  0  0
  3  4  1  0  0  0  0
  4  5  2  0  0  0  0
  5 29  1  0  0  0  0
  6  5  1  0  0  0  0
  6 30  1  0  0  0  0
  7  4  1  0  0  0  0
  7  9  1  0  0  0  0
  8  7  2  0  0  0  0
  9 14  1  0  0  0  0
  9 10  1  0  0  0  0
 10 32  1  0  0  0  0
 10 11  1  0  0  0  0
 11 33  1  0  0  0  0
 11 12  1  0  0  0  0
 12 15  1  0  0  0  0
 13 36  1  0  0  0  0
 13 35  1  0  0  0  0
 13 12  1  0  0  0  0
 14 13  1  0  0  0  0
 15 20  2  0  0  0  0
 15 16  1  0  0  0  0
 16 17  2  0  0  0  0
 17 18  1  0  0  0  0
 17 28  1  0  0  0  0
 19 21  1  0  0  0  0
 19 18  2  0  0  0  0
 20 19  1  0  0  0  0
 21 26  1  0  0  0  0
 22 21  1  0  0  0  0
 22 23  1  0  0  0  0
 22 40  1  0  0  0  0
 23 24  1  0  0  0  0
 24 25  1  0  0  0  0
 24 27  1  0  0  0  0
 25 45  1  0  0  0  0
 25 44  1  0  0  0  0
 26 47  1  0  0  0  0
 26 25  1  0  0  0  0
 27 50  1  0  0  0  0
 27 49  1  0  0  0  0
 28 52  1  0  0  0  0
 28 51  1  0  0  0  0
 31 10  1  0  0  0  0
 34 11  1  0  0  0  0
 37 14  1  0  0  0  0
 38 14  1  0  0  0  0
 39 20  1  0  0  0  0
 41 22  1  0  0  0  0
 42 23  1  0  0  0  0
 43 23  1  0  0  0  0
 46 26  1  0  0  0  0
 48 27  1  0  0  0  0
 53 28  1  0  0  0  0
M  END
>  <Pose>
1

>  <Score>
-6.38

$$$$
