
 OpenBabel03202210083D

 43 46  0  0  0  0  0  0  0  0999 V2000
   51.3930   83.7540   21.5800 B   0  0  0  0  0  0  0  0  0  0  0  0
   51.7020   84.9920   20.1760 C   0  0  0  0  0  0  0  0  0  0  0  0
   51.4790   86.2710   20.1520 O   0  0  0  0  0  0  0  0  0  0  0  0
   51.8150   86.8140   19.0100 C   0  0  0  0  0  0  0  0  0  0  0  0
   52.3030   85.7920   18.2170 C   0  0  0  0  0  0  0  0  0  0  0  0
   52.2390   84.6130   18.9440 C   0  0  0  0  0  0  0  0  0  0  0  0
   51.7090   88.2150   18.6210 C   0  0  0  0  0  0  0  0  0  0  0  0
   51.2120   88.7190   17.4690 N   0  0  0  0  0  0  0  0  0  0  0  0
   51.2870   90.0190   17.4930 O   0  0  0  0  0  0  0  0  0  0  0  0
   51.8180   90.4210   18.6190 C   0  0  0  0  0  0  0  0  0  0  0  0
   52.0780   89.3070   19.3130 N   0  0  0  0  0  0  0  0  0  0  0  0
   52.0390   91.8230   18.9530 C   0  0  0  0  0  0  0  0  0  0  0  0
   51.2540   92.7180   18.4900 O   0  0  0  0  0  0  0  0  0  0  0  0
   53.1130   92.2400   19.7880 N   0  0  0  0  0  0  0  0  0  0  0  0
   54.3180   91.4890   19.8940 C   0  0  0  0  0  0  0  0  0  0  0  0
   54.7930   91.3340   21.3230 C   0  0  0  0  0  0  0  0  0  0  0  0
   54.9970   92.6290   21.9570 N   0  0  0  0  0  0  0  0  0  0  0  0
   55.2370   92.6810   23.3400 C   0  0  0  0  0  0  0  0  0  0  0  0
   55.3060   91.5430   23.9270 O   0  0  0  0  0  0  0  0  0  0  0  0
   55.4140   93.8480   24.1670 C   0  0  0  0  0  0  0  0  0  0  0  0
   54.3790   94.2200   25.0240 C   0  0  0  0  0  0  0  0  0  0  0  0
   54.5250   95.3220   25.8290 C   0  0  0  0  0  0  0  0  0  0  0  0
   55.6720   96.0510   25.7930 C   0  0  0  0  0  0  0  0  0  0  0  0
   55.8160   97.1720   26.6150 C   0  0  0  0  0  0  0  0  0  0  0  0
   54.8200   97.5700   27.4740 C   0  0  0  0  0  0  0  0  0  0  0  0
   53.6660   96.8310   27.5050 C   0  0  0  0  0  0  0  0  0  0  0  0
   53.5090   95.7230   26.7010 C   0  0  0  0  0  0  0  0  0  0  0  0
   56.6200   95.6780   24.9820 O   0  0  0  0  0  0  0  0  0  0  0  0
   56.5450   94.6240   24.1770 C   0  0  0  0  0  0  0  0  0  0  0  0
   57.5300   94.3750   23.4440 O   0  0  0  0  0  0  0  0  0  0  0  0
   52.6540   85.9340   17.2250 H   0  0  0  0  0  0  0  0  0  0  0  0
   52.5440   83.6220   18.6170 H   0  0  0  0  0  0  0  0  0  0  0  0
   53.0060   93.1160   20.3320 H   0  0  0  0  0  0  0  0  0  0  0  0
   55.1210   92.0670   19.3590 H   0  0  0  0  0  0  0  0  0  0  0  0
   54.2510   90.5140   19.3740 H   0  0  0  0  0  0  0  0  0  0  0  0
   53.9750   90.8350   21.8840 H   0  0  0  0  0  0  0  0  0  0  0  0
   55.6870   90.6870   21.3840 H   0  0  0  0  0  0  0  0  0  0  0  0
   54.9720   93.5100   21.4130 H   0  0  0  0  0  0  0  0  0  0  0  0
   53.4500   93.6470   25.0670 H   0  0  0  0  0  0  0  0  0  0  0  0
   56.7380   97.7280   26.5620 H   0  0  0  0  0  0  0  0  0  0  0  0
   54.9720   98.4400   28.0910 H   0  0  0  0  0  0  0  0  0  0  0  0
   52.8780   97.1340   28.1750 H   0  0  0  0  0  0  0  0  0  0  0  0
   52.6050   95.1360   26.7190 H   0  0  0  0  0  0  0  0  0  0  0  0
  2  1  1  0  0  0  0
  3  2  1  0  0  0  0
  4  3  1  0  0  0  0
  5  6  1  0  0  0  0
  5  4  2  0  0  0  0
  6  2  2  0  0  0  0
  7  4  1  0  0  0  0
  7 11  1  0  0  0  0
  8  9  1  0  0  0  0
  8  7  2  0  0  0  0
  9 10  1  0  0  0  0
 10 12  1  0  0  0  0
 10 11  2  0  0  0  0
 12 14  1  0  0  0  0
 13 12  2  0  0  0  0
 14 15  1  0  0  0  0
 14 33  1  0  0  0  0
 15 16  1  0  0  0  0
 16 37  1  0  0  0  0
 16 36  1  0  0  0  0
 16 17  1  0  0  0  0
 17 18  1  0  0  0  0
 18 19  2  0  0  0  0
 18 20  1  0  0  0  0
 20 29  1  0  0  0  0
 20 21  2  0  0  0  0
 21 39  1  0  0  0  0
 21 22  1  0  0  0  0
 22 27  1  0  0  0  0
 23 22  2  0  0  0  0
 23 24  1  0  0  0  0
 24 25  2  0  0  0  0
 25 26  1  0  0  0  0
 25 41  1  0  0  0  0
 26 42  1  0  0  0  0
 27 43  1  0  0  0  0
 27 26  2  0  0  0  0
 28 23  1  0  0  0  0
 29 28  1  0  0  0  0
 30 29  2  0  0  0  0
 31  5  1  0  0  0  0
 32  6  1  0  0  0  0
 34 15  1  0  0  0  0
 35 15  1  0  0  0  0
 38 17  1  0  0  0  0
 40 24  1  0  0  0  0
M  END
>  <Pose>
1

>  <Score>
-8.25

$$$$
