
 OpenBabel03202210083D

 43 46  0  0  0  0  0  0  0  0999 V2000
   48.7790  102.9260   32.6440 B   0  0  0  0  0  0  0  0  0  0  0  0
   48.4510  102.2270   30.9250 C   0  0  0  0  0  0  0  0  0  0  0  0
   49.4930  101.9460   30.0370 C   0  0  0  0  0  0  0  0  0  0  0  0
   49.2030  101.4390   28.7990 C   0  0  0  0  0  0  0  0  0  0  0  0
   47.8530  101.2330   28.4990 C   0  0  0  0  0  0  0  0  0  0  0  0
   46.9230  101.5080   29.3560 O   0  0  0  0  0  0  0  0  0  0  0  0
   47.1590  101.9850   30.5270 C   0  0  0  0  0  0  0  0  0  0  0  0
   46.1850  102.2220   31.2890 O   0  0  0  0  0  0  0  0  0  0  0  0
   50.2110  101.1160   27.8070 C   0  0  0  0  0  0  0  0  0  0  0  0
   50.1650  101.9300   26.7690 O   0  0  0  0  0  0  0  0  0  0  0  0
   51.1900  100.1340   27.7540 N   0  0  0  0  0  0  0  0  0  0  0  0
   51.1680   99.0460   28.7630 C   0  0  0  0  0  0  0  0  0  0  0  0
   51.1240   97.7190   28.0440 C   0  0  0  0  0  0  0  0  0  0  0  0
   52.2340   97.6100   27.1820 N   0  0  0  0  0  0  0  0  0  0  0  0
   53.0560   98.7710   27.2100 C   0  0  0  0  0  0  0  0  0  0  0  0
   52.2470  100.0320   26.8230 C   0  0  0  0  0  0  0  0  0  0  0  0
   52.9900   96.4020   27.2740 C   0  0  0  0  0  0  0  0  0  0  0  0
   54.3090   96.4230   26.6160 C   0  0  0  0  0  0  0  0  0  0  0  0
   55.2130   97.4290   26.7250 C   0  0  0  0  0  0  0  0  0  0  0  0
   56.4170   97.3610   26.0700 C   0  0  0  0  0  0  0  0  0  0  0  0
   56.7070   96.2670   25.2990 C   0  0  0  0  0  0  0  0  0  0  0  0
   55.8060   95.2340   25.1740 C   0  0  0  0  0  0  0  0  0  0  0  0
   54.6230   95.3280   25.8330 C   0  0  0  0  0  0  0  0  0  0  0  0
   57.9640   96.4150   24.7390 O   0  0  0  0  0  0  0  0  0  0  0  0
   58.2990   97.7890   24.8780 C   0  0  0  0  0  0  0  0  0  0  0  0
   57.5280   98.2140   25.9860 O   0  0  0  0  0  0  0  0  0  0  0  0
   50.4760  102.1500   30.3890 H   0  0  0  0  0  0  0  0  0  0  0  0
   47.5480  100.8230   27.5110 H   0  0  0  0  0  0  0  0  0  0  0  0
   50.2470   99.1810   29.3790 H   0  0  0  0  0  0  0  0  0  0  0  0
   52.0520   99.1080   29.3950 H   0  0  0  0  0  0  0  0  0  0  0  0
   51.1310   96.8990   28.8280 H   0  0  0  0  0  0  0  0  0  0  0  0
   50.1310   97.5660   27.5460 H   0  0  0  0  0  0  0  0  0  0  0  0
   53.5720   99.0040   28.1360 H   0  0  0  0  0  0  0  0  0  0  0  0
   53.8310   98.6270   26.4060 H   0  0  0  0  0  0  0  0  0  0  0  0
   51.9760   99.9170   25.7650 H   0  0  0  0  0  0  0  0  0  0  0  0
   52.9440  100.9130   26.8980 H   0  0  0  0  0  0  0  0  0  0  0  0
   53.1940   96.2310   28.3730 H   0  0  0  0  0  0  0  0  0  0  0  0
   52.4400   95.5030   26.9480 H   0  0  0  0  0  0  0  0  0  0  0  0
   55.0080   98.2950   27.3270 H   0  0  0  0  0  0  0  0  0  0  0  0
   56.0440   94.3780   24.5640 H   0  0  0  0  0  0  0  0  0  0  0  0
   53.9230   94.5040   25.7240 H   0  0  0  0  0  0  0  0  0  0  0  0
   58.1170   98.3690   23.9750 H   0  0  0  0  0  0  0  0  0  0  0  0
   59.3640   97.9190   25.1690 H   0  0  0  0  0  0  0  0  0  0  0  0
  2  1  1  0  0  0  0
  3 27  1  0  0  0  0
  3  2  2  0  0  0  0
  4  3  1  0  0  0  0
  5  4  2  0  0  0  0
  5  6  1  0  0  0  0
  6  7  1  0  0  0  0
  7  2  1  0  0  0  0
  7  8  2  0  0  0  0
  9  4  1  0  0  0  0
 10  9  2  0  0  0  0
 11  9  1  0  0  0  0
 11 12  1  0  0  0  0
 12 29  1  0  0  0  0
 12 30  1  0  0  0  0
 13 12  1  0  0  0  0
 13 31  1  0  0  0  0
 14 15  1  0  0  0  0
 14 17  1  0  0  0  0
 14 13  1  0  0  0  0
 15 33  1  0  0  0  0
 16 36  1  0  0  0  0
 16 15  1  0  0  0  0
 16 11  1  0  0  0  0
 17 37  1  0  0  0  0
 18 19  1  0  0  0  0
 18 17  1  0  0  0  0
 19 39  1  0  0  0  0
 20 19  2  0  0  0  0
 21 20  1  0  0  0  0
 22 21  2  0  0  0  0
 22 23  1  0  0  0  0
 23 18  2  0  0  0  0
 24 25  1  0  0  0  0
 24 21  1  0  0  0  0
 25 43  1  0  0  0  0
 25 26  1  0  0  0  0
 26 20  1  0  0  0  0
 28  5  1  0  0  0  0
 32 13  1  0  0  0  0
 34 15  1  0  0  0  0
 35 16  1  0  0  0  0
 38 17  1  0  0  0  0
 40 22  1  0  0  0  0
 41 23  1  0  0  0  0
 42 25  1  0  0  0  0
M  END
>  <Pose>
1

>  <Score>
-7.04

$$$$
