
 OpenBabel03202210083D

 63 66  0  0  1  0  0  0  0  0999 V2000
   53.3680   81.0870   25.0060 B   0  0  0  0  0  0  0  0  0  0  0  0
   54.3210   82.7410   25.2240 C   0  0  0  0  0  0  0  0  0  0  0  0
   54.0980   83.7890   24.3600 C   0  0  0  0  0  0  0  0  0  0  0  0
   54.7500   84.9390   24.4980 N   0  0  0  0  0  0  0  0  0  0  0  0
   55.6350   85.1030   25.4780 C   0  0  0  0  0  0  0  0  0  0  0  0
   56.2800   86.1900   25.6420 O   0  0  0  0  0  0  0  0  0  0  0  0
   55.8660   84.0920   26.3290 N   0  0  0  0  0  0  0  0  0  0  0  0
   55.2380   82.9050   26.2410 C   0  0  0  0  0  0  0  0  0  0  0  0
   55.4780   81.9700   27.0600 O   0  0  0  0  0  0  0  0  0  0  0  0
   54.4870   86.0260   23.5760 C   0  0  1  0  0  0  0  0  0  0  0  0
   54.2290   87.3290   24.2200 C   0  0  1  0  0  0  0  0  0  0  0  0
   54.6190   88.5390   23.3610 C   0  0  0  0  0  0  0  0  0  0  0  0
   56.0570   88.4320   22.9170 C   0  0  2  0  0  0  0  0  0  0  0  0
   56.5080   87.1260   22.9510 O   0  0  0  0  0  0  0  0  0  0  0  0
   55.6030   86.1800   22.5800 C   0  0  0  0  0  0  0  0  0  0  0  0
   56.8800   89.3330   23.8190 C   0  0  0  0  0  0  0  0  0  0  0  0
   57.0900   90.6760   23.1730 C   0  0  0  0  0  0  0  0  0  0  0  0
   55.8690   91.0670   22.5150 N   0  0  0  0  0  0  0  0  0  0  0  0
   55.5020   90.2840   21.3450 C   0  0  0  0  0  0  0  0  0  0  0  0
   56.1430   88.9230   21.4920 C   0  0  0  0  0  0  0  0  0  0  0  0
   55.1130   92.1480   22.9770 C   0  0  0  0  0  0  0  0  0  0  0  0
   53.9240   92.2320   22.4990 O   0  0  0  0  0  0  0  0  0  0  0  0
   55.4800   93.1980   23.9220 C   0  0  1  0  0  0  0  0  0  0  0  0
   55.4120   92.7350   25.3080 N   0  0  0  0  0  0  0  0  0  0  0  0
   56.8680   93.7720   23.7440 C   0  0  0  0  0  0  0  0  0  0  0  0
   56.8580   95.1060   24.4510 C   0  0  0  0  0  0  0  0  0  0  0  0
   57.9410   95.9400   24.3650 C   0  0  0  0  0  0  0  0  0  0  0  0
   57.8910   97.1600   25.0340 C   0  0  0  0  0  0  0  0  0  0  0  0
   56.7900   97.5400   25.7670 C   0  0  0  0  0  0  0  0  0  0  0  0
   55.7180   96.6720   25.8300 C   0  0  0  0  0  0  0  0  0  0  0  0
   55.7390   95.4550   25.1790 C   0  0  0  0  0  0  0  0  0  0  0  0
   56.7960   98.7640   26.4090 O   0  0  0  0  0  0  0  0  0  0  0  0
   52.8220   87.4550   24.3510 O   0  0  0  0  0  0  0  0  0  0  0  0
   54.7790   87.4910   25.5990 C   0  0  0  0  0  0  0  0  0  0  0  0
   53.3640   83.6080   23.5720 H   0  0  0  0  0  0  0  0  0  0  0  0
   56.5750   84.2230   27.1130 H   0  0  0  0  0  0  0  0  0  0  0  0
   53.5780   85.6850   22.9850 H   0  0  0  0  0  0  0  0  0  0  0  0
   53.9770   88.6170   22.4770 H   0  0  0  0  0  0  0  0  0  0  0  0
   54.4980   89.4440   23.9640 H   0  0  0  0  0  0  0  0  0  0  0  0
   56.1280   85.2130   22.3910 H   0  0  0  0  0  0  0  0  0  0  0  0
   55.1390   86.5030   21.6010 H   0  0  0  0  0  0  0  0  0  0  0  0
   56.4050   89.4790   24.8000 H   0  0  0  0  0  0  0  0  0  0  0  0
   57.8980   88.9150   23.9890 H   0  0  0  0  0  0  0  0  0  0  0  0
   57.4730   91.4160   23.9050 H   0  0  0  0  0  0  0  0  0  0  0  0
   57.9300   90.5590   22.4410 H   0  0  0  0  0  0  0  0  0  0  0  0
   54.4310   90.1510   21.2140 H   0  0  0  0  0  0  0  0  0  0  0  0
   55.9110   90.7560   20.4350 H   0  0  0  0  0  0  0  0  0  0  0  0
   57.1950   88.9180   21.1340 H   0  0  0  0  0  0  0  0  0  0  0  0
   55.5930   88.2560   20.8050 H   0  0  0  0  0  0  0  0  0  0  0  0
   54.7600   94.0360   23.8250 H   0  0  0  0  0  0  0  0  0  0  0  0
   56.2280   92.1280   25.5410 H   0  0  0  0  0  0  0  0  0  0  0  0
   54.5590   92.1330   25.4160 H   0  0  0  0  0  0  0  0  0  0  0  0
   57.6510   93.1750   24.2050 H   0  0  0  0  0  0  0  0  0  0  0  0
   57.1310   93.9500   22.7030 H   0  0  0  0  0  0  0  0  0  0  0  0
   58.7920   95.6300   23.7880 H   0  0  0  0  0  0  0  0  0  0  0  0
   58.7420   97.8190   24.9670 H   0  0  0  0  0  0  0  0  0  0  0  0
   54.8590   96.9540   26.3980 H   0  0  0  0  0  0  0  0  0  0  0  0
   54.9040   94.7680   25.2210 H   0  0  0  0  0  0  0  0  0  0  0  0
   57.3170   99.5770   26.0820 H   0  0  0  0  0  0  0  0  0  0  0  0
   52.4350   86.7030   24.8560 H   0  0  0  0  0  0  0  0  0  0  0  0
   55.8570   87.3490   25.7010 H   0  0  0  0  0  0  0  0  0  0  0  0
   54.5380   88.5130   25.9520 H   0  0  0  0  0  0  0  0  0  0  0  0
   54.1980   86.8140   26.2940 H   0  0  0  0  0  0  0  0  0  0  0  0
  1  2  1  0  0  0  0
  2  8  1  0  0  0  0
  3  4  1  0  0  0  0
  3  2  2  0  0  0  0
  4  5  1  0  0  0  0
  5  6  2  0  0  0  0
  5  7  1  0  0  0  0
  7 36  1  0  0  0  0
  8  7  1  0  0  0  0
  8  9  2  0  0  0  0
 10 37  1  6  0  0  0
 10 11  1  0  0  0  0
 10  4  1  0  0  0  0
 11 33  1  1  0  0  0
 11 34  1  0  0  0  0
 12 39  1  0  0  0  0
 12 11  1  0  0  0  0
 13 14  1  1  0  0  0
 13 12  1  0  0  0  0
 13 16  1  0  0  0  0
 15 14  1  0  0  0  0
 15 10  1  0  0  0  0
 16 43  1  0  0  0  0
 16 42  1  0  0  0  0
 17 16  1  0  0  0  0
 17 44  1  0  0  0  0
 18 21  1  0  0  0  0
 18 17  1  0  0  0  0
 19 20  1  0  0  0  0
 19 18  1  0  0  0  0
 20 13  1  0  0  0  0
 21 23  1  0  0  0  0
 22 21  2  0  0  0  0
 23 50  1  6  0  0  0
 23 24  1  0  0  0  0
 24 52  1  0  0  0  0
 24 51  1  0  0  0  0
 25 23  1  0  0  0  0
 25 53  1  0  0  0  0
 25 26  1  0  0  0  0
 26 31  1  0  0  0  0
 27 26  2  0  0  0  0
 27 28  1  0  0  0  0
 28 29  2  0  0  0  0
 29 30  1  0  0  0  0
 29 32  1  0  0  0  0
 30 57  1  0  0  0  0
 31 58  1  0  0  0  0
 31 30  2  0  0  0  0
 33 60  1  0  0  0  0
 34 61  1  0  0  0  0
 34 62  1  0  0  0  0
 34 63  1  0  0  0  0
 35  3  1  0  0  0  0
 38 12  1  0  0  0  0
 40 15  1  0  0  0  0
 41 15  1  0  0  0  0
 45 17  1  0  0  0  0
 46 19  1  0  0  0  0
 47 19  1  0  0  0  0
 48 20  1  0  0  0  0
 49 20  1  0  0  0  0
 54 25  1  0  0  0  0
 55 27  1  0  0  0  0
 56 28  1  0  0  0  0
 59 32  1  0  0  0  0
M  END
>  <Pose>
1

>  <Score>
-5.81

$$$$
