
 OpenBabel03202210083D

 64 67  0  0  1  0  0  0  0  0999 V2000
   53.9080   89.7430   19.3400 B   0  0  0  0  0  0  0  0  0  0  0  0
   54.8470   88.6450   20.5650 C   0  0  0  0  0  0  0  0  0  0  0  0
   54.1300   87.7140   21.3160 C   0  0  0  0  0  0  0  0  0  0  0  0
   54.7220   86.9060   22.1980 N   0  0  0  0  0  0  0  0  0  0  0  0
   56.0770   87.0380   22.3270 C   0  0  0  0  0  0  0  0  0  0  0  0
   56.6830   86.2970   23.1470 O   0  0  0  0  0  0  0  0  0  0  0  0
   56.7940   87.9240   21.6160 N   0  0  0  0  0  0  0  0  0  0  0  0
   56.2120   88.7460   20.7240 C   0  0  0  0  0  0  0  0  0  0  0  0
   56.8910   89.5860   20.0500 O   0  0  0  0  0  0  0  0  0  0  0  0
   54.0730   85.9440   22.9940 C   0  0  1  0  0  0  0  0  0  0  0  0
   53.0130   86.5560   23.9250 C   0  0  1  0  0  0  0  0  0  0  0  0
   52.8360   85.5010   25.0250 C   0  0  0  0  0  0  0  0  0  0  0  0
   52.5580   84.1500   24.4260 C   0  0  2  0  0  0  0  0  0  0  0  0
   52.3580   84.2890   23.0740 O   0  0  0  0  0  0  0  0  0  0  0  0
   53.4580   84.7630   22.3640 C   0  0  0  0  0  0  0  0  0  0  0  0
   51.2350   83.6870   25.0200 C   0  0  0  0  0  0  0  0  0  0  0  0
   51.4800   83.0260   26.3530 C   0  0  0  0  0  0  0  0  0  0  0  0
   52.7640   83.4720   26.9180 N   0  0  0  0  0  0  0  0  0  0  0  0
   53.9300   83.0340   26.2100 C   0  0  0  0  0  0  0  0  0  0  0  0
   53.5780   83.1100   24.7260 C   0  0  0  0  0  0  0  0  0  0  0  0
   52.8420   84.2960   28.0410 C   0  0  0  0  0  0  0  0  0  0  0  0
   53.7220   85.2390   28.1120 O   0  0  0  0  0  0  0  0  0  0  0  0
   51.9620   84.1620   29.1910 C   0  0  1  0  0  0  0  0  0  0  0  0
   52.2180   85.1980   30.1620 N   0  0  0  0  0  0  0  0  0  0  0  0
   51.6920   85.3410   31.4410 C   0  0  0  0  0  0  0  0  0  0  0  0
   52.0100   86.2240   32.2630 O   0  0  0  0  0  0  0  0  0  0  0  0
   50.6350   84.3800   31.9540 C   0  0  0  0  0  0  0  0  0  0  0  0
   50.4590   84.2260   28.7770 C   0  0  0  0  0  0  0  0  0  0  0  0
   50.1350   85.5710   28.2710 C   0  0  0  0  0  0  0  0  0  0  0  0
   49.4350   86.5430   28.8350 N   0  0  0  0  0  0  0  0  0  0  0  0
   49.3670   87.6400   28.0310 C   0  0  0  0  0  0  0  0  0  0  0  0
   50.0580   87.3310   26.9180 N   0  0  0  0  0  0  0  0  0  0  0  0
   50.5330   86.0740   27.0440 C   0  0  0  0  0  0  0  0  0  0  0  0
   53.4460   87.7290   24.5040 O   0  0  0  0  0  0  0  0  0  0  0  0
   51.7360   86.8250   23.1940 C   0  0  0  0  0  0  0  0  0  0  0  0
   53.0560   87.6200   21.2100 H   0  0  0  0  0  0  0  0  0  0  0  0
   57.8360   87.9630   21.7750 H   0  0  0  0  0  0  0  0  0  0  0  0
   54.8480   85.5420   23.7200 H   0  0  0  0  0  0  0  0  0  0  0  0
   52.0370   85.8640   25.7010 H   0  0  0  0  0  0  0  0  0  0  0  0
   53.7880   85.5150   25.5890 H   0  0  0  0  0  0  0  0  0  0  0  0
   54.1900   83.9010   22.3240 H   0  0  0  0  0  0  0  0  0  0  0  0
   53.1140   84.8620   21.3200 H   0  0  0  0  0  0  0  0  0  0  0  0
   50.5230   84.5020   25.1730 H   0  0  0  0  0  0  0  0  0  0  0  0
   50.7830   82.9870   24.2870 H   0  0  0  0  0  0  0  0  0  0  0  0
   51.5670   81.9190   26.2790 H   0  0  0  0  0  0  0  0  0  0  0  0
   50.6990   83.2730   27.0850 H   0  0  0  0  0  0  0  0  0  0  0  0
   54.8470   83.6380   26.4080 H   0  0  0  0  0  0  0  0  0  0  0  0
   54.1590   81.9930   26.5020 H   0  0  0  0  0  0  0  0  0  0  0  0
   54.5310   83.2080   24.1990 H   0  0  0  0  0  0  0  0  0  0  0  0
   53.1500   82.1220   24.4620 H   0  0  0  0  0  0  0  0  0  0  0  0
   51.9810   83.1840   29.7300 H   0  0  0  0  0  0  0  0  0  0  0  0
   52.9030   85.9460   29.8350 H   0  0  0  0  0  0  0  0  0  0  0  0
   50.7320   84.2260   33.0300 H   0  0  0  0  0  0  0  0  0  0  0  0
   49.6300   84.8000   31.7340 H   0  0  0  0  0  0  0  0  0  0  0  0
   50.7220   83.4240   31.4150 H   0  0  0  0  0  0  0  0  0  0  0  0
   50.2340   83.4820   28.0220 H   0  0  0  0  0  0  0  0  0  0  0  0
   49.8520   84.0010   29.6930 H   0  0  0  0  0  0  0  0  0  0  0  0
   48.8520   88.5700   28.2640 H   0  0  0  0  0  0  0  0  0  0  0  0
   50.1770   87.9940   26.1130 H   0  0  0  0  0  0  0  0  0  0  0  0
   51.1240   85.5840   26.2840 H   0  0  0  0  0  0  0  0  0  0  0  0
   53.0920   87.7840   25.4280 H   0  0  0  0  0  0  0  0  0  0  0  0
   51.4870   87.9220   23.1560 H   0  0  0  0  0  0  0  0  0  0  0  0
   51.7610   86.4950   22.1260 H   0  0  0  0  0  0  0  0  0  0  0  0
   50.8830   86.3270   23.6590 H   0  0  0  0  0  0  0  0  0  0  0  0
  1  2  1  0  0  0  0
  2  8  1  0  0  0  0
  2  3  2  0  0  0  0
  3  4  1  0  0  0  0
  4  5  1  0  0  0  0
  4 10  1  0  0  0  0
  5  6  2  0  0  0  0
  7 37  1  0  0  0  0
  7  5  1  0  0  0  0
  8  7  1  0  0  0  0
  9  8  2  0  0  0  0
 10 38  1  1  0  0  0
 10 11  1  0  0  0  0
 11 34  1  1  0  0  0
 11 12  1  0  0  0  0
 12 40  1  0  0  0  0
 12 39  1  0  0  0  0
 13 14  1  6  0  0  0
 13 20  1  0  0  0  0
 13 16  1  0  0  0  0
 13 12  1  0  0  0  0
 15 10  1  0  0  0  0
 15 14  1  0  0  0  0
 16 43  1  0  0  0  0
 16 17  1  0  0  0  0
 17 18  1  0  0  0  0
 17 46  1  0  0  0  0
 18 21  1  0  0  0  0
 19 47  1  0  0  0  0
 19 48  1  0  0  0  0
 19 18  1  0  0  0  0
 20 19  1  0  0  0  0
 21 22  2  0  0  0  0
 21 23  1  0  0  0  0
 23 51  1  1  0  0  0
 23 24  1  0  0  0  0
 24 25  1  0  0  0  0
 25 27  1  0  0  0  0
 25 26  2  0  0  0  0
 27 53  1  0  0  0  0
 28 23  1  0  0  0  0
 28 57  1  0  0  0  0
 29 28  1  0  0  0  0
 29 30  1  0  0  0  0
 31 58  1  0  0  0  0
 31 30  2  0  0  0  0
 32 33  1  0  0  0  0
 32 31  1  0  0  0  0
 33 29  2  0  0  0  0
 34 61  1  0  0  0  0
 35 64  1  0  0  0  0
 35 11  1  0  0  0  0
 36  3  1  0  0  0  0
 41 15  1  0  0  0  0
 42 15  1  0  0  0  0
 44 16  1  0  0  0  0
 45 17  1  0  0  0  0
 49 20  1  0  0  0  0
 50 20  1  0  0  0  0
 52 24  1  0  0  0  0
 54 27  1  0  0  0  0
 55 27  1  0  0  0  0
 56 28  1  0  0  0  0
 59 32  1  0  0  0  0
 60 33  1  0  0  0  0
 62 35  1  0  0  0  0
 63 35  1  0  0  0  0
M  END
>  <Pose>
1

>  <Score>
-6.76

$$$$
