
 OpenBabel03202210083D

 41 44  0  0  1  0  0  0  0  0999 V2000
   48.6900  103.4800   30.4110 B   0  0  0  0  0  0  0  0  0  0  0  0
   49.1000  101.7920   29.6040 C   0  0  0  0  0  0  0  0  0  0  0  0
   50.3930  101.3320   29.4860 C   0  0  0  0  0  0  0  0  0  0  0  0
   50.6880  100.1310   28.9130 N   0  0  0  0  0  0  0  0  0  0  0  0
   49.6780   99.3720   28.4490 C   0  0  0  0  0  0  0  0  0  0  0  0
   50.1970   98.2450   27.9320 N   0  0  0  0  0  0  0  0  0  0  0  0
   51.5360   98.2680   28.0580 C   0  0  0  0  0  0  0  0  0  0  0  0
   51.8330   99.4640   28.6790 C   0  0  0  0  0  0  0  0  0  0  0  0
   52.5070   97.2320   27.6230 C   0  0  0  0  0  0  0  0  0  0  0  0
   53.3090   97.6980   26.5140 N   0  0  0  0  0  0  0  0  0  0  0  0
   54.5000   97.0300   26.1890 C   0  0  0  0  0  0  0  0  0  0  0  0
   54.7350   96.7130   25.0050 O   0  0  0  0  0  0  0  0  0  0  0  0
   55.4820   96.6980   27.2380 C   0  0  1  0  0  0  0  0  0  0  0  0
   56.5950   95.8520   26.6710 C   0  0  0  0  0  0  0  0  0  0  0  0
   57.2310   96.6340   25.6280 N   0  0  0  0  0  0  0  0  0  0  0  0
   57.3660   97.9620   25.7700 C   0  0  0  0  0  0  0  0  0  0  0  0
   57.9840   98.4130   24.6590 N   0  0  0  0  0  0  0  0  0  0  0  0
   58.2240   97.4150   23.8610 N   0  0  0  0  0  0  0  0  0  0  0  0
   57.7620   96.3050   24.4500 C   0  0  0  0  0  0  0  0  0  0  0  0
   57.8650   94.9540   23.8170 C   0  0  0  0  0  0  0  0  0  0  0  0
   56.9090   98.7310   26.9370 C   0  0  0  0  0  0  0  0  0  0  0  0
   56.0160   97.9670   27.8490 C   0  0  0  0  0  0  0  0  0  0  0  0
   48.3610   99.8080   28.5540 C   0  0  0  0  0  0  0  0  0  0  0  0
   48.0620  101.0180   29.1300 C   0  0  0  0  0  0  0  0  0  0  0  0
   51.1880  101.9410   29.8560 H   0  0  0  0  0  0  0  0  0  0  0  0
   52.7940   99.8700   28.9620 H   0  0  0  0  0  0  0  0  0  0  0  0
   53.1320   96.9300   28.4980 H   0  0  0  0  0  0  0  0  0  0  0  0
   51.9480   96.3070   27.3130 H   0  0  0  0  0  0  0  0  0  0  0  0
   53.0180   98.5210   25.9530 H   0  0  0  0  0  0  0  0  0  0  0  0
   54.9440   96.1570   28.0510 H   0  0  0  0  0  0  0  0  0  0  0  0
   57.3320   95.6440   27.4830 H   0  0  0  0  0  0  0  0  0  0  0  0
   56.1610   94.9060   26.2910 H   0  0  0  0  0  0  0  0  0  0  0  0
   57.1460   94.2690   24.2770 H   0  0  0  0  0  0  0  0  0  0  0  0
   57.6220   95.0190   22.7220 H   0  0  0  0  0  0  0  0  0  0  0  0
   58.9130   94.6050   23.9030 H   0  0  0  0  0  0  0  0  0  0  0  0
   57.7980   99.0690   27.5390 H   0  0  0  0  0  0  0  0  0  0  0  0
   56.4340   99.6650   26.5690 H   0  0  0  0  0  0  0  0  0  0  0  0
   55.1300   98.6040   28.1170 H   0  0  0  0  0  0  0  0  0  0  0  0
   56.5130   97.7080   28.8090 H   0  0  0  0  0  0  0  0  0  0  0  0
   47.5960   99.1510   28.1620 H   0  0  0  0  0  0  0  0  0  0  0  0
   47.0200  101.3150   29.1900 H   0  0  0  0  0  0  0  0  0  0  0  0
  2  1  1  0  0  0  0
  3  2  2  0  0  0  0
  3 25  1  0  0  0  0
  4  3  1  0  0  0  0
  5 23  1  0  0  0  0
  5  4  1  0  0  0  0
  6  7  1  0  0  0  0
  6  5  2  0  0  0  0
  7  8  2  0  0  0  0
  8  4  1  0  0  0  0
  8 26  1  0  0  0  0
  9  7  1  0  0  0  0
  9 27  1  0  0  0  0
 10  9  1  0  0  0  0
 11 10  1  0  0  0  0
 11 13  1  0  0  0  0
 12 11  2  0  0  0  0
 13 22  1  0  0  0  0
 13 30  1  1  0  0  0
 14 13  1  0  0  0  0
 14 31  1  0  0  0  0
 15 16  1  0  0  0  0
 15 14  1  0  0  0  0
 16 21  1  0  0  0  0
 17 16  2  0  0  0  0
 18 19  2  0  0  0  0
 18 17  1  0  0  0  0
 19 15  1  0  0  0  0
 20 35  1  0  0  0  0
 20 33  1  0  0  0  0
 20 19  1  0  0  0  0
 21 36  1  0  0  0  0
 21 22  1  0  0  0  0
 22 38  1  0  0  0  0
 22 39  1  0  0  0  0
 23 24  2  0  0  0  0
 24 41  1  0  0  0  0
 24  2  1  0  0  0  0
 28  9  1  0  0  0  0
 29 10  1  0  0  0  0
 32 14  1  0  0  0  0
 34 20  1  0  0  0  0
 37 21  1  0  0  0  0
 40 23  1  0  0  0  0
M  END
>  <Pose>
1

>  <Score>
-5.96

$$$$
