
 OpenBabel03202210083D

 37 40  0  0  1  0  0  0  0  0999 V2000
   53.8050   90.6160   17.6360 B   0  0  0  0  0  0  0  0  0  0  0  0
   54.4170   91.1120   19.3890 C   0  0  0  0  0  0  0  0  0  0  0  0
   53.7870   92.0950   20.1200 C   0  0  0  0  0  0  0  0  0  0  0  0
   54.2080   92.4560   21.3600 N   0  0  0  0  0  0  0  0  0  0  0  0
   53.7900   93.3460   22.2470 N   0  0  0  0  0  0  0  0  0  0  0  0
   54.5440   93.3370   23.3550 C   0  0  0  0  0  0  0  0  0  0  0  0
   55.4980   92.3500   23.1050 C   0  0  0  0  0  0  0  0  0  0  0  0
   55.2780   91.8080   21.8550 C   0  0  0  0  0  0  0  0  0  0  0  0
   55.9060   90.8350   21.1420 N   0  0  0  0  0  0  0  0  0  0  0  0
   55.5090   90.4610   19.9170 C   0  0  0  0  0  0  0  0  0  0  0  0
   54.4400   94.1470   24.5760 C   0  0  0  0  0  0  0  0  0  0  0  0
   53.4360   94.0040   25.3250 O   0  0  0  0  0  0  0  0  0  0  0  0
   55.4280   95.0900   24.9570 N   0  0  0  0  0  0  0  0  0  0  0  0
   55.0570   96.2670   25.6540 C   0  0  0  0  0  0  0  0  0  0  0  0
   55.9800   97.4080   25.4420 C   0  0  2  0  0  0  0  0  0  0  0  0
   57.1120   97.1530   24.5970 N   0  0  2  0  0  0  0  0  0  0  0  0
   57.7670   95.9060   24.9490 C   0  0  0  0  0  0  0  0  0  0  0  0
   56.7920   94.7960   24.6070 C   0  0  0  0  0  0  0  0  0  0  0  0
   57.9270   98.3170   24.7630 C   0  0  0  0  0  0  0  0  0  0  0  0
   57.7940   98.6980   26.2160 C   0  0  0  0  0  0  0  0  0  0  0  0
   56.6330   97.8760   26.7310 C   0  0  0  0  0  0  0  0  0  0  0  0
   52.9330   92.5890   19.6850 H   0  0  0  0  0  0  0  0  0  0  0  0
   56.2670   92.0950   23.8190 H   0  0  0  0  0  0  0  0  0  0  0  0
   56.0210   89.6770   19.3510 H   0  0  0  0  0  0  0  0  0  0  0  0
   54.9760   96.0460   26.7460 H   0  0  0  0  0  0  0  0  0  0  0  0
   54.0010   96.5620   25.3650 H   0  0  0  0  0  0  0  0  0  0  0  0
   55.4340   98.2710   24.9950 H   0  0  0  0  0  0  0  0  0  0  0  0
   58.6480   95.8030   24.2890 H   0  0  0  0  0  0  0  0  0  0  0  0
   58.1200   95.8710   25.9870 H   0  0  0  0  0  0  0  0  0  0  0  0
   57.0870   93.8530   25.1100 H   0  0  0  0  0  0  0  0  0  0  0  0
   56.8730   94.5810   23.4950 H   0  0  0  0  0  0  0  0  0  0  0  0
   57.4780   99.1230   24.1160 H   0  0  0  0  0  0  0  0  0  0  0  0
   58.9830   98.1610   24.4690 H   0  0  0  0  0  0  0  0  0  0  0  0
   58.7430   98.4740   26.7440 H   0  0  0  0  0  0  0  0  0  0  0  0
   57.6070   99.7860   26.3350 H   0  0  0  0  0  0  0  0  0  0  0  0
   55.9300   98.4580   27.3420 H   0  0  0  0  0  0  0  0  0  0  0  0
   56.9840   96.9840   27.2850 H   0  0  0  0  0  0  0  0  0  0  0  0
  1  2  1  0  0  0  0
  2 10  1  0  0  0  0
  2  3  2  0  0  0  0
  3  4  1  0  0  0  0
  4  8  1  0  0  0  0
  4  5  1  0  0  0  0
  5  6  2  0  0  0  0
  6 11  1  0  0  0  0
  7  6  1  0  0  0  0
  7 23  1  0  0  0  0
  8  7  2  0  0  0  0
  9  8  1  0  0  0  0
 10  9  2  0  0  0  0
 11 13  1  0  0  0  0
 11 12  2  0  0  0  0
 13 14  1  0  0  0  0
 14 25  1  0  0  0  0
 15 27  1  6  0  0  0
 15 14  1  0  0  0  0
 15 21  1  0  0  0  0
 16 19  1  1  0  0  0
 16 17  1  0  0  0  0
 16 15  1  0  0  0  0
 17 29  1  0  0  0  0
 18 17  1  0  0  0  0
 18 13  1  0  0  0  0
 18 30  1  0  0  0  0
 19 20  1  0  0  0  0
 20 35  1  0  0  0  0
 20 21  1  0  0  0  0
 20 34  1  0  0  0  0
 21 37  1  0  0  0  0
 21 36  1  0  0  0  0
 22  3  1  0  0  0  0
 24 10  1  0  0  0  0
 26 14  1  0  0  0  0
 28 17  1  0  0  0  0
 31 18  1  0  0  0  0
 32 19  1  0  0  0  0
 33 19  1  0  0  0  0
M  END
>  <Pose>
1

>  <Score>
-7.16

$$$$
