
 OpenBabel03202210083D

 40 43  0  0  0  0  0  0  0  0999 V2000
   52.6890   99.3140   28.3160 B   0  0  0  0  0  0  0  0  0  0  0  0
   53.1910   97.6610   27.4820 C   0  0  0  0  0  0  0  0  0  0  0  0
   54.3710   97.5330   26.7840 C   0  0  0  0  0  0  0  0  0  0  0  0
   54.7590   96.3870   26.1830 N   0  0  0  0  0  0  0  0  0  0  0  0
   54.0000   95.2780   26.2300 C   0  0  0  0  0  0  0  0  0  0  0  0
   54.3690   94.1290   25.6380 N   0  0  0  0  0  0  0  0  0  0  0  0
   55.5290   93.9970   24.9510 C   0  0  0  0  0  0  0  0  0  0  0  0
   56.3230   95.1230   24.8880 C   0  0  0  0  0  0  0  0  0  0  0  0
   55.9240   96.3040   25.5080 C   0  0  0  0  0  0  0  0  0  0  0  0
   56.6310   97.3220   25.4580 O   0  0  0  0  0  0  0  0  0  0  0  0
   55.9140   92.7130   24.3100 C   0  0  0  0  0  0  0  0  0  0  0  0
   54.9130   92.1700   23.4900 O   0  0  0  0  0  0  0  0  0  0  0  0
   54.7380   92.4440   22.1500 C   0  0  0  0  0  0  0  0  0  0  0  0
   53.8940   93.2940   21.7990 O   0  0  0  0  0  0  0  0  0  0  0  0
   55.5660   91.7160   21.1610 C   0  0  0  0  0  0  0  0  0  0  0  0
   54.8350   90.6280   20.5780 N   0  0  0  0  0  0  0  0  0  0  0  0
   53.8100   90.7350   19.6150 C   0  0  0  0  0  0  0  0  0  0  0  0
   53.3270   91.7630   19.0750 O   0  0  0  0  0  0  0  0  0  0  0  0
   53.3350   89.3720   19.2940 C   0  0  0  0  0  0  0  0  0  0  0  0
   54.0630   88.4910   20.0480 C   0  0  0  0  0  0  0  0  0  0  0  0
   53.8560   87.1440   19.9740 C   0  0  0  0  0  0  0  0  0  0  0  0
   52.8900   86.6740   19.1180 C   0  0  0  0  0  0  0  0  0  0  0  0
   52.1550   87.5620   18.3560 C   0  0  0  0  0  0  0  0  0  0  0  0
   52.3560   88.9240   18.4230 C   0  0  0  0  0  0  0  0  0  0  0  0
   55.0100   89.2580   20.8600 C   0  0  0  0  0  0  0  0  0  0  0  0
   55.8360   88.7420   21.6730 O   0  0  0  0  0  0  0  0  0  0  0  0
   52.7960   95.3770   26.9330 C   0  0  0  0  0  0  0  0  0  0  0  0
   52.3900   96.5410   27.5490 C   0  0  0  0  0  0  0  0  0  0  0  0
   55.0070   98.4190   26.7290 H   0  0  0  0  0  0  0  0  0  0  0  0
   57.2770   95.0880   24.3510 H   0  0  0  0  0  0  0  0  0  0  0  0
   56.8320   92.8280   23.7000 H   0  0  0  0  0  0  0  0  0  0  0  0
   56.1620   91.9350   25.0850 H   0  0  0  0  0  0  0  0  0  0  0  0
   56.4120   91.2680   21.7570 H   0  0  0  0  0  0  0  0  0  0  0  0
   55.9980   92.4000   20.3980 H   0  0  0  0  0  0  0  0  0  0  0  0
   54.4340   86.4620   20.5710 H   0  0  0  0  0  0  0  0  0  0  0  0
   52.7430   85.6060   19.0750 H   0  0  0  0  0  0  0  0  0  0  0  0
   51.4090   87.1330   17.7010 H   0  0  0  0  0  0  0  0  0  0  0  0
   51.7870   89.6220   17.8330 H   0  0  0  0  0  0  0  0  0  0  0  0
   52.1950   94.4850   26.9660 H   0  0  0  0  0  0  0  0  0  0  0  0
   51.4570   96.6130   28.0910 H   0  0  0  0  0  0  0  0  0  0  0  0
  2 28  2  0  0  0  0
  2  1  1  0  0  0  0
  3  2  1  0  0  0  0
  4  5  1  0  0  0  0
  4  3  1  0  0  0  0
  5 27  2  0  0  0  0
  6  5  1  0  0  0  0
  7  6  2  0  0  0  0
  8  7  1  0  0  0  0
  8  9  1  0  0  0  0
  9  4  1  0  0  0  0
 10  9  2  0  0  0  0
 11  7  1  0  0  0  0
 11 32  1  0  0  0  0
 12 11  1  0  0  0  0
 13 12  1  0  0  0  0
 14 13  2  0  0  0  0
 15 33  1  0  0  0  0
 15 13  1  0  0  0  0
 16 25  1  0  0  0  0
 16 15  1  0  0  0  0
 17 16  1  0  0  0  0
 18 17  2  0  0  0  0
 19 17  1  0  0  0  0
 19 20  1  0  0  0  0
 20 25  1  0  0  0  0
 21 20  2  0  0  0  0
 21 35  1  0  0  0  0
 22 21  1  0  0  0  0
 23 24  1  0  0  0  0
 23 22  2  0  0  0  0
 24 19  2  0  0  0  0
 25 26  2  0  0  0  0
 27 39  1  0  0  0  0
 27 28  1  0  0  0  0
 28 40  1  0  0  0  0
 29  3  1  0  0  0  0
 30  8  1  0  0  0  0
 31 11  1  0  0  0  0
 34 15  1  0  0  0  0
 36 22  1  0  0  0  0
 37 23  1  0  0  0  0
 38 24  1  0  0  0  0
M  END
>  <Pose>
1

>  <Score>
-6.26

$$$$
