
 OpenBabel03202210083D

 53 56  0  0  1  0  0  0  0  0999 V2000
   53.9910   91.1990   18.2830 B   0  0  0  0  0  0  0  0  0  0  0  0
   53.4180   89.4790   18.8300 C   0  0  0  0  0  0  0  0  0  0  0  0
   52.3350   88.8920   18.2030 C   0  0  0  0  0  0  0  0  0  0  0  0
   51.9060   87.6370   18.5810 C   0  0  0  0  0  0  0  0  0  0  0  0
   52.5470   86.9500   19.5850 C   0  0  0  0  0  0  0  0  0  0  0  0
   53.6140   87.5310   20.2020 C   0  0  0  0  0  0  0  0  0  0  0  0
   54.0660   88.8050   19.8340 C   0  0  0  0  0  0  0  0  0  0  0  0
   52.1160   85.5960   20.0340 C   0  0  2  0  0  0  0  0  0  0  0  0
   53.2530   84.8360   20.5500 N   0  0  0  0  0  4  0  0  0  0  0  0
   53.7130   83.9770   19.5820 C   0  0  0  0  0  0  0  0  0  0  0  0
   54.4750   82.9180   19.6930 C   0  0  0  0  0  0  0  0  0  0  0  0
   55.0340   81.9300   18.7250 C   0  0  0  0  0  0  0  0  0  0  0  0
   54.5030   82.0670   17.3330 C   0  0  0  0  0  0  0  0  0  0  0  0
   54.7480   83.4500   16.7770 C   0  0  0  0  0  0  0  0  0  0  0  0
   53.5160   84.3110   16.9710 C   0  0  0  0  0  0  0  0  0  0  0  0
   53.0950   84.3680   18.3340 N   0  0  0  0  0  0  0  0  0  0  0  0
   51.7680   84.8930   18.6830 C   0  0  0  0  0  0  0  0  0  0  0  0
   54.0420   85.4770   21.4680 C   0  0  0  0  0  0  0  0  0  0  0  0
   55.1900   86.1570   21.1940 C   0  0  0  0  0  0  0  0  0  0  0  0
   56.0480   86.6450   22.1940 C   0  0  0  0  0  0  0  0  0  0  0  0
   55.7590   86.4530   23.5200 C   0  0  0  0  0  0  0  0  0  0  0  0
   54.5910   85.7630   23.8080 C   0  0  0  0  0  0  0  0  0  0  0  0
   53.7530   85.2850   22.8230 C   0  0  0  0  0  0  0  0  0  0  0  0
   56.5980   86.9160   24.5200 O   0  0  0  0  0  0  0  0  0  0  0  0
   57.9920   86.7420   24.5550 C   0  0  0  0  0  0  0  0  0  0  0  0
   58.5170   87.8080   25.5360 C   0  0  0  0  0  0  0  0  0  0  0  0
   51.0270   85.5290   20.8130 O   0  0  0  0  0  0  0  0  0  0  0  0
   51.7960   89.3790   17.4060 H   0  0  0  0  0  0  0  0  0  0  0  0
   51.0480   87.2200   18.0460 H   0  0  0  0  0  0  0  0  0  0  0  0
   54.1190   87.0070   20.9880 H   0  0  0  0  0  0  0  0  0  0  0  0
   54.9160   89.2750   20.3130 H   0  0  0  0  0  0  0  0  0  0  0  0
   52.6740   84.1160   21.2170 H   0  0  0  0  0  0  0  0  0  0  0  0
   54.7510   82.6370   20.7070 H   0  0  0  0  0  0  0  0  0  0  0  0
   54.8120   80.9100   19.0840 H   0  0  0  0  0  0  0  0  0  0  0  0
   56.1400   82.1170   18.6630 H   0  0  0  0  0  0  0  0  0  0  0  0
   53.4850   81.7180   17.2140 H   0  0  0  0  0  0  0  0  0  0  0  0
   55.1390   81.3770   16.7020 H   0  0  0  0  0  0  0  0  0  0  0  0
   55.6440   83.8830   17.2050 H   0  0  0  0  0  0  0  0  0  0  0  0
   54.8940   83.3700   15.6560 H   0  0  0  0  0  0  0  0  0  0  0  0
   53.6120   85.2730   16.4470 H   0  0  0  0  0  0  0  0  0  0  0  0
   52.6990   83.7540   16.4160 H   0  0  0  0  0  0  0  0  0  0  0  0
   51.0670   84.0740   18.8240 H   0  0  0  0  0  0  0  0  0  0  0  0
   51.4730   85.6230   17.9380 H   0  0  0  0  0  0  0  0  0  0  0  0
   55.4910   86.3910   20.1920 H   0  0  0  0  0  0  0  0  0  0  0  0
   56.9400   87.1640   21.8990 H   0  0  0  0  0  0  0  0  0  0  0  0
   54.2850   85.5740   24.8460 H   0  0  0  0  0  0  0  0  0  0  0  0
   52.8580   84.7280   23.1420 H   0  0  0  0  0  0  0  0  0  0  0  0
   58.4450   86.9580   23.5310 H   0  0  0  0  0  0  0  0  0  0  0  0
   58.2880   85.7240   24.8220 H   0  0  0  0  0  0  0  0  0  0  0  0
   58.8180   87.2210   26.4230 H   0  0  0  0  0  0  0  0  0  0  0  0
   57.7100   88.4970   25.8380 H   0  0  0  0  0  0  0  0  0  0  0  0
   59.3240   88.4160   25.1020 H   0  0  0  0  0  0  0  0  0  0  0  0
   50.9060   86.1430   21.5520 H   0  0  0  0  0  0  0  0  0  0  0  0
  1  2  1  0  0  0  0
  2  7  1  0  0  0  0
  3  4  1  0  0  0  0
  3  2  2  0  0  0  0
  4  5  2  0  0  0  0
  5  8  1  0  0  0  0
  5  6  1  0  0  0  0
  6 30  1  0  0  0  0
  7  6  2  0  0  0  0
  7 31  1  0  0  0  0
  8  9  1  0  0  0  0
  8 27  1  1  0  0  0
  9 32  1  0  0  0  0
  9 18  1  0  0  0  0
 10 11  2  0  0  0  0
 10  9  1  0  0  0  0
 11 33  1  0  0  0  0
 12 34  1  0  0  0  0
 12 11  1  0  0  0  0
 13 12  1  0  0  0  0
 14 15  1  0  0  0  0
 14 38  1  0  0  0  0
 14 13  1  0  0  0  0
 15 16  1  0  0  0  0
 16 17  1  0  0  0  0
 16 10  1  0  0  0  0
 17 42  1  0  0  0  0
 17  8  1  0  0  0  0
 18 23  1  0  0  0  0
 19 18  2  0  0  0  0
 19 20  1  0  0  0  0
 20 21  2  0  0  0  0
 21 22  1  0  0  0  0
 21 24  1  0  0  0  0
 22 46  1  0  0  0  0
 23 47  1  0  0  0  0
 23 22  2  0  0  0  0
 24 25  1  0  0  0  0
 25 49  1  0  0  0  0
 25 26  1  0  0  0  0
 26 51  1  0  0  0  0
 26 50  1  0  0  0  0
 27 53  1  0  0  0  0
 28  3  1  0  0  0  0
 29  4  1  0  0  0  0
 35 12  1  0  0  0  0
 36 13  1  0  0  0  0
 37 13  1  0  0  0  0
 39 14  1  0  0  0  0
 40 15  1  0  0  0  0
 41 15  1  0  0  0  0
 43 17  1  0  0  0  0
 44 19  1  0  0  0  0
 45 20  1  0  0  0  0
 48 25  1  0  0  0  0
 52 26  1  0  0  0  0
M  END
>  <Pose>
1

>  <Score>
-5.53

$$$$
