
 OpenBabel03202210083D

 50 53  0  0  1  0  0  0  0  0999 V2000
   55.9500   89.8210   20.6270 B   0  0  0  0  0  0  0  0  0  0  0  0
   55.3190   88.3570   21.6860 C   0  0  0  0  0  0  0  0  0  0  0  0
   54.5810   87.3380   21.1240 C   0  0  0  0  0  0  0  0  0  0  0  0
   54.1290   86.2860   21.9110 C   0  0  0  0  0  0  0  0  0  0  0  0
   54.3880   86.2140   23.2390 C   0  0  0  0  0  0  0  0  0  0  0  0
   55.1420   87.2550   23.8200 C   0  0  0  0  0  0  0  0  0  0  0  0
   55.5830   88.2880   23.0330 C   0  0  0  0  0  0  0  0  0  0  0  0
   53.9770   85.1770   24.1830 C   0  0  2  0  0  0  0  0  0  0  0  0
   53.1730   84.1050   23.6920 N   0  0  0  0  0  0  0  0  0  0  0  0
   53.4940   83.1640   22.6630 C   0  0  0  0  0  0  0  0  0  0  0  0
   52.4580   82.8900   21.6430 C   0  0  0  0  0  0  0  0  0  0  0  0
   51.1500   83.5780   21.7980 C   0  0  0  0  0  0  0  0  0  0  0  0
   50.3260   83.0010   22.9490 C   0  0  0  0  0  0  0  0  0  0  0  0
   50.7670   83.7130   24.1880 C   0  0  0  0  0  0  0  0  0  0  0  0
   51.9660   84.1770   24.4970 C   0  0  0  0  0  0  0  0  0  0  0  0
   52.2680   84.8590   25.7080 N   0  0  0  0  0  4  0  0  0  0  0  0
   53.1080   85.9090   25.2110 C   0  0  0  0  0  0  0  0  0  0  0  0
   52.9250   83.9780   26.5820 C   0  0  0  0  0  0  0  0  0  0  0  0
   53.0020   82.6030   26.2940 C   0  0  0  0  0  0  0  0  0  0  0  0
   53.6310   81.7180   27.1270 C   0  0  0  0  0  0  0  0  0  0  0  0
   54.2240   82.1450   28.2970 C   0  0  0  0  0  0  0  0  0  0  0  0
   54.1630   83.4810   28.5980 C   0  0  0  0  0  0  0  0  0  0  0  0
   53.5270   84.3720   27.7590 C   0  0  0  0  0  0  0  0  0  0  0  0
   54.8700   81.2270   29.1470 O   0  0  0  0  0  0  0  0  0  0  0  0
   54.8810   81.4420   30.5330 C   0  0  0  0  0  0  0  0  0  0  0  0
   55.1620   84.7220   24.7930 O   0  0  0  0  0  0  0  0  0  0  0  0
   54.3370   87.3300   20.0810 H   0  0  0  0  0  0  0  0  0  0  0  0
   53.5460   85.4930   21.4710 H   0  0  0  0  0  0  0  0  0  0  0  0
   55.3850   87.2560   24.8830 H   0  0  0  0  0  0  0  0  0  0  0  0
   56.1630   89.0950   23.4610 H   0  0  0  0  0  0  0  0  0  0  0  0
   54.4750   83.4890   22.2080 H   0  0  0  0  0  0  0  0  0  0  0  0
   53.7750   82.1470   23.0940 H   0  0  0  0  0  0  0  0  0  0  0  0
   52.2460   81.8040   21.4750 H   0  0  0  0  0  0  0  0  0  0  0  0
   52.8670   83.2290   20.6420 H   0  0  0  0  0  0  0  0  0  0  0  0
   51.2440   84.6820   21.8990 H   0  0  0  0  0  0  0  0  0  0  0  0
   50.5510   83.3980   20.8790 H   0  0  0  0  0  0  0  0  0  0  0  0
   49.2660   83.3280   22.7430 H   0  0  0  0  0  0  0  0  0  0  0  0
   50.4500   81.9230   23.0010 H   0  0  0  0  0  0  0  0  0  0  0  0
   49.9920   83.8670   24.9300 H   0  0  0  0  0  0  0  0  0  0  0  0
   51.3650   85.2200   26.1070 H   0  0  0  0  0  0  0  0  0  0  0  0
   53.6680   86.4700   25.9450 H   0  0  0  0  0  0  0  0  0  0  0  0
   52.4540   86.6200   24.6470 H   0  0  0  0  0  0  0  0  0  0  0  0
   52.5320   82.3090   25.3820 H   0  0  0  0  0  0  0  0  0  0  0  0
   53.6830   80.6630   26.8930 H   0  0  0  0  0  0  0  0  0  0  0  0
   54.6370   83.8250   29.5310 H   0  0  0  0  0  0  0  0  0  0  0  0
   53.5110   85.4310   28.0450 H   0  0  0  0  0  0  0  0  0  0  0  0
   53.8840   81.7030   30.9430 H   0  0  0  0  0  0  0  0  0  0  0  0
   55.6210   82.2420   30.7600 H   0  0  0  0  0  0  0  0  0  0  0  0
   55.2090   80.5290   31.0580 H   0  0  0  0  0  0  0  0  0  0  0  0
   55.1670   85.1450   25.6900 H   0  0  0  0  0  0  0  0  0  0  0  0
  1  2  1  0  0  0  0
  2  7  1  0  0  0  0
  3  2  2  0  0  0  0
  3  4  1  0  0  0  0
  4  5  2  0  0  0  0
  5  6  1  0  0  0  0
  5  8  1  0  0  0  0
  6 29  1  0  0  0  0
  7 30  1  0  0  0  0
  7  6  2  0  0  0  0
  8 26  1  1  0  0  0
  8 17  1  0  0  0  0
  9  8  1  0  0  0  0
  9 15  1  0  0  0  0
 10 32  1  0  0  0  0
 10  9  1  0  0  0  0
 11 12  1  0  0  0  0
 11 10  1  0  0  0  0
 12 35  1  0  0  0  0
 12 13  1  0  0  0  0
 13 38  1  0  0  0  0
 13 14  1  0  0  0  0
 14 15  2  0  0  0  0
 14 39  1  0  0  0  0
 15 16  1  0  0  0  0
 16 40  1  0  0  0  0
 16 18  1  0  0  0  0
 17 16  1  0  0  0  0
 17 41  1  0  0  0  0
 18 23  1  0  0  0  0
 19 18  2  0  0  0  0
 19 20  1  0  0  0  0
 20 21  2  0  0  0  0
 21 22  1  0  0  0  0
 21 24  1  0  0  0  0
 22 45  1  0  0  0  0
 23 46  1  0  0  0  0
 23 22  2  0  0  0  0
 24 25  1  0  0  0  0
 25 48  1  0  0  0  0
 25 47  1  0  0  0  0
 25 49  1  0  0  0  0
 26 50  1  0  0  0  0
 27  3  1  0  0  0  0
 28  4  1  0  0  0  0
 31 10  1  0  0  0  0
 33 11  1  0  0  0  0
 34 11  1  0  0  0  0
 36 12  1  0  0  0  0
 37 13  1  0  0  0  0
 42 17  1  0  0  0  0
 43 19  1  0  0  0  0
 44 20  1  0  0  0  0
M  END
>  <Pose>
1

>  <Score>
-4.36

$$$$
