
 OpenBabel03202210083D

 47 50  0  0  1  0  0  0  0  0999 V2000
   58.4890   87.2410   25.3240 B   0  0  0  0  0  0  0  0  0  0  0  0
   57.2130   87.6880   23.9610 C   0  0  0  0  0  0  0  0  0  0  0  0
   57.0750   86.8590   22.8710 C   0  0  0  0  0  0  0  0  0  0  0  0
   56.1410   87.1900   21.8900 C   0  0  0  0  0  0  0  0  0  0  0  0
   55.3490   88.3160   21.9670 C   0  0  0  0  0  0  0  0  0  0  0  0
   55.5060   89.1320   23.0710 C   0  0  0  0  0  0  0  0  0  0  0  0
   56.4270   88.8170   24.0530 C   0  0  0  0  0  0  0  0  0  0  0  0
   54.3820   88.6160   20.8830 C   0  0  2  0  0  0  0  0  0  0  0  0
   53.7350   87.4350   20.3540 N   0  0  0  0  0  0  0  0  0  0  0  0
   53.3610   86.1170   20.8230 C   0  0  0  0  0  0  0  0  0  0  0  0
   52.0640   85.6360   20.2050 C   0  0  0  0  0  0  0  0  0  0  0  0
   52.2250   85.6320   18.7220 C   0  0  0  0  0  0  0  0  0  0  0  0
   52.7380   86.9270   18.2260 C   0  0  0  0  0  0  0  0  0  0  0  0
   53.4420   87.7600   18.9970 C   0  0  0  0  0  0  0  0  0  0  0  0
   54.0040   89.0030   18.6390 N   0  0  0  0  0  4  0  0  0  0  0  0
   55.0520   89.1830   19.6650 C   0  0  0  0  0  0  0  0  0  0  0  0
   53.1490   90.0990   18.5950 C   0  0  0  0  0  0  0  0  0  0  0  0
   51.7930   90.0140   18.7900 C   0  0  0  0  0  0  0  0  0  0  0  0
   50.9910   91.1550   18.7130 C   0  0  0  0  0  0  0  0  0  0  0  0
   51.5370   92.3830   18.4420 C   0  0  0  0  0  0  0  0  0  0  0  0
   52.8980   92.4780   18.2460 C   0  0  0  0  0  0  0  0  0  0  0  0
   53.6810   91.3530   18.3240 C   0  0  0  0  0  0  0  0  0  0  0  0
   51.1590   88.8200   19.0690 O   0  0  0  0  0  0  0  0  0  0  0  0
   50.4570   88.6360   20.2530 C   0  0  0  0  0  0  0  0  0  0  0  0
   53.4760   89.5600   21.3550 O   0  0  0  0  0  0  0  0  0  0  0  0
   57.6650   85.9390   22.7390 H   0  0  0  0  0  0  0  0  0  0  0  0
   56.0070   86.5490   21.0070 H   0  0  0  0  0  0  0  0  0  0  0  0
   54.8760   90.0300   23.1300 H   0  0  0  0  0  0  0  0  0  0  0  0
   56.5430   89.4620   24.9150 H   0  0  0  0  0  0  0  0  0  0  0  0
   54.1500   85.3970   20.4600 H   0  0  0  0  0  0  0  0  0  0  0  0
   53.3190   86.0800   21.9330 H   0  0  0  0  0  0  0  0  0  0  0  0
   51.1860   86.1770   20.5900 H   0  0  0  0  0  0  0  0  0  0  0  0
   51.9450   84.5690   20.5310 H   0  0  0  0  0  0  0  0  0  0  0  0
   51.3090   85.3040   18.1890 H   0  0  0  0  0  0  0  0  0  0  0  0
   53.0390   84.8830   18.4980 H   0  0  0  0  0  0  0  0  0  0  0  0
   52.5100   87.1740   17.1870 H   0  0  0  0  0  0  0  0  0  0  0  0
   54.5850   88.9160   17.7410 H   0  0  0  0  0  0  0  0  0  0  0  0
   55.9250   88.5820   19.4150 H   0  0  0  0  0  0  0  0  0  0  0  0
   55.2670   90.2620   19.7580 H   0  0  0  0  0  0  0  0  0  0  0  0
   49.9200   91.1360   18.8560 H   0  0  0  0  0  0  0  0  0  0  0  0
   50.9450   93.3100   18.3750 H   0  0  0  0  0  0  0  0  0  0  0  0
   53.3150   93.4530   18.0390 H   0  0  0  0  0  0  0  0  0  0  0  0
   54.7330   91.4320   18.1700 H   0  0  0  0  0  0  0  0  0  0  0  0
   50.9770   88.9810   21.1800 H   0  0  0  0  0  0  0  0  0  0  0  0
   50.2350   87.5380   20.4610 H   0  0  0  0  0  0  0  0  0  0  0  0
   49.4610   89.1470   20.2040 H   0  0  0  0  0  0  0  0  0  0  0  0
   53.1850   90.0890   20.5740 H   0  0  0  0  0  0  0  0  0  0  0  0
  2  7  1  0  0  0  0
  2  1  1  0  0  0  0
  3  2  2  0  0  0  0
  4  5  2  0  0  0  0
  4  3  1  0  0  0  0
  5  6  1  0  0  0  0
  6 28  1  0  0  0  0
  6  7  2  0  0  0  0
  7 29  1  0  0  0  0
  8 25  1  1  0  0  0
  8  5  1  0  0  0  0
  9 10  1  0  0  0  0
  9  8  1  0  0  0  0
 10 31  1  0  0  0  0
 11 33  1  0  0  0  0
 11 32  1  0  0  0  0
 11 10  1  0  0  0  0
 12 11  1  0  0  0  0
 13 12  1  0  0  0  0
 13 14  2  0  0  0  0
 14  9  1  0  0  0  0
 15 14  1  0  0  0  0
 15 16  1  0  0  0  0
 16 39  1  0  0  0  0
 16  8  1  0  0  0  0
 17 15  1  0  0  0  0
 17 18  1  0  0  0  0
 18 23  1  0  0  0  0
 19 18  2  0  0  0  0
 19 40  1  0  0  0  0
 20 19  1  0  0  0  0
 21 22  1  0  0  0  0
 21 20  2  0  0  0  0
 22 17  2  0  0  0  0
 23 24  1  0  0  0  0
 24 45  1  0  0  0  0
 24 44  1  0  0  0  0
 26  3  1  0  0  0  0
 27  4  1  0  0  0  0
 30 10  1  0  0  0  0
 34 12  1  0  0  0  0
 35 12  1  0  0  0  0
 36 13  1  0  0  0  0
 37 15  1  0  0  0  0
 38 16  1  0  0  0  0
 41 20  1  0  0  0  0
 42 21  1  0  0  0  0
 43 22  1  0  0  0  0
 46 24  1  0  0  0  0
 47 25  1  0  0  0  0
M  END
>  <Pose>
1

>  <Score>
-4.68

$$$$
