
 OpenBabel03202210083D

 56 59  0  0  1  0  0  0  0  0999 V2000
   55.2780   80.7330   19.5390 B   0  0  0  0  0  0  0  0  0  0  0  0
   54.1290   82.2420   19.4160 C   0  0  0  0  0  0  0  0  0  0  0  0
   53.3200   82.5950   20.4920 C   0  0  0  0  0  0  0  0  0  0  0  0
   52.4920   83.6810   20.4030 C   0  0  0  0  0  0  0  0  0  0  0  0
   52.4530   84.4310   19.2480 C   0  0  0  0  0  0  0  0  0  0  0  0
   53.2610   84.0680   18.1920 C   0  0  0  0  0  0  0  0  0  0  0  0
   54.1050   82.9820   18.2480 C   0  0  0  0  0  0  0  0  0  0  0  0
   51.5840   85.5670   19.1490 N   0  0  0  0  0  0  0  0  0  0  0  0
   51.9280   86.7520   18.3890 C   0  0  0  0  0  0  0  0  0  0  0  0
   52.8930   87.6400   19.1130 C   0  0  0  0  0  0  0  0  0  0  0  0
   53.1270   88.9540   18.9670 N   0  0  0  0  0  0  0  0  0  0  0  0
   54.0860   89.3060   19.8440 C   0  0  1  0  0  0  0  0  0  0  0  0
   54.4540   88.1850   20.5480 N   0  0  0  0  0  0  0  0  0  0  0  0
   53.7100   87.1990   20.0770 N   0  0  0  0  0  0  0  0  0  0  0  0
   55.4490   88.0480   21.5370 C   0  0  0  0  0  0  0  0  0  0  0  0
   55.5570   86.7940   22.2340 C   0  0  1  0  0  0  0  0  0  0  0  0
   56.0970   85.8350   21.4800 O   0  0  0  0  0  0  0  0  0  0  0  0
   55.2160   86.3430   23.5540 C   0  0  0  0  0  0  0  0  0  0  0  0
   53.9290   85.8300   23.8260 C   0  0  0  0  0  0  0  0  0  0  0  0
   53.5490   85.3920   25.0670 C   0  0  0  0  0  0  0  0  0  0  0  0
   54.4220   85.4330   26.1250 C   0  0  0  0  0  0  0  0  0  0  0  0
   55.6800   85.9240   25.9050 C   0  0  0  0  0  0  0  0  0  0  0  0
   56.0560   86.3710   24.6250 C   0  0  0  0  0  0  0  0  0  0  0  0
   54.0340   84.9870   27.3870 O   0  0  0  0  0  0  0  0  0  0  0  0
   54.4480   83.7490   27.9100 C   0  0  0  0  0  0  0  0  0  0  0  0
   54.7450   90.5830   20.1360 C   0  0  0  0  0  0  0  0  0  0  0  0
   53.8740   91.8000   19.9730 C   0  0  0  0  0  0  0  0  0  0  0  0
   53.3630   91.9920   18.5830 C   0  0  0  0  0  0  0  0  0  0  0  0
   52.1130   91.1540   18.4490 C   0  0  0  0  0  0  0  0  0  0  0  0
   52.4240   89.7440   18.0100 C   0  0  0  0  0  0  0  0  0  0  0  0
   53.3830   81.9700   21.3870 H   0  0  0  0  0  0  0  0  0  0  0  0
   51.8750   83.9470   21.2330 H   0  0  0  0  0  0  0  0  0  0  0  0
   53.2340   84.6500   17.2920 H   0  0  0  0  0  0  0  0  0  0  0  0
   54.7500   82.6760   17.4350 H   0  0  0  0  0  0  0  0  0  0  0  0
   50.6760   85.5000   19.6590 H   0  0  0  0  0  0  0  0  0  0  0  0
   52.3330   86.4820   17.3750 H   0  0  0  0  0  0  0  0  0  0  0  0
   50.9920   87.3110   18.1790 H   0  0  0  0  0  0  0  0  0  0  0  0
   55.4140   88.9300   22.2740 H   0  0  0  0  0  0  0  0  0  0  0  0
   56.5000   88.2370   21.0880 H   0  0  0  0  0  0  0  0  0  0  0  0
   53.2370   85.7950   22.9960 H   0  0  0  0  0  0  0  0  0  0  0  0
   52.5420   85.0060   25.2080 H   0  0  0  0  0  0  0  0  0  0  0  0
   56.3810   85.9630   26.7330 H   0  0  0  0  0  0  0  0  0  0  0  0
   57.0400   86.7320   24.5640 H   0  0  0  0  0  0  0  0  0  0  0  0
   54.2460   82.9480   27.1610 H   0  0  0  0  0  0  0  0  0  0  0  0
   53.8230   83.5260   28.8000 H   0  0  0  0  0  0  0  0  0  0  0  0
   55.5150   83.7520   28.2070 H   0  0  0  0  0  0  0  0  0  0  0  0
   55.6400   90.7300   19.4980 H   0  0  0  0  0  0  0  0  0  0  0  0
   55.0680   90.5780   21.1970 H   0  0  0  0  0  0  0  0  0  0  0  0
   54.5120   92.6790   20.2190 H   0  0  0  0  0  0  0  0  0  0  0  0
   53.0340   91.8210   20.6950 H   0  0  0  0  0  0  0  0  0  0  0  0
   53.0640   93.0630   18.4490 H   0  0  0  0  0  0  0  0  0  0  0  0
   54.0740   91.6770   17.8150 H   0  0  0  0  0  0  0  0  0  0  0  0
   51.5000   91.6110   17.6450 H   0  0  0  0  0  0  0  0  0  0  0  0
   51.4840   91.1760   19.3710 H   0  0  0  0  0  0  0  0  0  0  0  0
   53.0380   89.8300   17.0900 H   0  0  0  0  0  0  0  0  0  0  0  0
   51.4410   89.2670   17.8170 H   0  0  0  0  0  0  0  0  0  0  0  0
  2  1  1  0  0  0  0
  2  3  1  0  0  0  0
  3 31  1  0  0  0  0
  4  3  2  0  0  0  0
  4 32  1  0  0  0  0
  5  4  1  0  0  0  0
  6  7  1  0  0  0  0
  6  5  2  0  0  0  0
  7  2  2  0  0  0  0
  8  5  1  0  0  0  0
  8 35  1  0  0  0  0
  9 10  1  0  0  0  0
  9  8  1  0  0  0  0
 10 14  2  0  0  0  0
 11 10  1  0  0  0  0
 12 11  1  6  0  0  0
 12 26  1  0  0  0  0
 12 13  1  0  0  0  0
 13 15  1  0  0  0  0
 14 13  1  0  0  0  0
 15 16  1  0  0  0  0
 15 38  1  0  0  0  0
 16 17  1  1  0  0  0
 16 18  1  0  0  0  0
 18 19  2  0  0  0  0
 18 23  1  0  0  0  0
 19 20  1  0  0  0  0
 20 41  1  0  0  0  0
 20 21  2  0  0  0  0
 21 24  1  0  0  0  0
 22 21  1  0  0  0  0
 22 42  1  0  0  0  0
 23 22  2  0  0  0  0
 24 25  1  0  0  0  0
 25 46  1  0  0  0  0
 25 45  1  0  0  0  0
 26 48  1  0  0  0  0
 27 26  1  0  0  0  0
 27 49  1  0  0  0  0
 27 50  1  0  0  0  0
 28 27  1  0  0  0  0
 29 28  1  0  0  0  0
 29 54  1  0  0  0  0
 30 29  1  0  0  0  0
 30 11  1  0  0  0  0
 33  6  1  0  0  0  0
 34  7  1  0  0  0  0
 36  9  1  0  0  0  0
 37  9  1  0  0  0  0
 39 15  1  0  0  0  0
 40 19  1  0  0  0  0
 43 23  1  0  0  0  0
 44 25  1  0  0  0  0
 47 26  1  0  0  0  0
 51 28  1  0  0  0  0
 52 28  1  0  0  0  0
 53 29  1  0  0  0  0
 55 30  1  0  0  0  0
 56 30  1  0  0  0  0
M  END
>  <Pose>
1

>  <Score>
-7.63

$$$$
