
 OpenBabel03202210083D

 53 56  0  0  1  0  0  0  0  0999 V2000
   50.4560   80.5500   24.1490 B   0  0  0  0  0  0  0  0  0  0  0  0
   51.1640   82.0950   23.2640 C   0  0  0  0  0  0  0  0  0  0  0  0
   51.6490   83.1700   23.9750 C   0  0  0  0  0  0  0  0  0  0  0  0
   52.1450   84.2880   23.3210 C   0  0  0  0  0  0  0  0  0  0  0  0
   52.1780   84.3820   21.9310 C   0  0  0  0  0  0  0  0  0  0  0  0
   51.6870   83.2920   21.2750 C   0  0  0  0  0  0  0  0  0  0  0  0
   51.1840   82.1580   21.9050 C   0  0  0  0  0  0  0  0  0  0  0  0
   52.6590   85.5330   21.3430 N   0  0  0  0  0  4  0  0  0  0  0  0
   52.6630   85.6060   19.9120 C   0  0  1  0  0  0  0  0  0  0  0  0
   53.8930   84.7490   19.6110 C   0  0  0  0  0  0  0  0  0  0  0  0
   54.8330   85.1400   20.6730 N   0  0  0  0  0  0  0  0  0  0  0  0
   56.2250   84.8900   20.5430 C   0  0  0  0  0  0  0  0  0  0  0  0
   57.0670   85.3970   21.6750 C   0  0  0  0  0  0  0  0  0  0  0  0
   56.7150   86.8320   21.9560 C   0  0  0  0  0  0  0  0  0  0  0  0
   55.7790   86.7820   23.1730 C   0  0  0  0  0  0  0  0  0  0  0  0
   54.4160   86.4650   22.7030 C   0  0  0  0  0  0  0  0  0  0  0  0
   54.0200   85.7570   21.6700 C   0  0  0  0  0  0  0  0  0  0  0  0
   51.5270   85.2470   19.2590 O   0  0  0  0  0  0  0  0  0  0  0  0
   53.0150   86.9710   19.4250 C   0  0  0  0  0  0  0  0  0  0  0  0
   52.8060   87.4300   18.1590 C   0  0  0  0  0  0  0  0  0  0  0  0
   53.1560   88.7380   17.7640 C   0  0  0  0  0  0  0  0  0  0  0  0
   53.7290   89.6130   18.6560 C   0  0  0  0  0  0  0  0  0  0  0  0
   53.9440   89.1610   19.9350 C   0  0  0  0  0  0  0  0  0  0  0  0
   53.6020   87.8830   20.3160 C   0  0  0  0  0  0  0  0  0  0  0  0
   54.0770   90.9190   18.2740 O   0  0  0  0  0  0  0  0  0  0  0  0
   53.4180   92.0430   18.8080 C   0  0  0  0  0  0  0  0  0  0  0  0
   51.9450   92.0230   18.5490 C   0  0  0  0  0  0  0  0  0  0  0  0
   51.6180   83.0790   25.0520 H   0  0  0  0  0  0  0  0  0  0  0  0
   52.5030   85.0820   23.9550 H   0  0  0  0  0  0  0  0  0  0  0  0
   51.6590   83.2650   20.2170 H   0  0  0  0  0  0  0  0  0  0  0  0
   50.8070   81.3240   21.2850 H   0  0  0  0  0  0  0  0  0  0  0  0
   52.0180   86.3140   21.6890 H   0  0  0  0  0  0  0  0  0  0  0  0
   53.7260   83.6900   19.5720 H   0  0  0  0  0  0  0  0  0  0  0  0
   54.4060   85.0320   18.6790 H   0  0  0  0  0  0  0  0  0  0  0  0
   56.3910   83.7950   20.4640 H   0  0  0  0  0  0  0  0  0  0  0  0
   56.5940   85.4190   19.6050 H   0  0  0  0  0  0  0  0  0  0  0  0
   56.8990   84.7310   22.5450 H   0  0  0  0  0  0  0  0  0  0  0  0
   58.1190   85.3820   21.3320 H   0  0  0  0  0  0  0  0  0  0  0  0
   57.5790   87.4810   22.1680 H   0  0  0  0  0  0  0  0  0  0  0  0
   56.1210   87.3140   21.1520 H   0  0  0  0  0  0  0  0  0  0  0  0
   56.0960   86.0050   23.8960 H   0  0  0  0  0  0  0  0  0  0  0  0
   55.8480   87.7640   23.6900 H   0  0  0  0  0  0  0  0  0  0  0  0
   53.6510   86.9210   23.3010 H   0  0  0  0  0  0  0  0  0  0  0  0
   50.7860   85.0310   19.8530 H   0  0  0  0  0  0  0  0  0  0  0  0
   52.3760   86.7770   17.4260 H   0  0  0  0  0  0  0  0  0  0  0  0
   52.9640   89.0370   16.7420 H   0  0  0  0  0  0  0  0  0  0  0  0
   54.3990   89.8850   20.6290 H   0  0  0  0  0  0  0  0  0  0  0  0
   53.7890   87.5410   21.3320 H   0  0  0  0  0  0  0  0  0  0  0  0
   53.8410   92.9400   18.2610 H   0  0  0  0  0  0  0  0  0  0  0  0
   53.6760   92.2460   19.8740 H   0  0  0  0  0  0  0  0  0  0  0  0
   51.6650   91.2450   17.7980 H   0  0  0  0  0  0  0  0  0  0  0  0
   51.5260   92.9910   18.2080 H   0  0  0  0  0  0  0  0  0  0  0  0
   51.4340   91.8370   19.5380 H   0  0  0  0  0  0  0  0  0  0  0  0
  2  3  1  0  0  0  0
  2  1  1  0  0  0  0
  3 28  1  0  0  0  0
  4 29  1  0  0  0  0
  4  3  2  0  0  0  0
  5  4  1  0  0  0  0
  6  7  1  0  0  0  0
  6  5  2  0  0  0  0
  7  2  2  0  0  0  0
  8 17  1  0  0  0  0
  8 32  1  0  0  0  0
  8  5  1  0  0  0  0
  9 18  1  6  0  0  0
  9  8  1  0  0  0  0
 10  9  1  0  0  0  0
 10 11  1  0  0  0  0
 11 17  1  0  0  0  0
 12 11  1  0  0  0  0
 12 13  1  0  0  0  0
 13 14  1  0  0  0  0
 13 37  1  0  0  0  0
 14 39  1  0  0  0  0
 14 15  1  0  0  0  0
 15 42  1  0  0  0  0
 15 41  1  0  0  0  0
 16 15  1  0  0  0  0
 16 43  1  0  0  0  0
 17 16  2  0  0  0  0
 18 44  1  0  0  0  0
 19  9  1  0  0  0  0
 19 24  1  0  0  0  0
 20 19  2  0  0  0  0
 21 20  1  0  0  0  0
 21 22  2  0  0  0  0
 22 23  1  0  0  0  0
 23 24  2  0  0  0  0
 23 47  1  0  0  0  0
 24 48  1  0  0  0  0
 25 22  1  0  0  0  0
 25 26  1  0  0  0  0
 26 50  1  0  0  0  0
 27 26  1  0  0  0  0
 27 53  1  0  0  0  0
 30  6  1  0  0  0  0
 31  7  1  0  0  0  0
 33 10  1  0  0  0  0
 34 10  1  0  0  0  0
 35 12  1  0  0  0  0
 36 12  1  0  0  0  0
 38 13  1  0  0  0  0
 40 14  1  0  0  0  0
 45 20  1  0  0  0  0
 46 21  1  0  0  0  0
 49 26  1  0  0  0  0
 51 27  1  0  0  0  0
 52 27  1  0  0  0  0
M  END
>  <Pose>
1

>  <Score>
-4.54

$$$$
