
 OpenBabel03202210083D

 60 63  0  0  0  0  0  0  0  0999 V2000
   57.5780   98.4710   25.8350 B   0  0  0  0  0  0  0  0  0  0  0  0
   56.0060   97.4780   26.1570 C   0  0  0  0  0  0  0  0  0  0  0  0
   55.0010   98.0790   26.8730 C   0  0  0  0  0  0  0  0  0  0  0  0
   53.7850   97.4410   27.1740 C   0  0  0  0  0  0  0  0  0  0  0  0
   53.5900   96.1300   26.7240 C   0  0  0  0  0  0  0  0  0  0  0  0
   54.6060   95.5390   26.0070 C   0  0  0  0  0  0  0  0  0  0  0  0
   55.7950   96.1860   25.7210 C   0  0  0  0  0  0  0  0  0  0  0  0
   56.8870   95.5140   24.9370 C   0  0  0  0  0  0  0  0  0  0  0  0
   54.3380   93.7550   25.3930 B   0  0  0  0  0  0  0  0  0  0  0  0
   52.7620   98.1240   27.9420 C   0  0  0  0  0  0  0  0  0  0  0  0
   52.0410   97.4030   28.6760 O   0  0  0  0  0  0  0  0  0  0  0  0
   52.6660   99.5880   27.7880 C   0  0  0  0  0  0  0  0  0  0  0  0
   54.1570   99.9950   28.1790 C   0  0  0  0  0  0  0  0  0  0  0  0
   55.0840   99.3680   27.3680 O   0  0  0  0  0  0  0  0  0  0  0  0
   51.8140  100.2970   28.7230 C   0  0  0  0  0  0  0  0  0  0  0  0
   50.5150  100.0080   29.1080 N   0  0  0  0  0  4  0  0  0  0  0  0
   49.5820   99.3800   28.2560 C   0  0  0  0  0  0  0  0  0  0  0  0
   48.1340   99.7420   28.5600 C   0  0  0  0  0  0  0  0  0  0  0  0
   47.8530  101.1870   28.2920 C   0  0  0  0  0  0  0  0  0  0  0  0
   49.0850  101.9730   28.6200 C   0  0  0  0  0  0  0  0  0  0  0  0
   49.8860  101.2360   29.6430 C   0  0  0  0  0  0  0  0  0  0  0  0
   52.4800   99.9360   26.3610 C   0  0  0  0  0  0  0  0  0  0  0  0
   52.2780  101.2660   25.9620 N   0  0  0  0  0  4  0  0  0  0  0  0
   52.3180  101.3160   24.4940 C   0  0  0  0  0  0  0  0  0  0  0  0
   52.4050  102.7360   23.9750 C   0  0  0  0  0  0  0  0  0  0  0  0
   51.0810  103.4050   24.3780 C   0  0  0  0  0  0  0  0  0  0  0  0
   51.0800  103.3460   25.8880 C   0  0  0  0  0  0  0  0  0  0  0  0
   50.9960  101.8640   26.2940 C   0  0  0  0  0  0  0  0  0  0  0  0
   52.6620   95.6470   26.9570 H   0  0  0  0  0  0  0  0  0  0  0  0
   56.5030   95.4540   23.8860 H   0  0  0  0  0  0  0  0  0  0  0  0
   57.8090   96.0870   25.0200 H   0  0  0  0  0  0  0  0  0  0  0  0
   56.9580   94.4750   25.3160 H   0  0  0  0  0  0  0  0  0  0  0  0
   54.2510   99.5980   29.2100 H   0  0  0  0  0  0  0  0  0  0  0  0
   54.2190  101.0750   28.2110 H   0  0  0  0  0  0  0  0  0  0  0  0
   51.8170  101.4140   28.4490 H   0  0  0  0  0  0  0  0  0  0  0  0
   52.4260  100.3690   29.7070 H   0  0  0  0  0  0  0  0  0  0  0  0
   50.5020   99.4020   30.0310 H   0  0  0  0  0  0  0  0  0  0  0  0
   49.6730   98.2690   28.3540 H   0  0  0  0  0  0  0  0  0  0  0  0
   49.6850   99.5900   27.1890 H   0  0  0  0  0  0  0  0  0  0  0  0
   47.9580   99.5360   29.6260 H   0  0  0  0  0  0  0  0  0  0  0  0
   47.4370   99.1380   27.9730 H   0  0  0  0  0  0  0  0  0  0  0  0
   46.9840  101.5880   28.8280 H   0  0  0  0  0  0  0  0  0  0  0  0
   47.6570  101.2560   27.1800 H   0  0  0  0  0  0  0  0  0  0  0  0
   48.7600  102.9210   29.0990 H   0  0  0  0  0  0  0  0  0  0  0  0
   49.6700  102.2820   27.7340 H   0  0  0  0  0  0  0  0  0  0  0  0
   50.6660  101.8680   30.1490 H   0  0  0  0  0  0  0  0  0  0  0  0
   49.1850  100.9190   30.4320 H   0  0  0  0  0  0  0  0  0  0  0  0
   51.7000   99.2830   25.8880 H   0  0  0  0  0  0  0  0  0  0  0  0
   53.4110   99.5760   25.7560 H   0  0  0  0  0  0  0  0  0  0  0  0
   52.9780  101.9810   26.2470 H   0  0  0  0  0  0  0  0  0  0  0  0
   51.3130  100.9360   24.1480 H   0  0  0  0  0  0  0  0  0  0  0  0
   53.0620  100.6820   24.0400 H   0  0  0  0  0  0  0  0  0  0  0  0
   53.2630  103.2560   24.4340 H   0  0  0  0  0  0  0  0  0  0  0  0
   52.4420  102.6870   22.8890 H   0  0  0  0  0  0  0  0  0  0  0  0
   51.0140  104.4190   23.9860 H   0  0  0  0  0  0  0  0  0  0  0  0
   50.2720  102.7260   24.0340 H   0  0  0  0  0  0  0  0  0  0  0  0
   52.0900  103.6800   26.2600 H   0  0  0  0  0  0  0  0  0  0  0  0
   50.3040  103.9400   26.3710 H   0  0  0  0  0  0  0  0  0  0  0  0
   50.7710  101.9180   27.3680 H   0  0  0  0  0  0  0  0  0  0  0  0
   50.1790  101.4310   25.6930 H   0  0  0  0  0  0  0  0  0  0  0  0
  1  2  1  0  0  0  0
  2  3  1  0  0  0  0
  3  4  2  0  0  0  0
  3 14  1  0  0  0  0
  4 10  1  0  0  0  0
  5 29  1  0  0  0  0
  5  4  1  0  0  0  0
  6  5  2  0  0  0  0
  7  6  1  0  0  0  0
  7  2  2  0  0  0  0
  8 31  1  0  0  0  0
  8 32  1  0  0  0  0
  8  7  1  0  0  0  0
  9  6  1  0  0  0  0
 10 11  2  0  0  0  0
 12 10  1  0  0  0  0
 12 13  1  0  0  0  0
 12 15  1  0  0  0  0
 13 34  1  0  0  0  0
 13 33  1  0  0  0  0
 14 13  1  0  0  0  0
 15 16  1  0  0  0  0
 15 36  1  0  0  0  0
 16 21  1  0  0  0  0
 16 37  1  0  0  0  0
 17 38  1  0  0  0  0
 17 18  1  0  0  0  0
 17 16  1  0  0  0  0
 18 40  1  0  0  0  0
 19 18  1  0  0  0  0
 19 20  1  0  0  0  0
 19 42  1  0  0  0  0
 20 44  1  0  0  0  0
 20 21  1  0  0  0  0
 21 46  1  0  0  0  0
 21 47  1  0  0  0  0
 22 12  1  0  0  0  0
 23 50  1  0  0  0  0
 23 28  1  0  0  0  0
 23 22  1  0  0  0  0
 24 23  1  0  0  0  0
 25 26  1  0  0  0  0
 25 53  1  0  0  0  0
 25 24  1  0  0  0  0
 26 27  1  0  0  0  0
 27 57  1  0  0  0  0
 27 28  1  0  0  0  0
 27 58  1  0  0  0  0
 28 59  1  0  0  0  0
 30  8  1  0  0  0  0
 35 15  1  0  0  0  0
 39 17  1  0  0  0  0
 41 18  1  0  0  0  0
 43 19  1  0  0  0  0
 45 20  1  0  0  0  0
 48 22  1  0  0  0  0
 49 22  1  0  0  0  0
 51 24  1  0  0  0  0
 52 24  1  0  0  0  0
 54 25  1  0  0  0  0
 55 26  1  0  0  0  0
 56 26  1  0  0  0  0
 60 28  1  0  0  0  0
M  END
>  <Pose>
1

>  <Score>
-4.64

$$$$
