
 OpenBabel03202210083D

 50 53  0  0  0  0  0  0  0  0999 V2000
   58.3450   99.0370   26.1510 F   0  0  0  0  0  0  0  0  0  0  0  0
   57.4990   98.0040   25.8830 C   0  0  0  0  0  0  0  0  0  0  0  0
   57.7800   97.0680   24.9090 C   0  0  0  0  0  0  0  0  0  0  0  0
   56.9080   96.0300   24.6540 C   0  0  0  0  0  0  0  0  0  0  0  0
   55.7230   95.8790   25.3540 C   0  0  0  0  0  0  0  0  0  0  0  0
   55.4520   96.8180   26.3260 C   0  0  0  0  0  0  0  0  0  0  0  0
   56.3250   97.8650   26.5860 C   0  0  0  0  0  0  0  0  0  0  0  0
   54.8000   94.7840   25.0890 C   0  0  0  0  0  0  0  0  0  0  0  0
   54.9540   94.0290   24.0600 N   0  0  0  0  0  0  0  0  0  0  0  0
   54.1140   92.9700   23.7460 N   0  0  0  0  0  0  0  0  0  0  0  0
   54.5280   91.9630   22.8430 C   0  0  0  0  0  0  0  0  0  0  0  0
   55.3020   90.9460   23.2810 N   0  0  0  0  0  4  0  0  0  0  0  0
   55.7330   89.9490   22.4690 C   0  0  0  0  0  0  0  0  0  0  0  0
   55.3520   90.0150   21.1910 N   0  0  0  0  0  0  0  0  0  0  0  0
   54.5840   90.9960   20.6860 C   0  0  0  0  0  0  0  0  0  0  0  0
   54.1890   91.9550   21.5420 N   0  0  0  0  0  0  0  0  0  0  0  0
   54.2170   91.0000   19.3130 N   0  0  0  0  0  0  0  0  0  0  0  0
   55.2590   90.9110   18.3090 C   0  0  0  0  0  0  0  0  0  0  0  0
   54.6370   90.9770   16.9310 C   0  0  0  0  0  0  0  0  0  0  0  0
   53.5810   90.1300   16.7480 O   0  0  0  0  0  0  0  0  0  0  0  0
   52.6890   90.0230   17.7800 C   0  0  0  0  0  0  0  0  0  0  0  0
   52.8640   91.0890   18.8490 C   0  0  0  0  0  0  0  0  0  0  0  0
   56.5480   88.9020   22.9830 N   0  0  0  0  0  0  0  0  0  0  0  0
   57.0730   87.8180   22.1860 C   0  0  0  0  0  0  0  0  0  0  0  0
   56.6100   86.5620   22.9220 C   0  0  0  0  0  0  0  0  0  0  0  0
   57.2480   86.4860   24.1040 O   0  0  0  0  0  0  0  0  0  0  0  0
   57.3400   87.5630   24.8940 C   0  0  0  0  0  0  0  0  0  0  0  0
   56.8980   88.8770   24.3840 C   0  0  0  0  0  0  0  0  0  0  0  0
   59.4080   97.2530   23.9270 B   0  0  0  0  0  0  0  0  0  0  0  0
   57.1230   95.2820   23.8820 H   0  0  0  0  0  0  0  0  0  0  0  0
   54.5160   96.7040   26.8840 H   0  0  0  0  0  0  0  0  0  0  0  0
   56.0920   98.5980   27.3580 H   0  0  0  0  0  0  0  0  0  0  0  0
   53.9870   94.6160   25.7670 H   0  0  0  0  0  0  0  0  0  0  0  0
   53.1750   92.9120   24.1720 H   0  0  0  0  0  0  0  0  0  0  0  0
   55.9480   91.8020   18.3720 H   0  0  0  0  0  0  0  0  0  0  0  0
   55.7770   89.9590   18.4540 H   0  0  0  0  0  0  0  0  0  0  0  0
   55.4480   90.6470   16.2190 H   0  0  0  0  0  0  0  0  0  0  0  0
   54.4130   92.0190   16.6520 H   0  0  0  0  0  0  0  0  0  0  0  0
   52.8680   89.0470   18.2960 H   0  0  0  0  0  0  0  0  0  0  0  0
   51.6570   90.0430   17.3600 H   0  0  0  0  0  0  0  0  0  0  0  0
   52.7410   92.0650   18.3310 H   0  0  0  0  0  0  0  0  0  0  0  0
   52.1340   90.9200   19.6420 H   0  0  0  0  0  0  0  0  0  0  0  0
   58.1770   87.8410   22.3000 H   0  0  0  0  0  0  0  0  0  0  0  0
   56.7370   87.8300   21.1410 H   0  0  0  0  0  0  0  0  0  0  0  0
   55.5100   86.6300   23.0160 H   0  0  0  0  0  0  0  0  0  0  0  0
   56.8740   85.6530   22.3110 H   0  0  0  0  0  0  0  0  0  0  0  0
   58.4150   87.6620   25.2320 H   0  0  0  0  0  0  0  0  0  0  0  0
   56.7960   87.3410   25.8620 H   0  0  0  0  0  0  0  0  0  0  0  0
   57.7000   89.6660   24.5010 H   0  0  0  0  0  0  0  0  0  0  0  0
   56.0490   89.2850   25.0090 H   0  0  0  0  0  0  0  0  0  0  0  0
  2  1  1  0  0  0  0
  2  7  1  0  0  0  0
  3  2  2  0  0  0  0
  4  3  1  0  0  0  0
  4  5  2  0  0  0  0
  5  6  1  0  0  0  0
  6  7  2  0  0  0  0
  6 31  1  0  0  0  0
  7 32  1  0  0  0  0
  8  5  1  0  0  0  0
  8 33  1  0  0  0  0
  9  8  2  0  0  0  0
 10  9  1  0  0  0  0
 10 34  1  0  0  0  0
 11 12  2  0  0  0  0
 11 10  1  0  0  0  0
 13 23  1  0  0  0  0
 13 12  2  0  0  0  0
 14 13  1  0  0  0  0
 15 14  2  0  0  0  0
 15 16  1  0  0  0  0
 16 11  1  0  0  0  0
 17 15  1  0  0  0  0
 18 35  1  0  0  0  0
 18 36  1  0  0  0  0
 18 17  1  0  0  0  0
 19 18  1  0  0  0  0
 20 19  1  0  0  0  0
 20 21  1  0  0  0  0
 21 39  1  0  0  0  0
 21 22  1  0  0  0  0
 22 17  1  0  0  0  0
 22 42  1  0  0  0  0
 23 28  1  0  0  0  0
 24 43  1  0  0  0  0
 24 25  1  0  0  0  0
 24 23  1  0  0  0  0
 25 45  1  0  0  0  0
 25 26  1  0  0  0  0
 26 27  1  0  0  0  0
 27 47  1  0  0  0  0
 27 48  1  0  0  0  0
 28 49  1  0  0  0  0
 28 27  1  0  0  0  0
 28 50  1  0  0  0  0
 29  3  1  0  0  0  0
 30  4  1  0  0  0  0
 37 19  1  0  0  0  0
 38 19  1  0  0  0  0
 40 21  1  0  0  0  0
 41 22  1  0  0  0  0
 44 24  1  0  0  0  0
 46 25  1  0  0  0  0
M  END
>  <Pose>
1

>  <Score>
-7.40

$$$$
