
 OpenBabel03202210083D

 39 42  0  0  1  0  0  0  0  0999 V2000
   51.1030   92.1280   17.9770 I   0  0  0  0  0  0  0  0  0  0  0  0
   52.4220   90.6200   18.6170 C   0  0  0  0  0  0  0  0  0  0  0  0
   53.7060   90.9550   19.0510 C   0  0  0  0  0  0  0  0  0  0  0  0
   54.5990   90.0010   19.4780 C   0  0  0  0  0  0  0  0  0  0  0  0
   54.1420   88.6760   19.4500 C   0  0  0  0  0  0  0  0  0  0  0  0
   52.8800   88.3560   19.0210 C   0  0  0  0  0  0  0  0  0  0  0  0
   52.0010   89.3260   18.5990 C   0  0  0  0  0  0  0  0  0  0  0  0
   52.2950   86.5440   18.9970 B   0  0  0  0  0  0  0  0  0  0  0  0
   55.9720   90.3030   19.9610 C   0  0  2  0  0  0  0  0  0  0  0  0
   56.5900   89.0320   20.2630 N   0  0  0  0  0  0  0  0  0  0  0  0
   56.1880   88.3110   21.4320 C   0  0  0  0  0  0  0  0  0  0  0  0
   56.2250   86.6270   21.8640 S   0  0  0  0  0  0  0  0  0  0  0  0
   55.5540   86.7250   23.4220 C   0  0  0  0  0  0  0  0  0  0  0  0
   55.3190   88.0480   23.5670 C   0  0  0  0  0  0  0  0  0  0  0  0
   55.6410   88.8670   22.5520 C   0  0  0  0  0  0  0  0  0  0  0  0
   55.5090   90.3460   22.4120 C   0  0  0  0  0  0  0  0  0  0  0  0
   55.0310   91.0440   23.3370 O   0  0  0  0  0  0  0  0  0  0  0  0
   55.9210   91.0040   21.2330 N   0  0  0  0  0  0  0  0  0  0  0  0
   54.7050   88.4370   24.9060 C   0  0  0  0  0  0  0  0  0  0  0  0
   55.0220   87.3630   25.8950 C   0  0  0  0  0  0  0  0  0  0  0  0
   54.3610   86.1500   25.3880 N   0  0  0  0  0  4  0  0  0  0  0  0
   55.2850   85.6420   24.3970 C   0  0  0  0  0  0  0  0  0  0  0  0
   54.1130   85.2040   26.4500 C   0  0  0  0  0  0  0  0  0  0  0  0
   54.0820   92.2790   19.0480 O   0  0  0  0  0  0  0  0  0  0  0  0
   54.8430   87.9220   19.7840 H   0  0  0  0  0  0  0  0  0  0  0  0
   50.9890   89.0780   18.2560 H   0  0  0  0  0  0  0  0  0  0  0  0
   56.5530   90.8790   19.2110 H   0  0  0  0  0  0  0  0  0  0  0  0
   57.3310   88.6000   19.6670 H   0  0  0  0  0  0  0  0  0  0  0  0
   56.1990   92.0180   21.2500 H   0  0  0  0  0  0  0  0  0  0  0  0
   53.6200   88.4750   24.7460 H   0  0  0  0  0  0  0  0  0  0  0  0
   55.0620   89.4210   25.2270 H   0  0  0  0  0  0  0  0  0  0  0  0
   56.1080   87.1840   25.9590 H   0  0  0  0  0  0  0  0  0  0  0  0
   54.6010   87.6310   26.8630 H   0  0  0  0  0  0  0  0  0  0  0  0
   53.4900   86.4280   24.8890 H   0  0  0  0  0  0  0  0  0  0  0  0
   56.2270   85.2820   24.8560 H   0  0  0  0  0  0  0  0  0  0  0  0
   54.8050   84.7550   23.9390 H   0  0  0  0  0  0  0  0  0  0  0  0
   54.6950   84.2750   26.3300 H   0  0  0  0  0  0  0  0  0  0  0  0
   53.0300   84.9130   26.3730 H   0  0  0  0  0  0  0  0  0  0  0  0
   54.2220   85.6470   27.4620 H   0  0  0  0  0  0  0  0  0  0  0  0
  1  2  1  0  0  0  0
  2  3  1  0  0  0  0
  3  4  2  0  0  0  0
  4  9  1  0  0  0  0
  5  4  1  0  0  0  0
  5 25  1  0  0  0  0
  6  5  2  0  0  0  0
  7  2  2  0  0  0  0
  7  6  1  0  0  0  0
  8  6  1  0  0  0  0
  9 27  1  6  0  0  0
  9 10  1  0  0  0  0
  9 18  1  0  0  0  0
 10 11  1  0  0  0  0
 11 12  1  0  0  0  0
 11 15  2  0  0  0  0
 12 13  1  0  0  0  0
 13 14  2  0  0  0  0
 13 22  1  0  0  0  0
 14 19  1  0  0  0  0
 15 14  1  0  0  0  0
 16 15  1  0  0  0  0
 16 17  2  0  0  0  0
 18 29  1  0  0  0  0
 18 16  1  0  0  0  0
 19 31  1  0  0  0  0
 19 20  1  0  0  0  0
 20 32  1  0  0  0  0
 20 33  1  0  0  0  0
 21 20  1  0  0  0  0
 21 23  1  0  0  0  0
 22 35  1  0  0  0  0
 22 21  1  0  0  0  0
 23 39  1  0  0  0  0
 24  3  1  0  0  0  0
 26  7  1  0  0  0  0
 28 10  1  0  0  0  0
 30 19  1  0  0  0  0
 34 21  1  0  0  0  0
 36 22  1  0  0  0  0
 37 23  1  0  0  0  0
 38 23  1  0  0  0  0
M  END
>  <Pose>
1

>  <Score>
-6.53

$$$$
