
 OpenBabel03202210083D

 38 41  0  0  1  0  0  0  0  0999 V2000
   56.0860   89.3330   24.4380 I   0  0  0  0  0  0  0  0  0  0  0  0
   55.5050   90.4460   22.7410 C   0  0  0  0  0  0  0  0  0  0  0  0
   55.1020   91.7910   22.8970 C   0  0  0  0  0  0  0  0  0  0  0  0
   54.7190   92.5270   21.8110 C   0  0  0  0  0  0  0  0  0  0  0  0
   54.7470   91.9020   20.5620 C   0  0  0  0  0  0  0  0  0  0  0  0
   55.1320   90.6040   20.3810 C   0  0  0  0  0  0  0  0  0  0  0  0
   55.5180   89.8650   21.4970 C   0  0  0  0  0  0  0  0  0  0  0  0
   55.1090   92.3560   24.1880 N   0  0  0  0  0  0  0  0  0  0  0  0
   55.4950   93.6580   24.5670 C   0  0  1  0  0  0  0  0  0  0  0  0
   56.6410   94.2570   24.2640 N   0  0  0  0  0  0  0  0  0  0  0  0
   56.9980   95.4990   24.6310 C   0  0  0  0  0  0  0  0  0  0  0  0
   58.0390   96.3260   24.4760 N   0  0  0  0  0  0  0  0  0  0  0  0
   57.8150   97.4570   25.0790 O   0  0  0  0  0  0  0  0  0  0  0  0
   56.6420   97.4240   25.6440 N   0  0  0  0  0  0  0  0  0  0  0  0
   56.0840   96.2290   25.3990 C   0  0  0  0  0  0  0  0  0  0  0  0
   54.9280   95.6830   25.7290 N   0  0  0  0  0  0  0  0  0  0  0  0
   54.6180   94.4440   25.3410 C   0  0  0  0  0  0  0  0  0  0  0  0
   53.4130   94.1880   25.8230 N   0  0  0  0  0  0  0  0  0  0  0  0
   52.9710   95.2570   26.5090 N   0  0  0  0  0  0  0  0  0  0  0  0
   53.9090   96.2140   26.4630 C   0  0  0  0  0  0  0  0  0  0  0  0
   53.9010   97.5730   27.0680 C   0  0  0  0  0  0  0  0  0  0  0  0
   52.7220   97.8220   27.9300 C   0  0  0  0  0  0  0  0  0  0  0  0
   52.5970   97.3350   29.0730 O   0  0  0  0  0  0  0  0  0  0  0  0
   51.7180   98.6190   27.4540 O   0  0  0  0  0  0  0  0  0  0  0  0
   51.7790   99.9950   27.3310 C   0  0  0  0  0  0  0  0  0  0  0  0
   51.2140  100.5700   26.0890 C   0  0  0  0  0  0  0  0  0  0  0  0
   54.4010   93.5510   21.8430 H   0  0  0  0  0  0  0  0  0  0  0  0
   54.4430   92.4790   19.6840 H   0  0  0  0  0  0  0  0  0  0  0  0
   55.1410   90.1480   19.4050 H   0  0  0  0  0  0  0  0  0  0  0  0
   55.8190   88.8390   21.3430 H   0  0  0  0  0  0  0  0  0  0  0  0
   54.7740   91.6910   24.9710 H   0  0  0  0  0  0  0  0  0  0  0  0
   54.0470   98.3690   26.3150 H   0  0  0  0  0  0  0  0  0  0  0  0
   54.7920   97.6610   27.7640 H   0  0  0  0  0  0  0  0  0  0  0  0
   51.2720  100.4220   28.2420 H   0  0  0  0  0  0  0  0  0  0  0  0
   52.8450  100.3490   27.4370 H   0  0  0  0  0  0  0  0  0  0  0  0
   50.3510  101.2410   26.3790 H   0  0  0  0  0  0  0  0  0  0  0  0
   50.7550   99.8000   25.4290 H   0  0  0  0  0  0  0  0  0  0  0  0
   51.9690  101.1730   25.5700 H   0  0  0  0  0  0  0  0  0  0  0  0
  2  3  1  0  0  0  0
  2  1  1  0  0  0  0
  3  8  1  0  0  0  0
  4 27  1  0  0  0  0
  4  3  2  0  0  0  0
  5  4  1  0  0  0  0
  6  5  2  0  0  0  0
  6  7  1  0  0  0  0
  7  2  2  0  0  0  0
  8 31  1  0  0  0  0
  9  8  1  6  0  0  0
  9 17  1  0  0  0  0
 10  9  1  0  0  0  0
 10 11  2  0  0  0  0
 11 15  1  0  0  0  0
 12 11  1  0  0  0  0
 12 13  1  0  0  0  0
 13 14  1  0  0  0  0
 15 14  2  0  0  0  0
 15 16  1  0  0  0  0
 16 20  1  0  0  0  0
 17 16  1  0  0  0  0
 17 18  2  0  0  0  0
 18 19  1  0  0  0  0
 20 19  2  0  0  0  0
 20 21  1  0  0  0  0
 21 33  1  0  0  0  0
 21 22  1  0  0  0  0
 22 23  2  0  0  0  0
 24 22  1  0  0  0  0
 25 35  1  0  0  0  0
 25 24  1  0  0  0  0
 25 34  1  0  0  0  0
 26 36  1  0  0  0  0
 26 25  1  0  0  0  0
 28  5  1  0  0  0  0
 29  6  1  0  0  0  0
 30  7  1  0  0  0  0
 32 21  1  0  0  0  0
 37 26  1  0  0  0  0
 38 26  1  0  0  0  0
M  END
>  <Pose>
1

>  <Score>
-8.45

$$$$
