
 OpenBabel03202210083D

 40 43  0  0  0  0  0  0  0  0999 V2000
   53.6310   96.1750   27.1490 I   0  0  0  0  0  0  0  0  0  0  0  0
   55.4320   96.4010   26.0390 C   0  0  0  0  0  0  0  0  0  0  0  0
   55.9830   95.4800   25.1740 C   0  0  0  0  0  0  0  0  0  0  0  0
   57.1100   96.0110   24.6940 N   0  0  0  0  0  0  0  0  0  0  0  0
   57.2650   97.2150   25.2300 N   0  0  0  0  0  0  0  0  0  0  0  0
   56.2610   97.4950   26.0590 C   0  0  0  0  0  0  0  0  0  0  0  0
   58.0910   95.4070   23.7730 C   0  0  0  0  0  0  0  0  0  0  0  0
   55.4250   94.1280   24.8990 C   0  0  0  0  0  0  0  0  0  0  0  0
   55.5270   93.3830   25.9580 O   0  0  0  0  0  0  0  0  0  0  0  0
   54.8930   93.7180   23.7480 N   0  0  0  0  0  0  0  0  0  0  0  0
   54.3420   93.2940   22.5560 C   0  0  0  0  0  0  0  0  0  0  0  0
   54.7820   92.0250   22.1140 C   0  0  0  0  0  0  0  0  0  0  0  0
   55.6920   91.1920   22.6050 N   0  0  0  0  0  0  0  0  0  0  0  0
   55.7430   90.1460   21.8370 O   0  0  0  0  0  0  0  0  0  0  0  0
   54.9090   90.2600   20.8680 N   0  0  0  0  0  0  0  0  0  0  0  0
   54.2790   91.4340   21.0020 C   0  0  0  0  0  0  0  0  0  0  0  0
   53.3060   92.0750   20.2670 C   0  0  0  0  0  0  0  0  0  0  0  0
   52.8580   93.3070   20.6680 C   0  0  0  0  0  0  0  0  0  0  0  0
   53.3610   93.9200   21.7990 C   0  0  0  0  0  0  0  0  0  0  0  0
   52.8160   91.4330   19.1200 N   0  0  0  0  0  0  0  0  0  0  0  0
   52.2990   90.0640   19.1380 C   0  0  0  0  0  0  0  0  0  0  0  0
   53.2320   89.2910   18.2290 C   0  0  0  0  0  0  0  0  0  0  0  0
   54.2190   90.0730   17.6500 O   0  0  0  0  0  0  0  0  0  0  0  0
   53.7680   91.1900   16.9800 C   0  0  0  0  0  0  0  0  0  0  0  0
   52.7430   91.9740   17.7810 C   0  0  0  0  0  0  0  0  0  0  0  0
   56.1010   98.4000   26.6460 H   0  0  0  0  0  0  0  0  0  0  0  0
   58.1860   96.0250   22.8700 H   0  0  0  0  0  0  0  0  0  0  0  0
   57.8290   94.3760   23.5170 H   0  0  0  0  0  0  0  0  0  0  0  0
   59.0870   95.4040   24.3100 H   0  0  0  0  0  0  0  0  0  0  0  0
   55.9020   92.8190   23.5820 H   0  0  0  0  0  0  0  0  0  0  0  0
   52.1090   93.8190   20.1030 H   0  0  0  0  0  0  0  0  0  0  0  0
   52.9510   94.8820   22.0560 H   0  0  0  0  0  0  0  0  0  0  0  0
   52.1470   89.6230   20.0970 H   0  0  0  0  0  0  0  0  0  0  0  0
   51.2910   90.0650   18.6230 H   0  0  0  0  0  0  0  0  0  0  0  0
   52.6710   88.6610   17.5100 H   0  0  0  0  0  0  0  0  0  0  0  0
   53.7880   88.5660   18.8940 H   0  0  0  0  0  0  0  0  0  0  0  0
   54.6580   91.8660   16.8730 H   0  0  0  0  0  0  0  0  0  0  0  0
   53.3980   90.9780   15.9650 H   0  0  0  0  0  0  0  0  0  0  0  0
   51.7220   91.6940   17.3580 H   0  0  0  0  0  0  0  0  0  0  0  0
   52.7940   93.0430   17.6740 H   0  0  0  0  0  0  0  0  0  0  0  0
  2  6  1  0  0  0  0
  2  1  1  0  0  0  0
  3  2  2  0  0  0  0
  4  3  1  0  0  0  0
  4  5  1  0  0  0  0
  5  6  2  0  0  0  0
  6 26  1  0  0  0  0
  7 29  1  0  0  0  0
  7  4  1  0  0  0  0
  8  3  1  0  0  0  0
  8  9  2  0  0  0  0
 10  8  1  0  0  0  0
 11 10  1  0  0  0  0
 12 11  1  0  0  0  0
 12 13  2  0  0  0  0
 14 13  1  0  0  0  0
 15 16  2  0  0  0  0
 15 14  1  0  0  0  0
 16 12  1  0  0  0  0
 17 18  2  0  0  0  0
 17 16  1  0  0  0  0
 18 19  1  0  0  0  0
 19 32  1  0  0  0  0
 19 11  2  0  0  0  0
 20 21  1  0  0  0  0
 20 17  1  0  0  0  0
 21 33  1  0  0  0  0
 22 36  1  0  0  0  0
 22 21  1  0  0  0  0
 23 22  1  0  0  0  0
 24 23  1  0  0  0  0
 24 25  1  0  0  0  0
 25 20  1  0  0  0  0
 27  7  1  0  0  0  0
 28  7  1  0  0  0  0
 30 10  1  0  0  0  0
 31 18  1  0  0  0  0
 34 21  1  0  0  0  0
 35 22  1  0  0  0  0
 37 24  1  0  0  0  0
 38 24  1  0  0  0  0
 39 25  1  0  0  0  0
 40 25  1  0  0  0  0
M  END
>  <Pose>
1

>  <Score>
-6.86

$$$$
