
 OpenBabel03202210083D

 50 53  0  0  0  0  0  0  0  0999 V2000
   52.3500   97.9540   28.3530 I   0  0  0  0  0  0  0  0  0  0  0  0
   53.6790   96.8900   27.1380 C   0  0  0  0  0  0  0  0  0  0  0  0
   53.3610   95.6980   26.5650 C   0  0  0  0  0  0  0  0  0  0  0  0
   54.2990   95.0340   25.7600 C   0  0  0  0  0  0  0  0  0  0  0  0
   55.5460   95.5260   25.5100 C   0  0  0  0  0  0  0  0  0  0  0  0
   55.8480   96.7560   26.1130 C   0  0  0  0  0  0  0  0  0  0  0  0
   54.9330   97.4100   26.9020 C   0  0  0  0  0  0  0  0  0  0  0  0
   56.5770   94.9290   24.7060 C   0  0  0  0  0  0  0  0  0  0  0  0
   56.4480   94.1920   23.6930 N   0  0  0  0  0  0  0  0  0  0  0  0
   55.2570   93.8200   23.1660 N   0  0  0  0  0  0  0  0  0  0  0  0
   55.1310   92.5180   22.5450 C   0  0  0  0  0  0  0  0  0  0  0  0
   55.6590   91.4340   23.1380 N   0  0  0  0  0  4  0  0  0  0  0  0
   55.5560   90.2200   22.5820 C   0  0  0  0  0  0  0  0  0  0  0  0
   54.9010   90.1440   21.4110 N   0  0  0  0  0  0  0  0  0  0  0  0
   54.3580   91.2090   20.7870 C   0  0  0  0  0  0  0  0  0  0  0  0
   54.4850   92.4110   21.3780 N   0  0  0  0  0  0  0  0  0  0  0  0
   53.6800   91.0410   19.5500 N   0  0  0  0  0  0  0  0  0  0  0  0
   52.8030   92.0830   19.0680 C   0  0  0  0  0  0  0  0  0  0  0  0
   51.6570   91.3520   18.3560 C   0  0  0  0  0  0  0  0  0  0  0  0
   52.1860   90.7320   17.2540 O   0  0  0  0  0  0  0  0  0  0  0  0
   53.1350   89.7770   17.4910 C   0  0  0  0  0  0  0  0  0  0  0  0
   53.8590   89.8550   18.7860 C   0  0  0  0  0  0  0  0  0  0  0  0
   56.1080   89.0530   23.1930 N   0  0  0  0  0  0  0  0  0  0  0  0
   56.8810   88.0830   22.4780 C   0  0  0  0  0  0  0  0  0  0  0  0
   57.1330   86.9060   23.4220 C   0  0  0  0  0  0  0  0  0  0  0  0
   55.9630   86.4830   24.0320 O   0  0  0  0  0  0  0  0  0  0  0  0
   55.4150   87.4190   24.8740 C   0  0  0  0  0  0  0  0  0  0  0  0
   55.8810   88.8280   24.6110 C   0  0  0  0  0  0  0  0  0  0  0  0
   52.3810   95.2830   26.7440 H   0  0  0  0  0  0  0  0  0  0  0  0
   53.9570   94.1190   25.3620 H   0  0  0  0  0  0  0  0  0  0  0  0
   56.8140   97.2090   25.9640 H   0  0  0  0  0  0  0  0  0  0  0  0
   55.2460   98.3580   27.3320 H   0  0  0  0  0  0  0  0  0  0  0  0
   57.6490   95.1200   24.9830 H   0  0  0  0  0  0  0  0  0  0  0  0
   54.4390   94.4680   23.1830 H   0  0  0  0  0  0  0  0  0  0  0  0
   53.3420   92.7220   18.3550 H   0  0  0  0  0  0  0  0  0  0  0  0
   52.3470   92.6600   19.8990 H   0  0  0  0  0  0  0  0  0  0  0  0
   51.1850   90.6850   19.0790 H   0  0  0  0  0  0  0  0  0  0  0  0
   50.9600   92.1310   18.0160 H   0  0  0  0  0  0  0  0  0  0  0  0
   52.7320   88.7400   17.2860 H   0  0  0  0  0  0  0  0  0  0  0  0
   53.9150   89.9000   16.6800 H   0  0  0  0  0  0  0  0  0  0  0  0
   54.9720   89.6990   18.6720 H   0  0  0  0  0  0  0  0  0  0  0  0
   53.5410   88.9530   19.3900 H   0  0  0  0  0  0  0  0  0  0  0  0
   56.4420   87.7490   21.5320 H   0  0  0  0  0  0  0  0  0  0  0  0
   57.8820   88.5410   22.2760 H   0  0  0  0  0  0  0  0  0  0  0  0
   57.9120   87.2330   24.1600 H   0  0  0  0  0  0  0  0  0  0  0  0
   57.5480   86.0470   22.8590 H   0  0  0  0  0  0  0  0  0  0  0  0
   55.6390   87.2100   25.9550 H   0  0  0  0  0  0  0  0  0  0  0  0
   54.3020   87.4010   24.7180 H   0  0  0  0  0  0  0  0  0  0  0  0
   56.8210   89.0010   25.1770 H   0  0  0  0  0  0  0  0  0  0  0  0
   55.0730   89.5030   24.9980 H   0  0  0  0  0  0  0  0  0  0  0  0
  2  1  1  0  0  0  0
  3 29  1  0  0  0  0
  3  2  2  0  0  0  0
  4  3  1  0  0  0  0
  5  4  2  0  0  0  0
  5  6  1  0  0  0  0
  6  7  2  0  0  0  0
  7  2  1  0  0  0  0
  7 32  1  0  0  0  0
  8 33  1  0  0  0  0
  8  5  1  0  0  0  0
  9  8  2  0  0  0  0
 10 34  1  0  0  0  0
 10  9  1  0  0  0  0
 11 12  2  0  0  0  0
 11 10  1  0  0  0  0
 13 12  2  0  0  0  0
 13 23  1  0  0  0  0
 14 13  1  0  0  0  0
 15 16  1  0  0  0  0
 15 14  2  0  0  0  0
 16 11  1  0  0  0  0
 17 15  1  0  0  0  0
 18 17  1  0  0  0  0
 18 36  1  0  0  0  0
 19 18  1  0  0  0  0
 19 37  1  0  0  0  0
 20 21  1  0  0  0  0
 20 19  1  0  0  0  0
 21 22  1  0  0  0  0
 22 42  1  0  0  0  0
 22 17  1  0  0  0  0
 23 28  1  0  0  0  0
 24 23  1  0  0  0  0
 24 25  1  0  0  0  0
 25 26  1  0  0  0  0
 25 45  1  0  0  0  0
 26 27  1  0  0  0  0
 27 47  1  0  0  0  0
 28 27  1  0  0  0  0
 28 50  1  0  0  0  0
 28 49  1  0  0  0  0
 30  4  1  0  0  0  0
 31  6  1  0  0  0  0
 35 18  1  0  0  0  0
 38 19  1  0  0  0  0
 39 21  1  0  0  0  0
 40 21  1  0  0  0  0
 41 22  1  0  0  0  0
 43 24  1  0  0  0  0
 44 24  1  0  0  0  0
 46 25  1  0  0  0  0
 48 27  1  0  0  0  0
M  END
>  <Pose>
1

>  <Score>
-8.20

$$$$
