
 OpenBabel03202210083D

 40 43  0  0  0  0  0  0  0  0999 V2000
   54.5980   91.0980   19.7340 I   0  0  0  0  0  0  0  0  0  0  0  0
   55.3010   90.4870   21.5990 C   0  0  0  0  0  0  0  0  0  0  0  0
   55.7860   89.2080   21.8720 C   0  0  0  0  0  0  0  0  0  0  0  0
   56.1320   89.1540   23.1590 N   0  0  0  0  0  0  0  0  0  0  0  0
   55.8840   90.3240   23.6800 N   0  0  0  0  0  0  0  0  0  0  0  0
   55.3650   91.1940   22.7490 C   0  0  0  0  0  0  0  0  0  0  0  0
   55.0210   92.5900   23.0770 C   0  0  0  0  0  0  0  0  0  0  0  0
   54.0230   93.0710   22.4360 O   0  0  0  0  0  0  0  0  0  0  0  0
   55.6920   93.3760   24.0040 N   0  0  0  0  0  0  0  0  0  0  0  0
   55.1240   94.2970   24.9140 C   0  0  0  0  0  0  0  0  0  0  0  0
   55.7960   95.5080   25.1030 C   0  0  0  0  0  0  0  0  0  0  0  0
   56.9290   95.9910   24.5650 N   0  0  0  0  0  0  0  0  0  0  0  0
   57.1490   97.1730   25.0590 O   0  0  0  0  0  0  0  0  0  0  0  0
   56.2130   97.4910   25.8990 N   0  0  0  0  0  0  0  0  0  0  0  0
   55.3350   96.4720   25.9610 C   0  0  0  0  0  0  0  0  0  0  0  0
   54.1730   96.2590   26.6710 C   0  0  0  0  0  0  0  0  0  0  0  0
   53.5210   95.0670   26.4770 C   0  0  0  0  0  0  0  0  0  0  0  0
   53.9840   94.0750   25.6030 C   0  0  0  0  0  0  0  0  0  0  0  0
   53.7120   97.2670   27.5540 N   0  0  0  0  0  0  0  0  0  0  0  0
   52.3170   97.6570   27.5670 C   0  0  0  0  0  0  0  0  0  0  0  0
   52.1050   98.6670   28.6390 C   0  0  0  0  0  0  0  0  0  0  0  0
   52.6400   98.3180   29.8640 O   0  0  0  0  0  0  0  0  0  0  0  0
   53.9720   98.0480   29.8570 C   0  0  0  0  0  0  0  0  0  0  0  0
   54.5840   97.9600   28.4820 C   0  0  0  0  0  0  0  0  0  0  0  0
   56.6890   87.9710   23.8300 C   0  0  0  0  0  0  0  0  0  0  0  0
   55.8800   88.3760   21.1770 H   0  0  0  0  0  0  0  0  0  0  0  0
   56.7520   93.2460   24.0200 H   0  0  0  0  0  0  0  0  0  0  0  0
   52.6110   94.9030   27.0340 H   0  0  0  0  0  0  0  0  0  0  0  0
   53.3830   93.1760   25.5340 H   0  0  0  0  0  0  0  0  0  0  0  0
   51.7340   96.7320   27.7550 H   0  0  0  0  0  0  0  0  0  0  0  0
   52.0250   98.1310   26.5950 H   0  0  0  0  0  0  0  0  0  0  0  0
   51.0180   98.8720   28.7120 H   0  0  0  0  0  0  0  0  0  0  0  0
   52.6150   99.6150   28.3160 H   0  0  0  0  0  0  0  0  0  0  0  0
   54.5030   98.8560   30.4020 H   0  0  0  0  0  0  0  0  0  0  0  0
   54.1920   97.1040   30.4240 H   0  0  0  0  0  0  0  0  0  0  0  0
   55.5080   97.3510   28.5720 H   0  0  0  0  0  0  0  0  0  0  0  0
   54.8800   98.9500   28.0880 H   0  0  0  0  0  0  0  0  0  0  0  0
   57.2350   87.3940   23.0750 H   0  0  0  0  0  0  0  0  0  0  0  0
   57.4240   88.3540   24.5740 H   0  0  0  0  0  0  0  0  0  0  0  0
   55.8660   87.4000   24.2890 H   0  0  0  0  0  0  0  0  0  0  0  0
  1  2  1  0  0  0  0
  2  3  2  0  0  0  0
  2  6  1  0  0  0  0
  3  4  1  0  0  0  0
  4  5  1  0  0  0  0
  4 25  1  0  0  0  0
  6  7  1  0  0  0  0
  6  5  2  0  0  0  0
  7  9  1  0  0  0  0
  8  7  2  0  0  0  0
  9 27  1  0  0  0  0
  9 10  1  0  0  0  0
 10 11  1  0  0  0  0
 10 18  2  0  0  0  0
 11 15  1  0  0  0  0
 12 13  1  0  0  0  0
 12 11  2  0  0  0  0
 13 14  1  0  0  0  0
 14 15  2  0  0  0  0
 15 16  1  0  0  0  0
 16 19  1  0  0  0  0
 17 16  2  0  0  0  0
 17 28  1  0  0  0  0
 18 17  1  0  0  0  0
 19 20  1  0  0  0  0
 19 24  1  0  0  0  0
 20 30  1  0  0  0  0
 20 21  1  0  0  0  0
 21 32  1  0  0  0  0
 21 22  1  0  0  0  0
 23 22  1  0  0  0  0
 23 34  1  0  0  0  0
 23 35  1  0  0  0  0
 24 36  1  0  0  0  0
 24 23  1  0  0  0  0
 25 40  1  0  0  0  0
 25 39  1  0  0  0  0
 26  3  1  0  0  0  0
 29 18  1  0  0  0  0
 31 20  1  0  0  0  0
 33 21  1  0  0  0  0
 37 24  1  0  0  0  0
 38 25  1  0  0  0  0
M  END
>  <Pose>
1

>  <Score>
-7.53

$$$$
