
 OpenBabel03202210083D

 48 52  0  0  1  0  0  0  0  0999 V2000
   57.6330   95.0660   24.1470 B   0  0  0  0  0  0  0  0  0  0  0  0
   55.9470   95.2380   25.0190 C   0  0  0  0  0  0  0  0  0  0  0  0
   55.8670   96.1400   26.1090 C   0  0  0  0  0  0  0  0  0  0  0  0
   54.7020   96.2820   26.8140 C   0  0  0  0  0  0  0  0  0  0  0  0
   53.6120   95.5280   26.4410 C   0  0  0  0  0  0  0  0  0  0  0  0
   53.7000   94.6540   25.3810 C   0  0  0  0  0  0  0  0  0  0  0  0
   54.8890   94.4850   24.6290 C   0  0  0  0  0  0  0  0  0  0  0  0
   54.8370   93.5840   23.5000 C   0  0  0  0  0  0  0  0  0  0  0  0
   55.4230   92.4650   23.2560 C   0  0  0  0  0  0  0  0  0  0  0  0
   55.3620   91.5570   22.1260 C   0  0  1  0  0  0  0  0  0  0  0  0
   55.2380   91.8810   20.8610 N   0  0  0  0  0  0  0  0  0  0  0  0
   55.2990   90.9110   19.9000 C   0  0  0  0  0  0  0  0  0  0  0  0
   55.4810   89.5890   20.1670 C   0  0  0  0  0  0  0  0  0  0  0  0
   55.6120   89.2100   21.4860 C   0  0  0  0  0  0  0  0  0  0  0  0
   55.8040   88.0050   22.1270 N   0  0  0  0  0  0  0  0  0  0  0  0
   55.8630   88.2070   23.4320 C   0  0  0  0  0  0  0  0  0  0  0  0
   55.7070   89.5470   23.6110 N   0  0  0  0  0  0  0  0  0  0  0  0
   55.5520   90.1810   22.4420 C   0  0  0  0  0  0  0  0  0  0  0  0
   56.0350   87.2340   24.5170 C   0  0  0  0  0  0  0  0  0  0  0  0
   57.2220   86.7320   24.9380 C   0  0  0  0  0  0  0  0  0  0  0  0
   57.2600   85.7790   25.9730 C   0  0  0  0  0  0  0  0  0  0  0  0
   56.0940   85.3500   26.5650 C   0  0  0  0  0  0  0  0  0  0  0  0
   54.8660   85.8490   26.1530 C   0  0  0  0  0  0  0  0  0  0  0  0
   54.8740   86.7650   25.1540 C   0  0  0  0  0  0  0  0  0  0  0  0
   55.8840   86.7890   21.3690 C   0  0  0  0  0  0  0  0  0  0  0  0
   54.9640   93.2210   20.4360 C   0  0  0  0  0  0  0  0  0  0  0  0
   52.5630   95.8580   27.3160 O   0  0  0  0  0  0  0  0  0  0  0  0
   52.8760   97.1340   27.8360 C   0  0  0  0  0  0  0  0  0  0  0  0
   54.3000   97.0570   27.9060 O   0  0  0  0  0  0  0  0  0  0  0  0
   56.7530   96.7020   26.3530 H   0  0  0  0  0  0  0  0  0  0  0  0
   52.8270   94.0680   25.1010 H   0  0  0  0  0  0  0  0  0  0  0  0
   54.1950   93.9480   22.6750 H   0  0  0  0  0  0  0  0  0  0  0  0
   56.1130   92.1490   24.0670 H   0  0  0  0  0  0  0  0  0  0  0  0
   55.1960   91.2270   18.8640 H   0  0  0  0  0  0  0  0  0  0  0  0
   55.5310   88.8140   19.4160 H   0  0  0  0  0  0  0  0  0  0  0  0
   58.1620   87.0530   24.5090 H   0  0  0  0  0  0  0  0  0  0  0  0
   58.2160   85.3960   26.2870 H   0  0  0  0  0  0  0  0  0  0  0  0
   56.1190   84.6140   27.3640 H   0  0  0  0  0  0  0  0  0  0  0  0
   53.9380   85.5280   26.6020 H   0  0  0  0  0  0  0  0  0  0  0  0
   53.9110   87.1630   24.8230 H   0  0  0  0  0  0  0  0  0  0  0  0
   56.8760   86.3260   21.3140 H   0  0  0  0  0  0  0  0  0  0  0  0
   55.5810   86.9840   20.2790 H   0  0  0  0  0  0  0  0  0  0  0  0
   55.1410   86.0120   21.6590 H   0  0  0  0  0  0  0  0  0  0  0  0
   55.8410   93.8230   20.1660 H   0  0  0  0  0  0  0  0  0  0  0  0
   54.4320   93.1160   19.4110 H   0  0  0  0  0  0  0  0  0  0  0  0
   54.1710   93.7280   21.0190 H   0  0  0  0  0  0  0  0  0  0  0  0
   52.5620   97.9030   27.1010 H   0  0  0  0  0  0  0  0  0  0  0  0
   52.4390   97.2930   28.8450 H   0  0  0  0  0  0  0  0  0  0  0  0
  1  2  1  0  0  0  0
  2  3  1  0  0  0  0
  3 30  1  0  0  0  0
  3  4  2  0  0  0  0
  4 29  1  0  0  0  0
  5  4  1  0  0  0  0
  5 27  1  0  0  0  0
  6  5  2  0  0  0  0
  7  2  2  0  0  0  0
  7  6  1  0  0  0  0
  8  7  1  0  0  0  0
  9  8  2  0  0  0  0
  9 33  1  0  0  0  0
 10 18  1  0  0  0  0
 10  9  1  6  0  0  0
 11 10  1  0  0  0  0
 12 13  2  0  0  0  0
 12 11  1  0  0  0  0
 13 14  1  0  0  0  0
 14 15  1  0  0  0  0
 14 18  2  0  0  0  0
 15 16  1  0  0  0  0
 16 17  2  0  0  0  0
 16 19  1  0  0  0  0
 18 17  1  0  0  0  0
 19 20  2  0  0  0  0
 19 24  1  0  0  0  0
 20 21  1  0  0  0  0
 21 37  1  0  0  0  0
 21 22  2  0  0  0  0
 22 38  1  0  0  0  0
 23 22  1  0  0  0  0
 23 39  1  0  0  0  0
 24 23  2  0  0  0  0
 25 43  1  0  0  0  0
 25 15  1  0  0  0  0
 26 11  1  0  0  0  0
 26 46  1  0  0  0  0
 27 28  1  0  0  0  0
 28 29  1  0  0  0  0
 28 48  1  0  0  0  0
 31  6  1  0  0  0  0
 32  8  1  0  0  0  0
 34 12  1  0  0  0  0
 35 13  1  0  0  0  0
 36 20  1  0  0  0  0
 40 24  1  0  0  0  0
 41 25  1  0  0  0  0
 42 25  1  0  0  0  0
 44 26  1  0  0  0  0
 45 26  1  0  0  0  0
 47 28  1  0  0  0  0
M  END
>  <Pose>
1

>  <Score>
-6.01

$$$$
