
 OpenBabel03202210083D

 35 38  0  0  1  0  0  0  0  0999 V2000
   51.9640   90.2550   17.7600 B   0  0  0  0  0  0  0  0  0  0  0  0
   53.1540   89.8220   19.1780 C   0  0  0  0  0  0  0  0  0  0  0  0
   53.4650   88.5150   19.5430 C   0  0  1  0  0  0  0  0  0  0  0  0
   54.3370   88.2520   20.5860 C   0  0  0  0  0  0  0  0  0  0  0  0
   54.9150   89.2930   21.2830 C   0  0  0  0  0  0  0  0  0  0  0  0
   54.6150   90.5790   20.9320 C   0  0  0  0  0  0  0  0  0  0  0  0
   53.7500   90.8330   19.8980 C   0  0  0  0  0  0  0  0  0  0  0  0
   53.4910   92.1820   19.5940 O   0  0  0  0  0  0  0  0  0  0  0  0
   55.4550   91.9800   21.9410 B   0  0  0  0  0  0  0  0  0  0  0  0
   54.6620   86.9680   20.9660 C   0  0  0  0  0  0  0  0  0  0  0  0
   54.0810   85.9330   20.2630 C   0  0  0  0  0  0  0  0  0  0  0  0
   53.1680   86.3040   19.1750 C   0  0  0  0  0  0  0  0  0  0  0  0
   52.5880   85.2460   18.4750 C   0  0  1  0  0  0  0  0  0  0  0  0
   52.8740   83.9430   18.8080 C   0  0  0  0  0  0  0  0  0  0  0  0
   52.3270   83.0230   18.1480 O   0  0  0  0  0  0  0  0  0  0  0  0
   53.7430   83.6230   19.8460 C   0  0  0  0  0  0  0  0  0  0  0  0
   54.3470   84.6080   20.5720 C   0  0  0  0  0  0  0  0  0  0  0  0
   54.0850   81.7850   20.2420 B   0  0  0  0  0  0  0  0  0  0  0  0
   51.3800   85.6590   17.0370 B   0  0  0  0  0  0  0  0  0  0  0  0
   52.9010   87.5500   18.8620 O   0  0  0  0  0  0  0  0  0  0  0  0
   55.5780   86.6920   22.0740 C   0  0  0  0  0  0  0  0  0  0  0  0
   56.9280   86.9680   21.9560 C   0  0  0  0  0  0  0  0  0  0  0  0
   57.8130   86.7120   22.9830 C   0  0  0  0  0  0  0  0  0  0  0  0
   57.3250   86.1670   24.1530 C   0  0  0  0  0  0  0  0  0  0  0  0
   56.0040   85.8800   24.3100 C   0  0  0  0  0  0  0  0  0  0  0  0
   55.1350   86.1410   23.2740 C   0  0  0  0  0  0  0  0  0  0  0  0
   53.7340   85.8350   23.4310 C   0  0  0  0  0  0  0  0  0  0  0  0
   52.8510   86.7330   23.5070 O   0  0  0  0  0  0  0  0  0  0  0  0
   53.3050   84.5120   23.5050 O   0  0  0  0  0  0  0  0  0  0  0  0
   55.4690   85.1880   25.8340 Cl  0  0  0  0  0  0  0  0  0  0  0  0
   57.5280   87.6680   20.4490 Cl  0  0  0  0  0  0  0  0  0  0  0  0
   55.6060   89.0630   22.1090 H   0  0  0  0  0  0  0  0  0  0  0  0
   55.0280   84.4180   21.3850 H   0  0  0  0  0  0  0  0  0  0  0  0
   58.8780   86.9420   22.8590 H   0  0  0  0  0  0  0  0  0  0  0  0
   58.0140   85.9630   24.9640 H   0  0  0  0  0  0  0  0  0  0  0  0
  1  2  1  0  0  0  0
  2  3  1  0  0  0  0
  2  7  2  0  0  0  0
  3 20  1  1  0  0  0
  3  4  1  0  0  0  0
  4 10  2  0  0  0  0
  4  5  1  0  0  0  0
  5 32  1  0  0  0  0
  6  5  2  0  0  0  0
  6  9  1  0  0  0  0
  7  6  1  0  0  0  0
  8  7  1  0  0  0  0
 10 21  1  0  0  0  0
 11 17  1  0  0  0  0
 11 10  1  0  0  0  0
 12 11  2  0  0  0  0
 13 19  1  1  0  0  0
 13 14  1  0  0  0  0
 13 12  1  0  0  0  0
 14 16  1  0  0  0  0
 15 14  2  0  0  0  0
 16 18  1  0  0  0  0
 16 17  2  0  0  0  0
 17 33  1  0  0  0  0
 20 12  1  0  0  0  0
 21 26  1  0  0  0  0
 22 21  2  0  0  0  0
 22 23  1  0  0  0  0
 23 24  2  0  0  0  0
 24 25  1  0  0  0  0
 24 35  1  0  0  0  0
 25 30  1  0  0  0  0
 26 27  1  0  0  0  0
 26 25  2  0  0  0  0
 27 29  2  0  0  0  0
 27 28  1  0  0  0  0
 31 22  1  0  0  0  0
 34 23  1  0  0  0  0
M  END
>  <Pose>
1

>  <Score>
-5.78

$$$$
