
 OpenBabel03202210083D

 35 39  0  0  0  0  0  0  0  0999 V2000
   53.0090   85.4010   19.8850 I   0  0  0  0  0  0  0  0  0  0  0  0
   52.3460   84.4590   21.6550 C   0  0  0  0  0  0  0  0  0  0  0  0
   52.9720   84.8260   22.8420 C   0  0  0  0  0  0  0  0  0  0  0  0
   52.5670   84.2380   23.9960 C   0  0  0  0  0  0  0  0  0  0  0  0
   51.5430   83.2880   23.9520 C   0  0  0  0  0  0  0  0  0  0  0  0
   50.9180   82.9180   22.7820 C   0  0  0  0  0  0  0  0  0  0  0  0
   51.3350   83.5210   21.6120 C   0  0  0  0  0  0  0  0  0  0  0  0
   50.7200   83.1630   20.4220 O   0  0  0  0  0  0  0  0  0  0  0  0
   49.3690   81.4710   22.7690 I   0  0  0  0  0  0  0  0  0  0  0  0
   53.1510   84.5470   25.2880 C   0  0  0  0  0  0  0  0  0  0  0  0
   53.7230   83.3800   25.8960 O   0  0  0  0  0  0  0  0  0  0  0  0
   53.1730   83.1140   27.1220 C   0  0  0  0  0  0  0  0  0  0  0  0
   53.4270   82.1790   27.9350 O   0  0  0  0  0  0  0  0  0  0  0  0
   52.1790   84.1510   27.3560 C   0  0  0  0  0  0  0  0  0  0  0  0
   52.1630   84.9920   26.2850 C   0  0  0  0  0  0  0  0  0  0  0  0
   51.2920   86.0810   26.2550 C   0  0  0  0  0  0  0  0  0  0  0  0
   50.4320   86.3320   27.3020 C   0  0  0  0  0  0  0  0  0  0  0  0
   50.4490   85.4710   28.3960 C   0  0  0  0  0  0  0  0  0  0  0  0
   51.3050   84.4000   28.4290 C   0  0  0  0  0  0  0  0  0  0  0  0
   51.3140   83.3440   29.7900 Cl  0  0  0  0  0  0  0  0  0  0  0  0
   49.3870   85.7340   29.7510 Cl  0  0  0  0  0  0  0  0  0  0  0  0
   49.3540   87.7070   27.2320 Cl  0  0  0  0  0  0  0  0  0  0  0  0
   51.3260   87.1090   24.8620 Cl  0  0  0  0  0  0  0  0  0  0  0  0
   54.2260   85.5710   25.1840 C   0  0  0  0  0  0  0  0  0  0  0  0
   54.6040   86.1380   24.0150 C   0  0  0  0  0  0  0  0  0  0  0  0
   55.6260   87.0850   24.0600 C   0  0  0  0  0  0  0  0  0  0  0  0
   56.2510   87.4560   25.2300 C   0  0  0  0  0  0  0  0  0  0  0  0
   55.8380   86.8560   26.4030 C   0  0  0  0  0  0  0  0  0  0  0  0
   54.8370   85.9200   26.3960 C   0  0  0  0  0  0  0  0  0  0  0  0
   56.7750   87.4020   28.2090 I   0  0  0  0  0  0  0  0  0  0  0  0
   57.2550   88.3870   25.2740 O   0  0  0  0  0  0  0  0  0  0  0  0
   56.2220   87.9720   22.2540 I   0  0  0  0  0  0  0  0  0  0  0  0
   53.9990   85.7900   22.8210 O   0  0  0  0  0  0  0  0  0  0  0  0
   51.1930   82.7950   24.8570 H   0  0  0  0  0  0  0  0  0  0  0  0
   54.5420   85.4770   27.3190 H   0  0  0  0  0  0  0  0  0  0  0  0
  1  2  1  0  0  0  0
  2  3  1  0  0  0  0
  3  4  2  0  0  0  0
  4 10  1  0  0  0  0
  5  4  1  0  0  0  0
  5 34  1  0  0  0  0
  6  5  2  0  0  0  0
  7  2  2  0  0  0  0
  7  6  1  0  0  0  0
  8  7  1  0  0  0  0
  9  6  1  0  0  0  0
 10 11  1  0  0  0  0
 10 15  1  0  0  0  0
 11 12  1  0  0  0  0
 12 14  1  0  0  0  0
 12 13  2  0  0  0  0
 14 19  1  0  0  0  0
 15 14  2  0  0  0  0
 16 15  1  0  0  0  0
 16 17  2  0  0  0  0
 17 18  1  0  0  0  0
 18 19  2  0  0  0  0
 18 21  1  0  0  0  0
 19 20  1  0  0  0  0
 22 17  1  0  0  0  0
 23 16  1  0  0  0  0
 24 10  1  0  0  0  0
 24 29  1  0  0  0  0
 25 26  1  0  0  0  0
 25 24  2  0  0  0  0
 26 27  2  0  0  0  0
 27 31  1  0  0  0  0
 27 28  1  0  0  0  0
 28 30  1  0  0  0  0
 29 28  2  0  0  0  0
 29 35  1  0  0  0  0
 32 26  1  0  0  0  0
 33  3  1  0  0  0  0
 33 25  1  0  0  0  0
M  END
>  <Pose>
1

>  <Score>
-5.89

$$$$
