
 OpenBabel03202210083D

 35 38  0  0  1  0  0  0  0  0999 V2000
   51.8820   91.0230   18.2780 I   0  0  0  0  0  0  0  0  0  0  0  0
   53.3600   90.3900   19.6400 C   0  0  0  0  0  0  0  0  0  0  0  0
   53.5660   89.0600   19.9480 C   0  0  2  0  0  0  0  0  0  0  0  0
   54.5320   88.6420   20.8390 C   0  0  0  0  0  0  0  0  0  0  0  0
   55.3130   89.6150   21.4360 C   0  0  0  0  0  0  0  0  0  0  0  0
   55.1130   90.9530   21.1330 C   0  0  0  0  0  0  0  0  0  0  0  0
   54.1370   91.3650   20.2340 C   0  0  0  0  0  0  0  0  0  0  0  0
   53.9790   92.7220   19.9660 O   0  0  0  0  0  0  0  0  0  0  0  0
   54.7540   87.3180   21.1590 C   0  0  0  0  0  0  0  0  0  0  0  0
   53.9300   86.3960   20.5200 C   0  0  0  0  0  0  0  0  0  0  0  0
   52.9190   86.8790   19.5830 C   0  0  0  0  0  0  0  0  0  0  0  0
   52.1340   85.9170   18.9820 C   0  0  2  0  0  0  0  0  0  0  0  0
   52.2750   84.5690   19.2330 C   0  0  0  0  0  0  0  0  0  0  0  0
   51.5440   83.7010   18.6710 O   0  0  0  0  0  0  0  0  0  0  0  0
   53.2310   84.1120   20.1190 C   0  0  0  0  0  0  0  0  0  0  0  0
   54.0330   85.0500   20.7380 C   0  0  0  0  0  0  0  0  0  0  0  0
   50.6510   86.5140   17.6180 I   0  0  0  0  0  0  0  0  0  0  0  0
   52.8090   88.1660   19.3650 O   0  0  0  0  0  0  0  0  0  0  0  0
   55.7740   86.8720   22.1010 C   0  0  0  0  0  0  0  0  0  0  0  0
   55.3640   86.3690   23.3320 C   0  0  0  0  0  0  0  0  0  0  0  0
   56.2860   85.9370   24.2480 C   0  0  0  0  0  0  0  0  0  0  0  0
   57.6280   86.0050   23.9480 C   0  0  0  0  0  0  0  0  0  0  0  0
   58.0600   86.4990   22.7370 C   0  0  0  0  0  0  0  0  0  0  0  0
   57.1160   86.9270   21.8300 C   0  0  0  0  0  0  0  0  0  0  0  0
   53.9440   86.2920   23.6610 C   0  0  0  0  0  0  0  0  0  0  0  0
   53.1540   87.2470   23.4900 O   0  0  0  0  0  0  0  0  0  0  0  0
   53.4050   85.1290   24.1920 O   0  0  0  0  0  0  0  0  0  0  0  0
   56.0690   89.2840   22.1330 H   0  0  0  0  0  0  0  0  0  0  0  0
   55.7580   91.6650   21.6350 H   0  0  0  0  0  0  0  0  0  0  0  0
   53.3200   83.0480   20.2970 H   0  0  0  0  0  0  0  0  0  0  0  0
   54.7860   84.7080   21.4330 H   0  0  0  0  0  0  0  0  0  0  0  0
   55.9950   85.5340   25.2300 H   0  0  0  0  0  0  0  0  0  0  0  0
   58.3430   85.6590   24.6860 H   0  0  0  0  0  0  0  0  0  0  0  0
   59.1360   86.5370   22.5330 H   0  0  0  0  0  0  0  0  0  0  0  0
   57.4200   87.3220   20.8670 H   0  0  0  0  0  0  0  0  0  0  0  0
  1  2  1  0  0  0  0
  2  3  1  0  0  0  0
  2  7  2  0  0  0  0
  3 18  1  6  0  0  0
  3  4  1  0  0  0  0
  4  9  2  0  0  0  0
  4  5  1  0  0  0  0
  5 28  1  0  0  0  0
  6  5  2  0  0  0  0
  6 29  1  0  0  0  0
  7  6  1  0  0  0  0
  8  7  1  0  0  0  0
  9 19  1  0  0  0  0
 10 16  1  0  0  0  0
 10  9  1  0  0  0  0
 11 10  2  0  0  0  0
 12 17  1  6  0  0  0
 12 13  1  0  0  0  0
 12 11  1  0  0  0  0
 13 15  1  0  0  0  0
 14 13  2  0  0  0  0
 15 30  1  0  0  0  0
 15 16  2  0  0  0  0
 16 31  1  0  0  0  0
 18 11  1  0  0  0  0
 19 20  1  0  0  0  0
 20 25  1  0  0  0  0
 20 21  2  0  0  0  0
 21 32  1  0  0  0  0
 22 21  1  0  0  0  0
 22 33  1  0  0  0  0
 23 22  2  0  0  0  0
 24 19  2  0  0  0  0
 24 23  1  0  0  0  0
 25 27  1  0  0  0  0
 26 25  2  0  0  0  0
 34 23  1  0  0  0  0
 35 24  1  0  0  0  0
M  END
>  <Pose>
1

>  <Score>
-4.83

$$$$
