
 OpenBabel03202210083D

 33 36  0  0  1  0  0  0  0  0999 V2000
   53.2510   82.1080   16.4970 P   0  0  2  0  0  0  0  0  0  0  0  0
   53.9410   83.0330   15.1880 S   0  0  0  0  0  0  0  0  0  0  0  0
   52.3120   83.1300   17.4910 O   0  0  0  0  0  0  0  0  0  0  0  0
   53.1910   83.9190   18.1910 C   0  0  2  0  0  0  0  0  0  0  0  0
   54.0570   83.0180   19.0800 C   0  0  2  0  0  0  0  0  0  0  0  0
   54.6040   83.9720   19.9360 O   0  0  0  0  0  0  0  0  0  0  0  0
   53.5480   84.7450   20.3570 C   0  0  2  0  0  0  0  0  0  0  0  0
   52.5150   84.7600   19.2590 C   0  0  2  0  0  0  0  0  0  0  0  0
   51.4190   84.0160   19.7170 O   0  0  0  0  0  0  0  0  0  0  0  0
   53.9240   86.1220   20.6180 N   0  0  0  0  0  0  0  0  0  0  0  0
   55.0190   86.4890   21.3310 C   0  0  0  0  0  0  0  0  0  0  0  0
   55.9870   85.7640   21.9490 N   0  0  0  0  0  0  0  0  0  0  0  0
   56.9950   86.3680   22.6080 C   0  0  0  0  0  0  0  0  0  0  0  0
   57.0490   87.7220   22.6600 N   0  0  0  0  0  0  0  0  0  0  0  0
   56.1080   88.4740   22.0620 C   0  0  0  0  0  0  0  0  0  0  0  0
   55.0690   87.8670   21.3810 C   0  0  0  0  0  0  0  0  0  0  0  0
   54.0070   88.3320   20.6990 N   0  0  0  0  0  0  0  0  0  0  0  0
   53.3210   87.2620   20.2420 C   0  0  0  0  0  0  0  0  0  0  0  0
   51.7090   87.2780   19.1990 B   0  0  0  0  0  0  0  0  0  0  0  0
   56.1800   89.9020   22.1260 N   0  0  0  0  0  0  0  0  0  0  0  0
   55.0900   82.2910   18.2760 C   0  0  0  0  0  0  0  0  0  0  0  0
   54.4430   81.4060   17.4330 O   0  0  0  0  0  0  0  0  0  0  0  0
   52.2400   80.9530   15.8390 O   0  0  0  0  0  0  0  0  0  0  0  0
   53.8700   84.4940   17.5620 H   0  0  0  0  0  0  0  0  0  0  0  0
   53.3760   82.3550   19.6290 H   0  0  0  0  0  0  0  0  0  0  0  0
   53.1550   84.3280   21.3130 H   0  0  0  0  0  0  0  0  0  0  0  0
   52.2480   85.7600   18.9170 H   0  0  0  0  0  0  0  0  0  0  0  0
   50.6810   83.9890   19.0810 H   0  0  0  0  0  0  0  0  0  0  0  0
   57.7530   85.7440   23.0910 H   0  0  0  0  0  0  0  0  0  0  0  0
   56.9010   90.3410   22.7610 H   0  0  0  0  0  0  0  0  0  0  0  0
   55.5510   90.5180   21.5730 H   0  0  0  0  0  0  0  0  0  0  0  0
   55.7240   81.7210   18.9530 H   0  0  0  0  0  0  0  0  0  0  0  0
   55.7010   83.0420   17.7400 H   0  0  0  0  0  0  0  0  0  0  0  0
  1  2  1  6  0  0  0
  1 22  1  0  0  0  0
  1  3  1  0  0  0  0
  3  4  1  0  0  0  0
  4 24  1  6  0  0  0
  4  5  1  0  0  0  0
  4  8  1  0  0  0  0
  5 25  1  1  0  0  0
  5  6  1  0  0  0  0
  6  7  1  0  0  0  0
  7 10  1  0  0  0  0
  7 26  1  1  0  0  0
  8 27  1  6  0  0  0
  8  9  1  0  0  0  0
  8  7  1  0  0  0  0
 10 11  1  0  0  0  0
 11 16  2  0  0  0  0
 11 12  1  0  0  0  0
 12 13  2  0  0  0  0
 13 14  1  0  0  0  0
 13 29  1  0  0  0  0
 15 20  1  0  0  0  0
 15 14  2  0  0  0  0
 16 15  1  0  0  0  0
 17 16  1  0  0  0  0
 18 10  1  0  0  0  0
 18 17  2  0  0  0  0
 19 18  1  0  0  0  0
 20 30  1  0  0  0  0
 21 32  1  0  0  0  0
 21  5  1  0  0  0  0
 22 21  1  0  0  0  0
 23  1  2  0  0  0  0
 28  9  1  0  0  0  0
 31 20  1  0  0  0  0
 33 21  1  0  0  0  0
M  END
>  <Pose>
1

>  <Score>
-6.88

$$$$
