
 OpenBabel03202210083D

 33 36  0  0  1  0  0  0  0  0999 V2000
   57.4180   86.8130   24.9060 P   0  0  2  0  0  0  0  0  0  0  0  0
   58.6600   87.3260   25.6370 O   0  0  0  0  0  0  0  0  0  0  0  0
   57.6520   87.0800   23.2650 O   0  0  0  0  0  0  0  0  0  0  0  0
   56.5520   87.6470   22.6770 C   0  0  2  0  0  0  0  0  0  0  0  0
   55.3240   87.0780   23.4020 C   0  0  2  0  0  0  0  0  0  0  0  0
   54.3040   87.1000   22.4990 O   0  0  0  0  0  0  0  0  0  0  0  0
   54.8030   87.0600   21.2270 C   0  0  2  0  0  0  0  0  0  0  0  0
   56.2870   87.1710   21.2730 C   0  0  2  0  0  0  0  0  0  0  0  0
   56.9440   85.9800   21.0380 O   0  0  0  0  0  0  0  0  0  0  0  0
   54.1800   88.1390   20.4710 N   0  0  0  0  0  0  0  0  0  0  0  0
   54.4050   89.4630   20.6480 C   0  0  0  0  0  0  0  0  0  0  0  0
   55.2080   90.1130   21.5070 N   0  0  0  0  0  0  0  0  0  0  0  0
   55.2520   91.4550   21.4820 C   0  0  0  0  0  0  0  0  0  0  0  0
   54.4950   92.1330   20.6000 N   0  0  0  0  0  0  0  0  0  0  0  0
   53.6730   91.5520   19.7130 C   0  0  0  0  0  0  0  0  0  0  0  0
   53.6310   90.1600   19.7440 C   0  0  0  0  0  0  0  0  0  0  0  0
   52.9440   89.2750   19.0270 N   0  0  0  0  0  0  0  0  0  0  0  0
   53.2840   88.0530   19.4750 C   0  0  0  0  0  0  0  0  0  0  0  0
   52.6210   86.3620   18.8290 B   0  0  0  0  0  0  0  0  0  0  0  0
   52.8700   92.2560   18.7770 N   0  0  0  0  0  0  0  0  0  0  0  0
   55.1270   87.9290   24.6140 C   0  0  0  0  0  0  0  0  0  0  0  0
   56.0990   87.6190   25.5340 O   0  0  0  0  0  0  0  0  0  0  0  0
   57.3550   85.1340   25.2250 O   0  0  0  0  0  0  0  0  0  0  0  0
   56.5320   88.7410   22.6980 H   0  0  0  0  0  0  0  0  0  0  0  0
   55.5070   86.0260   23.7110 H   0  0  0  0  0  0  0  0  0  0  0  0
   54.5620   86.0650   20.7530 H   0  0  0  0  0  0  0  0  0  0  0  0
   56.6440   87.9080   20.5240 H   0  0  0  0  0  0  0  0  0  0  0  0
   57.9030   86.0740   20.9180 H   0  0  0  0  0  0  0  0  0  0  0  0
   55.9040   92.0100   22.1790 H   0  0  0  0  0  0  0  0  0  0  0  0
   51.9230   91.8430   18.5270 H   0  0  0  0  0  0  0  0  0  0  0  0
   53.1390   93.1360   18.3270 H   0  0  0  0  0  0  0  0  0  0  0  0
   55.3090   89.0000   24.3030 H   0  0  0  0  0  0  0  0  0  0  0  0
   54.1010   87.9140   25.0120 H   0  0  0  0  0  0  0  0  0  0  0  0
  1 23  2  1  0  0  0
  1 22  1  0  0  0  0
  1  2  1  0  0  0  0
  3  1  1  0  0  0  0
  4 24  1  1  0  0  0
  4  3  1  0  0  0  0
  4  5  1  0  0  0  0
  5 25  1  1  0  0  0
  5 21  1  0  0  0  0
  6  5  1  0  0  0  0
  7 26  1  6  0  0  0
  7  8  1  0  0  0  0
  7  6  1  0  0  0  0
  8 27  1  6  0  0  0
  8  4  1  0  0  0  0
  9  8  1  0  0  0  0
 10 11  1  0  0  0  0
 10  7  1  0  0  0  0
 11 12  1  0  0  0  0
 13 12  2  0  0  0  0
 13 29  1  0  0  0  0
 14 13  1  0  0  0  0
 15 16  1  0  0  0  0
 15 14  2  0  0  0  0
 16 11  2  0  0  0  0
 17 18  2  0  0  0  0
 17 16  1  0  0  0  0
 18 10  1  0  0  0  0
 19 18  1  0  0  0  0
 20 15  1  0  0  0  0
 21 33  1  0  0  0  0
 21 22  1  0  0  0  0
 28  9  1  0  0  0  0
 30 20  1  0  0  0  0
 31 20  1  0  0  0  0
 32 21  1  0  0  0  0
M  END
>  <Pose>
1

>  <Score>
-6.03

$$$$
