
 OpenBabel03202210083D

 54 57  0  0  0  0  0  0  0  0999 V2000
   55.3460   93.9390   24.8960 S   0  0  0  0  0  0  0  0  0  0  0  0
   56.4810   93.9440   23.8780 O   0  0  0  0  0  0  0  0  0  0  0  0
   55.6520   92.8320   25.8470 O   0  0  0  0  0  0  0  0  0  0  0  0
   53.9100   93.6450   23.9930 N   0  0  0  0  0  0  0  0  0  0  0  0
   54.1330   93.6710   22.5610 C   0  0  0  0  0  0  0  0  0  0  0  0
   54.3020   92.2210   22.1310 C   0  0  0  0  0  0  0  0  0  0  0  0
   54.6190   92.1300   20.6620 C   0  0  0  0  0  0  0  0  0  0  0  0
   53.5630   91.4570   20.0050 N   0  0  0  0  0  0  0  0  0  0  0  0
   52.8550   92.1940   19.0200 C   0  0  0  0  0  0  0  0  0  0  0  0
   51.5010   91.5360   18.8100 C   0  0  0  0  0  0  0  0  0  0  0  0
   51.6060   90.1600   18.7730 O   0  0  0  0  0  0  0  0  0  0  0  0
   52.8970   89.7080   18.5250 C   0  0  0  0  0  0  0  0  0  0  0  0
   53.7380   90.0740   19.7510 C   0  0  0  0  0  0  0  0  0  0  0  0
   55.2640   95.4850   25.6970 C   0  0  0  0  0  0  0  0  0  0  0  0
   54.1050   95.8390   26.3950 C   0  0  0  0  0  0  0  0  0  0  0  0
   54.0160   97.0580   27.0320 C   0  0  0  0  0  0  0  0  0  0  0  0
   55.0480   97.9800   27.0160 C   0  0  0  0  0  0  0  0  0  0  0  0
   56.1840   97.6430   26.3350 C   0  0  0  0  0  0  0  0  0  0  0  0
   56.2820   96.4080   25.6860 C   0  0  0  0  0  0  0  0  0  0  0  0
   57.8840   95.9400   24.7430 B   0  0  0  0  0  0  0  0  0  0  0  0
   54.6460   99.1800   27.8010 C   0  0  0  0  0  0  0  0  0  0  0  0
   53.5000   98.6170   28.6670 C   0  0  0  0  0  0  0  0  0  0  0  0
   52.9240   97.6110   27.7890 N   0  0  0  0  0  0  0  0  0  0  0  0
   51.5780   97.2040   27.6400 C   0  0  0  0  0  0  0  0  0  0  0  0
   51.2520   96.0490   27.2840 O   0  0  0  0  0  0  0  0  0  0  0  0
   50.5040   98.1870   27.9170 C   0  0  0  0  0  0  0  0  0  0  0  0
   50.3200   98.5240   29.3400 C   0  0  0  0  0  0  0  0  0  0  0  0
   49.2540   97.7600   28.5940 C   0  0  0  0  0  0  0  0  0  0  0  0
   53.5230   92.7290   24.2930 H   0  0  0  0  0  0  0  0  0  0  0  0
   54.9800   94.3000   22.2580 H   0  0  0  0  0  0  0  0  0  0  0  0
   53.1590   94.0090   22.1050 H   0  0  0  0  0  0  0  0  0  0  0  0
   55.1030   91.7130   22.7150 H   0  0  0  0  0  0  0  0  0  0  0  0
   53.3030   91.7440   22.2830 H   0  0  0  0  0  0  0  0  0  0  0  0
   55.5610   91.5400   20.4920 H   0  0  0  0  0  0  0  0  0  0  0  0
   54.7920   93.1290   20.2400 H   0  0  0  0  0  0  0  0  0  0  0  0
   53.4030   92.1350   18.0620 H   0  0  0  0  0  0  0  0  0  0  0  0
   52.7420   93.2340   19.3690 H   0  0  0  0  0  0  0  0  0  0  0  0
   50.8230   91.8140   19.6470 H   0  0  0  0  0  0  0  0  0  0  0  0
   51.0330   91.9550   17.8930 H   0  0  0  0  0  0  0  0  0  0  0  0
   52.8500   88.6130   18.3780 H   0  0  0  0  0  0  0  0  0  0  0  0
   53.3400   90.1510   17.6070 H   0  0  0  0  0  0  0  0  0  0  0  0
   53.4630   89.4080   20.5740 H   0  0  0  0  0  0  0  0  0  0  0  0
   54.7870   89.8280   19.4600 H   0  0  0  0  0  0  0  0  0  0  0  0
   53.2800   95.1190   26.4170 H   0  0  0  0  0  0  0  0  0  0  0  0
   57.0390   98.3090   26.2720 H   0  0  0  0  0  0  0  0  0  0  0  0
   54.2830  100.0040   27.1840 H   0  0  0  0  0  0  0  0  0  0  0  0
   55.4320   99.5400   28.4770 H   0  0  0  0  0  0  0  0  0  0  0  0
   53.9250   98.0700   29.5330 H   0  0  0  0  0  0  0  0  0  0  0  0
   52.8130   99.4080   28.9600 H   0  0  0  0  0  0  0  0  0  0  0  0
   50.3980   99.0170   27.1680 H   0  0  0  0  0  0  0  0  0  0  0  0
   50.7890   97.8930   30.1430 H   0  0  0  0  0  0  0  0  0  0  0  0
   50.1360   99.5460   29.6700 H   0  0  0  0  0  0  0  0  0  0  0  0
   49.0470   96.7030   28.8140 H   0  0  0  0  0  0  0  0  0  0  0  0
   48.3480   98.3670   28.3940 H   0  0  0  0  0  0  0  0  0  0  0  0
  1 14  1  0  0  0  0
  1  3  2  0  0  0  0
  2  1  2  0  0  0  0
  4 29  1  0  0  0  0
  4  1  1  0  0  0  0
  5  4  1  0  0  0  0
  6 33  1  0  0  0  0
  6  5  1  0  0  0  0
  6 32  1  0  0  0  0
  7  6  1  0  0  0  0
  8  7  1  0  0  0  0
  9 37  1  0  0  0  0
  9  8  1  0  0  0  0
 10  9  1  0  0  0  0
 10 38  1  0  0  0  0
 11 10  1  0  0  0  0
 12 11  1  0  0  0  0
 12 13  1  0  0  0  0
 13  8  1  0  0  0  0
 13 42  1  0  0  0  0
 14 15  1  0  0  0  0
 15 44  1  0  0  0  0
 15 16  2  0  0  0  0
 16 23  1  0  0  0  0
 17 16  1  0  0  0  0
 17 21  1  0  0  0  0
 18 17  2  0  0  0  0
 19 14  2  0  0  0  0
 19 18  1  0  0  0  0
 20 19  1  0  0  0  0
 21 47  1  0  0  0  0
 21 22  1  0  0  0  0
 22 49  1  0  0  0  0
 22 48  1  0  0  0  0
 23 22  1  0  0  0  0
 24 23  1  0  0  0  0
 24 26  1  0  0  0  0
 25 24  2  0  0  0  0
 26 28  1  0  0  0  0
 26 27  1  0  0  0  0
 27 52  1  0  0  0  0
 27 51  1  0  0  0  0
 28 53  1  0  0  0  0
 28 27  1  0  0  0  0
 30  5  1  0  0  0  0
 31  5  1  0  0  0  0
 34  7  1  0  0  0  0
 35  7  1  0  0  0  0
 36  9  1  0  0  0  0
 39 10  1  0  0  0  0
 40 12  1  0  0  0  0
 41 12  1  0  0  0  0
 43 13  1  0  0  0  0
 45 18  1  0  0  0  0
 46 21  1  0  0  0  0
 50 26  1  0  0  0  0
 54 28  1  0  0  0  0
M  END
>  <Pose>
1

>  <Score>
-7.40

$$$$
