
 OpenBabel03202210083D

 54 57  0  0  0  0  0  0  0  0999 V2000
   55.2350   92.9740   23.3920 S   0  0  0  0  0  0  0  0  0  0  0  0
   55.8220   93.8440   22.2800 O   0  0  0  0  0  0  0  0  0  0  0  0
   53.7700   93.3460   23.4170 O   0  0  0  0  0  0  0  0  0  0  0  0
   55.9790   93.4180   24.8270 N   0  0  0  0  0  0  0  0  0  0  0  0
   55.2920   93.4090   26.0370 C   0  0  0  0  0  0  0  0  0  0  0  0
   54.5380   94.6420   26.3530 C   0  0  0  0  0  0  0  0  0  0  0  0
   53.5260   94.6100   27.0930 O   0  0  0  0  0  0  0  0  0  0  0  0
   55.0280   95.8470   25.7740 N   0  0  0  0  0  0  0  0  0  0  0  0
   56.3240   95.7930   25.1990 C   0  0  0  0  0  0  0  0  0  0  0  0
   56.9940   96.8630   25.1420 O   0  0  0  0  0  0  0  0  0  0  0  0
   56.8980   94.5370   24.6750 C   0  0  0  0  0  0  0  0  0  0  0  0
   54.2240   97.0490   25.7910 C   0  0  0  0  0  0  0  0  0  0  0  0
   54.1120   97.7050   27.1240 C   0  0  0  0  0  0  0  0  0  0  0  0
   52.8100   98.2860   27.4440 C   0  0  0  0  0  0  0  0  0  0  0  0
   52.4690   99.5590   27.0790 C   0  0  0  0  0  0  0  0  0  0  0  0
   51.2350  100.0430   27.4140 C   0  0  0  0  0  0  0  0  0  0  0  0
   50.3110   99.2800   28.1180 C   0  0  0  0  0  0  0  0  0  0  0  0
   50.6760   98.0100   28.4720 C   0  0  0  0  0  0  0  0  0  0  0  0
   51.9070   97.4920   28.1520 C   0  0  0  0  0  0  0  0  0  0  0  0
   55.4340   91.3220   22.8750 C   0  0  0  0  0  0  0  0  0  0  0  0
   56.0240   90.4150   23.7640 C   0  0  0  0  0  0  0  0  0  0  0  0
   56.2960   89.1020   23.4520 C   0  0  0  0  0  0  0  0  0  0  0  0
   55.9840   88.6150   22.2020 C   0  0  0  0  0  0  0  0  0  0  0  0
   55.4030   89.4890   21.3170 C   0  0  0  0  0  0  0  0  0  0  0  0
   55.1270   90.8280   21.6410 C   0  0  0  0  0  0  0  0  0  0  0  0
   54.2200   91.9240   20.3550 B   0  0  0  0  0  0  0  0  0  0  0  0
   56.3580   87.1840   22.0920 C   0  0  0  0  0  0  0  0  0  0  0  0
   56.5000   86.7880   23.5620 C   0  0  0  0  0  0  0  0  0  0  0  0
   56.8850   88.0400   24.2060 N   0  0  0  0  0  0  0  0  0  0  0  0
   57.6970   88.1360   25.3490 C   0  0  0  0  0  0  0  0  0  0  0  0
   57.3520   88.9450   26.2780 O   0  0  0  0  0  0  0  0  0  0  0  0
   58.9440   87.3710   25.5940 C   0  0  0  0  0  0  0  0  0  0  0  0
   56.0870   93.2870   26.8700 H   0  0  0  0  0  0  0  0  0  0  0  0
   54.6840   92.5130   26.1720 H   0  0  0  0  0  0  0  0  0  0  0  0
   57.2150   94.7110   23.6340 H   0  0  0  0  0  0  0  0  0  0  0  0
   57.8000   94.2960   25.2660 H   0  0  0  0  0  0  0  0  0  0  0  0
   53.2050   96.8250   25.3790 H   0  0  0  0  0  0  0  0  0  0  0  0
   54.6600   97.8080   25.0930 H   0  0  0  0  0  0  0  0  0  0  0  0
   54.8620   98.5290   27.1430 H   0  0  0  0  0  0  0  0  0  0  0  0
   54.4550   96.9820   27.8990 H   0  0  0  0  0  0  0  0  0  0  0  0
   53.1550  100.1660   26.5400 H   0  0  0  0  0  0  0  0  0  0  0  0
   50.9170  101.0530   27.1440 H   0  0  0  0  0  0  0  0  0  0  0  0
   49.3310   99.6750   28.3800 H   0  0  0  0  0  0  0  0  0  0  0  0
   49.9830   97.3760   29.0250 H   0  0  0  0  0  0  0  0  0  0  0  0
   52.1370   96.4810   28.4600 H   0  0  0  0  0  0  0  0  0  0  0  0
   56.2610   90.8150   24.7520 H   0  0  0  0  0  0  0  0  0  0  0  0
   55.1330   89.1650   20.3150 H   0  0  0  0  0  0  0  0  0  0  0  0
   57.3120   87.0170   21.5790 H   0  0  0  0  0  0  0  0  0  0  0  0
   55.5590   86.5740   21.6130 H   0  0  0  0  0  0  0  0  0  0  0  0
   57.2990   86.0420   23.6790 H   0  0  0  0  0  0  0  0  0  0  0  0
   55.5250   86.4780   23.9550 H   0  0  0  0  0  0  0  0  0  0  0  0
   59.2420   87.4490   26.6790 H   0  0  0  0  0  0  0  0  0  0  0  0
   59.8170   87.7850   25.0490 H   0  0  0  0  0  0  0  0  0  0  0  0
   58.8210   86.2990   25.3160 H   0  0  0  0  0  0  0  0  0  0  0  0
  1  3  2  0  0  0  0
  1  4  1  0  0  0  0
  2  1  2  0  0  0  0
  4  5  1  0  0  0  0
  5 34  1  0  0  0  0
  5  6  1  0  0  0  0
  5 33  1  0  0  0  0
  6  7  2  0  0  0  0
  8 12  1  0  0  0  0
  8  6  1  0  0  0  0
  9  8  1  0  0  0  0
 10  9  2  0  0  0  0
 11  4  1  0  0  0  0
 11  9  1  0  0  0  0
 11 36  1  0  0  0  0
 12 13  1  0  0  0  0
 13 39  1  0  0  0  0
 13 14  1  0  0  0  0
 13 40  1  0  0  0  0
 14 19  1  0  0  0  0
 15 16  1  0  0  0  0
 15 14  2  0  0  0  0
 16 17  2  0  0  0  0
 17 43  1  0  0  0  0
 17 18  1  0  0  0  0
 18 44  1  0  0  0  0
 19 45  1  0  0  0  0
 19 18  2  0  0  0  0
 20  1  1  0  0  0  0
 20 21  1  0  0  0  0
 21 46  1  0  0  0  0
 22 21  2  0  0  0  0
 22 29  1  0  0  0  0
 23 22  1  0  0  0  0
 24 25  1  0  0  0  0
 24 23  2  0  0  0  0
 25 20  2  0  0  0  0
 26 25  1  0  0  0  0
 27 23  1  0  0  0  0
 27 28  1  0  0  0  0
 28 50  1  0  0  0  0
 28 51  1  0  0  0  0
 28 29  1  0  0  0  0
 29 30  1  0  0  0  0
 30 32  1  0  0  0  0
 30 31  2  0  0  0  0
 32 52  1  0  0  0  0
 35 11  1  0  0  0  0
 37 12  1  0  0  0  0
 38 12  1  0  0  0  0
 41 15  1  0  0  0  0
 42 16  1  0  0  0  0
 47 24  1  0  0  0  0
 48 27  1  0  0  0  0
 49 27  1  0  0  0  0
 53 32  1  0  0  0  0
 54 32  1  0  0  0  0
M  END
>  <Pose>
1

>  <Score>
-7.63

$$$$
