
 OpenBabel03202210083D

 50 53  0  0  0  0  0  0  0  0999 V2000
   55.0600   97.1170   26.5970 S   0  0  0  0  0  0  0  0  0  0  0  0
   55.3760   97.4400   25.1620 O   0  0  0  0  0  0  0  0  0  0  0  0
   56.2060   97.6810   27.4190 O   0  0  0  0  0  0  0  0  0  0  0  0
   54.9680   95.4360   26.7840 N   0  0  0  0  0  0  0  0  0  0  0  0
   53.7920   94.8100   26.2840 C   0  0  0  0  0  0  0  0  0  0  0  0
   53.8770   94.0440   25.0470 C   0  0  0  0  0  0  0  0  0  0  0  0
   55.1900   93.6840   24.5490 N   0  0  0  0  0  0  0  0  0  0  0  0
   56.3690   94.2880   25.0900 C   0  0  0  0  0  0  0  0  0  0  0  0
   56.1710   94.7280   26.5360 C   0  0  0  0  0  0  0  0  0  0  0  0
   55.2660   92.7150   23.5470 C   0  0  0  0  0  0  0  0  0  0  0  0
   54.1900   92.7870   22.7350 O   0  0  0  0  0  0  0  0  0  0  0  0
   56.2160   91.6940   23.2120 C   0  0  0  0  0  0  0  0  0  0  0  0
   55.8350   90.5270   22.4190 C   0  0  0  0  0  0  0  0  0  0  0  0
   55.7050   89.2850   22.9890 C   0  0  0  0  0  0  0  0  0  0  0  0
   55.3350   88.1800   22.2220 C   0  0  0  0  0  0  0  0  0  0  0  0
   55.0980   88.3390   20.8880 C   0  0  0  0  0  0  0  0  0  0  0  0
   55.2260   89.6000   20.3030 C   0  0  0  0  0  0  0  0  0  0  0  0
   55.5870   90.6730   21.0530 C   0  0  0  0  0  0  0  0  0  0  0  0
   56.0400   89.0370   24.8600 B   0  0  0  0  0  0  0  0  0  0  0  0
   53.5750   97.9670   26.9710 C   0  0  0  0  0  0  0  0  0  0  0  0
   52.4890   97.2720   27.5010 C   0  0  0  0  0  0  0  0  0  0  0  0
   51.2900   97.8820   27.8040 C   0  0  0  0  0  0  0  0  0  0  0  0
   51.1120   99.2300   27.5900 C   0  0  0  0  0  0  0  0  0  0  0  0
   52.1810   99.9230   27.0670 C   0  0  0  0  0  0  0  0  0  0  0  0
   53.3930   99.3150   26.7590 C   0  0  0  0  0  0  0  0  0  0  0  0
   49.8890   99.8620   27.8940 O   0  0  0  0  0  0  0  0  0  0  0  0
   49.0290   99.2940   28.8980 C   0  0  0  0  0  0  0  0  0  0  0  0
   48.9740   97.8380   28.6070 C   0  0  0  0  0  0  0  0  0  0  0  0
   47.8980   97.1970   28.5900 O   0  0  0  0  0  0  0  0  0  0  0  0
   50.1790   97.1430   28.3380 N   0  0  0  0  0  0  0  0  0  0  0  0
   53.0290   95.6320   26.1380 H   0  0  0  0  0  0  0  0  0  0  0  0
   53.3650   94.1990   27.1360 H   0  0  0  0  0  0  0  0  0  0  0  0
   53.2990   93.0780   25.1520 H   0  0  0  0  0  0  0  0  0  0  0  0
   53.3590   94.5640   24.1780 H   0  0  0  0  0  0  0  0  0  0  0  0
   56.6450   95.1390   24.4530 H   0  0  0  0  0  0  0  0  0  0  0  0
   57.2580   93.6300   25.1210 H   0  0  0  0  0  0  0  0  0  0  0  0
   57.0400   95.3370   26.8130 H   0  0  0  0  0  0  0  0  0  0  0  0
   56.1170   93.7750   27.1320 H   0  0  0  0  0  0  0  0  0  0  0  0
   57.1180   92.1910   22.6860 H   0  0  0  0  0  0  0  0  0  0  0  0
   56.6860   91.3150   24.1730 H   0  0  0  0  0  0  0  0  0  0  0  0
   55.2540   87.2320   22.7320 H   0  0  0  0  0  0  0  0  0  0  0  0
   54.8130   87.4890   20.3050 H   0  0  0  0  0  0  0  0  0  0  0  0
   55.0230   89.6750   19.2250 H   0  0  0  0  0  0  0  0  0  0  0  0
   55.6980   91.6700   20.6330 H   0  0  0  0  0  0  0  0  0  0  0  0
   52.6170   96.2090   27.6730 H   0  0  0  0  0  0  0  0  0  0  0  0
   52.0440  101.0020   26.8950 H   0  0  0  0  0  0  0  0  0  0  0  0
   54.2190   99.8950   26.3470 H   0  0  0  0  0  0  0  0  0  0  0  0
   49.5380   99.3720   29.9080 H   0  0  0  0  0  0  0  0  0  0  0  0
   48.0870   99.8170   28.8340 H   0  0  0  0  0  0  0  0  0  0  0  0
   50.3220   96.1350   28.4950 H   0  0  0  0  0  0  0  0  0  0  0  0
  1  4  1  0  0  0  0
  1 20  1  0  0  0  0
  1  3  2  0  0  0  0
  2  1  2  0  0  0  0
  5  4  1  0  0  0  0
  5 32  1  0  0  0  0
  6 33  1  0  0  0  0
  6  5  1  0  0  0  0
  7  6  1  0  0  0  0
  7  8  1  0  0  0  0
  8 36  1  0  0  0  0
  8  9  1  0  0  0  0
  9  4  1  0  0  0  0
  9 37  1  0  0  0  0
  9 38  1  0  0  0  0
 10  7  1  0  0  0  0
 11 10  2  0  0  0  0
 12 10  1  0  0  0  0
 12 40  1  0  0  0  0
 13 14  1  0  0  0  0
 13 12  1  0  0  0  0
 14 19  1  0  0  0  0
 15 41  1  0  0  0  0
 15 14  2  0  0  0  0
 16 15  1  0  0  0  0
 17 16  2  0  0  0  0
 17 18  1  0  0  0  0
 18 13  2  0  0  0  0
 20 21  1  0  0  0  0
 21 45  1  0  0  0  0
 21 22  2  0  0  0  0
 22 30  1  0  0  0  0
 23 22  1  0  0  0  0
 23 26  1  0  0  0  0
 24 23  2  0  0  0  0
 25 20  2  0  0  0  0
 25 24  1  0  0  0  0
 26 27  1  0  0  0  0
 27 48  1  0  0  0  0
 28 27  1  0  0  0  0
 29 28  2  0  0  0  0
 30 50  1  0  0  0  0
 30 28  1  0  0  0  0
 31  5  1  0  0  0  0
 34  6  1  0  0  0  0
 35  8  1  0  0  0  0
 39 12  1  0  0  0  0
 42 16  1  0  0  0  0
 43 17  1  0  0  0  0
 44 18  1  0  0  0  0
 46 24  1  0  0  0  0
 47 25  1  0  0  0  0
 49 27  1  0  0  0  0
M  END
>  <Pose>
1

>  <Score>
-7.42

$$$$
