
 OpenBabel03202210083D

 60 64  0  0  0  0  0  0  0  0999 V2000
   52.8480   86.3380   19.7200 S   0  0  0  0  0  0  0  0  0  0  0  0
   52.4160   85.5240   20.8780 O   0  0  0  0  0  0  0  0  0  0  0  0
   51.5460   86.8430   19.0880 O   0  0  0  0  0  0  0  0  0  0  0  0
   53.6050   85.4240   18.4740 N   0  0  0  0  0  0  0  0  0  0  0  0
   52.7260   84.5530   17.7730 C   0  0  0  0  0  0  0  0  0  0  0  0
   52.5740   83.1760   18.4070 C   0  0  0  0  0  0  0  0  0  0  0  0
   53.8690   82.6280   18.6320 N   0  0  0  0  0  0  0  0  0  0  0  0
   54.6900   83.4840   19.5480 C   0  0  0  0  0  0  0  0  0  0  0  0
   54.8240   84.8090   18.8770 C   0  0  0  0  0  0  0  0  0  0  0  0
   54.4750   81.4790   18.1640 C   0  0  0  0  0  0  0  0  0  0  0  0
   54.2490   80.4000   18.8860 O   0  0  0  0  0  0  0  0  0  0  0  0
   55.3130   81.2450   17.0240 C   0  0  0  0  0  0  0  0  0  0  0  0
   54.8170   81.4930   15.7190 N   0  0  0  0  0  0  0  0  0  0  0  0
   55.0140   82.5700   14.9620 N   0  0  0  0  0  0  0  0  0  0  0  0
   54.4210   82.4310   13.7690 C   0  0  0  0  0  0  0  0  0  0  0  0
   53.8210   81.1960   13.7880 C   0  0  0  0  0  0  0  0  0  0  0  0
   54.0680   80.6180   14.9970 C   0  0  0  0  0  0  0  0  0  0  0  0
   52.8040   80.4120   12.3550 B   0  0  0  0  0  0  0  0  0  0  0  0
   53.7470   87.7670   20.1240 C   0  0  0  0  0  0  0  0  0  0  0  0
   54.8710   87.7290   20.9610 C   0  0  0  0  0  0  0  0  0  0  0  0
   55.5790   88.8700   21.2800 C   0  0  0  0  0  0  0  0  0  0  0  0
   55.2080   90.1020   20.7820 C   0  0  0  0  0  0  0  0  0  0  0  0
   54.1120   90.1470   19.9650 C   0  0  0  0  0  0  0  0  0  0  0  0
   53.4070   88.9890   19.6520 C   0  0  0  0  0  0  0  0  0  0  0  0
   52.2450   89.1970   18.7720 C   0  0  0  0  0  0  0  0  0  0  0  0
   52.6200   90.0420   17.5730 C   0  0  0  0  0  0  0  0  0  0  0  0
   53.4320   91.1340   17.9540 N   0  0  0  0  0  0  0  0  0  0  0  0
   53.5900   91.3890   19.3500 C   0  0  0  0  0  0  0  0  0  0  0  0
   54.5710   91.4000   17.1470 C   0  0  0  0  0  0  0  0  0  0  0  0
   55.9260   91.2720   21.1030 O   0  0  0  0  0  0  0  0  0  0  0  0
   55.4230   92.1200   22.1450 C   0  0  0  0  0  0  0  0  0  0  0  0
   56.6130   88.4970   22.1110 O   0  0  0  0  0  0  0  0  0  0  0  0
   56.4750   87.1400   22.4260 C   0  0  0  0  0  0  0  0  0  0  0  0
   55.4510   86.6300   21.5870 O   0  0  0  0  0  0  0  0  0  0  0  0
   51.7150   85.0030   17.7260 H   0  0  0  0  0  0  0  0  0  0  0  0
   53.1020   84.3880   16.7440 H   0  0  0  0  0  0  0  0  0  0  0  0
   51.8820   82.6270   17.7870 H   0  0  0  0  0  0  0  0  0  0  0  0
   52.0880   83.2640   19.4140 H   0  0  0  0  0  0  0  0  0  0  0  0
   55.6970   83.0460   19.6670 H   0  0  0  0  0  0  0  0  0  0  0  0
   54.2130   83.5750   20.5220 H   0  0  0  0  0  0  0  0  0  0  0  0
   55.4210   85.4850   19.5170 H   0  0  0  0  0  0  0  0  0  0  0  0
   55.4440   84.6540   17.9530 H   0  0  0  0  0  0  0  0  0  0  0  0
   55.7000   80.1580   17.0100 H   0  0  0  0  0  0  0  0  0  0  0  0
   56.3070   81.8080   17.1760 H   0  0  0  0  0  0  0  0  0  0  0  0
   54.4220   83.1620   12.9530 H   0  0  0  0  0  0  0  0  0  0  0  0
   53.7280   79.6520   15.3080 H   0  0  0  0  0  0  0  0  0  0  0  0
   51.6430   88.3290   18.5410 H   0  0  0  0  0  0  0  0  0  0  0  0
   51.5530   89.8720   19.3720 H   0  0  0  0  0  0  0  0  0  0  0  0
   53.2400   89.3680   16.9170 H   0  0  0  0  0  0  0  0  0  0  0  0
   51.7260   90.3180   16.9760 H   0  0  0  0  0  0  0  0  0  0  0  0
   54.2880   92.2340   19.4810 H   0  0  0  0  0  0  0  0  0  0  0  0
   52.6390   91.6520   19.8600 H   0  0  0  0  0  0  0  0  0  0  0  0
   54.6700   92.4570   16.8270 H   0  0  0  0  0  0  0  0  0  0  0  0
   54.5500   90.7080   16.2700 H   0  0  0  0  0  0  0  0  0  0  0  0
   55.4960   91.1270   17.7080 H   0  0  0  0  0  0  0  0  0  0  0  0
   54.4500   91.7440   22.5210 H   0  0  0  0  0  0  0  0  0  0  0  0
   55.2530   93.1420   21.7560 H   0  0  0  0  0  0  0  0  0  0  0  0
   56.1830   92.2310   22.9590 H   0  0  0  0  0  0  0  0  0  0  0  0
   56.2610   86.9410   23.4850 H   0  0  0  0  0  0  0  0  0  0  0  0
   57.4220   86.6360   22.0880 H   0  0  0  0  0  0  0  0  0  0  0  0
  1 19  1  0  0  0  0
  1  2  2  0  0  0  0
  3  1  2  0  0  0  0
  4  9  1  0  0  0  0
  4  1  1  0  0  0  0
  5  6  1  0  0  0  0
  5  4  1  0  0  0  0
  6  7  1  0  0  0  0
  6 38  1  0  0  0  0
  7  8  1  0  0  0  0
  8 39  1  0  0  0  0
  8 40  1  0  0  0  0
  9 41  1  0  0  0  0
  9  8  1  0  0  0  0
 10  7  1  0  0  0  0
 10 11  2  0  0  0  0
 12 44  1  0  0  0  0
 12 10  1  0  0  0  0
 13 12  1  0  0  0  0
 14 13  1  0  0  0  0
 15 16  1  0  0  0  0
 15 14  2  0  0  0  0
 16 17  2  0  0  0  0
 17 46  1  0  0  0  0
 17 13  1  0  0  0  0
 18 16  1  0  0  0  0
 19 20  1  0  0  0  0
 20 21  2  0  0  0  0
 20 34  1  0  0  0  0
 21 32  1  0  0  0  0
 22 30  1  0  0  0  0
 22 21  1  0  0  0  0
 23 22  2  0  0  0  0
 24 23  1  0  0  0  0
 24 19  2  0  0  0  0
 25 48  1  0  0  0  0
 25 24  1  0  0  0  0
 26 27  1  0  0  0  0
 26 25  1  0  0  0  0
 27 28  1  0  0  0  0
 28 51  1  0  0  0  0
 28 52  1  0  0  0  0
 28 23  1  0  0  0  0
 29 55  1  0  0  0  0
 29 27  1  0  0  0  0
 30 31  1  0  0  0  0
 31 56  1  0  0  0  0
 31 58  1  0  0  0  0
 32 33  1  0  0  0  0
 33 59  1  0  0  0  0
 34 33  1  0  0  0  0
 35  5  1  0  0  0  0
 36  5  1  0  0  0  0
 37  6  1  0  0  0  0
 42  9  1  0  0  0  0
 43 12  1  0  0  0  0
 45 15  1  0  0  0  0
 47 25  1  0  0  0  0
 49 26  1  0  0  0  0
 50 26  1  0  0  0  0
 53 29  1  0  0  0  0
 54 29  1  0  0  0  0
 57 31  1  0  0  0  0
 60 33  1  0  0  0  0
M  END
>  <Pose>
1

>  <Score>
-6.95

$$$$
