
 OpenBabel03202210083D

 53 56  0  0  0  0  0  0  0  0999 V2000
   54.3080   84.7440   26.5010 S   0  0  0  0  0  0  0  0  0  0  0  0
   54.5640   85.4320   27.8300 O   0  0  0  0  0  0  0  0  0  0  0  0
   55.3620   83.6710   26.3870 O   0  0  0  0  0  0  0  0  0  0  0  0
   54.5580   85.9110   25.2800 N   0  0  0  0  0  0  0  0  0  0  0  0
   55.8640   86.5320   25.3440 C   0  0  0  0  0  0  0  0  0  0  0  0
   56.4610   86.6900   23.9670 C   0  0  0  0  0  0  0  0  0  0  0  0
   55.4460   87.3720   23.1370 N   0  0  0  0  0  0  0  0  0  0  0  0
   54.1730   86.7250   23.0710 C   0  0  0  0  0  0  0  0  0  0  0  0
   54.2540   85.4660   23.9650 C   0  0  0  0  0  0  0  0  0  0  0  0
   55.7520   88.5720   22.4790 C   0  0  0  0  0  0  0  0  0  0  0  0
   55.9440   89.6010   23.2810 O   0  0  0  0  0  0  0  0  0  0  0  0
   55.9010   88.9150   21.0880 C   0  0  0  0  0  0  0  0  0  0  0  0
   54.7520   89.1580   20.2740 N   0  0  0  0  0  0  0  0  0  0  0  0
   53.8010   88.1830   19.7750 C   0  0  0  0  0  0  0  0  0  0  0  0
   53.8870   86.9510   20.0390 O   0  0  0  0  0  0  0  0  0  0  0  0
   52.8400   88.8750   18.9950 N   0  0  0  0  0  0  0  0  0  0  0  0
   53.4030   90.1360   18.6480 C   0  0  0  0  0  0  0  0  0  0  0  0
   54.0910   90.1360   17.3040 C   0  0  0  0  0  0  0  0  0  0  0  0
   54.2820   91.6210   17.0640 C   0  0  0  0  0  0  0  0  0  0  0  0
   53.1600   92.3110   17.8010 C   0  0  0  0  0  0  0  0  0  0  0  0
   52.3520   91.2160   18.4560 C   0  0  0  0  0  0  0  0  0  0  0  0
   54.3080   90.4300   19.7570 C   0  0  0  0  0  0  0  0  0  0  0  0
   54.6580   91.5530   20.2040 O   0  0  0  0  0  0  0  0  0  0  0  0
   52.7130   84.0340   26.4590 C   0  0  0  0  0  0  0  0  0  0  0  0
   51.9520   83.8650   27.5980 C   0  0  0  0  0  0  0  0  0  0  0  0
   50.6840   83.2980   27.5530 C   0  0  0  0  0  0  0  0  0  0  0  0
   50.1420   82.8850   26.3640 C   0  0  0  0  0  0  0  0  0  0  0  0
   50.8920   83.0480   25.2180 C   0  0  0  0  0  0  0  0  0  0  0  0
   52.1560   83.6150   25.2690 C   0  0  0  0  0  0  0  0  0  0  0  0
   48.3850   82.1000   26.2930 B   0  0  0  0  0  0  0  0  0  0  0  0
   55.6820   87.5800   25.7210 H   0  0  0  0  0  0  0  0  0  0  0  0
   56.5450   85.9830   26.0200 H   0  0  0  0  0  0  0  0  0  0  0  0
   56.7450   85.7150   23.5810 H   0  0  0  0  0  0  0  0  0  0  0  0
   57.3650   87.3300   24.0580 H   0  0  0  0  0  0  0  0  0  0  0  0
   53.8440   86.4260   22.0700 H   0  0  0  0  0  0  0  0  0  0  0  0
   53.4090   87.4030   23.5560 H   0  0  0  0  0  0  0  0  0  0  0  0
   54.9660   84.7990   23.4830 H   0  0  0  0  0  0  0  0  0  0  0  0
   53.2630   84.9570   23.9600 H   0  0  0  0  0  0  0  0  0  0  0  0
   56.5040   88.0920   20.5530 H   0  0  0  0  0  0  0  0  0  0  0  0
   56.5870   89.8200   20.9500 H   0  0  0  0  0  0  0  0  0  0  0  0
   51.8970   88.4600   18.7580 H   0  0  0  0  0  0  0  0  0  0  0  0
   53.3610   89.7720   16.5560 H   0  0  0  0  0  0  0  0  0  0  0  0
   55.0300   89.5800   17.3010 H   0  0  0  0  0  0  0  0  0  0  0  0
   54.2340   91.8860   15.9900 H   0  0  0  0  0  0  0  0  0  0  0  0
   55.2760   91.8760   17.4920 H   0  0  0  0  0  0  0  0  0  0  0  0
   52.5440   92.9390   17.1270 H   0  0  0  0  0  0  0  0  0  0  0  0
   53.6170   92.9140   18.6180 H   0  0  0  0  0  0  0  0  0  0  0  0
   51.6010   90.7780   17.7450 H   0  0  0  0  0  0  0  0  0  0  0  0
   51.8920   91.5240   19.4010 H   0  0  0  0  0  0  0  0  0  0  0  0
   52.3740   84.1880   28.5340 H   0  0  0  0  0  0  0  0  0  0  0  0
   50.0780   83.1600   28.4400 H   0  0  0  0  0  0  0  0  0  0  0  0
   50.4390   82.7140   24.2850 H   0  0  0  0  0  0  0  0  0  0  0  0
   52.7180   83.7250   24.3290 H   0  0  0  0  0  0  0  0  0  0  0  0
  1  2  2  0  0  0  0
  3  1  2  0  0  0  0
  4  5  1  0  0  0  0
  4  1  1  0  0  0  0
  5 31  1  0  0  0  0
  5 32  1  0  0  0  0
  6 34  1  0  0  0  0
  6  5  1  0  0  0  0
  7  6  1  0  0  0  0
  8  7  1  0  0  0  0
  8 36  1  0  0  0  0
  8  9  1  0  0  0  0
  9  4  1  0  0  0  0
 10  7  1  0  0  0  0
 10 11  2  0  0  0  0
 12 10  1  0  0  0  0
 13 12  1  0  0  0  0
 14 15  2  0  0  0  0
 14 13  1  0  0  0  0
 16 14  1  0  0  0  0
 17 16  1  0  0  0  0
 17 22  1  0  0  0  0
 18 17  1  0  0  0  0
 19 18  1  0  0  0  0
 19 45  1  0  0  0  0
 19 20  1  0  0  0  0
 20 21  1  0  0  0  0
 20 47  1  0  0  0  0
 21 17  1  0  0  0  0
 21 49  1  0  0  0  0
 22 23  2  0  0  0  0
 22 13  1  0  0  0  0
 24  1  1  0  0  0  0
 24 25  1  0  0  0  0
 25 50  1  0  0  0  0
 26 25  2  0  0  0  0
 26 51  1  0  0  0  0
 27 26  1  0  0  0  0
 28 29  1  0  0  0  0
 28 27  2  0  0  0  0
 29 24  2  0  0  0  0
 30 27  1  0  0  0  0
 33  6  1  0  0  0  0
 35  8  1  0  0  0  0
 37  9  1  0  0  0  0
 38  9  1  0  0  0  0
 39 12  1  0  0  0  0
 40 12  1  0  0  0  0
 41 16  1  0  0  0  0
 42 18  1  0  0  0  0
 43 18  1  0  0  0  0
 44 19  1  0  0  0  0
 46 20  1  0  0  0  0
 48 21  1  0  0  0  0
 52 28  1  0  0  0  0
 53 29  1  0  0  0  0
M  END
>  <Pose>
1

>  <Score>
-6.67

$$$$
