
 OpenBabel03202210083D

 47 50  0  0  0  0  0  0  0  0999 V2000
   49.9560  100.6510   28.0260 S   0  0  0  0  0  0  0  0  0  0  0  0
   49.5400  101.3470   26.7890 O   0  0  0  0  0  0  0  0  0  0  0  0
   49.0610   99.4260   28.1680 O   0  0  0  0  0  0  0  0  0  0  0  0
   51.5590  100.1140   28.0240 N   0  0  0  0  0  0  0  0  0  0  0  0
   52.1690   99.8950   26.7880 C   0  0  0  0  0  0  0  0  0  0  0  0
   53.2970   98.9250   26.7540 C   0  0  0  0  0  0  0  0  0  0  0  0
   53.2600   97.9290   27.7770 N   0  0  0  0  0  0  0  0  0  0  0  0
   52.1650   97.9340   28.7230 C   0  0  0  0  0  0  0  0  0  0  0  0
   51.9960   99.3910   29.1480 C   0  0  0  0  0  0  0  0  0  0  0  0
   54.2580   96.9330   27.9030 C   0  0  0  0  0  0  0  0  0  0  0  0
   54.7500   96.6450   29.0410 O   0  0  0  0  0  0  0  0  0  0  0  0
   54.7820   96.1820   26.7700 C   0  0  0  0  0  0  0  0  0  0  0  0
   55.9090   96.5800   26.0760 C   0  0  0  0  0  0  0  0  0  0  0  0
   56.4140   95.8790   25.0050 C   0  0  0  0  0  0  0  0  0  0  0  0
   55.7540   94.7240   24.6150 C   0  0  0  0  0  0  0  0  0  0  0  0
   54.6280   94.2800   25.2690 C   0  0  0  0  0  0  0  0  0  0  0  0
   54.1630   95.0180   26.3340 C   0  0  0  0  0  0  0  0  0  0  0  0
   56.7670   98.1800   26.6700 B   0  0  0  0  0  0  0  0  0  0  0  0
   49.6430  101.6290   29.4550 C   0  0  0  0  0  0  0  0  0  0  0  0
   48.9400  102.8140   29.3760 C   0  0  0  0  0  0  0  0  0  0  0  0
   48.6770  103.6030   30.4780 C   0  0  0  0  0  0  0  0  0  0  0  0
   49.1220  103.2240   31.7270 C   0  0  0  0  0  0  0  0  0  0  0  0
   49.8290  102.0340   31.8100 C   0  0  0  0  0  0  0  0  0  0  0  0
   50.0870  101.2500   30.7050 C   0  0  0  0  0  0  0  0  0  0  0  0
   48.8740  104.0000   32.8580 O   0  0  0  0  0  0  0  0  0  0  0  0
   48.3880  105.3280   32.8190 C   0  0  0  0  0  0  0  0  0  0  0  0
   47.6900  105.6310   31.5440 C   0  0  0  0  0  0  0  0  0  0  0  0
   46.8900  106.6010   31.5410 O   0  0  0  0  0  0  0  0  0  0  0  0
   47.9540  104.8250   30.4010 N   0  0  0  0  0  0  0  0  0  0  0  0
   52.5450  100.8810   26.3870 H   0  0  0  0  0  0  0  0  0  0  0  0
   51.3770   99.5790   26.0460 H   0  0  0  0  0  0  0  0  0  0  0  0
   54.2710   99.4720   26.7220 H   0  0  0  0  0  0  0  0  0  0  0  0
   53.2610   98.3750   25.7680 H   0  0  0  0  0  0  0  0  0  0  0  0
   52.3670   97.2850   29.5970 H   0  0  0  0  0  0  0  0  0  0  0  0
   51.2370   97.6080   28.2400 H   0  0  0  0  0  0  0  0  0  0  0  0
   51.2670   99.3900   29.9650 H   0  0  0  0  0  0  0  0  0  0  0  0
   53.0010   99.7680   29.4670 H   0  0  0  0  0  0  0  0  0  0  0  0
   57.3110   96.2080   24.4620 H   0  0  0  0  0  0  0  0  0  0  0  0
   56.1650   94.1770   23.7630 H   0  0  0  0  0  0  0  0  0  0  0  0
   54.1290   93.3650   24.9370 H   0  0  0  0  0  0  0  0  0  0  0  0
   53.2800   94.6750   26.8520 H   0  0  0  0  0  0  0  0  0  0  0  0
   48.5860  103.1230   28.4050 H   0  0  0  0  0  0  0  0  0  0  0  0
   50.1810  101.7340   32.7920 H   0  0  0  0  0  0  0  0  0  0  0  0
   50.6360  100.3270   30.7710 H   0  0  0  0  0  0  0  0  0  0  0  0
   49.2340  106.0610   32.9200 H   0  0  0  0  0  0  0  0  0  0  0  0
   47.7370  105.4900   33.7010 H   0  0  0  0  0  0  0  0  0  0  0  0
   47.6110  105.1250   29.4640 H   0  0  0  0  0  0  0  0  0  0  0  0
  1  3  2  0  0  0  0
  1 19  1  0  0  0  0
  2  1  2  0  0  0  0
  4  1  1  0  0  0  0
  4  9  1  0  0  0  0
  5  4  1  0  0  0  0
  6  5  1  0  0  0  0
  6  7  1  0  0  0  0
  7 10  1  0  0  0  0
  7  8  1  0  0  0  0
  8  9  1  0  0  0  0
  8 34  1  0  0  0  0
  9 37  1  0  0  0  0
  9 36  1  0  0  0  0
 10 11  2  0  0  0  0
 12 10  1  0  0  0  0
 13 18  1  0  0  0  0
 13 12  2  0  0  0  0
 14 13  1  0  0  0  0
 15 14  2  0  0  0  0
 15 16  1  0  0  0  0
 16 17  2  0  0  0  0
 17 12  1  0  0  0  0
 17 41  1  0  0  0  0
 19 24  1  0  0  0  0
 20 19  2  0  0  0  0
 20 21  1  0  0  0  0
 21 22  2  0  0  0  0
 22 23  1  0  0  0  0
 22 25  1  0  0  0  0
 23 43  1  0  0  0  0
 24 44  1  0  0  0  0
 24 23  2  0  0  0  0
 26 25  1  0  0  0  0
 26 45  1  0  0  0  0
 26 46  1  0  0  0  0
 27 26  1  0  0  0  0
 28 27  2  0  0  0  0
 29 21  1  0  0  0  0
 29 27  1  0  0  0  0
 30  5  1  0  0  0  0
 31  5  1  0  0  0  0
 32  6  1  0  0  0  0
 33  6  1  0  0  0  0
 35  8  1  0  0  0  0
 38 14  1  0  0  0  0
 39 15  1  0  0  0  0
 40 16  1  0  0  0  0
 42 20  1  0  0  0  0
 47 29  1  0  0  0  0
M  END
>  <Pose>
1

>  <Score>
-7.68

$$$$
