
 OpenBabel03202210083D

 43 46  0  0  0  0  0  0  0  0999 V2000
   55.4060   86.7470   22.1910 S   0  0  0  0  0  0  0  0  0  0  0  0
   55.9740   85.7700   21.2120 O   0  0  0  0  0  0  0  0  0  0  0  0
   53.9200   86.9060   21.9000 O   0  0  0  0  0  0  0  0  0  0  0  0
   56.1160   88.2990   21.9610 N   0  0  0  0  0  0  0  0  0  0  0  0
   56.3760   88.9980   23.1650 C   0  0  0  0  0  0  0  0  0  0  0  0
   55.5980   90.2490   23.3930 C   0  0  0  0  0  0  0  0  0  0  0  0
   55.3100   90.9870   22.1920 N   0  0  0  0  0  0  0  0  0  0  0  0
   55.8260   90.4380   20.9580 C   0  0  0  0  0  0  0  0  0  0  0  0
   55.3780   88.9910   20.9610 C   0  0  0  0  0  0  0  0  0  0  0  0
   54.5740   92.1860   22.1520 C   0  0  0  0  0  0  0  0  0  0  0  0
   53.7690   92.3920   21.2170 O   0  0  0  0  0  0  0  0  0  0  0  0
   54.7420   93.1950   23.1930 C   0  0  0  0  0  0  0  0  0  0  0  0
   53.7810   93.6700   23.9780 N   0  0  0  0  0  0  0  0  0  0  0  0
   54.2760   94.5800   24.8200 N   0  0  0  0  0  0  0  0  0  0  0  0
   55.6030   94.7220   24.5970 C   0  0  0  0  0  0  0  0  0  0  0  0
   55.8990   93.8350   23.5560 C   0  0  0  0  0  0  0  0  0  0  0  0
   56.3620   95.5870   25.3150 N   0  0  0  0  0  0  0  0  0  0  0  0
   55.7780   96.3390   26.2910 C   0  0  0  0  0  0  0  0  0  0  0  0
   54.4280   96.2170   26.5420 C   0  0  0  0  0  0  0  0  0  0  0  0
   53.7000   95.3260   25.7870 C   0  0  0  0  0  0  0  0  0  0  0  0
   53.6070   97.2790   27.9200 B   0  0  0  0  0  0  0  0  0  0  0  0
   55.6590   86.1450   23.8100 C   0  0  0  0  0  0  0  0  0  0  0  0
   54.7330   85.5430   24.6310 C   0  0  0  0  0  0  0  0  0  0  0  0
   55.3040   85.2210   25.7920 N   0  0  0  0  0  0  0  0  0  0  0  0
   56.5690   85.5920   25.7540 N   0  0  0  0  0  0  0  0  0  0  0  0
   56.8380   86.1670   24.5540 C   0  0  0  0  0  0  0  0  0  0  0  0
   54.6850   84.5770   26.9210 C   0  0  0  0  0  0  0  0  0  0  0  0
   56.2150   88.3170   24.0270 H   0  0  0  0  0  0  0  0  0  0  0  0
   57.4580   89.2630   23.1840 H   0  0  0  0  0  0  0  0  0  0  0  0
   54.6130   90.0410   23.9070 H   0  0  0  0  0  0  0  0  0  0  0  0
   56.1340   90.9420   24.0760 H   0  0  0  0  0  0  0  0  0  0  0  0
   55.4330   90.9570   20.0640 H   0  0  0  0  0  0  0  0  0  0  0  0
   56.9360   90.4900   21.0270 H   0  0  0  0  0  0  0  0  0  0  0  0
   55.6220   88.5410   19.9750 H   0  0  0  0  0  0  0  0  0  0  0  0
   54.2870   88.9580   21.1050 H   0  0  0  0  0  0  0  0  0  0  0  0
   56.8620   93.6800   23.1170 H   0  0  0  0  0  0  0  0  0  0  0  0
   56.3440   97.0410   26.8890 H   0  0  0  0  0  0  0  0  0  0  0  0
   52.6360   95.2180   25.9710 H   0  0  0  0  0  0  0  0  0  0  0  0
   53.6810   85.3360   24.4170 H   0  0  0  0  0  0  0  0  0  0  0  0
   57.7850   86.5720   24.2190 H   0  0  0  0  0  0  0  0  0  0  0  0
   54.5570   85.3310   27.7250 H   0  0  0  0  0  0  0  0  0  0  0  0
   55.3610   83.8020   27.3330 H   0  0  0  0  0  0  0  0  0  0  0  0
   53.6950   84.1530   26.6580 H   0  0  0  0  0  0  0  0  0  0  0  0
  1 22  1  0  0  0  0
  2  1  2  0  0  0  0
  3  1  2  0  0  0  0
  4  1  1  0  0  0  0
  4  5  1  0  0  0  0
  5 29  1  0  0  0  0
  5  6  1  0  0  0  0
  5 28  1  0  0  0  0
  6 30  1  0  0  0  0
  6 31  1  0  0  0  0
  7  6  1  0  0  0  0
  8  9  1  0  0  0  0
  8 33  1  0  0  0  0
  8  7  1  0  0  0  0
  9 35  1  0  0  0  0
  9  4  1  0  0  0  0
 10  7  1  0  0  0  0
 10 12  1  0  0  0  0
 11 10  2  0  0  0  0
 12 16  1  0  0  0  0
 12 13  2  0  0  0  0
 13 14  1  0  0  0  0
 14 20  1  0  0  0  0
 15 14  1  0  0  0  0
 15 17  1  0  0  0  0
 16 15  2  0  0  0  0
 17 18  2  0  0  0  0
 18 19  1  0  0  0  0
 18 37  1  0  0  0  0
 19 21  1  0  0  0  0
 20 38  1  0  0  0  0
 20 19  2  0  0  0  0
 22 26  1  0  0  0  0
 22 23  2  0  0  0  0
 23 24  1  0  0  0  0
 24 27  1  0  0  0  0
 25 24  1  0  0  0  0
 26 25  2  0  0  0  0
 27 42  1  0  0  0  0
 27 41  1  0  0  0  0
 32  8  1  0  0  0  0
 34  9  1  0  0  0  0
 36 16  1  0  0  0  0
 39 23  1  0  0  0  0
 40 26  1  0  0  0  0
 43 27  1  0  0  0  0
M  END
>  <Pose>
1

>  <Score>
-8.42

$$$$
