
 OpenBabel03202210083D

 54 58  0  0  1  0  0  0  0  0999 V2000
   55.2150   91.8580   22.0400 S   0  0  0  0  0  0  0  0  0  0  0  0
   56.2310   92.9480   22.3560 O   0  0  0  0  0  0  0  0  0  0  0  0
   53.9350   92.3450   22.7220 O   0  0  0  0  0  0  0  0  0  0  0  0
   54.9440   91.8700   20.3830 N   0  0  0  0  0  0  0  0  0  0  0  0
   55.5840   90.8350   19.6150 C   0  0  0  0  0  0  0  0  0  0  0  0
   54.6300   90.2010   18.6290 C   0  0  0  0  0  0  0  0  0  0  0  0
   53.4180   89.7150   19.3360 N   0  0  0  0  0  0  0  0  0  0  0  0
   52.7360   90.8780   19.8840 C   0  0  0  0  0  0  0  0  0  0  0  0
   53.6110   92.1190   19.9260 C   0  0  0  0  0  0  0  0  0  0  0  0
   52.6150   89.1350   18.2810 C   0  0  0  0  0  0  0  0  0  0  0  0
   51.7850   87.9680   18.6110 C   0  0  0  0  0  0  0  0  0  0  0  0
   52.3780   86.6760   18.6890 N   0  0  0  0  0  0  0  0  0  0  0  0
   52.3050   85.5650   17.8030 C   0  0  0  0  0  0  0  0  0  0  0  0
   51.3780   85.3380   17.0120 O   0  0  0  0  0  0  0  0  0  0  0  0
   53.5160   84.7290   17.9850 C   0  0  1  0  0  0  0  0  0  0  0  0
   53.8260   85.0080   19.4740 C   0  0  2  0  0  0  0  0  0  0  0  0
   53.2640   83.8570   20.2190 C   0  0  1  0  0  0  0  0  0  0  0  0
   52.1840   83.3410   19.2540 C   0  0  0  0  0  0  0  0  0  0  0  0
   53.1440   83.2910   18.0520 C   0  0  2  0  0  0  0  0  0  0  0  0
   54.2940   82.5780   18.7020 C   0  0  0  0  0  0  0  0  0  0  0  0
   54.2360   82.7110   20.0270 C   0  0  0  0  0  0  0  0  0  0  0  0
   53.2590   86.3150   19.7750 C   0  0  0  0  0  0  0  0  0  0  0  0
   53.5140   86.9830   20.8090 O   0  0  0  0  0  0  0  0  0  0  0  0
   55.6380   90.3590   22.7630 C   0  0  0  0  0  0  0  0  0  0  0  0
   55.5240   90.1740   24.1190 C   0  0  0  0  0  0  0  0  0  0  0  0
   55.8650   88.9490   24.6640 C   0  0  0  0  0  0  0  0  0  0  0  0
   56.3200   87.8940   23.8950 C   0  0  0  0  0  0  0  0  0  0  0  0
   56.4330   88.0840   22.5340 C   0  0  0  0  0  0  0  0  0  0  0  0
   56.0910   89.3150   21.9860 C   0  0  0  0  0  0  0  0  0  0  0  0
   56.7920   86.2060   24.6450 B   0  0  0  0  0  0  0  0  0  0  0  0
   56.3800   91.3210   19.0040 H   0  0  0  0  0  0  0  0  0  0  0  0
   56.0610   90.0990   20.2620 H   0  0  0  0  0  0  0  0  0  0  0  0
   55.1110   89.3040   18.2000 H   0  0  0  0  0  0  0  0  0  0  0  0
   54.3340   90.8700   17.8010 H   0  0  0  0  0  0  0  0  0  0  0  0
   52.4930   90.6730   20.9390 H   0  0  0  0  0  0  0  0  0  0  0  0
   51.8250   91.0450   19.2820 H   0  0  0  0  0  0  0  0  0  0  0  0
   53.1600   92.9220   20.5060 H   0  0  0  0  0  0  0  0  0  0  0  0
   53.6950   92.4810   18.8760 H   0  0  0  0  0  0  0  0  0  0  0  0
   53.3060   88.8050   17.4400 H   0  0  0  0  0  0  0  0  0  0  0  0
   52.0290   89.9660   17.7740 H   0  0  0  0  0  0  0  0  0  0  0  0
   51.3290   88.1840   19.6330 H   0  0  0  0  0  0  0  0  0  0  0  0
   50.8950   87.9800   17.9200 H   0  0  0  0  0  0  0  0  0  0  0  0
   54.3410   84.9910   17.3290 H   0  0  0  0  0  0  0  0  0  0  0  0
   54.9440   84.9860   19.6200 H   0  0  0  0  0  0  0  0  0  0  0  0
   52.9250   84.0040   21.2170 H   0  0  0  0  0  0  0  0  0  0  0  0
   51.8320   82.3370   19.5180 H   0  0  0  0  0  0  0  0  0  0  0  0
   51.4040   84.0690   19.0490 H   0  0  0  0  0  0  0  0  0  0  0  0
   52.7500   82.8220   17.1840 H   0  0  0  0  0  0  0  0  0  0  0  0
   55.0850   82.0210   18.2120 H   0  0  0  0  0  0  0  0  0  0  0  0
   54.7530   82.1420   20.7760 H   0  0  0  0  0  0  0  0  0  0  0  0
   55.1660   90.9770   24.7830 H   0  0  0  0  0  0  0  0  0  0  0  0
   55.7730   88.8040   25.7410 H   0  0  0  0  0  0  0  0  0  0  0  0
   56.7910   87.2530   21.9450 H   0  0  0  0  0  0  0  0  0  0  0  0
   56.2060   89.3760   20.9140 H   0  0  0  0  0  0  0  0  0  0  0  0
  1  2  2  0  0  0  0
  1  3  2  0  0  0  0
  1 24  1  0  0  0  0
  4  1  1  0  0  0  0
  5 32  1  0  0  0  0
  5  4  1  0  0  0  0
  6  7  1  0  0  0  0
  6  5  1  0  0  0  0
  7  8  1  0  0  0  0
  8  9  1  0  0  0  0
  8 35  1  0  0  0  0
  9  4  1  0  0  0  0
  9 37  1  0  0  0  0
 10 11  1  0  0  0  0
 10  7  1  0  0  0  0
 11 12  1  0  0  0  0
 11 41  1  0  0  0  0
 12 22  1  0  0  0  0
 13 15  1  0  0  0  0
 13 12  1  0  0  0  0
 14 13  2  0  0  0  0
 15 43  1  6  0  0  0
 15 19  1  0  0  0  0
 15 16  1  0  0  0  0
 16 44  1  1  0  0  0
 16 22  1  0  0  0  0
 16 17  1  0  0  0  0
 17 45  1  1  0  0  0
 18 46  1  0  0  0  0
 18 17  1  0  0  0  0
 19 48  1  6  0  0  0
 19 20  1  0  0  0  0
 19 18  1  0  0  0  0
 20 21  1  0  0  0  0
 21 17  1  0  0  0  0
 21 50  1  0  0  0  0
 22 23  2  0  0  0  0
 24 25  1  0  0  0  0
 25 26  2  0  0  0  0
 25 51  1  0  0  0  0
 26 52  1  0  0  0  0
 27 30  1  0  0  0  0
 27 26  1  0  0  0  0
 28 27  2  0  0  0  0
 29 28  1  0  0  0  0
 29 24  2  0  0  0  0
 31  5  1  0  0  0  0
 33  6  1  0  0  0  0
 34  6  1  0  0  0  0
 36  8  1  0  0  0  0
 38  9  1  0  0  0  0
 39 10  1  0  0  0  0
 40 10  1  0  0  0  0
 42 11  1  0  0  0  0
 47 18  1  0  0  0  0
 49 20  1  0  0  0  0
 53 28  1  0  0  0  0
 54 29  1  0  0  0  0
M  END
>  <Pose>
1

>  <Score>
-6.24

$$$$
