
 OpenBabel03202210083D

 45 48  0  0  0  0  0  0  0  0999 V2000
   53.2330   91.8230   18.9100 S   0  0  0  0  0  0  0  0  0  0  0  0
   51.9520   92.5870   18.9000 O   0  0  0  0  0  0  0  0  0  0  0  0
   53.9150   92.0100   17.5930 O   0  0  0  0  0  0  0  0  0  0  0  0
   54.2370   92.2650   20.1570 N   0  0  0  0  0  0  0  0  0  0  0  0
   54.8080   93.5500   20.1490 C   0  0  0  0  0  0  0  0  0  0  0  0
   55.6530   93.8360   21.3600 C   0  0  0  0  0  0  0  0  0  0  0  0
   55.3780   93.0050   22.4770 N   0  0  0  0  0  0  0  0  0  0  0  0
   55.5190   91.6320   22.1460 C   0  0  0  0  0  0  0  0  0  0  0  0
   54.9150   91.2370   20.8500 C   0  0  0  0  0  0  0  0  0  0  0  0
   54.2100   93.4070   23.1670 C   0  0  0  0  0  0  0  0  0  0  0  0
   54.3860   94.2200   24.3220 N   0  0  0  0  0  0  0  0  0  0  0  0
   55.3460   95.1210   24.3710 N   0  0  0  0  0  0  0  0  0  0  0  0
   55.5840   95.9230   25.4210 C   0  0  0  0  0  0  0  0  0  0  0  0
   54.7570   95.7770   26.5090 C   0  0  0  0  0  0  0  0  0  0  0  0
   53.7350   94.8520   26.5210 C   0  0  0  0  0  0  0  0  0  0  0  0
   53.5760   94.0740   25.3820 C   0  0  0  0  0  0  0  0  0  0  0  0
   52.6250   93.2160   25.3960 O   0  0  0  0  0  0  0  0  0  0  0  0
   56.6370   96.8930   25.4430 N   0  0  0  0  0  0  0  0  0  0  0  0
   57.7270   96.9600   24.6730 C   0  0  0  0  0  0  0  0  0  0  0  0
   58.4460   98.0370   25.0390 N   0  0  0  0  0  0  0  0  0  0  0  0
   57.8180   98.6660   26.0480 C   0  0  0  0  0  0  0  0  0  0  0  0
   56.6770   97.9320   26.2920 C   0  0  0  0  0  0  0  0  0  0  0  0
   52.8170   90.1040   19.0790 C   0  0  0  0  0  0  0  0  0  0  0  0
   53.8300   88.7840   19.4470 S   0  0  0  0  0  0  0  0  0  0  0  0
   52.6710   87.5360   19.4180 C   0  0  0  0  0  0  0  0  0  0  0  0
   51.5050   88.1950   19.1160 C   0  0  0  0  0  0  0  0  0  0  0  0
   51.5880   89.5230   18.9420 C   0  0  0  0  0  0  0  0  0  0  0  0
   52.9080   85.6600   19.7270 B   0  0  0  0  0  0  0  0  0  0  0  0
   55.3950   93.6890   19.2160 H   0  0  0  0  0  0  0  0  0  0  0  0
   53.9990   94.3190   20.1140 H   0  0  0  0  0  0  0  0  0  0  0  0
   55.5560   94.8970   21.6620 H   0  0  0  0  0  0  0  0  0  0  0  0
   56.7210   93.6940   21.0760 H   0  0  0  0  0  0  0  0  0  0  0  0
   55.2280   90.9470   22.9950 H   0  0  0  0  0  0  0  0  0  0  0  0
   56.6340   91.4450   22.0640 H   0  0  0  0  0  0  0  0  0  0  0  0
   54.1960   90.3970   21.0430 H   0  0  0  0  0  0  0  0  0  0  0  0
   55.6690   90.7890   20.1490 H   0  0  0  0  0  0  0  0  0  0  0  0
   53.5960   94.0170   22.4390 H   0  0  0  0  0  0  0  0  0  0  0  0
   53.5330   92.5360   23.4010 H   0  0  0  0  0  0  0  0  0  0  0  0
   54.9150   96.4050   27.3780 H   0  0  0  0  0  0  0  0  0  0  0  0
   53.0800   94.7290   27.3680 H   0  0  0  0  0  0  0  0  0  0  0  0
   57.9780   96.2520   23.8830 H   0  0  0  0  0  0  0  0  0  0  0  0
   58.1570   99.5780   26.5620 H   0  0  0  0  0  0  0  0  0  0  0  0
   55.9540   98.1780   27.0490 H   0  0  0  0  0  0  0  0  0  0  0  0
   50.5560   87.6090   19.0300 H   0  0  0  0  0  0  0  0  0  0  0  0
   50.6840   90.1260   18.6950 H   0  0  0  0  0  0  0  0  0  0  0  0
  1 23  1  0  0  0  0
  1  4  1  0  0  0  0
  2  1  2  0  0  0  0
  3  1  2  0  0  0  0
  4  9  1  0  0  0  0
  5  4  1  0  0  0  0
  5  6  1  0  0  0  0
  6 31  1  0  0  0  0
  6  7  1  0  0  0  0
  7 10  1  0  0  0  0
  8  7  1  0  0  0  0
  8 33  1  0  0  0  0
  9 35  1  0  0  0  0
  9  8  1  0  0  0  0
 10 38  1  0  0  0  0
 10 11  1  0  0  0  0
 11 12  1  0  0  0  0
 11 16  1  0  0  0  0
 12 13  2  0  0  0  0
 13 18  1  0  0  0  0
 13 14  1  0  0  0  0
 14 15  2  0  0  0  0
 14 39  1  0  0  0  0
 15 40  1  0  0  0  0
 16 17  2  0  0  0  0
 16 15  1  0  0  0  0
 18 22  1  0  0  0  0
 19 20  2  0  0  0  0
 19 18  1  0  0  0  0
 20 21  1  0  0  0  0
 21 22  2  0  0  0  0
 21 42  1  0  0  0  0
 22 43  1  0  0  0  0
 23 24  1  0  0  0  0
 25 24  1  0  0  0  0
 25 28  1  0  0  0  0
 26 25  2  0  0  0  0
 27 23  2  0  0  0  0
 27 26  1  0  0  0  0
 29  5  1  0  0  0  0
 30  5  1  0  0  0  0
 32  6  1  0  0  0  0
 34  8  1  0  0  0  0
 36  9  1  0  0  0  0
 37 10  1  0  0  0  0
 41 19  1  0  0  0  0
 44 26  1  0  0  0  0
 45 27  1  0  0  0  0
M  END
>  <Pose>
1

>  <Score>
-7.05

$$$$
