
 OpenBabel03202210083D

 44 47  0  0  0  0  0  0  0  0999 V2000
   55.0010   92.5410   22.8600 S   0  0  0  0  0  0  0  0  0  0  0  0
   55.3790   91.4170   23.7400 O   0  0  0  0  0  0  0  0  0  0  0  0
   56.2240   93.4450   22.7690 O   0  0  0  0  0  0  0  0  0  0  0  0
   53.7010   93.4850   23.4190 N   0  0  0  0  0  0  0  0  0  0  0  0
   53.5160   94.7460   22.8100 C   0  0  0  0  0  0  0  0  0  0  0  0
   53.8020   95.9500   23.6440 C   0  0  0  0  0  0  0  0  0  0  0  0
   54.2440   95.6580   24.9850 N   0  0  0  0  0  0  0  0  0  0  0  0
   53.7160   94.5200   25.6650 C   0  0  0  0  0  0  0  0  0  0  0  0
   53.4050   93.3520   24.7950 C   0  0  0  0  0  0  0  0  0  0  0  0
   55.2010   96.5520   25.5730 C   0  0  0  0  0  0  0  0  0  0  0  0
   54.9320   97.5030   26.4840 N   0  0  0  0  0  0  0  0  0  0  0  0
   56.1060   98.0950   26.7320 N   0  0  0  0  0  0  0  0  0  0  0  0
   57.0490   97.5350   26.0070 N   0  0  0  0  0  0  0  0  0  0  0  0
   56.5280   96.5730   25.2750 N   0  0  0  0  0  0  0  0  0  0  0  0
   53.6700   97.7990   27.0640 C   0  0  0  0  0  0  0  0  0  0  0  0
   52.9420   96.8360   27.7240 C   0  0  0  0  0  0  0  0  0  0  0  0
   51.7060   97.1590   28.2830 C   0  0  0  0  0  0  0  0  0  0  0  0
   51.1890   98.4320   28.1900 C   0  0  0  0  0  0  0  0  0  0  0  0
   51.9290   99.4120   27.5170 C   0  0  0  0  0  0  0  0  0  0  0  0
   53.1650   99.0710   26.9640 C   0  0  0  0  0  0  0  0  0  0  0  0
   54.6690   91.9720   21.2480 C   0  0  0  0  0  0  0  0  0  0  0  0
   53.5440   92.3260   20.5470 C   0  0  0  0  0  0  0  0  0  0  0  0
   53.2920   91.8650   19.2550 C   0  0  0  0  0  0  0  0  0  0  0  0
   54.2310   91.0130   18.6650 C   0  0  0  0  0  0  0  0  0  0  0  0
   55.3640   90.6510   19.3590 C   0  0  0  0  0  0  0  0  0  0  0  0
   55.5740   91.1240   20.6240 C   0  0  0  0  0  0  0  0  0  0  0  0
   53.9510   90.3450   16.8940 B   0  0  0  0  0  0  0  0  0  0  0  0
   54.0910   94.7400   21.8480 H   0  0  0  0  0  0  0  0  0  0  0  0
   52.4310   94.7880   22.4880 H   0  0  0  0  0  0  0  0  0  0  0  0
   54.5650   96.5550   23.0800 H   0  0  0  0  0  0  0  0  0  0  0  0
   52.9020   96.6140   23.6560 H   0  0  0  0  0  0  0  0  0  0  0  0
   54.4350   94.1690   26.4620 H   0  0  0  0  0  0  0  0  0  0  0  0
   52.7990   94.8810   26.2170 H   0  0  0  0  0  0  0  0  0  0  0  0
   52.3010   93.1390   24.8930 H   0  0  0  0  0  0  0  0  0  0  0  0
   53.8820   92.4080   25.1870 H   0  0  0  0  0  0  0  0  0  0  0  0
   53.2920   95.8030   27.8360 H   0  0  0  0  0  0  0  0  0  0  0  0
   51.1020   96.4170   28.8160 H   0  0  0  0  0  0  0  0  0  0  0  0
   50.2380   98.7140   28.6100 H   0  0  0  0  0  0  0  0  0  0  0  0
   51.5200  100.4040   27.4480 H   0  0  0  0  0  0  0  0  0  0  0  0
   53.6840   99.8840   26.4560 H   0  0  0  0  0  0  0  0  0  0  0  0
   52.7980   92.9950   21.0000 H   0  0  0  0  0  0  0  0  0  0  0  0
   52.4210   92.1270   18.6900 H   0  0  0  0  0  0  0  0  0  0  0  0
   56.0650   89.9800   18.8490 H   0  0  0  0  0  0  0  0  0  0  0  0
   56.4930   90.8110   21.1480 H   0  0  0  0  0  0  0  0  0  0  0  0
  1  4  1  0  0  0  0
  1  2  2  0  0  0  0
  3  1  2  0  0  0  0
  4  9  1  0  0  0  0
  5  4  1  0  0  0  0
  5  6  1  0  0  0  0
  6 31  1  0  0  0  0
  6  7  1  0  0  0  0
  7 10  1  0  0  0  0
  7  8  1  0  0  0  0
  8 33  1  0  0  0  0
  8 32  1  0  0  0  0
  9 34  1  0  0  0  0
  9 35  1  0  0  0  0
  9  8  1  0  0  0  0
 10 11  1  0  0  0  0
 11 12  1  0  0  0  0
 11 15  1  0  0  0  0
 13 12  2  0  0  0  0
 14 10  2  0  0  0  0
 14 13  1  0  0  0  0
 15 16  1  0  0  0  0
 16 36  1  0  0  0  0
 16 17  2  0  0  0  0
 17 37  1  0  0  0  0
 18 17  1  0  0  0  0
 18 38  1  0  0  0  0
 19 18  2  0  0  0  0
 20 15  2  0  0  0  0
 20 19  1  0  0  0  0
 21  1  1  0  0  0  0
 22 41  1  0  0  0  0
 22 21  2  0  0  0  0
 23 22  1  0  0  0  0
 24 23  2  0  0  0  0
 24 25  1  0  0  0  0
 25 26  2  0  0  0  0
 26 44  1  0  0  0  0
 26 21  1  0  0  0  0
 27 24  1  0  0  0  0
 28  5  1  0  0  0  0
 29  5  1  0  0  0  0
 30  6  1  0  0  0  0
 39 19  1  0  0  0  0
 40 20  1  0  0  0  0
 42 23  1  0  0  0  0
 43 25  1  0  0  0  0
M  END
>  <Pose>
1

>  <Score>
-6.26

$$$$
