
 OpenBabel03202210083D

 53 56  0  0  0  0  0  0  0  0999 V2000
   49.3340  101.2590   28.1940 S   0  0  0  0  0  0  0  0  0  0  0  0
   49.7030  102.4740   27.3590 O   0  0  0  0  0  0  0  0  0  0  0  0
   48.0170  100.7380   27.6950 O   0  0  0  0  0  0  0  0  0  0  0  0
   50.5500  100.0560   27.9400 N   0  0  0  0  0  0  0  0  0  0  0  0
   50.0040   98.7900   28.3010 C   0  0  0  0  0  0  0  0  0  0  0  0
   51.0330   97.8230   28.8430 C   0  0  0  0  0  0  0  0  0  0  0  0
   52.3040   98.1850   28.2860 N   0  0  0  0  0  0  0  0  0  0  0  0
   52.8470   99.4740   28.5970 C   0  0  0  0  0  0  0  0  0  0  0  0
   51.7020  100.4480   28.7150 C   0  0  0  0  0  0  0  0  0  0  0  0
   52.9920   97.2860   27.4540 C   0  0  0  0  0  0  0  0  0  0  0  0
   54.1370   97.6070   26.8300 N   0  0  0  0  0  0  0  0  0  0  0  0
   54.8290   96.8080   26.0370 C   0  0  0  0  0  0  0  0  0  0  0  0
   54.3380   95.5300   25.8280 C   0  0  0  0  0  0  0  0  0  0  0  0
   53.1670   95.1540   26.4460 C   0  0  0  0  0  0  0  0  0  0  0  0
   52.5260   96.0320   27.2390 N   0  0  0  0  0  0  0  0  0  0  0  0
   52.6070   93.7900   26.2470 C   0  0  0  0  0  0  0  0  0  0  0  0
   56.0260   97.2680   25.4360 N   0  0  0  0  0  0  0  0  0  0  0  0
   56.9190   98.2240   26.0590 C   0  0  0  0  0  0  0  0  0  0  0  0
   58.2890   98.0070   25.4190 C   0  0  0  0  0  0  0  0  0  0  0  0
   58.4770   96.6270   25.3180 O   0  0  0  0  0  0  0  0  0  0  0  0
   57.7350   96.0480   24.3140 C   0  0  0  0  0  0  0  0  0  0  0  0
   56.3920   96.7660   24.1320 C   0  0  0  0  0  0  0  0  0  0  0  0
   49.2470  101.7370   29.8650 C   0  0  0  0  0  0  0  0  0  0  0  0
   48.0470  102.2340   30.3530 C   0  0  0  0  0  0  0  0  0  0  0  0
   47.9040  102.6320   31.6640 C   0  0  0  0  0  0  0  0  0  0  0  0
   48.9730  102.5420   32.5220 C   0  0  0  0  0  0  0  0  0  0  0  0
   50.1850  102.0530   32.0740 C   0  0  0  0  0  0  0  0  0  0  0  0
   50.2960  101.6580   30.7430 C   0  0  0  0  0  0  0  0  0  0  0  0
   48.7590  103.0970   34.3330 B   0  0  0  0  0  0  0  0  0  0  0  0
   49.1460   98.8310   28.9930 H   0  0  0  0  0  0  0  0  0  0  0  0
   49.6030   98.3110   27.3620 H   0  0  0  0  0  0  0  0  0  0  0  0
   50.7600   96.7730   28.6720 H   0  0  0  0  0  0  0  0  0  0  0  0
   51.0340   97.9650   29.9620 H   0  0  0  0  0  0  0  0  0  0  0  0
   53.5880   99.7990   27.8330 H   0  0  0  0  0  0  0  0  0  0  0  0
   53.3890   99.4960   29.5750 H   0  0  0  0  0  0  0  0  0  0  0  0
   52.0530  101.4220   28.3120 H   0  0  0  0  0  0  0  0  0  0  0  0
   51.4020  100.6350   29.7700 H   0  0  0  0  0  0  0  0  0  0  0  0
   54.8940   94.8730   25.1850 H   0  0  0  0  0  0  0  0  0  0  0  0
   52.7230   93.1750   27.1760 H   0  0  0  0  0  0  0  0  0  0  0  0
   51.5190   93.8860   26.0710 H   0  0  0  0  0  0  0  0  0  0  0  0
   53.0380   93.3010   25.3550 H   0  0  0  0  0  0  0  0  0  0  0  0
   56.6160   99.2740   25.8850 H   0  0  0  0  0  0  0  0  0  0  0  0
   57.0320   98.0100   27.1540 H   0  0  0  0  0  0  0  0  0  0  0  0
   59.0810   98.4410   26.0300 H   0  0  0  0  0  0  0  0  0  0  0  0
   58.3060   98.4640   24.4150 H   0  0  0  0  0  0  0  0  0  0  0  0
   57.4770   94.9820   24.5830 H   0  0  0  0  0  0  0  0  0  0  0  0
   58.2800   96.0200   23.3630 H   0  0  0  0  0  0  0  0  0  0  0  0
   56.5170   97.6010   23.4020 H   0  0  0  0  0  0  0  0  0  0  0  0
   55.6290   96.0730   23.7360 H   0  0  0  0  0  0  0  0  0  0  0  0
   47.2050  102.3030   29.6710 H   0  0  0  0  0  0  0  0  0  0  0  0
   46.9650  103.0180   32.0390 H   0  0  0  0  0  0  0  0  0  0  0  0
   51.0340  101.9780   32.7460 H   0  0  0  0  0  0  0  0  0  0  0  0
   51.2450  101.2720   30.3760 H   0  0  0  0  0  0  0  0  0  0  0  0
  1 23  1  0  0  0  0
  2  1  2  0  0  0  0
  3  1  2  0  0  0  0
  4  1  1  0  0  0  0
  4  5  1  0  0  0  0
  4  9  1  0  0  0  0
  5  6  1  0  0  0  0
  5 30  1  0  0  0  0
  6 33  1  0  0  0  0
  7  8  1  0  0  0  0
  7  6  1  0  0  0  0
  8  9  1  0  0  0  0
  8 35  1  0  0  0  0
  9 37  1  0  0  0  0
 10  7  1  0  0  0  0
 11 10  2  0  0  0  0
 12 11  1  0  0  0  0
 13 12  2  0  0  0  0
 13 14  1  0  0  0  0
 14 15  2  0  0  0  0
 15 10  1  0  0  0  0
 16 14  1  0  0  0  0
 16 39  1  0  0  0  0
 17 12  1  0  0  0  0
 17 18  1  0  0  0  0
 18 43  1  0  0  0  0
 19 44  1  0  0  0  0
 19 18  1  0  0  0  0
 20 19  1  0  0  0  0
 21 46  1  0  0  0  0
 21 20  1  0  0  0  0
 22 21  1  0  0  0  0
 22 17  1  0  0  0  0
 23 24  2  0  0  0  0
 23 28  1  0  0  0  0
 24 25  1  0  0  0  0
 25 51  1  0  0  0  0
 25 26  2  0  0  0  0
 26 29  1  0  0  0  0
 27 26  1  0  0  0  0
 27 52  1  0  0  0  0
 28 27  2  0  0  0  0
 31  5  1  0  0  0  0
 32  6  1  0  0  0  0
 34  8  1  0  0  0  0
 36  9  1  0  0  0  0
 38 13  1  0  0  0  0
 40 16  1  0  0  0  0
 41 16  1  0  0  0  0
 42 18  1  0  0  0  0
 45 19  1  0  0  0  0
 47 21  1  0  0  0  0
 48 22  1  0  0  0  0
 49 22  1  0  0  0  0
 50 24  1  0  0  0  0
 53 28  1  0  0  0  0
M  END
>  <Pose>
1

>  <Score>
-6.15

$$$$
