
 OpenBabel03202210083D

 51 54  0  0  0  0  0  0  0  0999 V2000
   53.5800   97.4450   27.4220 S   0  0  0  0  0  0  0  0  0  0  0  0
   53.4950   97.0300   28.8510 O   0  0  0  0  0  0  0  0  0  0  0  0
   54.6520   98.5120   27.3300 O   0  0  0  0  0  0  0  0  0  0  0  0
   52.1180   98.1390   26.8770 N   0  0  0  0  0  0  0  0  0  0  0  0
   52.0700   99.5670   27.0440 C   0  0  0  0  0  0  0  0  0  0  0  0
   50.5920   99.9640   26.9810 C   0  0  0  0  0  0  0  0  0  0  0  0
   49.9470   99.6070   28.1450 O   0  0  0  0  0  0  0  0  0  0  0  0
   50.6340   98.5330   28.7370 C   0  0  0  0  0  0  0  0  0  0  0  0
   51.0010   97.5760   27.6130 C   0  0  0  0  0  0  0  0  0  0  0  0
   54.1160   96.1210   26.3980 C   0  0  0  0  0  0  0  0  0  0  0  0
   55.3100   96.1350   25.7370 C   0  0  0  0  0  0  0  0  0  0  0  0
   55.7090   95.0720   24.9320 C   0  0  0  0  0  0  0  0  0  0  0  0
   54.9210   93.9710   24.7700 C   0  0  0  0  0  0  0  0  0  0  0  0
   53.7090   93.9490   25.4360 C   0  0  0  0  0  0  0  0  0  0  0  0
   53.3140   95.0070   26.2350 C   0  0  0  0  0  0  0  0  0  0  0  0
   55.2720   92.7960   23.9350 C   0  0  0  0  0  0  0  0  0  0  0  0
   54.3360   92.5770   22.9030 O   0  0  0  0  0  0  0  0  0  0  0  0
   54.6410   92.4980   21.5660 C   0  0  0  0  0  0  0  0  0  0  0  0
   54.2040   93.3700   20.7900 O   0  0  0  0  0  0  0  0  0  0  0  0
   55.4650   91.4110   21.0460 C   0  0  0  0  0  0  0  0  0  0  0  0
   54.7100   90.3550   20.4360 N   0  0  0  0  0  0  0  0  0  0  0  0
   54.7110   89.0090   20.9280 C   0  0  0  0  0  0  0  0  0  0  0  0
   55.3550   88.5880   21.9310 O   0  0  0  0  0  0  0  0  0  0  0  0
   53.8440   88.1940   20.0840 C   0  0  0  0  0  0  0  0  0  0  0  0
   53.3180   88.9880   19.1000 C   0  0  0  0  0  0  0  0  0  0  0  0
   52.4560   88.4590   18.1570 C   0  0  0  0  0  0  0  0  0  0  0  0
   52.1060   87.1230   18.1850 C   0  0  0  0  0  0  0  0  0  0  0  0
   52.6290   86.3120   19.1700 C   0  0  0  0  0  0  0  0  0  0  0  0
   53.4870   86.8650   20.0980 C   0  0  0  0  0  0  0  0  0  0  0  0
   52.1770   84.4610   19.2490 B   0  0  0  0  0  0  0  0  0  0  0  0
   53.8510   90.3450   19.3090 C   0  0  0  0  0  0  0  0  0  0  0  0
   53.6040   91.3560   18.6140 O   0  0  0  0  0  0  0  0  0  0  0  0
   52.5650  100.0180   26.1580 H   0  0  0  0  0  0  0  0  0  0  0  0
   52.5610   99.9370   27.9430 H   0  0  0  0  0  0  0  0  0  0  0  0
   50.1640   99.4590   26.0810 H   0  0  0  0  0  0  0  0  0  0  0  0
   50.4650  101.0470   26.8150 H   0  0  0  0  0  0  0  0  0  0  0  0
   51.4980   98.8660   29.3150 H   0  0  0  0  0  0  0  0  0  0  0  0
   49.9200   98.0720   29.4460 H   0  0  0  0  0  0  0  0  0  0  0  0
   51.3150   96.5900   27.9820 H   0  0  0  0  0  0  0  0  0  0  0  0
   50.0870   97.4820   26.9860 H   0  0  0  0  0  0  0  0  0  0  0  0
   55.9500   97.0070   25.8570 H   0  0  0  0  0  0  0  0  0  0  0  0
   56.6580   95.1220   24.4260 H   0  0  0  0  0  0  0  0  0  0  0  0
   53.0690   93.0860   25.3210 H   0  0  0  0  0  0  0  0  0  0  0  0
   52.3530   94.9620   26.7490 H   0  0  0  0  0  0  0  0  0  0  0  0
   56.2670   92.9330   23.4630 H   0  0  0  0  0  0  0  0  0  0  0  0
   55.3220   91.9020   24.6110 H   0  0  0  0  0  0  0  0  0  0  0  0
   56.2180   91.7880   20.2920 H   0  0  0  0  0  0  0  0  0  0  0  0
   56.1000   90.9310   21.8470 H   0  0  0  0  0  0  0  0  0  0  0  0
   52.0550   89.1140   17.3900 H   0  0  0  0  0  0  0  0  0  0  0  0
   51.4190   86.7110   17.4280 H   0  0  0  0  0  0  0  0  0  0  0  0
   53.9180   86.2510   20.8890 H   0  0  0  0  0  0  0  0  0  0  0  0
  1  2  2  0  0  0  0
  3  1  2  0  0  0  0
  4  5  1  0  0  0  0
  4  1  1  0  0  0  0
  4  9  1  0  0  0  0
  5 34  1  0  0  0  0
  6  5  1  0  0  0  0
  6  7  1  0  0  0  0
  7  8  1  0  0  0  0
  8 37  1  0  0  0  0
  8 38  1  0  0  0  0
  9 39  1  0  0  0  0
  9  8  1  0  0  0  0
 10  1  1  0  0  0  0
 11 41  1  0  0  0  0
 11 10  2  0  0  0  0
 12 11  1  0  0  0  0
 13 12  2  0  0  0  0
 13 14  1  0  0  0  0
 14 15  2  0  0  0  0
 15 10  1  0  0  0  0
 15 44  1  0  0  0  0
 16 46  1  0  0  0  0
 16 13  1  0  0  0  0
 17 16  1  0  0  0  0
 18 17  1  0  0  0  0
 19 18  2  0  0  0  0
 20 18  1  0  0  0  0
 20 48  1  0  0  0  0
 21 22  1  0  0  0  0
 21 20  1  0  0  0  0
 22 23  2  0  0  0  0
 24 29  1  0  0  0  0
 24 22  1  0  0  0  0
 25 31  1  0  0  0  0
 25 24  2  0  0  0  0
 26 27  2  0  0  0  0
 26 25  1  0  0  0  0
 27 28  1  0  0  0  0
 28 30  1  0  0  0  0
 28 29  2  0  0  0  0
 29 51  1  0  0  0  0
 31 21  1  0  0  0  0
 32 31  2  0  0  0  0
 33  5  1  0  0  0  0
 35  6  1  0  0  0  0
 36  6  1  0  0  0  0
 40  9  1  0  0  0  0
 42 12  1  0  0  0  0
 43 14  1  0  0  0  0
 45 16  1  0  0  0  0
 47 20  1  0  0  0  0
 49 26  1  0  0  0  0
 50 27  1  0  0  0  0
M  END
>  <Pose>
1

>  <Score>
-6.95

$$$$
