
 OpenBabel03202210083D

 47 50  0  0  1  0  0  0  0  0999 V2000
   54.8180   93.1500   23.6420 S   0  0  0  0  0  0  0  0  0  0  0  0
   54.9810   93.5450   25.4390 C   0  0  0  0  0  0  0  0  0  0  0  0
   55.1590   95.0050   25.6100 C   0  0  0  0  0  0  0  0  0  0  0  0
   56.2580   95.7060   25.1780 C   0  0  0  0  0  0  0  0  0  0  0  0
   56.4440   97.0120   25.4730 C   0  0  0  0  0  0  0  0  0  0  0  0
   55.5220   97.7240   26.2310 C   0  0  0  0  0  0  0  0  0  0  0  0
   54.3900   97.0380   26.6920 C   0  0  0  0  0  0  0  0  0  0  0  0
   54.2140   95.7030   26.3850 C   0  0  0  0  0  0  0  0  0  0  0  0
   57.4440   94.7590   24.0140 B   0  0  0  0  0  0  0  0  0  0  0  0
   55.3610   91.4660   23.3200 C   0  0  0  0  0  0  0  0  0  0  0  0
   55.3760   90.8600   22.1330 N   0  0  0  0  0  0  0  0  0  0  0  0
   55.9410   89.6390   22.3250 C   0  0  0  0  0  0  0  0  0  0  0  0
   56.3120   88.5920   21.5710 N   0  0  0  0  0  0  0  0  0  0  0  0
   56.9340   87.4920   22.0100 C   0  0  0  0  0  0  0  0  0  0  0  0
   57.2180   87.4090   23.3660 N   0  0  0  0  0  0  0  0  0  0  0  0
   56.8940   88.3840   24.1790 C   0  0  0  0  0  0  0  0  0  0  0  0
   56.2600   89.5140   23.7040 C   0  0  0  0  0  0  0  0  0  0  0  0
   55.8860   90.6620   24.2560 N   0  0  0  0  0  0  0  0  0  0  0  0
   57.1430   88.3480   25.5280 O   0  0  0  0  0  0  0  0  0  0  0  0
   57.3670   86.4030   21.1800 N   0  0  0  0  0  0  0  0  0  0  0  0
   54.8870   91.2880   20.8620 C   0  0  2  0  0  0  0  0  0  0  0  0
   53.5160   91.6290   20.8600 O   0  0  0  0  0  0  0  0  0  0  0  0
   53.3370   91.8150   19.4690 C   0  0  1  0  0  0  0  0  0  0  0  0
   53.7570   90.3920   19.0160 C   0  0  2  0  0  0  0  0  0  0  0  0
   55.1260   90.3690   19.7080 C   0  0  1  0  0  0  0  0  0  0  0  0
   56.0520   90.9260   18.7890 O   0  0  0  0  0  0  0  0  0  0  0  0
   53.8420   90.2790   17.6550 O   0  0  0  0  0  0  0  0  0  0  0  0
   51.9330   92.1270   19.1170 C   0  0  0  0  0  0  0  0  0  0  0  0
   51.1520   90.9640   19.1180 O   0  0  0  0  0  0  0  0  0  0  0  0
   55.7680   92.9760   25.8520 H   0  0  0  0  0  0  0  0  0  0  0  0
   53.9440   93.2440   25.8600 H   0  0  0  0  0  0  0  0  0  0  0  0
   57.3220   97.5170   25.1110 H   0  0  0  0  0  0  0  0  0  0  0  0
   55.6650   98.7720   26.4360 H   0  0  0  0  0  0  0  0  0  0  0  0
   53.6390   97.5460   27.3010 H   0  0  0  0  0  0  0  0  0  0  0  0
   53.3760   95.1860   26.7700 H   0  0  0  0  0  0  0  0  0  0  0  0
   56.4550   88.5860   26.2340 H   0  0  0  0  0  0  0  0  0  0  0  0
   58.3100   86.0270   21.1060 H   0  0  0  0  0  0  0  0  0  0  0  0
   56.6220   85.9600   20.5380 H   0  0  0  0  0  0  0  0  0  0  0  0
   55.3820   92.2650   20.6010 H   0  0  0  0  0  0  0  0  0  0  0  0
   54.0760   92.5130   19.0720 H   0  0  0  0  0  0  0  0  0  0  0  0
   53.0790   89.6370   19.4530 H   0  0  0  0  0  0  0  0  0  0  0  0
   55.4750   89.3840   19.9120 H   0  0  0  0  0  0  0  0  0  0  0  0
   56.9240   90.5920   19.0960 H   0  0  0  0  0  0  0  0  0  0  0  0
   54.7680   90.0660   17.3870 H   0  0  0  0  0  0  0  0  0  0  0  0
   51.9430   92.4240   18.0200 H   0  0  0  0  0  0  0  0  0  0  0  0
   51.5110   92.9600   19.6590 H   0  0  0  0  0  0  0  0  0  0  0  0
   50.6620   90.9400   19.9970 H   0  0  0  0  0  0  0  0  0  0  0  0
  1  2  1  0  0  0  0
  2  3  1  0  0  0  0
  2 30  1  0  0  0  0
  2 31  1  0  0  0  0
  3  8  1  0  0  0  0
  4  5  1  0  0  0  0
  4  3  2  0  0  0  0
  5  6  2  0  0  0  0
  6 33  1  0  0  0  0
  6  7  1  0  0  0  0
  7 34  1  0  0  0  0
  8  7  2  0  0  0  0
  8 35  1  0  0  0  0
  9  4  1  0  0  0  0
 10  1  1  0  0  0  0
 10 18  2  0  0  0  0
 11 12  1  0  0  0  0
 11 10  1  0  0  0  0
 12 17  2  0  0  0  0
 13 14  2  0  0  0  0
 13 12  1  0  0  0  0
 14 15  1  0  0  0  0
 15 16  2  0  0  0  0
 16 19  1  0  0  0  0
 17 16  1  0  0  0  0
 17 18  1  0  0  0  0
 19 36  1  0  0  0  0
 20 14  1  0  0  0  0
 21 39  1  6  0  0  0
 21 11  1  0  0  0  0
 22 21  1  0  0  0  0
 23 40  1  6  0  0  0
 23 22  1  0  0  0  0
 24 41  1  1  0  0  0
 24 23  1  0  0  0  0
 24 25  1  0  0  0  0
 25 42  1  1  0  0  0
 25 21  1  0  0  0  0
 26 43  1  0  0  0  0
 26 25  1  0  0  0  0
 27 24  1  0  0  0  0
 28 29  1  0  0  0  0
 28 23  1  0  0  0  0
 28 46  1  0  0  0  0
 29 47  1  0  0  0  0
 32  5  1  0  0  0  0
 37 20  1  0  0  0  0
 38 20  1  0  0  0  0
 44 27  1  0  0  0  0
 45 28  1  0  0  0  0
M  END
>  <Pose>
1

>  <Score>
-7.79

$$$$
