
 OpenBabel03202210083D

 39 42  0  0  1  0  0  0  0  0999 V2000
   55.7430   87.9750   24.2520 S   0  0  0  0  0  0  0  0  0  0  0  0
   56.9620   87.1000   24.2250 O   0  0  0  0  0  0  0  0  0  0  0  0
   54.5600   87.2650   24.8490 O   0  0  0  0  0  0  0  0  0  0  0  0
   56.0500   89.4900   25.1350 C   0  0  0  0  0  0  0  0  0  0  0  0
   55.0780   90.5050   24.5700 C   0  0  2  0  0  0  0  0  0  0  0  0
   55.4830   90.8330   23.2170 N   0  0  0  0  0  0  0  0  0  0  0  0
   56.0240   89.8140   22.3420 C   0  0  0  0  0  0  0  0  0  0  0  0
   55.3020   88.4880   22.5850 C   0  0  0  0  0  0  0  0  0  0  0  0
   55.2180   92.2230   23.0780 C   0  0  0  0  0  0  0  0  0  0  0  0
   55.1900   92.8750   21.9800 O   0  0  0  0  0  0  0  0  0  0  0  0
   54.9780   92.8190   24.3460 N   0  0  0  0  0  0  0  0  0  0  0  0
   55.0980   91.7750   25.3010 C   0  0  0  0  0  0  0  0  0  0  0  0
   55.2030   91.8980   26.5570 O   0  0  0  0  0  0  0  0  0  0  0  0
   54.6710   94.2110   24.6390 C   0  0  1  0  0  0  0  0  0  0  0  0
   54.0760   94.3610   26.0280 C   0  0  0  0  0  0  0  0  0  0  0  0
   53.7120   95.8410   26.1700 C   0  0  0  0  0  0  0  0  0  0  0  0
   54.9400   96.5470   26.1760 O   0  0  0  0  0  0  0  0  0  0  0  0
   55.9900   96.1530   25.3560 C   0  0  0  0  0  0  0  0  0  0  0  0
   55.9010   95.0230   24.5930 C   0  0  0  0  0  0  0  0  0  0  0  0
   56.9340   94.6350   23.7860 C   0  0  0  0  0  0  0  0  0  0  0  0
   58.0720   95.4040   23.7550 C   0  0  0  0  0  0  0  0  0  0  0  0
   58.1470   96.5360   24.5270 C   0  0  0  0  0  0  0  0  0  0  0  0
   57.1210   96.9560   25.3530 C   0  0  0  0  0  0  0  0  0  0  0  0
   57.2380   98.5270   26.4180 B   0  0  0  0  0  0  0  0  0  0  0  0
   57.0690   89.8340   24.8200 H   0  0  0  0  0  0  0  0  0  0  0  0
   55.9610   89.3660   26.2250 H   0  0  0  0  0  0  0  0  0  0  0  0
   54.0420   90.1270   24.5200 H   0  0  0  0  0  0  0  0  0  0  0  0
   57.1030   89.6430   22.5070 H   0  0  0  0  0  0  0  0  0  0  0  0
   55.8530   90.0480   21.2620 H   0  0  0  0  0  0  0  0  0  0  0  0
   54.2250   88.5690   22.4560 H   0  0  0  0  0  0  0  0  0  0  0  0
   55.7830   87.7520   21.9050 H   0  0  0  0  0  0  0  0  0  0  0  0
   53.9490   94.6370   23.9340 H   0  0  0  0  0  0  0  0  0  0  0  0
   53.1870   93.7370   26.1820 H   0  0  0  0  0  0  0  0  0  0  0  0
   54.8370   94.1630   26.8110 H   0  0  0  0  0  0  0  0  0  0  0  0
   53.1970   96.1200   25.2170 H   0  0  0  0  0  0  0  0  0  0  0  0
   53.1060   96.0420   27.0510 H   0  0  0  0  0  0  0  0  0  0  0  0
   56.8430   93.7220   23.1790 H   0  0  0  0  0  0  0  0  0  0  0  0
   58.8980   95.1070   23.1200 H   0  0  0  0  0  0  0  0  0  0  0  0
   59.0520   97.1260   24.4860 H   0  0  0  0  0  0  0  0  0  0  0  0
  1  3  2  0  0  0  0
  1  4  1  0  0  0  0
  2  1  2  0  0  0  0
  4 26  1  0  0  0  0
  5 27  1  6  0  0  0
  5  4  1  0  0  0  0
  5 12  1  0  0  0  0
  6  5  1  0  0  0  0
  7 28  1  0  0  0  0
  7  8  1  0  0  0  0
  7  6  1  0  0  0  0
  8  1  1  0  0  0  0
  9  6  1  0  0  0  0
  9 11  1  0  0  0  0
 10  9  2  0  0  0  0
 11 14  1  0  0  0  0
 11 12  1  0  0  0  0
 12 13  2  0  0  0  0
 14 32  1  6  0  0  0
 14 15  1  0  0  0  0
 15 16  1  0  0  0  0
 15 33  1  0  0  0  0
 15 34  1  0  0  0  0
 16 17  1  0  0  0  0
 16 36  1  0  0  0  0
 18 17  1  0  0  0  0
 19 14  1  0  0  0  0
 19 18  2  0  0  0  0
 20 19  1  0  0  0  0
 21 20  2  0  0  0  0
 21 22  1  0  0  0  0
 22 23  2  0  0  0  0
 23 18  1  0  0  0  0
 23 24  1  0  0  0  0
 25  4  1  0  0  0  0
 29  7  1  0  0  0  0
 30  8  1  0  0  0  0
 31  8  1  0  0  0  0
 35 16  1  0  0  0  0
 37 20  1  0  0  0  0
 38 21  1  0  0  0  0
 39 22  1  0  0  0  0
M  END
>  <Pose>
1

>  <Score>
-5.60

$$$$
