
 OpenBabel03202210083D

 36 39  0  0  1  0  0  0  0  0999 V2000
   49.3450  101.1710   27.9140 S   0  0  0  0  0  0  0  0  0  0  0  0
   50.5890  100.1130   27.4210 C   0  0  0  0  0  0  0  0  0  0  0  0
   50.1010   98.8840   27.7800 C   0  0  0  0  0  0  0  0  0  0  0  0
   48.9010   98.8390   28.3620 C   0  0  0  0  0  0  0  0  0  0  0  0
   48.2520  100.0320   28.5550 C   0  0  0  0  0  0  0  0  0  0  0  0
   48.0430   97.1980   28.9400 B   0  0  0  0  0  0  0  0  0  0  0  0
   51.8820  100.4190   26.7670 C   0  0  0  0  0  0  0  0  0  0  0  0
   51.8750  101.3900   25.9710 O   0  0  0  0  0  0  0  0  0  0  0  0
   53.0370   99.6510   27.0380 N   0  0  0  0  0  0  0  0  0  0  0  0
   53.0910   98.7050   28.1430 C   0  0  2  0  0  0  0  0  0  0  0  0
   54.4860   98.1770   28.3600 C   0  0  0  0  0  0  0  0  0  0  0  0
   54.6530   97.3040   27.2080 N   0  0  0  0  0  0  0  0  0  0  0  0
   53.4370   96.5300   27.1390 C   0  0  0  0  0  0  0  0  0  0  0  0
   52.3680   97.4530   27.6940 C   0  0  0  0  0  0  0  0  0  0  0  0
   55.8090   97.2660   26.3550 C   0  0  0  0  0  0  0  0  0  0  0  0
   56.6270   98.3300   26.2450 N   0  0  0  0  0  0  0  0  0  0  0  0
   57.7000   98.2640   25.4380 C   0  0  0  0  0  0  0  0  0  0  0  0
   57.9990   97.1400   24.7130 C   0  0  0  0  0  0  0  0  0  0  0  0
   57.1930   96.0690   24.8120 N   0  0  0  0  0  0  0  0  0  0  0  0
   56.1200   96.1460   25.6230 C   0  0  0  0  0  0  0  0  0  0  0  0
   55.5190   94.9450   25.5150 N   0  0  0  0  0  0  0  0  0  0  0  0
   56.1780   94.1570   24.6830 N   0  0  0  0  0  0  0  0  0  0  0  0
   57.2370   94.8470   24.2280 C   0  0  0  0  0  0  0  0  0  0  0  0
   50.7220   97.9850   27.5710 H   0  0  0  0  0  0  0  0  0  0  0  0
   47.2720  100.2410   29.0050 H   0  0  0  0  0  0  0  0  0  0  0  0
   53.8670   99.7800   26.4170 H   0  0  0  0  0  0  0  0  0  0  0  0
   52.7090   99.1240   29.0720 H   0  0  0  0  0  0  0  0  0  0  0  0
   55.2530   98.9480   28.4290 H   0  0  0  0  0  0  0  0  0  0  0  0
   54.4540   97.5380   29.2640 H   0  0  0  0  0  0  0  0  0  0  0  0
   53.1820   96.1530   26.1450 H   0  0  0  0  0  0  0  0  0  0  0  0
   53.5510   95.6890   27.8530 H   0  0  0  0  0  0  0  0  0  0  0  0
   51.6480   97.6610   26.8720 H   0  0  0  0  0  0  0  0  0  0  0  0
   51.8620   96.9980   28.5730 H   0  0  0  0  0  0  0  0  0  0  0  0
   58.3560   99.1350   25.3580 H   0  0  0  0  0  0  0  0  0  0  0  0
   58.8640   97.0820   24.0620 H   0  0  0  0  0  0  0  0  0  0  0  0
   57.9840   94.5180   23.5380 H   0  0  0  0  0  0  0  0  0  0  0  0
  1  5  1  0  0  0  0
  2  3  2  0  0  0  0
  2  1  1  0  0  0  0
  3  4  1  0  0  0  0
  4  5  2  0  0  0  0
  4  6  1  0  0  0  0
  5 25  1  0  0  0  0
  7  9  1  0  0  0  0
  7  2  1  0  0  0  0
  8  7  2  0  0  0  0
  9 10  1  0  0  0  0
 10 11  1  0  0  0  0
 10 27  1  1  0  0  0
 11 28  1  0  0  0  0
 11 29  1  0  0  0  0
 12 11  1  0  0  0  0
 13 12  1  0  0  0  0
 13 14  1  0  0  0  0
 13 31  1  0  0  0  0
 14 10  1  0  0  0  0
 14 33  1  0  0  0  0
 15 12  1  0  0  0  0
 16 15  2  0  0  0  0
 17 16  1  0  0  0  0
 18 19  1  0  0  0  0
 18 17  2  0  0  0  0
 19 20  1  0  0  0  0
 20 15  1  0  0  0  0
 21 20  2  0  0  0  0
 22 21  1  0  0  0  0
 23 22  2  0  0  0  0
 23 19  1  0  0  0  0
 24  3  1  0  0  0  0
 26  9  1  0  0  0  0
 30 13  1  0  0  0  0
 32 14  1  0  0  0  0
 34 17  1  0  0  0  0
 35 18  1  0  0  0  0
 36 23  1  0  0  0  0
M  END
>  <Pose>
1

>  <Score>
-7.60

$$$$
