
 OpenBabel03202210083D

 34 37  0  0  1  0  0  0  0  0999 V2000
   50.9450  100.6690   26.2520 S   0  0  0  0  0  0  0  0  0  0  0  0
   49.9840  100.2130   27.5760 C   0  0  0  0  0  0  0  0  0  0  0  0
   50.5170   99.0100   27.9590 C   0  0  0  0  0  0  0  0  0  0  0  0
   51.5690   98.5560   27.2400 C   0  0  0  0  0  0  0  0  0  0  0  0
   52.0010   99.3350   26.2050 C   0  0  0  0  0  0  0  0  0  0  0  0
   52.2500   97.2400   27.5680 C   0  0  1  0  0  0  0  0  0  0  0  0
   53.6950   97.1800   27.0540 C   0  0  1  0  0  0  0  0  0  0  0  0
   53.3810   97.2770   28.4980 C   0  0  0  0  0  0  0  0  0  0  0  0
   54.0640   95.8440   26.4670 C   0  0  0  0  0  0  0  0  0  0  0  0
   54.0280   95.4780   25.1730 N   0  0  0  0  0  0  0  0  0  0  0  0
   54.4320   94.2030   25.0400 C   0  0  0  0  0  0  0  0  0  0  0  0
   54.7170   93.7970   26.2890 N   0  0  0  0  0  0  0  0  0  0  0  0
   54.4910   94.7890   27.1200 O   0  0  0  0  0  0  0  0  0  0  0  0
   54.5460   93.4060   23.8190 C   0  0  0  0  0  0  0  0  0  0  0  0
   55.2020   92.2400   23.6900 N   0  0  0  0  0  0  0  0  0  0  0  0
   55.0990   91.7920   22.4340 N   0  0  0  0  0  0  0  0  0  0  0  0
   54.3630   92.6810   21.7310 C   0  0  0  0  0  0  0  0  0  0  0  0
   54.0360   93.6640   22.6030 N   0  0  0  0  0  0  0  0  0  0  0  0
   55.6740   90.5650   21.9080 C   0  0  0  0  0  0  0  0  0  0  0  0
   55.8580   89.6140   23.0240 C   0  0  0  0  0  0  0  0  0  0  0  0
   55.9840   88.3980   22.7610 O   0  0  0  0  0  0  0  0  0  0  0  0
   55.8890   90.0840   24.3580 N   0  0  0  0  0  0  0  0  0  0  0  0
   48.4910  101.1360   28.3820 B   0  0  0  0  0  0  0  0  0  0  0  0
   50.0660   98.4670   28.8330 H   0  0  0  0  0  0  0  0  0  0  0  0
   52.8450   99.1100   25.5210 H   0  0  0  0  0  0  0  0  0  0  0  0
   51.6570   96.3250   27.5370 H   0  0  0  0  0  0  0  0  0  0  0  0
   54.0950   98.0430   26.5230 H   0  0  0  0  0  0  0  0  0  0  0  0
   53.6190   96.3540   29.0880 H   0  0  0  0  0  0  0  0  0  0  0  0
   53.6680   98.2360   28.9830 H   0  0  0  0  0  0  0  0  0  0  0  0
   54.1110   92.5900   20.6850 H   0  0  0  0  0  0  0  0  0  0  0  0
   56.6150   90.8110   21.3820 H   0  0  0  0  0  0  0  0  0  0  0  0
   54.9780   90.0790   21.1860 H   0  0  0  0  0  0  0  0  0  0  0  0
   56.7340   90.5820   24.7520 H   0  0  0  0  0  0  0  0  0  0  0  0
   55.0950   89.9760   25.0350 H   0  0  0  0  0  0  0  0  0  0  0  0
  1  2  1  0  0  0  0
  2  3  2  0  0  0  0
  2 23  1  0  0  0  0
  3 24  1  0  0  0  0
  4  6  1  0  0  0  0
  4  3  1  0  0  0  0
  5  1  1  0  0  0  0
  5  4  2  0  0  0  0
  6 26  1  6  0  0  0
  6  8  1  0  0  0  0
  7 27  1  6  0  0  0
  7  6  1  0  0  0  0
  7  8  1  0  0  0  0
  8 29  1  0  0  0  0
  8 28  1  0  0  0  0
  9  7  1  0  0  0  0
  9 13  1  0  0  0  0
 10  9  2  0  0  0  0
 11 10  1  0  0  0  0
 11 12  2  0  0  0  0
 12 13  1  0  0  0  0
 14 11  1  0  0  0  0
 15 14  2  0  0  0  0
 16 15  1  0  0  0  0
 17 16  1  0  0  0  0
 17 18  2  0  0  0  0
 18 14  1  0  0  0  0
 19 16  1  0  0  0  0
 19 20  1  0  0  0  0
 20 22  1  0  0  0  0
 21 20  2  0  0  0  0
 22 33  1  0  0  0  0
 22 34  1  0  0  0  0
 25  5  1  0  0  0  0
 30 17  1  0  0  0  0
 31 19  1  0  0  0  0
 32 19  1  0  0  0  0
M  END
>  <Pose>
1

>  <Score>
-7.64

$$$$
