
 OpenBabel03202210083D

 58 61  0  0  1  0  0  0  0  0999 V2000
   54.6800   89.7440   19.0120 S   0  0  0  0  0  0  0  0  0  0  0  0
   53.5420   90.5820   18.0570 C   0  0  0  0  0  0  0  0  0  0  0  0
   52.4360   89.8960   18.2750 N   0  0  0  0  0  0  0  0  0  0  0  0
   52.4540   88.8650   19.0680 C   0  0  0  0  0  0  0  0  0  0  0  0
   53.6500   88.5350   19.6490 C   0  0  0  0  0  0  0  0  0  0  0  0
   54.0150   87.4900   20.6030 C   0  0  0  0  0  0  0  0  0  0  0  0
   53.7480   86.2220   20.3600 C   0  0  0  0  0  0  0  0  0  0  0  0
   54.0410   85.0260   21.2190 C   0  0  2  0  0  0  0  0  0  0  0  0
   52.9630   84.1310   20.9350 N   0  0  0  0  0  0  0  0  0  0  0  0
   52.6680   84.3600   19.5290 C   0  0  0  0  0  0  0  0  0  0  0  0
   52.0760   83.5120   18.8070 O   0  0  0  0  0  0  0  0  0  0  0  0
   53.1580   85.6720   19.1470 C   0  0  0  0  0  0  0  0  0  0  0  0
   53.0890   86.2240   17.9980 O   0  0  0  0  0  0  0  0  0  0  0  0
   52.3030   83.1480   21.7420 C   0  0  0  0  0  0  0  0  0  0  0  0
   50.9270   83.4920   22.2140 C   0  0  0  0  0  0  0  0  0  0  0  0
   50.2930   82.3040   22.9530 C   0  0  0  0  0  0  0  0  0  0  0  0
   50.8050   82.2800   24.2820 N   0  0  0  0  0  4  0  0  0  0  0  0
   49.8620   82.5170   25.3280 C   0  0  0  0  0  0  0  0  0  0  0  0
   48.9620   81.3370   25.6060 C   0  0  0  0  0  0  0  0  0  0  0  0
   49.3000   80.3370   24.6670 O   0  0  0  0  0  0  0  0  0  0  0  0
   50.6040   79.9390   25.0210 C   0  0  0  0  0  0  0  0  0  0  0  0
   51.5250   81.0550   24.5740 C   0  0  0  0  0  0  0  0  0  0  0  0
   54.2570   85.3960   22.6110 C   0  0  0  0  0  0  0  0  0  0  0  0
   55.4970   85.9560   22.9550 C   0  0  0  0  0  0  0  0  0  0  0  0
   55.8110   86.3670   24.2260 C   0  0  0  0  0  0  0  0  0  0  0  0
   54.8830   86.2340   25.2290 C   0  0  0  0  0  0  0  0  0  0  0  0
   53.6460   85.6850   24.9280 C   0  0  0  0  0  0  0  0  0  0  0  0
   53.3660   85.2840   23.6390 C   0  0  0  0  0  0  0  0  0  0  0  0
   57.5080   87.1260   24.6650 B   0  0  0  0  0  0  0  0  0  0  0  0
   54.6670   87.8320   21.8100 O   0  0  0  0  0  0  0  0  0  0  0  0
   51.1650   88.1030   19.3490 C   0  0  0  0  0  0  0  0  0  0  0  0
   53.7440   91.7990   17.1850 C   0  0  0  0  0  0  0  0  0  0  0  0
   55.0060   84.6160   20.7930 H   0  0  0  0  0  0  0  0  0  0  0  0
   52.9440   83.0240   22.6590 H   0  0  0  0  0  0  0  0  0  0  0  0
   52.2500   82.1770   21.1930 H   0  0  0  0  0  0  0  0  0  0  0  0
   50.8270   84.3430   22.8730 H   0  0  0  0  0  0  0  0  0  0  0  0
   50.2990   83.5950   21.2780 H   0  0  0  0  0  0  0  0  0  0  0  0
   50.5460   81.3510   22.4480 H   0  0  0  0  0  0  0  0  0  0  0  0
   49.1970   82.4730   22.8960 H   0  0  0  0  0  0  0  0  0  0  0  0
   51.5310   83.0550   24.3480 H   0  0  0  0  0  0  0  0  0  0  0  0
   49.2390   83.4050   25.2320 H   0  0  0  0  0  0  0  0  0  0  0  0
   50.4720   82.6790   26.2670 H   0  0  0  0  0  0  0  0  0  0  0  0
   47.8950   81.5720   25.6120 H   0  0  0  0  0  0  0  0  0  0  0  0
   49.1850   80.8640   26.6010 H   0  0  0  0  0  0  0  0  0  0  0  0
   50.6350   79.9310   26.1430 H   0  0  0  0  0  0  0  0  0  0  0  0
   50.8740   78.9570   24.6380 H   0  0  0  0  0  0  0  0  0  0  0  0
   52.2930   81.2730   25.3350 H   0  0  0  0  0  0  0  0  0  0  0  0
   52.0330   80.7380   23.6340 H   0  0  0  0  0  0  0  0  0  0  0  0
   56.2630   86.0800   22.1910 H   0  0  0  0  0  0  0  0  0  0  0  0
   55.1440   86.5610   26.2220 H   0  0  0  0  0  0  0  0  0  0  0  0
   52.9010   85.5670   25.6850 H   0  0  0  0  0  0  0  0  0  0  0  0
   52.3920   84.8720   23.4150 H   0  0  0  0  0  0  0  0  0  0  0  0
   51.2870   87.5040   20.2460 H   0  0  0  0  0  0  0  0  0  0  0  0
   50.8640   87.5350   18.4460 H   0  0  0  0  0  0  0  0  0  0  0  0
   50.3360   88.8230   19.5390 H   0  0  0  0  0  0  0  0  0  0  0  0
   53.4570   91.5980   16.1480 H   0  0  0  0  0  0  0  0  0  0  0  0
   53.1110   92.5900   17.6460 H   0  0  0  0  0  0  0  0  0  0  0  0
   54.8010   92.1090   17.3130 H   0  0  0  0  0  0  0  0  0  0  0  0
  1  5  1  0  0  0  0
  2  3  2  0  0  0  0
  2  1  1  0  0  0  0
  3  4  1  0  0  0  0
  4 31  1  0  0  0  0
  4  5  2  0  0  0  0
  5  6  1  0  0  0  0
  6 30  1  0  0  0  0
  7  6  2  0  0  0  0
  7  8  1  0  0  0  0
  8 33  1  6  0  0  0
  8 23  1  0  0  0  0
  9  8  1  0  0  0  0
  9 14  1  0  0  0  0
 10  9  1  0  0  0  0
 11 10  2  0  0  0  0
 12 10  1  0  0  0  0
 12  7  1  0  0  0  0
 13 12  2  0  0  0  0
 14 15  1  0  0  0  0
 14 34  1  0  0  0  0
 15 36  1  0  0  0  0
 15 16  1  0  0  0  0
 16 17  1  0  0  0  0
 17 40  1  0  0  0  0
 17 22  1  0  0  0  0
 17 18  1  0  0  0  0
 18 19  1  0  0  0  0
 18 42  1  0  0  0  0
 19 43  1  0  0  0  0
 19 44  1  0  0  0  0
 20 21  1  0  0  0  0
 20 19  1  0  0  0  0
 21 45  1  0  0  0  0
 22 21  1  0  0  0  0
 22 47  1  0  0  0  0
 23 24  2  0  0  0  0
 23 28  1  0  0  0  0
 24 25  1  0  0  0  0
 25 29  1  0  0  0  0
 25 26  2  0  0  0  0
 26 50  1  0  0  0  0
 27 26  1  0  0  0  0
 27 51  1  0  0  0  0
 28 27  2  0  0  0  0
 31 55  1  0  0  0  0
 31 53  1  0  0  0  0
 32 58  1  0  0  0  0
 32 57  1  0  0  0  0
 32  2  1  0  0  0  0
 35 14  1  0  0  0  0
 37 15  1  0  0  0  0
 38 16  1  0  0  0  0
 39 16  1  0  0  0  0
 41 18  1  0  0  0  0
 46 21  1  0  0  0  0
 48 22  1  0  0  0  0
 49 24  1  0  0  0  0
 52 28  1  0  0  0  0
 54 31  1  0  0  0  0
 56 32  1  0  0  0  0
M  END
>  <Pose>
1

>  <Score>
-6.23

$$$$
