
 OpenBabel03202210083D

 39 42  0  0  1  0  0  0  0  0999 V2000
   54.3030   86.9040   25.4970 S   0  0  0  0  0  0  0  0  0  0  0  0
   55.2330   86.9350   24.0530 C   0  0  0  0  0  0  0  0  0  0  0  0
   54.6280   85.9730   23.2900 C   0  0  0  0  0  0  0  0  0  0  0  0
   53.5770   85.3300   23.8230 C   0  0  0  0  0  0  0  0  0  0  0  0
   53.1920   85.6880   25.0870 C   0  0  0  0  0  0  0  0  0  0  0  0
   52.0140   84.9570   25.6630 C   0  0  0  0  0  0  0  0  0  0  0  0
   50.9030   85.0840   24.7220 N   0  0  0  0  0  4  0  0  0  0  0  0
   51.2340   84.6640   23.3960 C   0  0  0  0  0  0  0  0  0  0  0  0
   52.6890   84.2290   23.2610 C   0  0  0  0  0  0  0  0  0  0  0  0
   50.5950   86.5140   24.6670 C   0  0  0  0  0  0  0  0  0  0  0  0
   55.2450   85.7760   21.9490 C   0  0  0  0  0  0  0  0  0  0  0  0
   54.7810   84.9160   21.1440 O   0  0  0  0  0  0  0  0  0  0  0  0
   56.3640   86.5710   21.5900 N   0  0  0  0  0  0  0  0  0  0  0  0
   56.6930   87.8320   22.1880 C   0  0  2  0  0  0  0  0  0  0  0  0
   56.3750   87.7030   23.6010 N   0  0  0  0  0  0  0  0  0  0  0  0
   55.9240   88.9600   21.6090 C   0  0  0  0  0  0  0  0  0  0  0  0
   55.2620   88.8490   20.4040 C   0  0  0  0  0  0  0  0  0  0  0  0
   54.5430   89.8850   19.8520 C   0  0  0  0  0  0  0  0  0  0  0  0
   54.4670   91.0950   20.5120 C   0  0  0  0  0  0  0  0  0  0  0  0
   55.1190   91.2290   21.7150 C   0  0  0  0  0  0  0  0  0  0  0  0
   55.8380   90.1840   22.2620 C   0  0  0  0  0  0  0  0  0  0  0  0
   54.9860   92.9300   22.5990 B   0  0  0  0  0  0  0  0  0  0  0  0
   53.7440   92.1430   19.9620 O   0  0  0  0  0  0  0  0  0  0  0  0
   53.6370   89.7200   18.1950 B   0  0  0  0  0  0  0  0  0  0  0  0
   52.2470   83.9120   25.8990 H   0  0  0  0  0  0  0  0  0  0  0  0
   51.6800   85.4810   26.5860 H   0  0  0  0  0  0  0  0  0  0  0  0
   50.0530   84.6290   25.1100 H   0  0  0  0  0  0  0  0  0  0  0  0
   51.1120   85.4940   22.6400 H   0  0  0  0  0  0  0  0  0  0  0  0
   50.6060   83.8400   23.0220 H   0  0  0  0  0  0  0  0  0  0  0  0
   52.9260   84.0040   22.2250 H   0  0  0  0  0  0  0  0  0  0  0  0
   52.8260   83.3730   23.9520 H   0  0  0  0  0  0  0  0  0  0  0  0
   50.9090   87.0370   25.5990 H   0  0  0  0  0  0  0  0  0  0  0  0
   51.2210   86.9830   23.8530 H   0  0  0  0  0  0  0  0  0  0  0  0
   49.5530   86.7050   24.3950 H   0  0  0  0  0  0  0  0  0  0  0  0
   56.9890   86.1910   20.8240 H   0  0  0  0  0  0  0  0  0  0  0  0
   57.7680   88.0330   22.0660 H   0  0  0  0  0  0  0  0  0  0  0  0
   56.9480   88.1540   24.3430 H   0  0  0  0  0  0  0  0  0  0  0  0
   55.3140   87.9090   19.8780 H   0  0  0  0  0  0  0  0  0  0  0  0
   56.3420   90.3030   23.2020 H   0  0  0  0  0  0  0  0  0  0  0  0
  2  1  1  0  0  0  0
  3  4  1  0  0  0  0
  3  2  2  0  0  0  0
  4  5  2  0  0  0  0
  5  1  1  0  0  0  0
  5  6  1  0  0  0  0
  6 25  1  0  0  0  0
  6 26  1  0  0  0  0
  7 27  1  0  0  0  0
  7  6  1  0  0  0  0
  8  7  1  0  0  0  0
  9  8  1  0  0  0  0
  9  4  1  0  0  0  0
  9 31  1  0  0  0  0
 10  7  1  0  0  0  0
 10 32  1  0  0  0  0
 11  3  1  0  0  0  0
 12 11  2  0  0  0  0
 13 11  1  0  0  0  0
 13 14  1  0  0  0  0
 14 36  1  6  0  0  0
 14 15  1  0  0  0  0
 15  2  1  0  0  0  0
 15 37  1  0  0  0  0
 16 14  1  0  0  0  0
 16 21  1  0  0  0  0
 17 16  2  0  0  0  0
 18 17  1  0  0  0  0
 18 19  2  0  0  0  0
 19 20  1  0  0  0  0
 20 21  2  0  0  0  0
 20 22  1  0  0  0  0
 21 39  1  0  0  0  0
 23 19  1  0  0  0  0
 24 18  1  0  0  0  0
 28  8  1  0  0  0  0
 29  8  1  0  0  0  0
 30  9  1  0  0  0  0
 33 10  1  0  0  0  0
 34 10  1  0  0  0  0
 35 13  1  0  0  0  0
 38 17  1  0  0  0  0
M  END
>  <Pose>
1

>  <Score>
-6.73

$$$$
