
 OpenBabel03202210083D

 49 52  0  0  1  0  0  0  0  0999 V2000
   53.2670   85.1320   23.9630 S   0  0  0  0  0  0  0  0  0  0  0  0
   53.7440   84.8550   25.6510 C   0  0  0  0  0  0  0  0  0  0  0  0
   54.9410   85.7190   25.9890 C   0  0  0  0  0  0  0  0  0  0  0  0
   56.1000   85.3490   25.0800 C   0  0  0  0  0  0  0  0  0  0  0  0
   55.8750   85.8800   23.7550 N   0  0  2  0  0  0  0  0  0  0  0  0
   56.6600   86.7360   22.9250 C   0  0  2  0  0  0  0  0  0  0  0  0
   56.2940   86.1740   21.5610 C   0  0  0  0  0  0  0  0  0  0  0  0
   54.9010   85.8210   21.7170 N   0  0  0  0  0  0  0  0  0  0  0  0
   54.6990   85.6100   22.9710 C   0  0  2  0  0  0  0  0  0  0  0  0
   53.9080   85.7530   20.7040 C   0  0  0  0  0  0  0  0  0  0  0  0
   53.7300   84.5270   20.0760 C   0  0  0  0  0  0  0  0  0  0  0  0
   52.7890   84.3880   19.0500 C   0  0  0  0  0  0  0  0  0  0  0  0
   52.0340   85.4800   18.6600 C   0  0  0  0  0  0  0  0  0  0  0  0
   52.1840   86.7070   19.2600 C   0  0  0  0  0  0  0  0  0  0  0  0
   53.1470   86.7810   20.2850 C   0  0  0  0  0  0  0  0  0  0  0  0
   51.4610   87.8360   18.9150 O   0  0  0  0  0  0  0  0  0  0  0  0
   51.8660   88.8300   18.0180 C   0  0  0  0  0  0  0  0  0  0  0  0
   54.4850   83.4430   20.4660 O   0  0  0  0  0  0  0  0  0  0  0  0
   54.2800   82.1150   20.0440 C   0  0  0  0  0  0  0  0  0  0  0  0
   58.0140   86.5590   23.1920 O   0  0  0  0  0  0  0  0  0  0  0  0
   56.2780   88.1620   22.9340 C   0  0  0  0  0  0  0  0  0  0  0  0
   55.9560   88.9030   24.0270 C   0  0  0  0  0  0  0  0  0  0  0  0
   55.5720   90.2410   23.9160 C   0  0  0  0  0  0  0  0  0  0  0  0
   55.5020   90.8640   22.6880 C   0  0  0  0  0  0  0  0  0  0  0  0
   55.8220   90.1310   21.5860 C   0  0  0  0  0  0  0  0  0  0  0  0
   56.1980   88.8210   21.6960 C   0  0  0  0  0  0  0  0  0  0  0  0
   54.9660   92.7000   22.5500 B   0  0  0  0  0  0  0  0  0  0  0  0
   52.9150   85.1020   26.3670 H   0  0  0  0  0  0  0  0  0  0  0  0
   54.0660   83.7840   25.7930 H   0  0  0  0  0  0  0  0  0  0  0  0
   54.6770   86.7910   25.8390 H   0  0  0  0  0  0  0  0  0  0  0  0
   55.2700   85.5390   27.0240 H   0  0  0  0  0  0  0  0  0  0  0  0
   57.0090   85.8370   25.5230 H   0  0  0  0  0  0  0  0  0  0  0  0
   56.1780   84.2470   25.0580 H   0  0  0  0  0  0  0  0  0  0  0  0
   56.5070   86.9880   20.8700 H   0  0  0  0  0  0  0  0  0  0  0  0
   56.9160   85.2830   21.3610 H   0  0  0  0  0  0  0  0  0  0  0  0
   52.6610   83.4160   18.5690 H   0  0  0  0  0  0  0  0  0  0  0  0
   51.2980   85.4020   17.8630 H   0  0  0  0  0  0  0  0  0  0  0  0
   53.2360   87.7460   20.7220 H   0  0  0  0  0  0  0  0  0  0  0  0
   50.9670   89.4100   17.6410 H   0  0  0  0  0  0  0  0  0  0  0  0
   52.5050   89.5280   18.6330 H   0  0  0  0  0  0  0  0  0  0  0  0
   52.4040   88.4410   17.1300 H   0  0  0  0  0  0  0  0  0  0  0  0
   53.2100   81.8830   20.0310 H   0  0  0  0  0  0  0  0  0  0  0  0
   54.6230   81.9740   18.9860 H   0  0  0  0  0  0  0  0  0  0  0  0
   54.7790   81.3900   20.7330 H   0  0  0  0  0  0  0  0  0  0  0  0
   58.5550   87.1100   22.5810 H   0  0  0  0  0  0  0  0  0  0  0  0
   56.0000   88.4560   24.9930 H   0  0  0  0  0  0  0  0  0  0  0  0
   55.3170   90.8240   24.8230 H   0  0  0  0  0  0  0  0  0  0  0  0
   55.7590   90.6480   20.6350 H   0  0  0  0  0  0  0  0  0  0  0  0
   56.4410   88.2770   20.7990 H   0  0  0  0  0  0  0  0  0  0  0  0
  1  2  1  0  0  0  0
  2 29  1  0  0  0  0
  2  3  1  0  0  0  0
  2 28  1  0  0  0  0
  3 31  1  0  0  0  0
  4 32  1  0  0  0  0
  4  3  1  0  0  0  0
  5  4  1  1  0  0  0
  6 21  1  0  0  0  0
  6 20  1  1  0  0  0
  6  5  1  0  0  0  0
  7  8  1  0  0  0  0
  7  6  1  0  0  0  0
  8  9  1  0  0  0  0
  9  5  1  0  0  0  0
  9  1  1  1  0  0  0
 10  8  1  0  0  0  0
 11 18  1  0  0  0  0
 11 10  2  0  0  0  0
 12 11  1  0  0  0  0
 13 12  2  0  0  0  0
 13 14  1  0  0  0  0
 14 15  2  0  0  0  0
 15 10  1  0  0  0  0
 15 38  1  0  0  0  0
 16 14  1  0  0  0  0
 17 40  1  0  0  0  0
 17 16  1  0  0  0  0
 19 18  1  0  0  0  0
 19 44  1  0  0  0  0
 21 22  1  0  0  0  0
 22 46  1  0  0  0  0
 23 22  2  0  0  0  0
 23 47  1  0  0  0  0
 24 23  1  0  0  0  0
 25 26  1  0  0  0  0
 25 24  2  0  0  0  0
 26 21  2  0  0  0  0
 27 24  1  0  0  0  0
 30  3  1  0  0  0  0
 33  4  1  0  0  0  0
 34  7  1  0  0  0  0
 35  7  1  0  0  0  0
 36 12  1  0  0  0  0
 37 13  1  0  0  0  0
 39 17  1  0  0  0  0
 41 17  1  0  0  0  0
 42 19  1  0  0  0  0
 43 19  1  0  0  0  0
 45 20  1  0  0  0  0
 48 25  1  0  0  0  0
 49 26  1  0  0  0  0
M  END
>  <Pose>
1

>  <Score>
-6.30

$$$$
