
 OpenBabel03202210083D

 43 46  0  0  1  0  0  0  0  0999 V2000
   56.5500   97.9920   26.8950 S   0  0  0  0  0  0  0  0  0  0  0  0
   57.5660   98.2680   25.3880 C   0  0  0  0  0  0  0  0  0  0  0  0
   57.7670   97.0520   24.5860 C   0  0  0  0  0  0  0  0  0  0  0  0
   57.3890   95.7410   25.1430 C   0  0  0  0  0  0  0  0  0  0  0  0
   56.1150   95.6020   25.7210 N   0  0  1  0  0  0  0  0  0  0  0  0
   55.2050   94.5090   25.8800 C   0  0  2  0  0  0  0  0  0  0  0  0
   53.8800   95.2310   25.7690 C   0  0  0  0  0  0  0  0  0  0  0  0
   54.1820   96.4990   26.3970 N   0  0  0  0  0  0  0  0  0  0  0  0
   55.4140   96.7000   26.3580 C   0  0  1  0  0  0  0  0  0  0  0  0
   53.2130   97.3740   26.9870 C   0  0  0  0  0  0  0  0  0  0  0  0
   52.1010   96.8140   27.5980 C   0  0  0  0  0  0  0  0  0  0  0  0
   51.1080   97.6030   28.1740 C   0  0  0  0  0  0  0  0  0  0  0  0
   51.2020   98.9760   28.1510 C   0  0  0  0  0  0  0  0  0  0  0  0
   52.2980   99.5460   27.5490 C   0  0  0  0  0  0  0  0  0  0  0  0
   53.2800   98.7280   26.9770 C   0  0  0  0  0  0  0  0  0  0  0  0
   49.8180  100.0600   28.9330 B   0  0  0  0  0  0  0  0  0  0  0  0
   55.2850   94.0310   27.1900 O   0  0  0  0  0  0  0  0  0  0  0  0
   55.3180   93.4160   24.8950 C   0  0  0  0  0  0  0  0  0  0  0  0
   54.8920   93.6820   23.5970 C   0  0  0  0  0  0  0  0  0  0  0  0
   54.9610   92.7280   22.6070 C   0  0  0  0  0  0  0  0  0  0  0  0
   55.4570   91.4600   22.8520 C   0  0  0  0  0  0  0  0  0  0  0  0
   55.8840   91.1910   24.1380 C   0  0  0  0  0  0  0  0  0  0  0  0
   55.8120   92.1620   25.1420 C   0  0  0  0  0  0  0  0  0  0  0  0
   55.5200   90.4970   21.8160 N   0  0  0  0  0  0  0  0  0  0  0  0
   55.7200   90.7820   20.6300 O   0  0  0  0  0  0  0  0  0  0  0  0
   55.3560   89.1720   22.1300 O   0  0  0  0  0  0  0  0  0  0  0  0
   57.0400   99.0690   24.7900 H   0  0  0  0  0  0  0  0  0  0  0  0
   58.4900   98.7320   25.7290 H   0  0  0  0  0  0  0  0  0  0  0  0
   57.2940   97.1860   23.5880 H   0  0  0  0  0  0  0  0  0  0  0  0
   58.8790   96.9960   24.3460 H   0  0  0  0  0  0  0  0  0  0  0  0
   58.1480   95.4530   25.9350 H   0  0  0  0  0  0  0  0  0  0  0  0
   57.5610   94.9760   24.3530 H   0  0  0  0  0  0  0  0  0  0  0  0
   53.7320   95.3740   24.6560 H   0  0  0  0  0  0  0  0  0  0  0  0
   53.0590   94.6660   26.2270 H   0  0  0  0  0  0  0  0  0  0  0  0
   51.9880   95.7400   27.6300 H   0  0  0  0  0  0  0  0  0  0  0  0
   50.2430   97.1320   28.6450 H   0  0  0  0  0  0  0  0  0  0  0  0
   52.3830  100.6120   27.5090 H   0  0  0  0  0  0  0  0  0  0  0  0
   54.1320   99.2070   26.4980 H   0  0  0  0  0  0  0  0  0  0  0  0
   54.4970   94.3190   27.6800 H   0  0  0  0  0  0  0  0  0  0  0  0
   54.4930   94.6750   23.3760 H   0  0  0  0  0  0  0  0  0  0  0  0
   54.6320   92.9040   21.5780 H   0  0  0  0  0  0  0  0  0  0  0  0
   56.2780   90.1990   24.3570 H   0  0  0  0  0  0  0  0  0  0  0  0
   56.1520   91.9250   26.1470 H   0  0  0  0  0  0  0  0  0  0  0  0
  2 28  1  0  0  0  0
  2  1  1  0  0  0  0
  3  4  1  0  0  0  0
  3  2  1  0  0  0  0
  4 31  1  0  0  0  0
  5  4  1  1  0  0  0
  5  6  1  0  0  0  0
  5  9  1  0  0  0  0
  6 17  1  1  0  0  0
  7  6  1  0  0  0  0
  7 34  1  0  0  0  0
  7  8  1  0  0  0  0
  8 10  1  0  0  0  0
  9  8  1  0  0  0  0
  9  1  1  1  0  0  0
 10 11  1  0  0  0  0
 11 35  1  0  0  0  0
 11 12  2  0  0  0  0
 12 36  1  0  0  0  0
 13 12  1  0  0  0  0
 13 16  1  0  0  0  0
 14 13  2  0  0  0  0
 15 10  2  0  0  0  0
 15 14  1  0  0  0  0
 17 39  1  0  0  0  0
 18 23  1  0  0  0  0
 18  6  1  0  0  0  0
 19 18  2  0  0  0  0
 20 21  2  0  0  0  0
 20 19  1  0  0  0  0
 21 22  1  0  0  0  0
 22 42  1  0  0  0  0
 22 23  2  0  0  0  0
 23 43  1  0  0  0  0
 24 26  2  0  0  0  0
 24 21  1  0  0  0  0
 25 24  2  0  0  0  0
 27  2  1  0  0  0  0
 29  3  1  0  0  0  0
 30  3  1  0  0  0  0
 32  4  1  0  0  0  0
 33  7  1  0  0  0  0
 37 14  1  0  0  0  0
 38 15  1  0  0  0  0
 40 19  1  0  0  0  0
 41 20  1  0  0  0  0
M  END
>  <Pose>
1

>  <Score>
-6.28

$$$$
