
 OpenBabel03202210083D

 41 44  0  0  1  0  0  0  0  0999 V2000
   57.8940   86.2540   23.1950 S   0  0  0  0  0  0  0  0  0  0  0  0
   58.9990   85.9200   24.6400 C   0  0  0  0  0  0  0  0  0  0  0  0
   58.7650   86.9400   25.7240 C   0  0  0  0  0  0  0  0  0  0  0  0
   58.2870   88.2800   25.2090 C   0  0  0  0  0  0  0  0  0  0  0  0
   56.9570   88.2800   24.7380 N   0  0  1  0  0  0  0  0  0  0  0  0
   55.7560   89.1330   24.7150 C   0  0  1  0  0  0  0  0  0  0  0  0
   54.7260   88.0390   24.8670 C   0  0  0  0  0  0  0  0  0  0  0  0
   55.2560   87.0190   23.9750 N   0  0  0  0  0  0  0  0  0  0  0  0
   56.5000   87.1220   23.9870 C   0  0  1  0  0  0  0  0  0  0  0  0
   54.4650   86.1110   23.1780 C   0  0  0  0  0  0  0  0  0  0  0  0
   54.5160   86.0060   21.8240 C   0  0  0  0  0  0  0  0  0  0  0  0
   53.7030   85.1500   21.0920 C   0  0  0  0  0  0  0  0  0  0  0  0
   52.7930   84.3610   21.7440 C   0  0  0  0  0  0  0  0  0  0  0  0
   52.7370   84.4640   23.1210 C   0  0  0  0  0  0  0  0  0  0  0  0
   53.5390   85.3070   23.8390 C   0  0  0  0  0  0  0  0  0  0  0  0
   51.6240   83.1530   20.8160 B   0  0  0  0  0  0  0  0  0  0  0  0
   55.6930   90.0010   25.7610 O   0  0  0  0  0  0  0  0  0  0  0  0
   55.5970   89.7860   23.3730 C   0  0  0  0  0  0  0  0  0  0  0  0
   55.7050   89.0920   22.1830 C   0  0  0  0  0  0  0  0  0  0  0  0
   55.5370   89.7720   20.9840 C   0  0  0  0  0  0  0  0  0  0  0  0
   55.2620   91.1320   20.9240 C   0  0  0  0  0  0  0  0  0  0  0  0
   55.1540   91.8260   22.0990 C   0  0  0  0  0  0  0  0  0  0  0  0
   55.3240   91.1470   23.3040 C   0  0  0  0  0  0  0  0  0  0  0  0
   58.6040   84.9550   25.0700 H   0  0  0  0  0  0  0  0  0  0  0  0
   60.0360   85.8180   24.3010 H   0  0  0  0  0  0  0  0  0  0  0  0
   59.7630   87.1140   26.2260 H   0  0  0  0  0  0  0  0  0  0  0  0
   58.0170   86.5970   26.4700 H   0  0  0  0  0  0  0  0  0  0  0  0
   58.5370   89.0920   25.9220 H   0  0  0  0  0  0  0  0  0  0  0  0
   58.9570   88.4680   24.3020 H   0  0  0  0  0  0  0  0  0  0  0  0
   53.7080   88.3220   24.7130 H   0  0  0  0  0  0  0  0  0  0  0  0
   54.8700   87.6360   25.9200 H   0  0  0  0  0  0  0  0  0  0  0  0
   55.2290   86.6160   21.2490 H   0  0  0  0  0  0  0  0  0  0  0  0
   53.7840   85.1040   20.0120 H   0  0  0  0  0  0  0  0  0  0  0  0
   52.0060   83.8330   23.6340 H   0  0  0  0  0  0  0  0  0  0  0  0
   53.4780   85.3660   24.9340 H   0  0  0  0  0  0  0  0  0  0  0  0
   54.8850   90.5710   25.8070 H   0  0  0  0  0  0  0  0  0  0  0  0
   55.9250   88.0300   22.2130 H   0  0  0  0  0  0  0  0  0  0  0  0
   55.6290   89.2020   20.0780 H   0  0  0  0  0  0  0  0  0  0  0  0
   55.1350   91.6350   19.9730 H   0  0  0  0  0  0  0  0  0  0  0  0
   54.9310   92.8810   22.1050 H   0  0  0  0  0  0  0  0  0  0  0  0
   55.2450   91.6910   24.2340 H   0  0  0  0  0  0  0  0  0  0  0  0
  1  2  1  0  0  0  0
  2 24  1  0  0  0  0
  2  3  1  0  0  0  0
  3 26  1  0  0  0  0
  3 27  1  0  0  0  0
  4  3  1  0  0  0  0
  4 28  1  0  0  0  0
  5  4  1  6  0  0  0
  6  5  1  0  0  0  0
  6  7  1  0  0  0  0
  6 17  1  1  0  0  0
  7 31  1  0  0  0  0
  8  9  1  0  0  0  0
  8  7  1  0  0  0  0
  9  1  1  6  0  0  0
  9  5  1  0  0  0  0
 10 15  1  0  0  0  0
 10  8  1  0  0  0  0
 11 10  2  0  0  0  0
 12 13  2  0  0  0  0
 12 11  1  0  0  0  0
 13 14  1  0  0  0  0
 14 34  1  0  0  0  0
 14 15  2  0  0  0  0
 15 35  1  0  0  0  0
 16 13  1  0  0  0  0
 17 36  1  0  0  0  0
 18  6  1  0  0  0  0
 19 37  1  0  0  0  0
 19 18  2  0  0  0  0
 20 19  1  0  0  0  0
 21 20  2  0  0  0  0
 21 22  1  0  0  0  0
 22 40  1  0  0  0  0
 22 23  2  0  0  0  0
 23 18  1  0  0  0  0
 23 41  1  0  0  0  0
 25  2  1  0  0  0  0
 29  4  1  0  0  0  0
 30  7  1  0  0  0  0
 32 11  1  0  0  0  0
 33 12  1  0  0  0  0
 38 20  1  0  0  0  0
 39 21  1  0  0  0  0
M  END
>  <Pose>
1

>  <Score>
-4.77

$$$$
