
 OpenBabel03202210083D

 45 48  0  0  1  0  0  0  0  0999 V2000
   51.6610   90.3880   19.0830 S   0  0  0  0  0  0  0  0  0  0  0  0
   51.5480   91.8920   18.0300 C   0  0  0  0  0  0  0  0  0  0  0  0
   52.7680   92.7250   18.3920 C   0  0  0  0  0  0  0  0  0  0  0  0
   54.0390   92.0950   17.9160 C   0  0  0  0  0  0  0  0  0  0  0  0
   54.3480   90.8350   18.5190 N   0  0  2  0  0  0  0  0  0  0  0  0
   55.5610   90.1820   19.0200 C   0  0  1  0  0  0  0  0  0  0  0  0
   55.2610   88.7800   18.4560 C   0  0  0  0  0  0  0  0  0  0  0  0
   53.8480   88.6460   18.7570 N   0  0  0  0  0  0  0  0  0  0  0  0
   53.3470   89.8140   18.7780 C   0  0  1  0  0  0  0  0  0  0  0  0
   53.2170   87.3640   18.9790 C   0  0  0  0  0  0  0  0  0  0  0  0
   52.9960   86.9170   20.2780 C   0  0  0  0  0  0  0  0  0  0  0  0
   52.4000   85.6990   20.5220 C   0  0  0  0  0  0  0  0  0  0  0  0
   51.9920   84.8580   19.5090 C   0  0  0  0  0  0  0  0  0  0  0  0
   52.2070   85.2910   18.2230 C   0  0  0  0  0  0  0  0  0  0  0  0
   52.8150   86.5330   17.9780 C   0  0  0  0  0  0  0  0  0  0  0  0
   51.3910   83.6360   19.7930 O   0  0  0  0  0  0  0  0  0  0  0  0
   51.7430   82.7830   20.8450 C   0  0  0  0  0  0  0  0  0  0  0  0
   56.6700   90.7330   18.4230 O   0  0  0  0  0  0  0  0  0  0  0  0
   55.6150   90.1270   20.4920 C   0  0  0  0  0  0  0  0  0  0  0  0
   55.3240   91.1690   21.3450 C   0  0  0  0  0  0  0  0  0  0  0  0
   55.3960   91.0100   22.7190 C   0  0  0  0  0  0  0  0  0  0  0  0
   55.7600   89.8090   23.2550 C   0  0  0  0  0  0  0  0  0  0  0  0
   56.0550   88.7570   22.4160 C   0  0  0  0  0  0  0  0  0  0  0  0
   55.9790   88.9260   21.0570 C   0  0  0  0  0  0  0  0  0  0  0  0
   55.8810   89.5240   25.1510 B   0  0  0  0  0  0  0  0  0  0  0  0
   50.6250   92.4100   18.2770 H   0  0  0  0  0  0  0  0  0  0  0  0
   51.6020   91.5490   16.9700 H   0  0  0  0  0  0  0  0  0  0  0  0
   52.7760   92.8470   19.4980 H   0  0  0  0  0  0  0  0  0  0  0  0
   52.7020   93.7430   17.9710 H   0  0  0  0  0  0  0  0  0  0  0  0
   53.9570   91.9790   16.8140 H   0  0  0  0  0  0  0  0  0  0  0  0
   54.8650   92.8090   18.1580 H   0  0  0  0  0  0  0  0  0  0  0  0
   55.3430   88.9060   17.3510 H   0  0  0  0  0  0  0  0  0  0  0  0
   55.9200   88.0370   18.8680 H   0  0  0  0  0  0  0  0  0  0  0  0
   53.2950   87.5290   21.1090 H   0  0  0  0  0  0  0  0  0  0  0  0
   52.2210   85.3350   21.5400 H   0  0  0  0  0  0  0  0  0  0  0  0
   51.9180   84.6870   17.3830 H   0  0  0  0  0  0  0  0  0  0  0  0
   52.9730   86.8330   16.9480 H   0  0  0  0  0  0  0  0  0  0  0  0
   51.6980   81.7070   20.5100 H   0  0  0  0  0  0  0  0  0  0  0  0
   52.7460   82.9270   21.2580 H   0  0  0  0  0  0  0  0  0  0  0  0
   50.9450   82.8540   21.6350 H   0  0  0  0  0  0  0  0  0  0  0  0
   57.5180   90.3750   18.7780 H   0  0  0  0  0  0  0  0  0  0  0  0
   55.0420   92.1000   20.9050 H   0  0  0  0  0  0  0  0  0  0  0  0
   55.1610   91.8390   23.3760 H   0  0  0  0  0  0  0  0  0  0  0  0
   56.3450   87.7970   22.8330 H   0  0  0  0  0  0  0  0  0  0  0  0
   56.2190   88.0650   20.4280 H   0  0  0  0  0  0  0  0  0  0  0  0
  2 26  1  0  0  0  0
  2  3  1  0  0  0  0
  2  1  1  0  0  0  0
  3 28  1  0  0  0  0
  4 31  1  0  0  0  0
  4  3  1  0  0  0  0
  5  4  1  6  0  0  0
  5  9  1  0  0  0  0
  5  6  1  0  0  0  0
  6 18  1  6  0  0  0
  6 19  1  0  0  0  0
  7  8  1  0  0  0  0
  7 33  1  0  0  0  0
  7  6  1  0  0  0  0
  8  9  1  0  0  0  0
  8 10  1  0  0  0  0
  9  1  1  1  0  0  0
 10 11  1  0  0  0  0
 11 12  2  0  0  0  0
 11 34  1  0  0  0  0
 12 35  1  0  0  0  0
 13 16  1  0  0  0  0
 13 12  1  0  0  0  0
 14 13  2  0  0  0  0
 15 14  1  0  0  0  0
 15 10  2  0  0  0  0
 16 17  1  0  0  0  0
 17 39  1  0  0  0  0
 17 40  1  0  0  0  0
 18 41  1  0  0  0  0
 19 24  2  0  0  0  0
 19 20  1  0  0  0  0
 20 21  2  0  0  0  0
 21 22  1  0  0  0  0
 21 43  1  0  0  0  0
 22 25  1  0  0  0  0
 23 44  1  0  0  0  0
 23 22  2  0  0  0  0
 24 23  1  0  0  0  0
 27  2  1  0  0  0  0
 29  3  1  0  0  0  0
 30  4  1  0  0  0  0
 32  7  1  0  0  0  0
 36 14  1  0  0  0  0
 37 15  1  0  0  0  0
 38 17  1  0  0  0  0
 42 20  1  0  0  0  0
 45 24  1  0  0  0  0
M  END
>  <Pose>
1

>  <Score>
-5.09

$$$$
