
 OpenBabel03202210083D

 41 44  0  0  1  0  0  0  0  0999 V2000
   56.5250   97.4880   25.2540 S   0  0  0  0  0  0  0  0  0  0  0  0
   58.2810   97.1440   24.9520 C   0  0  0  0  0  0  0  0  0  0  0  0
   58.4690   95.6430   25.1940 C   0  0  0  0  0  0  0  0  0  0  0  0
   57.6710   94.8890   24.1190 C   0  0  0  0  0  0  0  0  0  0  0  0
   56.2800   94.7960   24.5800 N   0  0  1  0  0  0  0  0  0  0  0  0
   55.3260   93.7640   24.5660 C   0  0  2  0  0  0  0  0  0  0  0  0
   54.2300   94.2350   25.5160 C   0  0  0  0  0  0  0  0  0  0  0  0
   54.5570   95.6020   25.7800 N   0  0  0  0  0  0  0  0  0  0  0  0
   55.6650   95.8970   25.2330 C   0  0  1  0  0  0  0  0  0  0  0  0
   53.7270   96.4420   26.5990 C   0  0  0  0  0  0  0  0  0  0  0  0
   54.1100   97.7240   26.8290 C   0  0  0  0  0  0  0  0  0  0  0  0
   53.2730   98.5260   27.6000 C   0  0  0  0  0  0  0  0  0  0  0  0
   52.0860   98.0730   28.1310 C   0  0  0  0  0  0  0  0  0  0  0  0
   51.7420   96.7630   27.8720 C   0  0  0  0  0  0  0  0  0  0  0  0
   52.5430   95.9440   27.1150 C   0  0  0  0  0  0  0  0  0  0  0  0
   55.8760   92.6110   25.1690 O   0  0  0  0  0  0  0  0  0  0  0  0
   54.7150   93.3750   23.2960 C   0  0  0  0  0  0  0  0  0  0  0  0
   55.2810   92.2770   22.6490 C   0  0  0  0  0  0  0  0  0  0  0  0
   54.8050   91.7590   21.4590 C   0  0  0  0  0  0  0  0  0  0  0  0
   53.7210   92.3330   20.8530 C   0  0  0  0  0  0  0  0  0  0  0  0
   53.1450   93.4240   21.4790 C   0  0  0  0  0  0  0  0  0  0  0  0
   53.6340   93.9340   22.6790 C   0  0  0  0  0  0  0  0  0  0  0  0
   52.9990   91.6520   19.1990 B   0  0  0  0  0  0  0  0  0  0  0  0
   58.5060   97.3890   23.9010 H   0  0  0  0  0  0  0  0  0  0  0  0
   58.9170   97.6980   25.6760 H   0  0  0  0  0  0  0  0  0  0  0  0
   59.5220   95.3870   25.1150 H   0  0  0  0  0  0  0  0  0  0  0  0
   58.0700   95.4130   26.1990 H   0  0  0  0  0  0  0  0  0  0  0  0
   57.7730   95.3710   23.1530 H   0  0  0  0  0  0  0  0  0  0  0  0
   58.1350   93.8910   24.0640 H   0  0  0  0  0  0  0  0  0  0  0  0
   54.2550   93.6420   26.4490 H   0  0  0  0  0  0  0  0  0  0  0  0
   53.2340   94.2100   25.0090 H   0  0  0  0  0  0  0  0  0  0  0  0
   55.0460   98.1690   26.4440 H   0  0  0  0  0  0  0  0  0  0  0  0
   53.5890   99.5370   27.7800 H   0  0  0  0  0  0  0  0  0  0  0  0
   51.4340   98.7240   28.7330 H   0  0  0  0  0  0  0  0  0  0  0  0
   50.8090   96.3730   28.2780 H   0  0  0  0  0  0  0  0  0  0  0  0
   52.2870   94.8980   26.8950 H   0  0  0  0  0  0  0  0  0  0  0  0
   56.3800   92.1400   24.4550 H   0  0  0  0  0  0  0  0  0  0  0  0
   56.1460   91.8320   23.1380 H   0  0  0  0  0  0  0  0  0  0  0  0
   55.2890   90.8940   20.9900 H   0  0  0  0  0  0  0  0  0  0  0  0
   52.2840   93.8680   20.9950 H   0  0  0  0  0  0  0  0  0  0  0  0
   53.1650   94.7980   23.1430 H   0  0  0  0  0  0  0  0  0  0  0  0
  2  3  1  0  0  0  0
  2  1  1  0  0  0  0
  2 25  1  0  0  0  0
  3 27  1  0  0  0  0
  4  3  1  0  0  0  0
  5  4  1  1  0  0  0
  5  9  1  0  0  0  0
  6  5  1  0  0  0  0
  6 16  1  1  0  0  0
  6  7  1  0  0  0  0
  7  8  1  0  0  0  0
  7 30  1  0  0  0  0
  8 10  1  0  0  0  0
  9  1  1  1  0  0  0
  9  8  1  0  0  0  0
 10 11  2  0  0  0  0
 10 15  1  0  0  0  0
 11 12  1  0  0  0  0
 12 33  1  0  0  0  0
 12 13  2  0  0  0  0
 13 34  1  0  0  0  0
 14 13  1  0  0  0  0
 14 35  1  0  0  0  0
 15 14  2  0  0  0  0
 17  6  1  0  0  0  0
 18 38  1  0  0  0  0
 18 17  2  0  0  0  0
 19 18  1  0  0  0  0
 20 19  2  0  0  0  0
 20 21  1  0  0  0  0
 21 22  2  0  0  0  0
 22 41  1  0  0  0  0
 22 17  1  0  0  0  0
 23 20  1  0  0  0  0
 24  2  1  0  0  0  0
 26  3  1  0  0  0  0
 28  4  1  0  0  0  0
 29  4  1  0  0  0  0
 31  7  1  0  0  0  0
 32 11  1  0  0  0  0
 36 15  1  0  0  0  0
 37 16  1  0  0  0  0
 39 19  1  0  0  0  0
 40 21  1  0  0  0  0
M  END
>  <Pose>
1

>  <Score>
-4.78

$$$$
