
 OpenBabel03202210083D

 49 52  0  0  0  0  0  0  0  0999 V2000
   56.0730   88.7430   24.1560 S   0  0  0  0  0  0  0  0  0  0  0  0
   57.3810   87.9140   25.1090 C   0  0  0  0  0  0  0  0  0  0  0  0
   57.5310   86.6650   24.3000 C   0  0  0  0  0  0  0  0  0  0  0  0
   56.9130   86.7190   23.0750 N   0  0  0  0  0  0  0  0  0  0  0  0
   56.1470   87.6340   22.7480 C   0  0  0  0  0  0  0  0  0  0  0  0
   55.2290   87.9360   21.2430 S   0  0  0  0  0  0  0  0  0  0  0  0
   53.7930   88.9540   21.5040 C   0  0  0  0  0  0  0  0  0  0  0  0
   53.6580   90.1550   20.6660 C   0  0  0  0  0  0  0  0  0  0  0  0
   52.9260   90.2850   19.5520 N   0  0  0  0  0  0  0  0  0  0  0  0
   53.1380   91.5420   19.1260 N   0  0  0  0  0  0  0  0  0  0  0  0
   53.9440   92.1690   19.9050 N   0  0  0  0  0  0  0  0  0  0  0  0
   54.3390   91.3450   20.9430 C   0  0  0  0  0  0  0  0  0  0  0  0
   55.2530   91.7440   21.9810 C   0  0  0  0  0  0  0  0  0  0  0  0
   56.4440   92.0830   21.6060 O   0  0  0  0  0  0  0  0  0  0  0  0
   55.0290   91.8150   23.3530 N   0  0  0  0  0  0  0  0  0  0  0  0
   55.4120   92.9970   24.0780 N   0  0  0  0  0  0  0  0  0  0  0  0
   54.5540   93.7360   24.6620 C   0  0  0  0  0  0  0  0  0  0  0  0
   54.8990   94.9390   25.4060 C   0  0  0  0  0  0  0  0  0  0  0  0
   55.9680   95.7300   25.0480 C   0  0  0  0  0  0  0  0  0  0  0  0
   56.3040   96.8760   25.7390 C   0  0  0  0  0  0  0  0  0  0  0  0
   55.5750   97.2790   26.8280 C   0  0  0  0  0  0  0  0  0  0  0  0
   54.4790   96.4970   27.2220 C   0  0  0  0  0  0  0  0  0  0  0  0
   54.1690   95.3570   26.5110 C   0  0  0  0  0  0  0  0  0  0  0  0
   53.7920   96.9570   28.3210 O   0  0  0  0  0  0  0  0  0  0  0  0
   52.5230   97.5610   28.3040 C   0  0  0  0  0  0  0  0  0  0  0  0
   55.9310   98.4340   27.5080 O   0  0  0  0  0  0  0  0  0  0  0  0
   57.7970   97.9420   25.2030 B   0  0  0  0  0  0  0  0  0  0  0  0
   52.0940   89.3720   18.8400 C   0  0  0  0  0  0  0  0  0  0  0  0
   51.6990   89.4280   17.5510 N   0  0  0  0  0  0  0  0  0  0  0  0
   50.9710   88.4270   17.2250 O   0  0  0  0  0  0  0  0  0  0  0  0
   50.8470   87.6660   18.2670 N   0  0  0  0  0  0  0  0  0  0  0  0
   51.5330   88.2070   19.3180 C   0  0  0  0  0  0  0  0  0  0  0  0
   51.6520   87.6590   20.6150 N   0  0  0  0  0  4  0  0  0  0  0  0
   58.2960   88.5190   25.1770 H   0  0  0  0  0  0  0  0  0  0  0  0
   56.9450   87.6380   26.0890 H   0  0  0  0  0  0  0  0  0  0  0  0
   57.3130   85.7520   24.9100 H   0  0  0  0  0  0  0  0  0  0  0  0
   58.6510   86.5640   24.1090 H   0  0  0  0  0  0  0  0  0  0  0  0
   53.7700   89.2300   22.5720 H   0  0  0  0  0  0  0  0  0  0  0  0
   52.8360   88.3650   21.3180 H   0  0  0  0  0  0  0  0  0  0  0  0
   54.6090   91.1060   23.9780 H   0  0  0  0  0  0  0  0  0  0  0  0
   53.5200   93.4560   24.6020 H   0  0  0  0  0  0  0  0  0  0  0  0
   56.5570   95.4220   24.1840 H   0  0  0  0  0  0  0  0  0  0  0  0
   53.3220   94.7630   26.8270 H   0  0  0  0  0  0  0  0  0  0  0  0
   52.4430   98.3660   29.0880 H   0  0  0  0  0  0  0  0  0  0  0  0
   52.2790   97.9470   27.3060 H   0  0  0  0  0  0  0  0  0  0  0  0
   51.7750   96.7890   28.6350 H   0  0  0  0  0  0  0  0  0  0  0  0
   52.5450   88.0230   21.0410 H   0  0  0  0  0  0  0  0  0  0  0  0
   51.6340   86.6250   20.6510 H   0  0  0  0  0  0  0  0  0  0  0  0
   50.8690   88.0360   21.2160 H   0  0  0  0  0  0  0  0  0  0  0  0
  1  2  1  0  0  0  0
  2 34  1  0  0  0  0
  2 35  1  0  0  0  0
  3 36  1  0  0  0  0
  3  2  1  0  0  0  0
  4  3  1  0  0  0  0
  5  4  2  0  0  0  0
  5  1  1  0  0  0  0
  6  7  1  0  0  0  0
  6  5  1  0  0  0  0
  7 38  1  0  0  0  0
  8 12  2  0  0  0  0
  8  7  1  0  0  0  0
  9  8  1  0  0  0  0
 10  9  1  0  0  0  0
 10 11  2  0  0  0  0
 11 12  1  0  0  0  0
 12 13  1  0  0  0  0
 13 15  1  0  0  0  0
 14 13  2  0  0  0  0
 15 40  1  0  0  0  0
 15 16  1  0  0  0  0
 16 17  2  0  0  0  0
 17 18  1  0  0  0  0
 18 23  1  0  0  0  0
 19 18  2  0  0  0  0
 19 20  1  0  0  0  0
 20 21  2  0  0  0  0
 21 22  1  0  0  0  0
 21 26  1  0  0  0  0
 22 24  1  0  0  0  0
 23 43  1  0  0  0  0
 23 22  2  0  0  0  0
 25 24  1  0  0  0  0
 25 46  1  0  0  0  0
 25 44  1  0  0  0  0
 27 20  1  0  0  0  0
 28 32  1  0  0  0  0
 28  9  1  0  0  0  0
 29 28  2  0  0  0  0
 30 29  1  0  0  0  0
 30 31  1  0  0  0  0
 31 32  2  0  0  0  0
 32 33  1  0  0  0  0
 33 48  1  0  0  0  0
 33 47  1  0  0  0  0
 33 49  1  0  0  0  0
 37  3  1  0  0  0  0
 39  7  1  0  0  0  0
 41 17  1  0  0  0  0
 42 19  1  0  0  0  0
 45 25  1  0  0  0  0
M  END
>  <Pose>
1

>  <Score>
-9.85

$$$$
