
 OpenBabel03202210083D

 45 49  0  0  1  0  0  0  0  0999 V2000
   59.2640   86.7800   24.3040 S   0  0  0  0  0  0  0  0  0  0  0  0
   59.0410   88.1330   25.5560 C   0  0  0  0  0  0  0  0  0  0  0  0
   57.9170   88.8530   24.8540 C   0  0  0  0  0  0  0  0  0  0  0  0
   56.9760   87.9100   24.3220 N   0  0  0  0  0  0  0  0  0  0  0  0
   57.5290   86.6780   23.9130 C   0  0  0  0  0  0  0  0  0  0  0  0
   56.8080   85.7710   23.4070 N   0  0  0  0  0  0  0  0  0  0  0  0
   55.3930   85.9340   23.1860 C   0  0  0  0  0  0  0  0  0  0  0  0
   54.6020   84.9650   23.0770 O   0  0  0  0  0  0  0  0  0  0  0  0
   54.8770   87.3260   23.0870 C   0  0  1  0  0  0  0  0  0  0  0  0
   55.5490   88.1100   24.1480 C   0  0  0  0  0  0  0  0  0  0  0  0
   54.9780   88.9310   24.9070 O   0  0  0  0  0  0  0  0  0  0  0  0
   55.1820   87.8180   21.7150 C   0  0  2  0  0  0  0  0  0  0  0  0
   55.4270   89.3050   21.6400 C   0  0  2  0  0  0  0  0  0  0  0  0
   54.2140   90.1090   21.4150 C   0  0  0  0  0  0  0  0  0  0  0  0
   53.4000   90.3180   22.3820 O   0  0  0  0  0  0  0  0  0  0  0  0
   53.9370   90.6630   20.1050 N   0  0  0  0  0  0  0  0  0  0  0  0
   52.7040   91.2580   19.6700 C   0  0  0  0  0  0  0  0  0  0  0  0
   52.4980   91.0400   18.1910 C   0  0  0  0  0  0  0  0  0  0  0  0
   54.2450   91.3800   17.6700 S   0  0  0  0  0  0  0  0  0  0  0  0
   54.9690   90.6560   19.1400 C   0  0  0  0  0  0  0  0  0  0  0  0
   56.1330   90.1870   19.3730 N   0  0  0  0  0  0  0  0  0  0  0  0
   56.4830   89.6230   20.6470 C   0  0  0  0  0  0  0  0  0  0  0  0
   57.7000   89.4150   20.8830 O   0  0  0  0  0  0  0  0  0  0  0  0
   54.1080   87.3810   20.7950 C   0  0  0  0  0  0  0  0  0  0  0  0
   53.8800   86.0310   20.5570 C   0  0  0  0  0  0  0  0  0  0  0  0
   52.8810   85.6120   19.7050 C   0  0  0  0  0  0  0  0  0  0  0  0
   52.0790   86.5310   19.0660 C   0  0  0  0  0  0  0  0  0  0  0  0
   52.3040   87.8540   19.3010 C   0  0  0  0  0  0  0  0  0  0  0  0
   53.3010   88.2890   20.1510 C   0  0  0  0  0  0  0  0  0  0  0  0
   52.5600   83.7600   19.3720 B   0  0  0  0  0  0  0  0  0  0  0  0
   58.6980   87.7140   26.5020 H   0  0  0  0  0  0  0  0  0  0  0  0
   59.9270   88.7580   25.5940 H   0  0  0  0  0  0  0  0  0  0  0  0
   57.4240   89.5040   25.6030 H   0  0  0  0  0  0  0  0  0  0  0  0
   58.3820   89.4490   24.0320 H   0  0  0  0  0  0  0  0  0  0  0  0
   53.7680   87.3430   23.2450 H   0  0  0  0  0  0  0  0  0  0  0  0
   56.1450   87.3390   21.3800 H   0  0  0  0  0  0  0  0  0  0  0  0
   55.8660   89.6530   22.6260 H   0  0  0  0  0  0  0  0  0  0  0  0
   52.6900   92.3620   19.8160 H   0  0  0  0  0  0  0  0  0  0  0  0
   51.8400   90.7690   20.1660 H   0  0  0  0  0  0  0  0  0  0  0  0
   52.2250   90.0060   17.9340 H   0  0  0  0  0  0  0  0  0  0  0  0
   51.8330   91.8040   17.7940 H   0  0  0  0  0  0  0  0  0  0  0  0
   54.4980   85.2980   21.0480 H   0  0  0  0  0  0  0  0  0  0  0  0
   51.2780   86.2120   18.3850 H   0  0  0  0  0  0  0  0  0  0  0  0
   51.6820   88.6110   18.8060 H   0  0  0  0  0  0  0  0  0  0  0  0
   53.4260   89.3750   20.2970 H   0  0  0  0  0  0  0  0  0  0  0  0
  1  2  1  0  0  0  0
  2 32  1  0  0  0  0
  2 31  1  0  0  0  0
  3  2  1  0  0  0  0
  3 33  1  0  0  0  0
  4  3  1  0  0  0  0
  5  1  1  0  0  0  0
  5  4  1  0  0  0  0
  6  5  2  0  0  0  0
  7  6  1  0  0  0  0
  8  7  2  0  0  0  0
  9  7  1  0  0  0  0
  9 35  1  1  0  0  0
  9 10  1  0  0  0  0
 10  4  1  0  0  0  0
 10 11  2  0  0  0  0
 12 36  1  6  0  0  0
 12  9  1  0  0  0  0
 13 12  1  0  0  0  0
 13 37  1  1  0  0  0
 14 13  1  0  0  0  0
 14 15  2  0  0  0  0
 16 14  1  0  0  0  0
 17 38  1  0  0  0  0
 17 16  1  0  0  0  0
 17 39  1  0  0  0  0
 18 17  1  0  0  0  0
 19 18  1  0  0  0  0
 19 20  1  0  0  0  0
 20 21  2  0  0  0  0
 20 16  1  0  0  0  0
 21 22  1  0  0  0  0
 22 23  2  0  0  0  0
 22 13  1  0  0  0  0
 24 12  1  0  0  0  0
 25 24  1  0  0  0  0
 25 42  1  0  0  0  0
 26 25  2  0  0  0  0
 27 28  2  0  0  0  0
 27 26  1  0  0  0  0
 28 29  1  0  0  0  0
 29 45  1  0  0  0  0
 29 24  2  0  0  0  0
 30 26  1  0  0  0  0
 34  3  1  0  0  0  0
 40 18  1  0  0  0  0
 41 18  1  0  0  0  0
 43 27  1  0  0  0  0
 44 28  1  0  0  0  0
M  END
>  <Pose>
1

>  <Score>
-3.65

$$$$
