
 OpenBabel03202210083D

 45 49  0  0  1  0  0  0  0  0999 V2000
   56.2710   88.9260   23.8130 S   0  0  0  0  0  0  0  0  0  0  0  0
   55.0220   88.2890   25.0140 C   0  0  0  0  0  0  0  0  0  0  0  0
   54.9820   86.8610   24.5700 C   0  0  0  0  0  0  0  0  0  0  0  0
   55.0980   86.7460   23.1650 N   0  0  0  0  0  0  0  0  0  0  0  0
   55.8160   87.7620   22.5010 C   0  0  0  0  0  0  0  0  0  0  0  0
   56.0250   87.7910   21.2240 N   0  0  0  0  0  0  0  0  0  0  0  0
   55.5500   86.7120   20.3720 C   0  0  0  0  0  0  0  0  0  0  0  0
   56.2210   86.5870   19.3190 O   0  0  0  0  0  0  0  0  0  0  0  0
   54.4200   85.9590   20.8400 C   0  0  1  0  0  0  0  0  0  0  0  0
   54.5810   85.6940   22.3180 C   0  0  0  0  0  0  0  0  0  0  0  0
   54.2770   84.5920   22.8110 O   0  0  0  0  0  0  0  0  0  0  0  0
   53.0300   86.3050   20.5080 C   0  0  2  0  0  0  0  0  0  0  0  0
   52.1150   85.3390   19.8880 C   0  0  1  0  0  0  0  0  0  0  0  0
   52.6090   85.0930   18.4630 C   0  0  0  0  0  0  0  0  0  0  0  0
   52.3670   85.9320   17.5660 O   0  0  0  0  0  0  0  0  0  0  0  0
   53.3560   83.8940   18.1520 N   0  0  0  0  0  0  0  0  0  0  0  0
   54.1620   83.6510   17.0060 C   0  0  0  0  0  0  0  0  0  0  0  0
   55.2880   82.6960   17.3180 C   0  0  0  0  0  0  0  0  0  0  0  0
   54.3210   81.5480   18.4070 S   0  0  0  0  0  0  0  0  0  0  0  0
   53.2690   82.8240   19.0750 C   0  0  0  0  0  0  0  0  0  0  0  0
   52.5760   82.8580   20.1440 N   0  0  0  0  0  0  0  0  0  0  0  0
   51.8120   84.0580   20.4690 C   0  0  0  0  0  0  0  0  0  0  0  0
   50.8820   83.8850   21.2780 O   0  0  0  0  0  0  0  0  0  0  0  0
   52.9040   87.7030   19.9420 C   0  0  0  0  0  0  0  0  0  0  0  0
   53.9890   88.5440   19.8840 C   0  0  0  0  0  0  0  0  0  0  0  0
   53.8340   89.8060   19.3690 C   0  0  0  0  0  0  0  0  0  0  0  0
   52.6450   90.2750   18.9050 C   0  0  0  0  0  0  0  0  0  0  0  0
   51.5420   89.4590   18.9500 C   0  0  0  0  0  0  0  0  0  0  0  0
   51.7000   88.1750   19.4740 C   0  0  0  0  0  0  0  0  0  0  0  0
   52.4380   92.0420   18.1870 B   0  0  0  0  0  0  0  0  0  0  0  0
   55.4870   88.3710   26.0160 H   0  0  0  0  0  0  0  0  0  0  0  0
   54.0760   88.8240   24.9170 H   0  0  0  0  0  0  0  0  0  0  0  0
   55.7720   86.2810   25.1140 H   0  0  0  0  0  0  0  0  0  0  0  0
   53.9880   86.4670   24.9000 H   0  0  0  0  0  0  0  0  0  0  0  0
   54.5690   84.8960   20.4050 H   0  0  0  0  0  0  0  0  0  0  0  0
   52.5600   86.4680   21.5700 H   0  0  0  0  0  0  0  0  0  0  0  0
   51.1160   85.8760   19.6630 H   0  0  0  0  0  0  0  0  0  0  0  0
   53.5650   83.2220   16.1600 H   0  0  0  0  0  0  0  0  0  0  0  0
   54.6520   84.5940   16.6830 H   0  0  0  0  0  0  0  0  0  0  0  0
   56.0720   83.1490   17.9230 H   0  0  0  0  0  0  0  0  0  0  0  0
   55.6210   82.1770   16.4240 H   0  0  0  0  0  0  0  0  0  0  0  0
   54.9700   88.1980   20.2470 H   0  0  0  0  0  0  0  0  0  0  0  0
   54.6970   90.4600   19.3290 H   0  0  0  0  0  0  0  0  0  0  0  0
   50.5750   89.8070   18.5850 H   0  0  0  0  0  0  0  0  0  0  0  0
   50.8030   87.5590   19.4930 H   0  0  0  0  0  0  0  0  0  0  0  0
  1  2  1  0  0  0  0
  2 31  1  0  0  0  0
  3 34  1  0  0  0  0
  3  2  1  0  0  0  0
  3 33  1  0  0  0  0
  4  3  1  0  0  0  0
  5  4  1  0  0  0  0
  5  1  1  0  0  0  0
  6  5  2  0  0  0  0
  7  9  1  0  0  0  0
  7  6  1  0  0  0  0
  8  7  2  0  0  0  0
  9 35  1  6  0  0  0
  9 10  1  0  0  0  0
 10 11  2  0  0  0  0
 10  4  1  0  0  0  0
 12  9  1  0  0  0  0
 12 36  1  1  0  0  0
 13 37  1  6  0  0  0
 13 22  1  0  0  0  0
 13 12  1  0  0  0  0
 14 13  1  0  0  0  0
 15 14  2  0  0  0  0
 16 14  1  0  0  0  0
 16 20  1  0  0  0  0
 17 18  1  0  0  0  0
 17 16  1  0  0  0  0
 18 40  1  0  0  0  0
 18 19  1  0  0  0  0
 19 20  1  0  0  0  0
 20 21  2  0  0  0  0
 21 22  1  0  0  0  0
 22 23  2  0  0  0  0
 24 12  1  0  0  0  0
 25 24  1  0  0  0  0
 25 42  1  0  0  0  0
 26 25  2  0  0  0  0
 27 28  2  0  0  0  0
 27 26  1  0  0  0  0
 28 29  1  0  0  0  0
 29 45  1  0  0  0  0
 29 24  2  0  0  0  0
 30 27  1  0  0  0  0
 32  2  1  0  0  0  0
 38 17  1  0  0  0  0
 39 17  1  0  0  0  0
 41 18  1  0  0  0  0
 43 26  1  0  0  0  0
 44 28  1  0  0  0  0
M  END
>  <Pose>
1

>  <Score>
-5.62

$$$$
