
 OpenBabel03202210083D

 25 28  0  0  0  0  0  0  0  0999 V2000
   54.1220   95.8610   26.7600 S   0  0  0  0  0  0  0  0  0  0  0  0
   52.5310   96.3340   27.2010 C   0  0  0  0  0  0  0  0  0  0  0  0
   52.6480   97.6610   27.2100 N   0  0  0  0  0  0  0  0  0  0  0  0
   51.3930   98.1040   27.5600 C   0  0  0  0  0  0  0  0  0  0  0  0
   50.5880   97.0590   27.7440 N   0  0  0  0  0  0  0  0  0  0  0  0
   51.2570   95.9450   27.5310 N   0  0  0  0  0  0  0  0  0  0  0  0
   50.9810   99.5140   27.7130 C   0  0  0  0  0  0  0  0  0  0  0  0
   50.4520   99.9630   28.8670 N   0  0  0  0  0  0  0  0  0  0  0  0
   50.0790  101.2560   28.9950 C   0  0  0  0  0  0  0  0  0  0  0  0
   50.2350  102.1270   27.9520 C   0  0  0  0  0  0  0  0  0  0  0  0
   50.7620  101.6680   26.8150 N   0  0  0  0  0  0  0  0  0  0  0  0
   51.1420  100.3810   26.6600 C   0  0  0  0  0  0  0  0  0  0  0  0
   53.7710   98.1850   26.9250 N   0  0  0  0  0  0  0  0  0  0  0  0
   54.8130   97.4360   26.6230 C   0  0  0  0  0  0  0  0  0  0  0  0
   56.1830   97.8190   26.2670 C   0  0  0  0  0  0  0  0  0  0  0  0
   56.8270   98.9300   26.6440 N   0  0  0  0  0  0  0  0  0  0  0  0
   58.0620   98.9240   26.1180 N   0  0  0  0  0  0  0  0  0  0  0  0
   58.2190   97.7980   25.3940 C   0  0  0  0  0  0  0  0  0  0  0  0
   57.0170   97.0930   25.4900 C   0  0  0  0  0  0  0  0  0  0  0  0
   56.7030   95.4330   24.6530 B   0  0  0  0  0  0  0  0  0  0  0  0
   49.6650  101.5690   29.9240 H   0  0  0  0  0  0  0  0  0  0  0  0
   49.9420  103.1450   28.0530 H   0  0  0  0  0  0  0  0  0  0  0  0
   51.5710  100.0160   25.7260 H   0  0  0  0  0  0  0  0  0  0  0  0
   58.7710   99.6790   26.2590 H   0  0  0  0  0  0  0  0  0  0  0  0
   59.1240   97.5460   24.8630 H   0  0  0  0  0  0  0  0  0  0  0  0
  1  2  1  0  0  0  0
  2  3  1  0  0  0  0
  2  6  2  0  0  0  0
  3  4  1  0  0  0  0
  4  7  1  0  0  0  0
  4  5  2  0  0  0  0
  6  5  1  0  0  0  0
  7  8  1  0  0  0  0
  8  9  2  0  0  0  0
  9 21  1  0  0  0  0
 10 22  1  0  0  0  0
 10  9  1  0  0  0  0
 11 10  2  0  0  0  0
 12 11  1  0  0  0  0
 12  7  2  0  0  0  0
 13  3  1  0  0  0  0
 14  1  1  0  0  0  0
 14 13  2  0  0  0  0
 15 14  1  0  0  0  0
 15 16  2  0  0  0  0
 17 24  1  0  0  0  0
 17 16  1  0  0  0  0
 18 19  2  0  0  0  0
 18 17  1  0  0  0  0
 19 15  1  0  0  0  0
 20 19  1  0  0  0  0
 23 12  1  0  0  0  0
 25 18  1  0  0  0  0
M  END
>  <Pose>
1

>  <Score>
-8.61

$$$$
