
 OpenBabel03202210083D

 47 50  0  0  0  0  0  0  0  0999 V2000
   55.3370   89.3940   21.1490 S   0  0  0  0  0  0  0  0  0  0  0  0
   55.7240   89.7870   22.7710 C   0  0  0  0  0  0  0  0  0  0  0  0
   56.2130   89.0780   23.8350 N   0  0  0  0  0  0  0  0  0  0  0  0
   56.4550   89.6740   25.0140 C   0  0  0  0  0  0  0  0  0  0  0  0
   56.9000   89.1110   26.0330 O   0  0  0  0  0  0  0  0  0  0  0  0
   56.1740   91.0190   25.0560 C   0  0  0  0  0  0  0  0  0  0  0  0
   55.6860   91.7320   24.0020 C   0  0  0  0  0  0  0  0  0  0  0  0
   55.4510   91.0940   22.8090 N   0  0  0  0  0  0  0  0  0  0  0  0
   55.0220   91.6440   21.7390 N   0  0  0  0  0  0  0  0  0  0  0  0
   54.8490   90.9700   20.6380 C   0  0  0  0  0  0  0  0  0  0  0  0
   54.3990   91.4090   19.3340 N   0  0  0  0  0  0  0  0  0  0  0  0
   53.2900   92.2750   19.2110 C   0  0  0  0  0  0  0  0  0  0  0  0
   52.9650   92.5070   17.7540 C   0  0  0  0  0  0  0  0  0  0  0  0
   53.1140   91.3130   17.0450 O   0  0  0  0  0  0  0  0  0  0  0  0
   54.4710   90.9990   16.9080 C   0  0  0  0  0  0  0  0  0  0  0  0
   55.1520   90.9000   18.2380 C   0  0  0  0  0  0  0  0  0  0  0  0
   55.4480   93.1610   24.1970 C   0  0  0  0  0  0  0  0  0  0  0  0
   56.4340   93.9810   24.1020 O   0  0  0  0  0  0  0  0  0  0  0  0
   54.1940   93.7340   24.4940 N   0  0  0  0  0  0  0  0  0  0  0  0
   53.9050   94.1760   25.8530 C   0  0  0  0  0  0  0  0  0  0  0  0
   54.5000   95.5110   26.1090 C   0  0  0  0  0  0  0  0  0  0  0  0
   53.8130   96.4140   26.9050 C   0  0  0  0  0  0  0  0  0  0  0  0
   54.3350   97.6670   27.1140 C   0  0  0  0  0  0  0  0  0  0  0  0
   55.5220   98.0650   26.5570 C   0  0  0  0  0  0  0  0  0  0  0  0
   56.2130   97.1700   25.7620 C   0  0  0  0  0  0  0  0  0  0  0  0
   55.6840   95.9060   25.5550 C   0  0  0  0  0  0  0  0  0  0  0  0
   57.8770   97.6420   24.9550 B   0  0  0  0  0  0  0  0  0  0  0  0
   52.6210   96.0040   27.4580 O   0  0  0  0  0  0  0  0  0  0  0  0
   51.5770   96.9660   27.6040 C   0  0  0  0  0  0  0  0  0  0  0  0
   56.3660   91.5260   26.0110 H   0  0  0  0  0  0  0  0  0  0  0  0
   53.4880   93.2540   19.7290 H   0  0  0  0  0  0  0  0  0  0  0  0
   52.3520   91.8740   19.6680 H   0  0  0  0  0  0  0  0  0  0  0  0
   53.7230   93.2340   17.3690 H   0  0  0  0  0  0  0  0  0  0  0  0
   51.9310   92.8440   17.6340 H   0  0  0  0  0  0  0  0  0  0  0  0
   54.5560   90.0400   16.3170 H   0  0  0  0  0  0  0  0  0  0  0  0
   54.9260   91.7820   16.2470 H   0  0  0  0  0  0  0  0  0  0  0  0
   55.4830   89.8340   18.4260 H   0  0  0  0  0  0  0  0  0  0  0  0
   56.0980   91.5210   18.1610 H   0  0  0  0  0  0  0  0  0  0  0  0
   53.4630   93.8430   23.7670 H   0  0  0  0  0  0  0  0  0  0  0  0
   54.3940   93.4700   26.5920 H   0  0  0  0  0  0  0  0  0  0  0  0
   52.8340   94.1580   26.0940 H   0  0  0  0  0  0  0  0  0  0  0  0
   53.7820   98.3710   27.7420 H   0  0  0  0  0  0  0  0  0  0  0  0
   55.9440   99.0580   26.7160 H   0  0  0  0  0  0  0  0  0  0  0  0
   56.2790   95.2510   24.9160 H   0  0  0  0  0  0  0  0  0  0  0  0
   50.6840   96.4850   28.0430 H   0  0  0  0  0  0  0  0  0  0  0  0
   51.8700   97.7880   28.2820 H   0  0  0  0  0  0  0  0  0  0  0  0
   51.3820   97.4130   26.6180 H   0  0  0  0  0  0  0  0  0  0  0  0
  1  2  1  0  0  0  0
  2  8  1  0  0  0  0
  2  3  2  0  0  0  0
  3  4  1  0  0  0  0
  4  6  1  0  0  0  0
  4  5  2  0  0  0  0
  6 30  1  0  0  0  0
  7 17  1  0  0  0  0
  7  6  2  0  0  0  0
  8  7  1  0  0  0  0
  9  8  1  0  0  0  0
 10  1  1  0  0  0  0
 10  9  2  0  0  0  0
 11 10  1  0  0  0  0
 12 11  1  0  0  0  0
 12 32  1  0  0  0  0
 12 31  1  0  0  0  0
 13 12  1  0  0  0  0
 14 13  1  0  0  0  0
 15 14  1  0  0  0  0
 15 16  1  0  0  0  0
 16 37  1  0  0  0  0
 16 11  1  0  0  0  0
 17 19  1  0  0  0  0
 18 17  2  0  0  0  0
 19 20  1  0  0  0  0
 20 41  1  0  0  0  0
 20 21  1  0  0  0  0
 20 40  1  0  0  0  0
 21 22  1  0  0  0  0
 22 23  2  0  0  0  0
 22 28  1  0  0  0  0
 23 42  1  0  0  0  0
 24 43  1  0  0  0  0
 24 23  1  0  0  0  0
 25 24  2  0  0  0  0
 26 25  1  0  0  0  0
 26 21  2  0  0  0  0
 27 25  1  0  0  0  0
 28 29  1  0  0  0  0
 29 45  1  0  0  0  0
 29 46  1  0  0  0  0
 33 13  1  0  0  0  0
 34 13  1  0  0  0  0
 35 15  1  0  0  0  0
 36 15  1  0  0  0  0
 38 16  1  0  0  0  0
 39 19  1  0  0  0  0
 44 26  1  0  0  0  0
 47 29  1  0  0  0  0
M  END
>  <Pose>
1

>  <Score>
-7.65

$$$$
