
 OpenBabel03202210083D

 40 43  0  0  1  0  0  0  0  0999 V2000
   55.4610   96.2590   26.3970 S   0  0  0  0  0  0  0  0  0  0  0  0
   54.2470   95.1010   25.7790 C   0  0  1  0  0  0  0  0  0  0  0  0
   54.1190   94.0570   25.0260 N   0  0  0  0  0  0  0  0  0  0  0  0
   52.7760   93.6160   24.9700 C   0  0  0  0  0  0  0  0  0  0  0  0
   52.0270   94.5710   25.8400 C   0  0  0  0  0  0  0  0  0  0  0  0
   53.0370   95.5270   26.3550 N   0  0  0  0  0  0  0  0  0  0  0  0
   53.1060   96.6490   27.1890 C   0  0  0  0  0  0  0  0  0  0  0  0
   54.2860   97.2030   27.3570 C   0  0  0  0  0  0  0  0  0  0  0  0
   51.9330   97.2460   27.9060 C   0  0  0  0  0  0  0  0  0  0  0  0
   52.1010   98.1380   28.9420 C   0  0  0  0  0  0  0  0  0  0  0  0
   51.0590   98.7130   29.6370 C   0  0  0  0  0  0  0  0  0  0  0  0
   49.7590   98.4030   29.3090 C   0  0  0  0  0  0  0  0  0  0  0  0
   49.5660   97.5200   28.2840 C   0  0  0  0  0  0  0  0  0  0  0  0
   50.6370   96.9380   27.5810 C   0  0  0  0  0  0  0  0  0  0  0  0
   55.2800   93.4490   24.3520 C   0  0  0  0  0  0  0  0  0  0  0  0
   54.7670   92.7590   23.1510 C   0  0  0  0  0  0  0  0  0  0  0  0
   53.9620   93.3150   22.3760 O   0  0  0  0  0  0  0  0  0  0  0  0
   55.1970   91.4010   22.8510 C   0  0  0  0  0  0  0  0  0  0  0  0
   55.3050   90.9570   21.5320 C   0  0  0  0  0  0  0  0  0  0  0  0
   55.7030   89.6700   21.2180 C   0  0  0  0  0  0  0  0  0  0  0  0
   55.9950   88.8250   22.2560 C   0  0  0  0  0  0  0  0  0  0  0  0
   55.9040   89.2180   23.5790 C   0  0  0  0  0  0  0  0  0  0  0  0
   55.5000   90.5220   23.8700 C   0  0  0  0  0  0  0  0  0  0  0  0
   56.5480   87.0430   21.8100 B   0  0  0  0  0  0  0  0  0  0  0  0
   52.6540   92.5460   25.2980 H   0  0  0  0  0  0  0  0  0  0  0  0
   52.4200   93.6050   23.9050 H   0  0  0  0  0  0  0  0  0  0  0  0
   51.6040   93.9770   26.6770 H   0  0  0  0  0  0  0  0  0  0  0  0
   51.2830   95.0690   25.1980 H   0  0  0  0  0  0  0  0  0  0  0  0
   54.5570   98.0860   27.9650 H   0  0  0  0  0  0  0  0  0  0  0  0
   53.1010   98.4300   29.2580 H   0  0  0  0  0  0  0  0  0  0  0  0
   51.2490   99.4070   30.4410 H   0  0  0  0  0  0  0  0  0  0  0  0
   48.9460   98.8530   29.8540 H   0  0  0  0  0  0  0  0  0  0  0  0
   48.5600   97.2350   27.9770 H   0  0  0  0  0  0  0  0  0  0  0  0
   50.4260   96.2530   26.7850 H   0  0  0  0  0  0  0  0  0  0  0  0
   55.8880   94.3390   24.0210 H   0  0  0  0  0  0  0  0  0  0  0  0
   55.8530   92.8210   25.0300 H   0  0  0  0  0  0  0  0  0  0  0  0
   55.0710   91.6390   20.7410 H   0  0  0  0  0  0  0  0  0  0  0  0
   55.7840   89.3330   20.2110 H   0  0  0  0  0  0  0  0  0  0  0  0
   56.1320   88.5580   24.3930 H   0  0  0  0  0  0  0  0  0  0  0  0
   55.4400   90.7990   24.9120 H   0  0  0  0  0  0  0  0  0  0  0  0
  1  8  1  0  0  0  0
  2  6  1  0  0  0  0
  2  1  1  1  0  0  0
  3  2  1  0  0  0  0
  4  3  1  0  0  0  0
  4 25  1  0  0  0  0
  4  5  1  0  0  0  0
  5  6  1  0  0  0  0
  5 27  1  0  0  0  0
  6  7  1  0  0  0  0
  7  8  2  0  0  0  0
  7  9  1  0  0  0  0
  8 29  1  0  0  0  0
  9 10  1  0  0  0  0
 10 30  1  0  0  0  0
 10 11  2  0  0  0  0
 11 31  1  0  0  0  0
 12 11  1  0  0  0  0
 12 32  1  0  0  0  0
 13 12  2  0  0  0  0
 14  9  2  0  0  0  0
 14 13  1  0  0  0  0
 15  3  1  0  0  0  0
 15 36  1  0  0  0  0
 16 15  1  0  0  0  0
 17 16  2  0  0  0  0
 18 16  1  0  0  0  0
 18 23  1  0  0  0  0
 19 18  2  0  0  0  0
 20 19  1  0  0  0  0
 20 21  2  0  0  0  0
 21 22  1  0  0  0  0
 22 23  2  0  0  0  0
 22 39  1  0  0  0  0
 23 40  1  0  0  0  0
 24 21  1  0  0  0  0
 26  4  1  0  0  0  0
 28  5  1  0  0  0  0
 33 13  1  0  0  0  0
 34 14  1  0  0  0  0
 35 15  1  0  0  0  0
 37 19  1  0  0  0  0
 38 20  1  0  0  0  0
M  END
>  <Pose>
1

>  <Score>
-6.16

$$$$
