
 OpenBabel03202210083D

 53 56  0  0  0  0  0  0  0  0999 V2000
   51.9050   97.7730   27.5820 B   0  0  0  0  0  0  0  0  0  0  0  0
   53.5950   97.1000   27.0270 C   0  0  0  0  0  0  0  0  0  0  0  0
   53.8030   95.7520   26.8610 C   0  0  0  0  0  0  0  0  0  0  0  0
   55.0440   95.2680   26.4520 C   0  0  0  0  0  0  0  0  0  0  0  0
   56.0240   96.1920   26.2310 C   0  0  0  0  0  0  0  0  0  0  0  0
   55.8190   97.5620   26.3980 C   0  0  0  0  0  0  0  0  0  0  0  0
   54.6020   98.0220   26.7980 C   0  0  0  0  0  0  0  0  0  0  0  0
   55.2530   93.8420   26.2960 C   0  0  0  0  0  0  0  0  0  0  0  0
   55.9430   93.1260   27.1480 C   0  0  0  0  0  0  0  0  0  0  0  0
   54.6600   93.1800   25.1590 N   0  0  0  0  0  0  0  0  0  0  0  0
   55.4660   92.9420   24.0450 N   0  0  0  0  0  0  0  0  0  0  0  0
   54.9260   92.5670   22.7930 C   0  0  0  0  0  0  0  0  0  0  0  0
   54.0930   93.3220   22.2410 O   0  0  0  0  0  0  0  0  0  0  0  0
   55.3010   91.3400   22.1150 C   0  0  0  0  0  0  0  0  0  0  0  0
   55.4490   91.2280   20.7880 N   0  0  0  0  0  0  0  0  0  0  0  0
   55.7750   89.9830   20.5520 N   0  0  0  0  0  0  0  0  0  0  0  0
   55.8390   89.2950   21.6890 N   0  0  0  0  0  0  0  0  0  0  0  0
   55.5520   90.0920   22.7060 C   0  0  0  0  0  0  0  0  0  0  0  0
   55.5140   89.8910   24.1370 C   0  0  0  0  0  0  0  0  0  0  0  0
   54.7010   88.7860   24.6090 N   0  0  0  0  0  0  0  0  0  0  0  0
   55.4830   87.5540   24.6610 C   0  0  0  0  0  0  0  0  0  0  0  0
   56.8190   87.7610   25.3380 C   0  0  0  0  0  0  0  0  0  0  0  0
   56.6100   88.3120   26.7380 C   0  0  0  0  0  0  0  0  0  0  0  0
   55.1460   88.4590   27.0430 C   0  0  0  0  0  0  0  0  0  0  0  0
   54.2940   89.0410   25.9880 C   0  0  0  0  0  0  0  0  0  0  0  0
   56.1930   87.9270   21.7570 C   0  0  0  0  0  0  0  0  0  0  0  0
   57.4590   87.5010   22.0270 N   0  0  0  0  0  0  0  0  0  0  0  0
   57.4470   86.2060   22.0130 O   0  0  0  0  0  0  0  0  0  0  0  0
   56.2760   85.7490   21.7520 N   0  0  0  0  0  0  0  0  0  0  0  0
   55.4540   86.7940   21.5840 C   0  0  0  0  0  0  0  0  0  0  0  0
   54.0840   86.7630   21.2850 N   0  0  0  0  0  0  0  0  0  0  0  0
   52.9900   95.0570   27.0480 H   0  0  0  0  0  0  0  0  0  0  0  0
   57.0130   95.8620   25.9110 H   0  0  0  0  0  0  0  0  0  0  0  0
   56.6290   98.2680   26.2120 H   0  0  0  0  0  0  0  0  0  0  0  0
   54.4450   99.0670   26.9260 H   0  0  0  0  0  0  0  0  0  0  0  0
   56.4100   93.5250   28.0230 H   0  0  0  0  0  0  0  0  0  0  0  0
   56.0830   92.0520   27.0010 H   0  0  0  0  0  0  0  0  0  0  0  0
   53.6630   92.9180   25.2440 H   0  0  0  0  0  0  0  0  0  0  0  0
   56.5030   93.0590   24.2010 H   0  0  0  0  0  0  0  0  0  0  0  0
   56.5280   89.7260   24.5980 H   0  0  0  0  0  0  0  0  0  0  0  0
   55.1200   90.8030   24.6510 H   0  0  0  0  0  0  0  0  0  0  0  0
   55.6460   87.1900   23.6350 H   0  0  0  0  0  0  0  0  0  0  0  0
   54.8860   86.8170   25.2120 H   0  0  0  0  0  0  0  0  0  0  0  0
   57.4680   88.4690   24.7980 H   0  0  0  0  0  0  0  0  0  0  0  0
   57.3050   86.7730   25.3810 H   0  0  0  0  0  0  0  0  0  0  0  0
   56.9980   87.5440   27.4440 H   0  0  0  0  0  0  0  0  0  0  0  0
   57.2210   89.2120   26.9300 H   0  0  0  0  0  0  0  0  0  0  0  0
   54.7620   87.4110   27.2270 H   0  0  0  0  0  0  0  0  0  0  0  0
   55.0650   88.9560   28.0200 H   0  0  0  0  0  0  0  0  0  0  0  0
   54.3140   90.1590   26.1170 H   0  0  0  0  0  0  0  0  0  0  0  0
   53.2250   88.7430   26.0800 H   0  0  0  0  0  0  0  0  0  0  0  0
   53.6500   86.3360   20.4370 H   0  0  0  0  0  0  0  0  0  0  0  0
   53.4170   87.2020   21.9560 H   0  0  0  0  0  0  0  0  0  0  0  0
  2  1  1  0  0  0  0
  3  2  1  0  0  0  0
  3 32  1  0  0  0  0
  4  3  2  0  0  0  0
  5  6  2  0  0  0  0
  5  4  1  0  0  0  0
  6  7  1  0  0  0  0
  7 35  1  0  0  0  0
  7  2  2  0  0  0  0
  8  4  1  0  0  0  0
  8  9  2  0  0  0  0
  9 36  1  0  0  0  0
 10 38  1  0  0  0  0
 10  8  1  0  0  0  0
 11 39  1  0  0  0  0
 11 10  1  0  0  0  0
 12 11  1  0  0  0  0
 13 12  2  0  0  0  0
 14 18  2  0  0  0  0
 14 12  1  0  0  0  0
 15 14  1  0  0  0  0
 16 15  2  0  0  0  0
 16 17  1  0  0  0  0
 17 26  1  0  0  0  0
 17 18  1  0  0  0  0
 18 19  1  0  0  0  0
 19 40  1  0  0  0  0
 19 20  1  0  0  0  0
 19 41  1  0  0  0  0
 20 21  1  0  0  0  0
 20 25  1  0  0  0  0
 21 43  1  0  0  0  0
 21 22  1  0  0  0  0
 22 45  1  0  0  0  0
 22 23  1  0  0  0  0
 23 47  1  0  0  0  0
 23 24  1  0  0  0  0
 23 46  1  0  0  0  0
 24 48  1  0  0  0  0
 24 49  1  0  0  0  0
 25 51  1  0  0  0  0
 25 50  1  0  0  0  0
 25 24  1  0  0  0  0
 26 27  2  0  0  0  0
 28 27  1  0  0  0  0
 29 28  1  0  0  0  0
 30 29  2  0  0  0  0
 30 26  1  0  0  0  0
 31 30  1  0  0  0  0
 31 53  1  0  0  0  0
 33  5  1  0  0  0  0
 34  6  1  0  0  0  0
 37  9  1  0  0  0  0
 42 21  1  0  0  0  0
 44 22  1  0  0  0  0
 52 31  1  0  0  0  0
M  END
>  <Pose>
1

>  <Score>
-8.46

$$$$
