
 OpenBabel03202210083D

 61 64  0  0  1  0  0  0  0  0999 V2000
   51.5080   88.8490   17.8710 B   0  0  0  0  0  0  0  0  0  0  0  0
   52.4120   87.5410   18.9280 C   0  0  0  0  0  0  0  0  0  0  0  0
   51.9860   86.2560   19.0740 C   0  0  0  0  0  0  0  0  0  0  0  0
   52.6120   85.2800   19.8300 C   0  0  0  0  0  0  0  0  0  0  0  0
   53.7770   85.6430   20.4990 C   0  0  0  0  0  0  0  0  0  0  0  0
   54.2390   86.9390   20.3730 C   0  0  0  0  0  0  0  0  0  0  0  0
   53.5900   87.8930   19.6090 C   0  0  0  0  0  0  0  0  0  0  0  0
   52.0000   83.9490   19.8930 C   0  0  1  0  0  0  0  0  0  0  0  0
   52.8120   82.9860   19.2480 N   0  0  0  0  0  0  0  0  0  0  0  0
   53.3020   82.0580   20.2010 C   0  0  0  0  0  0  0  0  0  0  0  0
   54.1330   81.1300   19.9530 O   0  0  0  0  0  0  0  0  0  0  0  0
   52.6930   82.3480   21.4810 C   0  0  0  0  0  0  0  0  0  0  0  0
   52.9600   81.6710   22.5100 O   0  0  0  0  0  0  0  0  0  0  0  0
   51.8130   83.4850   21.2920 C   0  0  0  0  0  0  0  0  0  0  0  0
   51.0540   84.0040   22.2300 C   0  0  0  0  0  0  0  0  0  0  0  0
   50.3110   85.1270   21.9460 O   0  0  0  0  0  0  0  0  0  0  0  0
   50.9810   83.4160   23.5450 C   0  0  0  0  0  0  0  0  0  0  0  0
   49.9190   82.6070   23.9850 C   0  0  0  0  0  0  0  0  0  0  0  0
   50.1720   82.1920   25.2320 N   0  0  0  0  0  0  0  0  0  0  0  0
   51.3370   82.7050   25.5820 N   0  0  0  0  0  0  0  0  0  0  0  0
   51.8580   83.4470   24.5930 C   0  0  0  0  0  0  0  0  0  0  0  0
   49.3630   81.3470   26.0380 C   0  0  0  0  0  0  0  0  0  0  0  0
   48.2780   81.9000   26.7050 C   0  0  0  0  0  0  0  0  0  0  0  0
   47.4430   81.1370   27.4970 C   0  0  0  0  0  0  0  0  0  0  0  0
   47.6600   79.7680   27.6590 C   0  0  0  0  0  0  0  0  0  0  0  0
   48.7410   79.2170   26.9950 C   0  0  0  0  0  0  0  0  0  0  0  0
   49.5560   79.9970   26.2140 C   0  0  0  0  0  0  0  0  0  0  0  0
   48.7200   82.2870   23.1560 C   0  0  0  0  0  0  0  0  0  0  0  0
   53.1130   82.9030   17.7910 C   0  0  0  0  0  0  0  0  0  0  0  0
   54.4690   83.5020   17.5200 C   0  0  0  0  0  0  0  0  0  0  0  0
   55.4210   82.5520   16.8650 C   0  0  0  0  0  0  0  0  0  0  0  0
   55.0920   82.1410   15.5410 N   0  0  0  0  0  4  0  0  0  0  0  0
   54.5890   80.8150   15.3940 C   0  0  0  0  0  0  0  0  0  0  0  0
   54.1000   83.0590   14.9570 C   0  0  0  0  0  0  0  0  0  0  0  0
   51.0550   86.0030   18.5310 H   0  0  0  0  0  0  0  0  0  0  0  0
   54.2890   84.9130   21.0990 H   0  0  0  0  0  0  0  0  0  0  0  0
   55.1560   87.2190   20.9000 H   0  0  0  0  0  0  0  0  0  0  0  0
   53.9490   88.9110   19.5100 H   0  0  0  0  0  0  0  0  0  0  0  0
   51.0120   83.9850   19.3640 H   0  0  0  0  0  0  0  0  0  0  0  0
   52.8160   83.9710   24.6100 H   0  0  0  0  0  0  0  0  0  0  0  0
   48.1260   82.9830   26.5610 H   0  0  0  0  0  0  0  0  0  0  0  0
   46.6020   81.5980   28.0010 H   0  0  0  0  0  0  0  0  0  0  0  0
   46.9860   79.1880   28.2940 H   0  0  0  0  0  0  0  0  0  0  0  0
   48.9000   78.1460   27.1320 H   0  0  0  0  0  0  0  0  0  0  0  0
   50.3870   79.5240   25.7110 H   0  0  0  0  0  0  0  0  0  0  0  0
   49.0120   82.1320   22.0890 H   0  0  0  0  0  0  0  0  0  0  0  0
   47.9230   83.0440   23.2720 H   0  0  0  0  0  0  0  0  0  0  0  0
   48.2850   81.3120   23.4850 H   0  0  0  0  0  0  0  0  0  0  0  0
   53.0040   81.8600   17.4420 H   0  0  0  0  0  0  0  0  0  0  0  0
   52.3710   83.5730   17.2680 H   0  0  0  0  0  0  0  0  0  0  0  0
   54.2660   84.2930   16.7340 H   0  0  0  0  0  0  0  0  0  0  0  0
   54.8700   84.0630   18.3660 H   0  0  0  0  0  0  0  0  0  0  0  0
   55.5360   81.6070   17.4840 H   0  0  0  0  0  0  0  0  0  0  0  0
   56.4580   83.0020   16.8620 H   0  0  0  0  0  0  0  0  0  0  0  0
   55.9450   82.2480   14.9120 H   0  0  0  0  0  0  0  0  0  0  0  0
   53.5970   80.7930   14.8670 H   0  0  0  0  0  0  0  0  0  0  0  0
   54.5760   80.1890   16.3070 H   0  0  0  0  0  0  0  0  0  0  0  0
   55.2740   80.2600   14.6870 H   0  0  0  0  0  0  0  0  0  0  0  0
   54.4800   83.5360   14.0390 H   0  0  0  0  0  0  0  0  0  0  0  0
   53.9010   83.8460   15.7190 H   0  0  0  0  0  0  0  0  0  0  0  0
   53.1350   82.5270   14.7970 H   0  0  0  0  0  0  0  0  0  0  0  0
  1  2  1  0  0  0  0
  2  3  2  0  0  0  0
  2  7  1  0  0  0  0
  3  4  1  0  0  0  0
  4  8  1  0  0  0  0
  4  5  2  0  0  0  0
  5 36  1  0  0  0  0
  6  5  1  0  0  0  0
  6 37  1  0  0  0  0
  7  6  2  0  0  0  0
  8 39  1  6  0  0  0
  8 14  1  0  0  0  0
  9  8  1  0  0  0  0
  9 10  1  0  0  0  0
 10 12  1  0  0  0  0
 11 10  2  0  0  0  0
 12 13  2  0  0  0  0
 14 12  1  0  0  0  0
 14 15  2  0  0  0  0
 15 17  1  0  0  0  0
 16 15  1  0  0  0  0
 17 18  2  0  0  0  0
 17 21  1  0  0  0  0
 18 19  1  0  0  0  0
 19 20  1  0  0  0  0
 19 22  1  0  0  0  0
 21 40  1  0  0  0  0
 21 20  2  0  0  0  0
 22 27  2  0  0  0  0
 22 23  1  0  0  0  0
 23 24  2  0  0  0  0
 24 25  1  0  0  0  0
 24 42  1  0  0  0  0
 25 43  1  0  0  0  0
 26 44  1  0  0  0  0
 26 25  2  0  0  0  0
 27 26  1  0  0  0  0
 28 47  1  0  0  0  0
 28 48  1  0  0  0  0
 28 18  1  0  0  0  0
 29  9  1  0  0  0  0
 30 29  1  0  0  0  0
 30 52  1  0  0  0  0
 31 53  1  0  0  0  0
 31 30  1  0  0  0  0
 32 31  1  0  0  0  0
 33 32  1  0  0  0  0
 33 57  1  0  0  0  0
 34 32  1  0  0  0  0
 34 60  1  0  0  0  0
 35  3  1  0  0  0  0
 38  7  1  0  0  0  0
 41 23  1  0  0  0  0
 45 27  1  0  0  0  0
 46 28  1  0  0  0  0
 49 29  1  0  0  0  0
 50 29  1  0  0  0  0
 51 30  1  0  0  0  0
 54 31  1  0  0  0  0
 55 32  1  0  0  0  0
 56 33  1  0  0  0  0
 58 33  1  0  0  0  0
 59 34  1  0  0  0  0
 61 34  1  0  0  0  0
M  END
>  <Pose>
1

>  <Score>
-5.94

$$$$
