
 OpenBabel03202210083D

 39 42  0  0  1  0  0  0  0  0999 V2000
   52.0380   82.9320   21.6470 B   0  0  0  0  0  0  0  0  0  0  0  0
   53.2640   84.4110   21.7430 C   0  0  0  0  0  0  0  0  0  0  0  0
   54.1370   84.6740   20.7180 C   0  0  0  0  0  0  0  0  0  0  0  0
   55.0190   85.7630   20.8230 C   0  0  0  0  0  0  0  0  0  0  0  0
   55.0210   86.5640   21.9250 C   0  0  0  0  0  0  0  0  0  0  0  0
   54.1440   86.2930   22.9450 C   0  0  0  0  0  0  0  0  0  0  0  0
   53.2570   85.2060   22.8530 C   0  0  0  0  0  0  0  0  0  0  0  0
   55.9210   87.7050   22.0600 C   0  0  1  0  0  0  0  0  0  0  0  0
   55.3550   88.9960   21.7340 C   0  0  0  0  0  0  0  0  0  0  0  0
   55.5120   90.0690   22.5650 C   0  0  0  0  0  0  0  0  0  0  0  0
   56.2590   89.9860   23.7850 N   0  0  0  0  0  0  0  0  0  0  0  0
   56.8300   88.7170   24.0770 C   0  0  0  0  0  0  0  0  0  0  0  0
   56.6980   87.6790   23.2990 C   0  0  0  0  0  0  0  0  0  0  0  0
   57.4530   86.5330   23.8940 C   0  0  0  0  0  0  0  0  0  0  0  0
   57.5050   85.3870   23.3550 O   0  0  0  0  0  0  0  0  0  0  0  0
   58.0050   87.0050   25.0400 O   0  0  0  0  0  0  0  0  0  0  0  0
   57.6630   88.3270   25.2850 C   0  0  0  0  0  0  0  0  0  0  0  0
   54.9490   91.2730   22.2260 N   0  0  0  0  0  0  0  0  0  0  0  0
   54.2520   91.4040   21.0920 C   0  0  0  0  0  0  0  0  0  0  0  0
   53.7420   92.5220   20.7990 O   0  0  0  0  0  0  0  0  0  0  0  0
   54.1040   90.3430   20.2810 N   0  0  0  0  0  0  0  0  0  0  0  0
   54.6170   89.1420   20.5370 C   0  0  0  0  0  0  0  0  0  0  0  0
   54.4840   88.1450   19.7840 O   0  0  0  0  0  0  0  0  0  0  0  0
   53.3330   90.5340   19.0510 C   0  0  0  0  0  0  0  0  0  0  0  0
   55.1510   92.3770   23.1530 C   0  0  0  0  0  0  0  0  0  0  0  0
   54.1220   84.0320   19.8570 H   0  0  0  0  0  0  0  0  0  0  0  0
   55.6770   85.8960   19.9710 H   0  0  0  0  0  0  0  0  0  0  0  0
   54.0580   86.8580   23.8630 H   0  0  0  0  0  0  0  0  0  0  0  0
   52.5590   84.9780   23.6480 H   0  0  0  0  0  0  0  0  0  0  0  0
   56.7200   87.5310   21.2430 H   0  0  0  0  0  0  0  0  0  0  0  0
   56.3530   90.8220   24.3880 H   0  0  0  0  0  0  0  0  0  0  0  0
   58.5310   89.0080   25.3800 H   0  0  0  0  0  0  0  0  0  0  0  0
   57.0480   88.3650   26.2080 H   0  0  0  0  0  0  0  0  0  0  0  0
   53.6000   89.7650   18.2980 H   0  0  0  0  0  0  0  0  0  0  0  0
   53.5440   91.5180   18.6240 H   0  0  0  0  0  0  0  0  0  0  0  0
   52.2660   90.5000   19.3490 H   0  0  0  0  0  0  0  0  0  0  0  0
   54.7800   93.3200   22.7300 H   0  0  0  0  0  0  0  0  0  0  0  0
   54.7150   92.1160   24.1220 H   0  0  0  0  0  0  0  0  0  0  0  0
   56.2690   92.5080   23.2430 H   0  0  0  0  0  0  0  0  0  0  0  0
  1  2  1  0  0  0  0
  2  7  1  0  0  0  0
  3  4  1  0  0  0  0
  3  2  2  0  0  0  0
  4  5  2  0  0  0  0
  5  8  1  0  0  0  0
  5  6  1  0  0  0  0
  6 28  1  0  0  0  0
  7  6  2  0  0  0  0
  7 29  1  0  0  0  0
  8 30  1  6  0  0  0
  8 13  1  0  0  0  0
  9  8  1  0  0  0  0
  9 10  2  0  0  0  0
 10 11  1  0  0  0  0
 11 12  1  0  0  0  0
 11 31  1  0  0  0  0
 12 17  1  0  0  0  0
 13 14  1  0  0  0  0
 13 12  2  0  0  0  0
 14 16  1  0  0  0  0
 15 14  2  0  0  0  0
 16 17  1  0  0  0  0
 17 32  1  0  0  0  0
 17 33  1  0  0  0  0
 18 10  1  0  0  0  0
 18 25  1  0  0  0  0
 19 18  1  0  0  0  0
 20 19  2  0  0  0  0
 21 22  1  0  0  0  0
 21 19  1  0  0  0  0
 22  9  1  0  0  0  0
 23 22  2  0  0  0  0
 24 36  1  0  0  0  0
 24 21  1  0  0  0  0
 25 39  1  0  0  0  0
 25 38  1  0  0  0  0
 26  3  1  0  0  0  0
 27  4  1  0  0  0  0
 34 24  1  0  0  0  0
 35 24  1  0  0  0  0
 37 25  1  0  0  0  0
M  END
>  <Pose>
1

>  <Score>
-5.97

$$$$
