
 OpenBabel03202210083D

 51 52  0  0  0  0  0  0  0  0999 V2000
   54.4050   89.8990   18.7600 B   0  0  0  0  0  0  0  0  0  0  0  0
   54.9360   90.2360   20.5630 C   0  0  0  0  0  0  0  0  0  0  0  0
   55.3480   89.1680   21.3330 C   0  0  0  0  0  0  0  0  0  0  0  0
   55.7280   89.4180   22.6280 C   0  0  0  0  0  0  0  0  0  0  0  0
   55.6990   90.7000   23.1460 C   0  0  0  0  0  0  0  0  0  0  0  0
   55.2930   91.7550   22.3900 C   0  0  0  0  0  0  0  0  0  0  0  0
   54.9100   91.5120   21.0890 C   0  0  0  0  0  0  0  0  0  0  0  0
   55.2620   93.1180   22.9400 C   0  0  0  0  0  0  0  0  0  0  0  0
   54.2200   93.5850   23.5110 N   0  0  0  0  0  0  0  0  0  0  0  0
   54.1890   94.9160   24.0480 N   0  0  0  0  0  0  0  0  0  0  0  0
   53.9860   95.0270   25.4420 C   0  0  0  0  0  0  0  0  0  0  0  0
   53.5020   93.9620   25.9840 O   0  0  0  0  0  0  0  0  0  0  0  0
   54.2650   96.1900   26.2760 C   0  0  0  0  0  0  0  0  0  0  0  0
   55.5000   96.7850   26.2490 N   0  0  0  0  0  0  0  0  0  0  0  0
   55.4280   97.7880   27.0980 N   0  0  0  0  0  0  0  0  0  0  0  0
   54.2620   97.8690   27.6500 N   0  0  0  0  0  0  0  0  0  0  0  0
   53.4730   96.8700   27.1610 C   0  0  0  0  0  0  0  0  0  0  0  0
   52.0780   96.5760   27.4870 C   0  0  0  0  0  0  0  0  0  0  0  0
   51.6290   97.1470   28.7480 N   0  0  0  0  0  0  0  0  0  0  0  0
   52.4960   98.2530   29.1350 C   0  0  0  0  0  0  0  0  0  0  0  0
   51.9860   99.5690   28.6200 C   0  0  0  0  0  0  0  0  0  0  0  0
   51.1500   99.4610   27.5240 O   0  0  0  0  0  0  0  0  0  0  0  0
   50.0180   98.6880   27.7370 C   0  0  0  0  0  0  0  0  0  0  0  0
   50.2520   97.5740   28.7210 C   0  0  0  0  0  0  0  0  0  0  0  0
   56.6150   96.4000   25.4710 C   0  0  0  0  0  0  0  0  0  0  0  0
   57.0190   95.1630   25.0900 N   0  0  0  0  0  0  0  0  0  0  0  0
   58.0890   95.2710   24.3870 O   0  0  0  0  0  0  0  0  0  0  0  0
   58.4640   96.5020   24.2460 N   0  0  0  0  0  0  0  0  0  0  0  0
   57.5540   97.2540   24.9220 C   0  0  0  0  0  0  0  0  0  0  0  0
   57.5990   98.6670   25.0180 N   0  0  0  0  0  0  0  0  0  0  0  0
   56.3040   87.9340   23.7070 B   0  0  0  0  0  0  0  0  0  0  0  0
   55.3900   87.8680   20.8490 O   0  0  0  0  0  0  0  0  0  0  0  0
   51.2650  100.5760   25.7660 Cl  0  0  0  0  0  0  0  0  0  0  0  0
   56.0040   90.8740   24.1730 H   0  0  0  0  0  0  0  0  0  0  0  0
   54.5900   92.3500   20.4940 H   0  0  0  0  0  0  0  0  0  0  0  0
   56.1250   93.7310   22.8610 H   0  0  0  0  0  0  0  0  0  0  0  0
   54.3180   95.7080   23.3810 H   0  0  0  0  0  0  0  0  0  0  0  0
   51.3570   96.9650   26.7380 H   0  0  0  0  0  0  0  0  0  0  0  0
   51.8790   95.4890   27.5980 H   0  0  0  0  0  0  0  0  0  0  0  0
   52.5100   98.2890   30.2390 H   0  0  0  0  0  0  0  0  0  0  0  0
   53.5150   97.9930   28.7960 H   0  0  0  0  0  0  0  0  0  0  0  0
   52.8700  100.1530   28.2890 H   0  0  0  0  0  0  0  0  0  0  0  0
   51.5150  100.1830   29.4280 H   0  0  0  0  0  0  0  0  0  0  0  0
   49.7580   98.2120   26.7610 H   0  0  0  0  0  0  0  0  0  0  0  0
   49.1790   99.3470   28.0020 H   0  0  0  0  0  0  0  0  0  0  0  0
   49.5530   96.7430   28.6730 H   0  0  0  0  0  0  0  0  0  0  0  0
   50.0820   98.0410   29.7400 H   0  0  0  0  0  0  0  0  0  0  0  0
   57.1750   99.2220   24.2510 H   0  0  0  0  0  0  0  0  0  0  0  0
   58.0300   99.1800   25.8090 H   0  0  0  0  0  0  0  0  0  0  0  0
   56.1630   87.2450   21.0040 H   0  0  0  0  0  0  0  0  0  0  0  0
   50.7340   99.9740   26.8840 H   0  0  0  0  0  0  0  0  0  0  0  0
  1  2  1  0  0  0  0
  2  7  2  0  0  0  0
  2  3  1  0  0  0  0
  3  4  2  0  0  0  0
  4  5  1  0  0  0  0
  4 31  1  0  0  0  0
  5 34  1  0  0  0  0
  6  8  1  0  0  0  0
  6  5  2  0  0  0  0
  7  6  1  0  0  0  0
  8  9  2  0  0  0  0
  9 10  1  0  0  0  0
 10 11  1  0  0  0  0
 11 12  2  0  0  0  0
 11 13  1  0  0  0  0
 13 17  2  0  0  0  0
 14 13  1  0  0  0  0
 14 15  1  0  0  0  0
 15 16  2  0  0  0  0
 17 18  1  0  0  0  0
 17 16  1  0  0  0  0
 18 39  1  0  0  0  0
 18 19  1  0  0  0  0
 19 20  1  0  0  0  0
 20 40  1  0  0  0  0
 21 20  1  0  0  0  0
 21 43  1  0  0  0  0
 22 21  1  0  0  0  0
 23 45  1  0  0  0  0
 23 24  1  0  0  0  0
 24 19  1  0  0  0  0
 24 47  1  0  0  0  0
 25 14  1  0  0  0  0
 26 25  2  0  0  0  0
 27 26  1  0  0  0  0
 28 27  1  0  0  0  0
 28 29  2  0  0  0  0
 29 30  1  0  0  0  0
 29 25  1  0  0  0  0
 30 49  1  0  0  0  0
 32 50  1  0  0  0  0
 32  3  1  0  0  0  0
 35  7  1  0  0  0  0
 36  8  1  0  0  0  0
 37 10  1  0  0  0  0
 38 18  1  0  0  0  0
 41 20  1  0  0  0  0
 42 21  1  0  0  0  0
 44 23  1  0  0  0  0
 46 24  1  0  0  0  0
 48 30  1  0  0  0  0
 51 22  1  0  0  0  0
M  END
>  <Pose>
1

>  <Score>
-9.75

$$$$
