
 OpenBabel03202210083D

 52 55  0  0  1  0  0  0  0  0999 V2000
   52.6910   91.5520   18.4620 B   0  0  0  0  0  0  0  0  0  0  0  0
   54.0050   91.4500   19.8800 C   0  0  0  0  0  0  0  0  0  0  0  0
   53.9750   92.3240   20.9280 C   0  0  0  0  0  0  0  0  0  0  0  0
   54.8890   92.2850   21.9420 C   0  0  0  0  0  0  0  0  0  0  0  0
   55.8730   91.2880   21.8480 C   0  0  0  0  0  0  0  0  0  0  0  0
   55.9350   90.3950   20.8140 C   0  0  0  0  0  0  0  0  0  0  0  0
   54.9850   90.4850   19.8240 C   0  0  0  0  0  0  0  0  0  0  0  0
   54.9360   93.1770   23.0710 C   0  0  2  0  0  0  0  0  0  0  0  0
   53.7500   93.5310   23.5120 O   0  0  0  0  0  0  0  0  0  0  0  0
   56.0790   93.7470   23.7940 C   0  0  0  0  0  0  0  0  0  0  0  0
   55.7180   94.7670   24.7550 N   0  0  0  0  0  0  0  0  0  0  0  0
   56.4360   95.9180   24.9630 C   0  0  0  0  0  0  0  0  0  0  0  0
   55.8160   96.5820   25.9820 C   0  0  0  0  0  0  0  0  0  0  0  0
   56.3290   97.8080   26.4150 C   0  0  0  0  0  0  0  0  0  0  0  0
   57.4520   98.3260   25.8070 C   0  0  0  0  0  0  0  0  0  0  0  0
   58.0810   97.6590   24.7790 C   0  0  0  0  0  0  0  0  0  0  0  0
   57.5600   96.4340   24.3550 C   0  0  0  0  0  0  0  0  0  0  0  0
   54.7560   95.8410   26.3730 N   0  0  0  0  0  0  0  0  0  0  0  0
   54.6820   94.7300   25.6360 C   0  0  2  0  0  0  0  0  0  0  0  0
   53.8290   93.7460   25.8080 N   0  0  0  0  0  0  0  0  0  0  0  0
   53.9020   96.2480   27.4750 C   0  0  0  0  0  0  0  0  0  0  0  0
   53.1120   97.4730   27.2610 C   0  0  0  0  0  0  0  0  0  0  0  0
   52.7110   98.2490   28.3790 N   0  0  0  0  0  0  0  0  0  0  0  0
   51.3060   97.9380   28.7500 C   0  0  0  0  0  0  0  0  0  0  0  0
   50.3670   98.1330   27.6050 C   0  0  0  0  0  0  0  0  0  0  0  0
   50.3280   99.5030   27.3400 O   0  0  0  0  0  0  0  0  0  0  0  0
   51.5730  100.0020   27.0490 C   0  0  0  0  0  0  0  0  0  0  0  0
   52.6390   99.6850   28.0630 C   0  0  0  0  0  0  0  0  0  0  0  0
   53.1960   93.0450   20.9370 H   0  0  0  0  0  0  0  0  0  0  0  0
   56.6440   91.1740   22.6080 H   0  0  0  0  0  0  0  0  0  0  0  0
   56.7200   89.6250   20.7690 H   0  0  0  0  0  0  0  0  0  0  0  0
   55.0190   89.7790   18.9910 H   0  0  0  0  0  0  0  0  0  0  0  0
   56.6660   92.9380   24.3330 H   0  0  0  0  0  0  0  0  0  0  0  0
   56.7860   94.2210   23.0470 H   0  0  0  0  0  0  0  0  0  0  0  0
   55.8240   98.3280   27.2230 H   0  0  0  0  0  0  0  0  0  0  0  0
   57.8260   99.2750   26.1590 H   0  0  0  0  0  0  0  0  0  0  0  0
   58.9600   98.0860   24.3180 H   0  0  0  0  0  0  0  0  0  0  0  0
   58.0590   95.9130   23.5610 H   0  0  0  0  0  0  0  0  0  0  0  0
   53.0700   93.7760   26.4840 H   0  0  0  0  0  0  0  0  0  0  0  0
   53.9530   92.8890   25.2520 H   0  0  0  0  0  0  0  0  0  0  0  0
   53.2570   95.3880   27.7590 H   0  0  0  0  0  0  0  0  0  0  0  0
   54.5560   96.4140   28.3620 H   0  0  0  0  0  0  0  0  0  0  0  0
   52.2340   97.2360   26.5790 H   0  0  0  0  0  0  0  0  0  0  0  0
   53.7370   98.1460   26.5970 H   0  0  0  0  0  0  0  0  0  0  0  0
   51.2370   96.9450   29.2250 H   0  0  0  0  0  0  0  0  0  0  0  0
   51.0610   98.6950   29.5170 H   0  0  0  0  0  0  0  0  0  0  0  0
   49.3550   97.8510   27.9620 H   0  0  0  0  0  0  0  0  0  0  0  0
   50.5670   97.5400   26.7120 H   0  0  0  0  0  0  0  0  0  0  0  0
   51.4650  101.1260   27.0640 H   0  0  0  0  0  0  0  0  0  0  0  0
   51.8500   99.7100   26.0140 H   0  0  0  0  0  0  0  0  0  0  0  0
   53.5760  100.1110   27.7240 H   0  0  0  0  0  0  0  0  0  0  0  0
   52.2800  100.1480   29.0330 H   0  0  0  0  0  0  0  0  0  0  0  0
  1  2  1  0  0  0  0
  2  3  1  0  0  0  0
  3 29  1  0  0  0  0
  3  4  2  0  0  0  0
  4  8  1  0  0  0  0
  5  4  1  0  0  0  0
  5 30  1  0  0  0  0
  6  5  2  0  0  0  0
  7  2  2  0  0  0  0
  7  6  1  0  0  0  0
  8  9  1  6  0  0  0
  8 10  1  0  0  0  0
 10 33  1  0  0  0  0
 10 11  1  0  0  0  0
 11 12  1  0  0  0  0
 11 19  1  0  0  0  0
 12 13  1  0  0  0  0
 13 18  1  0  0  0  0
 13 14  2  0  0  0  0
 14 35  1  0  0  0  0
 15 36  1  0  0  0  0
 15 14  1  0  0  0  0
 16 15  2  0  0  0  0
 17 16  1  0  0  0  0
 17 12  2  0  0  0  0
 18 21  1  0  0  0  0
 19 20  1  1  0  0  0
 19 18  1  0  0  0  0
 20 39  1  0  0  0  0
 21 41  1  0  0  0  0
 21 42  1  0  0  0  0
 22 21  1  0  0  0  0
 22 23  1  0  0  0  0
 23 24  1  0  0  0  0
 24 45  1  0  0  0  0
 24 46  1  0  0  0  0
 25 47  1  0  0  0  0
 25 24  1  0  0  0  0
 26 25  1  0  0  0  0
 27 49  1  0  0  0  0
 27 26  1  0  0  0  0
 27 28  1  0  0  0  0
 28 23  1  0  0  0  0
 28 52  1  0  0  0  0
 31  6  1  0  0  0  0
 32  7  1  0  0  0  0
 34 10  1  0  0  0  0
 37 16  1  0  0  0  0
 38 17  1  0  0  0  0
 40 20  1  0  0  0  0
 43 22  1  0  0  0  0
 44 22  1  0  0  0  0
 48 25  1  0  0  0  0
 50 27  1  0  0  0  0
 51 28  1  0  0  0  0
M  END
>  <Pose>
1

>  <Score>
-8.32

$$$$
