
 OpenBabel03202210083D

 50 53  0  0  1  0  0  0  0  0999 V2000
   52.4010   83.7710   18.3600 Cl  0  0  0  0  0  0  0  0  0  0  0  0
   53.0890   85.0820   19.3100 C   0  0  0  0  0  0  0  0  0  0  0  0
   52.6950   86.3890   19.1250 C   0  0  0  0  0  0  0  0  0  0  0  0
   53.2400   87.4160   19.8740 C   0  0  0  0  0  0  0  0  0  0  0  0
   54.1990   87.1880   20.8420 C   0  0  0  0  0  0  0  0  0  0  0  0
   54.5950   85.8800   21.0310 C   0  0  0  0  0  0  0  0  0  0  0  0
   54.0460   84.8390   20.2740 C   0  0  0  0  0  0  0  0  0  0  0  0
   54.7570   88.2920   21.6210 C   0  0  0  0  0  0  0  0  0  0  0  0
   55.1860   88.3180   22.9040 N   0  0  0  0  0  0  0  0  0  0  0  0
   55.6210   89.5640   23.1870 C   0  0  1  0  0  0  0  0  0  0  0  0
   55.4850   90.3630   22.1070 N   0  0  0  0  0  0  0  0  0  0  0  0
   54.9520   89.5710   21.1490 C   0  0  0  0  0  0  0  0  0  0  0  0
   55.8250   91.7650   21.9760 C   0  0  0  0  0  0  0  0  0  0  0  0
   54.8040   92.6020   22.6680 C   0  0  0  0  0  0  0  0  0  0  0  0
   53.9250   93.1250   21.9800 O   0  0  0  0  0  0  0  0  0  0  0  0
   54.9040   92.7430   24.0530 N   0  0  0  0  0  0  0  0  0  0  0  0
   55.1820   93.9630   24.7240 C   0  0  0  0  0  0  0  0  0  0  0  0
   56.4140   94.5910   24.4990 C   0  0  0  0  0  0  0  0  0  0  0  0
   56.7200   95.7490   25.1390 C   0  0  0  0  0  0  0  0  0  0  0  0
   55.8330   96.3390   26.0240 C   0  0  0  0  0  0  0  0  0  0  0  0
   54.6350   95.7180   26.2370 C   0  0  0  0  0  0  0  0  0  0  0  0
   54.2900   94.5230   25.5930 C   0  0  0  0  0  0  0  0  0  0  0  0
   56.1890   97.6050   26.7110 C   0  0  0  0  0  0  0  0  0  0  0  0
   57.3490   98.2510   25.9470 C   0  0  0  0  0  0  0  0  0  0  0  0
   56.0970   89.6220   24.5930 C   0  0  0  0  0  0  0  0  0  0  0  0
   55.9910   88.2340   25.1250 C   0  0  0  0  0  0  0  0  0  0  0  0
   55.3290   87.4510   24.0530 C   0  0  0  0  0  0  0  0  0  0  0  0
   51.9450   86.5740   18.3690 H   0  0  0  0  0  0  0  0  0  0  0  0
   52.9120   88.4380   19.7090 H   0  0  0  0  0  0  0  0  0  0  0  0
   55.3410   85.6480   21.7760 H   0  0  0  0  0  0  0  0  0  0  0  0
   54.3540   83.8200   20.4200 H   0  0  0  0  0  0  0  0  0  0  0  0
   54.7110   89.9140   20.1300 H   0  0  0  0  0  0  0  0  0  0  0  0
   55.9240   92.0390   20.9060 H   0  0  0  0  0  0  0  0  0  0  0  0
   56.8370   91.8870   22.4240 H   0  0  0  0  0  0  0  0  0  0  0  0
   54.7650   91.9020   24.7070 H   0  0  0  0  0  0  0  0  0  0  0  0
   57.1280   94.1340   23.7970 H   0  0  0  0  0  0  0  0  0  0  0  0
   57.6910   96.2450   24.9620 H   0  0  0  0  0  0  0  0  0  0  0  0
   53.8960   96.1360   26.9240 H   0  0  0  0  0  0  0  0  0  0  0  0
   53.3070   94.0820   25.8320 H   0  0  0  0  0  0  0  0  0  0  0  0
   56.4740   97.3970   27.7570 H   0  0  0  0  0  0  0  0  0  0  0  0
   55.3360   98.3050   26.6950 H   0  0  0  0  0  0  0  0  0  0  0  0
   56.9870   98.6390   24.9880 H   0  0  0  0  0  0  0  0  0  0  0  0
   58.1660   97.5220   25.8700 H   0  0  0  0  0  0  0  0  0  0  0  0
   57.7320   99.1150   26.5390 H   0  0  0  0  0  0  0  0  0  0  0  0
   55.5160   90.3630   25.1810 H   0  0  0  0  0  0  0  0  0  0  0  0
   57.1820   89.9220   24.6090 H   0  0  0  0  0  0  0  0  0  0  0  0
   57.0140   87.8240   25.3810 H   0  0  0  0  0  0  0  0  0  0  0  0
   55.3910   88.2300   26.0870 H   0  0  0  0  0  0  0  0  0  0  0  0
   54.3370   87.0680   24.3940 H   0  0  0  0  0  0  0  0  0  0  0  0
   56.0260   86.6090   23.7800 H   0  0  0  0  0  0  0  0  0  0  0  0
  1  2  1  0  0  0  0
  2  7  1  0  0  0  0
  3  2  2  0  0  0  0
  3  4  1  0  0  0  0
  4  5  2  0  0  0  0
  5  6  1  0  0  0  0
  5  8  1  0  0  0  0
  6 30  1  0  0  0  0
  7 31  1  0  0  0  0
  7  6  2  0  0  0  0
  8  9  1  0  0  0  0
  9 10  1  0  0  0  0
  9 27  1  0  0  0  0
 10 11  1  1  0  0  0
 10 25  1  0  0  0  0
 12  8  2  0  0  0  0
 12 11  1  0  0  0  0
 13 11  1  0  0  0  0
 13 34  1  0  0  0  0
 13 14  1  0  0  0  0
 14 16  1  0  0  0  0
 15 14  2  0  0  0  0
 16 35  1  0  0  0  0
 16 17  1  0  0  0  0
 17 22  1  0  0  0  0
 18 17  2  0  0  0  0
 18 19  1  0  0  0  0
 19 20  2  0  0  0  0
 20 21  1  0  0  0  0
 20 23  1  0  0  0  0
 21 38  1  0  0  0  0
 22 39  1  0  0  0  0
 22 21  2  0  0  0  0
 23 40  1  0  0  0  0
 24 44  1  0  0  0  0
 24 23  1  0  0  0  0
 25 46  1  0  0  0  0
 25 26  1  0  0  0  0
 25 45  1  0  0  0  0
 26 47  1  0  0  0  0
 26 48  1  0  0  0  0
 27 49  1  0  0  0  0
 27 26  1  0  0  0  0
 28  3  1  0  0  0  0
 29  4  1  0  0  0  0
 32 12  1  0  0  0  0
 33 13  1  0  0  0  0
 36 18  1  0  0  0  0
 37 19  1  0  0  0  0
 41 23  1  0  0  0  0
 42 24  1  0  0  0  0
 43 24  1  0  0  0  0
 50 27  1  0  0  0  0
M  END
>  <Pose>
1

>  <Score>
-7.89

$$$$
