
 OpenBabel03202210083D

 56 59  0  0  1  0  0  0  0  0999 V2000
   57.8640   96.0650   24.6620 B   0  0  0  0  0  0  0  0  0  0  0  0
   56.1320   95.9490   25.4360 C   0  0  0  0  0  0  0  0  0  0  0  0
   55.3640   94.8360   25.1710 C   0  0  0  0  0  0  0  0  0  0  0  0
   54.1150   94.7940   25.7540 C   0  0  0  0  0  0  0  0  0  0  0  0
   53.6410   95.8040   26.5640 C   0  0  0  0  0  0  0  0  0  0  0  0
   54.4090   96.9180   26.8280 C   0  0  0  0  0  0  0  0  0  0  0  0
   55.6610   96.9790   26.2550 C   0  0  0  0  0  0  0  0  0  0  0  0
   53.9230   97.9370   27.6490 O   0  0  0  0  0  0  0  0  0  0  0  0
   53.0380   98.9220   27.2070 C   0  0  0  0  0  0  0  0  0  0  0  0
   52.3790   95.7540   27.1480 O   0  0  0  0  0  0  0  0  0  0  0  0
   51.3760   94.8570   26.7910 C   0  0  0  0  0  0  0  0  0  0  0  0
   55.8620   93.7640   24.3160 C   0  0  0  0  0  0  0  0  0  0  0  0
   55.1500   93.0780   23.5200 N   0  0  0  0  0  0  0  0  0  0  0  0
   55.6590   92.0490   22.7050 N   0  0  0  0  0  0  0  0  0  0  0  0
   54.8430   91.5960   21.6320 C   0  0  0  0  0  0  0  0  0  0  0  0
   54.8050   90.3360   21.1290 N   0  0  0  0  0  0  0  0  0  0  0  0
   53.9040   90.3000   20.1130 C   0  0  0  0  0  0  0  0  0  0  0  0
   53.4730   89.3440   19.2820 N   0  0  0  0  0  0  0  0  0  0  0  0
   52.5460   89.5820   18.3360 C   0  0  0  0  0  0  0  0  0  0  0  0
   52.0340   90.8270   18.2210 N   0  0  0  0  0  0  0  0  0  0  0  0
   52.4150   91.8250   19.0100 C   0  0  0  0  0  0  0  0  0  0  0  0
   53.3670   91.5740   19.9790 C   0  0  0  0  0  0  0  0  0  0  0  0
   53.9570   92.3110   20.9050 N   0  0  0  0  0  0  0  0  0  0  0  0
   51.9050   93.1230   18.9160 O   0  0  0  0  0  0  0  0  0  0  0  0
   52.0950   88.5440   17.4530 N   0  0  0  0  0  0  0  0  0  0  0  0
   55.5850   89.2310   21.5950 C   0  0  2  0  0  0  0  0  0  0  0  0
   55.3900   88.0590   20.8780 O   0  0  0  0  0  0  0  0  0  0  0  0
   55.7540   87.0030   21.6630 C   0  0  1  0  0  0  0  0  0  0  0  0
   55.9320   87.4560   23.0710 C   0  0  2  0  0  0  0  0  0  0  0  0
   55.3110   88.8540   23.0360 C   0  0  1  0  0  0  0  0  0  0  0  0
   55.9630   89.7040   23.9290 O   0  0  0  0  0  0  0  0  0  0  0  0
   57.2990   87.6650   23.3490 O   0  0  0  0  0  0  0  0  0  0  0  0
   54.6190   85.9780   21.6430 C   0  0  0  0  0  0  0  0  0  0  0  0
   54.9290   84.9400   20.7570 O   0  0  0  0  0  0  0  0  0  0  0  0
   53.5020   93.9120   25.5460 H   0  0  0  0  0  0  0  0  0  0  0  0
   56.2850   97.8430   26.4460 H   0  0  0  0  0  0  0  0  0  0  0  0
   52.4550   99.3860   28.0330 H   0  0  0  0  0  0  0  0  0  0  0  0
   52.2590   98.4850   26.5200 H   0  0  0  0  0  0  0  0  0  0  0  0
   53.5170   99.7470   26.6540 H   0  0  0  0  0  0  0  0  0  0  0  0
   50.6780   94.7700   27.6520 H   0  0  0  0  0  0  0  0  0  0  0  0
   51.7240   93.8920   26.4100 H   0  0  0  0  0  0  0  0  0  0  0  0
   50.7610   95.3170   25.9650 H   0  0  0  0  0  0  0  0  0  0  0  0
   56.9180   93.5260   24.3520 H   0  0  0  0  0  0  0  0  0  0  0  0
   56.5850   91.6190   22.8540 H   0  0  0  0  0  0  0  0  0  0  0  0
   50.8980   93.2010   18.8320 H   0  0  0  0  0  0  0  0  0  0  0  0
   52.3690   87.5590   17.5290 H   0  0  0  0  0  0  0  0  0  0  0  0
   51.4460   88.8350   16.6910 H   0  0  0  0  0  0  0  0  0  0  0  0
   56.6710   89.4590   21.5390 H   0  0  0  0  0  0  0  0  0  0  0  0
   56.6820   86.5600   21.2350 H   0  0  0  0  0  0  0  0  0  0  0  0
   55.4480   86.8150   23.8230 H   0  0  0  0  0  0  0  0  0  0  0  0
   54.2370   88.8160   23.2620 H   0  0  0  0  0  0  0  0  0  0  0  0
   56.7010   90.1800   23.4660 H   0  0  0  0  0  0  0  0  0  0  0  0
   57.5180   88.6210   23.3750 H   0  0  0  0  0  0  0  0  0  0  0  0
   53.7200   86.5140   21.2940 H   0  0  0  0  0  0  0  0  0  0  0  0
   54.4880   85.6180   22.6740 H   0  0  0  0  0  0  0  0  0  0  0  0
   55.0980   85.2850   19.8430 H   0  0  0  0  0  0  0  0  0  0  0  0
  1  2  1  0  0  0  0
  2  7  1  0  0  0  0
  3  2  2  0  0  0  0
  3  4  1  0  0  0  0
  4  5  2  0  0  0  0
  5  6  1  0  0  0  0
  5 10  1  0  0  0  0
  6  8  1  0  0  0  0
  7 36  1  0  0  0  0
  7  6  2  0  0  0  0
  9  8  1  0  0  0  0
  9 37  1  0  0  0  0
 11 10  1  0  0  0  0
 11 40  1  0  0  0  0
 12 43  1  0  0  0  0
 12  3  1  0  0  0  0
 13 12  2  0  0  0  0
 14 44  1  0  0  0  0
 14 13  1  0  0  0  0
 15 14  1  0  0  0  0
 16 26  1  0  0  0  0
 16 15  1  0  0  0  0
 17 16  1  0  0  0  0
 18 17  1  0  0  0  0
 19 18  2  0  0  0  0
 20 19  1  0  0  0  0
 20 21  2  0  0  0  0
 21 22  1  0  0  0  0
 22 17  2  0  0  0  0
 22 23  1  0  0  0  0
 23 15  2  0  0  0  0
 24 21  1  0  0  0  0
 25 46  1  0  0  0  0
 25 19  1  0  0  0  0
 26 48  1  6  0  0  0
 26 30  1  0  0  0  0
 27 26  1  0  0  0  0
 27 28  1  0  0  0  0
 28 49  1  6  0  0  0
 28 29  1  0  0  0  0
 29 32  1  0  0  0  0
 29 50  1  1  0  0  0
 30 29  1  0  0  0  0
 30 51  1  1  0  0  0
 30 31  1  0  0  0  0
 32 53  1  0  0  0  0
 33 28  1  0  0  0  0
 33 55  1  0  0  0  0
 34 33  1  0  0  0  0
 35  4  1  0  0  0  0
 38  9  1  0  0  0  0
 39  9  1  0  0  0  0
 41 11  1  0  0  0  0
 42 11  1  0  0  0  0
 45 24  1  0  0  0  0
 47 25  1  0  0  0  0
 52 31  1  0  0  0  0
 54 33  1  0  0  0  0
 56 34  1  0  0  0  0
M  END
>  <Pose>
1

>  <Score>
-9.80

$$$$
