
 OpenBabel03202210083D

 33 36  0  0  1  0  0  0  0  0999 V2000
   54.7780   92.6000   22.4430 B   0  0  0  0  0  0  0  0  0  0  0  0
   55.3210   90.7900   22.1750 C   0  0  0  0  0  0  0  0  0  0  0  0
   55.1620   90.1590   20.9670 C   0  0  0  0  0  0  0  0  0  0  0  0
   55.5590   88.8520   20.8120 C   0  0  0  0  0  0  0  0  0  0  0  0
   56.1260   88.1380   21.8590 C   0  0  0  0  0  0  0  0  0  0  0  0
   56.2940   88.7500   23.0780 C   0  0  0  0  0  0  0  0  0  0  0  0
   55.8870   90.0800   23.2250 C   0  0  0  0  0  0  0  0  0  0  0  0
   54.5720   90.8450   19.7880 C   0  0  1  0  0  0  0  0  0  0  0  0
   53.9350   90.0440   18.8390 C   0  0  1  0  0  0  0  0  0  0  0  0
   52.6950   89.2250   18.7480 C   0  0  0  0  0  0  0  0  0  0  0  0
   51.8940   90.3030   18.1150 N   0  0  0  0  0  0  0  0  0  0  0  0
   52.2130   91.4220   18.6860 C   0  0  2  0  0  0  0  0  0  0  0  0
   53.1920   91.1240   19.6850 C   0  0  2  0  0  0  0  0  0  0  0  0
   52.4620   90.6570   20.9010 C   0  0  0  0  0  0  0  0  0  0  0  0
   51.8610   90.2970   21.8560 N   0  0  0  0  0  0  0  0  0  0  0  0
   51.6680   92.7200   18.3610 N   0  0  0  0  0  0  0  0  0  0  0  0
   52.9140   88.2090   17.8110 O   0  0  0  0  0  0  0  0  0  0  0  0
   52.5370   87.0210   18.4070 C   0  0  0  0  0  0  0  0  0  0  0  0
   51.5350   87.4870   19.4510 C   0  0  0  0  0  0  0  0  0  0  0  0
   52.1700   88.6880   19.8530 O   0  0  0  0  0  0  0  0  0  0  0  0
   54.2600   90.4620   17.4280 C   0  0  0  0  0  0  0  0  0  0  0  0
   54.5330   90.7760   16.3230 N   0  0  0  0  0  0  0  0  0  0  0  0
   55.4560   88.2970   19.8670 H   0  0  0  0  0  0  0  0  0  0  0  0
   56.4430   87.1160   21.7550 H   0  0  0  0  0  0  0  0  0  0  0  0
   56.7290   88.2190   23.8880 H   0  0  0  0  0  0  0  0  0  0  0  0
   56.0020   90.6060   24.1700 H   0  0  0  0  0  0  0  0  0  0  0  0
   55.2620   91.6810   19.4780 H   0  0  0  0  0  0  0  0  0  0  0  0
   51.6510   93.0640   17.3820 H   0  0  0  0  0  0  0  0  0  0  0  0
   51.2840   93.3340   19.1020 H   0  0  0  0  0  0  0  0  0  0  0  0
   53.4220   86.5840   18.9170 H   0  0  0  0  0  0  0  0  0  0  0  0
   52.0880   86.3080   17.6850 H   0  0  0  0  0  0  0  0  0  0  0  0
   50.5600   87.7120   18.9690 H   0  0  0  0  0  0  0  0  0  0  0  0
   51.4260   86.7850   20.2880 H   0  0  0  0  0  0  0  0  0  0  0  0
  2  1  1  0  0  0  0
  2  7  1  0  0  0  0
  3  2  2  0  0  0  0
  4  3  1  0  0  0  0
  4  5  2  0  0  0  0
  5  6  1  0  0  0  0
  6  7  2  0  0  0  0
  6 25  1  0  0  0  0
  7 26  1  0  0  0  0
  8 27  1  6  0  0  0
  8  3  1  0  0  0  0
  9 21  1  6  0  0  0
  9 13  1  0  0  0  0
  9  8  1  0  0  0  0
 10  9  1  0  0  0  0
 10 20  1  0  0  0  0
 11 12  1  0  0  0  0
 11 10  1  0  0  0  0
 12 16  1  1  0  0  0
 12 13  1  0  0  0  0
 13  8  1  0  0  0  0
 13 14  1  1  0  0  0
 14 15  3  0  0  0  0
 16 29  1  0  0  0  0
 17 18  1  0  0  0  0
 17 10  1  0  0  0  0
 18 30  1  0  0  0  0
 18 19  1  0  0  0  0
 19 20  1  0  0  0  0
 19 33  1  0  0  0  0
 22 21  3  0  0  0  0
 23  4  1  0  0  0  0
 24  5  1  0  0  0  0
 28 16  1  0  0  0  0
 31 18  1  0  0  0  0
 32 19  1  0  0  0  0
M  END
>  <Pose>
1

>  <Score>
-5.28

$$$$
