
 OpenBabel03202210083D

 57 60  0  0  1  0  0  0  0  0999 V2000
   51.7380   92.1330   18.3940 B   0  0  0  0  0  0  0  0  0  0  0  0
   52.0920   90.2670   18.5490 C   0  0  0  0  0  0  0  0  0  0  0  0
   53.1060   89.8030   19.3730 C   0  0  0  0  0  0  0  0  0  0  0  0
   53.3770   88.4630   19.4990 C   0  0  0  0  0  0  0  0  0  0  0  0
   52.6280   87.5520   18.7920 C   0  0  0  0  0  0  0  0  0  0  0  0
   51.6030   88.0020   17.9570 C   0  0  0  0  0  0  0  0  0  0  0  0
   51.3420   89.3450   17.8410 C   0  0  0  0  0  0  0  0  0  0  0  0
   52.8270   86.1230   18.8920 C   0  0  1  0  0  0  0  0  0  0  0  0
   51.8870   85.3920   18.3620 O   0  0  0  0  0  0  0  0  0  0  0  0
   53.8980   85.3530   19.4820 C   0  0  1  0  0  0  0  0  0  0  0  0
   53.9260   85.4730   20.9160 N   0  0  0  0  0  0  0  0  0  0  0  0
   52.5930   84.9400   21.2800 C   0  0  2  0  0  0  0  0  0  0  0  0
   52.5640   84.8460   22.6880 N   0  0  0  0  0  0  0  0  0  0  0  0
   53.7740   85.4240   23.1880 C   0  0  0  0  0  0  0  0  0  0  0  0
   54.5740   85.7930   22.1050 C   0  0  0  0  0  0  0  0  0  0  0  0
   55.7970   86.3780   22.3540 C   0  0  0  0  0  0  0  0  0  0  0  0
   56.5000   86.7030   21.3620 O   0  0  0  0  0  0  0  0  0  0  0  0
   56.1900   86.5790   23.6170 N   0  0  0  0  0  0  0  0  0  0  0  0
   55.4120   86.2190   24.6240 C   0  0  0  0  0  0  0  0  0  0  0  0
   55.8200   86.4270   25.7990 O   0  0  0  0  0  0  0  0  0  0  0  0
   54.1880   85.6350   24.4410 N   0  0  0  0  0  0  0  0  0  0  0  0
   53.4350   85.2920   25.6250 C   0  0  0  0  0  0  0  0  0  0  0  0
   57.4990   87.2040   23.8360 C   0  0  0  0  0  0  0  0  0  0  0  0
   51.5220   84.3120   23.5260 C   0  0  0  0  0  0  0  0  0  0  0  0
   52.4250   83.7530   20.4280 C   0  0  1  0  0  0  0  0  0  0  0  0
   53.5540   83.8570   19.3940 C   0  0  1  0  0  0  0  0  0  0  0  0
   53.1150   83.4460   18.0640 C   0  0  0  0  0  0  0  0  0  0  0  0
   52.0370   82.7780   17.9280 O   0  0  0  0  0  0  0  0  0  0  0  0
   53.8270   83.7530   16.9360 O   0  0  0  0  0  0  0  0  0  0  0  0
   54.9900   83.0290   16.5260 C   0  0  0  0  0  0  0  0  0  0  0  0
   52.3990   82.4350   21.0480 C   0  0  0  0  0  0  0  0  0  0  0  0
   51.3520   81.7380   20.9980 O   0  0  0  0  0  0  0  0  0  0  0  0
   53.4970   81.9150   21.6980 O   0  0  0  0  0  0  0  0  0  0  0  0
   53.3640   80.9230   22.6910 C   0  0  0  0  0  0  0  0  0  0  0  0
   53.7070   90.4980   19.9390 H   0  0  0  0  0  0  0  0  0  0  0  0
   54.1720   88.1520   20.1240 H   0  0  0  0  0  0  0  0  0  0  0  0
   50.9800   87.2980   17.3740 H   0  0  0  0  0  0  0  0  0  0  0  0
   50.5310   89.6790   17.1770 H   0  0  0  0  0  0  0  0  0  0  0  0
   54.8990   85.5390   19.0270 H   0  0  0  0  0  0  0  0  0  0  0  0
   51.8120   85.6930   20.9940 H   0  0  0  0  0  0  0  0  0  0  0  0
   53.0570   84.2520   25.6380 H   0  0  0  0  0  0  0  0  0  0  0  0
   54.1370   85.3110   26.5230 H   0  0  0  0  0  0  0  0  0  0  0  0
   52.6770   86.0590   25.9000 H   0  0  0  0  0  0  0  0  0  0  0  0
   58.3060   86.5990   23.3740 H   0  0  0  0  0  0  0  0  0  0  0  0
   57.6620   87.3720   24.9190 H   0  0  0  0  0  0  0  0  0  0  0  0
   57.4990   88.1930   23.3260 H   0  0  0  0  0  0  0  0  0  0  0  0
   50.5570   84.2370   22.9360 H   0  0  0  0  0  0  0  0  0  0  0  0
   51.7000   83.3340   23.9580 H   0  0  0  0  0  0  0  0  0  0  0  0
   51.2290   85.0580   24.3310 H   0  0  0  0  0  0  0  0  0  0  0  0
   51.4910   83.8740   19.7810 H   0  0  0  0  0  0  0  0  0  0  0  0
   54.4370   83.2820   19.7760 H   0  0  0  0  0  0  0  0  0  0  0  0
   54.6870   82.0860   16.0060 H   0  0  0  0  0  0  0  0  0  0  0  0
   55.5660   83.6960   15.8570 H   0  0  0  0  0  0  0  0  0  0  0  0
   55.5460   82.8120   17.4740 H   0  0  0  0  0  0  0  0  0  0  0  0
   54.3930   80.5610   22.9420 H   0  0  0  0  0  0  0  0  0  0  0  0
   52.9960   81.4400   23.6130 H   0  0  0  0  0  0  0  0  0  0  0  0
   52.6940   80.0950   22.3810 H   0  0  0  0  0  0  0  0  0  0  0  0
  1  2  1  0  0  0  0
  2  3  1  0  0  0  0
  3  4  2  0  0  0  0
  3 35  1  0  0  0  0
  4 36  1  0  0  0  0
  5  8  1  0  0  0  0
  5  4  1  0  0  0  0
  6  5  2  0  0  0  0
  7  6  1  0  0  0  0
  7  2  2  0  0  0  0
  8  9  1  6  0  0  0
  8 10  1  0  0  0  0
 10 39  1  6  0  0  0
 10 11  1  0  0  0  0
 11 12  1  0  0  0  0
 11 15  1  0  0  0  0
 12 40  1  6  0  0  0
 12 13  1  0  0  0  0
 13 14  1  0  0  0  0
 13 24  1  0  0  0  0
 14 21  1  0  0  0  0
 15 16  1  0  0  0  0
 15 14  2  0  0  0  0
 16 18  1  0  0  0  0
 17 16  2  0  0  0  0
 18 23  1  0  0  0  0
 18 19  1  0  0  0  0
 19 20  2  0  0  0  0
 21 19  1  0  0  0  0
 21 22  1  0  0  0  0
 22 41  1  0  0  0  0
 22 43  1  0  0  0  0
 22 42  1  0  0  0  0
 23 45  1  0  0  0  0
 24 48  1  0  0  0  0
 24 49  1  0  0  0  0
 25 50  1  6  0  0  0
 25 31  1  0  0  0  0
 25 12  1  0  0  0  0
 26 10  1  0  0  0  0
 26 51  1  1  0  0  0
 26 25  1  0  0  0  0
 27 26  1  0  0  0  0
 28 27  2  0  0  0  0
 29 27  1  0  0  0  0
 30 29  1  0  0  0  0
 30 54  1  0  0  0  0
 31 33  1  0  0  0  0
 32 31  2  0  0  0  0
 33 34  1  0  0  0  0
 34 55  1  0  0  0  0
 34 56  1  0  0  0  0
 37  6  1  0  0  0  0
 38  7  1  0  0  0  0
 44 23  1  0  0  0  0
 46 23  1  0  0  0  0
 47 24  1  0  0  0  0
 52 30  1  0  0  0  0
 53 30  1  0  0  0  0
 57 34  1  0  0  0  0
M  END
>  <Pose>
1

>  <Score>
-6.93

$$$$
