
 OpenBabel03202210083D

 55 58  0  0  1  0  0  0  0  0999 V2000
   53.0460   97.8610   28.3480 Cl  0  0  0  0  0  0  0  0  0  0  0  0
   54.0460   96.9850   27.1790 C   0  0  0  0  0  0  0  0  0  0  0  0
   53.5480   95.8470   26.5890 C   0  0  0  0  0  0  0  0  0  0  0  0
   54.3000   95.1330   25.6690 C   0  0  0  0  0  0  0  0  0  0  0  0
   54.0750   94.0190   24.9570 N   0  0  0  0  0  0  0  0  0  0  0  0
   55.1820   93.7440   24.1810 C   0  0  0  0  0  0  0  0  0  0  0  0
   56.0500   94.7130   24.4510 N   0  0  0  0  0  0  0  0  0  0  0  0
   55.5580   95.5990   25.3660 C   0  0  0  0  0  0  0  0  0  0  0  0
   56.0660   96.7380   25.9530 C   0  0  0  0  0  0  0  0  0  0  0  0
   55.3120   97.4380   26.8630 C   0  0  0  0  0  0  0  0  0  0  0  0
   57.3610   94.9150   23.8610 C   0  0  0  0  0  0  0  0  0  0  0  0
   55.2690   92.6180   23.2170 C   0  0  0  0  0  0  0  0  0  0  0  0
   56.0940   91.4650   23.6050 C   0  0  0  0  0  0  0  0  0  0  0  0
   55.5650   90.1210   23.3480 C   0  0  0  0  0  0  0  0  0  0  0  0
   55.1220   89.3870   24.2600 O   0  0  0  0  0  0  0  0  0  0  0  0
   55.5570   89.6280   21.9910 N   0  0  0  0  0  0  0  0  0  0  0  0
   55.3500   90.5570   20.9150 C   0  0  0  0  0  0  0  0  0  0  0  0
   54.0050   90.2360   20.2970 C   0  0  2  0  0  0  0  0  0  0  0  0
   53.6530   88.7940   20.3530 C   0  0  1  0  0  0  0  0  0  0  0  0
   54.7910   87.8620   20.5540 C   0  0  0  0  0  0  0  0  0  0  0  0
   55.7440   88.2480   21.6370 C   0  0  0  0  0  0  0  0  0  0  0  0
   52.6830   88.5080   21.3270 O   0  0  0  0  0  0  0  0  0  0  0  0
   52.9970   88.4330   19.0140 C   0  0  0  0  0  0  0  0  0  0  0  0
   53.9900   90.7850   18.9630 N   0  0  0  0  0  0  0  0  0  0  0  0
   55.0180   90.5560   18.1230 C   0  0  0  0  0  0  0  0  0  0  0  0
   55.0450   91.0610   16.8420 C   0  0  0  0  0  0  0  0  0  0  0  0
   53.9820   91.8220   16.4150 C   0  0  0  0  0  0  0  0  0  0  0  0
   53.9470   92.3180   15.2400 O   0  0  0  0  0  0  0  0  0  0  0  0
   52.9720   92.0340   17.2730 N   0  0  0  0  0  0  0  0  0  0  0  0
   52.9700   91.5340   18.5100 C   0  0  0  0  0  0  0  0  0  0  0  0
   51.9930   91.7640   19.2800 O   0  0  0  0  0  0  0  0  0  0  0  0
   52.5610   95.4520   26.8060 H   0  0  0  0  0  0  0  0  0  0  0  0
   57.0510   97.0610   25.6830 H   0  0  0  0  0  0  0  0  0  0  0  0
   55.6790   98.3380   27.3430 H   0  0  0  0  0  0  0  0  0  0  0  0
   57.5600   94.2460   23.0170 H   0  0  0  0  0  0  0  0  0  0  0  0
   57.5290   95.9670   23.5540 H   0  0  0  0  0  0  0  0  0  0  0  0
   58.1050   94.7230   24.6790 H   0  0  0  0  0  0  0  0  0  0  0  0
   55.5640   93.0460   22.2240 H   0  0  0  0  0  0  0  0  0  0  0  0
   54.1890   92.3120   23.0500 H   0  0  0  0  0  0  0  0  0  0  0  0
   57.1630   91.5580   23.2610 H   0  0  0  0  0  0  0  0  0  0  0  0
   56.2020   91.5200   24.7410 H   0  0  0  0  0  0  0  0  0  0  0  0
   56.1650   90.5240   20.1590 H   0  0  0  0  0  0  0  0  0  0  0  0
   55.3480   91.5970   21.3040 H   0  0  0  0  0  0  0  0  0  0  0  0
   53.2420   90.7990   20.8980 H   0  0  0  0  0  0  0  0  0  0  0  0
   54.3560   86.8620   20.8480 H   0  0  0  0  0  0  0  0  0  0  0  0
   55.2990   87.6520   19.5730 H   0  0  0  0  0  0  0  0  0  0  0  0
   56.7820   88.1660   21.1980 H   0  0  0  0  0  0  0  0  0  0  0  0
   55.7330   87.5660   22.5060 H   0  0  0  0  0  0  0  0  0  0  0  0
   52.4030   87.5480   21.2080 H   0  0  0  0  0  0  0  0  0  0  0  0
   52.4180   87.4970   19.2040 H   0  0  0  0  0  0  0  0  0  0  0  0
   52.2350   89.2010   18.7440 H   0  0  0  0  0  0  0  0  0  0  0  0
   53.7330   88.2390   18.2310 H   0  0  0  0  0  0  0  0  0  0  0  0
   55.8650   89.9500   18.4600 H   0  0  0  0  0  0  0  0  0  0  0  0
   55.8700   90.8750   16.1700 H   0  0  0  0  0  0  0  0  0  0  0  0
   52.1310   92.6180   16.9850 H   0  0  0  0  0  0  0  0  0  0  0  0
  2  1  1  0  0  0  0
  3 32  1  0  0  0  0
  3  2  2  0  0  0  0
  4  3  1  0  0  0  0
  5  4  1  0  0  0  0
  6  7  1  0  0  0  0
  6  5  2  0  0  0  0
  7  8  1  0  0  0  0
  8  4  2  0  0  0  0
  8  9  1  0  0  0  0
  9 10  2  0  0  0  0
 10  2  1  0  0  0  0
 10 34  1  0  0  0  0
 11  7  1  0  0  0  0
 11 37  1  0  0  0  0
 12 13  1  0  0  0  0
 12  6  1  0  0  0  0
 13 41  1  0  0  0  0
 14 13  1  0  0  0  0
 14 15  2  0  0  0  0
 16 14  1  0  0  0  0
 17 43  1  0  0  0  0
 17 16  1  0  0  0  0
 18 19  1  0  0  0  0
 18 44  1  1  0  0  0
 18 17  1  0  0  0  0
 19 20  1  0  0  0  0
 19 22  1  1  0  0  0
 20 45  1  0  0  0  0
 20 21  1  0  0  0  0
 21 16  1  0  0  0  0
 21 48  1  0  0  0  0
 23 50  1  0  0  0  0
 23 19  1  0  0  0  0
 24 18  1  0  0  0  0
 25 53  1  0  0  0  0
 25 24  1  0  0  0  0
 26 25  2  0  0  0  0
 27 26  1  0  0  0  0
 27 29  1  0  0  0  0
 28 27  2  0  0  0  0
 29 30  1  0  0  0  0
 30 24  1  0  0  0  0
 30 31  2  0  0  0  0
 33  9  1  0  0  0  0
 35 11  1  0  0  0  0
 36 11  1  0  0  0  0
 38 12  1  0  0  0  0
 39 12  1  0  0  0  0
 40 13  1  0  0  0  0
 42 17  1  0  0  0  0
 46 20  1  0  0  0  0
 47 21  1  0  0  0  0
 49 22  1  0  0  0  0
 51 23  1  0  0  0  0
 52 23  1  0  0  0  0
 54 26  1  0  0  0  0
 55 29  1  0  0  0  0
M  END
>  <Pose>
1

>  <Score>
-6.20

$$$$
