
 OpenBabel03202210083D

 49 52  0  0  0  0  0  0  0  0999 V2000
   57.4870   86.5560   24.5180 B   0  0  0  0  0  0  0  0  0  0  0  0
   56.3590   87.1520   23.1190 C   0  0  0  0  0  0  0  0  0  0  0  0
   56.4020   88.4800   22.7360 C   0  0  0  0  0  0  0  0  0  0  0  0
   55.6040   88.9780   21.7230 C   0  0  0  0  0  0  0  0  0  0  0  0
   54.7420   88.0980   21.0850 C   0  0  0  0  0  0  0  0  0  0  0  0
   54.7040   86.7790   21.4710 C   0  0  0  0  0  0  0  0  0  0  0  0
   55.4910   86.2660   22.4780 C   0  0  0  0  0  0  0  0  0  0  0  0
   55.6270   90.3710   21.2990 C   0  0  0  0  0  0  0  0  0  0  0  0
   55.2210   90.6740   20.1480 O   0  0  0  0  0  0  0  0  0  0  0  0
   56.0900   91.4210   22.1240 N   0  0  0  0  0  0  0  0  0  0  0  0
   55.2440   92.0430   23.1200 C   0  0  0  0  0  0  0  0  0  0  0  0
   54.6630   93.3190   22.6260 C   0  0  0  0  0  0  0  0  0  0  0  0
   53.7090   93.2330   21.8140 O   0  0  0  0  0  0  0  0  0  0  0  0
   55.1200   94.5870   23.0170 N   0  0  0  0  0  0  0  0  0  0  0  0
   56.5160   94.9480   22.9930 C   0  0  0  0  0  0  0  0  0  0  0  0
   56.9280   95.2040   24.4260 C   0  0  0  0  0  0  0  0  0  0  0  0
   55.9550   96.1610   25.0720 C   0  0  0  0  0  0  0  0  0  0  0  0
   55.3060   95.4690   26.1660 N   0  0  0  0  0  0  0  0  0  0  0  0
   54.4470   96.2760   26.9600 C   0  0  0  0  0  0  0  0  0  0  0  0
   54.8970   97.6600   27.2540 C   0  0  0  0  0  0  0  0  0  0  0  0
   56.2500   97.9880   26.7560 C   0  0  0  0  0  0  0  0  0  0  0  0
   57.1740   98.9210   27.1390 N   0  0  0  0  0  0  0  0  0  0  0  0
   58.2290   98.7700   26.3290 C   0  0  0  0  0  0  0  0  0  0  0  0
   57.9830   97.7740   25.4630 N   0  0  0  0  0  0  0  0  0  0  0  0
   56.7500   97.2590   25.7000 C   0  0  0  0  0  0  0  0  0  0  0  0
   54.9420   96.7380   24.1370 C   0  0  0  0  0  0  0  0  0  0  0  0
   54.1860   95.5870   23.4640 C   0  0  0  0  0  0  0  0  0  0  0  0
   57.0740   89.1230   23.2480 H   0  0  0  0  0  0  0  0  0  0  0  0
   54.0800   88.4060   20.2790 H   0  0  0  0  0  0  0  0  0  0  0  0
   54.0350   86.0740   20.9840 H   0  0  0  0  0  0  0  0  0  0  0  0
   55.4870   85.2510   22.8010 H   0  0  0  0  0  0  0  0  0  0  0  0
   57.0680   91.7540   22.0100 H   0  0  0  0  0  0  0  0  0  0  0  0
   55.8260   92.2970   24.0300 H   0  0  0  0  0  0  0  0  0  0  0  0
   54.4700   91.2990   23.3890 H   0  0  0  0  0  0  0  0  0  0  0  0
   56.6690   95.8880   22.4040 H   0  0  0  0  0  0  0  0  0  0  0  0
   57.1510   94.1880   22.5050 H   0  0  0  0  0  0  0  0  0  0  0  0
   57.9720   95.5780   24.4930 H   0  0  0  0  0  0  0  0  0  0  0  0
   56.8960   94.1990   24.9290 H   0  0  0  0  0  0  0  0  0  0  0  0
   54.7350   94.6810   25.7630 H   0  0  0  0  0  0  0  0  0  0  0  0
   54.3360   95.7480   27.9530 H   0  0  0  0  0  0  0  0  0  0  0  0
   53.3940   96.3000   26.5680 H   0  0  0  0  0  0  0  0  0  0  0  0
   54.8910   97.8900   28.3610 H   0  0  0  0  0  0  0  0  0  0  0  0
   54.1830   98.4280   26.8380 H   0  0  0  0  0  0  0  0  0  0  0  0
   57.0320   99.6120   27.9330 H   0  0  0  0  0  0  0  0  0  0  0  0
   59.1340   99.3530   26.3650 H   0  0  0  0  0  0  0  0  0  0  0  0
   55.3580   97.4400   23.4150 H   0  0  0  0  0  0  0  0  0  0  0  0
   54.1900   97.2770   24.7400 H   0  0  0  0  0  0  0  0  0  0  0  0
   53.6170   95.9590   22.5870 H   0  0  0  0  0  0  0  0  0  0  0  0
   53.4630   95.2170   24.1960 H   0  0  0  0  0  0  0  0  0  0  0  0
  2  1  1  0  0  0  0
  3  2  1  0  0  0  0
  3 28  1  0  0  0  0
  4  3  2  0  0  0  0
  5  6  2  0  0  0  0
  5  4  1  0  0  0  0
  6  7  1  0  0  0  0
  7 31  1  0  0  0  0
  7  2  2  0  0  0  0
  8  4  1  0  0  0  0
  8 10  1  0  0  0  0
  9  8  2  0  0  0  0
 10 11  1  0  0  0  0
 11 34  1  0  0  0  0
 11 33  1  0  0  0  0
 12 14  1  0  0  0  0
 12 11  1  0  0  0  0
 13 12  2  0  0  0  0
 14 27  1  0  0  0  0
 15 14  1  0  0  0  0
 15 16  1  0  0  0  0
 16 37  1  0  0  0  0
 16 38  1  0  0  0  0
 16 17  1  0  0  0  0
 17 25  1  0  0  0  0
 17 18  1  0  0  0  0
 18 19  1  0  0  0  0
 19 20  1  0  0  0  0
 19 40  1  0  0  0  0
 20 42  1  0  0  0  0
 21 22  1  0  0  0  0
 21 20  1  0  0  0  0
 22 44  1  0  0  0  0
 23 45  1  0  0  0  0
 23 22  1  0  0  0  0
 24 25  1  0  0  0  0
 24 23  2  0  0  0  0
 25 21  2  0  0  0  0
 26 47  1  0  0  0  0
 26 17  1  0  0  0  0
 27 26  1  0  0  0  0
 27 49  1  0  0  0  0
 29  5  1  0  0  0  0
 30  6  1  0  0  0  0
 32 10  1  0  0  0  0
 35 15  1  0  0  0  0
 36 15  1  0  0  0  0
 39 18  1  0  0  0  0
 41 19  1  0  0  0  0
 43 20  1  0  0  0  0
 46 26  1  0  0  0  0
 48 27  1  0  0  0  0
M  END
>  <Pose>
1

>  <Score>
-6.59

$$$$
