
 OpenBabel03202210083D

 36 39  0  0  1  0  0  0  0  0999 V2000
   51.7710   88.6090   18.5470 B   0  0  0  0  0  0  0  0  0  0  0  0
   52.5390   86.9760   19.2230 C   0  0  0  0  0  0  0  0  0  0  0  0
   52.9020   86.8570   20.5390 C   0  0  0  0  0  0  0  0  0  0  0  0
   53.4490   85.6780   21.0000 C   0  0  0  0  0  0  0  0  0  0  0  0
   53.6080   84.6570   20.1020 C   0  0  0  0  0  0  0  0  0  0  0  0
   53.2340   84.7810   18.7490 C   0  0  0  0  0  0  0  0  0  0  0  0
   52.6920   85.9590   18.3080 C   0  0  0  0  0  0  0  0  0  0  0  0
   54.1820   83.5120   20.7250 N   0  0  0  0  0  0  0  0  0  0  0  0
   54.3970   83.8180   22.0740 C   0  0  0  0  0  0  0  0  0  0  0  0
   54.8980   83.0280   22.9320 O   0  0  0  0  0  0  0  0  0  0  0  0
   53.9380   85.2290   22.3270 C   0  0  2  0  0  0  0  0  0  0  0  0
   52.8780   85.1310   23.3240 C   0  0  0  0  0  0  0  0  0  0  0  0
   53.0130   85.6940   24.5550 C   0  0  0  0  0  0  0  0  0  0  0  0
   51.8600   85.4240   25.2350 N   0  0  0  0  0  0  0  0  0  0  0  0
   51.0370   84.7280   24.4790 N   0  0  0  0  0  0  0  0  0  0  0  0
   51.6190   84.5250   23.2990 C   0  0  0  0  0  0  0  0  0  0  0  0
   51.0990   83.7940   22.1010 C   0  0  0  0  0  0  0  0  0  0  0  0
   54.1580   86.3950   24.9460 O   0  0  0  0  0  0  0  0  0  0  0  0
   55.1670   86.4860   23.9920 C   0  0  0  0  0  0  0  0  0  0  0  0
   55.0960   85.9670   22.7940 C   0  0  0  0  0  0  0  0  0  0  0  0
   56.2610   86.1620   21.9150 C   0  0  0  0  0  0  0  0  0  0  0  0
   57.1870   86.3390   21.2240 N   0  0  0  0  0  0  0  0  0  0  0  0
   56.3840   87.2040   24.3420 N   0  0  0  0  0  0  0  0  0  0  0  0
   54.4990   82.2300   20.0780 C   0  0  0  0  0  0  0  0  0  0  0  0
   52.7690   87.6710   21.2320 H   0  0  0  0  0  0  0  0  0  0  0  0
   53.3610   83.9720   18.0420 H   0  0  0  0  0  0  0  0  0  0  0  0
   52.3910   86.0830   17.2570 H   0  0  0  0  0  0  0  0  0  0  0  0
   50.0760   84.3690   24.7150 H   0  0  0  0  0  0  0  0  0  0  0  0
   50.0780   83.4250   22.3840 H   0  0  0  0  0  0  0  0  0  0  0  0
   50.9240   84.4880   21.2430 H   0  0  0  0  0  0  0  0  0  0  0  0
   51.6890   82.9130   21.8490 H   0  0  0  0  0  0  0  0  0  0  0  0
   56.2500   88.2180   24.5310 H   0  0  0  0  0  0  0  0  0  0  0  0
   57.3000   86.7640   24.3990 H   0  0  0  0  0  0  0  0  0  0  0  0
   55.5900   82.0670   20.1850 H   0  0  0  0  0  0  0  0  0  0  0  0
   53.9970   81.4600   20.7090 H   0  0  0  0  0  0  0  0  0  0  0  0
   54.1410   82.1990   19.0490 H   0  0  0  0  0  0  0  0  0  0  0  0
  1  2  1  0  0  0  0
  2  3  1  0  0  0  0
  3  4  2  0  0  0  0
  3 25  1  0  0  0  0
  5  8  1  0  0  0  0
  5  4  1  0  0  0  0
  6  5  2  0  0  0  0
  7  6  1  0  0  0  0
  7  2  2  0  0  0  0
  8  9  1  0  0  0  0
  9 11  1  0  0  0  0
  9 10  2  0  0  0  0
 11  4  1  6  0  0  0
 11 20  1  0  0  0  0
 11 12  1  0  0  0  0
 12 13  1  0  0  0  0
 13 18  1  0  0  0  0
 13 14  2  0  0  0  0
 15 28  1  0  0  0  0
 15 14  1  0  0  0  0
 16 12  2  0  0  0  0
 16 15  1  0  0  0  0
 17 29  1  0  0  0  0
 17 16  1  0  0  0  0
 19 23  1  0  0  0  0
 19 18  1  0  0  0  0
 20 19  2  0  0  0  0
 21 20  1  0  0  0  0
 22 21  3  0  0  0  0
 23 33  1  0  0  0  0
 23 32  1  0  0  0  0
 24 34  1  0  0  0  0
 24 35  1  0  0  0  0
 24  8  1  0  0  0  0
 26  6  1  0  0  0  0
 27  7  1  0  0  0  0
 30 17  1  0  0  0  0
 31 17  1  0  0  0  0
 36 24  1  0  0  0  0
M  END
>  <Pose>
1

>  <Score>
-4.63

$$$$
