
 OpenBabel03202210083D

 55 58  0  0  1  0  0  0  0  0999 V2000
   51.6800   79.6920   24.6960 Cl  0  0  0  0  0  0  0  0  0  0  0  0
   52.7210   80.8060   25.5760 C   0  0  0  0  0  0  0  0  0  0  0  0
   52.2320   81.6630   26.5250 C   0  0  0  0  0  0  0  0  0  0  0  0
   53.0900   82.5140   27.1840 C   0  0  0  0  0  0  0  0  0  0  0  0
   54.4210   82.4720   26.8600 C   0  0  0  0  0  0  0  0  0  0  0  0
   54.9180   81.5960   25.8910 C   0  0  0  0  0  0  0  0  0  0  0  0
   54.0580   80.7570   25.2450 C   0  0  0  0  0  0  0  0  0  0  0  0
   55.1920   83.3920   27.6240 N   0  0  0  0  0  0  0  0  0  0  0  0
   54.2910   84.0450   28.4740 C   0  0  0  0  0  0  0  0  0  0  0  0
   54.6730   84.9310   29.3080 O   0  0  0  0  0  0  0  0  0  0  0  0
   52.9290   83.5480   28.2330 C   0  0  2  0  0  0  0  0  0  0  0  0
   52.4360   83.0000   29.4660 N   0  0  0  0  0  0  0  0  0  0  0  0
   51.3800   83.8300   29.9540 C   0  0  2  0  0  0  0  0  0  0  0  0
   51.4120   85.1010   29.1680 C   0  0  0  0  0  0  0  0  0  0  0  0
   52.0420   84.6610   27.8760 C   0  0  2  0  0  0  0  0  0  0  0  0
   51.0430   84.3930   26.8100 C   0  0  0  0  0  0  0  0  0  0  0  0
   49.8630   84.2070   27.1960 O   0  0  0  0  0  0  0  0  0  0  0  0
   51.3540   84.3410   25.4470 N   0  0  0  0  0  0  0  0  0  0  0  0
   52.4380   84.9050   24.7720 C   0  0  0  0  0  0  0  0  0  0  0  0
   52.5910   84.6660   23.4140 C   0  0  0  0  0  0  0  0  0  0  0  0
   53.6370   85.1920   22.6850 C   0  0  0  0  0  0  0  0  0  0  0  0
   54.5870   85.9860   23.2770 C   0  0  0  0  0  0  0  0  0  0  0  0
   54.4630   86.2390   24.6130 C   0  0  0  0  0  0  0  0  0  0  0  0
   53.4020   85.7020   25.3370 C   0  0  0  0  0  0  0  0  0  0  0  0
   55.3990   87.0360   25.2470 O   0  0  0  0  0  0  0  0  0  0  0  0
   55.4460   88.4420   25.0820 C   0  0  0  0  0  0  0  0  0  0  0  0
   51.6740   83.8740   22.7460 O   0  0  0  0  0  0  0  0  0  0  0  0
   51.2920   84.0690   21.4190 C   0  0  0  0  0  0  0  0  0  0  0  0
   51.5020   84.0790   31.4480 C   0  0  0  0  0  0  0  0  0  0  0  0
   51.2330   85.4820   31.7970 C   0  0  0  0  0  0  0  0  0  0  0  0
   52.1320   86.3330   31.7140 O   0  0  0  0  0  0  0  0  0  0  0  0
   49.9470   85.8600   32.2280 N   0  0  0  0  0  0  0  0  0  0  0  0
   51.1940   81.6650   26.7470 H   0  0  0  0  0  0  0  0  0  0  0  0
   55.9840   81.5770   25.6460 H   0  0  0  0  0  0  0  0  0  0  0  0
   54.4500   80.0770   24.4900 H   0  0  0  0  0  0  0  0  0  0  0  0
   56.2330   83.5540   27.5680 H   0  0  0  0  0  0  0  0  0  0  0  0
   52.1740   81.9980   29.3550 H   0  0  0  0  0  0  0  0  0  0  0  0
   50.3810   83.3530   29.7940 H   0  0  0  0  0  0  0  0  0  0  0  0
   52.0950   85.8640   29.6240 H   0  0  0  0  0  0  0  0  0  0  0  0
   50.4020   85.5390   29.0060 H   0  0  0  0  0  0  0  0  0  0  0  0
   52.7020   85.5070   27.4960 H   0  0  0  0  0  0  0  0  0  0  0  0
   50.6600   83.7840   24.8600 H   0  0  0  0  0  0  0  0  0  0  0  0
   53.7350   84.9860   21.6140 H   0  0  0  0  0  0  0  0  0  0  0  0
   55.4040   86.3970   22.7090 H   0  0  0  0  0  0  0  0  0  0  0  0
   53.3810   85.9480   26.3660 H   0  0  0  0  0  0  0  0  0  0  0  0
   54.4540   88.9110   25.2250 H   0  0  0  0  0  0  0  0  0  0  0  0
   55.8260   88.6260   24.0560 H   0  0  0  0  0  0  0  0  0  0  0  0
   56.1480   88.9160   25.7860 H   0  0  0  0  0  0  0  0  0  0  0  0
   52.1750   83.7880   20.7820 H   0  0  0  0  0  0  0  0  0  0  0  0
   50.4640   83.3710   21.1770 H   0  0  0  0  0  0  0  0  0  0  0  0
   51.0500   85.1110   21.1620 H   0  0  0  0  0  0  0  0  0  0  0  0
   52.5000   83.7450   31.8070 H   0  0  0  0  0  0  0  0  0  0  0  0
   50.7630   83.4570   31.9940 H   0  0  0  0  0  0  0  0  0  0  0  0
   49.8510   86.2890   33.1720 H   0  0  0  0  0  0  0  0  0  0  0  0
   49.0730   85.7390   31.6620 H   0  0  0  0  0  0  0  0  0  0  0  0
  1  2  1  0  0  0  0
  2  3  1  0  0  0  0
  3 33  1  0  0  0  0
  3  4  2  0  0  0  0
  5  4  1  0  0  0  0
  5  8  1  0  0  0  0
  6  5  2  0  0  0  0
  7  2  2  0  0  0  0
  7  6  1  0  0  0  0
  8  9  1  0  0  0  0
  9 10  2  0  0  0  0
 11  4  1  6  0  0  0
 11  9  1  0  0  0  0
 11 12  1  0  0  0  0
 12 13  1  0  0  0  0
 13 38  1  6  0  0  0
 13 29  1  0  0  0  0
 14 39  1  0  0  0  0
 14 13  1  0  0  0  0
 15 41  1  6  0  0  0
 15 11  1  0  0  0  0
 15 14  1  0  0  0  0
 16 17  2  0  0  0  0
 16 15  1  0  0  0  0
 18 16  1  0  0  0  0
 19 24  1  0  0  0  0
 19 18  1  0  0  0  0
 20 19  2  0  0  0  0
 21 22  2  0  0  0  0
 21 20  1  0  0  0  0
 22 23  1  0  0  0  0
 23 25  1  0  0  0  0
 23 24  2  0  0  0  0
 24 45  1  0  0  0  0
 26 46  1  0  0  0  0
 26 25  1  0  0  0  0
 26 48  1  0  0  0  0
 27 20  1  0  0  0  0
 28 27  1  0  0  0  0
 29 30  1  0  0  0  0
 29 52  1  0  0  0  0
 29 53  1  0  0  0  0
 30 32  1  0  0  0  0
 31 30  2  0  0  0  0
 32 54  1  0  0  0  0
 34  6  1  0  0  0  0
 35  7  1  0  0  0  0
 36  8  1  0  0  0  0
 37 12  1  0  0  0  0
 40 14  1  0  0  0  0
 42 18  1  0  0  0  0
 43 21  1  0  0  0  0
 44 22  1  0  0  0  0
 47 26  1  0  0  0  0
 49 28  1  0  0  0  0
 50 28  1  0  0  0  0
 51 28  1  0  0  0  0
 55 32  1  0  0  0  0
M  END
>  <Pose>
1

>  <Score>
-6.98

$$$$
