
 OpenBabel03202210083D

 32 35  0  0  0  0  0  0  0  0999 V2000
   51.2300   92.1310   18.3420 B   0  0  0  0  0  0  0  0  0  0  0  0
   52.9730   91.6560   18.9470 C   0  0  0  0  0  0  0  0  0  0  0  0
   53.4070   91.4640   20.2570 C   0  0  0  0  0  0  0  0  0  0  0  0
   54.7140   91.1370   20.2280 N   0  0  0  0  0  0  0  0  0  0  0  0
   55.1060   91.1210   18.9530 N   0  0  0  0  0  0  0  0  0  0  0  0
   54.0730   91.4310   18.1460 C   0  0  0  0  0  0  0  0  0  0  0  0
   54.0450   91.5320   16.6680 C   0  0  0  0  0  0  0  0  0  0  0  0
   55.5660   90.8510   21.3710 C   0  0  0  0  0  0  0  0  0  0  0  0
   55.6560   92.0150   22.2950 C   0  0  0  0  0  0  0  0  0  0  0  0
   56.6950   92.8400   22.5060 N   0  0  0  0  0  0  0  0  0  0  0  0
   56.3800   93.7710   23.4230 N   0  0  0  0  0  0  0  0  0  0  0  0
   55.1130   93.5330   23.8050 C   0  0  0  0  0  0  0  0  0  0  0  0
   54.6800   92.4620   23.1140 N   0  0  0  0  0  0  0  0  0  0  0  0
   54.5600   94.3710   24.7540 C   0  0  0  0  0  0  0  0  0  0  0  0
   55.2650   95.4240   25.3060 C   0  0  0  0  0  0  0  0  0  0  0  0
   54.4980   96.0820   26.2020 N   0  0  0  0  0  0  0  0  0  0  0  0
   53.3370   95.4540   26.2130 N   0  0  0  0  0  0  0  0  0  0  0  0
   53.3250   94.4170   25.3570 C   0  0  0  0  0  0  0  0  0  0  0  0
   54.9010   97.2480   26.9860 C   0  0  0  0  0  0  0  0  0  0  0  0
   56.5260   95.6020   24.8770 N   0  0  0  0  0  0  0  0  0  0  0  0
   57.0740   94.7940   23.9550 C   0  0  0  0  0  0  0  0  0  0  0  0
   52.7600   91.5700   21.1210 H   0  0  0  0  0  0  0  0  0  0  0  0
   54.3400   92.5370   16.2970 H   0  0  0  0  0  0  0  0  0  0  0  0
   53.0540   91.2980   16.2470 H   0  0  0  0  0  0  0  0  0  0  0  0
   54.8200   90.8070   16.2940 H   0  0  0  0  0  0  0  0  0  0  0  0
   56.5890   90.5220   21.0390 H   0  0  0  0  0  0  0  0  0  0  0  0
   55.1530   89.9460   21.9030 H   0  0  0  0  0  0  0  0  0  0  0  0
   52.5390   93.7170   25.1360 H   0  0  0  0  0  0  0  0  0  0  0  0
   54.0170   97.8450   27.2950 H   0  0  0  0  0  0  0  0  0  0  0  0
   55.5060   97.9510   26.3430 H   0  0  0  0  0  0  0  0  0  0  0  0
   55.4580   96.9790   27.8890 H   0  0  0  0  0  0  0  0  0  0  0  0
   58.0920   94.9210   23.5960 H   0  0  0  0  0  0  0  0  0  0  0  0
  1  2  1  0  0  0  0
  2  3  2  0  0  0  0
  3 22  1  0  0  0  0
  4  3  1  0  0  0  0
  4  8  1  0  0  0  0
  5  4  1  0  0  0  0
  6  2  1  0  0  0  0
  6  5  2  0  0  0  0
  7  6  1  0  0  0  0
  8 27  1  0  0  0  0
  8  9  1  0  0  0  0
  9 10  2  0  0  0  0
  9 13  1  0  0  0  0
 10 11  1  0  0  0  0
 11 12  1  0  0  0  0
 11 21  1  0  0  0  0
 12 14  1  0  0  0  0
 13 12  2  0  0  0  0
 14 15  2  0  0  0  0
 14 18  1  0  0  0  0
 15 16  1  0  0  0  0
 16 17  1  0  0  0  0
 16 19  1  0  0  0  0
 18 17  2  0  0  0  0
 19 29  1  0  0  0  0
 19 31  1  0  0  0  0
 20 15  1  0  0  0  0
 21 20  2  0  0  0  0
 23  7  1  0  0  0  0
 24  7  1  0  0  0  0
 25  7  1  0  0  0  0
 26  8  1  0  0  0  0
 28 18  1  0  0  0  0
 30 19  1  0  0  0  0
 32 21  1  0  0  0  0
M  END
>  <Pose>
1

>  <Score>
-6.39

$$$$
