
 OpenBabel03202210083D

 45 48  0  0  0  0  0  0  0  0999 V2000
   52.6740   86.1420   19.3220 B   0  0  0  0  0  0  0  0  0  0  0  0
   53.7660   86.4690   20.8570 C   0  0  0  0  0  0  0  0  0  0  0  0
   54.4730   87.6320   21.0390 C   0  0  0  0  0  0  0  0  0  0  0  0
   55.1320   87.5110   22.2350 C   0  0  0  0  0  0  0  0  0  0  0  0
   54.8390   86.2960   22.7860 N   0  0  0  0  0  0  0  0  0  0  0  0
   54.0000   85.6610   21.9340 C   0  0  0  0  0  0  0  0  0  0  0  0
   53.4360   84.3080   22.1460 C   0  0  0  0  0  0  0  0  0  0  0  0
   55.3810   85.8520   24.0230 C   0  0  0  0  0  0  0  0  0  0  0  0
   54.7170   86.1890   25.2670 C   0  0  0  0  0  0  0  0  0  0  0  0
   55.1850   87.3200   25.7830 O   0  0  0  0  0  0  0  0  0  0  0  0
   53.7180   85.5870   26.0160 N   0  0  0  0  0  0  0  0  0  0  0  0
   52.3300   85.5130   25.7270 C   0  0  0  0  0  0  0  0  0  0  0  0
   51.9570   84.0830   25.3350 C   0  0  0  0  0  0  0  0  0  0  0  0
   52.8380   83.1020   26.0890 C   0  0  0  0  0  0  0  0  0  0  0  0
   51.9990   81.9460   26.3530 N   0  0  0  0  0  0  0  0  0  0  0  0
   52.1500   81.0670   25.2190 C   0  0  0  0  0  0  0  0  0  0  0  0
   51.3730   80.1320   24.9010 O   0  0  0  0  0  0  0  0  0  0  0  0
   53.3490   81.4660   24.5280 N   0  0  0  0  0  0  0  0  0  0  0  0
   53.9150   82.5660   25.2310 C   0  0  0  0  0  0  0  0  0  0  0  0
   55.0970   82.9670   25.1150 O   0  0  0  0  0  0  0  0  0  0  0  0
   53.3210   83.6450   27.3960 C   0  0  0  0  0  0  0  0  0  0  0  0
   54.1000   84.9150   27.2810 C   0  0  0  0  0  0  0  0  0  0  0  0
   55.9370   88.5590   22.6820 C   0  0  0  0  0  0  0  0  0  0  0  0
   56.0750   89.7160   21.9250 C   0  0  0  0  0  0  0  0  0  0  0  0
   55.4100   89.8170   20.7350 C   0  0  0  0  0  0  0  0  0  0  0  0
   54.6140   88.7880   20.2870 C   0  0  0  0  0  0  0  0  0  0  0  0
   52.3790   84.2430   21.8040 H   0  0  0  0  0  0  0  0  0  0  0  0
   54.0220   83.5910   21.5230 H   0  0  0  0  0  0  0  0  0  0  0  0
   53.4870   84.0020   23.2190 H   0  0  0  0  0  0  0  0  0  0  0  0
   56.4650   86.2090   24.0680 H   0  0  0  0  0  0  0  0  0  0  0  0
   55.5300   84.7270   23.9360 H   0  0  0  0  0  0  0  0  0  0  0  0
   51.8870   86.2340   25.0650 H   0  0  0  0  0  0  0  0  0  0  0  0
   51.7910   85.6880   26.7230 H   0  0  0  0  0  0  0  0  0  0  0  0
   50.8840   83.9640   25.5920 H   0  0  0  0  0  0  0  0  0  0  0  0
   52.0560   83.9820   24.2540 H   0  0  0  0  0  0  0  0  0  0  0  0
   51.4030   81.7720   27.1890 H   0  0  0  0  0  0  0  0  0  0  0  0
   53.7260   81.0280   23.6760 H   0  0  0  0  0  0  0  0  0  0  0  0
   52.4340   83.7260   28.0690 H   0  0  0  0  0  0  0  0  0  0  0  0
   53.9750   82.8570   27.8510 H   0  0  0  0  0  0  0  0  0  0  0  0
   55.1780   84.8300   27.3930 H   0  0  0  0  0  0  0  0  0  0  0  0
   53.7140   85.6110   28.0830 H   0  0  0  0  0  0  0  0  0  0  0  0
   56.4480   88.4400   23.6290 H   0  0  0  0  0  0  0  0  0  0  0  0
   56.7130   90.5110   22.3080 H   0  0  0  0  0  0  0  0  0  0  0  0
   55.5170   90.7090   20.1530 H   0  0  0  0  0  0  0  0  0  0  0  0
   54.0780   88.8400   19.3550 H   0  0  0  0  0  0  0  0  0  0  0  0
  1  2  1  0  0  0  0
  2  3  1  0  0  0  0
  2  6  2  0  0  0  0
  3  4  1  0  0  0  0
  4 23  2  0  0  0  0
  4  5  1  0  0  0  0
  5  8  1  0  0  0  0
  6  7  1  0  0  0  0
  6  5  1  0  0  0  0
  7 29  1  0  0  0  0
  8 30  1  0  0  0  0
  8  9  1  0  0  0  0
  9 10  2  0  0  0  0
  9 11  1  0  0  0  0
 11 22  1  0  0  0  0
 12 11  1  0  0  0  0
 12 33  1  0  0  0  0
 13 34  1  0  0  0  0
 13 12  1  0  0  0  0
 13 14  1  0  0  0  0
 14 15  1  0  0  0  0
 14 21  1  0  0  0  0
 15 36  1  0  0  0  0
 16 15  1  0  0  0  0
 17 16  2  0  0  0  0
 18 16  1  0  0  0  0
 18 19  1  0  0  0  0
 19 14  1  0  0  0  0
 20 19  2  0  0  0  0
 21 39  1  0  0  0  0
 21 38  1  0  0  0  0
 22 40  1  0  0  0  0
 22 21  1  0  0  0  0
 22 41  1  0  0  0  0
 23 42  1  0  0  0  0
 24 43  1  0  0  0  0
 24 23  1  0  0  0  0
 25 24  2  0  0  0  0
 26 25  1  0  0  0  0
 26  3  2  0  0  0  0
 27  7  1  0  0  0  0
 28  7  1  0  0  0  0
 31  8  1  0  0  0  0
 32 12  1  0  0  0  0
 35 13  1  0  0  0  0
 37 18  1  0  0  0  0
 44 25  1  0  0  0  0
 45 26  1  0  0  0  0
M  END
>  <Pose>
1

>  <Score>
-4.89

$$$$
