
 OpenBabel03202210083D

 46 49  0  0  0  0  0  0  0  0999 V2000
   58.0880   97.0330   24.6300 B   0  0  0  0  0  0  0  0  0  0  0  0
   56.3650   96.7220   25.3920 C   0  0  0  0  0  0  0  0  0  0  0  0
   55.6580   95.5840   25.1880 N   0  0  0  0  0  0  0  0  0  0  0  0
   54.5150   95.7560   25.8890 C   0  0  0  0  0  0  0  0  0  0  0  0
   54.5050   96.9820   26.5220 C   0  0  0  0  0  0  0  0  0  0  0  0
   55.6810   97.5630   26.1900 N   0  0  0  0  0  0  0  0  0  0  0  0
   53.4710   97.3970   27.2880 N   0  0  0  0  0  0  0  0  0  0  0  0
   52.4210   96.5690   27.4260 C   0  0  0  0  0  0  0  0  0  0  0  0
   51.4220   96.8870   28.1250 O   0  0  0  0  0  0  0  0  0  0  0  0
   52.3950   95.3520   26.8170 N   0  0  0  0  0  0  0  0  0  0  0  0
   53.4150   94.9320   26.0540 C   0  0  0  0  0  0  0  0  0  0  0  0
   53.4390   93.8240   25.4740 O   0  0  0  0  0  0  0  0  0  0  0  0
   53.4780   98.6900   27.9480 C   0  0  0  0  0  0  0  0  0  0  0  0
   56.0140   94.4250   24.4040 C   0  0  0  0  0  0  0  0  0  0  0  0
   55.3280   94.4420   23.0450 C   0  0  0  0  0  0  0  0  0  0  0  0
   55.4160   93.0950   22.3780 C   0  0  0  0  0  0  0  0  0  0  0  0
   54.9070   91.9500   23.2020 C   0  0  0  0  0  0  0  0  0  0  0  0
   55.4020   90.7130   22.6990 N   0  0  0  0  0  0  0  0  0  0  0  0
   55.9520   89.6740   23.3260 C   0  0  0  0  0  0  0  0  0  0  0  0
   56.2350   88.6860   22.3910 C   0  0  0  0  0  0  0  0  0  0  0  0
   55.8410   89.1740   21.2190 N   0  0  0  0  0  0  0  0  0  0  0  0
   55.3350   90.3980   21.3810 C   0  0  0  0  0  0  0  0  0  0  0  0
   54.6500   91.4710   19.9610 B   0  0  0  0  0  0  0  0  0  0  0  0
   56.8000   87.5330   22.7630 N   0  0  0  0  0  0  0  0  0  0  0  0
   57.1110   87.2990   24.0520 C   0  0  0  0  0  0  0  0  0  0  0  0
   57.6420   86.2120   24.3940 O   0  0  0  0  0  0  0  0  0  0  0  0
   56.8450   88.2410   24.9620 N   0  0  0  0  0  0  0  0  0  0  0  0
   56.2790   89.4110   24.6310 C   0  0  0  0  0  0  0  0  0  0  0  0
   56.0400   90.2800   25.4930 O   0  0  0  0  0  0  0  0  0  0  0  0
   57.1080   86.4790   21.8020 C   0  0  0  0  0  0  0  0  0  0  0  0
   51.5590   94.7350   26.9480 H   0  0  0  0  0  0  0  0  0  0  0  0
   54.5080   99.0880   28.0580 H   0  0  0  0  0  0  0  0  0  0  0  0
   52.9310   99.4410   27.3100 H   0  0  0  0  0  0  0  0  0  0  0  0
   53.0490   98.6510   28.9710 H   0  0  0  0  0  0  0  0  0  0  0  0
   55.8420   93.4960   24.9430 H   0  0  0  0  0  0  0  0  0  0  0  0
   57.1090   94.5140   24.1890 H   0  0  0  0  0  0  0  0  0  0  0  0
   54.2210   94.6230   23.1850 H   0  0  0  0  0  0  0  0  0  0  0  0
   55.7160   95.2310   22.3910 H   0  0  0  0  0  0  0  0  0  0  0  0
   54.9350   93.1450   21.3760 H   0  0  0  0  0  0  0  0  0  0  0  0
   56.4900   92.8320   22.1400 H   0  0  0  0  0  0  0  0  0  0  0  0
   55.2460   92.1410   24.2510 H   0  0  0  0  0  0  0  0  0  0  0  0
   53.8020   92.0110   23.2390 H   0  0  0  0  0  0  0  0  0  0  0  0
   57.0740   88.0970   25.9870 H   0  0  0  0  0  0  0  0  0  0  0  0
   56.6360   86.7620   20.8360 H   0  0  0  0  0  0  0  0  0  0  0  0
   56.6260   85.5560   22.1970 H   0  0  0  0  0  0  0  0  0  0  0  0
   58.1950   86.3320   21.6900 H   0  0  0  0  0  0  0  0  0  0  0  0
  1  2  1  0  0  0  0
  2  6  2  0  0  0  0
  3  2  1  0  0  0  0
  3  4  1  0  0  0  0
  4 11  1  0  0  0  0
  4  5  2  0  0  0  0
  5  7  1  0  0  0  0
  6  5  1  0  0  0  0
  7  8  1  0  0  0  0
  7 13  1  0  0  0  0
  8  9  2  0  0  0  0
 10 31  1  0  0  0  0
 10  8  1  0  0  0  0
 11 10  1  0  0  0  0
 12 11  2  0  0  0  0
 13 32  1  0  0  0  0
 13 34  1  0  0  0  0
 14 35  1  0  0  0  0
 14  3  1  0  0  0  0
 15 37  1  0  0  0  0
 15 14  1  0  0  0  0
 16 15  1  0  0  0  0
 16 17  1  0  0  0  0
 17 42  1  0  0  0  0
 17 41  1  0  0  0  0
 18 17  1  0  0  0  0
 18 19  1  0  0  0  0
 19 28  1  0  0  0  0
 20 24  1  0  0  0  0
 20 19  2  0  0  0  0
 21 22  2  0  0  0  0
 21 20  1  0  0  0  0
 22 18  1  0  0  0  0
 23 22  1  0  0  0  0
 24 25  1  0  0  0  0
 25 26  2  0  0  0  0
 25 27  1  0  0  0  0
 27 43  1  0  0  0  0
 28 27  1  0  0  0  0
 28 29  2  0  0  0  0
 30 45  1  0  0  0  0
 30 24  1  0  0  0  0
 33 13  1  0  0  0  0
 36 14  1  0  0  0  0
 38 15  1  0  0  0  0
 39 16  1  0  0  0  0
 40 16  1  0  0  0  0
 44 30  1  0  0  0  0
 46 30  1  0  0  0  0
M  END
>  <Pose>
1

>  <Score>
-7.83

$$$$
