
 OpenBabel03202210083D

 47 50  0  0  0  0  0  0  0  0999 V2000
   58.0410   97.8430   25.1280 B   0  0  0  0  0  0  0  0  0  0  0  0
   56.3200   97.2220   25.6830 C   0  0  0  0  0  0  0  0  0  0  0  0
   55.8270   95.9910   25.5620 N   0  0  0  0  0  0  0  0  0  0  0  0
   54.5960   96.0240   26.1440 C   0  0  0  0  0  0  0  0  0  0  0  0
   54.3860   97.3060   26.6030 C   0  0  0  0  0  0  0  0  0  0  0  0
   55.4500   98.0430   26.3170 N   0  0  0  0  0  0  0  0  0  0  0  0
   53.2150   97.5970   27.2360 N   0  0  0  0  0  0  0  0  0  0  0  0
   52.3100   96.6330   27.3930 C   0  0  0  0  0  0  0  0  0  0  0  0
   51.2320   96.9330   27.9840 O   0  0  0  0  0  0  0  0  0  0  0  0
   52.5050   95.3810   26.9500 N   0  0  0  0  0  0  0  0  0  0  0  0
   53.6550   95.0270   26.3090 C   0  0  0  0  0  0  0  0  0  0  0  0
   53.8300   93.8520   25.9000 O   0  0  0  0  0  0  0  0  0  0  0  0
   52.9550   98.9320   27.7330 C   0  0  0  0  0  0  0  0  0  0  0  0
   56.3600   94.8200   24.9520 C   0  0  0  0  0  0  0  0  0  0  0  0
   55.4240   93.8500   24.3580 C   0  0  0  0  0  0  0  0  0  0  0  0
   55.4970   93.4720   23.0580 O   0  0  0  0  0  0  0  0  0  0  0  0
   55.0290   92.1810   22.8780 C   0  0  0  0  0  0  0  0  0  0  0  0
   56.1950   91.2390   22.8260 C   0  0  0  0  0  0  0  0  0  0  0  0
   55.7810   89.8770   22.7110 N   0  0  0  0  0  0  0  0  0  0  0  0
   55.5090   89.0510   23.7310 C   0  0  0  0  0  0  0  0  0  0  0  0
   55.1580   87.8460   23.2070 C   0  0  0  0  0  0  0  0  0  0  0  0
   55.2260   87.9660   21.8840 N   0  0  0  0  0  0  0  0  0  0  0  0
   55.6080   89.2070   21.5390 C   0  0  0  0  0  0  0  0  0  0  0  0
   55.8730   89.9540   19.8130 B   0  0  0  0  0  0  0  0  0  0  0  0
   54.8300   86.8280   24.0200 N   0  0  0  0  0  0  0  0  0  0  0  0
   54.8520   87.0180   25.3370 C   0  0  0  0  0  0  0  0  0  0  0  0
   54.5410   86.0550   26.0880 O   0  0  0  0  0  0  0  0  0  0  0  0
   55.1900   88.1860   25.8680 N   0  0  0  0  0  0  0  0  0  0  0  0
   55.5250   89.2260   25.1000 C   0  0  0  0  0  0  0  0  0  0  0  0
   55.8430   90.3300   25.6490 O   0  0  0  0  0  0  0  0  0  0  0  0
   54.4540   85.5370   23.4810 C   0  0  0  0  0  0  0  0  0  0  0  0
   51.7870   94.6360   27.0800 H   0  0  0  0  0  0  0  0  0  0  0  0
   53.8930   99.3820   28.1320 H   0  0  0  0  0  0  0  0  0  0  0  0
   52.2180   98.9250   28.5430 H   0  0  0  0  0  0  0  0  0  0  0  0
   52.5430   99.5810   26.9180 H   0  0  0  0  0  0  0  0  0  0  0  0
   57.0230   95.1960   24.1100 H   0  0  0  0  0  0  0  0  0  0  0  0
   57.1280   94.3130   25.6220 H   0  0  0  0  0  0  0  0  0  0  0  0
   55.4600   92.8580   24.9490 H   0  0  0  0  0  0  0  0  0  0  0  0
   54.3420   94.1590   24.6170 H   0  0  0  0  0  0  0  0  0  0  0  0
   54.5130   92.1490   21.8610 H   0  0  0  0  0  0  0  0  0  0  0  0
   54.2640   91.9650   23.6050 H   0  0  0  0  0  0  0  0  0  0  0  0
   56.8330   91.5650   21.9590 H   0  0  0  0  0  0  0  0  0  0  0  0
   56.7830   91.4210   23.7590 H   0  0  0  0  0  0  0  0  0  0  0  0
   55.2020   88.3160   26.9030 H   0  0  0  0  0  0  0  0  0  0  0  0
   53.3590   85.5130   23.3740 H   0  0  0  0  0  0  0  0  0  0  0  0
   54.9470   85.3770   22.5060 H   0  0  0  0  0  0  0  0  0  0  0  0
   54.8320   84.7750   24.2160 H   0  0  0  0  0  0  0  0  0  0  0  0
  1  2  1  0  0  0  0
  2  6  2  0  0  0  0
  3  2  1  0  0  0  0
  3  4  1  0  0  0  0
  4 11  1  0  0  0  0
  4  5  2  0  0  0  0
  5  7  1  0  0  0  0
  6  5  1  0  0  0  0
  7  8  1  0  0  0  0
  7 13  1  0  0  0  0
  8  9  2  0  0  0  0
 10 32  1  0  0  0  0
 10  8  1  0  0  0  0
 11 10  1  0  0  0  0
 12 11  2  0  0  0  0
 13 33  1  0  0  0  0
 13 34  1  0  0  0  0
 14  3  1  0  0  0  0
 14 37  1  0  0  0  0
 15 39  1  0  0  0  0
 15 38  1  0  0  0  0
 15 14  1  0  0  0  0
 16 15  1  0  0  0  0
 17 16  1  0  0  0  0
 17 41  1  0  0  0  0
 18 17  1  0  0  0  0
 18 43  1  0  0  0  0
 19 18  1  0  0  0  0
 19 20  1  0  0  0  0
 20 29  1  0  0  0  0
 21 20  2  0  0  0  0
 21 25  1  0  0  0  0
 22 21  1  0  0  0  0
 23 22  2  0  0  0  0
 23 19  1  0  0  0  0
 24 23  1  0  0  0  0
 25 26  1  0  0  0  0
 26 28  1  0  0  0  0
 26 27  2  0  0  0  0
 28 44  1  0  0  0  0
 29 30  2  0  0  0  0
 29 28  1  0  0  0  0
 31 25  1  0  0  0  0
 31 47  1  0  0  0  0
 35 13  1  0  0  0  0
 36 14  1  0  0  0  0
 40 17  1  0  0  0  0
 42 18  1  0  0  0  0
 45 31  1  0  0  0  0
 46 31  1  0  0  0  0
M  END
>  <Pose>
1

>  <Score>
-9.20

$$$$
