
 OpenBabel03202210083D

 51 54  0  0  0  0  0  0  0  0999 V2000
   55.7840   89.1290   25.5510 Cl  0  0  0  0  0  0  0  0  0  0  0  0
   55.2960   87.9420   24.3640 C   0  0  0  0  0  0  0  0  0  0  0  0
   55.5790   88.1450   23.0450 C   0  0  0  0  0  0  0  0  0  0  0  0
   55.1710   87.1780   22.1540 C   0  0  0  0  0  0  0  0  0  0  0  0
   54.5060   86.0480   22.5540 C   0  0  0  0  0  0  0  0  0  0  0  0
   54.2240   85.8530   23.8890 C   0  0  0  0  0  0  0  0  0  0  0  0
   54.6290   86.8150   24.7860 C   0  0  0  0  0  0  0  0  0  0  0  0
   56.2900   89.3300   22.5310 C   0  0  0  0  0  0  0  0  0  0  0  0
   55.5170   90.1490   21.6630 N   0  0  0  0  0  0  0  0  0  0  0  0
   55.0800   89.8260   20.4520 N   0  0  0  0  0  0  0  0  0  0  0  0
   54.3930   90.8170   19.9090 C   0  0  0  0  0  0  0  0  0  0  0  0
   54.3940   91.8540   20.8530 C   0  0  0  0  0  0  0  0  0  0  0  0
   55.1050   91.4200   21.9490 C   0  0  0  0  0  0  0  0  0  0  0  0
   55.3060   92.1130   23.1370 N   0  0  0  0  0  0  0  0  0  0  0  0
   56.1730   93.0260   23.6450 C   0  0  0  0  0  0  0  0  0  0  0  0
   57.4030   92.7970   23.0730 O   0  0  0  0  0  0  0  0  0  0  0  0
   56.2580   94.1490   24.5650 C   0  0  0  0  0  0  0  0  0  0  0  0
   55.1830   94.8170   25.1620 N   0  0  0  0  0  0  0  0  0  0  0  0
   53.7660   94.5620   24.7880 C   0  0  0  0  0  0  0  0  0  0  0  0
   52.9990   95.7180   25.3940 C   0  0  0  0  0  0  0  0  0  0  0  0
   53.1150   95.6400   26.8930 C   0  0  0  0  0  0  0  0  0  0  0  0
   54.5410   95.9390   27.3020 C   0  0  0  0  0  0  0  0  0  0  0  0
   55.4380   95.8610   26.1130 C   0  0  0  0  0  0  0  0  0  0  0  0
   56.3700   96.7950   25.9100 C   0  0  0  0  0  0  0  0  0  0  0  0
   56.6190   97.8250   26.8810 N   0  0  0  0  0  0  0  0  0  0  0  0
   57.5980   98.7050   26.3860 N   0  0  0  0  0  0  0  0  0  0  0  0
   57.9840   98.2530   25.1070 C   0  0  0  0  0  0  0  0  0  0  0  0
   58.8240   98.7330   24.3120 O   0  0  0  0  0  0  0  0  0  0  0  0
   57.2090   97.0710   24.8350 N   0  0  0  0  0  0  0  0  0  0  0  0
   55.3740   87.3000   21.1020 H   0  0  0  0  0  0  0  0  0  0  0  0
   54.1960   85.3060   21.8340 H   0  0  0  0  0  0  0  0  0  0  0  0
   53.6980   84.9580   24.2000 H   0  0  0  0  0  0  0  0  0  0  0  0
   54.4090   86.6610   25.8280 H   0  0  0  0  0  0  0  0  0  0  0  0
   57.2850   89.0220   22.1180 H   0  0  0  0  0  0  0  0  0  0  0  0
   56.5660   89.9370   23.4460 H   0  0  0  0  0  0  0  0  0  0  0  0
   53.9010   90.8890   18.9410 H   0  0  0  0  0  0  0  0  0  0  0  0
   53.9030   92.7930   20.7030 H   0  0  0  0  0  0  0  0  0  0  0  0
   54.4590   91.9000   23.8450 H   0  0  0  0  0  0  0  0  0  0  0  0
   56.9080   93.6720   25.4140 H   0  0  0  0  0  0  0  0  0  0  0  0
   56.9700   94.9550   24.1130 H   0  0  0  0  0  0  0  0  0  0  0  0
   53.6600   94.7090   23.6860 H   0  0  0  0  0  0  0  0  0  0  0  0
   53.3620   93.6450   25.1580 H   0  0  0  0  0  0  0  0  0  0  0  0
   51.9100   95.6320   25.1050 H   0  0  0  0  0  0  0  0  0  0  0  0
   53.3670   96.6980   25.0280 H   0  0  0  0  0  0  0  0  0  0  0  0
   52.4230   96.3790   27.3710 H   0  0  0  0  0  0  0  0  0  0  0  0
   52.8040   94.6340   27.2130 H   0  0  0  0  0  0  0  0  0  0  0  0
   54.6050   96.9250   27.8180 H   0  0  0  0  0  0  0  0  0  0  0  0
   54.8670   95.1990   28.0380 H   0  0  0  0  0  0  0  0  0  0  0  0
   56.2140   97.9960   27.8220 H   0  0  0  0  0  0  0  0  0  0  0  0
   57.9970   99.5560   26.8550 H   0  0  0  0  0  0  0  0  0  0  0  0
   57.2640   96.5360   23.9540 H   0  0  0  0  0  0  0  0  0  0  0  0
  2  7  1  0  0  0  0
  2  1  1  0  0  0  0
  3  2  2  0  0  0  0
  4  5  2  0  0  0  0
  4  3  1  0  0  0  0
  5  6  1  0  0  0  0
  6 32  1  0  0  0  0
  6  7  2  0  0  0  0
  7 33  1  0  0  0  0
  8  3  1  0  0  0  0
  8 35  1  0  0  0  0
  9 13  1  0  0  0  0
  9  8  1  0  0  0  0
 10  9  1  0  0  0  0
 11 10  2  0  0  0  0
 11 12  1  0  0  0  0
 12 13  2  0  0  0  0
 13 14  1  0  0  0  0
 14 15  1  0  0  0  0
 14 38  1  0  0  0  0
 15 17  1  0  0  0  0
 16 15  2  0  0  0  0
 17 18  1  0  0  0  0
 17 39  1  0  0  0  0
 18 23  1  0  0  0  0
 19 42  1  0  0  0  0
 19 18  1  0  0  0  0
 19 20  1  0  0  0  0
 20 21  1  0  0  0  0
 21 46  1  0  0  0  0
 21 22  1  0  0  0  0
 21 45  1  0  0  0  0
 22 47  1  0  0  0  0
 22 48  1  0  0  0  0
 23 22  1  0  0  0  0
 24 23  2  0  0  0  0
 24 25  1  0  0  0  0
 25 49  1  0  0  0  0
 26 50  1  0  0  0  0
 26 25  1  0  0  0  0
 27 26  1  0  0  0  0
 28 27  2  0  0  0  0
 29 27  1  0  0  0  0
 29 24  1  0  0  0  0
 30  4  1  0  0  0  0
 31  5  1  0  0  0  0
 34  8  1  0  0  0  0
 36 11  1  0  0  0  0
 37 12  1  0  0  0  0
 40 17  1  0  0  0  0
 41 19  1  0  0  0  0
 43 20  1  0  0  0  0
 44 20  1  0  0  0  0
 51 29  1  0  0  0  0
M  END
>  <Pose>
1

>  <Score>
-7.66

$$$$
