
 OpenBabel03202210083D

 50 53  0  0  0  0  0  0  0  0999 V2000
   52.9010   96.4120   27.3440 B   0  0  0  0  0  0  0  0  0  0  0  0
   54.3950   96.0290   26.2440 C   0  0  0  0  0  0  0  0  0  0  0  0
   55.3970   96.9440   26.1100 C   0  0  0  0  0  0  0  0  0  0  0  0
   56.4810   96.6340   25.2940 C   0  0  0  0  0  0  0  0  0  0  0  0
   56.5190   95.4080   24.6370 C   0  0  0  0  0  0  0  0  0  0  0  0
   55.5180   94.4830   24.7660 C   0  0  0  0  0  0  0  0  0  0  0  0
   54.4510   94.8040   25.5770 C   0  0  0  0  0  0  0  0  0  0  0  0
   53.4430   93.8610   25.7000 O   0  0  0  0  0  0  0  0  0  0  0  0
   55.5760   93.2070   24.0710 C   0  0  0  0  0  0  0  0  0  0  0  0
   55.4990   93.0880   22.7930 N   0  0  0  0  0  0  0  0  0  0  0  0
   55.5690   91.7790   22.2060 N   0  0  0  0  0  0  0  0  0  0  0  0
   55.4870   90.6940   23.0680 C   0  0  0  0  0  0  0  0  0  0  0  0
   55.6970   90.9320   24.3160 O   0  0  0  0  0  0  0  0  0  0  0  0
   55.1960   89.3060   22.7620 C   0  0  0  0  0  0  0  0  0  0  0  0
   55.1170   88.2920   23.6850 N   0  0  0  0  0  0  0  0  0  0  0  0
   54.8350   87.1740   23.0760 N   0  0  0  0  0  0  0  0  0  0  0  0
   54.7140   87.3510   21.7720 N   0  0  0  0  0  0  0  0  0  0  0  0
   54.9300   88.6590   21.5510 C   0  0  0  0  0  0  0  0  0  0  0  0
   54.9380   89.3430   20.2550 C   0  0  0  0  0  0  0  0  0  0  0  0
   53.8010   90.2420   20.0390 N   0  0  0  0  0  0  0  0  0  0  0  0
   52.8530   89.5850   19.1190 C   0  0  0  0  0  0  0  0  0  0  0  0
   53.5900   89.0200   17.9550 C   0  0  0  0  0  0  0  0  0  0  0  0
   54.3490   90.0020   17.3670 O   0  0  0  0  0  0  0  0  0  0  0  0
   54.1020   91.2660   17.8370 C   0  0  0  0  0  0  0  0  0  0  0  0
   54.2950   91.4410   19.3210 C   0  0  0  0  0  0  0  0  0  0  0  0
   54.4420   86.3090   20.8520 C   0  0  0  0  0  0  0  0  0  0  0  0
   55.2530   85.3260   20.4060 N   0  0  0  0  0  0  0  0  0  0  0  0
   54.6040   84.5610   19.5680 O   0  0  0  0  0  0  0  0  0  0  0  0
   53.3740   84.9860   19.4240 N   0  0  0  0  0  0  0  0  0  0  0  0
   53.2390   86.0690   20.2060 C   0  0  0  0  0  0  0  0  0  0  0  0
   52.0480   86.8170   20.3270 N   0  0  0  0  0  0  0  0  0  0  0  0
   57.8910   97.8840   25.0870 B   0  0  0  0  0  0  0  0  0  0  0  0
   55.3790   98.1720   26.7560 O   0  0  0  0  0  0  0  0  0  0  0  0
   57.3540   95.1700   24.0100 H   0  0  0  0  0  0  0  0  0  0  0  0
   53.6210   92.8910   25.4670 H   0  0  0  0  0  0  0  0  0  0  0  0
   55.6900   92.2910   24.6450 H   0  0  0  0  0  0  0  0  0  0  0  0
   55.6800   91.7570   21.1650 H   0  0  0  0  0  0  0  0  0  0  0  0
   54.9340   88.6380   19.4210 H   0  0  0  0  0  0  0  0  0  0  0  0
   55.8230   89.9910   20.1860 H   0  0  0  0  0  0  0  0  0  0  0  0
   52.2440   88.8370   19.6500 H   0  0  0  0  0  0  0  0  0  0  0  0
   52.1740   90.3830   18.7660 H   0  0  0  0  0  0  0  0  0  0  0  0
   54.2360   88.1640   18.2130 H   0  0  0  0  0  0  0  0  0  0  0  0
   52.8290   88.7060   17.1810 H   0  0  0  0  0  0  0  0  0  0  0  0
   54.8740   91.9340   17.3470 H   0  0  0  0  0  0  0  0  0  0  0  0
   53.1160   91.6350   17.4850 H   0  0  0  0  0  0  0  0  0  0  0  0
   53.6580   92.2820   19.6240 H   0  0  0  0  0  0  0  0  0  0  0  0
   55.3410   91.6460   19.5250 H   0  0  0  0  0  0  0  0  0  0  0  0
   51.2940   86.6750   19.6310 H   0  0  0  0  0  0  0  0  0  0  0  0
   51.8950   87.5050   21.0870 H   0  0  0  0  0  0  0  0  0  0  0  0
   55.0450   99.0000   26.2890 H   0  0  0  0  0  0  0  0  0  0  0  0
  2  1  1  0  0  0  0
  3  2  1  0  0  0  0
  3 33  1  0  0  0  0
  4  3  2  0  0  0  0
  5  6  2  0  0  0  0
  5  4  1  0  0  0  0
  6  7  1  0  0  0  0
  7  8  1  0  0  0  0
  7  2  2  0  0  0  0
  9 36  1  0  0  0  0
  9  6  1  0  0  0  0
 10  9  2  0  0  0  0
 11 10  1  0  0  0  0
 11 12  1  0  0  0  0
 12 13  2  0  0  0  0
 14 12  1  0  0  0  0
 14 15  1  0  0  0  0
 16 15  2  0  0  0  0
 17 16  1  0  0  0  0
 18 17  1  0  0  0  0
 18 14  2  0  0  0  0
 19 18  1  0  0  0  0
 20 19  1  0  0  0  0
 21 40  1  0  0  0  0
 21 20  1  0  0  0  0
 22 42  1  0  0  0  0
 22 21  1  0  0  0  0
 23 24  1  0  0  0  0
 23 22  1  0  0  0  0
 24 25  1  0  0  0  0
 25 47  1  0  0  0  0
 25 46  1  0  0  0  0
 25 20  1  0  0  0  0
 26 17  1  0  0  0  0
 27 26  2  0  0  0  0
 28 27  1  0  0  0  0
 29 28  1  0  0  0  0
 29 30  2  0  0  0  0
 30 31  1  0  0  0  0
 30 26  1  0  0  0  0
 31 49  1  0  0  0  0
 32  4  1  0  0  0  0
 34  5  1  0  0  0  0
 35  8  1  0  0  0  0
 37 11  1  0  0  0  0
 38 19  1  0  0  0  0
 39 19  1  0  0  0  0
 41 21  1  0  0  0  0
 43 22  1  0  0  0  0
 44 24  1  0  0  0  0
 45 24  1  0  0  0  0
 48 31  1  0  0  0  0
 50 33  1  0  0  0  0
M  END
>  <Pose>
1

>  <Score>
-9.42

$$$$
