
 OpenBabel03202210083D

 41 44  0  0  0  0  0  0  0  0999 V2000
   47.6380  100.8000   28.7280 B   0  0  0  0  0  0  0  0  0  0  0  0
   49.4520  100.4970   28.2140 C   0  0  0  0  0  0  0  0  0  0  0  0
   50.0150  101.3230   27.2660 C   0  0  0  0  0  0  0  0  0  0  0  0
   51.2980  101.1340   26.8800 N   0  0  0  0  0  0  0  0  0  0  0  0
   51.9970  100.1300   27.4420 C   0  0  0  0  0  0  0  0  0  0  0  0
   51.5000   99.2760   28.3850 C   0  0  0  0  0  0  0  0  0  0  0  0
   50.1920   99.4610   28.7860 C   0  0  0  0  0  0  0  0  0  0  0  0
   52.3450   98.2230   28.9280 C   0  0  0  0  0  0  0  0  0  0  0  0
   52.5640   98.2280   30.1840 O   0  0  0  0  0  0  0  0  0  0  0  0
   52.9220   97.2090   28.1170 N   0  0  0  0  0  0  0  0  0  0  0  0
   53.9840   97.5900   27.1990 C   0  0  0  0  0  0  0  0  0  0  0  0
   55.0150   96.4880   27.0850 C   0  0  0  0  0  0  0  0  0  0  0  0
   54.4800   95.5320   26.1090 N   0  0  0  0  0  0  0  0  0  0  0  0
   53.2300   95.1290   25.9590 N   0  0  0  0  0  0  0  0  0  0  0  0
   53.1400   94.2550   24.9650 N   0  0  0  0  0  0  0  0  0  0  0  0
   54.3560   94.0640   24.4310 C   0  0  0  0  0  0  0  0  0  0  0  0
   55.1970   94.8740   25.1590 C   0  0  0  0  0  0  0  0  0  0  0  0
   54.7140   93.1930   23.3260 C   0  0  0  0  0  0  0  0  0  0  0  0
   53.9250   92.8080   22.3070 N   0  0  0  0  0  0  0  0  0  0  0  0
   54.6190   92.0020   21.4870 C   0  0  0  0  0  0  0  0  0  0  0  0
   55.8450   91.9050   22.0260 N   0  0  0  0  0  0  0  0  0  0  0  0
   55.8670   92.6190   23.1090 O   0  0  0  0  0  0  0  0  0  0  0  0
   54.1350   91.3550   20.2490 C   0  0  0  0  0  0  0  0  0  0  0  0
   52.9280   91.7330   19.7070 C   0  0  0  0  0  0  0  0  0  0  0  0
   52.4770   91.1510   18.5790 N   0  0  0  0  0  0  0  0  0  0  0  0
   53.1590   90.1880   17.9260 C   0  0  0  0  0  0  0  0  0  0  0  0
   54.3700   89.8170   18.4780 C   0  0  0  0  0  0  0  0  0  0  0  0
   54.8660   90.3830   19.6230 C   0  0  0  0  0  0  0  0  0  0  0  0
   49.4500  102.1450   26.8030 H   0  0  0  0  0  0  0  0  0  0  0  0
   53.0290  100.0210   27.0950 H   0  0  0  0  0  0  0  0  0  0  0  0
   49.7390   98.8210   29.5270 H   0  0  0  0  0  0  0  0  0  0  0  0
   52.5900   96.2270   28.1840 H   0  0  0  0  0  0  0  0  0  0  0  0
   53.5140   97.6900   26.1840 H   0  0  0  0  0  0  0  0  0  0  0  0
   54.4240   98.5560   27.5100 H   0  0  0  0  0  0  0  0  0  0  0  0
   55.9520   96.9380   26.7200 H   0  0  0  0  0  0  0  0  0  0  0  0
   55.1500   95.9340   28.0260 H   0  0  0  0  0  0  0  0  0  0  0  0
   56.2550   94.9810   25.0120 H   0  0  0  0  0  0  0  0  0  0  0  0
   52.3450   92.5170   20.2160 H   0  0  0  0  0  0  0  0  0  0  0  0
   52.7780   89.7290   17.0150 H   0  0  0  0  0  0  0  0  0  0  0  0
   54.9460   89.0430   17.9760 H   0  0  0  0  0  0  0  0  0  0  0  0
   55.8210   90.0920   20.0620 H   0  0  0  0  0  0  0  0  0  0  0  0
  2  1  1  0  0  0  0
  2  7  1  0  0  0  0
  3  2  2  0  0  0  0
  4  3  1  0  0  0  0
  4  5  2  0  0  0  0
  5  6  1  0  0  0  0
  6  7  2  0  0  0  0
  6  8  1  0  0  0  0
  7 31  1  0  0  0  0
  8  9  2  0  0  0  0
 10 32  1  0  0  0  0
 10  8  1  0  0  0  0
 11 34  1  0  0  0  0
 11 10  1  0  0  0  0
 12 11  1  0  0  0  0
 12 36  1  0  0  0  0
 13 12  1  0  0  0  0
 14 13  1  0  0  0  0
 15 14  2  0  0  0  0
 16 15  1  0  0  0  0
 16 17  2  0  0  0  0
 17 13  1  0  0  0  0
 18 16  1  0  0  0  0
 19 18  2  0  0  0  0
 20 21  2  0  0  0  0
 20 19  1  0  0  0  0
 21 22  1  0  0  0  0
 22 18  1  0  0  0  0
 23 20  1  0  0  0  0
 24 38  1  0  0  0  0
 24 23  1  0  0  0  0
 25 24  2  0  0  0  0
 26 27  2  0  0  0  0
 26 25  1  0  0  0  0
 27 28  1  0  0  0  0
 28 41  1  0  0  0  0
 28 23  2  0  0  0  0
 29  3  1  0  0  0  0
 30  5  1  0  0  0  0
 33 11  1  0  0  0  0
 35 12  1  0  0  0  0
 37 17  1  0  0  0  0
 39 26  1  0  0  0  0
 40 27  1  0  0  0  0
M  END
>  <Pose>
1

>  <Score>
-9.01

$$$$
