
 OpenBabel03202210083D

 54 57  0  0  0  0  0  0  0  0999 V2000
   48.4340  101.6380   27.9750 Cl  0  0  0  0  0  0  0  0  0  0  0  0
   49.3970  101.3860   29.4340 C   0  0  0  0  0  0  0  0  0  0  0  0
   50.3960  100.4380   29.4300 C   0  0  0  0  0  0  0  0  0  0  0  0
   51.1260  100.2640   30.5740 C   0  0  0  0  0  0  0  0  0  0  0  0
   50.9020  101.0010   31.7270 C   0  0  0  0  0  0  0  0  0  0  0  0
   49.8790  101.9550   31.6900 C   0  0  0  0  0  0  0  0  0  0  0  0
   49.1330  102.1470   30.5530 C   0  0  0  0  0  0  0  0  0  0  0  0
   50.6760   99.6550   28.2930 N   0  0  0  0  0  0  0  0  0  0  0  0
   49.9130   98.4740   27.9870 C   0  0  0  0  0  0  0  0  0  0  0  0
   50.7710   97.2830   27.6430 C   0  0  0  0  0  0  0  0  0  0  0  0
   52.1030   97.7530   27.3690 N   0  0  0  0  0  0  0  0  0  0  0  0
   52.2380   98.9350   26.5580 C   0  0  0  0  0  0  0  0  0  0  0  0
   51.7850  100.1070   27.4400 C   0  0  0  0  0  0  0  0  0  0  0  0
   53.2690   97.1180   27.8470 C   0  0  0  0  0  0  0  0  0  0  0  0
   53.4610   96.9450   29.0870 O   0  0  0  0  0  0  0  0  0  0  0  0
   54.3090   96.6300   26.9550 C   0  0  0  0  0  0  0  0  0  0  0  0
   54.2370   95.3730   26.4210 C   0  0  0  0  0  0  0  0  0  0  0  0
   55.1720   94.8420   25.5750 N   0  0  0  0  0  0  0  0  0  0  0  0
   56.2130   95.6060   25.2600 C   0  0  0  0  0  0  0  0  0  0  0  0
   56.3730   96.8770   25.7450 C   0  0  0  0  0  0  0  0  0  0  0  0
   55.3720   97.4250   26.6420 C   0  0  0  0  0  0  0  0  0  0  0  0
   55.7880   98.6680   26.9490 N   0  0  0  0  0  0  0  0  0  0  0  0
   56.9310   98.9260   26.3360 N   0  0  0  0  0  0  0  0  0  0  0  0
   57.3190   97.8760   25.6010 C   0  0  0  0  0  0  0  0  0  0  0  0
   58.3510   97.7390   24.8760 O   0  0  0  0  0  0  0  0  0  0  0  0
   54.9770   93.5050   25.0350 C   0  0  0  0  0  0  0  0  0  0  0  0
   54.5030   93.4320   23.6520 C   0  0  0  0  0  0  0  0  0  0  0  0
   55.1550   92.6570   22.5950 C   0  0  0  0  0  0  0  0  0  0  0  0
   54.4950   91.7370   21.8730 O   0  0  0  0  0  0  0  0  0  0  0  0
   54.1400   91.9090   20.5980 C   0  0  0  0  0  0  0  0  0  0  0  0
   51.9080   99.5280   30.5860 H   0  0  0  0  0  0  0  0  0  0  0  0
   51.4890  100.8420   32.6050 H   0  0  0  0  0  0  0  0  0  0  0  0
   49.7240  102.5150   32.6000 H   0  0  0  0  0  0  0  0  0  0  0  0
   48.3600  102.8790   30.5510 H   0  0  0  0  0  0  0  0  0  0  0  0
   49.1710   98.6410   27.1800 H   0  0  0  0  0  0  0  0  0  0  0  0
   49.3300   98.1980   28.8910 H   0  0  0  0  0  0  0  0  0  0  0  0
   50.7450   96.5020   28.4280 H   0  0  0  0  0  0  0  0  0  0  0  0
   50.3880   96.8030   26.7010 H   0  0  0  0  0  0  0  0  0  0  0  0
   51.5040   98.9360   25.7010 H   0  0  0  0  0  0  0  0  0  0  0  0
   53.2600   99.0900   26.1880 H   0  0  0  0  0  0  0  0  0  0  0  0
   51.5000  100.9820   26.8420 H   0  0  0  0  0  0  0  0  0  0  0  0
   52.6300  100.3390   28.1210 H   0  0  0  0  0  0  0  0  0  0  0  0
   53.3980   94.6930   26.6440 H   0  0  0  0  0  0  0  0  0  0  0  0
   56.9860   95.2690   24.5770 H   0  0  0  0  0  0  0  0  0  0  0  0
   57.5040   99.8150   26.3800 H   0  0  0  0  0  0  0  0  0  0  0  0
   54.4720   92.8220   25.7550 H   0  0  0  0  0  0  0  0  0  0  0  0
   56.0430   93.0750   25.0240 H   0  0  0  0  0  0  0  0  0  0  0  0
   53.3750   93.2120   23.6540 H   0  0  0  0  0  0  0  0  0  0  0  0
   54.4770   94.5190   23.2690 H   0  0  0  0  0  0  0  0  0  0  0  0
   55.8000   93.3240   21.9200 H   0  0  0  0  0  0  0  0  0  0  0  0
   56.0020   92.0730   23.1270 H   0  0  0  0  0  0  0  0  0  0  0  0
   55.0270   92.0610   19.9270 H   0  0  0  0  0  0  0  0  0  0  0  0
   53.4150   92.6900   20.3530 H   0  0  0  0  0  0  0  0  0  0  0  0
   53.7330   90.9080   20.2020 H   0  0  0  0  0  0  0  0  0  0  0  0
  1  2  1  0  0  0  0
  2  7  1  0  0  0  0
  3  2  2  0  0  0  0
  3  4  1  0  0  0  0
  4 31  1  0  0  0  0
  4  5  2  0  0  0  0
  5 32  1  0  0  0  0
  6  5  1  0  0  0  0
  6 33  1  0  0  0  0
  7  6  2  0  0  0  0
  8  3  1  0  0  0  0
  9  8  1  0  0  0  0
  9 36  1  0  0  0  0
 10  9  1  0  0  0  0
 10 37  1  0  0  0  0
 11 10  1  0  0  0  0
 11 14  1  0  0  0  0
 12 11  1  0  0  0  0
 12 13  1  0  0  0  0
 13 42  1  0  0  0  0
 13  8  1  0  0  0  0
 14 15  2  0  0  0  0
 16 14  1  0  0  0  0
 17 43  1  0  0  0  0
 17 16  1  0  0  0  0
 18 17  1  0  0  0  0
 19 18  1  0  0  0  0
 19 20  2  0  0  0  0
 20 21  1  0  0  0  0
 21 22  1  0  0  0  0
 21 16  2  0  0  0  0
 23 45  1  0  0  0  0
 23 22  1  0  0  0  0
 24 20  1  0  0  0  0
 24 23  1  0  0  0  0
 25 24  2  0  0  0  0
 26 18  1  0  0  0  0
 26 46  1  0  0  0  0
 27 48  1  0  0  0  0
 27 26  1  0  0  0  0
 28 51  1  0  0  0  0
 28 27  1  0  0  0  0
 29 28  1  0  0  0  0
 30 29  1  0  0  0  0
 34  7  1  0  0  0  0
 35  9  1  0  0  0  0
 38 10  1  0  0  0  0
 39 12  1  0  0  0  0
 40 12  1  0  0  0  0
 41 13  1  0  0  0  0
 44 19  1  0  0  0  0
 47 26  1  0  0  0  0
 49 27  1  0  0  0  0
 50 28  1  0  0  0  0
 52 30  1  0  0  0  0
 53 30  1  0  0  0  0
 54 30  1  0  0  0  0
M  END
>  <Pose>
1

>  <Score>
-8.03

$$$$
