
 OpenBabel03202210083D

 59 63  0  0  1  0  0  0  0  0999 V2000
   54.6510   85.5580   21.9060 B   0  0  0  0  0  0  0  0  0  0  0  0
   55.1970   87.0120   22.9960 C   0  0  0  0  0  0  0  0  0  0  0  0
   55.3020   88.2820   22.4730 C   0  0  0  0  0  0  0  0  0  0  0  0
   55.7090   89.3580   23.2740 C   0  0  0  0  0  0  0  0  0  0  0  0
   55.9820   89.0370   24.5850 C   0  0  0  0  0  0  0  0  0  0  0  0
   55.8900   87.7950   25.1430 C   0  0  0  0  0  0  0  0  0  0  0  0
   55.4870   86.7580   24.3220 C   0  0  0  0  0  0  0  0  0  0  0  0
   55.8700   90.6800   22.7010 C   0  0  2  0  0  0  0  0  0  0  0  0
   55.6360   91.8580   23.4140 N   0  0  0  0  0  0  0  0  0  0  0  0
   54.5920   92.5880   22.7010 C   0  0  0  0  0  0  0  0  0  0  0  0
   53.9910   93.6270   23.0740 O   0  0  0  0  0  0  0  0  0  0  0  0
   54.3180   91.9340   21.4320 C   0  0  0  0  0  0  0  0  0  0  0  0
   53.4600   92.3000   20.5610 O   0  0  0  0  0  0  0  0  0  0  0  0
   55.2000   90.7990   21.3660 C   0  0  0  0  0  0  0  0  0  0  0  0
   55.3390   89.9980   20.3300 C   0  0  0  0  0  0  0  0  0  0  0  0
   56.2170   88.9070   20.5280 O   0  0  0  0  0  0  0  0  0  0  0  0
   54.6900   90.1400   19.0400 C   0  0  0  0  0  0  0  0  0  0  0  0
   53.5540   89.6370   18.5320 N   0  0  0  0  0  0  0  0  0  0  0  0
   53.3550   89.9970   17.2550 C   0  0  0  0  0  0  0  0  0  0  0  0
   54.4120   90.7710   16.9220 N   0  0  0  0  0  0  0  0  0  0  0  0
   55.2350   90.8790   17.9680 C   0  0  0  0  0  0  0  0  0  0  0  0
   56.4960   91.6310   18.0250 C   0  0  0  0  0  0  0  0  0  0  0  0
   52.2390   89.6050   16.5410 C   0  0  0  0  0  0  0  0  0  0  0  0
   51.3030   88.8180   17.1560 C   0  0  0  0  0  0  0  0  0  0  0  0
   51.5070   88.4470   18.4710 C   0  0  0  0  0  0  0  0  0  0  0  0
   52.6290   88.8550   19.1540 C   0  0  0  0  0  0  0  0  0  0  0  0
   56.3080   92.3730   24.5510 C   0  0  0  0  0  0  0  0  0  0  0  0
   55.6750   93.3460   25.4380 C   0  0  0  0  0  0  0  0  0  0  0  0
   55.3470   94.6610   24.9710 N   0  0  0  0  0  4  0  0  0  0  0  0
   53.9070   94.8280   25.1650 C   0  0  0  0  0  0  0  0  0  0  0  0
   53.5630   95.3780   26.5110 C   0  0  0  0  0  0  0  0  0  0  0  0
   54.6730   95.3430   27.3680 O   0  0  0  0  0  0  0  0  0  0  0  0
   55.5840   96.2200   26.8230 C   0  0  0  0  0  0  0  0  0  0  0  0
   56.1390   95.6910   25.5530 C   0  0  0  0  0  0  0  0  0  0  0  0
   55.0850   88.5140   21.4480 H   0  0  0  0  0  0  0  0  0  0  0  0
   56.3020   89.8560   25.2350 H   0  0  0  0  0  0  0  0  0  0  0  0
   56.1180   87.5860   26.1850 H   0  0  0  0  0  0  0  0  0  0  0  0
   55.4170   85.7710   24.7700 H   0  0  0  0  0  0  0  0  0  0  0  0
   57.0230   90.7390   22.4620 H   0  0  0  0  0  0  0  0  0  0  0  0
   56.6810   92.1320   19.0010 H   0  0  0  0  0  0  0  0  0  0  0  0
   57.3250   90.9360   17.7520 H   0  0  0  0  0  0  0  0  0  0  0  0
   56.4770   92.4280   17.2500 H   0  0  0  0  0  0  0  0  0  0  0  0
   52.0810   89.8920   15.5180 H   0  0  0  0  0  0  0  0  0  0  0  0
   50.3980   88.4660   16.6670 H   0  0  0  0  0  0  0  0  0  0  0  0
   50.7870   87.8190   19.0010 H   0  0  0  0  0  0  0  0  0  0  0  0
   52.8000   88.5690   20.2020 H   0  0  0  0  0  0  0  0  0  0  0  0
   57.2740   92.8330   24.1690 H   0  0  0  0  0  0  0  0  0  0  0  0
   56.6830   91.5160   25.1760 H   0  0  0  0  0  0  0  0  0  0  0  0
   54.6870   92.8740   25.7520 H   0  0  0  0  0  0  0  0  0  0  0  0
   56.1930   93.4300   26.4420 H   0  0  0  0  0  0  0  0  0  0  0  0
   55.4470   94.7380   23.9150 H   0  0  0  0  0  0  0  0  0  0  0  0
   53.5380   95.5240   24.3960 H   0  0  0  0  0  0  0  0  0  0  0  0
   53.3780   93.8560   25.0010 H   0  0  0  0  0  0  0  0  0  0  0  0
   53.2280   96.4460   26.4310 H   0  0  0  0  0  0  0  0  0  0  0  0
   52.7780   94.7420   26.9700 H   0  0  0  0  0  0  0  0  0  0  0  0
   56.4070   96.3070   27.6030 H   0  0  0  0  0  0  0  0  0  0  0  0
   55.1120   97.2390   26.6970 H   0  0  0  0  0  0  0  0  0  0  0  0
   57.1920   95.3650   25.7470 H   0  0  0  0  0  0  0  0  0  0  0  0
   56.1600   96.5590   24.8250 H   0  0  0  0  0  0  0  0  0  0  0  0
  1  2  1  0  0  0  0
  2  7  1  0  0  0  0
  3  2  2  0  0  0  0
  3  4  1  0  0  0  0
  4  5  2  0  0  0  0
  5  6  1  0  0  0  0
  5 36  1  0  0  0  0
  6 37  1  0  0  0  0
  7 38  1  0  0  0  0
  7  6  2  0  0  0  0
  8 39  1  6  0  0  0
  8  4  1  0  0  0  0
  8  9  1  0  0  0  0
  9 27  1  0  0  0  0
 10 11  2  0  0  0  0
 10  9  1  0  0  0  0
 12 10  1  0  0  0  0
 13 12  2  0  0  0  0
 14 12  1  0  0  0  0
 14  8  1  0  0  0  0
 15 16  1  0  0  0  0
 15 14  2  0  0  0  0
 17 15  1  0  0  0  0
 18 17  1  0  0  0  0
 18 26  1  0  0  0  0
 19 18  1  0  0  0  0
 20 19  2  0  0  0  0
 20 21  1  0  0  0  0
 21 22  1  0  0  0  0
 21 17  2  0  0  0  0
 22 40  1  0  0  0  0
 23 24  2  0  0  0  0
 23 19  1  0  0  0  0
 24 25  1  0  0  0  0
 25 45  1  0  0  0  0
 25 26  2  0  0  0  0
 26 46  1  0  0  0  0
 27 48  1  0  0  0  0
 27 28  1  0  0  0  0
 28 49  1  0  0  0  0
 28 50  1  0  0  0  0
 29 30  1  0  0  0  0
 29 28  1  0  0  0  0
 29 34  1  0  0  0  0
 30 31  1  0  0  0  0
 31 55  1  0  0  0  0
 31 32  1  0  0  0  0
 33 32  1  0  0  0  0
 33 56  1  0  0  0  0
 34 58  1  0  0  0  0
 34 33  1  0  0  0  0
 35  3  1  0  0  0  0
 41 22  1  0  0  0  0
 42 22  1  0  0  0  0
 43 23  1  0  0  0  0
 44 24  1  0  0  0  0
 47 27  1  0  0  0  0
 51 29  1  0  0  0  0
 52 30  1  0  0  0  0
 53 30  1  0  0  0  0
 54 31  1  0  0  0  0
 57 33  1  0  0  0  0
 59 34  1  0  0  0  0
M  END
>  <Pose>
1

>  <Score>
-5.98

$$$$
