
 OpenBabel03202210083D

 54 58  0  0  0  0  0  0  0  0999 V2000
   56.7380   88.3770   24.2500 F   0  0  0  0  0  0  0  0  0  0  0  0
   55.9570   88.4280   23.1560 C   0  0  0  0  0  0  0  0  0  0  0  0
   55.6040   87.1800   22.6510 C   0  0  0  0  0  0  0  0  0  0  0  0
   54.8000   87.0790   21.5370 C   0  0  0  0  0  0  0  0  0  0  0  0
   54.3610   88.2410   20.9490 C   0  0  0  0  0  0  0  0  0  0  0  0
   54.7230   89.4790   21.4700 C   0  0  0  0  0  0  0  0  0  0  0  0
   55.5230   89.5930   22.5750 C   0  0  0  0  0  0  0  0  0  0  0  0
   55.8730   90.8520   23.0620 N   0  0  0  0  0  4  0  0  0  0  0  0
   55.8080   91.0090   24.4930 C   0  0  0  0  0  0  0  0  0  0  0  0
   56.3620   92.3960   24.8940 C   0  0  0  0  0  0  0  0  0  0  0  0
   55.4890   93.3350   24.3100 N   0  0  0  0  0  0  0  0  0  0  0  0
   55.6350   93.3150   22.8020 C   0  0  0  0  0  0  0  0  0  0  0  0
   55.1780   91.9340   22.4450 C   0  0  0  0  0  0  0  0  0  0  0  0
   54.5510   94.1730   24.8100 C   0  0  0  0  0  0  0  0  0  0  0  0
   53.3080   93.8320   24.5720 O   0  0  0  0  0  0  0  0  0  0  0  0
   54.6720   95.3890   25.5660 C   0  0  0  0  0  0  0  0  0  0  0  0
   53.7480   95.8330   26.4550 C   0  0  0  0  0  0  0  0  0  0  0  0
   53.9320   96.9880   27.2050 C   0  0  0  0  0  0  0  0  0  0  0  0
   55.0850   97.7130   27.0440 C   0  0  0  0  0  0  0  0  0  0  0  0
   56.0460   97.3110   26.1610 C   0  0  0  0  0  0  0  0  0  0  0  0
   55.8370   96.1740   25.4410 C   0  0  0  0  0  0  0  0  0  0  0  0
   52.7030   97.5250   28.3530 Cl  0  0  0  0  0  0  0  0  0  0  0  0
   53.5740   88.1180   19.8610 N   0  0  0  0  0  0  0  0  0  0  0  0
   53.2190   86.9230   19.3540 C   0  0  0  0  0  0  0  0  0  0  0  0
   53.6430   85.7410   19.9200 C   0  0  0  0  0  0  0  0  0  0  0  0
   54.4470   85.8200   21.0320 C   0  0  0  0  0  0  0  0  0  0  0  0
   54.8670   84.7820   21.5960 O   0  0  0  0  0  0  0  0  0  0  0  0
   53.2460   84.4390   19.3500 C   0  0  0  0  0  0  0  0  0  0  0  0
   53.5120   83.3610   19.9030 O   0  0  0  0  0  0  0  0  0  0  0  0
   52.5520   84.4390   18.1610 O   0  0  0  0  0  0  0  0  0  0  0  0
   53.1150   89.3690   19.2460 C   0  0  0  0  0  0  0  0  0  0  0  0
   51.7690   89.4820   18.6760 C   0  0  0  0  0  0  0  0  0  0  0  0
   52.8430   89.2460   17.7100 C   0  0  0  0  0  0  0  0  0  0  0  0
   55.9350   86.2530   23.0940 H   0  0  0  0  0  0  0  0  0  0  0  0
   54.3240   90.3380   20.9290 H   0  0  0  0  0  0  0  0  0  0  0  0
   56.9010   90.9900   22.8150 H   0  0  0  0  0  0  0  0  0  0  0  0
   54.7520   91.0360   24.7990 H   0  0  0  0  0  0  0  0  0  0  0  0
   56.4580   90.3220   25.0610 H   0  0  0  0  0  0  0  0  0  0  0  0
   56.5540   92.3950   25.9480 H   0  0  0  0  0  0  0  0  0  0  0  0
   57.4110   92.4720   24.4270 H   0  0  0  0  0  0  0  0  0  0  0  0
   56.7220   93.3840   22.6390 H   0  0  0  0  0  0  0  0  0  0  0  0
   55.0600   94.1120   22.3490 H   0  0  0  0  0  0  0  0  0  0  0  0
   55.3420   91.8330   21.3310 H   0  0  0  0  0  0  0  0  0  0  0  0
   54.0810   91.9080   22.5660 H   0  0  0  0  0  0  0  0  0  0  0  0
   52.8000   95.3470   26.6130 H   0  0  0  0  0  0  0  0  0  0  0  0
   55.2100   98.6100   27.6370 H   0  0  0  0  0  0  0  0  0  0  0  0
   56.9320   97.9280   26.0820 H   0  0  0  0  0  0  0  0  0  0  0  0
   56.6100   95.8540   24.7340 H   0  0  0  0  0  0  0  0  0  0  0  0
   52.5880   86.8770   18.4800 H   0  0  0  0  0  0  0  0  0  0  0  0
   53.6720   90.2820   19.5230 H   0  0  0  0  0  0  0  0  0  0  0  0
   50.9890   88.7070   18.8260 H   0  0  0  0  0  0  0  0  0  0  0  0
   51.3140   90.5160   18.7020 H   0  0  0  0  0  0  0  0  0  0  0  0
   52.9740   88.2340   17.2790 H   0  0  0  0  0  0  0  0  0  0  0  0
   53.2830   90.0400   17.0790 H   0  0  0  0  0  0  0  0  0  0  0  0
  2  1  1  0  0  0  0
  3 34  1  0  0  0  0
  3  2  1  0  0  0  0
  4  3  2  0  0  0  0
  5  6  2  0  0  0  0
  5  4  1  0  0  0  0
  6  7  1  0  0  0  0
  7  8  1  0  0  0  0
  7  2  2  0  0  0  0
  8  9  1  0  0  0  0
  9 37  1  0  0  0  0
  9 10  1  0  0  0  0
  9 38  1  0  0  0  0
 10 39  1  0  0  0  0
 11 14  1  0  0  0  0
 11 10  1  0  0  0  0
 12 11  1  0  0  0  0
 13 44  1  0  0  0  0
 13 12  1  0  0  0  0
 13  8  1  0  0  0  0
 14 16  1  0  0  0  0
 15 14  2  0  0  0  0
 16 17  1  0  0  0  0
 17 45  1  0  0  0  0
 17 18  2  0  0  0  0
 18 22  1  0  0  0  0
 19 18  1  0  0  0  0
 19 46  1  0  0  0  0
 20 19  2  0  0  0  0
 21 16  2  0  0  0  0
 21 20  1  0  0  0  0
 23  5  1  0  0  0  0
 24 23  1  0  0  0  0
 24 25  2  0  0  0  0
 25 26  1  0  0  0  0
 26  4  1  0  0  0  0
 26 27  2  0  0  0  0
 28 29  1  0  0  0  0
 28 25  1  0  0  0  0
 30 28  2  0  0  0  0
 31 50  1  0  0  0  0
 31 23  1  0  0  0  0
 32 52  1  0  0  0  0
 32 51  1  0  0  0  0
 32 31  1  0  0  0  0
 33 32  1  0  0  0  0
 33 31  1  0  0  0  0
 35  6  1  0  0  0  0
 36  8  1  0  0  0  0
 40 10  1  0  0  0  0
 41 12  1  0  0  0  0
 42 12  1  0  0  0  0
 43 13  1  0  0  0  0
 47 20  1  0  0  0  0
 48 21  1  0  0  0  0
 49 24  1  0  0  0  0
 53 33  1  0  0  0  0
 54 33  1  0  0  0  0
M  END
>  <Pose>
1

>  <Score>
-6.69

$$$$
