
 OpenBabel03202210083D

 51 54  0  0  0  0  0  0  0  0999 V2000
   56.5570   85.8220   25.1010 Cl  0  0  0  0  0  0  0  0  0  0  0  0
   56.3530   87.0390   23.8510 C   0  0  0  0  0  0  0  0  0  0  0  0
   56.2450   88.3740   24.2030 C   0  0  0  0  0  0  0  0  0  0  0  0
   56.0860   89.3200   23.2180 C   0  0  0  0  0  0  0  0  0  0  0  0
   56.0310   88.9760   21.8850 C   0  0  0  0  0  0  0  0  0  0  0  0
   56.1380   87.6490   21.5610 C   0  0  0  0  0  0  0  0  0  0  0  0
   56.3010   86.6620   22.5360 C   0  0  0  0  0  0  0  0  0  0  0  0
   55.8490   90.0320   20.8610 C   0  0  0  0  0  0  0  0  0  0  0  0
   56.8450   90.2630   20.1430 O   0  0  0  0  0  0  0  0  0  0  0  0
   54.6560   90.7210   20.7050 N   0  0  0  0  0  0  0  0  0  0  0  0
   54.1160   91.8270   21.4000 C   0  0  0  0  0  0  0  0  0  0  0  0
   55.0390   92.8010   22.0040 C   0  0  0  0  0  0  0  0  0  0  0  0
   55.4430   92.7140   23.3520 N   0  0  0  0  0  0  0  0  0  0  0  0
   54.7810   93.5790   24.2960 C   0  0  0  0  0  0  0  0  0  0  0  0
   53.5450   93.6780   24.2590 O   0  0  0  0  0  0  0  0  0  0  0  0
   55.5420   94.3490   25.3080 C   0  0  0  0  0  0  0  0  0  0  0  0
   54.7490   94.3410   26.5960 C   0  0  0  0  0  0  0  0  0  0  0  0
   53.5440   95.2300   26.3850 C   0  0  0  0  0  0  0  0  0  0  0  0
   54.0680   96.5910   26.3200 N   0  0  0  0  0  0  0  0  0  0  0  0
   55.3320   96.8400   25.7150 C   0  0  0  0  0  0  0  0  0  0  0  0
   55.8710   95.7330   24.8830 C   0  0  0  0  0  0  0  0  0  0  0  0
   53.2750   97.6230   26.8740 C   0  0  0  0  0  0  0  0  0  0  0  0
   52.8900   98.7070   26.1730 N   0  0  0  0  0  0  0  0  0  0  0  0
   52.1520   99.6780   26.6750 N   0  0  0  0  0  0  0  0  0  0  0  0
   51.6840  100.8030   26.1440 N   0  0  0  0  0  0  0  0  0  0  0  0
   50.9890  101.4720   27.0250 N   0  0  0  0  0  0  0  0  0  0  0  0
   50.9940  100.7870   28.1490 N   0  0  0  0  0  0  0  0  0  0  0  0
   51.7180   99.6670   27.9410 C   0  0  0  0  0  0  0  0  0  0  0  0
   52.0810   98.5790   28.7140 C   0  0  0  0  0  0  0  0  0  0  0  0
   52.8520   97.5620   28.1900 C   0  0  0  0  0  0  0  0  0  0  0  0
   56.2890   88.6500   25.2580 H   0  0  0  0  0  0  0  0  0  0  0  0
   56.0010   90.3760   23.4720 H   0  0  0  0  0  0  0  0  0  0  0  0
   56.1020   87.3000   20.5550 H   0  0  0  0  0  0  0  0  0  0  0  0
   56.3850   85.6180   22.2830 H   0  0  0  0  0  0  0  0  0  0  0  0
   54.0460   90.3070   19.8730 H   0  0  0  0  0  0  0  0  0  0  0  0
   53.3900   92.3730   20.7180 H   0  0  0  0  0  0  0  0  0  0  0  0
   53.4660   91.3930   22.2290 H   0  0  0  0  0  0  0  0  0  0  0  0
   54.6880   93.8650   21.7470 H   0  0  0  0  0  0  0  0  0  0  0  0
   56.0120   92.7720   21.3930 H   0  0  0  0  0  0  0  0  0  0  0  0
   56.1330   92.0870   23.7580 H   0  0  0  0  0  0  0  0  0  0  0  0
   56.4920   93.8070   25.5540 H   0  0  0  0  0  0  0  0  0  0  0  0
   55.3890   94.8200   27.3710 H   0  0  0  0  0  0  0  0  0  0  0  0
   54.4700   93.3180   26.9070 H   0  0  0  0  0  0  0  0  0  0  0  0
   52.8310   95.1520   27.2380 H   0  0  0  0  0  0  0  0  0  0  0  0
   53.0220   95.0630   25.4320 H   0  0  0  0  0  0  0  0  0  0  0  0
   56.0810   97.0460   26.5320 H   0  0  0  0  0  0  0  0  0  0  0  0
   55.3130   97.7620   25.0810 H   0  0  0  0  0  0  0  0  0  0  0  0
   56.9900   95.8090   24.7500 H   0  0  0  0  0  0  0  0  0  0  0  0
   55.4860   95.8460   23.8250 H   0  0  0  0  0  0  0  0  0  0  0  0
   51.7340   98.5610   29.7460 H   0  0  0  0  0  0  0  0  0  0  0  0
   53.1290   96.7090   28.8110 H   0  0  0  0  0  0  0  0  0  0  0  0
  2  3  1  0  0  0  0
  2  1  1  0  0  0  0
  3 31  1  0  0  0  0
  4 32  1  0  0  0  0
  4  3  2  0  0  0  0
  5  4  1  0  0  0  0
  6  5  2  0  0  0  0
  6  7  1  0  0  0  0
  7  2  2  0  0  0  0
  8  5  1  0  0  0  0
  9  8  2  0  0  0  0
 10  8  1  0  0  0  0
 10 11  1  0  0  0  0
 11 12  1  0  0  0  0
 11 37  1  0  0  0  0
 12 13  1  0  0  0  0
 13 40  1  0  0  0  0
 13 14  1  0  0  0  0
 14 16  1  0  0  0  0
 15 14  2  0  0  0  0
 16 41  1  0  0  0  0
 16 17  1  0  0  0  0
 17 43  1  0  0  0  0
 17 42  1  0  0  0  0
 18 17  1  0  0  0  0
 18 44  1  0  0  0  0
 19 18  1  0  0  0  0
 19 22  1  0  0  0  0
 20 19  1  0  0  0  0
 20 46  1  0  0  0  0
 21 16  1  0  0  0  0
 21 20  1  0  0  0  0
 22 30  1  0  0  0  0
 23 24  1  0  0  0  0
 23 22  2  0  0  0  0
 24 28  1  0  0  0  0
 25 24  1  0  0  0  0
 25 26  2  0  0  0  0
 26 27  1  0  0  0  0
 28 27  2  0  0  0  0
 28 29  1  0  0  0  0
 29 50  1  0  0  0  0
 30 29  2  0  0  0  0
 30 51  1  0  0  0  0
 33  6  1  0  0  0  0
 34  7  1  0  0  0  0
 35 10  1  0  0  0  0
 36 11  1  0  0  0  0
 38 12  1  0  0  0  0
 39 12  1  0  0  0  0
 45 18  1  0  0  0  0
 47 20  1  0  0  0  0
 48 21  1  0  0  0  0
 49 21  1  0  0  0  0
M  END
>  <Pose>
1

>  <Score>
-9.01

$$$$
