
 OpenBabel03202210083D

 53 56  0  0  1  0  0  0  0  0999 V2000
   54.2190   81.1450   13.3660 B   0  0  0  0  0  0  0  0  0  0  0  0
   53.8390   81.8950   15.0950 C   0  0  0  0  0  0  0  0  0  0  0  0
   54.8070   82.5430   15.8270 C   0  0  0  0  0  0  0  0  0  0  0  0
   54.5930   83.0940   17.0600 C   0  0  0  0  0  0  0  0  0  0  0  0
   53.3290   82.9990   17.6110 C   0  0  0  0  0  0  0  0  0  0  0  0
   52.3420   82.3560   16.8990 C   0  0  0  0  0  0  0  0  0  0  0  0
   52.5750   81.7970   15.6390 C   0  0  0  0  0  0  0  0  0  0  0  0
   53.0080   83.5850   18.9070 C   0  0  0  0  0  0  0  0  0  0  0  0
   52.7590   84.8730   19.0310 C   0  0  0  0  0  0  0  0  0  0  0  0
   52.4180   85.6670   20.2550 C   0  0  2  0  0  0  0  0  0  0  0  0
   53.1800   86.8470   20.0630 N   0  0  0  0  0  0  0  0  0  0  0  0
   52.9680   87.1670   18.6550 C   0  0  0  0  0  0  0  0  0  0  0  0
   53.0060   88.3010   18.1100 O   0  0  0  0  0  0  0  0  0  0  0  0
   52.6980   85.8970   17.9890 C   0  0  0  0  0  0  0  0  0  0  0  0
   52.4520   85.6490   16.7620 O   0  0  0  0  0  0  0  0  0  0  0  0
   53.9710   87.6990   20.9300 C   0  0  0  0  0  0  0  0  0  0  0  0
   54.5440   87.0890   22.1490 C   0  0  0  0  0  0  0  0  0  0  0  0
   55.8370   87.6540   22.5520 N   0  0  0  0  0  4  0  0  0  0  0  0
   56.9030   86.9160   21.9660 C   0  0  0  0  0  0  0  0  0  0  0  0
   57.7990   86.1810   22.9010 C   0  0  0  0  0  0  0  0  0  0  0  0
   57.9080   86.7160   24.1700 O   0  0  0  0  0  0  0  0  0  0  0  0
   56.5960   86.6740   24.6960 C   0  0  0  0  0  0  0  0  0  0  0  0
   55.8360   87.7370   23.9830 C   0  0  0  0  0  0  0  0  0  0  0  0
   52.4310   84.9190   21.4680 C   0  0  0  0  0  0  0  0  0  0  0  0
   51.2710   84.3220   21.9000 C   0  0  0  0  0  0  0  0  0  0  0  0
   51.2080   83.5710   23.0490 C   0  0  0  0  0  0  0  0  0  0  0  0
   52.3390   83.3860   23.8310 C   0  0  0  0  0  0  0  0  0  0  0  0
   53.4940   83.9940   23.3800 C   0  0  0  0  0  0  0  0  0  0  0  0
   53.5490   84.7450   22.2270 C   0  0  0  0  0  0  0  0  0  0  0  0
   52.2730   82.4340   25.2930 Cl  0  0  0  0  0  0  0  0  0  0  0  0
   52.9780   82.7230   19.9890 O   0  0  0  0  0  0  0  0  0  0  0  0
   55.7880   82.6080   15.3830 H   0  0  0  0  0  0  0  0  0  0  0  0
   55.3410   83.6050   17.6480 H   0  0  0  0  0  0  0  0  0  0  0  0
   51.3190   82.2650   17.2740 H   0  0  0  0  0  0  0  0  0  0  0  0
   51.7640   81.2940   15.1070 H   0  0  0  0  0  0  0  0  0  0  0  0
   51.3430   85.9880   20.0430 H   0  0  0  0  0  0  0  0  0  0  0  0
   54.8620   88.1080   20.3500 H   0  0  0  0  0  0  0  0  0  0  0  0
   53.4120   88.6600   21.1500 H   0  0  0  0  0  0  0  0  0  0  0  0
   54.6890   86.0110   22.1590 H   0  0  0  0  0  0  0  0  0  0  0  0
   53.8370   87.4050   22.9920 H   0  0  0  0  0  0  0  0  0  0  0  0
   55.8200   88.6490   22.1670 H   0  0  0  0  0  0  0  0  0  0  0  0
   56.5000   86.2160   21.1760 H   0  0  0  0  0  0  0  0  0  0  0  0
   57.5640   87.6450   21.4080 H   0  0  0  0  0  0  0  0  0  0  0  0
   57.3820   85.1400   23.0430 H   0  0  0  0  0  0  0  0  0  0  0  0
   58.8270   86.0430   22.5200 H   0  0  0  0  0  0  0  0  0  0  0  0
   56.1480   85.6750   24.6070 H   0  0  0  0  0  0  0  0  0  0  0  0
   56.6590   86.9110   25.7680 H   0  0  0  0  0  0  0  0  0  0  0  0
   54.7980   87.7670   24.4050 H   0  0  0  0  0  0  0  0  0  0  0  0
   56.2950   88.7200   24.2830 H   0  0  0  0  0  0  0  0  0  0  0  0
   50.3260   84.4280   21.3220 H   0  0  0  0  0  0  0  0  0  0  0  0
   50.2950   83.1040   23.3830 H   0  0  0  0  0  0  0  0  0  0  0  0
   54.3730   83.8360   24.0110 H   0  0  0  0  0  0  0  0  0  0  0  0
   54.5220   85.1560   21.9770 H   0  0  0  0  0  0  0  0  0  0  0  0
  1  2  1  0  0  0  0
  2  7  2  0  0  0  0
  2  3  1  0  0  0  0
  3  4  2  0  0  0  0
  4  5  1  0  0  0  0
  4 33  1  0  0  0  0
  5  8  1  0  0  0  0
  6 34  1  0  0  0  0
  6  5  2  0  0  0  0
  7  6  1  0  0  0  0
  8  9  2  0  0  0  0
  8 31  1  0  0  0  0
  9 10  1  0  0  0  0
 10 36  1  6  0  0  0
 10 24  1  0  0  0  0
 11 10  1  0  0  0  0
 11 16  1  0  0  0  0
 12 11  1  0  0  0  0
 13 12  2  0  0  0  0
 14 12  1  0  0  0  0
 14  9  1  0  0  0  0
 15 14  2  0  0  0  0
 16 38  1  0  0  0  0
 16 17  1  0  0  0  0
 17 39  1  0  0  0  0
 17 18  1  0  0  0  0
 17 40  1  0  0  0  0
 18 23  1  0  0  0  0
 19 18  1  0  0  0  0
 19 20  1  0  0  0  0
 20 44  1  0  0  0  0
 20 21  1  0  0  0  0
 21 22  1  0  0  0  0
 22 47  1  0  0  0  0
 23 49  1  0  0  0  0
 23 48  1  0  0  0  0
 23 22  1  0  0  0  0
 24 25  2  0  0  0  0
 24 29  1  0  0  0  0
 25 26  1  0  0  0  0
 26 51  1  0  0  0  0
 26 27  2  0  0  0  0
 27 30  1  0  0  0  0
 28 27  1  0  0  0  0
 28 52  1  0  0  0  0
 29 28  2  0  0  0  0
 32  3  1  0  0  0  0
 35  7  1  0  0  0  0
 37 16  1  0  0  0  0
 41 18  1  0  0  0  0
 42 19  1  0  0  0  0
 43 19  1  0  0  0  0
 45 20  1  0  0  0  0
 46 22  1  0  0  0  0
 50 25  1  0  0  0  0
 53 29  1  0  0  0  0
M  END
>  <Pose>
1

>  <Score>
-5.59

$$$$
