
 OpenBabel03202210083D

 49 52  0  0  0  0  0  0  0  0999 V2000
   55.5700   83.3840   25.9820 Cl  0  0  0  0  0  0  0  0  0  0  0  0
   55.6100   85.1010   25.6050 C   0  0  0  0  0  0  0  0  0  0  0  0
   56.8050   85.6660   25.2580 C   0  0  0  0  0  0  0  0  0  0  0  0
   56.8390   87.0310   24.9530 C   0  0  0  0  0  0  0  0  0  0  0  0
   55.6880   87.7590   25.0100 C   0  0  0  0  0  0  0  0  0  0  0  0
   54.5020   87.2040   25.3520 C   0  0  0  0  0  0  0  0  0  0  0  0
   54.4580   85.8300   25.6600 C   0  0  0  0  0  0  0  0  0  0  0  0
   55.7410   89.2210   24.6800 C   0  0  0  0  0  0  0  0  0  0  0  0
   55.7370   89.9890   25.6770 O   0  0  0  0  0  0  0  0  0  0  0  0
   55.7860   89.5730   23.3720 N   0  0  0  0  0  0  0  0  0  0  0  0
   55.8320   89.9270   22.0500 C   0  0  0  0  0  0  0  0  0  0  0  0
   55.5200   91.3110   21.6980 C   0  0  0  0  0  0  0  0  0  0  0  0
   55.0480   91.4600   20.4810 O   0  0  0  0  0  0  0  0  0  0  0  0
   55.6280   92.4950   22.4120 N   0  0  0  0  0  0  0  0  0  0  0  0
   54.5260   93.3200   22.7830 C   0  0  0  0  0  0  0  0  0  0  0  0
   55.0870   94.6800   23.2580 C   0  0  0  0  0  0  0  0  0  0  0  0
   55.8080   94.4100   24.5650 C   0  0  0  0  0  0  0  0  0  0  0  0
   54.8950   93.9010   25.5020 N   0  0  0  0  0  0  0  0  0  0  0  0
   54.1090   94.7600   26.2790 C   0  0  0  0  0  0  0  0  0  0  0  0
   54.7240   96.0270   26.7410 C   0  0  0  0  0  0  0  0  0  0  0  0
   55.9480   96.3990   26.0010 C   0  0  0  0  0  0  0  0  0  0  0  0
   56.7330   97.4780   26.1850 N   0  0  0  0  0  0  0  0  0  0  0  0
   57.7310   97.4220   25.2980 C   0  0  0  0  0  0  0  0  0  0  0  0
   57.5720   96.3030   24.5550 N   0  0  0  0  0  0  0  0  0  0  0  0
   56.4700   95.6570   24.9780 C   0  0  0  0  0  0  0  0  0  0  0  0
   56.8540   93.3150   24.2970 C   0  0  0  0  0  0  0  0  0  0  0  0
   56.9540   92.9740   22.8360 C   0  0  0  0  0  0  0  0  0  0  0  0
   57.7140   85.0930   25.2140 H   0  0  0  0  0  0  0  0  0  0  0  0
   57.7570   87.5200   24.6790 H   0  0  0  0  0  0  0  0  0  0  0  0
   53.5650   87.7470   25.4070 H   0  0  0  0  0  0  0  0  0  0  0  0
   53.5190   85.3740   25.9370 H   0  0  0  0  0  0  0  0  0  0  0  0
   55.1490   88.4070   23.0130 H   0  0  0  0  0  0  0  0  0  0  0  0
   55.1090   89.2600   21.4360 H   0  0  0  0  0  0  0  0  0  0  0  0
   56.8210   89.6450   21.5240 H   0  0  0  0  0  0  0  0  0  0  0  0
   53.9440   92.9130   23.6050 H   0  0  0  0  0  0  0  0  0  0  0  0
   53.9150   93.5120   21.8550 H   0  0  0  0  0  0  0  0  0  0  0  0
   54.2270   95.3590   23.4230 H   0  0  0  0  0  0  0  0  0  0  0  0
   55.7360   95.0560   22.4740 H   0  0  0  0  0  0  0  0  0  0  0  0
   54.6800   92.9110   25.4990 H   0  0  0  0  0  0  0  0  0  0  0  0
   53.8050   94.1870   27.2090 H   0  0  0  0  0  0  0  0  0  0  0  0
   53.1210   94.9390   25.7570 H   0  0  0  0  0  0  0  0  0  0  0  0
   55.0140   95.9740   27.8320 H   0  0  0  0  0  0  0  0  0  0  0  0
   53.9540   96.8420   26.7170 H   0  0  0  0  0  0  0  0  0  0  0  0
   58.5350   98.1400   25.1860 H   0  0  0  0  0  0  0  0  0  0  0  0
   58.1990   96.0020   23.7870 H   0  0  0  0  0  0  0  0  0  0  0  0
   57.8540   93.6150   24.6860 H   0  0  0  0  0  0  0  0  0  0  0  0
   56.5870   92.3680   24.8400 H   0  0  0  0  0  0  0  0  0  0  0  0
   57.7040   92.1420   22.7640 H   0  0  0  0  0  0  0  0  0  0  0  0
   57.2930   93.8000   22.2070 H   0  0  0  0  0  0  0  0  0  0  0  0
  2  7  1  0  0  0  0
  2  1  1  0  0  0  0
  3  2  2  0  0  0  0
  4  5  2  0  0  0  0
  4  3  1  0  0  0  0
  5  6  1  0  0  0  0
  6 30  1  0  0  0  0
  6  7  2  0  0  0  0
  7 31  1  0  0  0  0
  8  5  1  0  0  0  0
  8  9  2  0  0  0  0
 10  8  1  0  0  0  0
 11 10  1  0  0  0  0
 12 11  1  0  0  0  0
 12 14  1  0  0  0  0
 13 12  2  0  0  0  0
 14 15  1  0  0  0  0
 14 27  1  0  0  0  0
 15 16  1  0  0  0  0
 15 35  1  0  0  0  0
 16 37  1  0  0  0  0
 16 17  1  0  0  0  0
 17 25  1  0  0  0  0
 17 18  1  0  0  0  0
 18 19  1  0  0  0  0
 19 20  1  0  0  0  0
 19 40  1  0  0  0  0
 20 42  1  0  0  0  0
 21 22  1  0  0  0  0
 21 20  1  0  0  0  0
 23 22  2  0  0  0  0
 24 25  1  0  0  0  0
 24 23  1  0  0  0  0
 25 21  2  0  0  0  0
 26 17  1  0  0  0  0
 26 46  1  0  0  0  0
 26 47  1  0  0  0  0
 27 26  1  0  0  0  0
 28  3  1  0  0  0  0
 29  4  1  0  0  0  0
 32 10  1  0  0  0  0
 33 11  1  0  0  0  0
 34 11  1  0  0  0  0
 36 15  1  0  0  0  0
 38 16  1  0  0  0  0
 39 18  1  0  0  0  0
 41 19  1  0  0  0  0
 43 20  1  0  0  0  0
 44 23  1  0  0  0  0
 45 24  1  0  0  0  0
 48 27  1  0  0  0  0
 49 27  1  0  0  0  0
M  END
>  <Pose>
1

>  <Score>
-6.72

$$$$
