
 OpenBabel03202210083D

 52 55  0  0  0  0  0  0  0  0999 V2000
   53.5870   85.3300   20.1170 Cl  0  0  0  0  0  0  0  0  0  0  0  0
   54.4250   86.2590   21.3430 C   0  0  0  0  0  0  0  0  0  0  0  0
   55.0500   87.4410   20.9710 C   0  0  0  0  0  0  0  0  0  0  0  0
   55.7300   88.2240   21.8910 C   0  0  0  0  0  0  0  0  0  0  0  0
   55.7930   87.8270   23.2080 C   0  0  0  0  0  0  0  0  0  0  0  0
   55.1560   86.6360   23.5540 C   0  0  0  0  0  0  0  0  0  0  0  0
   54.4810   85.8520   22.6600 C   0  0  0  0  0  0  0  0  0  0  0  0
   56.4930   88.6090   24.2250 C   0  0  0  0  0  0  0  0  0  0  0  0
   57.3050   87.9990   24.9660 O   0  0  0  0  0  0  0  0  0  0  0  0
   56.2880   89.9790   24.3900 N   0  0  0  0  0  0  0  0  0  0  0  0
   55.1140   90.6850   23.9170 C   0  0  0  0  0  0  0  0  0  0  0  0
   55.4790   91.5390   22.7440 C   0  0  0  0  0  0  0  0  0  0  0  0
   54.6670   92.7730   22.6570 C   0  0  0  0  0  0  0  0  0  0  0  0
   53.7960   92.8470   21.7570 O   0  0  0  0  0  0  0  0  0  0  0  0
   54.8570   93.8470   23.5580 N   0  0  0  0  0  0  0  0  0  0  0  0
   56.0390   93.9830   24.3850 C   0  0  0  0  0  0  0  0  0  0  0  0
   55.6180   94.6460   25.6880 C   0  0  0  0  0  0  0  0  0  0  0  0
   55.1010   96.0590   25.4210 C   0  0  0  0  0  0  0  0  0  0  0  0
   54.0560   96.3030   26.3720 N   0  0  0  0  0  0  0  0  0  0  0  0
   53.8100   97.7170   26.5590 C   0  0  0  0  0  0  0  0  0  0  0  0
   54.9890   98.3180   27.3210 C   0  0  0  0  0  0  0  0  0  0  0  0
   56.1930   98.0910   26.4710 C   0  0  0  0  0  0  0  0  0  0  0  0
   57.3750   98.7690   26.3700 N   0  0  0  0  0  0  0  0  0  0  0  0
   58.1300   98.1470   25.4470 C   0  0  0  0  0  0  0  0  0  0  0  0
   57.4300   97.0980   24.9800 N   0  0  0  0  0  0  0  0  0  0  0  0
   56.2140   97.0290   25.5960 C   0  0  0  0  0  0  0  0  0  0  0  0
   54.5330   96.1670   24.0220 C   0  0  0  0  0  0  0  0  0  0  0  0
   53.8450   94.8770   23.6860 C   0  0  0  0  0  0  0  0  0  0  0  0
   54.9970   87.7470   19.9360 H   0  0  0  0  0  0  0  0  0  0  0  0
   56.2150   89.1590   21.5570 H   0  0  0  0  0  0  0  0  0  0  0  0
   55.2120   86.3350   24.5900 H   0  0  0  0  0  0  0  0  0  0  0  0
   53.9880   84.9310   22.9190 H   0  0  0  0  0  0  0  0  0  0  0  0
   56.9990   90.5760   24.8760 H   0  0  0  0  0  0  0  0  0  0  0  0
   54.8050   91.3690   24.7390 H   0  0  0  0  0  0  0  0  0  0  0  0
   54.2830   89.9950   23.7190 H   0  0  0  0  0  0  0  0  0  0  0  0
   56.5720   91.8180   22.8200 H   0  0  0  0  0  0  0  0  0  0  0  0
   55.4010   90.9510   21.8280 H   0  0  0  0  0  0  0  0  0  0  0  0
   56.3780   92.9530   24.6770 H   0  0  0  0  0  0  0  0  0  0  0  0
   56.8470   94.5230   23.8950 H   0  0  0  0  0  0  0  0  0  0  0  0
   54.8840   94.0470   26.2250 H   0  0  0  0  0  0  0  0  0  0  0  0
   56.5290   94.7550   26.3100 H   0  0  0  0  0  0  0  0  0  0  0  0
   53.1750   95.8170   26.1110 H   0  0  0  0  0  0  0  0  0  0  0  0
   53.8280   98.1940   25.5580 H   0  0  0  0  0  0  0  0  0  0  0  0
   52.8550   97.9320   27.0340 H   0  0  0  0  0  0  0  0  0  0  0  0
   54.7730   99.3900   27.4620 H   0  0  0  0  0  0  0  0  0  0  0  0
   55.1340   97.8060   28.2950 H   0  0  0  0  0  0  0  0  0  0  0  0
   57.5750   99.6160   26.9490 H   0  0  0  0  0  0  0  0  0  0  0  0
   59.1200   98.4850   25.1750 H   0  0  0  0  0  0  0  0  0  0  0  0
   53.8080   96.9800   23.9200 H   0  0  0  0  0  0  0  0  0  0  0  0
   55.3520   96.3210   23.2800 H   0  0  0  0  0  0  0  0  0  0  0  0
   53.2920   95.0350   22.7380 H   0  0  0  0  0  0  0  0  0  0  0  0
   53.1050   94.6000   24.4770 H   0  0  0  0  0  0  0  0  0  0  0  0
  1  2  1  0  0  0  0
  2  7  1  0  0  0  0
  3  2  2  0  0  0  0
  3  4  1  0  0  0  0
  4  5  2  0  0  0  0
  5  6  1  0  0  0  0
  5  8  1  0  0  0  0
  6 31  1  0  0  0  0
  7 32  1  0  0  0  0
  7  6  2  0  0  0  0
  8 10  1  0  0  0  0
  8  9  2  0  0  0  0
 10 33  1  0  0  0  0
 11 10  1  0  0  0  0
 11 34  1  0  0  0  0
 12 36  1  0  0  0  0
 12 11  1  0  0  0  0
 13 12  1  0  0  0  0
 13 15  1  0  0  0  0
 14 13  2  0  0  0  0
 15 28  1  0  0  0  0
 15 16  1  0  0  0  0
 16 38  1  0  0  0  0
 16 17  1  0  0  0  0
 17 40  1  0  0  0  0
 17 41  1  0  0  0  0
 18 26  1  0  0  0  0
 18 17  1  0  0  0  0
 18 19  1  0  0  0  0
 19 20  1  0  0  0  0
 20 44  1  0  0  0  0
 20 21  1  0  0  0  0
 21 45  1  0  0  0  0
 21 46  1  0  0  0  0
 22 21  1  0  0  0  0
 23 22  1  0  0  0  0
 23 47  1  0  0  0  0
 24 23  1  0  0  0  0
 25 24  2  0  0  0  0
 25 26  1  0  0  0  0
 26 22  2  0  0  0  0
 27 18  1  0  0  0  0
 28 27  1  0  0  0  0
 28 52  1  0  0  0  0
 29  3  1  0  0  0  0
 30  4  1  0  0  0  0
 35 11  1  0  0  0  0
 37 12  1  0  0  0  0
 39 16  1  0  0  0  0
 42 19  1  0  0  0  0
 43 20  1  0  0  0  0
 48 24  1  0  0  0  0
 49 27  1  0  0  0  0
 50 27  1  0  0  0  0
 51 28  1  0  0  0  0
M  END
>  <Pose>
1

>  <Score>
-7.94

$$$$
