
 OpenBabel03202210083D

 44 47  0  0  1  0  0  0  0  0999 V2000
   55.3990   97.9030   26.8900 B   0  0  0  0  0  0  0  0  0  0  0  0
   56.0480   96.5620   25.7060 C   0  0  0  0  0  0  0  0  0  0  0  0
   55.3510   95.3740   25.5030 C   0  0  0  0  0  0  0  0  0  0  0  0
   55.8270   94.4060   24.6430 C   0  0  0  0  0  0  0  0  0  0  0  0
   57.0290   94.6880   24.0030 C   0  0  0  0  0  0  0  0  0  0  0  0
   57.7290   95.8490   24.1900 C   0  0  0  0  0  0  0  0  0  0  0  0
   57.2370   96.8000   25.0510 C   0  0  0  0  0  0  0  0  0  0  0  0
   55.1520   93.1710   24.4020 N   0  0  0  0  0  0  0  0  0  0  0  0
   54.7080   92.7410   23.1210 C   0  0  0  0  0  0  0  0  0  0  0  0
   54.4820   93.5250   22.1680 O   0  0  0  0  0  0  0  0  0  0  0  0
   54.5880   91.2890   23.1820 C   0  0  2  0  0  0  0  0  0  0  0  0
   54.2530   91.0330   24.6360 C   0  0  0  0  0  0  0  0  0  0  0  0
   54.8210   92.1750   25.3770 C   0  0  0  0  0  0  0  0  0  0  0  0
   54.9900   92.2760   26.6210 O   0  0  0  0  0  0  0  0  0  0  0  0
   55.6960   90.5450   22.7330 N   0  0  0  0  0  0  0  0  0  0  0  0
   56.8810   91.2380   22.4290 C   0  0  0  0  0  0  0  0  0  0  0  0
   56.9290   91.4890   20.9160 C   0  0  0  0  0  0  0  0  0  0  0  0
   55.9860   90.6090   20.2430 N   0  0  0  0  0  0  0  0  0  0  0  0
   55.7300   89.2600   20.7050 C   0  0  0  0  0  0  0  0  0  0  0  0
   55.5330   89.2650   22.2030 C   0  0  0  0  0  0  0  0  0  0  0  0
   55.2510   91.0560   19.0950 C   0  0  0  0  0  0  0  0  0  0  0  0
   54.1170   91.7750   19.2330 N   0  0  0  0  0  0  0  0  0  0  0  0
   53.4400   92.2060   18.1500 C   0  0  0  0  0  0  0  0  0  0  0  0
   53.8810   91.9310   16.8610 C   0  0  0  0  0  0  0  0  0  0  0  0
   55.0450   91.1950   16.7270 C   0  0  0  0  0  0  0  0  0  0  0  0
   55.6750   90.7930   17.8460 N   0  0  0  0  0  0  0  0  0  0  0  0
   54.4240   95.2110   26.0260 H   0  0  0  0  0  0  0  0  0  0  0  0
   57.4130   93.9270   23.3240 H   0  0  0  0  0  0  0  0  0  0  0  0
   58.6760   96.0600   23.6810 H   0  0  0  0  0  0  0  0  0  0  0  0
   57.7950   97.7140   25.1940 H   0  0  0  0  0  0  0  0  0  0  0  0
   53.6840   90.9730   22.5880 H   0  0  0  0  0  0  0  0  0  0  0  0
   53.1580   91.0840   24.7510 H   0  0  0  0  0  0  0  0  0  0  0  0
   54.6660   90.0600   24.9810 H   0  0  0  0  0  0  0  0  0  0  0  0
   57.7560   90.5940   22.6580 H   0  0  0  0  0  0  0  0  0  0  0  0
   57.0250   92.1680   22.9570 H   0  0  0  0  0  0  0  0  0  0  0  0
   56.6230   92.5450   20.6990 H   0  0  0  0  0  0  0  0  0  0  0  0
   57.9110   91.2840   20.4830 H   0  0  0  0  0  0  0  0  0  0  0  0
   56.5670   88.5750   20.3850 H   0  0  0  0  0  0  0  0  0  0  0  0
   54.7610   88.8800   20.2750 H   0  0  0  0  0  0  0  0  0  0  0  0
   54.5780   88.7880   22.5050 H   0  0  0  0  0  0  0  0  0  0  0  0
   56.3480   88.6000   22.6190 H   0  0  0  0  0  0  0  0  0  0  0  0
   52.5240   92.7890   18.2440 H   0  0  0  0  0  0  0  0  0  0  0  0
   53.3090   92.2960   16.0010 H   0  0  0  0  0  0  0  0  0  0  0  0
   55.4260   90.9650   15.7240 H   0  0  0  0  0  0  0  0  0  0  0  0
  2  1  1  0  0  0  0
  3  2  1  0  0  0  0
  3 27  1  0  0  0  0
  4  3  2  0  0  0  0
  5  6  2  0  0  0  0
  5  4  1  0  0  0  0
  6  7  1  0  0  0  0
  7 30  1  0  0  0  0
  7  2  2  0  0  0  0
  8  4  1  0  0  0  0
  8 13  1  0  0  0  0
  9 11  1  0  0  0  0
  9  8  1  0  0  0  0
 10  9  2  0  0  0  0
 11 31  1  6  0  0  0
 11 12  1  0  0  0  0
 12 32  1  0  0  0  0
 12 33  1  0  0  0  0
 12 13  1  0  0  0  0
 13 14  2  0  0  0  0
 15 11  1  0  0  0  0
 16 34  1  0  0  0  0
 16 15  1  0  0  0  0
 16 35  1  0  0  0  0
 17 16  1  0  0  0  0
 18 19  1  0  0  0  0
 18 17  1  0  0  0  0
 19 20  1  0  0  0  0
 20 40  1  0  0  0  0
 20 41  1  0  0  0  0
 20 15  1  0  0  0  0
 21 22  2  0  0  0  0
 21 18  1  0  0  0  0
 23 42  1  0  0  0  0
 23 22  1  0  0  0  0
 24 23  2  0  0  0  0
 25 24  1  0  0  0  0
 25 26  2  0  0  0  0
 26 21  1  0  0  0  0
 28  5  1  0  0  0  0
 29  6  1  0  0  0  0
 36 17  1  0  0  0  0
 37 17  1  0  0  0  0
 38 19  1  0  0  0  0
 39 19  1  0  0  0  0
 43 24  1  0  0  0  0
 44 25  1  0  0  0  0
M  END
>  <Pose>
1

>  <Score>
-5.09

$$$$
