
 OpenBabel03202210083D

 46 49  0  0  1  0  0  0  0  0999 V2000
   52.4030   92.0500   18.8470 Cl  0  0  0  0  0  0  0  0  0  0  0  0
   53.6570   91.7640   20.0240 C   0  0  0  0  0  0  0  0  0  0  0  0
   54.5630   90.7550   19.7900 C   0  0  0  0  0  0  0  0  0  0  0  0
   55.5440   90.5410   20.7260 C   0  0  0  0  0  0  0  0  0  0  0  0
   55.5940   91.3450   21.8740 C   0  0  0  0  0  0  0  0  0  0  0  0
   54.7180   92.3530   22.1430 C   0  0  0  0  0  0  0  0  0  0  0  0
   53.7290   92.5260   21.1430 C   0  0  0  0  0  0  0  0  0  0  0  0
   54.7160   93.2070   23.3000 C   0  0  1  0  0  0  0  0  0  0  0  0
   53.5180   93.4150   23.8090 O   0  0  0  0  0  0  0  0  0  0  0  0
   55.7850   93.8760   24.0040 C   0  0  0  0  0  0  0  0  0  0  0  0
   55.5480   95.0420   24.7850 N   0  0  0  0  0  0  0  0  0  0  0  0
   56.4450   96.0480   25.0290 C   0  0  1  0  0  0  0  0  0  0  0  0
   55.8290   96.9120   25.8390 N   0  0  0  0  0  0  0  0  0  0  0  0
   54.5770   96.5250   26.1370 C   0  0  0  0  0  0  0  0  0  0  0  0
   54.4020   95.3310   25.4610 C   0  0  0  0  0  0  0  0  0  0  0  0
   53.5790   97.1810   26.9800 C   0  0  0  0  0  0  0  0  0  0  0  0
   52.4530   96.5740   27.4750 C   0  0  0  0  0  0  0  0  0  0  0  0
   51.5410   97.2700   28.2800 C   0  0  0  0  0  0  0  0  0  0  0  0
   51.7260   98.5930   28.6140 C   0  0  0  0  0  0  0  0  0  0  0  0
   52.8540   99.2120   28.1220 C   0  0  0  0  0  0  0  0  0  0  0  0
   53.7510   98.5250   27.3300 C   0  0  0  0  0  0  0  0  0  0  0  0
   50.8310   99.2940   29.4110 O   0  0  0  0  0  0  0  0  0  0  0  0
   50.1320  100.4110   28.8930 C   0  0  0  0  0  0  0  0  0  0  0  0
   56.7140   98.0280   26.1560 C   0  0  0  0  0  0  0  0  0  0  0  0
   57.9500   97.7980   25.3360 C   0  0  0  0  0  0  0  0  0  0  0  0
   57.8290   96.4630   24.6930 C   0  0  0  0  0  0  0  0  0  0  0  0
   54.4960   89.7550   18.3570 Cl  0  0  0  0  0  0  0  0  0  0  0  0
   56.2500   89.7590   20.5510 H   0  0  0  0  0  0  0  0  0  0  0  0
   56.3880   91.0990   22.5290 H   0  0  0  0  0  0  0  0  0  0  0  0
   52.9950   93.3020   21.2770 H   0  0  0  0  0  0  0  0  0  0  0  0
   56.3520   93.1250   24.6830 H   0  0  0  0  0  0  0  0  0  0  0  0
   56.6490   94.1160   23.2670 H   0  0  0  0  0  0  0  0  0  0  0  0
   53.5100   94.7080   25.4550 H   0  0  0  0  0  0  0  0  0  0  0  0
   52.2690   95.5480   27.2380 H   0  0  0  0  0  0  0  0  0  0  0  0
   50.6550   96.7800   28.6640 H   0  0  0  0  0  0  0  0  0  0  0  0
   53.0180  100.2600   28.3760 H   0  0  0  0  0  0  0  0  0  0  0  0
   54.6430   99.0200   26.9430 H   0  0  0  0  0  0  0  0  0  0  0  0
   49.3800  100.0100   28.1650 H   0  0  0  0  0  0  0  0  0  0  0  0
   49.6050  100.9300   29.7190 H   0  0  0  0  0  0  0  0  0  0  0  0
   50.8190  101.0910   28.3430 H   0  0  0  0  0  0  0  0  0  0  0  0
   56.2960   99.0100   25.8260 H   0  0  0  0  0  0  0  0  0  0  0  0
   56.9210   98.0580   27.2440 H   0  0  0  0  0  0  0  0  0  0  0  0
   58.0930   98.5700   24.5410 H   0  0  0  0  0  0  0  0  0  0  0  0
   58.8300   97.8660   26.0380 H   0  0  0  0  0  0  0  0  0  0  0  0
   57.9790   96.4680   23.5960 H   0  0  0  0  0  0  0  0  0  0  0  0
   58.5860   95.7560   25.1190 H   0  0  0  0  0  0  0  0  0  0  0  0
  1  2  1  0  0  0  0
  2  7  1  0  0  0  0
  3  2  2  0  0  0  0
  3  4  1  0  0  0  0
  4  5  2  0  0  0  0
  5  6  1  0  0  0  0
  5 29  1  0  0  0  0
  6  8  1  0  0  0  0
  7 30  1  0  0  0  0
  7  6  2  0  0  0  0
  8  9  1  1  0  0  0
  8 10  1  0  0  0  0
 10 31  1  0  0  0  0
 10 11  1  0  0  0  0
 11 12  1  0  0  0  0
 11 15  1  0  0  0  0
 12 26  1  1  0  0  0
 12 13  1  0  0  0  0
 13 14  1  0  0  0  0
 13 24  1  0  0  0  0
 14 16  1  0  0  0  0
 15 14  2  0  0  0  0
 16 21  2  0  0  0  0
 16 17  1  0  0  0  0
 17 18  2  0  0  0  0
 18 19  1  0  0  0  0
 18 35  1  0  0  0  0
 19 22  1  0  0  0  0
 20 36  1  0  0  0  0
 20 19  2  0  0  0  0
 21 20  1  0  0  0  0
 23 22  1  0  0  0  0
 23 39  1  0  0  0  0
 24 42  1  0  0  0  0
 25 44  1  0  0  0  0
 25 24  1  0  0  0  0
 26 46  1  0  0  0  0
 26 25  1  0  0  0  0
 27  3  1  0  0  0  0
 28  4  1  0  0  0  0
 32 10  1  0  0  0  0
 33 15  1  0  0  0  0
 34 17  1  0  0  0  0
 37 21  1  0  0  0  0
 38 23  1  0  0  0  0
 40 23  1  0  0  0  0
 41 24  1  0  0  0  0
 43 25  1  0  0  0  0
 45 26  1  0  0  0  0
M  END
>  <Pose>
1

>  <Score>
-7.62

$$$$
