
 OpenBabel03202210083D

 44 47  0  0  1  0  0  0  0  0999 V2000
   51.8830  101.0120   26.1590 Cl  0  0  0  0  0  0  0  0  0  0  0  0
   52.2630   99.4480   26.8070 C   0  0  0  0  0  0  0  0  0  0  0  0
   51.6500   98.9940   27.9430 C   0  0  0  0  0  0  0  0  0  0  0  0
   51.9920   97.7470   28.4110 C   0  0  0  0  0  0  0  0  0  0  0  0
   52.9200   96.9860   27.7520 C   0  0  0  0  0  0  0  0  0  0  0  0
   53.5650   97.4170   26.5890 C   0  0  0  0  0  0  0  0  0  0  0  0
   53.2160   98.6490   26.1450 C   0  0  0  0  0  0  0  0  0  0  0  0
   54.5640   96.5670   25.9390 C   0  0  0  0  0  0  0  0  0  0  0  0
   55.8580   96.7940   25.6630 N   0  0  0  0  0  0  0  0  0  0  0  0
   56.3850   95.7130   25.0510 C   0  0  2  0  0  0  0  0  0  0  0  0
   55.4140   94.7890   24.9350 N   0  0  0  0  0  0  0  0  0  0  0  0
   54.2620   95.2780   25.4740 C   0  0  0  0  0  0  0  0  0  0  0  0
   55.5600   93.4920   24.3830 C   0  0  0  0  0  0  0  0  0  0  0  0
   54.9280   93.0750   23.1640 C   0  0  2  0  0  0  0  0  0  0  0  0
   53.9890   93.9190   22.7860 O   0  0  0  0  0  0  0  0  0  0  0  0
   55.1210   91.9360   22.2980 C   0  0  0  0  0  0  0  0  0  0  0  0
   54.8300   91.9070   20.9610 C   0  0  0  0  0  0  0  0  0  0  0  0
   55.0450   90.7660   20.1820 C   0  0  0  0  0  0  0  0  0  0  0  0
   55.5540   89.6410   20.7470 C   0  0  0  0  0  0  0  0  0  0  0  0
   55.8550   89.6420   22.0920 C   0  0  0  0  0  0  0  0  0  0  0  0
   55.6500   90.7540   22.8630 C   0  0  0  0  0  0  0  0  0  0  0  0
   54.7210   90.8010   18.7910 N   0  0  0  0  0  0  0  0  0  0  0  0
   53.5450   90.6170   18.4330 O   0  0  0  0  0  0  0  0  0  0  0  0
   55.6630   91.0300   17.8400 O   0  0  0  0  0  0  0  0  0  0  0  0
   57.8170   95.9460   24.7520 C   0  0  0  0  0  0  0  0  0  0  0  0
   57.7990   97.4430   24.5820 C   0  0  0  0  0  0  0  0  0  0  0  0
   56.9080   97.8130   25.7800 C   0  0  0  0  0  0  0  0  0  0  0  0
   50.4630   99.9590   28.7930 Cl  0  0  0  0  0  0  0  0  0  0  0  0
   51.5240   97.3470   29.3170 H   0  0  0  0  0  0  0  0  0  0  0  0
   53.1640   96.0160   28.1420 H   0  0  0  0  0  0  0  0  0  0  0  0
   53.6690   99.0620   25.2700 H   0  0  0  0  0  0  0  0  0  0  0  0
   53.3290   94.7690   25.5250 H   0  0  0  0  0  0  0  0  0  0  0  0
   55.2730   92.7100   25.1750 H   0  0  0  0  0  0  0  0  0  0  0  0
   56.6830   93.2990   24.2400 H   0  0  0  0  0  0  0  0  0  0  0  0
   54.4220   92.7710   20.4610 H   0  0  0  0  0  0  0  0  0  0  0  0
   55.7150   88.7540   20.1150 H   0  0  0  0  0  0  0  0  0  0  0  0
   56.2690   88.7300   22.5470 H   0  0  0  0  0  0  0  0  0  0  0  0
   55.9040   90.7060   23.9230 H   0  0  0  0  0  0  0  0  0  0  0  0
   58.4150   95.6540   25.6460 H   0  0  0  0  0  0  0  0  0  0  0  0
   58.1580   95.4330   23.8340 H   0  0  0  0  0  0  0  0  0  0  0  0
   57.1910   97.6690   23.6890 H   0  0  0  0  0  0  0  0  0  0  0  0
   58.7650   97.9200   24.6210 H   0  0  0  0  0  0  0  0  0  0  0  0
   57.4770   97.6100   26.6810 H   0  0  0  0  0  0  0  0  0  0  0  0
   56.5350   98.8430   25.6470 H   0  0  0  0  0  0  0  0  0  0  0  0
  1  2  1  0  0  0  0
  2  3  1  0  0  0  0
  3  4  2  0  0  0  0
  3 28  1  0  0  0  0
  4 29  1  0  0  0  0
  5 30  1  0  0  0  0
  5  4  1  0  0  0  0
  6  5  2  0  0  0  0
  7  6  1  0  0  0  0
  7  2  2  0  0  0  0
  8  6  1  0  0  0  0
  9 27  1  0  0  0  0
  9  8  1  0  0  0  0
 10 25  1  1  0  0  0
 10  9  1  0  0  0  0
 11 10  1  0  0  0  0
 11 12  1  0  0  0  0
 12 32  1  0  0  0  0
 12  8  2  0  0  0  0
 13 11  1  0  0  0  0
 13 33  1  0  0  0  0
 14 15  1  1  0  0  0
 14 13  1  0  0  0  0
 16 21  1  0  0  0  0
 16 14  1  0  0  0  0
 17 16  2  0  0  0  0
 18 19  2  0  0  0  0
 18 17  1  0  0  0  0
 19 20  1  0  0  0  0
 20 37  1  0  0  0  0
 20 21  2  0  0  0  0
 21 38  1  0  0  0  0
 22 18  1  0  0  0  0
 23 22  2  0  0  0  0
 24 22  2  0  0  0  0
 25 39  1  0  0  0  0
 26 42  1  0  0  0  0
 26 25  1  0  0  0  0
 26 27  1  0  0  0  0
 27 43  1  0  0  0  0
 31  7  1  0  0  0  0
 34 13  1  0  0  0  0
 35 17  1  0  0  0  0
 36 19  1  0  0  0  0
 40 25  1  0  0  0  0
 41 26  1  0  0  0  0
 44 27  1  0  0  0  0
M  END
>  <Pose>
1

>  <Score>
-7.57

$$$$
