
 OpenBabel03202210083D

 60 63  0  0  1  0  0  0  0  0999 V2000
   56.8430   85.9710   24.8350 Cl  0  0  0  0  0  0  0  0  0  0  0  0
   56.3700   87.4190   23.9490 C   0  0  0  0  0  0  0  0  0  0  0  0
   56.0870   88.6020   24.6070 C   0  0  0  0  0  0  0  0  0  0  0  0
   55.7170   89.7260   23.9000 C   0  0  0  0  0  0  0  0  0  0  0  0
   55.6100   89.7410   22.5260 C   0  0  0  0  0  0  0  0  0  0  0  0
   55.9000   88.5340   21.8760 C   0  0  0  0  0  0  0  0  0  0  0  0
   56.2690   87.4110   22.5800 C   0  0  0  0  0  0  0  0  0  0  0  0
   55.2100   90.9650   21.7900 C   0  0  2  0  0  0  0  0  0  0  0  0
   55.9190   90.9100   20.5050 N   0  0  0  0  0  0  0  0  0  0  0  0
   57.2780   91.1680   20.8240 C   0  0  0  0  0  0  0  0  0  0  0  0
   58.2770   90.7780   20.1980 O   0  0  0  0  0  0  0  0  0  0  0  0
   57.2660   91.9830   22.0350 C   0  0  0  0  0  0  0  0  0  0  0  0
   58.2220   92.4660   22.7110 O   0  0  0  0  0  0  0  0  0  0  0  0
   55.8500   92.1750   22.3830 C   0  0  0  0  0  0  0  0  0  0  0  0
   55.3380   93.1730   23.0760 C   0  0  0  0  0  0  0  0  0  0  0  0
   53.9660   93.1600   23.3440 O   0  0  0  0  0  0  0  0  0  0  0  0
   56.1340   94.2870   23.5700 C   0  0  0  0  0  0  0  0  0  0  0  0
   56.7860   95.1640   22.7180 C   0  0  0  0  0  0  0  0  0  0  0  0
   57.5610   96.2020   23.1900 C   0  0  0  0  0  0  0  0  0  0  0  0
   57.7170   96.4070   24.5540 C   0  0  0  0  0  0  0  0  0  0  0  0
   57.0750   95.5430   25.4110 C   0  0  0  0  0  0  0  0  0  0  0  0
   56.2920   94.4940   24.9200 C   0  0  0  0  0  0  0  0  0  0  0  0
   58.4960   97.4510   25.0470 O   0  0  0  0  0  0  0  0  0  0  0  0
   57.8950   98.4260   25.8530 C   0  0  0  0  0  0  0  0  0  0  0  0
   58.2400   97.1130   22.2420 C   0  0  0  0  0  0  0  0  0  0  0  0
   55.3390   90.6430   19.1880 C   0  0  0  0  0  0  0  0  0  0  0  0
   54.5180   89.3820   19.3280 C   0  0  0  0  0  0  0  0  0  0  0  0
   53.4640   89.2970   18.3540 N   0  0  0  0  0  4  0  0  0  0  0  0
   53.7370   90.1330   17.2300 C   0  0  0  0  0  0  0  0  0  0  0  0
   53.1010   91.4830   17.2470 C   0  0  0  0  0  0  0  0  0  0  0  0
   51.8820   91.5480   17.8650 O   0  0  0  0  0  0  0  0  0  0  0  0
   51.8880   91.0180   19.1480 C   0  0  0  0  0  0  0  0  0  0  0  0
   52.2130   89.5540   19.0110 C   0  0  0  0  0  0  0  0  0  0  0  0
   56.1590   88.6280   25.6820 H   0  0  0  0  0  0  0  0  0  0  0  0
   55.4860   90.6790   24.3950 H   0  0  0  0  0  0  0  0  0  0  0  0
   55.8140   88.5560   20.7990 H   0  0  0  0  0  0  0  0  0  0  0  0
   56.4880   86.4980   22.0580 H   0  0  0  0  0  0  0  0  0  0  0  0
   54.1290   91.0660   21.6620 H   0  0  0  0  0  0  0  0  0  0  0  0
   56.6460   94.9790   21.6430 H   0  0  0  0  0  0  0  0  0  0  0  0
   57.1910   95.6950   26.4940 H   0  0  0  0  0  0  0  0  0  0  0  0
   55.8290   93.8400   25.6400 H   0  0  0  0  0  0  0  0  0  0  0  0
   57.1140   98.9890   25.2670 H   0  0  0  0  0  0  0  0  0  0  0  0
   58.6290   99.2050   26.1540 H   0  0  0  0  0  0  0  0  0  0  0  0
   57.4580   98.0120   26.7860 H   0  0  0  0  0  0  0  0  0  0  0  0
   59.3060   96.7870   22.0680 H   0  0  0  0  0  0  0  0  0  0  0  0
   58.2980   98.1500   22.6260 H   0  0  0  0  0  0  0  0  0  0  0  0
   57.7340   97.1040   21.2480 H   0  0  0  0  0  0  0  0  0  0  0  0
   56.1170   90.4550   18.4300 H   0  0  0  0  0  0  0  0  0  0  0  0
   54.7540   91.5070   18.8800 H   0  0  0  0  0  0  0  0  0  0  0  0
   55.1630   88.4890   19.2250 H   0  0  0  0  0  0  0  0  0  0  0  0
   54.0370   89.3000   20.3300 H   0  0  0  0  0  0  0  0  0  0  0  0
   53.4750   88.2950   18.0110 H   0  0  0  0  0  0  0  0  0  0  0  0
   53.3580   89.6100   16.3020 H   0  0  0  0  0  0  0  0  0  0  0  0
   54.8490   90.1870   17.0650 H   0  0  0  0  0  0  0  0  0  0  0  0
   52.9870   91.8830   16.2100 H   0  0  0  0  0  0  0  0  0  0  0  0
   53.8140   92.1940   17.7590 H   0  0  0  0  0  0  0  0  0  0  0  0
   50.8210   91.0700   19.5020 H   0  0  0  0  0  0  0  0  0  0  0  0
   52.5580   91.5550   19.8350 H   0  0  0  0  0  0  0  0  0  0  0  0
   52.1870   89.1340   20.0490 H   0  0  0  0  0  0  0  0  0  0  0  0
   51.3490   89.0790   18.4860 H   0  0  0  0  0  0  0  0  0  0  0  0
  2  3  1  0  0  0  0
  2  1  1  0  0  0  0
  3 34  1  0  0  0  0
  4 35  1  0  0  0  0
  4  3  2  0  0  0  0
  5  4  1  0  0  0  0
  6  5  2  0  0  0  0
  6  7  1  0  0  0  0
  7  2  2  0  0  0  0
  8 38  1  6  0  0  0
  8 14  1  0  0  0  0
  8  5  1  0  0  0  0
  9 10  1  0  0  0  0
  9  8  1  0  0  0  0
 10 12  1  0  0  0  0
 11 10  2  0  0  0  0
 12 14  1  0  0  0  0
 12 13  2  0  0  0  0
 14 15  2  0  0  0  0
 15 16  1  0  0  0  0
 15 17  1  0  0  0  0
 17 22  1  0  0  0  0
 18 19  1  0  0  0  0
 18 17  2  0  0  0  0
 19 20  2  0  0  0  0
 20 23  1  0  0  0  0
 20 21  1  0  0  0  0
 21 40  1  0  0  0  0
 22 21  2  0  0  0  0
 22 41  1  0  0  0  0
 23 24  1  0  0  0  0
 24 43  1  0  0  0  0
 24 44  1  0  0  0  0
 25 46  1  0  0  0  0
 25 19  1  0  0  0  0
 26 27  1  0  0  0  0
 26  9  1  0  0  0  0
 27 51  1  0  0  0  0
 28 33  1  0  0  0  0
 28 27  1  0  0  0  0
 29 30  1  0  0  0  0
 29 28  1  0  0  0  0
 30 56  1  0  0  0  0
 30 31  1  0  0  0  0
 31 32  1  0  0  0  0
 32 57  1  0  0  0  0
 32 58  1  0  0  0  0
 33 32  1  0  0  0  0
 33 59  1  0  0  0  0
 36  6  1  0  0  0  0
 37  7  1  0  0  0  0
 39 18  1  0  0  0  0
 42 24  1  0  0  0  0
 45 25  1  0  0  0  0
 47 25  1  0  0  0  0
 48 26  1  0  0  0  0
 49 26  1  0  0  0  0
 50 27  1  0  0  0  0
 52 28  1  0  0  0  0
 53 29  1  0  0  0  0
 54 29  1  0  0  0  0
 55 30  1  0  0  0  0
 60 33  1  0  0  0  0
M  END
>  <Pose>
1

>  <Score>
-4.41

$$$$
