
 OpenBabel03202210083D

 39 42  0  0  1  0  0  0  0  0999 V2000
   53.1000   85.6420   20.3650 B   0  0  0  0  0  0  0  0  0  0  0  0
   54.4910   86.8170   20.9540 C   0  0  0  0  0  0  0  0  0  0  0  0
   54.6460   88.0740   20.3610 C   0  0  0  0  0  0  0  0  0  0  0  0
   55.6460   88.9330   20.7790 C   0  0  0  0  0  0  0  0  0  0  0  0
   56.4760   88.5070   21.7960 C   0  0  0  0  0  0  0  0  0  0  0  0
   56.3140   87.2580   22.3810 C   0  0  0  0  0  0  0  0  0  0  0  0
   55.3190   86.4050   21.9620 C   0  0  0  0  0  0  0  0  0  0  0  0
   57.4990   86.7160   23.7990 B   0  0  0  0  0  0  0  0  0  0  0  0
   55.8430   90.2910   20.1520 C   0  0  1  0  0  0  0  0  0  0  0  0
   55.1210   90.3490   18.9370 N   0  0  0  0  0  4  0  0  0  0  0  0
   54.2990   91.5040   18.7240 C   0  0  2  0  0  0  0  0  0  0  0  0
   53.3440   91.6650   19.9190 C   0  0  0  0  0  0  0  0  0  0  0  0
   54.2450   91.9390   21.0550 C   0  0  0  0  0  0  0  0  0  0  0  0
   54.1320   92.8060   22.1300 C   0  0  0  0  0  0  0  0  0  0  0  0
   55.2780   92.6520   22.8770 C   0  0  0  0  0  0  0  0  0  0  0  0
   56.0710   91.7360   22.3000 N   0  0  0  0  0  0  0  0  0  0  0  0
   55.4350   91.2890   21.1670 C   0  0  0  0  0  0  0  0  0  0  0  0
   55.4100   93.4200   24.0200 C   0  0  0  0  0  0  0  0  0  0  0  0
   54.4040   94.2910   24.3560 C   0  0  0  0  0  0  0  0  0  0  0  0
   53.2590   94.4420   23.6070 C   0  0  0  0  0  0  0  0  0  0  0  0
   53.1120   93.6750   22.4530 C   0  0  0  0  0  0  0  0  0  0  0  0
   53.5430   91.3550   17.4640 C   0  0  0  0  0  0  0  0  0  0  0  0
   53.0490   92.3790   16.9250 O   0  0  0  0  0  0  0  0  0  0  0  0
   53.3900   90.0980   16.9030 O   0  0  0  0  0  0  0  0  0  0  0  0
   53.7620   88.3840   19.3620 O   0  0  0  0  0  0  0  0  0  0  0  0
   57.2830   89.1410   22.1670 H   0  0  0  0  0  0  0  0  0  0  0  0
   55.1830   85.4230   22.4150 H   0  0  0  0  0  0  0  0  0  0  0  0
   56.9560   90.3730   19.9990 H   0  0  0  0  0  0  0  0  0  0  0  0
   55.8330   90.3260   18.1390 H   0  0  0  0  0  0  0  0  0  0  0  0
   54.5100   89.5130   18.7570 H   0  0  0  0  0  0  0  0  0  0  0  0
   54.9630   92.3970   18.6920 H   0  0  0  0  0  0  0  0  0  0  0  0
   52.6470   92.5020   19.7130 H   0  0  0  0  0  0  0  0  0  0  0  0
   52.8190   90.6950   19.9900 H   0  0  0  0  0  0  0  0  0  0  0  0
   57.0130   91.3840   22.6110 H   0  0  0  0  0  0  0  0  0  0  0  0
   56.3140   93.3020   24.6150 H   0  0  0  0  0  0  0  0  0  0  0  0
   54.5180   94.8950   25.2640 H   0  0  0  0  0  0  0  0  0  0  0  0
   52.4550   95.1430   23.8800 H   0  0  0  0  0  0  0  0  0  0  0  0
   52.2390   93.7470   21.8210 H   0  0  0  0  0  0  0  0  0  0  0  0
   52.7860   88.2620   19.3780 H   0  0  0  0  0  0  0  0  0  0  0  0
  1  2  1  0  0  0  0
  2  7  1  0  0  0  0
  3  4  1  0  0  0  0
  3  2  2  0  0  0  0
  4  5  2  0  0  0  0
  5 26  1  0  0  0  0
  5  6  1  0  0  0  0
  6  8  1  0  0  0  0
  7  6  2  0  0  0  0
  7 27  1  0  0  0  0
  9 28  1  6  0  0  0
  9  4  1  0  0  0  0
  9 17  1  0  0  0  0
 10  9  1  0  0  0  0
 11 31  1  6  0  0  0
 11 10  1  0  0  0  0
 11 12  1  0  0  0  0
 12 33  1  0  0  0  0
 12 13  1  0  0  0  0
 13 17  2  0  0  0  0
 13 14  1  0  0  0  0
 14 21  2  0  0  0  0
 14 15  1  0  0  0  0
 15 18  2  0  0  0  0
 16 34  1  0  0  0  0
 16 15  1  0  0  0  0
 17 16  1  0  0  0  0
 18 19  1  0  0  0  0
 18 35  1  0  0  0  0
 19 36  1  0  0  0  0
 20 37  1  0  0  0  0
 20 19  2  0  0  0  0
 21 20  1  0  0  0  0
 22 11  1  0  0  0  0
 23 22  1  0  0  0  0
 24 22  2  0  0  0  0
 25 39  1  0  0  0  0
 25  3  1  0  0  0  0
 29 10  1  0  0  0  0
 30 10  1  0  0  0  0
 32 12  1  0  0  0  0
 38 21  1  0  0  0  0
M  END
>  <Pose>
1

>  <Score>
-5.47

$$$$
