
 OpenBabel03202210083D

 46 49  0  0  1  0  0  0  0  0999 V2000
   56.9470   86.3550   21.6480 Cl  0  0  0  0  0  0  0  0  0  0  0  0
   56.4510   87.8940   22.3380 C   0  0  0  0  0  0  0  0  0  0  0  0
   56.2600   88.9500   21.4760 C   0  0  0  0  0  0  0  0  0  0  0  0
   55.8770   90.1360   22.0130 N   0  0  0  0  0  0  0  0  0  0  0  0
   55.6860   90.2950   23.3320 C   0  0  0  0  0  0  0  0  0  0  0  0
   55.3060   91.4680   23.8720 N   0  0  0  0  0  0  0  0  0  0  0  0
   55.0880   92.5700   23.1320 C   0  0  0  0  0  0  0  0  0  0  0  0
   55.2850   92.4070   21.7720 C   0  0  0  0  0  0  0  0  0  0  0  0
   55.6740   91.2070   21.2200 C   0  0  0  0  0  0  0  0  0  0  0  0
   55.8430   91.1030   19.9650 O   0  0  0  0  0  0  0  0  0  0  0  0
   54.6740   93.8680   23.6820 C   0  0  0  0  0  0  0  0  0  0  0  0
   55.2340   94.2310   24.9170 N   0  0  0  0  0  0  0  0  0  0  0  0
   56.3110   95.1300   24.9290 C   0  0  0  0  0  0  0  0  0  0  0  0
   55.9670   96.5560   25.2010 C   0  0  0  0  0  0  0  0  0  0  0  0
   54.7680   96.6860   26.0160 N   0  0  0  0  0  0  0  0  0  0  0  0
   54.2490   97.8240   26.4740 N   0  0  0  0  0  0  0  0  0  0  0  0
   53.1500   97.5520   27.1840 C   0  0  0  0  0  0  0  0  0  0  0  0
   52.9850   96.1900   27.1620 C   0  0  0  0  0  0  0  0  0  0  0  0
   54.0280   95.6390   26.4110 C   0  0  0  0  0  0  0  0  0  0  0  0
   54.3720   94.2420   26.0450 C   0  0  0  0  0  0  0  0  0  0  0  0
   52.2720   98.5520   27.8690 C   0  0  1  0  0  0  0  0  0  0  0  0
   53.0450   99.1980   28.8480 O   0  0  0  0  0  0  0  0  0  0  0  0
   51.8560   99.6410   26.8840 C   0  0  0  0  0  0  0  0  0  0  0  0
   50.7380  100.4560   27.5170 C   0  0  0  0  0  0  0  0  0  0  0  0
   55.8790   89.2260   24.2130 C   0  0  0  0  0  0  0  0  0  0  0  0
   56.2660   88.0130   23.7000 C   0  0  0  0  0  0  0  0  0  0  0  0
   56.4060   88.8450   20.4270 H   0  0  0  0  0  0  0  0  0  0  0  0
   55.1230   93.2720   21.1190 H   0  0  0  0  0  0  0  0  0  0  0  0
   54.9180   94.6630   22.9320 H   0  0  0  0  0  0  0  0  0  0  0  0
   53.5490   93.9120   23.7700 H   0  0  0  0  0  0  0  0  0  0  0  0
   57.0240   94.8120   25.7480 H   0  0  0  0  0  0  0  0  0  0  0  0
   56.8980   95.0050   23.9930 H   0  0  0  0  0  0  0  0  0  0  0  0
   55.8540   97.0900   24.2400 H   0  0  0  0  0  0  0  0  0  0  0  0
   56.8020   97.0930   25.7370 H   0  0  0  0  0  0  0  0  0  0  0  0
   52.2050   95.6130   27.6290 H   0  0  0  0  0  0  0  0  0  0  0  0
   54.9180   93.7450   26.9000 H   0  0  0  0  0  0  0  0  0  0  0  0
   53.4710   93.6400   25.8110 H   0  0  0  0  0  0  0  0  0  0  0  0
   51.3850   98.0960   28.3230 H   0  0  0  0  0  0  0  0  0  0  0  0
   52.7260   98.9550   29.7650 H   0  0  0  0  0  0  0  0  0  0  0  0
   51.4500   99.1400   26.0030 H   0  0  0  0  0  0  0  0  0  0  0  0
   52.6880  100.2840   26.5930 H   0  0  0  0  0  0  0  0  0  0  0  0
   50.5780  100.1360   28.5610 H   0  0  0  0  0  0  0  0  0  0  0  0
   50.9370  101.5510   27.4470 H   0  0  0  0  0  0  0  0  0  0  0  0
   49.7640  100.2980   26.9740 H   0  0  0  0  0  0  0  0  0  0  0  0
   55.7170   89.3860   25.2730 H   0  0  0  0  0  0  0  0  0  0  0  0
   56.4170   87.1840   24.3780 H   0  0  0  0  0  0  0  0  0  0  0  0
  1  2  1  0  0  0  0
  2 26  2  0  0  0  0
  3  4  1  0  0  0  0
  3  2  1  0  0  0  0
  4  5  1  0  0  0  0
  5  6  1  0  0  0  0
  5 25  2  0  0  0  0
  7 11  1  0  0  0  0
  7  6  2  0  0  0  0
  8  7  1  0  0  0  0
  9  8  1  0  0  0  0
  9  4  1  0  0  0  0
 10  9  2  0  0  0  0
 11 30  1  0  0  0  0
 11 12  1  0  0  0  0
 12 13  1  0  0  0  0
 12 20  1  0  0  0  0
 13 14  1  0  0  0  0
 13 31  1  0  0  0  0
 14 34  1  0  0  0  0
 14 15  1  0  0  0  0
 15 19  1  0  0  0  0
 15 16  1  0  0  0  0
 16 17  2  0  0  0  0
 17 21  1  0  0  0  0
 18 17  1  0  0  0  0
 18 35  1  0  0  0  0
 19 18  2  0  0  0  0
 20 19  1  0  0  0  0
 20 36  1  0  0  0  0
 21 38  1  1  0  0  0
 21 22  1  0  0  0  0
 22 39  1  0  0  0  0
 23 24  1  0  0  0  0
 23 21  1  0  0  0  0
 24 42  1  0  0  0  0
 25 45  1  0  0  0  0
 26 25  1  0  0  0  0
 26 46  1  0  0  0  0
 27  3  1  0  0  0  0
 28  8  1  0  0  0  0
 29 11  1  0  0  0  0
 32 13  1  0  0  0  0
 33 14  1  0  0  0  0
 37 20  1  0  0  0  0
 40 23  1  0  0  0  0
 41 23  1  0  0  0  0
 43 24  1  0  0  0  0
 44 24  1  0  0  0  0
M  END
>  <Pose>
1

>  <Score>
-6.75

$$$$
