
 OpenBabel03202210083D

 45 48  0  0  1  0  0  0  0  0999 V2000
   57.8530   95.6180   24.2720 Cl  0  0  0  0  0  0  0  0  0  0  0  0
   56.5410   96.1380   25.3400 C   0  0  0  0  0  0  0  0  0  0  0  0
   56.5740   97.3520   25.9450 C   0  0  0  0  0  0  0  0  0  0  0  0
   55.5240   97.7330   26.7820 C   0  0  0  0  0  0  0  0  0  0  0  0
   54.4260   96.9520   27.0460 C   0  0  0  0  0  0  0  0  0  0  0  0
   54.4470   95.7060   26.3930 C   0  0  0  0  0  0  0  0  0  0  0  0
   55.4740   95.3090   25.5630 C   0  0  0  0  0  0  0  0  0  0  0  0
   53.2920   97.2830   27.8630 C   0  0  0  0  0  0  0  0  0  0  0  0
   53.3800   96.7700   29.0800 O   0  0  0  0  0  0  0  0  0  0  0  0
   52.1340   98.0350   27.6040 N   0  0  0  0  0  0  0  0  0  0  0  0
   52.0860   99.4530   27.5450 C   0  0  0  0  0  0  0  0  0  0  0  0
   50.7060   99.8810   27.0190 C   0  0  1  0  0  0  0  0  0  0  0  0
   49.7510   99.3240   27.9410 N   0  0  0  0  0  0  0  0  0  0  0  0
   49.7220   97.9060   28.0800 C   0  0  0  0  0  0  0  0  0  0  0  0
   50.9100   97.2630   27.3950 C   0  0  0  0  0  0  0  0  0  0  0  0
   48.8840  100.1520   28.6740 C   0  0  0  0  0  0  0  0  0  0  0  0
   47.8440   99.6640   29.1500 O   0  0  0  0  0  0  0  0  0  0  0  0
   49.2400  101.5750   28.8550 C   0  0  1  0  0  0  0  0  0  0  0  0
   49.6330  102.0710   27.5680 N   0  0  0  0  0  0  0  0  0  0  0  0
   50.5950  101.3280   26.8410 C   0  0  0  0  0  0  0  0  0  0  0  0
   51.3840  101.8880   26.0170 O   0  0  0  0  0  0  0  0  0  0  0  0
   48.2050  102.3740   29.5500 C   0  0  0  0  0  0  0  0  0  0  0  0
   48.8320  103.2500   30.5530 C   0  0  0  0  0  0  0  0  0  0  0  0
   49.7140  102.9330   31.5030 N   0  0  0  0  0  0  0  0  0  0  0  0
   50.0320  104.0540   32.2150 C   0  0  0  0  0  0  0  0  0  0  0  0
   49.3480  105.0850   31.7140 N   0  0  0  0  0  0  0  0  0  0  0  0
   48.6090  104.6200   30.7010 C   0  0  0  0  0  0  0  0  0  0  0  0
   57.4110   97.9960   25.7670 H   0  0  0  0  0  0  0  0  0  0  0  0
   55.6160   98.6920   27.2450 H   0  0  0  0  0  0  0  0  0  0  0  0
   53.6030   95.0320   26.5570 H   0  0  0  0  0  0  0  0  0  0  0  0
   55.3930   94.3200   25.1040 H   0  0  0  0  0  0  0  0  0  0  0  0
   52.8630   99.8900   26.8830 H   0  0  0  0  0  0  0  0  0  0  0  0
   52.2310   99.8540   28.5630 H   0  0  0  0  0  0  0  0  0  0  0  0
   50.5950   99.3560   26.0460 H   0  0  0  0  0  0  0  0  0  0  0  0
   48.7920   97.5280   27.6080 H   0  0  0  0  0  0  0  0  0  0  0  0
   49.7170   97.5450   29.1290 H   0  0  0  0  0  0  0  0  0  0  0  0
   51.0770   96.2510   27.7890 H   0  0  0  0  0  0  0  0  0  0  0  0
   50.7010   97.2050   26.3130 H   0  0  0  0  0  0  0  0  0  0  0  0
   50.1750  101.6720   29.4990 H   0  0  0  0  0  0  0  0  0  0  0  0
   49.2370  102.9530   27.1570 H   0  0  0  0  0  0  0  0  0  0  0  0
   47.5970  102.9420   28.8110 H   0  0  0  0  0  0  0  0  0  0  0  0
   47.4700  101.6710   30.0290 H   0  0  0  0  0  0  0  0  0  0  0  0
   50.7390  104.0370   33.0460 H   0  0  0  0  0  0  0  0  0  0  0  0
   49.3780  106.0540   32.0420 H   0  0  0  0  0  0  0  0  0  0  0  0
   47.9260  105.1520   30.0530 H   0  0  0  0  0  0  0  0  0  0  0  0
  1  2  1  0  0  0  0
  2  7  2  0  0  0  0
  2  3  1  0  0  0  0
  3  4  2  0  0  0  0
  4  5  1  0  0  0  0
  4 29  1  0  0  0  0
  5  8  1  0  0  0  0
  6 30  1  0  0  0  0
  6  5  2  0  0  0  0
  7  6  1  0  0  0  0
  8  9  2  0  0  0  0
 10  8  1  0  0  0  0
 11 10  1  0  0  0  0
 11 33  1  0  0  0  0
 12 34  1  6  0  0  0
 12 11  1  0  0  0  0
 12 13  1  0  0  0  0
 13 14  1  0  0  0  0
 13 16  1  0  0  0  0
 14 36  1  0  0  0  0
 15 10  1  0  0  0  0
 15 37  1  0  0  0  0
 15 14  1  0  0  0  0
 16 18  1  0  0  0  0
 16 17  2  0  0  0  0
 18 39  1  1  0  0  0
 18 22  1  0  0  0  0
 19 18  1  0  0  0  0
 20 12  1  0  0  0  0
 20 19  1  0  0  0  0
 21 20  2  0  0  0  0
 22 42  1  0  0  0  0
 22 23  1  0  0  0  0
 23 27  2  0  0  0  0
 23 24  1  0  0  0  0
 24 25  2  0  0  0  0
 25 43  1  0  0  0  0
 26 44  1  0  0  0  0
 26 25  1  0  0  0  0
 27 26  1  0  0  0  0
 28  3  1  0  0  0  0
 31  7  1  0  0  0  0
 32 11  1  0  0  0  0
 35 14  1  0  0  0  0
 38 15  1  0  0  0  0
 40 19  1  0  0  0  0
 41 22  1  0  0  0  0
 45 27  1  0  0  0  0
M  END
>  <Pose>
1

>  <Score>
-8.22

$$$$
