
 OpenBabel03202210083D

 43 46  0  0  0  0  0  0  0  0999 V2000
   57.7770   95.3310   24.1040 Cl  0  0  0  0  0  0  0  0  0  0  0  0
   56.2270   94.5330   23.9570 C   0  0  0  0  0  0  0  0  0  0  0  0
   55.2040   94.8530   24.8030 C   0  0  0  0  0  0  0  0  0  0  0  0
   54.0180   94.1410   24.6010 C   0  0  0  0  0  0  0  0  0  0  0  0
   53.9270   93.2160   23.6330 N   0  0  0  0  0  0  0  0  0  0  0  0
   54.8980   92.8940   22.8080 N   0  0  0  0  0  0  0  0  0  0  0  0
   56.0550   93.5520   22.9650 C   0  0  0  0  0  0  0  0  0  0  0  0
   57.0430   93.3150   22.2250 O   0  0  0  0  0  0  0  0  0  0  0  0
   54.7180   91.8990   21.8060 C   0  0  0  0  0  0  0  0  0  0  0  0
   53.9220   92.0950   20.6950 C   0  0  0  0  0  0  0  0  0  0  0  0
   53.7550   91.1240   19.7300 C   0  0  0  0  0  0  0  0  0  0  0  0
   54.3880   89.9030   19.8450 C   0  0  0  0  0  0  0  0  0  0  0  0
   55.1850   89.7020   20.9520 C   0  0  0  0  0  0  0  0  0  0  0  0
   55.3500   90.6770   21.9170 C   0  0  0  0  0  0  0  0  0  0  0  0
   55.3020   95.8450   25.8070 N   0  0  0  0  0  0  0  0  0  0  0  0
   55.2910   95.5340   27.2270 C   0  0  0  0  0  0  0  0  0  0  0  0
   54.0950   96.1350   27.9190 C   0  0  0  0  0  0  0  0  0  0  0  0
   53.9140   97.4550   27.3660 N   0  0  0  0  0  0  0  0  0  0  0  0
   55.0540   98.0960   26.7630 C   0  0  0  0  0  0  0  0  0  0  0  0
   55.3950   97.2690   25.5040 C   0  0  0  0  0  0  0  0  0  0  0  0
   52.6580   98.1060   27.4140 C   0  0  0  0  0  0  0  0  0  0  0  0
   51.4330   97.5290   27.5750 N   0  0  0  0  0  0  0  0  0  0  0  0
   50.5060   98.4660   27.5680 N   0  0  0  0  0  0  0  0  0  0  0  0
   51.1120   99.6350   27.4050 C   0  0  0  0  0  0  0  0  0  0  0  0
   52.3940   99.3950   27.3160 O   0  0  0  0  0  0  0  0  0  0  0  0
   50.5100  101.0050   27.3280 C   0  0  0  0  0  0  0  0  0  0  0  0
   53.1880   94.3600   25.2370 H   0  0  0  0  0  0  0  0  0  0  0  0
   53.4190   93.0570   20.6010 H   0  0  0  0  0  0  0  0  0  0  0  0
   53.1160   91.3110   18.8620 H   0  0  0  0  0  0  0  0  0  0  0  0
   54.2530   89.1460   19.0840 H   0  0  0  0  0  0  0  0  0  0  0  0
   55.6810   88.7590   21.0510 H   0  0  0  0  0  0  0  0  0  0  0  0
   55.9790   90.5190   22.7910 H   0  0  0  0  0  0  0  0  0  0  0  0
   56.1910   96.0460   27.6750 H   0  0  0  0  0  0  0  0  0  0  0  0
   55.3770   94.4950   27.4920 H   0  0  0  0  0  0  0  0  0  0  0  0
   53.1570   95.5530   27.7120 H   0  0  0  0  0  0  0  0  0  0  0  0
   54.2040   96.1420   29.0170 H   0  0  0  0  0  0  0  0  0  0  0  0
   55.9040   98.0540   27.4660 H   0  0  0  0  0  0  0  0  0  0  0  0
   54.8410   99.1410   26.4800 H   0  0  0  0  0  0  0  0  0  0  0  0
   56.4080   97.5980   25.2320 H   0  0  0  0  0  0  0  0  0  0  0  0
   54.5950   97.5820   24.7860 H   0  0  0  0  0  0  0  0  0  0  0  0
   49.7100  101.1210   28.0850 H   0  0  0  0  0  0  0  0  0  0  0  0
   51.2690  101.7800   27.5610 H   0  0  0  0  0  0  0  0  0  0  0  0
   50.1790  101.1590   26.2970 H   0  0  0  0  0  0  0  0  0  0  0  0
  2  1  1  0  0  0  0
  2  3  2  0  0  0  0
  3 15  1  0  0  0  0
  4  3  1  0  0  0  0
  4 27  1  0  0  0  0
  5  4  2  0  0  0  0
  6  7  1  0  0  0  0
  6  5  1  0  0  0  0
  7  2  1  0  0  0  0
  8  7  2  0  0  0  0
  9 14  1  0  0  0  0
  9  6  1  0  0  0  0
 10  9  2  0  0  0  0
 11 12  2  0  0  0  0
 11 10  1  0  0  0  0
 12 13  1  0  0  0  0
 13 31  1  0  0  0  0
 13 14  2  0  0  0  0
 14 32  1  0  0  0  0
 15 16  1  0  0  0  0
 16 34  1  0  0  0  0
 16 33  1  0  0  0  0
 16 17  1  0  0  0  0
 17 36  1  0  0  0  0
 18 21  1  0  0  0  0
 18 17  1  0  0  0  0
 19 18  1  0  0  0  0
 19 37  1  0  0  0  0
 20 15  1  0  0  0  0
 20 19  1  0  0  0  0
 21 22  2  0  0  0  0
 23 22  1  0  0  0  0
 24 23  2  0  0  0  0
 25 24  1  0  0  0  0
 25 21  1  0  0  0  0
 26 24  1  0  0  0  0
 26 42  1  0  0  0  0
 26 41  1  0  0  0  0
 28 10  1  0  0  0  0
 29 11  1  0  0  0  0
 30 12  1  0  0  0  0
 35 17  1  0  0  0  0
 38 19  1  0  0  0  0
 39 20  1  0  0  0  0
 40 20  1  0  0  0  0
 43 26  1  0  0  0  0
M  END
>  <Pose>
1

>  <Score>
-6.36

$$$$
