
 OpenBabel03202210083D

 41 44  0  0  0  0  0  0  0  0999 V2000
   54.5740   95.7520   27.2750 Cl  0  0  0  0  0  0  0  0  0  0  0  0
   54.9760   94.9140   25.7880 C   0  0  0  0  0  0  0  0  0  0  0  0
   54.0230   94.1940   25.1040 C   0  0  0  0  0  0  0  0  0  0  0  0
   54.3710   93.5560   23.9520 N   0  0  0  0  0  0  0  0  0  0  0  0
   55.6290   93.6400   23.5070 C   0  0  0  0  0  0  0  0  0  0  0  0
   55.7320   92.9370   22.3680 N   0  0  0  0  0  0  0  0  0  0  0  0
   54.5470   92.4010   22.0740 C   0  0  0  0  0  0  0  0  0  0  0  0
   53.6710   92.8000   23.0960 C   0  0  0  0  0  0  0  0  0  0  0  0
   54.1820   91.5660   20.9420 C   0  0  0  0  0  0  0  0  0  0  0  0
   53.1620   91.9360   20.2520 O   0  0  0  0  0  0  0  0  0  0  0  0
   54.8200   90.4120   20.5310 N   0  0  0  0  0  0  0  0  0  0  0  0
   56.0560   89.9290   21.0990 C   0  0  0  0  0  0  0  0  0  0  0  0
   55.8280   88.6550   21.8860 C   0  0  0  0  0  0  0  0  0  0  0  0
   54.7950   87.8170   21.1880 C   0  0  0  0  0  0  0  0  0  0  0  0
   54.0840   88.2100   20.0880 C   0  0  0  0  0  0  0  0  0  0  0  0
   53.2720   87.1630   19.7880 N   0  0  0  0  0  0  0  0  0  0  0  0
   53.4510   86.1750   20.6350 N   0  0  0  0  0  0  0  0  0  0  0  0
   54.3850   86.5190   21.5300 C   0  0  0  0  0  0  0  0  0  0  0  0
   54.8330   85.8350   22.5050 O   0  0  0  0  0  0  0  0  0  0  0  0
   52.7690   84.8730   20.6550 C   0  0  0  0  0  0  0  0  0  0  0  0
   52.7570   84.2520   19.2770 C   0  0  0  0  0  0  0  0  0  0  0  0
   51.5080   83.7420   18.9400 O   0  0  0  0  0  0  0  0  0  0  0  0
   54.2750   89.5480   19.4560 C   0  0  0  0  0  0  0  0  0  0  0  0
   56.6230   94.3670   24.1850 C   0  0  0  0  0  0  0  0  0  0  0  0
   56.2810   95.0070   25.3350 C   0  0  0  0  0  0  0  0  0  0  0  0
   53.0060   94.1210   25.4550 H   0  0  0  0  0  0  0  0  0  0  0  0
   52.6160   92.5320   23.1620 H   0  0  0  0  0  0  0  0  0  0  0  0
   56.6320   90.6300   21.6800 H   0  0  0  0  0  0  0  0  0  0  0  0
   56.7020   89.6840   20.1910 H   0  0  0  0  0  0  0  0  0  0  0  0
   55.5350   88.8340   22.9190 H   0  0  0  0  0  0  0  0  0  0  0  0
   56.8170   88.1200   21.9110 H   0  0  0  0  0  0  0  0  0  0  0  0
   52.6090   87.1920   18.9760 H   0  0  0  0  0  0  0  0  0  0  0  0
   51.7120   85.0830   20.9220 H   0  0  0  0  0  0  0  0  0  0  0  0
   53.1840   84.1960   21.3980 H   0  0  0  0  0  0  0  0  0  0  0  0
   52.9720   85.0710   18.5610 H   0  0  0  0  0  0  0  0  0  0  0  0
   53.5000   83.4520   19.1920 H   0  0  0  0  0  0  0  0  0  0  0  0
   50.8930   84.4530   18.5900 H   0  0  0  0  0  0  0  0  0  0  0  0
   54.9910   89.5210   18.6180 H   0  0  0  0  0  0  0  0  0  0  0  0
   53.2920   89.9820   19.1840 H   0  0  0  0  0  0  0  0  0  0  0  0
   57.6370   94.4040   23.7790 H   0  0  0  0  0  0  0  0  0  0  0  0
   57.0410   95.5760   25.8750 H   0  0  0  0  0  0  0  0  0  0  0  0
  2  1  1  0  0  0  0
  3 26  1  0  0  0  0
  3  2  2  0  0  0  0
  4  3  1  0  0  0  0
  5  4  1  0  0  0  0
  5 24  1  0  0  0  0
  6  5  2  0  0  0  0
  7  6  1  0  0  0  0
  7  8  2  0  0  0  0
  8 27  1  0  0  0  0
  8  4  1  0  0  0  0
  9  7  1  0  0  0  0
 10  9  2  0  0  0  0
 11  9  1  0  0  0  0
 11 12  1  0  0  0  0
 12 28  1  0  0  0  0
 12 13  1  0  0  0  0
 13 31  1  0  0  0  0
 13 30  1  0  0  0  0
 14 18  1  0  0  0  0
 14 13  1  0  0  0  0
 15 14  2  0  0  0  0
 16 15  1  0  0  0  0
 16 17  1  0  0  0  0
 17 20  1  0  0  0  0
 17 18  1  0  0  0  0
 18 19  2  0  0  0  0
 20 33  1  0  0  0  0
 20 34  1  0  0  0  0
 21 20  1  0  0  0  0
 22 21  1  0  0  0  0
 23 15  1  0  0  0  0
 23 11  1  0  0  0  0
 24 25  2  0  0  0  0
 25  2  1  0  0  0  0
 25 41  1  0  0  0  0
 29 12  1  0  0  0  0
 32 16  1  0  0  0  0
 35 21  1  0  0  0  0
 36 21  1  0  0  0  0
 37 22  1  0  0  0  0
 38 23  1  0  0  0  0
 39 23  1  0  0  0  0
 40 24  1  0  0  0  0
M  END
>  <Pose>
1

>  <Score>
-6.42

$$$$
