
 OpenBabel03202210083D

 49 52  0  0  0  0  0  0  0  0999 V2000
   57.8920   97.5590   24.7560 B   0  0  0  0  0  0  0  0  0  0  0  0
   56.3760   96.5680   25.2850 C   0  0  0  0  0  0  0  0  0  0  0  0
   56.3810   95.1880   25.1530 C   0  0  0  0  0  0  0  0  0  0  0  0
   55.2950   94.4410   25.5230 C   0  0  0  0  0  0  0  0  0  0  0  0
   54.1640   95.0030   26.0340 C   0  0  0  0  0  0  0  0  0  0  0  0
   54.1500   96.3950   26.1710 C   0  0  0  0  0  0  0  0  0  0  0  0
   55.2450   97.1530   25.8000 C   0  0  0  0  0  0  0  0  0  0  0  0
   55.3010   92.9390   25.4180 C   0  0  0  0  0  0  0  0  0  0  0  0
   55.2940   92.3530   26.5570 O   0  0  0  0  0  0  0  0  0  0  0  0
   55.3120   92.3970   24.2110 N   0  0  0  0  0  0  0  0  0  0  0  0
   55.3230   91.8290   22.9470 C   0  0  0  0  0  0  0  0  0  0  0  0
   54.5110   92.6400   21.9690 C   0  0  0  0  0  0  0  0  0  0  0  0
   54.0210   93.7200   22.4530 O   0  0  0  0  0  0  0  0  0  0  0  0
   54.2910   92.2710   20.6350 N   0  0  0  0  0  0  0  0  0  0  0  0
   55.3520   92.0350   19.7090 C   0  0  0  0  0  0  0  0  0  0  0  0
   55.0450   90.9260   18.7430 C   0  0  0  0  0  0  0  0  0  0  0  0
   53.9830   89.9540   19.2100 C   0  0  0  0  0  0  0  0  0  0  0  0
   53.6680   89.1860   18.0130 N   0  0  0  0  0  0  0  0  0  0  0  0
   52.8450   88.0520   18.1990 C   0  0  0  0  0  0  0  0  0  0  0  0
   52.7110   87.5080   19.5740 C   0  0  0  0  0  0  0  0  0  0  0  0
   53.9180   87.8050   20.4070 C   0  0  0  0  0  0  0  0  0  0  0  0
   54.5460   87.0990   21.3460 N   0  0  0  0  0  0  0  0  0  0  0  0
   55.5770   87.8670   21.7560 C   0  0  0  0  0  0  0  0  0  0  0  0
   55.5870   89.0370   21.0800 N   0  0  0  0  0  0  0  0  0  0  0  0
   54.5330   89.0160   20.2140 C   0  0  0  0  0  0  0  0  0  0  0  0
   52.7430   90.6170   19.7510 C   0  0  0  0  0  0  0  0  0  0  0  0
   52.9460   92.0790   20.1060 C   0  0  0  0  0  0  0  0  0  0  0  0
   57.2420   94.7000   24.7580 H   0  0  0  0  0  0  0  0  0  0  0  0
   53.3300   94.3940   26.3160 H   0  0  0  0  0  0  0  0  0  0  0  0
   53.2770   96.8780   26.5690 H   0  0  0  0  0  0  0  0  0  0  0  0
   55.2340   98.2270   25.9080 H   0  0  0  0  0  0  0  0  0  0  0  0
   56.5240   93.0030   23.9350 H   0  0  0  0  0  0  0  0  0  0  0  0
   54.8730   90.7760   22.9670 H   0  0  0  0  0  0  0  0  0  0  0  0
   56.3550   91.6420   22.5620 H   0  0  0  0  0  0  0  0  0  0  0  0
   55.4270   92.9790   19.0880 H   0  0  0  0  0  0  0  0  0  0  0  0
   56.3500   91.9500   20.1780 H   0  0  0  0  0  0  0  0  0  0  0  0
   54.7370   91.3420   17.7770 H   0  0  0  0  0  0  0  0  0  0  0  0
   55.9790   90.3340   18.6380 H   0  0  0  0  0  0  0  0  0  0  0  0
   53.2160   89.8970   17.3680 H   0  0  0  0  0  0  0  0  0  0  0  0
   53.2740   87.2220   17.5590 H   0  0  0  0  0  0  0  0  0  0  0  0
   51.8300   88.2570   17.7460 H   0  0  0  0  0  0  0  0  0  0  0  0
   51.7900   87.9150   20.0520 H   0  0  0  0  0  0  0  0  0  0  0  0
   52.5260   86.3980   19.5180 H   0  0  0  0  0  0  0  0  0  0  0  0
   56.2670   87.5540   22.5160 H   0  0  0  0  0  0  0  0  0  0  0  0
   56.2720   89.8010   21.2060 H   0  0  0  0  0  0  0  0  0  0  0  0
   52.4540   90.1080   20.7190 H   0  0  0  0  0  0  0  0  0  0  0  0
   51.8790   90.5680   19.0690 H   0  0  0  0  0  0  0  0  0  0  0  0
   52.7550   92.7450   19.2330 H   0  0  0  0  0  0  0  0  0  0  0  0
   52.2290   92.3190   20.9130 H   0  0  0  0  0  0  0  0  0  0  0  0
  1  2  1  0  0  0  0
  2  7  1  0  0  0  0
  3  2  2  0  0  0  0
  3  4  1  0  0  0  0
  4  5  2  0  0  0  0
  5  6  1  0  0  0  0
  5 29  1  0  0  0  0
  6 30  1  0  0  0  0
  7 31  1  0  0  0  0
  7  6  2  0  0  0  0
  8  4  1  0  0  0  0
  8  9  2  0  0  0  0
 10  8  1  0  0  0  0
 11 33  1  0  0  0  0
 11 10  1  0  0  0  0
 12 13  2  0  0  0  0
 12 11  1  0  0  0  0
 14 12  1  0  0  0  0
 15 36  1  0  0  0  0
 15 14  1  0  0  0  0
 16 17  1  0  0  0  0
 16 15  1  0  0  0  0
 17 26  1  0  0  0  0
 17 25  1  0  0  0  0
 18 19  1  0  0  0  0
 18 17  1  0  0  0  0
 19 20  1  0  0  0  0
 20 42  1  0  0  0  0
 20 21  1  0  0  0  0
 21 22  1  0  0  0  0
 22 23  2  0  0  0  0
 23 44  1  0  0  0  0
 24 45  1  0  0  0  0
 24 23  1  0  0  0  0
 25 21  2  0  0  0  0
 25 24  1  0  0  0  0
 26 27  1  0  0  0  0
 26 46  1  0  0  0  0
 27 14  1  0  0  0  0
 27 49  1  0  0  0  0
 28  3  1  0  0  0  0
 32 10  1  0  0  0  0
 34 11  1  0  0  0  0
 35 15  1  0  0  0  0
 37 16  1  0  0  0  0
 38 16  1  0  0  0  0
 39 18  1  0  0  0  0
 40 19  1  0  0  0  0
 41 19  1  0  0  0  0
 43 20  1  0  0  0  0
 47 26  1  0  0  0  0
 48 27  1  0  0  0  0
M  END
>  <Pose>
1

>  <Score>
-8.24

$$$$
