
 OpenBabel03202210083D

 45 48  0  0  0  0  0  0  0  0999 V2000
   56.7000   87.7760   24.7150 Cl  0  0  0  0  0  0  0  0  0  0  0  0
   55.3890   86.7950   24.0450 C   0  0  0  0  0  0  0  0  0  0  0  0
   55.2740   86.6930   22.6760 C   0  0  0  0  0  0  0  0  0  0  0  0
   54.2580   85.9320   22.1420 C   0  0  0  0  0  0  0  0  0  0  0  0
   53.3590   85.2740   22.9550 C   0  0  0  0  0  0  0  0  0  0  0  0
   53.5140   85.4040   24.3250 C   0  0  0  0  0  0  0  0  0  0  0  0
   54.5140   86.1540   24.8980 C   0  0  0  0  0  0  0  0  0  0  0  0
   52.2980   84.4800   22.4250 N   0  0  0  0  0  0  0  0  0  0  0  0
   51.2830   84.8580   21.6880 N   0  0  0  0  0  0  0  0  0  0  0  0
   50.5000   83.7780   21.3970 C   0  0  0  0  0  0  0  0  0  0  0  0
   51.0660   82.6700   21.9880 C   0  0  0  0  0  0  0  0  0  0  0  0
   52.2080   83.1550   22.6330 C   0  0  0  0  0  0  0  0  0  0  0  0
   56.2200   87.3860   21.7970 C   0  0  0  0  0  0  0  0  0  0  0  0
   57.0640   86.6590   21.2120 O   0  0  0  0  0  0  0  0  0  0  0  0
   56.1800   88.7960   21.6210 N   0  0  0  0  0  0  0  0  0  0  0  0
   56.6870   89.3570   20.3880 C   0  0  0  0  0  0  0  0  0  0  0  0
   55.9590   90.6700   20.1690 C   0  0  0  0  0  0  0  0  0  0  0  0
   54.5240   90.6080   20.6440 C   0  0  0  0  0  0  0  0  0  0  0  0
   53.8720   91.8150   20.1910 N   0  0  0  0  0  0  0  0  0  0  0  0
   53.3900   91.5940   18.8740 C   0  0  0  0  0  0  0  0  0  0  0  0
   53.0770   92.4600   17.9990 O   0  0  0  0  0  0  0  0  0  0  0  0
   53.3190   90.1730   18.7170 N   0  0  0  0  0  0  0  0  0  0  0  0
   53.7560   89.5570   19.9290 C   0  0  0  0  0  0  0  0  0  0  0  0
   53.5180   88.3690   20.2770 O   0  0  0  0  0  0  0  0  0  0  0  0
   52.8810   89.4270   17.5350 C   0  0  0  0  0  0  0  0  0  0  0  0
   54.4250   90.4220   22.1300 C   0  0  0  0  0  0  0  0  0  0  0  0
   55.6590   89.7180   22.6040 C   0  0  0  0  0  0  0  0  0  0  0  0
   54.1120   85.8120   21.0750 H   0  0  0  0  0  0  0  0  0  0  0  0
   52.8100   84.8890   24.9720 H   0  0  0  0  0  0  0  0  0  0  0  0
   54.6010   86.2320   25.9930 H   0  0  0  0  0  0  0  0  0  0  0  0
   49.5920   83.7370   20.8130 H   0  0  0  0  0  0  0  0  0  0  0  0
   50.7040   81.6430   21.9590 H   0  0  0  0  0  0  0  0  0  0  0  0
   52.8940   82.5420   23.2040 H   0  0  0  0  0  0  0  0  0  0  0  0
   57.7770   89.5360   20.4910 H   0  0  0  0  0  0  0  0  0  0  0  0
   56.4430   88.7040   19.5250 H   0  0  0  0  0  0  0  0  0  0  0  0
   56.4940   91.4870   20.6940 H   0  0  0  0  0  0  0  0  0  0  0  0
   55.9610   90.9430   19.0950 H   0  0  0  0  0  0  0  0  0  0  0  0
   53.7860   92.6840   20.7510 H   0  0  0  0  0  0  0  0  0  0  0  0
   53.4590   88.4790   17.4190 H   0  0  0  0  0  0  0  0  0  0  0  0
   52.9990   90.0560   16.6350 H   0  0  0  0  0  0  0  0  0  0  0  0
   51.8230   89.1250   17.6440 H   0  0  0  0  0  0  0  0  0  0  0  0
   53.5130   89.8170   22.3270 H   0  0  0  0  0  0  0  0  0  0  0  0
   54.3610   91.4280   22.5960 H   0  0  0  0  0  0  0  0  0  0  0  0
   56.4520   90.5010   22.7570 H   0  0  0  0  0  0  0  0  0  0  0  0
   55.5250   89.2340   23.5990 H   0  0  0  0  0  0  0  0  0  0  0  0
  2  1  1  0  0  0  0
  2  7  1  0  0  0  0
  3  2  2  0  0  0  0
  4  3  1  0  0  0  0
  4  5  2  0  0  0  0
  5  6  1  0  0  0  0
  6  7  2  0  0  0  0
  6 29  1  0  0  0  0
  7 30  1  0  0  0  0
  8 12  1  0  0  0  0
  8  5  1  0  0  0  0
  9  8  1  0  0  0  0
 10  9  2  0  0  0  0
 10 11  1  0  0  0  0
 11 12  2  0  0  0  0
 12 33  1  0  0  0  0
 13  3  1  0  0  0  0
 14 13  2  0  0  0  0
 15 13  1  0  0  0  0
 15 27  1  0  0  0  0
 16 34  1  0  0  0  0
 16 15  1  0  0  0  0
 17 16  1  0  0  0  0
 17 18  1  0  0  0  0
 17 36  1  0  0  0  0
 18 26  1  0  0  0  0
 19 18  1  0  0  0  0
 19 38  1  0  0  0  0
 20 19  1  0  0  0  0
 21 20  2  0  0  0  0
 22 20  1  0  0  0  0
 22 23  1  0  0  0  0
 23 24  2  0  0  0  0
 23 18  1  0  0  0  0
 25 41  1  0  0  0  0
 25 22  1  0  0  0  0
 26 42  1  0  0  0  0
 26 43  1  0  0  0  0
 26 27  1  0  0  0  0
 27 44  1  0  0  0  0
 27 45  1  0  0  0  0
 28  4  1  0  0  0  0
 31 10  1  0  0  0  0
 32 11  1  0  0  0  0
 35 16  1  0  0  0  0
 37 17  1  0  0  0  0
 39 25  1  0  0  0  0
 40 25  1  0  0  0  0
M  END
>  <Pose>
1

>  <Score>
-5.69

$$$$
