
 OpenBabel03202210083D

 53 56  0  0  1  0  0  0  0  0999 V2000
   54.4970   92.4320   21.2260 Cl  0  0  0  0  0  0  0  0  0  0  0  0
   54.9240   90.7450   21.3100 C   0  0  0  0  0  0  0  0  0  0  0  0
   54.6230   89.8810   20.2990 C   0  0  0  0  0  0  0  0  0  0  0  0
   54.9840   88.5470   20.4160 C   0  0  0  0  0  0  0  0  0  0  0  0
   55.6310   88.0420   21.4980 C   0  0  0  0  0  0  0  0  0  0  0  0
   55.9370   88.9290   22.5300 C   0  0  0  0  0  0  0  0  0  0  0  0
   55.5890   90.2570   22.4370 C   0  0  0  0  0  0  0  0  0  0  0  0
   56.0010   86.6380   21.6200 C   0  0  1  0  0  0  0  0  0  0  0  0
   56.8320   86.4450   22.8220 N   0  0  0  0  0  0  0  0  0  0  0  0
   55.9680   86.2260   23.9290 C   0  0  0  0  0  0  0  0  0  0  0  0
   56.2300   86.3740   25.1250 O   0  0  0  0  0  0  0  0  0  0  0  0
   54.6700   85.7770   23.3880 C   0  0  0  0  0  0  0  0  0  0  0  0
   53.6150   85.4760   24.0340 O   0  0  0  0  0  0  0  0  0  0  0  0
   54.8360   85.7500   21.9440 C   0  0  0  0  0  0  0  0  0  0  0  0
   54.0620   85.0820   21.1270 C   0  0  0  0  0  0  0  0  0  0  0  0
   54.3120   85.1830   19.7610 O   0  0  0  0  0  0  0  0  0  0  0  0
   52.9460   84.2240   21.5130 C   0  0  0  0  0  0  0  0  0  0  0  0
   51.6910   84.8210   21.5320 C   0  0  0  0  0  0  0  0  0  0  0  0
   50.5970   84.0720   21.8590 C   0  0  0  0  0  0  0  0  0  0  0  0
   50.7130   82.7320   22.1740 C   0  0  0  0  0  0  0  0  0  0  0  0
   51.9600   82.1440   22.1530 C   0  0  0  0  0  0  0  0  0  0  0  0
   53.0580   82.9110   21.8200 C   0  0  0  0  0  0  0  0  0  0  0  0
   49.2960   81.8220   22.5840 Cl  0  0  0  0  0  0  0  0  0  0  0  0
   58.2710   86.4820   22.7550 C   0  0  0  0  0  0  0  0  0  0  0  0
   58.9360   87.4510   23.6560 C   0  0  0  0  0  0  0  0  0  0  0  0
   59.6480   86.9660   24.7790 N   0  0  0  0  0  4  0  0  0  0  0  0
   59.3090   87.6250   26.0230 C   0  0  0  0  0  0  0  0  0  0  0  0
   60.4980   88.2220   26.7370 C   0  0  0  0  0  0  0  0  0  0  0  0
   61.5720   87.3810   26.8680 O   0  0  0  0  0  0  0  0  0  0  0  0
   61.9050   86.7190   25.7010 C   0  0  0  0  0  0  0  0  0  0  0  0
   61.0810   87.2600   24.5710 C   0  0  0  0  0  0  0  0  0  0  0  0
   54.1070   90.2640   19.4280 H   0  0  0  0  0  0  0  0  0  0  0  0
   54.7280   87.9120   19.5930 H   0  0  0  0  0  0  0  0  0  0  0  0
   56.4510   88.5420   23.3970 H   0  0  0  0  0  0  0  0  0  0  0  0
   55.8070   90.9710   23.2110 H   0  0  0  0  0  0  0  0  0  0  0  0
   56.5530   86.2510   20.7340 H   0  0  0  0  0  0  0  0  0  0  0  0
   51.5840   85.8900   21.2840 H   0  0  0  0  0  0  0  0  0  0  0  0
   49.6320   84.5810   21.8620 H   0  0  0  0  0  0  0  0  0  0  0  0
   52.0200   81.0930   22.4030 H   0  0  0  0  0  0  0  0  0  0  0  0
   54.0370   82.4210   21.7910 H   0  0  0  0  0  0  0  0  0  0  0  0
   58.5400   86.7820   21.6950 H   0  0  0  0  0  0  0  0  0  0  0  0
   58.7070   85.4530   22.8280 H   0  0  0  0  0  0  0  0  0  0  0  0
   59.6190   88.1310   23.0530 H   0  0  0  0  0  0  0  0  0  0  0  0
   58.1900   88.2090   24.0680 H   0  0  0  0  0  0  0  0  0  0  0  0
   59.6200   85.9370   24.8740 H   0  0  0  0  0  0  0  0  0  0  0  0
   58.7990   86.8910   26.6750 H   0  0  0  0  0  0  0  0  0  0  0  0
   58.6020   88.4670   25.8690 H   0  0  0  0  0  0  0  0  0  0  0  0
   60.1250   88.4830   27.7630 H   0  0  0  0  0  0  0  0  0  0  0  0
   60.7630   89.2010   26.2760 H   0  0  0  0  0  0  0  0  0  0  0  0
   62.9660   86.8320   25.4340 H   0  0  0  0  0  0  0  0  0  0  0  0
   61.6760   85.6360   25.7950 H   0  0  0  0  0  0  0  0  0  0  0  0
   61.1690   88.3540   24.4710 H   0  0  0  0  0  0  0  0  0  0  0  0
   61.4240   86.8160   23.6070 H   0  0  0  0  0  0  0  0  0  0  0  0
  1  2  1  0  0  0  0
  2  7  1  0  0  0  0
  3  4  1  0  0  0  0
  3  2  2  0  0  0  0
  4  5  2  0  0  0  0
  5  8  1  0  0  0  0
  5  6  1  0  0  0  0
  6 34  1  0  0  0  0
  7  6  2  0  0  0  0
  7 35  1  0  0  0  0
  8 36  1  6  0  0  0
  8 14  1  0  0  0  0
  8  9  1  0  0  0  0
  9 10  1  0  0  0  0
 10 11  2  0  0  0  0
 12 10  1  0  0  0  0
 12 13  2  0  0  0  0
 14 12  1  0  0  0  0
 15 17  1  0  0  0  0
 15 14  2  0  0  0  0
 16 15  1  0  0  0  0
 17 18  2  0  0  0  0
 17 22  1  0  0  0  0
 18 19  1  0  0  0  0
 19 38  1  0  0  0  0
 19 20  2  0  0  0  0
 20 23  1  0  0  0  0
 21 20  1  0  0  0  0
 21 39  1  0  0  0  0
 22 21  2  0  0  0  0
 24  9  1  0  0  0  0
 24 42  1  0  0  0  0
 24 25  1  0  0  0  0
 25 44  1  0  0  0  0
 25 26  1  0  0  0  0
 26 45  1  0  0  0  0
 26 27  1  0  0  0  0
 27 46  1  0  0  0  0
 27 28  1  0  0  0  0
 28 29  1  0  0  0  0
 28 48  1  0  0  0  0
 30 51  1  0  0  0  0
 30 29  1  0  0  0  0
 31 26  1  0  0  0  0
 31 30  1  0  0  0  0
 32  3  1  0  0  0  0
 33  4  1  0  0  0  0
 37 18  1  0  0  0  0
 40 22  1  0  0  0  0
 41 24  1  0  0  0  0
 43 25  1  0  0  0  0
 47 27  1  0  0  0  0
 49 28  1  0  0  0  0
 50 30  1  0  0  0  0
 52 31  1  0  0  0  0
 53 31  1  0  0  0  0
M  END
>  <Pose>
1

>  <Score>
-5.03

$$$$
