
 OpenBabel03202210083D

 63 66  0  0  0  0  0  0  0  0999 V2000
   56.0200   89.8490   20.7950 S   0  0  0  0  0  0  0  0  0  0  0  0
   56.7730   90.3040   19.5870 O   0  0  0  0  0  0  0  0  0  0  0  0
   56.8680   88.9860   21.6940 O   0  0  0  0  0  0  0  0  0  0  0  0
   55.4480   91.2010   21.7500 C   0  0  0  0  0  0  0  0  0  0  0  0
   54.4830   92.0730   21.2640 C   0  0  0  0  0  0  0  0  0  0  0  0
   54.0650   93.1130   22.0350 N   0  0  0  0  0  0  0  0  0  0  0  0
   54.5470   93.3440   23.2630 C   0  0  0  0  0  0  0  0  0  0  0  0
   55.4810   92.5030   23.7400 N   0  0  0  0  0  0  0  0  0  0  0  0
   55.9260   91.4620   23.0170 C   0  0  0  0  0  0  0  0  0  0  0  0
   54.1110   94.4370   24.0680 N   0  0  0  0  0  0  0  0  0  0  0  0
   53.7570   94.2770   25.4570 C   0  0  0  0  0  0  0  0  0  0  0  0
   54.4960   95.1910   26.3940 C   0  0  0  0  0  0  0  0  0  0  0  0
   54.9830   96.4520   25.7010 C   0  0  0  0  0  0  0  0  0  0  0  0
   53.8890   96.7330   24.6570 C   0  0  0  0  0  0  0  0  0  0  0  0
   53.9980   95.7760   23.5170 C   0  0  0  0  0  0  0  0  0  0  0  0
   56.2030   96.3390   25.0580 N   0  0  0  0  0  0  0  0  0  0  0  0
   56.9630   95.1510   25.0980 C   0  0  0  0  0  0  0  0  0  0  0  0
   57.7210   95.0490   23.7630 C   0  0  0  0  0  0  0  0  0  0  0  0
   57.8510   96.4380   23.1990 C   0  0  0  0  0  0  0  0  0  0  0  0
   58.1410   97.4690   24.2600 C   0  0  0  0  0  0  0  0  0  0  0  0
   57.1000   97.4190   25.3660 C   0  0  0  0  0  0  0  0  0  0  0  0
   54.9000   97.5640   26.6760 C   0  0  0  0  0  0  0  0  0  0  0  0
   53.7790   97.9020   27.1850 O   0  0  0  0  0  0  0  0  0  0  0  0
   56.0110   98.3030   27.0990 N   0  0  0  0  0  0  0  0  0  0  0  0
   53.9810   91.8260   19.9730 N   0  0  0  0  0  0  0  0  0  0  0  0
   54.6080   88.8960   20.3140 C   0  0  0  0  0  0  0  0  0  0  0  0
   54.3620   87.6770   20.9130 C   0  0  0  0  0  0  0  0  0  0  0  0
   53.2500   86.9690   20.5070 C   0  0  0  0  0  0  0  0  0  0  0  0
   52.3930   87.4540   19.5250 C   0  0  0  0  0  0  0  0  0  0  0  0
   52.6740   88.6750   18.9510 C   0  0  0  0  0  0  0  0  0  0  0  0
   53.7780   89.4080   19.3350 C   0  0  0  0  0  0  0  0  0  0  0  0
   51.5950   89.3080   17.7000 Cl  0  0  0  0  0  0  0  0  0  0  0  0
   55.2260   87.2320   21.8740 O   0  0  0  0  0  0  0  0  0  0  0  0
   54.9050   86.3390   22.9040 C   0  0  0  0  0  0  0  0  0  0  0  0
   56.6910   90.7730   23.4060 H   0  0  0  0  0  0  0  0  0  0  0  0
   52.6410   94.4620   25.4980 H   0  0  0  0  0  0  0  0  0  0  0  0
   53.8530   93.2130   25.7870 H   0  0  0  0  0  0  0  0  0  0  0  0
   53.7480   95.5280   27.1450 H   0  0  0  0  0  0  0  0  0  0  0  0
   55.2950   94.6920   26.9680 H   0  0  0  0  0  0  0  0  0  0  0  0
   53.7920   97.7870   24.4040 H   0  0  0  0  0  0  0  0  0  0  0  0
   52.9050   96.4770   25.1680 H   0  0  0  0  0  0  0  0  0  0  0  0
   54.8090   95.9640   22.8030 H   0  0  0  0  0  0  0  0  0  0  0  0
   53.0200   95.7530   22.9400 H   0  0  0  0  0  0  0  0  0  0  0  0
   57.8050   95.2350   25.8510 H   0  0  0  0  0  0  0  0  0  0  0  0
   56.4380   94.2150   25.2190 H   0  0  0  0  0  0  0  0  0  0  0  0
   58.7150   94.5650   23.9050 H   0  0  0  0  0  0  0  0  0  0  0  0
   57.0960   94.4180   23.0640 H   0  0  0  0  0  0  0  0  0  0  0  0
   56.8830   96.7290   22.7080 H   0  0  0  0  0  0  0  0  0  0  0  0
   58.6840   96.5110   22.4580 H   0  0  0  0  0  0  0  0  0  0  0  0
   58.1340   98.4670   23.7520 H   0  0  0  0  0  0  0  0  0  0  0  0
   59.1730   97.3290   24.6230 H   0  0  0  0  0  0  0  0  0  0  0  0
   56.6620   98.3820   25.5830 H   0  0  0  0  0  0  0  0  0  0  0  0
   57.6900   97.0850   26.2750 H   0  0  0  0  0  0  0  0  0  0  0  0
   56.1650   99.2580   26.6740 H   0  0  0  0  0  0  0  0  0  0  0  0
   56.7160   98.0170   27.8070 H   0  0  0  0  0  0  0  0  0  0  0  0
   53.2320   91.1330   19.7680 H   0  0  0  0  0  0  0  0  0  0  0  0
   54.3710   92.3590   19.1690 H   0  0  0  0  0  0  0  0  0  0  0  0
   53.0190   86.0040   20.9530 H   0  0  0  0  0  0  0  0  0  0  0  0
   51.5410   86.8680   19.2420 H   0  0  0  0  0  0  0  0  0  0  0  0
   53.9860   90.3820   18.8660 H   0  0  0  0  0  0  0  0  0  0  0  0
   54.8730   85.3140   22.4990 H   0  0  0  0  0  0  0  0  0  0  0  0
   55.7450   86.3530   23.6490 H   0  0  0  0  0  0  0  0  0  0  0  0
   53.9970   86.6090   23.4680 H   0  0  0  0  0  0  0  0  0  0  0  0
  1  3  2  0  0  0  0
  1  4  1  0  0  0  0
  2  1  2  0  0  0  0
  4  9  1  0  0  0  0
  5  4  2  0  0  0  0
  5  6  1  0  0  0  0
  6  7  2  0  0  0  0
  7  8  1  0  0  0  0
  7 10  1  0  0  0  0
  9 35  1  0  0  0  0
  9  8  2  0  0  0  0
 10 11  1  0  0  0  0
 11 36  1  0  0  0  0
 11 37  1  0  0  0  0
 11 12  1  0  0  0  0
 12 39  1  0  0  0  0
 12 38  1  0  0  0  0
 13 12  1  0  0  0  0
 13 22  1  0  0  0  0
 14 41  1  0  0  0  0
 14 13  1  0  0  0  0
 15 10  1  0  0  0  0
 15 14  1  0  0  0  0
 16 17  1  0  0  0  0
 16 21  1  0  0  0  0
 16 13  1  0  0  0  0
 17 45  1  0  0  0  0
 17 44  1  0  0  0  0
 18 46  1  0  0  0  0
 18 17  1  0  0  0  0
 19 18  1  0  0  0  0
 19 20  1  0  0  0  0
 20 51  1  0  0  0  0
 20 21  1  0  0  0  0
 21 52  1  0  0  0  0
 21 53  1  0  0  0  0
 22 24  1  0  0  0  0
 22 23  2  0  0  0  0
 24 55  1  0  0  0  0
 25  5  1  0  0  0  0
 26  1  1  0  0  0  0
 26 27  1  0  0  0  0
 27 33  1  0  0  0  0
 28 27  2  0  0  0  0
 28 58  1  0  0  0  0
 29 28  1  0  0  0  0
 30 31  1  0  0  0  0
 30 29  2  0  0  0  0
 31 26  2  0  0  0  0
 32 30  1  0  0  0  0
 33 34  1  0  0  0  0
 34 63  1  0  0  0  0
 34 62  1  0  0  0  0
 40 14  1  0  0  0  0
 42 15  1  0  0  0  0
 43 15  1  0  0  0  0
 47 18  1  0  0  0  0
 48 19  1  0  0  0  0
 49 19  1  0  0  0  0
 50 20  1  0  0  0  0
 54 24  1  0  0  0  0
 56 25  1  0  0  0  0
 57 25  1  0  0  0  0
 59 29  1  0  0  0  0
 60 31  1  0  0  0  0
 61 34  1  0  0  0  0
M  END
>  <Pose>
1

>  <Score>
-6.90

$$$$
