
 OpenBabel03202210083D

 52 55  0  0  0  0  0  0  0  0999 V2000
   49.7450  100.8210   28.4120 Cl  0  0  0  0  0  0  0  0  0  0  0  0
   51.0390   99.7780   27.9150 C   0  0  0  0  0  0  0  0  0  0  0  0
   51.1130   98.4400   28.2300 C   0  0  0  0  0  0  0  0  0  0  0  0
   52.1510   97.6250   27.8200 C   0  0  0  0  0  0  0  0  0  0  0  0
   53.1750   98.1330   27.0640 C   0  0  0  0  0  0  0  0  0  0  0  0
   53.0890   99.4800   26.7550 C   0  0  0  0  0  0  0  0  0  0  0  0
   52.0630  100.3090   27.1540 C   0  0  0  0  0  0  0  0  0  0  0  0
   54.2710   97.3840   26.5630 N   0  0  0  0  0  0  0  0  0  0  0  0
   55.5050   97.7860   26.4180 N   0  0  0  0  0  0  0  0  0  0  0  0
   56.2960   96.8410   25.9000 C   0  0  0  0  0  0  0  0  0  0  0  0
   55.4990   95.7240   25.6910 C   0  0  0  0  0  0  0  0  0  0  0  0
   54.2330   96.1070   26.1220 C   0  0  0  0  0  0  0  0  0  0  0  0
   53.2720   95.1840   26.0260 N   0  0  0  0  0  0  0  0  0  0  0  0
   53.5200   93.9490   25.5360 C   0  0  0  0  0  0  0  0  0  0  0  0
   54.7300   93.5510   25.1130 N   0  0  0  0  0  0  0  0  0  0  0  0
   55.7340   94.4620   25.1960 C   0  0  0  0  0  0  0  0  0  0  0  0
   56.8850   94.1350   24.8130 O   0  0  0  0  0  0  0  0  0  0  0  0
   55.0010   92.2180   24.5680 C   0  0  0  0  0  0  0  0  0  0  0  0
   54.9380   92.1980   23.0960 C   0  0  0  0  0  0  0  0  0  0  0  0
   54.3820   93.2270   22.5720 O   0  0  0  0  0  0  0  0  0  0  0  0
   55.4120   91.2010   22.2470 N   0  0  0  0  0  0  0  0  0  0  0  0
   55.8860   91.5200   20.8910 C   0  0  0  0  0  0  0  0  0  0  0  0
   54.8850   90.8120   19.9680 C   0  0  0  0  0  0  0  0  0  0  0  0
   54.7580   89.4260   20.3360 N   0  0  0  0  0  0  0  0  0  0  0  0
   55.6050   88.9390   21.4090 C   0  0  0  0  0  0  0  0  0  0  0  0
   55.5030   89.8110   22.6340 C   0  0  0  0  0  0  0  0  0  0  0  0
   53.8290   88.5770   19.6960 C   0  0  0  0  0  0  0  0  0  0  0  0
   53.7940   88.6000   18.4100 O   0  0  0  0  0  0  0  0  0  0  0  0
   52.9520   87.7160   20.3160 O   0  0  0  0  0  0  0  0  0  0  0  0
   51.7410   87.2960   19.6570 C   0  0  0  0  0  0  0  0  0  0  0  0
   52.1320   86.1400   18.7540 C   0  0  0  0  0  0  0  0  0  0  0  0
   50.2720   98.0590   28.8340 H   0  0  0  0  0  0  0  0  0  0  0  0
   52.1700   96.5850   28.0900 H   0  0  0  0  0  0  0  0  0  0  0  0
   53.9040   99.9120   26.1500 H   0  0  0  0  0  0  0  0  0  0  0  0
   52.0990  101.3520   26.8520 H   0  0  0  0  0  0  0  0  0  0  0  0
   57.3430   96.8370   25.6520 H   0  0  0  0  0  0  0  0  0  0  0  0
   52.7130   93.2070   25.4650 H   0  0  0  0  0  0  0  0  0  0  0  0
   54.2050   91.4980   24.9350 H   0  0  0  0  0  0  0  0  0  0  0  0
   55.9760   91.8970   24.9670 H   0  0  0  0  0  0  0  0  0  0  0  0
   56.9120   91.1620   20.7320 H   0  0  0  0  0  0  0  0  0  0  0  0
   55.7620   92.5900   20.7420 H   0  0  0  0  0  0  0  0  0  0  0  0
   55.2100   90.9940   18.9330 H   0  0  0  0  0  0  0  0  0  0  0  0
   53.8890   91.3360   20.0870 H   0  0  0  0  0  0  0  0  0  0  0  0
   56.6270   88.8800   21.0130 H   0  0  0  0  0  0  0  0  0  0  0  0
   55.2360   87.9150   21.6920 H   0  0  0  0  0  0  0  0  0  0  0  0
   56.5110   89.7110   23.1450 H   0  0  0  0  0  0  0  0  0  0  0  0
   54.7060   89.5180   23.3350 H   0  0  0  0  0  0  0  0  0  0  0  0
   51.0270   86.8960   20.4450 H   0  0  0  0  0  0  0  0  0  0  0  0
   51.2540   88.0670   19.0880 H   0  0  0  0  0  0  0  0  0  0  0  0
   51.4600   85.2790   18.8040 H   0  0  0  0  0  0  0  0  0  0  0  0
   52.2300   86.5770   17.7150 H   0  0  0  0  0  0  0  0  0  0  0  0
   53.1410   85.8100   19.0290 H   0  0  0  0  0  0  0  0  0  0  0  0
  2  3  1  0  0  0  0
  2  1  1  0  0  0  0
  3 32  1  0  0  0  0
  4 33  1  0  0  0  0
  4  3  2  0  0  0  0
  5  4  1  0  0  0  0
  6  5  2  0  0  0  0
  6  7  1  0  0  0  0
  7  2  2  0  0  0  0
  8  5  1  0  0  0  0
  9  8  1  0  0  0  0
 10  9  2  0  0  0  0
 11 10  1  0  0  0  0
 11 12  2  0  0  0  0
 12  8  1  0  0  0  0
 13 12  1  0  0  0  0
 14 13  2  0  0  0  0
 15 16  1  0  0  0  0
 15 14  1  0  0  0  0
 16 11  1  0  0  0  0
 17 16  2  0  0  0  0
 18 38  1  0  0  0  0
 18 39  1  0  0  0  0
 18 15  1  0  0  0  0
 19 18  1  0  0  0  0
 20 19  2  0  0  0  0
 21 26  1  0  0  0  0
 21 19  1  0  0  0  0
 22 21  1  0  0  0  0
 23 43  1  0  0  0  0
 23 24  1  0  0  0  0
 23 22  1  0  0  0  0
 24 25  1  0  0  0  0
 25 45  1  0  0  0  0
 25 26  1  0  0  0  0
 26 46  1  0  0  0  0
 26 47  1  0  0  0  0
 27 29  1  0  0  0  0
 27 24  1  0  0  0  0
 28 27  2  0  0  0  0
 30 29  1  0  0  0  0
 30 48  1  0  0  0  0
 31 50  1  0  0  0  0
 31 52  1  0  0  0  0
 31 30  1  0  0  0  0
 34  6  1  0  0  0  0
 35  7  1  0  0  0  0
 36 10  1  0  0  0  0
 37 14  1  0  0  0  0
 40 22  1  0  0  0  0
 41 22  1  0  0  0  0
 42 23  1  0  0  0  0
 44 25  1  0  0  0  0
 49 30  1  0  0  0  0
 51 31  1  0  0  0  0
M  END
>  <Pose>
1

>  <Score>
-7.51

$$$$
