
 OpenBabel03202210083D

 54 58  0  0  1  0  0  0  0  0999 V2000
   54.3860   96.9590   27.0370 S   0  0  0  0  0  0  0  0  0  0  0  0
   54.4590   95.8240   28.0510 O   0  0  0  0  0  0  0  0  0  0  0  0
   55.6350   97.7910   27.3320 O   0  0  0  0  0  0  0  0  0  0  0  0
   54.5690   96.2940   25.5060 N   0  0  0  0  0  0  0  0  0  0  0  0
   55.9100   96.2120   24.9910 C   0  0  0  0  0  0  0  0  0  0  0  0
   56.1920   94.8580   24.3810 C   0  0  0  0  0  0  0  0  0  0  0  0
   55.8960   93.7870   25.3650 N   0  0  0  0  0  0  0  0  0  0  0  0
   54.4660   93.8290   25.6400 C   0  0  0  0  0  0  0  0  0  0  0  0
   53.8100   95.1230   25.1910 C   0  0  0  0  0  0  0  0  0  0  0  0
   56.2160   92.5690   24.6530 C   0  0  0  0  0  0  0  0  0  0  0  0
   55.3020   91.4270   24.7960 C   0  0  0  0  0  0  0  0  0  0  0  0
   55.5310   90.2380   24.0490 N   0  0  0  0  0  0  0  0  0  0  0  0
   56.0770   90.0480   22.7490 C   0  0  0  0  0  0  0  0  0  0  0  0
   56.0630   90.8860   21.8360 O   0  0  0  0  0  0  0  0  0  0  0  0
   56.6610   88.6870   22.6690 C   0  0  1  0  0  0  0  0  0  0  0  0
   55.7510   87.9350   23.6670 C   0  0  2  0  0  0  0  0  0  0  0  0
   54.7380   87.2420   22.8360 C   0  0  1  0  0  0  0  0  0  0  0  0
   54.7360   88.0890   21.5520 C   0  0  0  0  0  0  0  0  0  0  0  0
   56.2660   88.0300   21.3960 C   0  0  2  0  0  0  0  0  0  0  0  0
   56.4640   86.5550   21.5910 C   0  0  0  0  0  0  0  0  0  0  0  0
   55.4290   86.0300   22.2470 C   0  0  0  0  0  0  0  0  0  0  0  0
   55.2500   88.9330   24.6020 C   0  0  0  0  0  0  0  0  0  0  0  0
   54.6780   88.6690   25.6890 O   0  0  0  0  0  0  0  0  0  0  0  0
   53.0250   97.9710   27.3040 C   0  0  0  0  0  0  0  0  0  0  0  0
   53.0780   99.3130   27.0150 C   0  0  0  0  0  0  0  0  0  0  0  0
   51.9580  100.0950   27.2330 C   0  0  0  0  0  0  0  0  0  0  0  0
   50.7780   99.5790   27.7360 C   0  0  0  0  0  0  0  0  0  0  0  0
   50.7290   98.2310   28.0240 C   0  0  0  0  0  0  0  0  0  0  0  0
   51.8550   97.4460   27.8040 C   0  0  0  0  0  0  0  0  0  0  0  0
   49.2340  100.6560   28.0390 B   0  0  0  0  0  0  0  0  0  0  0  0
   55.9900   96.9480   24.1570 H   0  0  0  0  0  0  0  0  0  0  0  0
   56.6420   96.4850   25.7500 H   0  0  0  0  0  0  0  0  0  0  0  0
   57.2730   94.7850   24.1690 H   0  0  0  0  0  0  0  0  0  0  0  0
   55.6380   94.6670   23.4440 H   0  0  0  0  0  0  0  0  0  0  0  0
   54.3230   93.8080   26.7330 H   0  0  0  0  0  0  0  0  0  0  0  0
   54.0070   92.9510   25.1520 H   0  0  0  0  0  0  0  0  0  0  0  0
   52.7940   95.2220   25.5690 H   0  0  0  0  0  0  0  0  0  0  0  0
   53.7430   95.0730   24.0810 H   0  0  0  0  0  0  0  0  0  0  0  0
   57.2350   92.2030   25.0000 H   0  0  0  0  0  0  0  0  0  0  0  0
   56.4300   92.8290   23.5680 H   0  0  0  0  0  0  0  0  0  0  0  0
   55.3320   91.1350   25.8980 H   0  0  0  0  0  0  0  0  0  0  0  0
   54.2530   91.8140   24.6570 H   0  0  0  0  0  0  0  0  0  0  0  0
   57.7120   88.6370   22.9400 H   0  0  0  0  0  0  0  0  0  0  0  0
   56.3610   87.1390   24.1830 H   0  0  0  0  0  0  0  0  0  0  0  0
   53.7710   87.0630   23.2430 H   0  0  0  0  0  0  0  0  0  0  0  0
   54.2350   87.5840   20.7190 H   0  0  0  0  0  0  0  0  0  0  0  0
   54.4400   89.1210   21.7170 H   0  0  0  0  0  0  0  0  0  0  0  0
   56.6370   88.4210   20.4790 H   0  0  0  0  0  0  0  0  0  0  0  0
   57.3070   85.9550   21.2670 H   0  0  0  0  0  0  0  0  0  0  0  0
   55.1530   84.9960   22.3350 H   0  0  0  0  0  0  0  0  0  0  0  0
   53.9910   99.7800   26.6110 H   0  0  0  0  0  0  0  0  0  0  0  0
   52.0030  101.1590   27.0030 H   0  0  0  0  0  0  0  0  0  0  0  0
   49.8030   97.8420   28.4170 H   0  0  0  0  0  0  0  0  0  0  0  0
   51.7290   96.4020   28.0550 H   0  0  0  0  0  0  0  0  0  0  0  0
  1 24  1  0  0  0  0
  1  3  2  0  0  0  0
  1  2  2  0  0  0  0
  4  1  1  0  0  0  0
  5  4  1  0  0  0  0
  5 32  1  0  0  0  0
  6  5  1  0  0  0  0
  6  7  1  0  0  0  0
  7  8  1  0  0  0  0
  8 35  1  0  0  0  0
  9  4  1  0  0  0  0
  9 37  1  0  0  0  0
  9  8  1  0  0  0  0
 10 11  1  0  0  0  0
 10 39  1  0  0  0  0
 10  7  1  0  0  0  0
 11 41  1  0  0  0  0
 12 22  1  0  0  0  0
 12 11  1  0  0  0  0
 13 12  1  0  0  0  0
 14 13  2  0  0  0  0
 15 13  1  0  0  0  0
 15 43  1  1  0  0  0
 15 16  1  0  0  0  0
 16 44  1  1  0  0  0
 16 22  1  0  0  0  0
 17 45  1  1  0  0  0
 17 16  1  0  0  0  0
 18 47  1  0  0  0  0
 18 17  1  0  0  0  0
 19 48  1  6  0  0  0
 19 18  1  0  0  0  0
 19 20  1  0  0  0  0
 19 15  1  0  0  0  0
 20 21  1  0  0  0  0
 21 50  1  0  0  0  0
 21 17  1  0  0  0  0
 22 23  2  0  0  0  0
 24 29  1  0  0  0  0
 25 26  1  0  0  0  0
 25 24  2  0  0  0  0
 26 27  2  0  0  0  0
 27 28  1  0  0  0  0
 27 30  1  0  0  0  0
 28 53  1  0  0  0  0
 29 28  2  0  0  0  0
 29 54  1  0  0  0  0
 31  5  1  0  0  0  0
 33  6  1  0  0  0  0
 34  6  1  0  0  0  0
 36  8  1  0  0  0  0
 38  9  1  0  0  0  0
 40 10  1  0  0  0  0
 42 11  1  0  0  0  0
 46 18  1  0  0  0  0
 49 20  1  0  0  0  0
 51 25  1  0  0  0  0
 52 26  1  0  0  0  0
M  END
>  <Pose>
1

>  <Score>
-6.40

$$$$
