
 OpenBabel03202210083D

 61 64  0  0  1  0  0  0  0  0999 V2000
   56.3960   87.9730   21.6180 B   0  0  0  0  0  0  0  0  0  0  0  0
   55.8560   87.0100   23.1980 C   0  0  0  0  0  0  0  0  0  0  0  0
   56.7750   86.5920   24.1260 C   0  0  0  0  0  0  0  0  0  0  0  0
   56.4390   85.8940   25.2820 C   0  0  0  0  0  0  0  0  0  0  0  0
   55.1120   85.6070   25.5080 C   0  0  0  0  0  0  0  0  0  0  0  0
   54.1930   86.0350   24.5630 C   0  0  0  0  0  0  0  0  0  0  0  0
   54.5260   86.7240   23.4210 C   0  0  0  0  0  0  0  0  0  0  0  0
   54.6680   84.9090   26.7070 C   0  0  0  0  0  0  0  0  0  0  0  0
   54.5030   85.6600   27.7300 O   0  0  0  0  0  0  0  0  0  0  0  0
   54.4120   83.4730   26.8180 C   0  0  2  0  0  0  0  0  0  0  0  0
   53.0340   83.0400   26.3950 C   0  0  1  0  0  0  0  0  0  0  0  0
   52.2140   83.1240   27.5200 N   0  0  0  0  0  0  0  0  0  0  0  0
   53.1120   82.6180   28.5860 C   0  0  0  0  0  0  0  0  0  0  0  0
   52.7810   81.9610   29.6100 O   0  0  0  0  0  0  0  0  0  0  0  0
   54.4600   83.0280   28.2280 C   0  0  0  0  0  0  0  0  0  0  0  0
   55.4660   82.9980   28.9930 O   0  0  0  0  0  0  0  0  0  0  0  0
   50.8670   83.3940   27.9130 C   0  0  0  0  0  0  0  0  0  0  0  0
   49.7890   82.9160   27.0150 C   0  0  0  0  0  0  0  0  0  0  0  0
   48.4490   83.2890   27.1840 N   0  0  0  0  0  4  0  0  0  0  0  0
   47.5070   82.3010   26.6440 C   0  0  0  0  0  0  0  0  0  0  0  0
   47.5840   80.9860   27.3450 C   0  0  0  0  0  0  0  0  0  0  0  0
   48.3950   81.0960   28.4520 O   0  0  0  0  0  0  0  0  0  0  0  0
   47.8920   82.1370   29.2490 C   0  0  0  0  0  0  0  0  0  0  0  0
   48.1640   83.4850   28.6170 C   0  0  0  0  0  0  0  0  0  0  0  0
   52.6650   83.3520   25.0360 C   0  0  0  0  0  0  0  0  0  0  0  0
   53.1580   82.7480   23.9230 C   0  0  0  0  0  0  0  0  0  0  0  0
   52.7220   83.1090   22.6570 C   0  0  0  0  0  0  0  0  0  0  0  0
   51.7550   84.1180   22.5290 C   0  0  0  0  0  0  0  0  0  0  0  0
   51.2620   84.7230   23.6490 C   0  0  0  0  0  0  0  0  0  0  0  0
   51.6890   84.3670   24.8900 C   0  0  0  0  0  0  0  0  0  0  0  0
   51.2880   84.5150   21.2920 O   0  0  0  0  0  0  0  0  0  0  0  0
   53.1930   82.5230   21.5260 O   0  0  0  0  0  0  0  0  0  0  0  0
   53.8780   83.1980   20.5210 C   0  0  0  0  0  0  0  0  0  0  0  0
   53.2620   83.0300   19.1440 C   0  0  0  0  0  0  0  0  0  0  0  0
   57.8330   86.8110   23.9640 H   0  0  0  0  0  0  0  0  0  0  0  0
   57.2350   85.5870   25.9470 H   0  0  0  0  0  0  0  0  0  0  0  0
   53.1180   85.8320   24.6940 H   0  0  0  0  0  0  0  0  0  0  0  0
   53.7920   87.0490   22.6920 H   0  0  0  0  0  0  0  0  0  0  0  0
   55.1920   82.8890   26.2290 H   0  0  0  0  0  0  0  0  0  0  0  0
   53.2170   81.8290   26.3630 H   0  0  0  0  0  0  0  0  0  0  0  0
   50.6420   82.9620   28.9320 H   0  0  0  0  0  0  0  0  0  0  0  0
   50.7570   84.5180   27.9760 H   0  0  0  0  0  0  0  0  0  0  0  0
   49.8000   81.7670   26.9550 H   0  0  0  0  0  0  0  0  0  0  0  0
   50.0650   83.1520   25.9200 H   0  0  0  0  0  0  0  0  0  0  0  0
   48.2260   84.1740   26.7340 H   0  0  0  0  0  0  0  0  0  0  0  0
   47.6470   82.2610   25.5580 H   0  0  0  0  0  0  0  0  0  0  0  0
   46.4960   82.7380   26.8320 H   0  0  0  0  0  0  0  0  0  0  0  0
   46.5780   80.6530   27.6850 H   0  0  0  0  0  0  0  0  0  0  0  0
   48.0380   80.2540   26.6350 H   0  0  0  0  0  0  0  0  0  0  0  0
   46.8200   82.0500   29.4340 H   0  0  0  0  0  0  0  0  0  0  0  0
   48.4750   82.1010   30.1970 H   0  0  0  0  0  0  0  0  0  0  0  0
   47.3250   84.1960   28.7320 H   0  0  0  0  0  0  0  0  0  0  0  0
   49.0680   83.9800   29.0300 H   0  0  0  0  0  0  0  0  0  0  0  0
   53.9320   81.9740   23.9600 H   0  0  0  0  0  0  0  0  0  0  0  0
   50.5020   85.5150   23.5450 H   0  0  0  0  0  0  0  0  0  0  0  0
   51.2760   84.8690   25.7580 H   0  0  0  0  0  0  0  0  0  0  0  0
   53.9490   84.2910   20.7320 H   0  0  0  0  0  0  0  0  0  0  0  0
   54.9380   82.8500   20.4390 H   0  0  0  0  0  0  0  0  0  0  0  0
   52.7420   83.9870   18.8740 H   0  0  0  0  0  0  0  0  0  0  0  0
   54.0540   82.8620   18.4000 H   0  0  0  0  0  0  0  0  0  0  0  0
   52.5170   82.2360   19.1170 H   0  0  0  0  0  0  0  0  0  0  0  0
  1  2  1  0  0  0  0
  2  7  2  0  0  0  0
  2  3  1  0  0  0  0
  3  4  2  0  0  0  0
  4  5  1  0  0  0  0
  4 36  1  0  0  0  0
  5  8  1  0  0  0  0
  6 37  1  0  0  0  0
  6  5  2  0  0  0  0
  7  6  1  0  0  0  0
  8 10  1  0  0  0  0
  8  9  2  0  0  0  0
 10 39  1  6  0  0  0
 10 15  1  0  0  0  0
 11 40  1  6  0  0  0
 11 10  1  0  0  0  0
 11 12  1  0  0  0  0
 12 17  1  0  0  0  0
 12 13  1  0  0  0  0
 13 14  2  0  0  0  0
 15 13  1  0  0  0  0
 15 16  2  0  0  0  0
 17 42  1  0  0  0  0
 17 41  1  0  0  0  0
 18 19  1  0  0  0  0
 18 17  1  0  0  0  0
 19 24  1  0  0  0  0
 20 47  1  0  0  0  0
 20 19  1  0  0  0  0
 20 21  1  0  0  0  0
 21 48  1  0  0  0  0
 21 22  1  0  0  0  0
 22 23  1  0  0  0  0
 23 50  1  0  0  0  0
 23 51  1  0  0  0  0
 24 52  1  0  0  0  0
 24 53  1  0  0  0  0
 24 23  1  0  0  0  0
 25 11  1  0  0  0  0
 26 54  1  0  0  0  0
 26 25  2  0  0  0  0
 27 26  1  0  0  0  0
 28 27  2  0  0  0  0
 28 29  1  0  0  0  0
 29 30  2  0  0  0  0
 30 25  1  0  0  0  0
 30 56  1  0  0  0  0
 31 28  1  0  0  0  0
 32 27  1  0  0  0  0
 33 57  1  0  0  0  0
 33 32  1  0  0  0  0
 34 33  1  0  0  0  0
 35  3  1  0  0  0  0
 38  7  1  0  0  0  0
 43 18  1  0  0  0  0
 44 18  1  0  0  0  0
 45 19  1  0  0  0  0
 46 20  1  0  0  0  0
 49 21  1  0  0  0  0
 55 29  1  0  0  0  0
 58 33  1  0  0  0  0
 59 34  1  0  0  0  0
 60 34  1  0  0  0  0
 61 34  1  0  0  0  0
M  END
>  <Pose>
1

>  <Score>
-5.80

$$$$
