
 OpenBabel03202210083D

 49 52  0  0  1  0  0  0  0  0999 V2000
   50.8370   84.9970   31.4190 Cl  0  0  0  0  0  0  0  0  0  0  0  0
   51.5230   84.9460   29.8130 C   0  0  0  0  0  0  0  0  0  0  0  0
   52.8840   84.7310   29.6450 C   0  0  0  0  0  0  0  0  0  0  0  0
   53.4430   84.6860   28.3790 C   0  0  0  0  0  0  0  0  0  0  0  0
   54.6830   84.5030   27.9010 N   0  0  0  0  0  0  0  0  0  0  0  0
   54.6990   84.5500   26.5400 C   0  0  0  0  0  0  0  0  0  0  0  0
   53.4030   84.7720   26.1930 N   0  0  0  0  0  0  0  0  0  0  0  0
   52.6310   84.8570   27.2840 C   0  0  0  0  0  0  0  0  0  0  0  0
   51.2800   85.0710   27.4570 C   0  0  0  0  0  0  0  0  0  0  0  0
   50.7040   85.1190   28.7180 C   0  0  0  0  0  0  0  0  0  0  0  0
   55.8920   84.3760   25.6900 C   0  0  0  0  0  0  0  0  0  0  0  0
   56.4700   85.6970   25.2800 C   0  0  0  0  0  0  0  0  0  0  0  0
   55.8540   86.1610   24.0200 C   0  0  0  0  0  0  0  0  0  0  0  0
   54.9080   85.4910   23.5370 O   0  0  0  0  0  0  0  0  0  0  0  0
   56.2770   87.3170   23.3310 N   0  0  0  0  0  0  0  0  0  0  0  0
   56.7130   87.4960   21.9620 C   0  0  0  0  0  0  0  0  0  0  0  0
   56.1060   88.7690   21.5740 C   0  0  2  0  0  0  0  0  0  0  0  0
   55.5720   89.4240   22.8500 C   0  0  1  0  0  0  0  0  0  0  0  0
   56.3630   88.6320   23.9130 C   0  0  0  0  0  0  0  0  0  0  0  0
   55.8550   90.7640   22.9270 O   0  0  0  0  0  0  0  0  0  0  0  0
   55.1720   88.8530   20.5200 N   0  0  0  0  0  0  0  0  0  0  0  0
   55.3430   89.8480   19.6080 C   0  0  0  0  0  0  0  0  0  0  0  0
   54.4870   90.0130   18.5420 C   0  0  0  0  0  0  0  0  0  0  0  0
   53.4210   89.1600   18.3710 C   0  0  0  0  0  0  0  0  0  0  0  0
   52.6180   89.2890   17.3990 O   0  0  0  0  0  0  0  0  0  0  0  0
   53.2530   88.1790   19.2710 N   0  0  0  0  0  0  0  0  0  0  0  0
   54.1160   88.0690   20.2840 C   0  0  0  0  0  0  0  0  0  0  0  0
   53.9120   87.1370   21.0880 O   0  0  0  0  0  0  0  0  0  0  0  0
   54.6890   91.1140   17.5440 C   0  0  0  0  0  0  0  0  0  0  0  0
   53.5410   84.5940   30.4980 H   0  0  0  0  0  0  0  0  0  0  0  0
   55.5010   84.3480   28.5420 H   0  0  0  0  0  0  0  0  0  0  0  0
   50.6130   85.2100   26.6220 H   0  0  0  0  0  0  0  0  0  0  0  0
   49.6470   85.2870   28.8180 H   0  0  0  0  0  0  0  0  0  0  0  0
   55.5830   83.8310   24.7670 H   0  0  0  0  0  0  0  0  0  0  0  0
   56.6710   83.7700   26.2410 H   0  0  0  0  0  0  0  0  0  0  0  0
   56.1710   86.4670   26.0530 H   0  0  0  0  0  0  0  0  0  0  0  0
   57.5690   85.7050   25.2770 H   0  0  0  0  0  0  0  0  0  0  0  0
   56.5690   86.6060   21.3420 H   0  0  0  0  0  0  0  0  0  0  0  0
   57.8410   87.5870   22.0470 H   0  0  0  0  0  0  0  0  0  0  0  0
   56.9460   89.4770   21.2710 H   0  0  0  0  0  0  0  0  0  0  0  0
   54.5120   89.1880   23.0390 H   0  0  0  0  0  0  0  0  0  0  0  0
   55.8740   88.7090   24.9060 H   0  0  0  0  0  0  0  0  0  0  0  0
   57.3930   89.0430   23.9100 H   0  0  0  0  0  0  0  0  0  0  0  0
   56.6110   90.8850   23.5550 H   0  0  0  0  0  0  0  0  0  0  0  0
   56.1530   90.5580   19.6630 H   0  0  0  0  0  0  0  0  0  0  0  0
   52.4330   87.5050   19.1630 H   0  0  0  0  0  0  0  0  0  0  0  0
   55.5130   91.7920   17.8880 H   0  0  0  0  0  0  0  0  0  0  0  0
   54.8640   90.7280   16.5450 H   0  0  0  0  0  0  0  0  0  0  0  0
   53.7590   91.7450   17.5210 H   0  0  0  0  0  0  0  0  0  0  0  0
  2  1  1  0  0  0  0
  3  2  1  0  0  0  0
  3 30  1  0  0  0  0
  4  3  2  0  0  0  0
  5  4  1  0  0  0  0
  5 31  1  0  0  0  0
  6  5  1  0  0  0  0
  7  6  2  0  0  0  0
  7  8  1  0  0  0  0
  8  9  2  0  0  0  0
  8  4  1  0  0  0  0
  9 10  1  0  0  0  0
 10 33  1  0  0  0  0
 10  2  2  0  0  0  0
 11 35  1  0  0  0  0
 11  6  1  0  0  0  0
 12 11  1  0  0  0  0
 12 36  1  0  0  0  0
 13 12  1  0  0  0  0
 14 13  2  0  0  0  0
 15 19  1  0  0  0  0
 15 13  1  0  0  0  0
 16 39  1  0  0  0  0
 16 15  1  0  0  0  0
 17 40  1  6  0  0  0
 17 16  1  0  0  0  0
 17 18  1  0  0  0  0
 18 20  1  0  0  0  0
 18 41  1  1  0  0  0
 18 19  1  0  0  0  0
 19 42  1  0  0  0  0
 20 44  1  0  0  0  0
 21 17  1  0  0  0  0
 22 45  1  0  0  0  0
 22 21  1  0  0  0  0
 23 22  2  0  0  0  0
 24 23  1  0  0  0  0
 24 26  1  0  0  0  0
 25 24  2  0  0  0  0
 26 27  1  0  0  0  0
 27 21  1  0  0  0  0
 27 28  2  0  0  0  0
 29 47  1  0  0  0  0
 29 23  1  0  0  0  0
 32  9  1  0  0  0  0
 34 11  1  0  0  0  0
 37 12  1  0  0  0  0
 38 16  1  0  0  0  0
 43 19  1  0  0  0  0
 46 26  1  0  0  0  0
 48 29  1  0  0  0  0
 49 29  1  0  0  0  0
M  END
>  <Pose>
1

>  <Score>
-7.35

$$$$
