
 OpenBabel03202210083D

 55 58  0  0  1  0  0  0  0  0999 V2000
   56.5040   86.7340   23.0820 Cl  0  0  0  0  0  0  0  0  0  0  0  0
   56.2220   88.3600   22.5020 C   0  0  0  0  0  0  0  0  0  0  0  0
   55.7760   89.3750   23.3300 C   0  0  0  0  0  0  0  0  0  0  0  0
   55.5580   90.6500   22.8650 C   0  0  0  0  0  0  0  0  0  0  0  0
   55.1390   91.7820   23.4440 N   0  0  0  0  0  0  0  0  0  0  0  0
   55.0860   92.7940   22.5360 C   0  0  0  0  0  0  0  0  0  0  0  0
   55.4830   92.2480   21.3960 N   0  0  0  0  0  0  0  0  0  0  0  0
   55.7780   90.9530   21.5440 C   0  0  0  0  0  0  0  0  0  0  0  0
   56.2220   89.9600   20.6990 C   0  0  0  0  0  0  0  0  0  0  0  0
   56.4430   88.6720   21.1720 C   0  0  0  0  0  0  0  0  0  0  0  0
   54.6760   94.1850   22.8430 C   0  0  0  0  0  0  0  0  0  0  0  0
   54.4030   94.2970   24.3160 C   0  0  0  0  0  0  0  0  0  0  0  0
   55.4860   95.0610   24.9590 C   0  0  0  0  0  0  0  0  0  0  0  0
   56.6280   95.1230   24.4350 O   0  0  0  0  0  0  0  0  0  0  0  0
   55.2090   95.7250   26.1910 N   0  0  0  0  0  0  0  0  0  0  0  0
   54.1390   95.3490   27.0880 C   0  0  0  0  0  0  0  0  0  0  0  0
   53.5120   96.6000   27.7270 C   0  0  1  0  0  0  0  0  0  0  0  0
   53.7450   97.7210   26.7730 C   0  0  2  0  0  0  0  0  0  0  0  0
   55.2100   98.0950   26.7930 C   0  0  0  0  0  0  0  0  0  0  0  0
   56.0390   96.8450   26.5820 C   0  0  0  0  0  0  0  0  0  0  0  0
   52.8750   98.8370   26.8940 N   0  0  0  0  0  0  0  0  0  0  0  0
   52.2070   99.1430   28.0170 C   0  0  0  0  0  0  0  0  0  0  0  0
   51.3630  100.2430   28.0980 C   0  0  0  0  0  0  0  0  0  0  0  0
   51.2060  101.0470   26.9930 C   0  0  0  0  0  0  0  0  0  0  0  0
   50.4350  102.0550   27.0630 O   0  0  0  0  0  0  0  0  0  0  0  0
   51.8730  100.7390   25.8720 N   0  0  0  0  0  0  0  0  0  0  0  0
   52.6790   99.6630   25.8450 C   0  0  0  0  0  0  0  0  0  0  0  0
   53.3150   99.3720   24.7710 O   0  0  0  0  0  0  0  0  0  0  0  0
   50.6430  100.5350   29.3850 C   0  0  0  0  0  0  0  0  0  0  0  0
   52.1510   96.2940   27.8710 O   0  0  0  0  0  0  0  0  0  0  0  0
   54.1420   96.7620   29.0750 C   0  0  0  0  0  0  0  0  0  0  0  0
   55.6120   89.1040   24.3640 H   0  0  0  0  0  0  0  0  0  0  0  0
   54.8770   91.9080   24.4610 H   0  0  0  0  0  0  0  0  0  0  0  0
   56.3890   90.2160   19.6690 H   0  0  0  0  0  0  0  0  0  0  0  0
   56.7900   87.9220   20.4780 H   0  0  0  0  0  0  0  0  0  0  0  0
   53.7090   94.4130   22.3250 H   0  0  0  0  0  0  0  0  0  0  0  0
   55.4620   94.9190   22.5700 H   0  0  0  0  0  0  0  0  0  0  0  0
   53.4150   94.7970   24.4810 H   0  0  0  0  0  0  0  0  0  0  0  0
   54.2700   93.2860   24.7720 H   0  0  0  0  0  0  0  0  0  0  0  0
   53.3890   94.7330   26.5960 H   0  0  0  0  0  0  0  0  0  0  0  0
   54.6160   94.7060   27.8860 H   0  0  0  0  0  0  0  0  0  0  0  0
   53.5680   97.2930   25.7400 H   0  0  0  0  0  0  0  0  0  0  0  0
   55.4640   98.7710   25.9300 H   0  0  0  0  0  0  0  0  0  0  0  0
   55.5150   98.6480   27.6940 H   0  0  0  0  0  0  0  0  0  0  0  0
   56.8550   97.0000   25.8500 H   0  0  0  0  0  0  0  0  0  0  0  0
   56.4890   96.5680   27.5810 H   0  0  0  0  0  0  0  0  0  0  0  0
   52.3460   98.5020   28.8650 H   0  0  0  0  0  0  0  0  0  0  0  0
   51.7630  101.3400   25.0290 H   0  0  0  0  0  0  0  0  0  0  0  0
   49.6720  101.0300   29.0970 H   0  0  0  0  0  0  0  0  0  0  0  0
   50.3740   99.5600   29.8180 H   0  0  0  0  0  0  0  0  0  0  0  0
   51.2280  101.1880   30.0370 H   0  0  0  0  0  0  0  0  0  0  0  0
   52.0190   95.8000   28.7430 H   0  0  0  0  0  0  0  0  0  0  0  0
   54.9190   95.9720   29.2930 H   0  0  0  0  0  0  0  0  0  0  0  0
   53.3880   96.6090   29.9010 H   0  0  0  0  0  0  0  0  0  0  0  0
   54.6080   97.7260   29.2680 H   0  0  0  0  0  0  0  0  0  0  0  0
  2  1  1  0  0  0  0
  2  3  1  0  0  0  0
  3 32  1  0  0  0  0
  4  3  2  0  0  0  0
  4  5  1  0  0  0  0
  5 33  1  0  0  0  0
  6 11  1  0  0  0  0
  6  5  1  0  0  0  0
  7  8  1  0  0  0  0
  7  6  2  0  0  0  0
  8  4  1  0  0  0  0
  9 10  1  0  0  0  0
  9  8  2  0  0  0  0
 10  2  2  0  0  0  0
 11 12  1  0  0  0  0
 12 38  1  0  0  0  0
 12 39  1  0  0  0  0
 12 13  1  0  0  0  0
 13 15  1  0  0  0  0
 14 13  2  0  0  0  0
 15 20  1  0  0  0  0
 15 16  1  0  0  0  0
 16 17  1  0  0  0  0
 16 41  1  0  0  0  0
 17 30  1  1  0  0  0
 17 31  1  0  0  0  0
 18 42  1  6  0  0  0
 18 19  1  0  0  0  0
 18 21  1  0  0  0  0
 18 17  1  0  0  0  0
 19 44  1  0  0  0  0
 20 19  1  0  0  0  0
 20 46  1  0  0  0  0
 21 22  1  0  0  0  0
 22 23  2  0  0  0  0
 22 47  1  0  0  0  0
 23 29  1  0  0  0  0
 24 25  2  0  0  0  0
 24 23  1  0  0  0  0
 26 24  1  0  0  0  0
 27 26  1  0  0  0  0
 27 21  1  0  0  0  0
 28 27  2  0  0  0  0
 29 50  1  0  0  0  0
 29 51  1  0  0  0  0
 30 52  1  0  0  0  0
 31 55  1  0  0  0  0
 31 53  1  0  0  0  0
 31 54  1  0  0  0  0
 34  9  1  0  0  0  0
 35 10  1  0  0  0  0
 36 11  1  0  0  0  0
 37 11  1  0  0  0  0
 40 16  1  0  0  0  0
 43 19  1  0  0  0  0
 45 20  1  0  0  0  0
 48 26  1  0  0  0  0
 49 29  1  0  0  0  0
M  END
>  <Pose>
1

>  <Score>
-7.34

$$$$
