
 OpenBabel03202210083D

 55 59  0  0  1  0  0  0  0  0999 V2000
   56.3090   86.7540   21.6890 Cl  0  0  0  0  0  0  0  0  0  0  0  0
   56.0460   88.4930   21.7280 C   0  0  0  0  0  0  0  0  0  0  0  0
   55.7890   89.1590   22.9040 C   0  0  0  0  0  0  0  0  0  0  0  0
   55.5860   90.5390   22.8920 C   0  0  0  0  0  0  0  0  0  0  0  0
   55.3240   91.4410   23.8530 N   0  0  0  0  0  0  0  0  0  0  0  0
   55.2110   92.6760   23.3340 C   0  0  0  0  0  0  0  0  0  0  0  0
   55.4060   92.5410   22.0220 N   0  0  0  0  0  0  0  0  0  0  0  0
   55.6400   91.2490   21.7120 C   0  0  0  0  0  0  0  0  0  0  0  0
   55.8960   90.5810   20.5340 C   0  0  0  0  0  0  0  0  0  0  0  0
   56.0970   89.2010   20.5590 C   0  0  0  0  0  0  0  0  0  0  0  0
   54.9200   93.9120   24.1330 C   0  0  0  0  0  0  0  0  0  0  0  0
   55.7540   95.0530   23.5940 C   0  0  0  0  0  0  0  0  0  0  0  0
   56.9820   95.2130   24.3870 C   0  0  0  0  0  0  0  0  0  0  0  0
   57.9450   94.4490   24.1840 O   0  0  0  0  0  0  0  0  0  0  0  0
   57.0720   96.2160   25.3660 N   0  0  0  0  0  0  0  0  0  0  0  0
   57.0880   96.1530   26.7930 C   0  0  0  0  0  0  0  0  0  0  0  0
   56.1970   97.3360   27.2420 C   0  0  1  0  0  0  0  0  0  0  0  0
   56.5270   98.3180   26.1740 C   0  0  2  0  0  0  0  0  0  0  0  0
   57.1990   97.6230   25.0390 C   0  0  0  0  0  0  0  0  0  0  0  0
   57.3890   99.3280   26.6000 O   0  0  0  0  0  0  0  0  0  0  0  0
   54.8290   96.9020   27.2490 N   0  0  0  0  0  0  0  0  0  0  0  0
   53.7340   97.6190   27.5500 C   0  0  0  0  0  0  0  0  0  0  0  0
   52.6020   96.7880   27.4230 C   0  0  0  0  0  0  0  0  0  0  0  0
   53.0670   95.5850   27.0470 N   0  0  0  0  0  0  0  0  0  0  0  0
   54.3920   95.6360   26.9390 C   0  0  0  0  0  0  0  0  0  0  0  0
   51.3340   97.2630   27.6730 C   0  0  0  0  0  0  0  0  0  0  0  0
   50.3420   96.4960   27.5500 O   0  0  0  0  0  0  0  0  0  0  0  0
   51.2120   98.5440   28.0390 N   0  0  0  0  0  0  0  0  0  0  0  0
   52.2880   99.3240   28.1560 C   0  0  0  0  0  0  0  0  0  0  0  0
   52.1560  100.5280   28.5030 O   0  0  0  0  0  0  0  0  0  0  0  0
   53.5690   98.9040   27.9220 N   0  0  0  0  0  0  0  0  0  0  0  0
   54.6750   99.7960   28.0690 C   0  0  0  0  0  0  0  0  0  0  0  0
   49.8770   99.0800   28.3110 C   0  0  0  0  0  0  0  0  0  0  0  0
   55.7440   88.6220   23.8360 H   0  0  0  0  0  0  0  0  0  0  0  0
   55.2260   91.1800   24.8710 H   0  0  0  0  0  0  0  0  0  0  0  0
   55.9440   91.1110   19.5950 H   0  0  0  0  0  0  0  0  0  0  0  0
   56.3010   88.6670   19.6310 H   0  0  0  0  0  0  0  0  0  0  0  0
   55.1700   93.6980   25.1880 H   0  0  0  0  0  0  0  0  0  0  0  0
   53.8420   94.1700   24.0760 H   0  0  0  0  0  0  0  0  0  0  0  0
   55.1520   95.9700   23.5220 H   0  0  0  0  0  0  0  0  0  0  0  0
   55.9910   94.7710   22.5260 H   0  0  0  0  0  0  0  0  0  0  0  0
   58.1550   96.3960   27.0900 H   0  0  0  0  0  0  0  0  0  0  0  0
   56.8390   95.2190   27.2650 H   0  0  0  0  0  0  0  0  0  0  0  0
   56.6300   97.5430   28.2410 H   0  0  0  0  0  0  0  0  0  0  0  0
   55.5670   98.7350   25.7470 H   0  0  0  0  0  0  0  0  0  0  0  0
   56.7550   97.8590   24.0500 H   0  0  0  0  0  0  0  0  0  0  0  0
   58.2930   97.9040   25.0050 H   0  0  0  0  0  0  0  0  0  0  0  0
   57.2350  100.1780   26.0990 H   0  0  0  0  0  0  0  0  0  0  0  0
   55.0500   94.8400   26.6600 H   0  0  0  0  0  0  0  0  0  0  0  0
   54.9840  100.3160   27.1390 H   0  0  0  0  0  0  0  0  0  0  0  0
   54.2460  100.6860   28.6650 H   0  0  0  0  0  0  0  0  0  0  0  0
   55.4820   99.4820   28.7370 H   0  0  0  0  0  0  0  0  0  0  0  0
   49.5910   99.8130   27.5240 H   0  0  0  0  0  0  0  0  0  0  0  0
   49.1410   98.2560   28.3440 H   0  0  0  0  0  0  0  0  0  0  0  0
   49.9070   99.6370   29.2670 H   0  0  0  0  0  0  0  0  0  0  0  0
  1  2  1  0  0  0  0
  2  3  1  0  0  0  0
  3 34  1  0  0  0  0
  4  3  2  0  0  0  0
  4  5  1  0  0  0  0
  5 35  1  0  0  0  0
  6  5  1  0  0  0  0
  6 11  1  0  0  0  0
  7  6  2  0  0  0  0
  8  7  1  0  0  0  0
  8  4  1  0  0  0  0
  9 10  1  0  0  0  0
  9  8  2  0  0  0  0
 10  2  2  0  0  0  0
 11 38  1  0  0  0  0
 12 11  1  0  0  0  0
 12 13  1  0  0  0  0
 13 15  1  0  0  0  0
 14 13  2  0  0  0  0
 15 16  1  0  0  0  0
 16 42  1  0  0  0  0
 16 17  1  0  0  0  0
 16 43  1  0  0  0  0
 17 21  1  0  0  0  0
 17 44  1  1  0  0  0
 18 45  1  6  0  0  0
 18 20  1  0  0  0  0
 18 17  1  0  0  0  0
 19 15  1  0  0  0  0
 19 18  1  0  0  0  0
 21 22  1  0  0  0  0
 22 31  1  0  0  0  0
 23 22  2  0  0  0  0
 23 26  1  0  0  0  0
 24 23  1  0  0  0  0
 25 24  2  0  0  0  0
 25 21  1  0  0  0  0
 26 28  1  0  0  0  0
 27 26  2  0  0  0  0
 28 29  1  0  0  0  0
 28 33  1  0  0  0  0
 29 30  2  0  0  0  0
 31 32  1  0  0  0  0
 31 29  1  0  0  0  0
 32 51  1  0  0  0  0
 32 52  1  0  0  0  0
 33 54  1  0  0  0  0
 33 55  1  0  0  0  0
 36  9  1  0  0  0  0
 37 10  1  0  0  0  0
 39 11  1  0  0  0  0
 40 12  1  0  0  0  0
 41 12  1  0  0  0  0
 46 19  1  0  0  0  0
 47 19  1  0  0  0  0
 48 20  1  0  0  0  0
 49 25  1  0  0  0  0
 50 32  1  0  0  0  0
 53 33  1  0  0  0  0
M  END
>  <Pose>
1

>  <Score>
-7.90

$$$$
