
 OpenBabel03202210083D

 30 33  0  0  1  0  0  0  0  0999 V2000
   51.3710   88.1950   17.9530 F   0  0  0  0  0  0  0  0  0  0  0  0
   52.4210   88.4220   18.8110 C   0  0  0  0  0  0  0  0  0  0  0  0
   52.8100   87.3960   19.6810 C   0  0  0  0  0  0  0  0  0  0  0  0
   53.8480   87.6010   20.5390 C   0  0  0  0  0  0  0  0  0  0  0  0
   54.5230   88.8290   20.5500 C   0  0  0  0  0  0  0  0  0  0  0  0
   54.1230   89.8140   19.6890 C   0  0  0  0  0  0  0  0  0  0  0  0
   53.0780   89.6290   18.8160 C   0  0  0  0  0  0  0  0  0  0  0  0
   52.5650   90.9060   17.7050 Cl  0  0  0  0  0  0  0  0  0  0  0  0
   54.0510   86.3660   21.3410 C   0  0  2  0  0  0  0  0  0  0  0  0
   53.9060   86.6750   22.7290 N   0  0  0  0  0  0  0  0  0  0  0  0
   55.0010   87.1310   23.4920 C   0  0  0  0  0  0  0  0  0  0  0  0
   54.8380   87.7390   24.6960 N   0  0  0  0  0  0  0  0  0  0  0  0
   55.8400   88.1900   25.4570 C   0  0  0  0  0  0  0  0  0  0  0  0
   57.1490   88.0380   25.0130 C   0  0  0  0  0  0  0  0  0  0  0  0
   57.4000   87.4360   23.8120 C   0  0  0  0  0  0  0  0  0  0  0  0
   56.3190   86.9960   23.0790 C   0  0  0  0  0  0  0  0  0  0  0  0
   56.4820   86.3380   21.7790 C   0  0  0  0  0  0  0  0  0  0  0  0
   57.6800   86.1930   21.3580 O   0  0  0  0  0  0  0  0  0  0  0  0
   55.3850   85.8850   21.0250 N   0  0  0  0  0  0  0  0  0  0  0  0
   53.0230   85.4390   20.8550 C   0  0  0  0  0  0  0  0  0  0  0  0
   52.8080   84.2370   21.2580 O   0  0  0  0  0  0  0  0  0  0  0  0
   52.2780   86.0750   19.8490 N   0  0  0  0  0  0  0  0  0  0  0  0
   55.3540   88.9680   21.2480 H   0  0  0  0  0  0  0  0  0  0  0  0
   54.6350   90.7670   19.6880 H   0  0  0  0  0  0  0  0  0  0  0  0
   52.9830   86.5700   23.2170 H   0  0  0  0  0  0  0  0  0  0  0  0
   55.6890   88.6720   26.4120 H   0  0  0  0  0  0  0  0  0  0  0  0
   57.9740   88.3900   25.6050 H   0  0  0  0  0  0  0  0  0  0  0  0
   58.3910   87.2810   23.3990 H   0  0  0  0  0  0  0  0  0  0  0  0
   55.5780   85.2090   20.2510 H   0  0  0  0  0  0  0  0  0  0  0  0
   51.4680   85.7050   19.2840 H   0  0  0  0  0  0  0  0  0  0  0  0
  1  2  1  0  0  0  0
  2  7  2  0  0  0  0
  2  3  1  0  0  0  0
  3 22  1  0  0  0  0
  3  4  2  0  0  0  0
  4  5  1  0  0  0  0
  5 23  1  0  0  0  0
  6  5  2  0  0  0  0
  7  6  1  0  0  0  0
  8  7  1  0  0  0  0
  9  4  1  6  0  0  0
  9 10  1  0  0  0  0
 10 25  1  0  0  0  0
 10 11  1  0  0  0  0
 11 12  1  0  0  0  0
 12 13  2  0  0  0  0
 13 26  1  0  0  0  0
 14 13  1  0  0  0  0
 14 27  1  0  0  0  0
 15 14  2  0  0  0  0
 16 11  2  0  0  0  0
 16 15  1  0  0  0  0
 17 16  1  0  0  0  0
 18 17  2  0  0  0  0
 19  9  1  0  0  0  0
 19 17  1  0  0  0  0
 20 21  2  0  0  0  0
 20  9  1  0  0  0  0
 22 20  1  0  0  0  0
 24  6  1  0  0  0  0
 28 15  1  0  0  0  0
 29 19  1  0  0  0  0
 30 22  1  0  0  0  0
M  END
>  <Pose>
1

>  <Score>
-6.48

$$$$
