
 OpenBabel03202210083D

 48 51  0  0  0  0  0  0  0  0999 V2000
   56.2830   87.8860   22.4730 S   0  0  0  0  0  0  0  0  0  0  0  0
   57.2380   87.3200   21.4310 O   0  0  0  0  0  0  0  0  0  0  0  0
   57.0980   88.9140   23.2350 O   0  0  0  0  0  0  0  0  0  0  0  0
   55.0340   88.6790   21.6790 N   0  0  0  0  0  0  0  0  0  0  0  0
   53.9100   89.0500   22.4650 C   0  0  0  0  0  0  0  0  0  0  0  0
   53.5620   90.5130   22.3570 C   0  0  0  0  0  0  0  0  0  0  0  0
   54.7220   91.3430   22.1580 N   0  0  0  0  0  0  0  0  0  0  0  0
   55.6680   90.9980   21.1240 C   0  0  0  0  0  0  0  0  0  0  0  0
   55.3840   89.6020   20.6630 C   0  0  0  0  0  0  0  0  0  0  0  0
   54.9720   92.4950   22.9430 C   0  0  0  0  0  0  0  0  0  0  0  0
   54.2670   93.5080   22.7660 O   0  0  0  0  0  0  0  0  0  0  0  0
   56.0420   92.5300   23.9650 C   0  0  0  0  0  0  0  0  0  0  0  0
   56.1560   93.8320   24.5540 N   0  0  0  0  0  0  0  0  0  0  0  0
   57.1270   94.8460   24.3360 C   0  0  0  0  0  0  0  0  0  0  0  0
   58.0880   94.7400   23.5430 O   0  0  0  0  0  0  0  0  0  0  0  0
   56.7990   95.9850   25.1780 C   0  0  0  0  0  0  0  0  0  0  0  0
   55.6650   95.6970   25.8990 C   0  0  0  0  0  0  0  0  0  0  0  0
   55.1580   96.6440   26.7790 C   0  0  0  0  0  0  0  0  0  0  0  0
   55.7600   97.8600   26.9490 C   0  0  0  0  0  0  0  0  0  0  0  0
   56.9120   98.1650   26.2250 C   0  0  0  0  0  0  0  0  0  0  0  0
   57.4010   97.2050   25.3500 C   0  0  0  0  0  0  0  0  0  0  0  0
   55.2420   94.3530   25.5260 C   0  0  0  0  0  0  0  0  0  0  0  0
   54.2230   93.8030   26.0200 O   0  0  0  0  0  0  0  0  0  0  0  0
   55.8070   86.6660   23.5920 C   0  0  0  0  0  0  0  0  0  0  0  0
   56.7260   86.1670   24.4990 C   0  0  0  0  0  0  0  0  0  0  0  0
   56.3970   85.1900   25.4170 C   0  0  0  0  0  0  0  0  0  0  0  0
   55.1010   84.7080   25.4140 C   0  0  0  0  0  0  0  0  0  0  0  0
   54.1960   85.2140   24.5030 C   0  0  0  0  0  0  0  0  0  0  0  0
   54.5110   86.1910   23.5810 C   0  0  0  0  0  0  0  0  0  0  0  0
   54.5750   83.3450   26.6680 B   0  0  0  0  0  0  0  0  0  0  0  0
   53.0200   88.4830   22.0600 H   0  0  0  0  0  0  0  0  0  0  0  0
   54.0230   88.7150   23.5170 H   0  0  0  0  0  0  0  0  0  0  0  0
   53.0240   90.8160   23.2750 H   0  0  0  0  0  0  0  0  0  0  0  0
   52.8330   90.6650   21.5190 H   0  0  0  0  0  0  0  0  0  0  0  0
   55.5110   91.6690   20.2300 H   0  0  0  0  0  0  0  0  0  0  0  0
   56.6900   91.1430   21.5090 H   0  0  0  0  0  0  0  0  0  0  0  0
   56.2060   89.2070   20.0390 H   0  0  0  0  0  0  0  0  0  0  0  0
   54.5010   89.6730   19.9600 H   0  0  0  0  0  0  0  0  0  0  0  0
   57.0020   92.2810   23.4330 H   0  0  0  0  0  0  0  0  0  0  0  0
   55.8670   91.7650   24.7550 H   0  0  0  0  0  0  0  0  0  0  0  0
   54.2720   96.3950   27.3300 H   0  0  0  0  0  0  0  0  0  0  0  0
   55.3730   98.5870   27.6240 H   0  0  0  0  0  0  0  0  0  0  0  0
   57.4220   99.0960   26.3170 H   0  0  0  0  0  0  0  0  0  0  0  0
   58.2960   97.4490   24.7910 H   0  0  0  0  0  0  0  0  0  0  0  0
   57.7620   86.5230   24.5350 H   0  0  0  0  0  0  0  0  0  0  0  0
   57.0950   84.7820   26.1380 H   0  0  0  0  0  0  0  0  0  0  0  0
   53.1610   84.8430   24.4860 H   0  0  0  0  0  0  0  0  0  0  0  0
   53.7560   86.5590   22.8790 H   0  0  0  0  0  0  0  0  0  0  0  0
  1  3  2  0  0  0  0
  1 24  1  0  0  0  0
  2  1  2  0  0  0  0
  4  5  1  0  0  0  0
  4  1  1  0  0  0  0
  5 32  1  0  0  0  0
  6  5  1  0  0  0  0
  6 33  1  0  0  0  0
  7  6  1  0  0  0  0
  7 10  1  0  0  0  0
  8 36  1  0  0  0  0
  8  7  1  0  0  0  0
  9  8  1  0  0  0  0
  9  4  1  0  0  0  0
 10 12  1  0  0  0  0
 11 10  2  0  0  0  0
 12 13  1  0  0  0  0
 12 40  1  0  0  0  0
 13 22  1  0  0  0  0
 14 13  1  0  0  0  0
 14 16  1  0  0  0  0
 15 14  2  0  0  0  0
 16 21  2  0  0  0  0
 16 17  1  0  0  0  0
 17 18  2  0  0  0  0
 18 19  1  0  0  0  0
 18 41  1  0  0  0  0
 19 42  1  0  0  0  0
 20 43  1  0  0  0  0
 20 19  2  0  0  0  0
 21 20  1  0  0  0  0
 22 17  1  0  0  0  0
 22 23  2  0  0  0  0
 24 25  1  0  0  0  0
 25 45  1  0  0  0  0
 25 26  2  0  0  0  0
 26 46  1  0  0  0  0
 27 26  1  0  0  0  0
 27 30  1  0  0  0  0
 28 27  2  0  0  0  0
 29 24  2  0  0  0  0
 29 28  1  0  0  0  0
 31  5  1  0  0  0  0
 34  6  1  0  0  0  0
 35  8  1  0  0  0  0
 37  9  1  0  0  0  0
 38  9  1  0  0  0  0
 39 12  1  0  0  0  0
 44 21  1  0  0  0  0
 47 28  1  0  0  0  0
 48 29  1  0  0  0  0
M  END
>  <Pose>
1

>  <Score>
-7.03

$$$$
