
 OpenBabel03202210083D

 51 55  0  0  1  0  0  0  0  0999 V2000
   50.7310   84.7370   27.5240 Cl  0  0  0  0  0  0  0  0  0  0  0  0
   52.3660   84.2170   27.1860 C   0  0  0  0  0  0  0  0  0  0  0  0
   53.1340   85.0320   26.3540 C   0  0  0  0  0  0  0  0  0  0  0  0
   54.4270   84.6570   26.0640 C   0  0  0  0  0  0  0  0  0  0  0  0
   54.9060   83.4710   26.6220 C   0  0  0  0  0  0  0  0  0  0  0  0
   54.1400   82.6720   27.4430 C   0  0  0  0  0  0  0  0  0  0  0  0
   52.8460   83.0490   27.7340 C   0  0  0  0  0  0  0  0  0  0  0  0
   55.0650   85.6320   25.1790 C   0  0  1  0  0  0  0  0  0  0  0  0
   56.2870   86.1830   25.7330 N   0  0  0  0  0  0  0  0  0  0  0  0
   57.0340   86.6840   24.5870 C   0  0  2  0  0  0  0  0  0  0  0  0
   56.7130   85.7650   23.4410 C   0  0  1  0  0  0  0  0  0  0  0  0
   55.4420   85.0530   23.8340 C   0  0  2  0  0  0  0  0  0  0  0  0
   54.4440   85.3970   22.7900 C   0  0  0  0  0  0  0  0  0  0  0  0
   53.2310   85.0640   22.9000 O   0  0  0  0  0  0  0  0  0  0  0  0
   55.0800   86.1100   21.7430 N   0  0  0  0  0  0  0  0  0  0  0  0
   56.3110   86.5980   22.2560 C   0  0  0  0  0  0  0  0  0  0  0  0
   57.0090   87.5650   21.8380 O   0  0  0  0  0  0  0  0  0  0  0  0
   54.5830   86.2970   20.4290 C   0  0  0  0  0  0  0  0  0  0  0  0
   53.7760   85.2050   19.8470 C   0  0  2  0  0  0  0  0  0  0  0  0
   54.4910   84.2590   19.1280 O   0  0  0  0  0  0  0  0  0  0  0  0
   53.4860   83.3410   18.8230 C   0  0  0  0  0  0  0  0  0  0  0  0
   52.3020   84.1980   18.3550 C   0  0  0  0  0  0  0  0  0  0  0  0
   52.6870   85.5800   18.9110 C   0  0  0  0  0  0  0  0  0  0  0  0
   58.4960   86.6910   24.9230 C   0  0  0  0  0  0  0  0  0  0  0  0
   58.8270   88.0660   25.4170 C   0  0  0  0  0  0  0  0  0  0  0  0
   57.8540   88.8150   25.6910 O   0  0  0  0  0  0  0  0  0  0  0  0
   60.1600   88.5210   25.5740 N   0  0  0  0  0  0  0  0  0  0  0  0
   54.0360   86.6600   24.9550 C   0  0  0  0  0  0  0  0  0  0  0  0
   54.1390   87.7260   24.2450 O   0  0  0  0  0  0  0  0  0  0  0  0
   52.8850   86.2590   25.6790 N   0  0  0  0  0  0  0  0  0  0  0  0
   55.9180   83.1260   26.4280 H   0  0  0  0  0  0  0  0  0  0  0  0
   54.5150   81.7530   27.8740 H   0  0  0  0  0  0  0  0  0  0  0  0
   52.2590   82.4080   28.3810 H   0  0  0  0  0  0  0  0  0  0  0  0
   56.8340   85.4670   26.2630 H   0  0  0  0  0  0  0  0  0  0  0  0
   56.6570   87.7010   24.3900 H   0  0  0  0  0  0  0  0  0  0  0  0
   57.5430   85.0930   23.2110 H   0  0  0  0  0  0  0  0  0  0  0  0
   55.6090   83.9790   23.8930 H   0  0  0  0  0  0  0  0  0  0  0  0
   53.9390   87.2260   20.3800 H   0  0  0  0  0  0  0  0  0  0  0  0
   55.3970   86.5280   19.6790 H   0  0  0  0  0  0  0  0  0  0  0  0
   53.3050   84.6510   20.6960 H   0  0  0  0  0  0  0  0  0  0  0  0
   53.1500   82.7760   19.7060 H   0  0  0  0  0  0  0  0  0  0  0  0
   53.7940   82.6170   18.0510 H   0  0  0  0  0  0  0  0  0  0  0  0
   52.2710   84.1760   17.2700 H   0  0  0  0  0  0  0  0  0  0  0  0
   51.3560   83.8710   18.8460 H   0  0  0  0  0  0  0  0  0  0  0  0
   52.9700   86.1730   18.0430 H   0  0  0  0  0  0  0  0  0  0  0  0
   51.7970   86.0140   19.4250 H   0  0  0  0  0  0  0  0  0  0  0  0
   59.0490   86.4790   23.9820 H   0  0  0  0  0  0  0  0  0  0  0  0
   58.7150   85.9290   25.6790 H   0  0  0  0  0  0  0  0  0  0  0  0
   60.9310   87.8680   25.3320 H   0  0  0  0  0  0  0  0  0  0  0  0
   60.4170   89.4680   25.9170 H   0  0  0  0  0  0  0  0  0  0  0  0
   51.9710   86.7850   25.7190 H   0  0  0  0  0  0  0  0  0  0  0  0
  2  1  1  0  0  0  0
  2  7  1  0  0  0  0
  3  2  2  0  0  0  0
  4  3  1  0  0  0  0
  4  5  2  0  0  0  0
  5  6  1  0  0  0  0
  6  7  2  0  0  0  0
  6 32  1  0  0  0  0
  7 33  1  0  0  0  0
  8 28  1  6  0  0  0
  8  9  1  0  0  0  0
  8  4  1  0  0  0  0
  9 34  1  0  0  0  0
 10 35  1  6  0  0  0
 10 24  1  0  0  0  0
 10  9  1  0  0  0  0
 11 36  1  6  0  0  0
 11 12  1  0  0  0  0
 11 10  1  0  0  0  0
 12 37  1  1  0  0  0
 12  8  1  0  0  0  0
 13 14  2  0  0  0  0
 13 12  1  0  0  0  0
 15 16  1  0  0  0  0
 15 13  1  0  0  0  0
 16 11  1  0  0  0  0
 17 16  2  0  0  0  0
 18 15  1  0  0  0  0
 19 18  1  0  0  0  0
 19 40  1  1  0  0  0
 20 19  1  0  0  0  0
 21 20  1  0  0  0  0
 21 41  1  0  0  0  0
 22 21  1  0  0  0  0
 22 44  1  0  0  0  0
 22 23  1  0  0  0  0
 23 46  1  0  0  0  0
 23 19  1  0  0  0  0
 24 25  1  0  0  0  0
 24 48  1  0  0  0  0
 25 27  1  0  0  0  0
 25 26  2  0  0  0  0
 27 50  1  0  0  0  0
 28 30  1  0  0  0  0
 29 28  2  0  0  0  0
 30 51  1  0  0  0  0
 30  3  1  0  0  0  0
 31  5  1  0  0  0  0
 38 18  1  0  0  0  0
 39 18  1  0  0  0  0
 42 21  1  0  0  0  0
 43 22  1  0  0  0  0
 45 23  1  0  0  0  0
 47 24  1  0  0  0  0
 49 27  1  0  0  0  0
M  END
>  <Pose>
1

>  <Score>
-5.91

$$$$
