
 OpenBabel03202210083D

 47 50  0  0  1  0  0  0  0  0999 V2000
   51.6610   84.1150   26.5850 Cl  0  0  0  0  0  0  0  0  0  0  0  0
   53.3100   84.4270   26.1110 C   0  0  0  0  0  0  0  0  0  0  0  0
   53.6420   85.5460   25.3890 C   0  0  0  0  0  0  0  0  0  0  0  0
   54.9390   85.8310   24.9990 C   0  0  0  0  0  0  0  0  0  0  0  0
   55.9210   84.9560   25.3540 C   0  0  0  0  0  0  0  0  0  0  0  0
   55.6380   83.8070   26.0850 C   0  0  0  0  0  0  0  0  0  0  0  0
   54.3310   83.5590   26.4540 C   0  0  0  0  0  0  0  0  0  0  0  0
   55.2460   86.9930   24.2380 N   0  0  0  0  0  0  0  0  0  0  0  0
   54.8510   88.2520   24.7800 C   0  0  0  0  0  0  0  0  0  0  0  0
   54.2710   88.3820   25.8850 O   0  0  0  0  0  0  0  0  0  0  0  0
   55.1330   89.4290   24.0250 N   0  0  0  0  0  0  0  0  0  0  0  0
   55.7970   89.3110   22.7580 C   0  0  0  0  0  0  0  0  0  0  0  0
   56.2290   90.4020   22.2540 O   0  0  0  0  0  0  0  0  0  0  0  0
   55.9750   88.0190   22.0700 C   0  0  1  0  0  0  0  0  0  0  0  0
   55.9090   86.8550   22.9880 C   0  0  0  0  0  0  0  0  0  0  0  0
   56.4430   85.7790   22.6230 O   0  0  0  0  0  0  0  0  0  0  0  0
   54.9580   87.8620   20.9650 C   0  0  0  0  0  0  0  0  0  0  0  0
   55.2230   88.0440   19.6840 C   0  0  0  0  0  0  0  0  0  0  0  0
   53.9450   87.7890   18.9820 C   0  0  1  0  0  0  0  0  0  0  0  0
   53.2950   86.8480   19.8780 N   0  0  0  0  0  0  0  0  0  0  0  0
   53.5930   87.4740   21.1130 N   0  0  0  0  0  0  0  0  0  0  0  0
   53.1480   89.0410   18.8650 C   0  0  0  0  0  0  0  0  0  0  0  0
   53.4170   90.2070   19.5230 C   0  0  0  0  0  0  0  0  0  0  0  0
   52.6680   91.3540   19.3490 C   0  0  0  0  0  0  0  0  0  0  0  0
   51.5920   91.3600   18.4810 C   0  0  0  0  0  0  0  0  0  0  0  0
   51.3200   90.1580   17.8070 C   0  0  0  0  0  0  0  0  0  0  0  0
   52.0760   89.0250   17.9930 C   0  0  0  0  0  0  0  0  0  0  0  0
   50.8270   92.4830   18.2780 O   0  0  0  0  0  0  0  0  0  0  0  0
   50.1380   92.7080   17.0660 C   0  0  0  0  0  0  0  0  0  0  0  0
   52.9870   92.5290   20.0530 O   0  0  0  0  0  0  0  0  0  0  0  0
   52.8720   86.2680   25.0930 H   0  0  0  0  0  0  0  0  0  0  0  0
   56.9550   85.1480   25.0640 H   0  0  0  0  0  0  0  0  0  0  0  0
   56.4570   83.1640   26.3260 H   0  0  0  0  0  0  0  0  0  0  0  0
   54.1300   82.6690   27.0160 H   0  0  0  0  0  0  0  0  0  0  0  0
   54.8700   90.3890   24.3650 H   0  0  0  0  0  0  0  0  0  0  0  0
   57.0120   88.0250   21.6600 H   0  0  0  0  0  0  0  0  0  0  0  0
   56.1790   88.3190   19.2730 H   0  0  0  0  0  0  0  0  0  0  0  0
   54.0790   87.3370   17.9790 H   0  0  0  0  0  0  0  0  0  0  0  0
   52.2960   86.7060   19.7120 H   0  0  0  0  0  0  0  0  0  0  0  0
   53.0340   87.6460   21.9490 H   0  0  0  0  0  0  0  0  0  0  0  0
   54.2350   90.2460   20.1980 H   0  0  0  0  0  0  0  0  0  0  0  0
   50.4700   90.1980   17.1370 H   0  0  0  0  0  0  0  0  0  0  0  0
   51.7910   88.1320   17.4260 H   0  0  0  0  0  0  0  0  0  0  0  0
   50.8330   92.5860   16.1910 H   0  0  0  0  0  0  0  0  0  0  0  0
   49.7950   93.7790   16.9910 H   0  0  0  0  0  0  0  0  0  0  0  0
   49.2870   92.0280   16.9090 H   0  0  0  0  0  0  0  0  0  0  0  0
   53.9020   92.9400   19.9040 H   0  0  0  0  0  0  0  0  0  0  0  0
  2  7  1  0  0  0  0
  2  1  1  0  0  0  0
  3  2  2  0  0  0  0
  4  5  2  0  0  0  0
  4  3  1  0  0  0  0
  5  6  1  0  0  0  0
  6 33  1  0  0  0  0
  6  7  2  0  0  0  0
  7 34  1  0  0  0  0
  8  9  1  0  0  0  0
  8  4  1  0  0  0  0
  9 10  2  0  0  0  0
 11 35  1  0  0  0  0
 11  9  1  0  0  0  0
 12 11  1  0  0  0  0
 13 12  2  0  0  0  0
 14 36  1  6  0  0  0
 14 12  1  0  0  0  0
 14 15  1  0  0  0  0
 15  8  1  0  0  0  0
 16 15  2  0  0  0  0
 17 21  1  0  0  0  0
 17 14  1  0  0  0  0
 18 17  2  0  0  0  0
 19 38  1  6  0  0  0
 19 18  1  0  0  0  0
 19 20  1  0  0  0  0
 20 21  1  0  0  0  0
 21 40  1  0  0  0  0
 22 19  1  0  0  0  0
 22 23  1  0  0  0  0
 23 41  1  0  0  0  0
 24 23  2  0  0  0  0
 24 30  1  0  0  0  0
 25 24  1  0  0  0  0
 26 27  1  0  0  0  0
 26 25  2  0  0  0  0
 27 22  2  0  0  0  0
 28 25  1  0  0  0  0
 29 28  1  0  0  0  0
 31  3  1  0  0  0  0
 32  5  1  0  0  0  0
 37 18  1  0  0  0  0
 39 20  1  0  0  0  0
 42 26  1  0  0  0  0
 43 27  1  0  0  0  0
 44 29  1  0  0  0  0
 45 29  1  0  0  0  0
 46 29  1  0  0  0  0
 47 30  1  0  0  0  0
M  END
>  <Pose>
1

>  <Score>
-6.62

$$$$
