
 OpenBabel03202210083D

 47 51  0  0  1  0  0  0  0  0999 V2000
   56.7340   98.3250   26.7470 I   0  0  0  0  0  0  0  0  0  0  0  0
   56.2820   96.5030   25.7940 C   0  0  0  0  0  0  0  0  0  0  0  0
   55.0970   95.8350   26.0310 C   0  0  0  0  0  0  0  0  0  0  0  0
   54.7950   94.6270   25.4010 C   0  0  0  0  0  0  0  0  0  0  0  0
   55.6900   94.0930   24.5300 C   0  0  0  0  0  0  0  0  0  0  0  0
   56.8740   94.7710   24.3000 C   0  0  0  0  0  0  0  0  0  0  0  0
   57.1910   95.9650   24.9120 C   0  0  0  0  0  0  0  0  0  0  0  0
   55.4730   92.8530   23.8290 N   0  0  0  0  0  0  0  0  0  0  0  0
   55.9890   91.6750   24.1300 N   0  0  0  0  0  0  0  0  0  0  0  0
   55.5850   90.7170   23.2710 C   0  0  0  0  0  0  0  0  0  0  0  0
   55.8860   89.4410   23.2520 C   0  0  0  0  0  0  0  0  0  0  0  0
   54.7510   91.3370   22.3610 C   0  0  2  0  0  0  0  0  0  0  0  0
   54.1280   90.7480   21.3290 C   0  0  0  0  0  0  0  0  0  0  0  0
   53.3150   91.5870   20.5190 N   0  0  0  0  0  4  0  0  0  0  0  0
   53.0090   91.1620   19.1630 C   0  0  1  0  0  0  0  0  0  0  0  0
   53.6300   92.1270   18.1650 C   0  0  0  0  0  0  0  0  0  0  0  0
   53.3680   91.6590   16.8320 N   0  0  2  0  0  0  0  0  0  0  0  0
   51.9200   91.6270   16.6580 C   0  0  0  0  0  0  0  0  0  0  0  0
   51.3010   90.6930   17.5560 N   0  0  1  0  0  0  0  0  0  0  0  0
   51.8750   89.3750   17.3950 C   0  0  0  0  0  0  0  0  0  0  0  0
   53.3010   89.3800   17.5840 N   0  0  1  0  0  0  0  0  0  0  0  0
   53.9390   90.3390   16.6870 C   0  0  0  0  0  0  0  0  0  0  0  0
   53.5970   89.7870   18.9380 C   0  0  0  0  0  0  0  0  0  0  0  0
   51.5310   91.1340   18.9080 C   0  0  0  0  0  0  0  0  0  0  0  0
   54.7080   92.6610   22.7410 C   0  0  0  0  0  0  0  0  0  0  0  0
   54.0520   93.5620   22.1610 O   0  0  0  0  0  0  0  0  0  0  0  0
   54.4130   96.2990   26.7340 H   0  0  0  0  0  0  0  0  0  0  0  0
   53.8640   94.1170   25.5970 H   0  0  0  0  0  0  0  0  0  0  0  0
   57.5840   94.3340   23.6010 H   0  0  0  0  0  0  0  0  0  0  0  0
   58.1390   96.4800   24.7090 H   0  0  0  0  0  0  0  0  0  0  0  0
   56.6350   91.4850   24.9320 H   0  0  0  0  0  0  0  0  0  0  0  0
   55.4780   88.7970   22.4940 H   0  0  0  0  0  0  0  0  0  0  0  0
   56.5420   89.0080   23.9880 H   0  0  0  0  0  0  0  0  0  0  0  0
   54.2440   89.6880   21.1360 H   0  0  0  0  0  0  0  0  0  0  0  0
   52.9200   92.4950   20.8350 H   0  0  0  0  0  0  0  0  0  0  0  0
   53.1650   93.1200   18.3660 H   0  0  0  0  0  0  0  0  0  0  0  0
   54.6970   92.2300   18.4090 H   0  0  0  0  0  0  0  0  0  0  0  0
   51.6310   91.4820   15.5990 H   0  0  0  0  0  0  0  0  0  0  0  0
   51.5620   92.6580   16.9440 H   0  0  0  0  0  0  0  0  0  0  0  0
   51.6760   88.9980   16.3580 H   0  0  0  0  0  0  0  0  0  0  0  0
   51.4280   88.6860   18.1360 H   0  0  0  0  0  0  0  0  0  0  0  0
   55.0070   90.4060   17.0090 H   0  0  0  0  0  0  0  0  0  0  0  0
   53.9320   89.9920   15.6330 H   0  0  0  0  0  0  0  0  0  0  0  0
   53.0920   89.0680   19.6210 H   0  0  0  0  0  0  0  0  0  0  0  0
   54.6840   89.8460   19.1310 H   0  0  0  0  0  0  0  0  0  0  0  0
   51.1230   92.1470   19.0940 H   0  0  0  0  0  0  0  0  0  0  0  0
   51.0050   90.4370   19.6050 H   0  0  0  0  0  0  0  0  0  0  0  0
  2  3  1  0  0  0  0
  2  1  1  0  0  0  0
  3 27  1  0  0  0  0
  4 28  1  0  0  0  0
  4  3  2  0  0  0  0
  5  4  1  0  0  0  0
  6  5  2  0  0  0  0
  6  7  1  0  0  0  0
  7  2  2  0  0  0  0
  8  9  1  0  0  0  0
  8  5  1  0  0  0  0
  9 31  1  0  0  0  0
 10  9  1  0  0  0  0
 11 10  2  0  0  0  0
 11 33  1  0  0  0  0
 12 13  1  6  0  0  0
 12 25  1  0  0  0  0
 12 10  1  0  0  0  0
 14 35  1  0  0  0  0
 14 13  2  0  0  0  0
 15 14  1  1  0  0  0
 16 36  1  0  0  0  0
 16 37  1  0  0  0  0
 16 15  1  0  0  0  0
 17 18  1  1  0  0  0
 17 16  1  0  0  0  0
 18 39  1  0  0  0  0
 19 18  1  6  0  0  0
 19 24  1  0  0  0  0
 20 19  1  0  0  0  0
 20 21  1  0  0  0  0
 20 41  1  0  0  0  0
 21 22  1  6  0  0  0
 21 23  1  0  0  0  0
 22 17  1  0  0  0  0
 22 42  1  0  0  0  0
 23 45  1  0  0  0  0
 23 15  1  0  0  0  0
 23 44  1  0  0  0  0
 24 46  1  0  0  0  0
 24 15  1  0  0  0  0
 24 47  1  0  0  0  0
 25  8  1  0  0  0  0
 26 25  2  0  0  0  0
 29  6  1  0  0  0  0
 30  7  1  0  0  0  0
 32 11  1  0  0  0  0
 34 13  1  0  0  0  0
 38 18  1  0  0  0  0
 40 20  1  0  0  0  0
 43 22  1  0  0  0  0
M  END
>  <Pose>
1

>  <Score>
-6.64

$$$$
