
 OpenBabel03202210083D

 39 42  0  0  0  0  0  0  0  0999 V2000
   55.7890   97.3950   27.1070 Cl  0  0  0  0  0  0  0  0  0  0  0  0
   55.6430   96.0990   25.9110 C   0  0  0  0  0  0  0  0  0  0  0  0
   54.4630   95.4140   25.7520 C   0  0  0  0  0  0  0  0  0  0  0  0
   54.3530   94.4070   24.8220 C   0  0  0  0  0  0  0  0  0  0  0  0
   55.4040   94.0090   23.9870 C   0  0  0  0  0  0  0  0  0  0  0  0
   56.5740   94.7120   24.1670 C   0  0  0  0  0  0  0  0  0  0  0  0
   56.7000   95.7450   25.1150 C   0  0  0  0  0  0  0  0  0  0  0  0
   55.1860   92.9770   23.0140 C   0  0  0  0  0  0  0  0  0  0  0  0
   53.9940   93.0070   22.4740 O   0  0  0  0  0  0  0  0  0  0  0  0
   56.0090   91.9620   22.5500 N   0  0  0  0  0  0  0  0  0  0  0  0
   57.1690   91.9940   21.7220 C   0  0  0  0  0  0  0  0  0  0  0  0
   56.6700   91.5820   20.3220 C   0  0  0  0  0  0  0  0  0  0  0  0
   55.7110   90.4780   20.5140 N   0  0  0  0  0  0  0  0  0  0  0  0
   55.8400   89.6770   21.6970 C   0  0  0  0  0  0  0  0  0  0  0  0
   55.6180   90.5590   22.9120 C   0  0  0  0  0  0  0  0  0  0  0  0
   54.7070   90.2450   19.5300 C   0  0  0  0  0  0  0  0  0  0  0  0
   53.6440   89.4510   19.7900 N   0  0  0  0  0  0  0  0  0  0  0  0
   52.6960   89.2100   18.9020 N   0  0  0  0  0  0  0  0  0  0  0  0
   52.7150   89.7380   17.6700 C   0  0  0  0  0  0  0  0  0  0  0  0
   51.6280   89.3300   16.9680 N   0  0  0  0  0  0  0  0  0  0  0  0
   50.9280   88.5450   17.7660 N   0  0  0  0  0  0  0  0  0  0  0  0
   51.5610   88.4570   18.9500 C   0  0  0  0  0  0  0  0  0  0  0  0
   53.7720   90.5630   17.3270 C   0  0  0  0  0  0  0  0  0  0  0  0
   54.7460   90.7970   18.2690 C   0  0  0  0  0  0  0  0  0  0  0  0
   53.6320   95.6980   26.3840 H   0  0  0  0  0  0  0  0  0  0  0  0
   53.4140   93.8920   24.7280 H   0  0  0  0  0  0  0  0  0  0  0  0
   57.4220   94.4910   23.5490 H   0  0  0  0  0  0  0  0  0  0  0  0
   57.6410   96.2780   25.2290 H   0  0  0  0  0  0  0  0  0  0  0  0
   57.8250   92.8350   21.7470 H   0  0  0  0  0  0  0  0  0  0  0  0
   57.8170   91.0760   22.0020 H   0  0  0  0  0  0  0  0  0  0  0  0
   57.5090   91.2560   19.6790 H   0  0  0  0  0  0  0  0  0  0  0  0
   56.1700   92.4730   19.9240 H   0  0  0  0  0  0  0  0  0  0  0  0
   56.8580   89.2430   21.8150 H   0  0  0  0  0  0  0  0  0  0  0  0
   55.0510   88.8980   21.7300 H   0  0  0  0  0  0  0  0  0  0  0  0
   56.2310   90.2540   23.7780 H   0  0  0  0  0  0  0  0  0  0  0  0
   54.5620   90.5690   23.2260 H   0  0  0  0  0  0  0  0  0  0  0  0
   51.2320   87.8840   19.8140 H   0  0  0  0  0  0  0  0  0  0  0  0
   53.8270   91.0130   16.3390 H   0  0  0  0  0  0  0  0  0  0  0  0
   55.6050   91.4450   18.0410 H   0  0  0  0  0  0  0  0  0  0  0  0
  2  1  1  0  0  0  0
  3  2  1  0  0  0  0
  3 25  1  0  0  0  0
  4  3  2  0  0  0  0
  5  6  2  0  0  0  0
  5  4  1  0  0  0  0
  6  7  1  0  0  0  0
  7 28  1  0  0  0  0
  7  2  2  0  0  0  0
  8  5  1  0  0  0  0
  9  8  2  0  0  0  0
 10 15  1  0  0  0  0
 10  8  1  0  0  0  0
 11 29  1  0  0  0  0
 11 30  1  0  0  0  0
 11 10  1  0  0  0  0
 12 13  1  0  0  0  0
 12 11  1  0  0  0  0
 13 14  1  0  0  0  0
 14 34  1  0  0  0  0
 14 33  1  0  0  0  0
 14 15  1  0  0  0  0
 15 36  1  0  0  0  0
 15 35  1  0  0  0  0
 16 17  2  0  0  0  0
 16 13  1  0  0  0  0
 18 22  1  0  0  0  0
 18 17  1  0  0  0  0
 19 18  1  0  0  0  0
 20 19  2  0  0  0  0
 20 21  1  0  0  0  0
 21 22  2  0  0  0  0
 22 37  1  0  0  0  0
 23 19  1  0  0  0  0
 23 24  2  0  0  0  0
 24 16  1  0  0  0  0
 26  4  1  0  0  0  0
 27  6  1  0  0  0  0
 31 12  1  0  0  0  0
 32 12  1  0  0  0  0
 38 23  1  0  0  0  0
 39 24  1  0  0  0  0
M  END
>  <Pose>
1

>  <Score>
-6.22

$$$$
