
 OpenBabel03202210083D

 47 50  0  0  0  0  0  0  0  0999 V2000
   54.7240   97.3710   26.7730 Cl  0  0  0  0  0  0  0  0  0  0  0  0
   54.9400   95.8660   25.9000 C   0  0  0  0  0  0  0  0  0  0  0  0
   53.9300   94.9320   25.7580 C   0  0  0  0  0  0  0  0  0  0  0  0
   54.1110   93.7480   25.0650 C   0  0  0  0  0  0  0  0  0  0  0  0
   55.3240   93.4450   24.4800 C   0  0  0  0  0  0  0  0  0  0  0  0
   56.3390   94.3680   24.6150 C   0  0  0  0  0  0  0  0  0  0  0  0
   56.1570   95.5600   25.3110 C   0  0  0  0  0  0  0  0  0  0  0  0
   55.4900   92.2210   23.7710 N   0  0  0  0  0  0  0  0  0  0  0  0
   55.5760   91.0530   24.3000 N   0  0  0  0  0  0  0  0  0  0  0  0
   55.7310   90.0680   23.3380 C   0  0  0  0  0  0  0  0  0  0  0  0
   55.7330   90.6930   22.1750 N   0  0  0  0  0  0  0  0  0  0  0  0
   55.5860   92.0330   22.4520 C   0  0  0  0  0  0  0  0  0  0  0  0
   55.5500   92.9140   21.5670 O   0  0  0  0  0  0  0  0  0  0  0  0
   55.7630   90.1520   20.8530 C   0  0  0  0  0  0  0  0  0  0  0  0
   54.4490   89.8000   20.2830 C   0  0  0  0  0  0  0  0  0  0  0  0
   53.9960   88.6580   20.7090 O   0  0  0  0  0  0  0  0  0  0  0  0
   53.6360   90.4650   19.3930 N   0  0  0  0  0  0  0  0  0  0  0  0
   52.9850   91.7250   19.6320 C   0  0  0  0  0  0  0  0  0  0  0  0
   52.1920   92.2140   18.4070 C   0  0  0  0  0  0  0  0  0  0  0  0
   51.2740   91.1540   17.9790 N   0  0  0  0  0  0  0  0  0  0  0  0
   51.9000   89.8540   17.9060 C   0  0  0  0  0  0  0  0  0  0  0  0
   51.2060   88.8290   17.7170 O   0  0  0  0  0  0  0  0  0  0  0  0
   53.3730   89.8630   18.0740 C   0  0  0  0  0  0  0  0  0  0  0  0
   55.8230   88.6640   23.7330 C   0  0  0  0  0  0  0  0  0  0  0  0
   54.9860   88.2140   24.7620 C   0  0  0  0  0  0  0  0  0  0  0  0
   55.0130   86.9440   25.2680 C   0  0  0  0  0  0  0  0  0  0  0  0
   55.9040   86.0040   24.7680 C   0  0  0  0  0  0  0  0  0  0  0  0
   56.7280   86.4330   23.7650 C   0  0  0  0  0  0  0  0  0  0  0  0
   56.6960   87.7320   23.2520 C   0  0  0  0  0  0  0  0  0  0  0  0
   52.9780   95.1660   26.2140 H   0  0  0  0  0  0  0  0  0  0  0  0
   53.3250   93.0210   24.9530 H   0  0  0  0  0  0  0  0  0  0  0  0
   57.2830   94.1310   24.1600 H   0  0  0  0  0  0  0  0  0  0  0  0
   56.9560   96.2780   25.4130 H   0  0  0  0  0  0  0  0  0  0  0  0
   56.4340   89.3380   20.6940 H   0  0  0  0  0  0  0  0  0  0  0  0
   56.1840   90.9990   20.1790 H   0  0  0  0  0  0  0  0  0  0  0  0
   53.8100   92.4770   19.7560 H   0  0  0  0  0  0  0  0  0  0  0  0
   52.3320   91.7310   20.4970 H   0  0  0  0  0  0  0  0  0  0  0  0
   52.8750   92.4300   17.5700 H   0  0  0  0  0  0  0  0  0  0  0  0
   51.6580   93.1410   18.6650 H   0  0  0  0  0  0  0  0  0  0  0  0
   50.2890   91.3130   17.7540 H   0  0  0  0  0  0  0  0  0  0  0  0
   53.7780   88.8240   18.0680 H   0  0  0  0  0  0  0  0  0  0  0  0
   53.8770   90.5020   17.3130 H   0  0  0  0  0  0  0  0  0  0  0  0
   54.2730   88.9450   25.1620 H   0  0  0  0  0  0  0  0  0  0  0  0
   54.3580   86.6210   26.0630 H   0  0  0  0  0  0  0  0  0  0  0  0
   55.9420   84.9990   25.1510 H   0  0  0  0  0  0  0  0  0  0  0  0
   57.4480   85.7180   23.3480 H   0  0  0  0  0  0  0  0  0  0  0  0
   57.3930   87.9720   22.4960 H   0  0  0  0  0  0  0  0  0  0  0  0
  2  1  1  0  0  0  0
  3  2  1  0  0  0  0
  3 30  1  0  0  0  0
  4  3  2  0  0  0  0
  5  6  2  0  0  0  0
  5  4  1  0  0  0  0
  6  7  1  0  0  0  0
  7 33  1  0  0  0  0
  7  2  2  0  0  0  0
  8  9  1  0  0  0  0
  8  5  1  0  0  0  0
 10 24  1  0  0  0  0
 10  9  2  0  0  0  0
 11 12  1  0  0  0  0
 11 10  1  0  0  0  0
 12  8  1  0  0  0  0
 13 12  2  0  0  0  0
 14 11  1  0  0  0  0
 15 16  2  0  0  0  0
 15 14  1  0  0  0  0
 17 18  1  0  0  0  0
 17 15  1  0  0  0  0
 18 36  1  0  0  0  0
 18 37  1  0  0  0  0
 19 39  1  0  0  0  0
 19 18  1  0  0  0  0
 20 19  1  0  0  0  0
 21 20  1  0  0  0  0
 21 23  1  0  0  0  0
 22 21  2  0  0  0  0
 23 17  1  0  0  0  0
 24 25  1  0  0  0  0
 25 43  1  0  0  0  0
 25 26  2  0  0  0  0
 26 44  1  0  0  0  0
 27 45  1  0  0  0  0
 27 26  1  0  0  0  0
 28 27  2  0  0  0  0
 29 24  2  0  0  0  0
 29 28  1  0  0  0  0
 31  4  1  0  0  0  0
 32  6  1  0  0  0  0
 34 14  1  0  0  0  0
 35 14  1  0  0  0  0
 38 19  1  0  0  0  0
 40 20  1  0  0  0  0
 41 23  1  0  0  0  0
 42 23  1  0  0  0  0
 46 28  1  0  0  0  0
 47 29  1  0  0  0  0
M  END
>  <Pose>
1

>  <Score>
-7.58

$$$$
