
 OpenBabel03202210083D

 42 45  0  0  0  0  0  0  0  0999 V2000
   49.3680   98.6870   28.6880 Cl  0  0  0  0  0  0  0  0  0  0  0  0
   50.9630   98.2570   28.0670 C   0  0  0  0  0  0  0  0  0  0  0  0
   51.4700   96.9920   28.1500 C   0  0  0  0  0  0  0  0  0  0  0  0
   52.7110   96.6180   27.6770 C   0  0  0  0  0  0  0  0  0  0  0  0
   53.4840   97.6080   27.0790 C   0  0  0  0  0  0  0  0  0  0  0  0
   52.9700   98.9090   26.9910 C   0  0  0  0  0  0  0  0  0  0  0  0
   51.7330   99.2280   27.4760 C   0  0  0  0  0  0  0  0  0  0  0  0
   54.7640   97.3010   26.5710 N   0  0  0  0  0  0  0  0  0  0  0  0
   55.8510   98.0070   26.7710 N   0  0  0  0  0  0  0  0  0  0  0  0
   56.8340   97.3840   26.1280 N   0  0  0  0  0  0  0  0  0  0  0  0
   56.3790   96.2760   25.5140 C   0  0  0  0  0  0  0  0  0  0  0  0
   55.0740   96.2400   25.8030 C   0  0  0  0  0  0  0  0  0  0  0  0
   54.6010   95.0990   25.1720 C   0  0  0  0  0  0  0  0  0  0  0  0
   53.4080   94.7230   25.2120 O   0  0  0  0  0  0  0  0  0  0  0  0
   55.5740   94.4510   24.5150 N   0  0  0  0  0  0  0  0  0  0  0  0
   56.6830   95.1840   24.7270 C   0  0  0  0  0  0  0  0  0  0  0  0
   57.8340   94.9120   24.2730 O   0  0  0  0  0  0  0  0  0  0  0  0
   55.4990   93.2520   23.7490 C   0  0  0  0  0  0  0  0  0  0  0  0
   55.7700   92.0050   24.2770 C   0  0  0  0  0  0  0  0  0  0  0  0
   55.6940   90.8490   23.5290 C   0  0  0  0  0  0  0  0  0  0  0  0
   55.3410   90.8890   22.1960 C   0  0  0  0  0  0  0  0  0  0  0  0
   55.0680   92.1270   21.6540 C   0  0  0  0  0  0  0  0  0  0  0  0
   55.1460   93.2810   22.4130 C   0  0  0  0  0  0  0  0  0  0  0  0
   55.2680   89.7160   21.4480 O   0  0  0  0  0  0  0  0  0  0  0  0
   55.9190   89.5330   20.2280 C   0  0  0  0  0  0  0  0  0  0  0  0
   55.9670   89.5920   24.0610 O   0  0  0  0  0  0  0  0  0  0  0  0
   55.3340   89.2520   25.2810 C   0  0  0  0  0  0  0  0  0  0  0  0
   50.8590   96.2210   28.6210 H   0  0  0  0  0  0  0  0  0  0  0  0
   53.0830   95.6040   27.7590 H   0  0  0  0  0  0  0  0  0  0  0  0
   53.5710   99.6940   26.5220 H   0  0  0  0  0  0  0  0  0  0  0  0
   51.3180  100.2420   27.4130 H   0  0  0  0  0  0  0  0  0  0  0  0
   55.9380   98.9030   27.3360 H   0  0  0  0  0  0  0  0  0  0  0  0
   57.8220   97.7350   26.1200 H   0  0  0  0  0  0  0  0  0  0  0  0
   56.0460   91.9650   25.3190 H   0  0  0  0  0  0  0  0  0  0  0  0
   54.7910   92.1610   20.6090 H   0  0  0  0  0  0  0  0  0  0  0  0
   54.9290   94.2500   21.9760 H   0  0  0  0  0  0  0  0  0  0  0  0
   55.4740   88.7290   19.6080 H   0  0  0  0  0  0  0  0  0  0  0  0
   55.8970   90.4560   19.5910 H   0  0  0  0  0  0  0  0  0  0  0  0
   56.9820   89.2970   20.4270 H   0  0  0  0  0  0  0  0  0  0  0  0
   54.2530   89.4620   25.2240 H   0  0  0  0  0  0  0  0  0  0  0  0
   55.5060   88.1970   25.5600 H   0  0  0  0  0  0  0  0  0  0  0  0
   55.7940   89.8680   26.0820 H   0  0  0  0  0  0  0  0  0  0  0  0
  2  3  1  0  0  0  0
  2  1  1  0  0  0  0
  3 28  1  0  0  0  0
  4 29  1  0  0  0  0
  4  3  2  0  0  0  0
  5  4  1  0  0  0  0
  6  5  2  0  0  0  0
  6  7  1  0  0  0  0
  7  2  2  0  0  0  0
  8  9  1  0  0  0  0
  8  5  1  0  0  0  0
  9 32  1  0  0  0  0
 10  9  1  0  0  0  0
 11 12  2  0  0  0  0
 11 10  1  0  0  0  0
 12  8  1  0  0  0  0
 13 14  2  0  0  0  0
 13 12  1  0  0  0  0
 15 16  1  0  0  0  0
 15 13  1  0  0  0  0
 16 11  1  0  0  0  0
 17 16  2  0  0  0  0
 18 19  1  0  0  0  0
 18 15  1  0  0  0  0
 19 34  1  0  0  0  0
 20 26  1  0  0  0  0
 20 19  2  0  0  0  0
 21 20  1  0  0  0  0
 22 21  2  0  0  0  0
 22 23  1  0  0  0  0
 23 18  2  0  0  0  0
 24 21  1  0  0  0  0
 25 39  1  0  0  0  0
 25 24  1  0  0  0  0
 26 27  1  0  0  0  0
 27 41  1  0  0  0  0
 27 42  1  0  0  0  0
 30  6  1  0  0  0  0
 31  7  1  0  0  0  0
 33 10  1  0  0  0  0
 35 22  1  0  0  0  0
 36 23  1  0  0  0  0
 37 25  1  0  0  0  0
 38 25  1  0  0  0  0
 40 27  1  0  0  0  0
M  END
>  <Pose>
1

>  <Score>
-6.50

$$$$
