
 OpenBabel03202210083D

 42 45  0  0  1  0  0  0  0  0999 V2000
   50.7330   97.8410   28.5360 Cl  0  0  0  0  0  0  0  0  0  0  0  0
   52.3560   97.8730   27.8460 C   0  0  0  0  0  0  0  0  0  0  0  0
   52.8590   96.7640   27.1900 C   0  0  0  0  0  0  0  0  0  0  0  0
   54.1150   96.7760   26.6500 C   0  0  1  0  0  0  0  0  0  0  0  0
   54.8440   97.9320   26.7920 C   0  0  0  0  0  0  0  0  0  0  0  0
   54.3700   99.0450   27.4360 C   0  0  0  0  0  0  0  0  0  0  0  0
   53.0960   99.0190   27.9780 C   0  0  0  0  0  0  0  0  0  0  0  0
   56.2050   97.9820   26.2220 C   0  0  0  0  0  0  0  0  0  0  0  0
   57.1100   98.8960   26.1910 N   0  0  0  0  0  0  0  0  0  0  0  0
   58.2940   98.4630   25.5070 C   0  0  0  0  0  0  0  0  0  0  0  0
   57.9990   97.0620   25.0810 C   0  0  0  0  0  0  0  0  0  0  0  0
   56.6610   96.8130   25.5620 N   0  0  0  0  0  0  0  0  0  0  0  0
   55.8570   95.6310   25.4430 C   0  0  0  0  0  0  0  0  0  0  0  0
   56.0760   94.4350   24.8760 N   0  0  0  0  0  0  0  0  0  0  0  0
   55.0180   93.6590   25.0280 N   0  0  0  0  0  0  0  0  0  0  0  0
   54.1230   94.3970   25.7080 C   0  0  0  0  0  0  0  0  0  0  0  0
   52.9840   93.9870   26.0380 O   0  0  0  0  0  0  0  0  0  0  0  0
   54.6240   95.6330   25.9790 N   0  0  0  0  0  0  0  0  0  0  0  0
   54.8310   92.2870   24.5670 C   0  0  0  0  0  0  0  0  0  0  0  0
   54.9820   92.2520   23.0930 C   0  0  0  0  0  0  0  0  0  0  0  0
   54.2750   93.0290   22.3920 O   0  0  0  0  0  0  0  0  0  0  0  0
   55.8890   91.3810   22.4340 N   0  0  0  0  0  0  0  0  0  0  0  0
   55.4060   90.2930   21.6150 C   0  0  0  0  0  0  0  0  0  0  0  0
   55.8830   90.4560   20.1690 C   0  0  0  0  0  0  0  0  0  0  0  0
   56.0760   89.0270   22.1310 C   0  0  0  0  0  0  0  0  0  0  0  0
   52.2540   95.8880   27.1060 H   0  0  0  0  0  0  0  0  0  0  0  0
   54.9340   99.9620   27.5540 H   0  0  0  0  0  0  0  0  0  0  0  0
   52.7100   99.9110   28.4970 H   0  0  0  0  0  0  0  0  0  0  0  0
   58.4160   99.1200   24.6080 H   0  0  0  0  0  0  0  0  0  0  0  0
   59.1970   98.5360   26.1550 H   0  0  0  0  0  0  0  0  0  0  0  0
   58.0840   96.9110   23.9860 H   0  0  0  0  0  0  0  0  0  0  0  0
   58.6600   96.3510   25.6410 H   0  0  0  0  0  0  0  0  0  0  0  0
   55.6630   91.6950   24.9900 H   0  0  0  0  0  0  0  0  0  0  0  0
   53.8900   91.8440   24.9240 H   0  0  0  0  0  0  0  0  0  0  0  0
   56.9060   91.5590   22.5660 H   0  0  0  0  0  0  0  0  0  0  0  0
   54.3130   90.1780   21.6740 H   0  0  0  0  0  0  0  0  0  0  0  0
   56.8760   90.9570   20.2370 H   0  0  0  0  0  0  0  0  0  0  0  0
   55.9520   89.4450   19.7460 H   0  0  0  0  0  0  0  0  0  0  0  0
   55.1600   91.0930   19.6030 H   0  0  0  0  0  0  0  0  0  0  0  0
   57.0910   89.0020   21.6830 H   0  0  0  0  0  0  0  0  0  0  0  0
   55.5470   88.1160   21.8030 H   0  0  0  0  0  0  0  0  0  0  0  0
   56.1800   89.1090   23.2220 H   0  0  0  0  0  0  0  0  0  0  0  0
  2  7  1  0  0  0  0
  2  1  1  0  0  0  0
  3  2  2  0  0  0  0
  4  5  1  1  0  0  0
  4  3  1  0  0  0  0
  5  6  1  0  0  0  0
  6 27  1  0  0  0  0
  6  7  2  0  0  0  0
  7 28  1  0  0  0  0
  8  5  2  0  0  0  0
  9  8  1  0  0  0  0
 10 30  1  0  0  0  0
 10  9  1  0  0  0  0
 11 10  1  0  0  0  0
 11 12  1  0  0  0  0
 11 32  1  0  0  0  0
 12  8  1  0  0  0  0
 13 12  1  0  0  0  0
 13 18  1  0  0  0  0
 14 15  1  0  0  0  0
 14 13  2  0  0  0  0
 15 16  1  0  0  0  0
 16 18  1  0  0  0  0
 16 17  2  0  0  0  0
 18  4  1  0  0  0  0
 19 34  1  0  0  0  0
 19 33  1  0  0  0  0
 19 15  1  0  0  0  0
 20 19  1  0  0  0  0
 21 20  2  0  0  0  0
 22 35  1  0  0  0  0
 22 20  1  0  0  0  0
 23 36  1  0  0  0  0
 23 25  1  0  0  0  0
 23 22  1  0  0  0  0
 24 37  1  0  0  0  0
 24 23  1  0  0  0  0
 25 42  1  0  0  0  0
 26  3  1  0  0  0  0
 29 10  1  0  0  0  0
 31 11  1  0  0  0  0
 38 24  1  0  0  0  0
 39 24  1  0  0  0  0
 40 25  1  0  0  0  0
 41 25  1  0  0  0  0
M  END
>  <Pose>
1

>  <Score>
-7.11

$$$$
