
 OpenBabel03202210083D

 43 46  0  0  1  0  0  0  0  0999 V2000
   50.4330   97.4100   28.1230 Cl  0  0  0  0  0  0  0  0  0  0  0  0
   52.1010   97.6100   27.5800 C   0  0  0  0  0  0  0  0  0  0  0  0
   52.7270   96.5270   26.9590 C   0  0  0  0  0  0  0  0  0  0  0  0
   54.0270   96.6170   26.5020 C   0  0  2  0  0  0  0  0  0  0  0  0
   54.6680   97.8250   26.6950 C   0  0  0  0  0  0  0  0  0  0  0  0
   54.0980   98.8990   27.2930 C   0  0  0  0  0  0  0  0  0  0  0  0
   52.7760   98.7980   27.7520 C   0  0  0  0  0  0  0  0  0  0  0  0
   56.0640   97.9050   26.1940 C   0  0  0  0  0  0  0  0  0  0  0  0
   56.9300   98.8720   26.2160 N   0  0  0  0  0  0  0  0  0  0  0  0
   58.1680   98.4590   25.5970 C   0  0  0  0  0  0  0  0  0  0  0  0
   57.9740   97.0350   25.1380 C   0  0  0  0  0  0  0  0  0  0  0  0
   56.6140   96.7690   25.5780 N   0  0  0  0  0  0  0  0  0  0  0  0
   55.8830   95.5540   25.4180 C   0  0  0  0  0  0  0  0  0  0  0  0
   56.2120   94.3710   24.8590 N   0  0  0  0  0  0  0  0  0  0  0  0
   55.1720   93.5450   24.9460 N   0  0  0  0  0  0  0  0  0  0  0  0
   54.2190   94.2420   25.5610 C   0  0  0  0  0  0  0  0  0  0  0  0
   53.0660   93.8060   25.8320 O   0  0  0  0  0  0  0  0  0  0  0  0
   54.6330   95.5020   25.8700 N   0  0  0  0  0  0  0  0  0  0  0  0
   55.1080   92.1680   24.4480 C   0  0  0  0  0  0  0  0  0  0  0  0
   54.8130   92.3680   22.9300 C   0  0  0  0  0  0  0  0  0  0  0  0
   54.0490   93.3900   22.8110 O   0  0  0  0  0  0  0  0  0  0  0  0
   55.3280   91.5360   22.0140 N   0  0  0  0  0  0  0  0  0  0  0  0
   55.8590   90.6810   21.0740 C   0  0  0  0  0  0  0  0  0  0  0  0
   54.9050   90.4370   19.8980 C   0  0  0  0  0  0  0  0  0  0  0  0
   55.5090   90.7120   18.6940 O   0  0  0  0  0  0  0  0  0  0  0  0
   54.6660   91.0530   17.6770 C   0  0  0  0  0  0  0  0  0  0  0  0
   52.1490   95.6270   26.8530 H   0  0  0  0  0  0  0  0  0  0  0  0
   54.6260   99.8190   27.4370 H   0  0  0  0  0  0  0  0  0  0  0  0
   52.2810   99.6240   28.2300 H   0  0  0  0  0  0  0  0  0  0  0  0
   58.9750   98.5380   26.3580 H   0  0  0  0  0  0  0  0  0  0  0  0
   58.4040   99.1080   24.7130 H   0  0  0  0  0  0  0  0  0  0  0  0
   58.6600   96.3430   25.6370 H   0  0  0  0  0  0  0  0  0  0  0  0
   58.0730   96.9690   24.0230 H   0  0  0  0  0  0  0  0  0  0  0  0
   56.0500   91.6620   24.5440 H   0  0  0  0  0  0  0  0  0  0  0  0
   54.2640   91.6780   24.9100 H   0  0  0  0  0  0  0  0  0  0  0  0
   56.5180   91.5510   22.6680 H   0  0  0  0  0  0  0  0  0  0  0  0
   56.8780   90.9240   20.7050 H   0  0  0  0  0  0  0  0  0  0  0  0
   56.0270   89.6230   21.5180 H   0  0  0  0  0  0  0  0  0  0  0  0
   54.4430   89.4370   19.9250 H   0  0  0  0  0  0  0  0  0  0  0  0
   54.0900   91.1880   20.0450 H   0  0  0  0  0  0  0  0  0  0  0  0
   54.1150   92.0170   17.9120 H   0  0  0  0  0  0  0  0  0  0  0  0
   53.8120   90.3300   17.5830 H   0  0  0  0  0  0  0  0  0  0  0  0
   55.1940   91.1780   16.7180 H   0  0  0  0  0  0  0  0  0  0  0  0
  2  7  1  0  0  0  0
  2  1  1  0  0  0  0
  3  2  2  0  0  0  0
  4  5  1  6  0  0  0
  4  3  1  0  0  0  0
  5  6  1  0  0  0  0
  6 28  1  0  0  0  0
  6  7  2  0  0  0  0
  7 29  1  0  0  0  0
  8  9  1  0  0  0  0
  8  5  2  0  0  0  0
 10  9  1  0  0  0  0
 10 30  1  0  0  0  0
 11 12  1  0  0  0  0
 11 10  1  0  0  0  0
 11 32  1  0  0  0  0
 12  8  1  0  0  0  0
 13 12  1  0  0  0  0
 13 18  1  0  0  0  0
 14 15  1  0  0  0  0
 14 13  2  0  0  0  0
 15 16  1  0  0  0  0
 16 17  2  0  0  0  0
 16 18  1  0  0  0  0
 18  4  1  0  0  0  0
 19 34  1  0  0  0  0
 19 35  1  0  0  0  0
 19 15  1  0  0  0  0
 20 19  1  0  0  0  0
 21 20  2  0  0  0  0
 22 36  1  0  0  0  0
 22 20  1  0  0  0  0
 23 38  1  0  0  0  0
 23 22  1  0  0  0  0
 24 39  1  0  0  0  0
 24 40  1  0  0  0  0
 24 23  1  0  0  0  0
 25 24  1  0  0  0  0
 26 41  1  0  0  0  0
 26 25  1  0  0  0  0
 27  3  1  0  0  0  0
 31 10  1  0  0  0  0
 33 11  1  0  0  0  0
 37 23  1  0  0  0  0
 42 26  1  0  0  0  0
 43 26  1  0  0  0  0
M  END
>  <Pose>
1

>  <Score>
-7.23

$$$$
