
 OpenBabel03202210083D

 47 50  0  0  0  0  0  0  0  0999 V2000
   54.3030   79.8800   29.2170 Cl  0  0  0  0  0  0  0  0  0  0  0  0
   54.5000   81.2020   28.0680 C   0  0  0  0  0  0  0  0  0  0  0  0
   54.4140   82.5100   28.4330 C   0  0  0  0  0  0  0  0  0  0  0  0
   54.5750   83.5120   27.4970 C   0  0  0  0  0  0  0  0  0  0  0  0
   54.8250   83.2080   26.1830 C   0  0  0  0  0  0  0  0  0  0  0  0
   54.9100   81.8900   25.8170 C   0  0  0  0  0  0  0  0  0  0  0  0
   54.7490   80.8830   26.7520 C   0  0  0  0  0  0  0  0  0  0  0  0
   54.9970   84.2310   25.1760 N   0  0  0  0  0  0  0  0  0  0  0  0
   54.9170   85.6030   25.5080 C   0  0  0  0  0  0  0  0  0  0  0  0
   55.0690   86.5600   24.6240 C   0  0  0  0  0  0  0  0  0  0  0  0
   55.3290   86.4070   23.2350 N   0  0  0  0  0  0  0  0  0  0  0  0
   54.3170   86.0270   22.2720 C   0  0  0  0  0  0  0  0  0  0  0  0
   54.4730   86.9580   21.0580 C   0  0  0  0  0  0  0  0  0  0  0  0
   55.4150   87.9960   21.2980 N   0  0  0  0  0  0  0  0  0  0  0  0
   56.7770   87.5290   21.5560 C   0  0  0  0  0  0  0  0  0  0  0  0
   56.6800   86.6050   22.7460 C   0  0  0  0  0  0  0  0  0  0  0  0
   55.2120   89.3980   21.3400 C   0  0  0  0  0  0  0  0  0  0  0  0
   55.5950   90.0780   22.4830 N   0  0  0  0  0  0  0  0  0  0  0  0
   55.4450   91.3900   22.6520 C   0  0  0  0  0  0  0  0  0  0  0  0
   54.8800   92.1120   21.6380 C   0  0  0  0  0  0  0  0  0  0  0  0
   54.4900   91.4740   20.4940 C   0  0  0  0  0  0  0  0  0  0  0  0
   54.6470   90.0860   20.3080 C   0  0  0  0  0  0  0  0  0  0  0  0
   54.2550   89.4560   19.0840 C   0  0  0  0  0  0  0  0  0  0  0  0
   53.5600   88.4480   18.9860 O   0  0  0  0  0  0  0  0  0  0  0  0
   54.6970   90.0260   17.8580 N   0  0  0  0  0  0  0  0  0  0  0  0
   54.6560   85.9460   26.8880 N   0  0  0  0  0  0  0  0  0  0  0  0
   54.4900   84.9220   27.8510 C   0  0  0  0  0  0  0  0  0  0  0  0
   54.2580   85.2010   29.0770 O   0  0  0  0  0  0  0  0  0  0  0  0
   54.2210   82.7860   29.4440 H   0  0  0  0  0  0  0  0  0  0  0  0
   55.1070   81.6670   24.7760 H   0  0  0  0  0  0  0  0  0  0  0  0
   54.8170   79.8570   26.4610 H   0  0  0  0  0  0  0  0  0  0  0  0
   55.1840   83.9430   24.2000 H   0  0  0  0  0  0  0  0  0  0  0  0
   54.9840   87.5920   25.0040 H   0  0  0  0  0  0  0  0  0  0  0  0
   53.2930   86.1170   22.6320 H   0  0  0  0  0  0  0  0  0  0  0  0
   54.5080   84.9560   21.9710 H   0  0  0  0  0  0  0  0  0  0  0  0
   53.4880   87.3580   20.8540 H   0  0  0  0  0  0  0  0  0  0  0  0
   54.8600   86.2570   20.2750 H   0  0  0  0  0  0  0  0  0  0  0  0
   57.4660   88.3370   21.8050 H   0  0  0  0  0  0  0  0  0  0  0  0
   57.1730   86.9580   20.6920 H   0  0  0  0  0  0  0  0  0  0  0  0
   57.0560   85.5830   22.4950 H   0  0  0  0  0  0  0  0  0  0  0  0
   57.3280   86.9750   23.5770 H   0  0  0  0  0  0  0  0  0  0  0  0
   55.7740   91.8530   23.5860 H   0  0  0  0  0  0  0  0  0  0  0  0
   54.7490   93.1650   21.7490 H   0  0  0  0  0  0  0  0  0  0  0  0
   54.0300   92.0110   19.6490 H   0  0  0  0  0  0  0  0  0  0  0  0
   55.7160   90.1460   17.6610 H   0  0  0  0  0  0  0  0  0  0  0  0
   54.0500   90.3490   17.1050 H   0  0  0  0  0  0  0  0  0  0  0  0
   54.5900   86.9450   27.1680 H   0  0  0  0  0  0  0  0  0  0  0  0
  2  3  1  0  0  0  0
  2  1  1  0  0  0  0
  3 29  1  0  0  0  0
  4 27  1  0  0  0  0
  4  3  2  0  0  0  0
  5  4  1  0  0  0  0
  6  5  2  0  0  0  0
  6  7  1  0  0  0  0
  7  2  2  0  0  0  0
  8  9  1  0  0  0  0
  8  5  1  0  0  0  0
  9 26  1  0  0  0  0
 10 33  1  0  0  0  0
 10  9  2  0  0  0  0
 11 10  1  0  0  0  0
 12 34  1  0  0  0  0
 12 11  1  0  0  0  0
 13 14  1  0  0  0  0
 13 12  1  0  0  0  0
 14 17  1  0  0  0  0
 14 15  1  0  0  0  0
 15 38  1  0  0  0  0
 15 16  1  0  0  0  0
 16 11  1  0  0  0  0
 16 41  1  0  0  0  0
 17 18  1  0  0  0  0
 18 19  2  0  0  0  0
 19 42  1  0  0  0  0
 20 43  1  0  0  0  0
 20 19  1  0  0  0  0
 21 20  2  0  0  0  0
 22 21  1  0  0  0  0
 22 17  2  0  0  0  0
 23 22  1  0  0  0  0
 24 23  2  0  0  0  0
 25 23  1  0  0  0  0
 26 47  1  0  0  0  0
 26 27  1  0  0  0  0
 27 28  2  0  0  0  0
 30  6  1  0  0  0  0
 31  7  1  0  0  0  0
 32  8  1  0  0  0  0
 35 12  1  0  0  0  0
 36 13  1  0  0  0  0
 37 13  1  0  0  0  0
 39 15  1  0  0  0  0
 40 16  1  0  0  0  0
 44 21  1  0  0  0  0
 45 25  1  0  0  0  0
 46 25  1  0  0  0  0
M  END
>  <Pose>
1

>  <Score>
-6.52

$$$$
