
 OpenBabel03202210083D

 57 60  0  0  1  0  0  0  0  0999 V2000
   54.8000   90.3550   20.0190 S   0  0  0  0  0  0  0  0  0  0  0  0
   55.9020   90.4740   19.0060 O   0  0  0  0  0  0  0  0  0  0  0  0
   54.6420   91.7360   20.6200 O   0  0  0  0  0  0  0  0  0  0  0  0
   55.2320   89.3020   21.3070 N   0  0  0  0  0  0  0  0  0  0  0  0
   55.5570   90.0400   22.5020 C   0  0  0  0  0  0  0  0  0  0  0  0
   55.5750   89.0640   23.6550 C   0  0  0  0  0  0  0  0  0  0  0  0
   55.5470   87.7180   23.1430 N   0  0  0  0  0  0  0  0  0  0  0  0
   56.3380   87.3240   21.9820 C   0  0  0  0  0  0  0  0  0  0  0  0
   56.3750   88.4750   20.9750 C   0  0  0  0  0  0  0  0  0  0  0  0
   54.7330   86.7510   23.7610 C   0  0  0  0  0  0  0  0  0  0  0  0
   54.0320   85.9710   23.0280 O   0  0  0  0  0  0  0  0  0  0  0  0
   54.6850   86.6390   25.2440 C   0  0  1  0  0  0  0  0  0  0  0  0
   53.3640   86.1290   25.7450 C   0  0  0  0  0  0  0  0  0  0  0  0
   53.5970   84.7340   26.1060 N   0  0  0  0  0  0  0  0  0  0  0  0
   54.9270   84.3730   25.7860 C   0  0  0  0  0  0  0  0  0  0  0  0
   55.3180   83.1980   25.5870 O   0  0  0  0  0  0  0  0  0  0  0  0
   55.6880   85.6400   25.7500 C   0  0  0  0  0  0  0  0  0  0  0  0
   52.6050   83.8630   26.6950 C   0  0  0  0  0  0  0  0  0  0  0  0
   51.9500   84.4870   27.8690 C   0  0  0  0  0  0  0  0  0  0  0  0
   52.6380   84.5530   29.0710 C   0  0  0  0  0  0  0  0  0  0  0  0
   52.0910   85.1200   30.2100 C   0  0  0  0  0  0  0  0  0  0  0  0
   50.8120   85.6280   30.1100 C   0  0  0  0  0  0  0  0  0  0  0  0
   50.0970   85.5780   28.9250 C   0  0  0  0  0  0  0  0  0  0  0  0
   50.6730   85.0020   27.7940 C   0  0  0  0  0  0  0  0  0  0  0  0
   54.2500   83.8940   29.1340 Cl  0  0  0  0  0  0  0  0  0  0  0  0
   53.2950   89.8890   19.2860 C   0  0  0  0  0  0  0  0  0  0  0  0
   52.6420   88.6770   19.2620 C   0  0  0  0  0  0  0  0  0  0  0  0
   51.4930   88.8410   18.5380 N   0  0  0  0  0  0  0  0  0  0  0  0
   51.4480   90.0600   18.1510 O   0  0  0  0  0  0  0  0  0  0  0  0
   52.4900   90.7450   18.5590 C   0  0  0  0  0  0  0  0  0  0  0  0
   52.6950   92.1780   18.2560 C   0  0  0  0  0  0  0  0  0  0  0  0
   53.1150   87.4420   19.9150 C   0  0  0  0  0  0  0  0  0  0  0  0
   56.5860   90.4900   22.4420 H   0  0  0  0  0  0  0  0  0  0  0  0
   54.8580   90.8820   22.6840 H   0  0  0  0  0  0  0  0  0  0  0  0
   56.4710   89.2290   24.3080 H   0  0  0  0  0  0  0  0  0  0  0  0
   54.6600   89.2310   24.2480 H   0  0  0  0  0  0  0  0  0  0  0  0
   57.3490   87.0020   22.2940 H   0  0  0  0  0  0  0  0  0  0  0  0
   55.8370   86.4480   21.5310 H   0  0  0  0  0  0  0  0  0  0  0  0
   56.3480   88.0550   19.9720 H   0  0  0  0  0  0  0  0  0  0  0  0
   57.3450   88.9890   21.1300 H   0  0  0  0  0  0  0  0  0  0  0  0
   54.9110   87.6610   25.6770 H   0  0  0  0  0  0  0  0  0  0  0  0
   53.0520   86.7270   26.6390 H   0  0  0  0  0  0  0  0  0  0  0  0
   52.5480   86.1720   24.9630 H   0  0  0  0  0  0  0  0  0  0  0  0
   56.5780   85.5710   25.0870 H   0  0  0  0  0  0  0  0  0  0  0  0
   55.9710   85.9220   26.7890 H   0  0  0  0  0  0  0  0  0  0  0  0
   53.0200   82.8780   26.9960 H   0  0  0  0  0  0  0  0  0  0  0  0
   51.7960   83.6920   25.9380 H   0  0  0  0  0  0  0  0  0  0  0  0
   52.6780   85.1410   31.1160 H   0  0  0  0  0  0  0  0  0  0  0  0
   50.3550   86.0810   30.9950 H   0  0  0  0  0  0  0  0  0  0  0  0
   49.1020   85.9870   28.8940 H   0  0  0  0  0  0  0  0  0  0  0  0
   50.1160   84.9620   26.8710 H   0  0  0  0  0  0  0  0  0  0  0  0
   53.7070   92.4680   18.6100 H   0  0  0  0  0  0  0  0  0  0  0  0
   52.6920   92.2610   17.1300 H   0  0  0  0  0  0  0  0  0  0  0  0
   51.8840   92.7790   18.6710 H   0  0  0  0  0  0  0  0  0  0  0  0
   52.1900   86.8130   20.0830 H   0  0  0  0  0  0  0  0  0  0  0  0
   53.7740   86.8250   19.2960 H   0  0  0  0  0  0  0  0  0  0  0  0
   53.5940   87.6540   20.9120 H   0  0  0  0  0  0  0  0  0  0  0  0
  1  3  2  0  0  0  0
  1  4  1  0  0  0  0
  2  1  2  0  0  0  0
  4  5  1  0  0  0  0
  5 34  1  0  0  0  0
  5  6  1  0  0  0  0
  6 36  1  0  0  0  0
  6 35  1  0  0  0  0
  7  6  1  0  0  0  0
  7 10  1  0  0  0  0
  8 37  1  0  0  0  0
  8  7  1  0  0  0  0
  9 40  1  0  0  0  0
  9  4  1  0  0  0  0
  9  8  1  0  0  0  0
 10 12  1  0  0  0  0
 11 10  2  0  0  0  0
 12 41  1  1  0  0  0
 12 13  1  0  0  0  0
 12 17  1  0  0  0  0
 13 14  1  0  0  0  0
 13 42  1  0  0  0  0
 14 18  1  0  0  0  0
 15 14  1  0  0  0  0
 16 15  2  0  0  0  0
 17 15  1  0  0  0  0
 17 45  1  0  0  0  0
 18 46  1  0  0  0  0
 18 19  1  0  0  0  0
 19 20  1  0  0  0  0
 20 25  1  0  0  0  0
 20 21  2  0  0  0  0
 21 48  1  0  0  0  0
 22 21  1  0  0  0  0
 22 49  1  0  0  0  0
 23 22  2  0  0  0  0
 24 19  2  0  0  0  0
 24 23  1  0  0  0  0
 26  1  1  0  0  0  0
 27 26  1  0  0  0  0
 27 32  1  0  0  0  0
 28 27  2  0  0  0  0
 29 28  1  0  0  0  0
 29 30  1  0  0  0  0
 30 26  2  0  0  0  0
 31 30  1  0  0  0  0
 31 52  1  0  0  0  0
 31 54  1  0  0  0  0
 32 55  1  0  0  0  0
 32 57  1  0  0  0  0
 33  5  1  0  0  0  0
 38  8  1  0  0  0  0
 39  9  1  0  0  0  0
 43 13  1  0  0  0  0
 44 17  1  0  0  0  0
 47 18  1  0  0  0  0
 50 23  1  0  0  0  0
 51 24  1  0  0  0  0
 53 31  1  0  0  0  0
 56 32  1  0  0  0  0
M  END
>  <Pose>
1

>  <Score>
-6.55

$$$$
