
 OpenBabel03202210083D

 51 54  0  0  1  0  0  0  0  0999 V2000
   56.4090   88.5600   19.2960 Cl  0  0  0  0  0  0  0  0  0  0  0  0
   55.4500   89.9380   19.7940 C   0  0  0  0  0  0  0  0  0  0  0  0
   55.3450   90.3080   21.1150 C   0  0  0  0  0  0  0  0  0  0  0  0
   54.5650   91.4180   21.5060 C   0  0  0  0  0  0  0  0  0  0  0  0
   53.9350   92.0900   20.4990 C   0  0  0  0  0  0  0  0  0  0  0  0
   54.0410   91.7150   19.1450 C   0  0  0  0  0  0  0  0  0  0  0  0
   54.8050   90.6300   18.7970 C   0  0  0  0  0  0  0  0  0  0  0  0
   54.5070   91.7420   22.8750 N   0  0  0  0  0  0  0  0  0  0  0  0
   54.7500   92.9870   23.4330 C   0  0  0  0  0  0  0  0  0  0  0  0
   54.2440   94.0320   23.0100 O   0  0  0  0  0  0  0  0  0  0  0  0
   55.6730   93.1600   24.6220 C   0  0  0  0  0  0  0  0  0  0  0  0
   55.3810   94.4580   25.2480 N   0  0  0  0  0  0  0  0  0  0  0  0
   56.2210   95.5350   25.2400 C   0  0  1  0  0  0  0  0  0  0  0  0
   55.6320   96.5580   25.8820 N   0  0  0  0  0  0  0  0  0  0  0  0
   54.4210   96.1950   26.3240 C   0  0  0  0  0  0  0  0  0  0  0  0
   54.2930   94.8620   25.9070 C   0  0  0  0  0  0  0  0  0  0  0  0
   53.3910   96.9110   27.0580 C   0  0  0  0  0  0  0  0  0  0  0  0
   53.6110   98.1260   27.6460 C   0  0  0  0  0  0  0  0  0  0  0  0
   52.6350   98.8280   28.3300 C   0  0  0  0  0  0  0  0  0  0  0  0
   51.3520   98.3170   28.4570 C   0  0  0  0  0  0  0  0  0  0  0  0
   51.1290   97.0970   27.8650 C   0  0  0  0  0  0  0  0  0  0  0  0
   52.1030   96.3960   27.1820 C   0  0  0  0  0  0  0  0  0  0  0  0
   50.3500   98.9910   29.1350 O   0  0  0  0  0  0  0  0  0  0  0  0
   50.0280  100.3460   28.8800 C   0  0  0  0  0  0  0  0  0  0  0  0
   56.5360   97.7080   25.8580 C   0  0  0  0  0  0  0  0  0  0  0  0
   57.5580   97.3870   24.7840 C   0  0  0  0  0  0  0  0  0  0  0  0
   57.5760   95.9000   24.7530 C   0  0  0  0  0  0  0  0  0  0  0  0
   56.0640   89.5280   22.1380 C   0  0  0  0  0  0  0  0  0  0  0  0
   53.3210   92.9480   20.7160 H   0  0  0  0  0  0  0  0  0  0  0  0
   53.5340   92.2620   18.3610 H   0  0  0  0  0  0  0  0  0  0  0  0
   54.8920   90.3360   17.7400 H   0  0  0  0  0  0  0  0  0  0  0  0
   54.2560   90.9600   23.5540 H   0  0  0  0  0  0  0  0  0  0  0  0
   55.3970   92.3740   25.3410 H   0  0  0  0  0  0  0  0  0  0  0  0
   56.7230   93.1610   24.3120 H   0  0  0  0  0  0  0  0  0  0  0  0
   53.4250   94.2260   26.0960 H   0  0  0  0  0  0  0  0  0  0  0  0
   54.6320   98.5310   27.5520 H   0  0  0  0  0  0  0  0  0  0  0  0
   52.8850   99.7900   28.7740 H   0  0  0  0  0  0  0  0  0  0  0  0
   50.1190   96.6820   27.9580 H   0  0  0  0  0  0  0  0  0  0  0  0
   51.8990   95.4260   26.7270 H   0  0  0  0  0  0  0  0  0  0  0  0
   50.7490  101.0340   29.3820 H   0  0  0  0  0  0  0  0  0  0  0  0
   49.9740  100.5960   27.8110 H   0  0  0  0  0  0  0  0  0  0  0  0
   49.0280  100.5450   29.3140 H   0  0  0  0  0  0  0  0  0  0  0  0
   56.9790   97.9220   26.8310 H   0  0  0  0  0  0  0  0  0  0  0  0
   56.0290   98.6280   25.4880 H   0  0  0  0  0  0  0  0  0  0  0  0
   58.5250   97.8640   24.9840 H   0  0  0  0  0  0  0  0  0  0  0  0
   57.1470   97.7140   23.7800 H   0  0  0  0  0  0  0  0  0  0  0  0
   57.7570   95.4750   23.7430 H   0  0  0  0  0  0  0  0  0  0  0  0
   58.3480   95.5190   25.4790 H   0  0  0  0  0  0  0  0  0  0  0  0
   56.5540   88.6590   21.6630 H   0  0  0  0  0  0  0  0  0  0  0  0
   56.9040   90.1340   22.5890 H   0  0  0  0  0  0  0  0  0  0  0  0
   55.4340   89.1890   22.9790 H   0  0  0  0  0  0  0  0  0  0  0  0
  1  2  1  0  0  0  0
  2  3  1  0  0  0  0
  3  4  2  0  0  0  0
  3 28  1  0  0  0  0
  4  8  1  0  0  0  0
  5 29  1  0  0  0  0
  5  4  1  0  0  0  0
  6  5  2  0  0  0  0
  7  6  1  0  0  0  0
  7  2  2  0  0  0  0
  8  9  1  0  0  0  0
  8 32  1  0  0  0  0
  9 11  1  0  0  0  0
 10  9  2  0  0  0  0
 11 12  1  0  0  0  0
 11 33  1  0  0  0  0
 12 16  1  0  0  0  0
 13 27  1  1  0  0  0
 13 12  1  0  0  0  0
 13 14  1  0  0  0  0
 14 15  1  0  0  0  0
 15 17  1  0  0  0  0
 16 35  1  0  0  0  0
 16 15  2  0  0  0  0
 17 22  2  0  0  0  0
 17 18  1  0  0  0  0
 18 19  2  0  0  0  0
 19 20  1  0  0  0  0
 19 37  1  0  0  0  0
 20 23  1  0  0  0  0
 21 38  1  0  0  0  0
 21 20  2  0  0  0  0
 22 21  1  0  0  0  0
 24 23  1  0  0  0  0
 24 42  1  0  0  0  0
 24 40  1  0  0  0  0
 25 14  1  0  0  0  0
 25 43  1  0  0  0  0
 26 45  1  0  0  0  0
 26 25  1  0  0  0  0
 27 26  1  0  0  0  0
 27 48  1  0  0  0  0
 28 50  1  0  0  0  0
 28 51  1  0  0  0  0
 30  6  1  0  0  0  0
 31  7  1  0  0  0  0
 34 11  1  0  0  0  0
 36 18  1  0  0  0  0
 39 22  1  0  0  0  0
 41 24  1  0  0  0  0
 44 25  1  0  0  0  0
 46 26  1  0  0  0  0
 47 27  1  0  0  0  0
 49 28  1  0  0  0  0
M  END
>  <Pose>
1

>  <Score>
-7.33

$$$$
