
 OpenBabel03202210083D

 38 41  0  0  0  0  0  0  0  0999 V2000
   54.0130   97.8400   27.3260 Cl  0  0  0  0  0  0  0  0  0  0  0  0
   55.4360   97.3080   26.4410 C   0  0  0  0  0  0  0  0  0  0  0  0
   55.4530   96.0750   25.8200 C   0  0  0  0  0  0  0  0  0  0  0  0
   56.5580   95.6600   25.1310 C   0  0  0  0  0  0  0  0  0  0  0  0
   57.6470   96.5000   25.0750 C   0  0  0  0  0  0  0  0  0  0  0  0
   57.6520   97.7330   25.6880 C   0  0  0  0  0  0  0  0  0  0  0  0
   56.5300   98.1430   26.3810 C   0  0  0  0  0  0  0  0  0  0  0  0
   56.6530   94.3530   24.4380 C   0  0  0  0  0  0  0  0  0  0  0  0
   55.3410   93.7540   24.4770 N   0  0  0  0  0  0  0  0  0  0  0  0
   54.6480   93.7880   25.7430 C   0  0  0  0  0  0  0  0  0  0  0  0
   54.2190   95.2470   25.9450 C   0  0  0  0  0  0  0  0  0  0  0  0
   54.7380   93.1560   23.3460 C   0  0  0  0  0  0  0  0  0  0  0  0
   53.7400   93.7060   22.8090 O   0  0  0  0  0  0  0  0  0  0  0  0
   55.2200   91.8930   22.7380 C   0  0  0  0  0  0  0  0  0  0  0  0
   55.3530   91.9910   21.3540 O   0  0  0  0  0  0  0  0  0  0  0  0
   54.4220   91.5040   20.4460 C   0  0  0  0  0  0  0  0  0  0  0  0
   53.3950   92.2910   20.0710 N   0  0  0  0  0  0  0  0  0  0  0  0
   52.4710   91.8840   19.2050 N   0  0  0  0  0  0  0  0  0  0  0  0
   52.4990   90.6670   18.6480 C   0  0  0  0  0  0  0  0  0  0  0  0
   51.4450   90.5360   17.8180 N   0  0  0  0  0  0  0  0  0  0  0  0
   50.7800   91.6650   17.8710 N   0  0  0  0  0  0  0  0  0  0  0  0
   51.3880   92.5140   18.7160 C   0  0  0  0  0  0  0  0  0  0  0  0
   53.5450   89.8260   19.0110 C   0  0  0  0  0  0  0  0  0  0  0  0
   54.5010   90.2450   19.9050 C   0  0  0  0  0  0  0  0  0  0  0  0
   58.5530   96.2200   24.5410 H   0  0  0  0  0  0  0  0  0  0  0  0
   58.5330   98.3870   25.6290 H   0  0  0  0  0  0  0  0  0  0  0  0
   56.4760   99.0990   26.8800 H   0  0  0  0  0  0  0  0  0  0  0  0
   57.3460   93.6470   24.9410 H   0  0  0  0  0  0  0  0  0  0  0  0
   56.9800   94.4500   23.3840 H   0  0  0  0  0  0  0  0  0  0  0  0
   53.7700   93.1170   25.7800 H   0  0  0  0  0  0  0  0  0  0  0  0
   55.3180   93.5330   26.5870 H   0  0  0  0  0  0  0  0  0  0  0  0
   53.7680   95.4160   26.9230 H   0  0  0  0  0  0  0  0  0  0  0  0
   53.5410   95.5530   25.1330 H   0  0  0  0  0  0  0  0  0  0  0  0
   54.5650   91.0270   22.9600 H   0  0  0  0  0  0  0  0  0  0  0  0
   56.2120   91.6580   23.1970 H   0  0  0  0  0  0  0  0  0  0  0  0
   51.0910   93.5360   18.9840 H   0  0  0  0  0  0  0  0  0  0  0  0
   53.5710   88.8580   18.5710 H   0  0  0  0  0  0  0  0  0  0  0  0
   55.3280   89.6200   20.2110 H   0  0  0  0  0  0  0  0  0  0  0  0
  2  1  1  0  0  0  0
  3 11  1  0  0  0  0
  3  2  2  0  0  0  0
  4  3  1  0  0  0  0
  5  4  2  0  0  0  0
  5  6  1  0  0  0  0
  6  7  2  0  0  0  0
  7  2  1  0  0  0  0
  7 27  1  0  0  0  0
  8  9  1  0  0  0  0
  8 28  1  0  0  0  0
  8  4  1  0  0  0  0
  9 10  1  0  0  0  0
 10 30  1  0  0  0  0
 10 11  1  0  0  0  0
 10 31  1  0  0  0  0
 11 32  1  0  0  0  0
 12  9  1  0  0  0  0
 13 12  2  0  0  0  0
 14 34  1  0  0  0  0
 14 35  1  0  0  0  0
 14 12  1  0  0  0  0
 15 14  1  0  0  0  0
 16 15  1  0  0  0  0
 17 16  2  0  0  0  0
 18 17  1  0  0  0  0
 19 23  1  0  0  0  0
 19 18  1  0  0  0  0
 20 21  1  0  0  0  0
 20 19  2  0  0  0  0
 21 22  2  0  0  0  0
 22 36  1  0  0  0  0
 22 18  1  0  0  0  0
 23 24  2  0  0  0  0
 24 38  1  0  0  0  0
 24 16  1  0  0  0  0
 25  5  1  0  0  0  0
 26  6  1  0  0  0  0
 29  8  1  0  0  0  0
 33 11  1  0  0  0  0
 37 23  1  0  0  0  0
M  END
>  <Pose>
1

>  <Score>
-8.30

$$$$
