
 OpenBabel03202210083D

 42 45  0  0  1  0  0  0  0  0999 V2000
   54.9610   96.3990   27.1100 S   0  0  0  0  0  0  0  0  0  0  0  0
   56.1950   96.9450   27.7450 O   0  0  0  0  0  0  0  0  0  0  0  0
   54.7520   94.9870   27.5900 O   0  0  0  0  0  0  0  0  0  0  0  0
   55.1520   96.3430   25.4000 N   0  0  0  0  0  0  0  0  0  0  0  0
   54.4410   95.2560   24.8030 C   0  0  0  0  0  0  0  0  0  0  0  0
   55.4040   94.5300   23.8790 C   0  0  1  0  0  0  0  0  0  0  0  0
   56.7390   94.8280   24.5300 C   0  0  0  0  0  0  0  0  0  0  0  0
   56.5180   96.2740   24.9890 C   0  0  0  0  0  0  0  0  0  0  0  0
   55.1510   93.1410   24.0000 O   0  0  0  0  0  0  0  0  0  0  0  0
   55.0150   92.3190   22.8920 C   0  0  0  0  0  0  0  0  0  0  0  0
   55.6760   91.1270   22.9500 N   0  0  0  0  0  0  0  0  0  0  0  0
   55.5620   90.3090   21.8910 C   0  0  0  0  0  0  0  0  0  0  0  0
   54.8150   90.6360   20.7770 C   0  0  0  0  0  0  0  0  0  0  0  0
   54.1670   91.8570   20.7750 C   0  0  0  0  0  0  0  0  0  0  0  0
   54.2810   92.6780   21.8400 N   0  0  0  0  0  0  0  0  0  0  0  0
   54.6760   89.5600   19.4020 Cl  0  0  0  0  0  0  0  0  0  0  0  0
   53.5790   97.3630   27.5760 C   0  0  0  0  0  0  0  0  0  0  0  0
   53.1360   98.3880   26.7640 C   0  0  0  0  0  0  0  0  0  0  0  0
   52.0480   99.1810   27.0860 C   0  0  0  0  0  0  0  0  0  0  0  0
   51.3600   98.9560   28.2650 C   0  0  0  0  0  0  0  0  0  0  0  0
   51.8060   97.9360   29.0660 C   0  0  0  0  0  0  0  0  0  0  0  0
   52.8890   97.1450   28.7480 C   0  0  0  0  0  0  0  0  0  0  0  0
   50.2760   99.7710   28.5480 O   0  0  0  0  0  0  0  0  0  0  0  0
   50.1270  101.0810   28.0290 C   0  0  0  0  0  0  0  0  0  0  0  0
   50.7690  101.2590   26.6780 C   0  0  0  0  0  0  0  0  0  0  0  0
   51.5960  100.2040   26.2850 O   0  0  0  0  0  0  0  0  0  0  0  0
   53.6470   95.6820   24.1480 H   0  0  0  0  0  0  0  0  0  0  0  0
   53.9520   94.5860   25.5090 H   0  0  0  0  0  0  0  0  0  0  0  0
   55.3340   94.8980   22.8490 H   0  0  0  0  0  0  0  0  0  0  0  0
   56.9310   94.1630   25.3690 H   0  0  0  0  0  0  0  0  0  0  0  0
   57.5330   94.8530   23.7590 H   0  0  0  0  0  0  0  0  0  0  0  0
   57.2360   96.4920   25.8140 H   0  0  0  0  0  0  0  0  0  0  0  0
   56.7070   96.9290   24.1340 H   0  0  0  0  0  0  0  0  0  0  0  0
   56.0600   89.3520   21.8710 H   0  0  0  0  0  0  0  0  0  0  0  0
   53.5640   92.1450   19.9020 H   0  0  0  0  0  0  0  0  0  0  0  0
   53.6720   98.5720   25.8340 H   0  0  0  0  0  0  0  0  0  0  0  0
   51.2470   97.7730   29.9950 H   0  0  0  0  0  0  0  0  0  0  0  0
   53.2190   96.3530   29.3900 H   0  0  0  0  0  0  0  0  0  0  0  0
   49.0490  101.3170   28.0020 H   0  0  0  0  0  0  0  0  0  0  0  0
   50.5950  101.7670   28.7910 H   0  0  0  0  0  0  0  0  0  0  0  0
   49.9420  101.4480   25.9450 H   0  0  0  0  0  0  0  0  0  0  0  0
   51.3820  102.1840   26.7210 H   0  0  0  0  0  0  0  0  0  0  0  0
  1 17  1  0  0  0  0
  1  3  2  0  0  0  0
  1  2  2  0  0  0  0
  4  1  1  0  0  0  0
  5  4  1  0  0  0  0
  5 28  1  0  0  0  0
  6 29  1  6  0  0  0
  6  9  1  0  0  0  0
  6  7  1  0  0  0  0
  6  5  1  0  0  0  0
  7  8  1  0  0  0  0
  7 30  1  0  0  0  0
  8  4  1  0  0  0  0
  8 32  1  0  0  0  0
 10 11  2  0  0  0  0
 10  9  1  0  0  0  0
 12 11  1  0  0  0  0
 13 12  2  0  0  0  0
 14 13  1  0  0  0  0
 14 15  1  0  0  0  0
 15 10  2  0  0  0  0
 16 13  1  0  0  0  0
 17 22  1  0  0  0  0
 18 19  1  0  0  0  0
 18 17  2  0  0  0  0
 19 20  2  0  0  0  0
 20 23  1  0  0  0  0
 20 21  1  0  0  0  0
 21 37  1  0  0  0  0
 22 21  2  0  0  0  0
 22 38  1  0  0  0  0
 24 23  1  0  0  0  0
 24 40  1  0  0  0  0
 25 42  1  0  0  0  0
 25 24  1  0  0  0  0
 26 25  1  0  0  0  0
 26 19  1  0  0  0  0
 27  5  1  0  0  0  0
 31  7  1  0  0  0  0
 33  8  1  0  0  0  0
 34 12  1  0  0  0  0
 35 14  1  0  0  0  0
 36 18  1  0  0  0  0
 39 24  1  0  0  0  0
 41 25  1  0  0  0  0
M  END
>  <Pose>
1

>  <Score>
-6.81

$$$$
