
 OpenBabel03202210083D

 51 54  0  0  0  0  0  0  0  0999 V2000
   56.9740   98.3080   26.2190 B   0  0  0  0  0  0  0  0  0  0  0  0
   56.2710   96.5430   26.0560 C   0  0  0  0  0  0  0  0  0  0  0  0
   56.5940   95.7680   24.9820 C   0  0  0  0  0  0  0  0  0  0  0  0
   56.0750   94.4690   24.8660 C   0  0  0  0  0  0  0  0  0  0  0  0
   55.2430   94.0050   25.8480 C   0  0  0  0  0  0  0  0  0  0  0  0
   54.9140   94.8090   26.9520 C   0  0  0  0  0  0  0  0  0  0  0  0
   55.4340   96.0740   27.0440 C   0  0  0  0  0  0  0  0  0  0  0  0
   54.7030   92.7360   25.7860 O   0  0  0  0  0  0  0  0  0  0  0  0
   56.4310   93.6580   23.7120 C   0  0  0  0  0  0  0  0  0  0  0  0
   55.4980   93.3090   22.8540 N   0  0  0  0  0  0  0  0  0  0  0  0
   55.8820   92.5310   21.7620 N   0  0  0  0  0  0  0  0  0  0  0  0
   55.4910   91.1700   21.6530 C   0  0  0  0  0  0  0  0  0  0  0  0
   54.7460   90.7290   20.6270 N   0  0  0  0  0  4  0  0  0  0  0  0
   54.3470   89.4380   20.4800 C   0  0  0  0  0  0  0  0  0  0  0  0
   54.7600   88.5940   21.4620 N   0  0  0  0  0  0  0  0  0  0  0  0
   55.5060   88.9760   22.5100 C   0  0  0  0  0  0  0  0  0  0  0  0
   55.8550   90.2540   22.5830 N   0  0  0  0  0  0  0  0  0  0  0  0
   55.9010   88.0430   23.4970 N   0  0  0  0  0  0  0  0  0  0  0  0
   55.2870   87.9670   24.8070 C   0  0  0  0  0  0  0  0  0  0  0  0
   55.3470   86.5430   25.3170 C   0  0  0  0  0  0  0  0  0  0  0  0
   56.6140   86.0270   25.3650 O   0  0  0  0  0  0  0  0  0  0  0  0
   57.5440   86.7560   24.6350 C   0  0  0  0  0  0  0  0  0  0  0  0
   56.9750   87.0740   23.2550 C   0  0  0  0  0  0  0  0  0  0  0  0
   53.5640   89.0080   19.3920 N   0  0  0  0  0  0  0  0  0  0  0  0
   53.0160   87.6850   19.3660 C   0  0  0  0  0  0  0  0  0  0  0  0
   51.5220   87.8240   19.1270 C   0  0  0  0  0  0  0  0  0  0  0  0
   51.3670   88.5060   17.9100 O   0  0  0  0  0  0  0  0  0  0  0  0
   51.7840   89.8310   18.0450 C   0  0  0  0  0  0  0  0  0  0  0  0
   53.2970   89.8780   18.2870 C   0  0  0  0  0  0  0  0  0  0  0  0
   57.2510   96.1130   24.1890 H   0  0  0  0  0  0  0  0  0  0  0  0
   54.2540   94.4110   27.7100 H   0  0  0  0  0  0  0  0  0  0  0  0
   55.1960   96.7240   27.8910 H   0  0  0  0  0  0  0  0  0  0  0  0
   53.7380   92.5350   25.6220 H   0  0  0  0  0  0  0  0  0  0  0  0
   57.4400   93.3340   23.5360 H   0  0  0  0  0  0  0  0  0  0  0  0
   56.4650   92.9830   21.0300 H   0  0  0  0  0  0  0  0  0  0  0  0
   54.2230   88.2590   24.7390 H   0  0  0  0  0  0  0  0  0  0  0  0
   55.8710   88.5970   25.4970 H   0  0  0  0  0  0  0  0  0  0  0  0
   54.6220   85.9020   24.7720 H   0  0  0  0  0  0  0  0  0  0  0  0
   54.9650   86.5900   26.3790 H   0  0  0  0  0  0  0  0  0  0  0  0
   58.4890   86.2110   24.5740 H   0  0  0  0  0  0  0  0  0  0  0  0
   57.6830   87.7250   25.1580 H   0  0  0  0  0  0  0  0  0  0  0  0
   57.7280   87.4510   22.5690 H   0  0  0  0  0  0  0  0  0  0  0  0
   56.4680   86.1460   22.9090 H   0  0  0  0  0  0  0  0  0  0  0  0
   53.4260   87.1340   18.4950 H   0  0  0  0  0  0  0  0  0  0  0  0
   53.2200   87.1650   20.3250 H   0  0  0  0  0  0  0  0  0  0  0  0
   51.0260   88.4150   19.9220 H   0  0  0  0  0  0  0  0  0  0  0  0
   51.0330   86.8350   19.0380 H   0  0  0  0  0  0  0  0  0  0  0  0
   51.3050   90.2180   18.9670 H   0  0  0  0  0  0  0  0  0  0  0  0
   51.5090   90.3930   17.1450 H   0  0  0  0  0  0  0  0  0  0  0  0
   53.8490   89.6080   17.3670 H   0  0  0  0  0  0  0  0  0  0  0  0
   53.5480   90.9260   18.5700 H   0  0  0  0  0  0  0  0  0  0  0  0
  2  1  1  0  0  0  0
  2  7  1  0  0  0  0
  3  2  2  0  0  0  0
  4  3  1  0  0  0  0
  4  5  2  0  0  0  0
  5  6  1  0  0  0  0
  6  7  2  0  0  0  0
  6 31  1  0  0  0  0
  7 32  1  0  0  0  0
  8  5  1  0  0  0  0
  9  4  1  0  0  0  0
 10  9  2  0  0  0  0
 11 10  1  0  0  0  0
 12 11  1  0  0  0  0
 12 17  1  0  0  0  0
 13 12  2  0  0  0  0
 14 13  2  0  0  0  0
 14 15  1  0  0  0  0
 15 16  2  0  0  0  0
 16 17  1  0  0  0  0
 16 18  1  0  0  0  0
 18 19  1  0  0  0  0
 19 20  1  0  0  0  0
 19 37  1  0  0  0  0
 20 21  1  0  0  0  0
 20 39  1  0  0  0  0
 22 41  1  0  0  0  0
 22 21  1  0  0  0  0
 23 18  1  0  0  0  0
 23 22  1  0  0  0  0
 24 14  1  0  0  0  0
 25 24  1  0  0  0  0
 25 45  1  0  0  0  0
 26 25  1  0  0  0  0
 26 46  1  0  0  0  0
 27 28  1  0  0  0  0
 27 26  1  0  0  0  0
 28 29  1  0  0  0  0
 28 48  1  0  0  0  0
 29 51  1  0  0  0  0
 29 24  1  0  0  0  0
 30  3  1  0  0  0  0
 33  8  1  0  0  0  0
 34  9  1  0  0  0  0
 35 11  1  0  0  0  0
 36 19  1  0  0  0  0
 38 20  1  0  0  0  0
 40 22  1  0  0  0  0
 42 23  1  0  0  0  0
 43 23  1  0  0  0  0
 44 25  1  0  0  0  0
 47 26  1  0  0  0  0
 49 28  1  0  0  0  0
 50 29  1  0  0  0  0
M  END
>  <Pose>
1

>  <Score>
-8.39

$$$$
