
 OpenBabel03202210083D

 52 55  0  0  0  0  0  0  0  0999 V2000
   56.0900   89.1880   25.3360 Cl  0  0  0  0  0  0  0  0  0  0  0  0
   55.4300   87.8610   24.3840 C   0  0  0  0  0  0  0  0  0  0  0  0
   55.4760   87.8190   23.0190 C   0  0  0  0  0  0  0  0  0  0  0  0
   54.9410   86.7620   22.2670 C   0  0  0  0  0  0  0  0  0  0  0  0
   54.3570   85.7400   22.9520 C   0  0  0  0  0  0  0  0  0  0  0  0
   54.3090   85.7780   24.3380 C   0  0  0  0  0  0  0  0  0  0  0  0
   54.8380   86.8230   25.0690 C   0  0  0  0  0  0  0  0  0  0  0  0
   55.0600   86.8280   20.7860 C   0  0  0  0  0  0  0  0  0  0  0  0
   54.0420   87.5690   20.1180 N   0  0  0  0  0  0  0  0  0  0  0  0
   54.1260   88.9070   19.8820 C   0  0  0  0  0  0  0  0  0  0  0  0
   52.9700   89.2890   19.2540 C   0  0  0  0  0  0  0  0  0  0  0  0
   52.2340   88.1860   19.1310 N   0  0  0  0  0  0  0  0  0  0  0  0
   52.8770   87.1090   19.6560 C   0  0  0  0  0  0  0  0  0  0  0  0
   52.3590   85.7620   19.6390 N   0  0  0  0  0  0  0  0  0  0  0  0
   52.6010   85.0250   18.4200 C   0  0  0  0  0  0  0  0  0  0  0  0
   52.1220   83.5960   18.4710 C   0  0  0  0  0  0  0  0  0  0  0  0
   52.5580   83.0340   19.6970 N   0  0  0  0  0  0  0  0  0  0  0  0
   51.9520   83.6610   20.8240 C   0  0  0  0  0  0  0  0  0  0  0  0
   51.6480   85.1240   20.6930 C   0  0  0  0  0  0  0  0  0  0  0  0
   53.9840   82.9690   19.7520 C   0  0  0  0  0  0  0  0  0  0  0  0
   54.5830   81.9520   18.8380 C   0  0  0  0  0  0  0  0  0  0  0  0
   54.4520   80.7260   18.9770 O   0  0  0  0  0  0  0  0  0  0  0  0
   55.3480   82.4900   17.7510 N   0  0  0  0  0  0  0  0  0  0  0  0
   52.8290   90.5790   18.9030 N   0  0  0  0  0  0  0  0  0  0  0  0
   53.8000   91.4980   19.1550 C   0  0  0  0  0  0  0  0  0  0  0  0
   53.6750   92.7200   18.8270 O   0  0  0  0  0  0  0  0  0  0  0  0
   54.9440   91.1520   19.7680 N   0  0  0  0  0  0  0  0  0  0  0  0
   55.1020   89.8700   20.1260 C   0  0  0  0  0  0  0  0  0  0  0  0
   56.1790   89.5810   20.6930 O   0  0  0  0  0  0  0  0  0  0  0  0
   51.6350   91.0290   18.2370 C   0  0  0  0  0  0  0  0  0  0  0  0
   55.9440   88.6530   22.5110 H   0  0  0  0  0  0  0  0  0  0  0  0
   53.9380   84.8960   22.4250 H   0  0  0  0  0  0  0  0  0  0  0  0
   53.8400   84.9540   24.8790 H   0  0  0  0  0  0  0  0  0  0  0  0
   54.7780   86.8080   26.1650 H   0  0  0  0  0  0  0  0  0  0  0  0
   56.0680   87.2420   20.5830 H   0  0  0  0  0  0  0  0  0  0  0  0
   55.1100   85.7820   20.3950 H   0  0  0  0  0  0  0  0  0  0  0  0
   51.9810   85.5180   17.6020 H   0  0  0  0  0  0  0  0  0  0  0  0
   53.6420   85.1500   18.0870 H   0  0  0  0  0  0  0  0  0  0  0  0
   52.5520   83.0670   17.6090 H   0  0  0  0  0  0  0  0  0  0  0  0
   51.0150   83.5370   18.3410 H   0  0  0  0  0  0  0  0  0  0  0  0
   52.6450   83.4670   21.6970 H   0  0  0  0  0  0  0  0  0  0  0  0
   51.0110   83.0860   21.0440 H   0  0  0  0  0  0  0  0  0  0  0  0
   51.8310   85.5810   21.6910 H   0  0  0  0  0  0  0  0  0  0  0  0
   50.5230   85.2350   20.5680 H   0  0  0  0  0  0  0  0  0  0  0  0
   54.4780   83.9380   19.4600 H   0  0  0  0  0  0  0  0  0  0  0  0
   54.2730   82.6640   20.7930 H   0  0  0  0  0  0  0  0  0  0  0  0
   55.9460   81.8830   17.1460 H   0  0  0  0  0  0  0  0  0  0  0  0
   55.3010   83.4910   17.5700 H   0  0  0  0  0  0  0  0  0  0  0  0
   55.7010   91.8740   19.9640 H   0  0  0  0  0  0  0  0  0  0  0  0
   51.2160   90.1680   17.6680 H   0  0  0  0  0  0  0  0  0  0  0  0
   51.8490   91.8480   17.5330 H   0  0  0  0  0  0  0  0  0  0  0  0
   50.9130   91.4190   18.9890 H   0  0  0  0  0  0  0  0  0  0  0  0
  2  7  1  0  0  0  0
  2  1  1  0  0  0  0
  3  2  2  0  0  0  0
  4  5  2  0  0  0  0
  4  3  1  0  0  0  0
  5  6  1  0  0  0  0
  6 33  1  0  0  0  0
  6  7  2  0  0  0  0
  7 34  1  0  0  0  0
  8  4  1  0  0  0  0
  9  8  1  0  0  0  0
 10  9  1  0  0  0  0
 10 28  1  0  0  0  0
 11 10  2  0  0  0  0
 12 11  1  0  0  0  0
 12 13  2  0  0  0  0
 13  9  1  0  0  0  0
 14 13  1  0  0  0  0
 14 19  1  0  0  0  0
 15 16  1  0  0  0  0
 15 14  1  0  0  0  0
 16 17  1  0  0  0  0
 17 20  1  0  0  0  0
 17 18  1  0  0  0  0
 18 42  1  0  0  0  0
 18 41  1  0  0  0  0
 19 18  1  0  0  0  0
 19 43  1  0  0  0  0
 20 46  1  0  0  0  0
 21 22  2  0  0  0  0
 21 20  1  0  0  0  0
 23 21  1  0  0  0  0
 24 25  1  0  0  0  0
 24 11  1  0  0  0  0
 25 27  1  0  0  0  0
 26 25  2  0  0  0  0
 27 49  1  0  0  0  0
 27 28  1  0  0  0  0
 28 29  2  0  0  0  0
 30 24  1  0  0  0  0
 30 52  1  0  0  0  0
 31  3  1  0  0  0  0
 32  5  1  0  0  0  0
 35  8  1  0  0  0  0
 36  8  1  0  0  0  0
 37 15  1  0  0  0  0
 38 15  1  0  0  0  0
 39 16  1  0  0  0  0
 40 16  1  0  0  0  0
 44 19  1  0  0  0  0
 45 20  1  0  0  0  0
 47 23  1  0  0  0  0
 48 23  1  0  0  0  0
 50 30  1  0  0  0  0
 51 30  1  0  0  0  0
M  END
>  <Pose>
1

>  <Score>
-6.91

$$$$
