
 OpenBabel03202210083D

 46 49  0  0  0  0  0  0  0  0999 V2000
   53.7830   80.8600   22.0060 Cl  0  0  0  0  0  0  0  0  0  0  0  0
   52.5570   81.7330   22.9050 C   0  0  0  0  0  0  0  0  0  0  0  0
   52.7560   83.0050   23.4000 C   0  0  0  0  0  0  0  0  0  0  0  0
   51.7970   83.6950   24.1060 C   0  0  0  0  0  0  0  0  0  0  0  0
   50.5750   83.1080   24.3420 C   0  0  0  0  0  0  0  0  0  0  0  0
   50.3580   81.8320   23.8530 C   0  0  0  0  0  0  0  0  0  0  0  0
   51.3280   81.1520   23.1460 C   0  0  0  0  0  0  0  0  0  0  0  0
   52.0490   85.0580   24.6190 C   0  0  0  0  0  0  0  0  0  0  0  0
   53.3930   85.2280   25.1210 N   0  0  0  0  0  0  0  0  0  0  0  0
   53.8520   85.1280   26.4780 C   0  0  0  0  0  0  0  0  0  0  0  0
   53.1090   84.8630   27.4790 O   0  0  0  0  0  0  0  0  0  0  0  0
   55.2570   85.3700   26.5110 N   0  0  0  0  0  0  0  0  0  0  0  0
   55.5550   86.0980   25.2980 C   0  0  0  0  0  0  0  0  0  0  0  0
   55.1580   87.5420   25.5400 C   0  0  0  0  0  0  0  0  0  0  0  0
   55.0550   88.1880   24.1630 C   0  0  0  0  0  0  0  0  0  0  0  0
   56.2330   87.8720   23.3770 N   0  0  0  0  0  0  0  0  0  0  0  0
   57.3300   87.1700   23.9880 C   0  0  0  0  0  0  0  0  0  0  0  0
   56.9490   86.0070   24.8450 C   0  0  0  0  0  0  0  0  0  0  0  0
   56.2960   88.2630   22.0150 C   0  0  0  0  0  0  0  0  0  0  0  0
   56.9520   87.5510   21.1890 O   0  0  0  0  0  0  0  0  0  0  0  0
   55.6470   89.4520   21.4900 C   0  0  0  0  0  0  0  0  0  0  0  0
   54.8250   89.4210   20.4230 N   0  0  0  0  0  0  0  0  0  0  0  0
   54.2580   90.5600   19.9900 C   0  0  0  0  0  0  0  0  0  0  0  0
   54.4830   91.7770   20.5990 C   0  0  0  0  0  0  0  0  0  0  0  0
   55.3010   91.8120   21.6610 N   0  0  0  0  0  0  0  0  0  0  0  0
   55.8770   90.6620   22.1030 C   0  0  0  0  0  0  0  0  0  0  0  0
   54.5560   85.5340   24.3570 C   0  0  0  0  0  0  0  0  0  0  0  0
   54.6400   85.3320   23.1160 O   0  0  0  0  0  0  0  0  0  0  0  0
   53.7240   83.4490   23.2020 H   0  0  0  0  0  0  0  0  0  0  0  0
   49.7710   83.6010   24.8950 H   0  0  0  0  0  0  0  0  0  0  0  0
   49.3850   81.3740   24.0450 H   0  0  0  0  0  0  0  0  0  0  0  0
   51.1590   80.1520   22.7640 H   0  0  0  0  0  0  0  0  0  0  0  0
   51.7870   85.7720   23.8250 H   0  0  0  0  0  0  0  0  0  0  0  0
   51.3510   85.2860   25.4750 H   0  0  0  0  0  0  0  0  0  0  0  0
   55.9280   85.0860   27.2500 H   0  0  0  0  0  0  0  0  0  0  0  0
   54.1600   87.5110   26.0250 H   0  0  0  0  0  0  0  0  0  0  0  0
   55.9070   88.0550   26.1730 H   0  0  0  0  0  0  0  0  0  0  0  0
   54.9520   89.2670   24.2310 H   0  0  0  0  0  0  0  0  0  0  0  0
   54.1380   87.7710   23.7030 H   0  0  0  0  0  0  0  0  0  0  0  0
   57.9280   87.9340   24.5330 H   0  0  0  0  0  0  0  0  0  0  0  0
   58.0290   86.7640   23.2000 H   0  0  0  0  0  0  0  0  0  0  0  0
   57.6050   86.0760   25.7650 H   0  0  0  0  0  0  0  0  0  0  0  0
   57.2330   85.0290   24.4000 H   0  0  0  0  0  0  0  0  0  0  0  0
   53.5890   90.5460   19.1250 H   0  0  0  0  0  0  0  0  0  0  0  0
   53.9990   92.6570   20.2050 H   0  0  0  0  0  0  0  0  0  0  0  0
   56.5410   90.7350   22.9780 H   0  0  0  0  0  0  0  0  0  0  0  0
  1  2  1  0  0  0  0
  2  7  2  0  0  0  0
  2  3  1  0  0  0  0
  3  4  2  0  0  0  0
  4  5  1  0  0  0  0
  4  8  1  0  0  0  0
  5 30  1  0  0  0  0
  6 31  1  0  0  0  0
  6  5  2  0  0  0  0
  7  6  1  0  0  0  0
  8  9  1  0  0  0  0
  8 34  1  0  0  0  0
  9 10  1  0  0  0  0
 10 12  1  0  0  0  0
 10 11  2  0  0  0  0
 12 35  1  0  0  0  0
 13 14  1  0  0  0  0
 13 12  1  0  0  0  0
 14 36  1  0  0  0  0
 14 37  1  0  0  0  0
 15 38  1  0  0  0  0
 15 14  1  0  0  0  0
 16 17  1  0  0  0  0
 16 15  1  0  0  0  0
 17 40  1  0  0  0  0
 17 18  1  0  0  0  0
 18 13  1  0  0  0  0
 18 42  1  0  0  0  0
 19 16  1  0  0  0  0
 20 19  2  0  0  0  0
 21 19  1  0  0  0  0
 21 26  1  0  0  0  0
 22 21  2  0  0  0  0
 23 22  1  0  0  0  0
 23 24  2  0  0  0  0
 24 25  1  0  0  0  0
 25 26  2  0  0  0  0
 26 46  1  0  0  0  0
 27  9  1  0  0  0  0
 27 13  1  0  0  0  0
 28 27  2  0  0  0  0
 29  3  1  0  0  0  0
 32  7  1  0  0  0  0
 33  8  1  0  0  0  0
 39 15  1  0  0  0  0
 41 17  1  0  0  0  0
 43 18  1  0  0  0  0
 44 23  1  0  0  0  0
 45 24  1  0  0  0  0
M  END
>  <Pose>
1

>  <Score>
-6.45

$$$$
