
 OpenBabel03202210083D

 37 40  0  0  0  0  0  0  0  0999 V2000
   55.1020   83.2430   27.0060 Cl  0  0  0  0  0  0  0  0  0  0  0  0
   55.2450   84.6850   26.0030 C   0  0  0  0  0  0  0  0  0  0  0  0
   54.1740   85.5340   25.8200 C   0  0  0  0  0  0  0  0  0  0  0  0
   54.2840   86.6660   25.0340 C   0  0  0  0  0  0  0  0  0  0  0  0
   55.4620   86.9970   24.3990 C   0  0  0  0  0  0  0  0  0  0  0  0
   56.5300   86.1400   24.5890 C   0  0  0  0  0  0  0  0  0  0  0  0
   56.4300   85.0070   25.3730 C   0  0  0  0  0  0  0  0  0  0  0  0
   55.5660   88.1670   23.5890 N   0  0  0  0  0  0  0  0  0  0  0  0
   55.3610   88.2670   22.2570 C   0  0  0  0  0  0  0  0  0  0  0  0
   55.0380   87.3080   21.5240 O   0  0  0  0  0  0  0  0  0  0  0  0
   55.5550   89.5660   21.8210 C   0  0  0  0  0  0  0  0  0  0  0  0
   55.8860   90.2720   22.9120 C   0  0  0  0  0  0  0  0  0  0  0  0
   56.0710   91.5310   22.4780 N   0  0  0  0  0  0  0  0  0  0  0  0
   55.8610   91.5870   21.1760 N   0  0  0  0  0  0  0  0  0  0  0  0
   55.5420   90.3820   20.7540 N   0  0  0  0  0  0  0  0  0  0  0  0
   55.2350   89.9860   19.3990 C   0  0  0  0  0  0  0  0  0  0  0  0
   53.8710   90.3560   18.9640 C   0  0  0  0  0  0  0  0  0  0  0  0
   53.4820   91.6730   18.9900 C   0  0  0  0  0  0  0  0  0  0  0  0
   52.2080   91.9940   18.5850 C   0  0  0  0  0  0  0  0  0  0  0  0
   51.3200   91.0230   18.1560 C   0  0  0  0  0  0  0  0  0  0  0  0
   51.7080   89.7030   18.1310 C   0  0  0  0  0  0  0  0  0  0  0  0
   52.9780   89.4010   18.5360 C   0  0  0  0  0  0  0  0  0  0  0  0
   55.8890   89.4050   23.9840 C   0  0  0  0  0  0  0  0  0  0  0  0
   56.1580   89.7340   25.1710 O   0  0  0  0  0  0  0  0  0  0  0  0
   53.2540   85.2640   26.3220 H   0  0  0  0  0  0  0  0  0  0  0  0
   53.4370   87.3310   24.8930 H   0  0  0  0  0  0  0  0  0  0  0  0
   57.4570   86.3790   24.1040 H   0  0  0  0  0  0  0  0  0  0  0  0
   57.2800   84.3290   25.5220 H   0  0  0  0  0  0  0  0  0  0  0  0
   56.3380   92.3580   23.0510 H   0  0  0  0  0  0  0  0  0  0  0  0
   55.9340   92.4530   20.5630 H   0  0  0  0  0  0  0  0  0  0  0  0
   55.9690   90.4800   18.7020 H   0  0  0  0  0  0  0  0  0  0  0  0
   55.4080   88.8850   19.2500 H   0  0  0  0  0  0  0  0  0  0  0  0
   54.1630   92.4700   19.3250 H   0  0  0  0  0  0  0  0  0  0  0  0
   51.9060   93.0480   18.6080 H   0  0  0  0  0  0  0  0  0  0  0  0
   50.3020   91.2680   17.8310 H   0  0  0  0  0  0  0  0  0  0  0  0
   51.0390   88.9260   17.8020 H   0  0  0  0  0  0  0  0  0  0  0  0
   53.2560   88.3390   18.5050 H   0  0  0  0  0  0  0  0  0  0  0  0
  2  1  1  0  0  0  0
  3  2  1  0  0  0  0
  3 25  1  0  0  0  0
  4  3  2  0  0  0  0
  5  6  2  0  0  0  0
  5  4  1  0  0  0  0
  6  7  1  0  0  0  0
  7 28  1  0  0  0  0
  7  2  2  0  0  0  0
  8 23  1  0  0  0  0
  8  5  1  0  0  0  0
  9  8  1  0  0  0  0
 10  9  2  0  0  0  0
 11  9  1  0  0  0  0
 11 12  2  0  0  0  0
 12 23  1  0  0  0  0
 13 12  1  0  0  0  0
 13 29  1  0  0  0  0
 14 13  1  0  0  0  0
 15 14  1  0  0  0  0
 15 11  1  0  0  0  0
 16 15  1  0  0  0  0
 17 18  1  0  0  0  0
 17 16  1  0  0  0  0
 18 33  1  0  0  0  0
 19 34  1  0  0  0  0
 19 18  2  0  0  0  0
 20 19  1  0  0  0  0
 21 20  2  0  0  0  0
 21 22  1  0  0  0  0
 22 17  2  0  0  0  0
 23 24  2  0  0  0  0
 26  4  1  0  0  0  0
 27  6  1  0  0  0  0
 30 14  1  0  0  0  0
 31 16  1  0  0  0  0
 32 16  1  0  0  0  0
 35 20  1  0  0  0  0
 36 21  1  0  0  0  0
 37 22  1  0  0  0  0
M  END
>  <Pose>
1

>  <Score>
-6.59

$$$$
