
 OpenBabel03202210083D

 60 63  0  0  1  0  0  0  0  0999 V2000
   51.3200   91.3460   18.1590 Cl  0  0  0  0  0  0  0  0  0  0  0  0
   52.7780   90.9530   19.0700 C   0  0  0  0  0  0  0  0  0  0  0  0
   53.3300   91.8950   19.8950 C   0  0  0  0  0  0  0  0  0  0  0  0
   54.4640   91.6180   20.6150 C   0  0  0  0  0  0  0  0  0  0  0  0
   55.0290   90.3360   20.4670 C   0  0  0  0  0  0  0  0  0  0  0  0
   54.4680   89.4150   19.6450 C   0  0  0  0  0  0  0  0  0  0  0  0
   53.3340   89.6960   18.9290 C   0  0  0  0  0  0  0  0  0  0  0  0
   55.0610   92.4410   21.4250 O   0  0  0  0  0  0  0  0  0  0  0  0
   55.6760   92.7160   22.5530 C   0  0  0  0  0  0  0  0  0  0  0  0
   55.2650   93.8880   23.3990 C   0  0  1  0  0  0  0  0  0  0  0  0
   53.9500   94.1910   23.0180 O   0  0  0  0  0  0  0  0  0  0  0  0
   52.9890   93.4460   23.6450 C   0  0  0  0  0  0  0  0  0  0  0  0
   52.8130   93.7720   25.1140 C   0  0  0  0  0  0  0  0  0  0  0  0
   54.1990   94.0090   25.5940 N   0  0  0  0  0  0  0  0  0  0  0  0
   55.2000   93.3570   24.8430 C   0  0  0  0  0  0  0  0  0  0  0  0
   54.3750   94.8190   26.6970 C   0  0  0  0  0  0  0  0  0  0  0  0
   55.1660   94.4500   27.6610 O   0  0  0  0  0  0  0  0  0  0  0  0
   53.7420   96.0870   26.8960 C   0  0  0  0  0  0  0  0  0  0  0  0
   52.5050   96.2330   27.3690 N   0  0  0  0  0  0  0  0  0  0  0  0
   51.9030   97.4240   27.5590 C   0  0  0  0  0  0  0  0  0  0  0  0
   52.5890   98.5880   27.2530 C   0  0  0  0  0  0  0  0  0  0  0  0
   53.8210   98.4830   26.7810 N   0  0  0  0  0  0  0  0  0  0  0  0
   54.4010   97.2850   26.5990 C   0  0  0  0  0  0  0  0  0  0  0  0
   51.8790   99.8700   27.4810 C   0  0  0  0  0  0  0  0  0  0  0  0
   56.0700   95.1000   23.2840 C   0  0  0  0  0  0  0  0  0  0  0  0
   57.3600   95.1540   23.9750 C   0  0  0  0  0  0  0  0  0  0  0  0
   58.2620   94.3360   23.7140 O   0  0  0  0  0  0  0  0  0  0  0  0
   57.6300   96.1390   24.9670 N   0  0  0  0  0  0  0  0  0  0  0  0
   56.9430   97.4270   24.9690 C   0  0  0  0  0  0  0  0  0  0  0  0
   58.0010   98.4940   25.1520 C   0  0  0  0  0  0  0  0  0  0  0  0
   58.6910   98.2470   26.3430 O   0  0  0  0  0  0  0  0  0  0  0  0
   59.4770   97.1080   26.1720 C   0  0  0  0  0  0  0  0  0  0  0  0
   58.5950   95.9120   26.0220 C   0  0  0  0  0  0  0  0  0  0  0  0
   52.8880   92.8770   19.9780 H   0  0  0  0  0  0  0  0  0  0  0  0
   55.9320   90.0610   21.0170 H   0  0  0  0  0  0  0  0  0  0  0  0
   54.8890   88.4190   19.5180 H   0  0  0  0  0  0  0  0  0  0  0  0
   52.8540   89.0070   18.2680 H   0  0  0  0  0  0  0  0  0  0  0  0
   55.7360   91.7860   23.2480 H   0  0  0  0  0  0  0  0  0  0  0  0
   56.8060   92.8660   22.3470 H   0  0  0  0  0  0  0  0  0  0  0  0
   52.0240   93.6550   23.1560 H   0  0  0  0  0  0  0  0  0  0  0  0
   53.1970   92.3710   23.4930 H   0  0  0  0  0  0  0  0  0  0  0  0
   52.3670   92.9030   25.6000 H   0  0  0  0  0  0  0  0  0  0  0  0
   52.2890   94.7200   25.2420 H   0  0  0  0  0  0  0  0  0  0  0  0
   54.8280   92.2820   24.7100 H   0  0  0  0  0  0  0  0  0  0  0  0
   56.1870   93.2480   25.2510 H   0  0  0  0  0  0  0  0  0  0  0  0
   50.8930   97.4390   27.9480 H   0  0  0  0  0  0  0  0  0  0  0  0
   55.4070   97.2310   26.2130 H   0  0  0  0  0  0  0  0  0  0  0  0
   52.5880  100.7290   27.5190 H   0  0  0  0  0  0  0  0  0  0  0  0
   51.1530   99.9830   26.6520 H   0  0  0  0  0  0  0  0  0  0  0  0
   51.3000   99.8780   28.4250 H   0  0  0  0  0  0  0  0  0  0  0  0
   55.4410   96.0080   23.6370 H   0  0  0  0  0  0  0  0  0  0  0  0
   56.2040   95.3760   22.1950 H   0  0  0  0  0  0  0  0  0  0  0  0
   56.3840   97.5900   24.0290 H   0  0  0  0  0  0  0  0  0  0  0  0
   56.2620   97.4990   25.8560 H   0  0  0  0  0  0  0  0  0  0  0  0
   58.6660   98.4790   24.2780 H   0  0  0  0  0  0  0  0  0  0  0  0
   57.5470   99.5050   25.2700 H   0  0  0  0  0  0  0  0  0  0  0  0
   60.1310   97.1730   25.2830 H   0  0  0  0  0  0  0  0  0  0  0  0
   60.0650   96.9730   27.1110 H   0  0  0  0  0  0  0  0  0  0  0  0
   59.2400   95.0340   25.8190 H   0  0  0  0  0  0  0  0  0  0  0  0
   58.0280   95.6670   26.9460 H   0  0  0  0  0  0  0  0  0  0  0  0
  1  2  1  0  0  0  0
  2  3  1  0  0  0  0
  3 34  1  0  0  0  0
  3  4  2  0  0  0  0
  4  8  1  0  0  0  0
  5  4  1  0  0  0  0
  5 35  1  0  0  0  0
  6  5  2  0  0  0  0
  7  2  2  0  0  0  0
  7  6  1  0  0  0  0
  8  9  1  0  0  0  0
  9 38  1  0  0  0  0
 10  9  1  6  0  0  0
 10 15  1  0  0  0  0
 11 10  1  0  0  0  0
 11 12  1  0  0  0  0
 12 13  1  0  0  0  0
 13 43  1  0  0  0  0
 13 14  1  0  0  0  0
 13 42  1  0  0  0  0
 14 16  1  0  0  0  0
 15 45  1  0  0  0  0
 15 14  1  0  0  0  0
 16 18  1  0  0  0  0
 16 17  2  0  0  0  0
 18 19  1  0  0  0  0
 19 20  2  0  0  0  0
 20 46  1  0  0  0  0
 21 24  1  0  0  0  0
 21 20  1  0  0  0  0
 22 21  2  0  0  0  0
 23 22  1  0  0  0  0
 23 18  2  0  0  0  0
 24 48  1  0  0  0  0
 24 50  1  0  0  0  0
 25 10  1  0  0  0  0
 25 51  1  0  0  0  0
 25 26  1  0  0  0  0
 26 28  1  0  0  0  0
 27 26  2  0  0  0  0
 28 29  1  0  0  0  0
 28 33  1  0  0  0  0
 29 30  1  0  0  0  0
 29 54  1  0  0  0  0
 30 56  1  0  0  0  0
 30 31  1  0  0  0  0
 32 31  1  0  0  0  0
 32 58  1  0  0  0  0
 33 32  1  0  0  0  0
 33 60  1  0  0  0  0
 36  6  1  0  0  0  0
 37  7  1  0  0  0  0
 39  9  1  0  0  0  0
 40 12  1  0  0  0  0
 41 12  1  0  0  0  0
 44 15  1  0  0  0  0
 47 23  1  0  0  0  0
 49 24  1  0  0  0  0
 52 25  1  0  0  0  0
 53 29  1  0  0  0  0
 55 30  1  0  0  0  0
 57 32  1  0  0  0  0
 59 33  1  0  0  0  0
M  END
>  <Pose>
1

>  <Score>
-5.91

$$$$
