
 OpenBabel03202210083D

 51 54  0  0  1  0  0  0  0  0999 V2000
   54.4660   90.7770   17.6380 Cl  0  0  0  0  0  0  0  0  0  0  0  0
   54.7150   90.7660   19.3530 C   0  0  0  0  0  0  0  0  0  0  0  0
   54.5920   91.8960   20.0510 N   0  0  0  0  0  4  0  0  0  0  0  0
   54.7730   91.9440   21.3740 C   0  0  0  0  0  0  0  0  0  0  0  0
   54.6990   92.9310   22.2590 N   0  0  0  0  0  0  0  0  0  0  0  0
   54.9750   92.3690   23.4430 C   0  0  0  0  0  0  0  0  0  0  0  0
   55.2190   91.0570   23.3300 N   0  0  0  0  0  0  0  0  0  0  0  0
   55.1020   90.7480   22.0280 C   0  0  0  0  0  0  0  0  0  0  0  0
   55.2300   89.5820   21.3230 C   0  0  0  0  0  0  0  0  0  0  0  0
   55.0280   89.6250   19.9730 N   0  0  0  0  0  0  0  0  0  0  0  0
   55.5820   88.3820   21.9750 N   0  0  0  0  0  0  0  0  0  0  0  0
   56.8540   88.3330   22.6590 C   0  0  0  0  0  0  0  0  0  0  0  0
   57.1830   86.9720   23.2120 C   0  0  0  0  0  0  0  0  0  0  0  0
   55.9860   86.4120   23.8980 C   0  0  2  0  0  0  0  0  0  0  0  0
   54.8920   86.1950   22.9090 C   0  0  0  0  0  0  0  0  0  0  0  0
   54.6660   87.2850   21.9270 C   0  0  0  0  0  0  0  0  0  0  0  0
   55.6020   87.1760   25.0850 C   0  0  0  0  0  0  0  0  0  0  0  0
   56.2790   88.1890   25.3890 O   0  0  0  0  0  0  0  0  0  0  0  0
   54.5100   86.8300   25.9070 N   0  0  0  0  0  0  0  0  0  0  0  0
   54.1030   85.4700   26.1710 C   0  0  0  0  0  0  0  0  0  0  0  0
   54.2780   85.0550   27.6040 C   0  0  0  0  0  0  0  0  0  0  0  0
   53.8540   83.6810   27.8060 N   0  0  0  0  0  0  0  0  0  0  0  0
   53.7770   83.3170   29.1800 C   0  0  0  0  0  0  0  0  0  0  0  0
   54.8920   82.3540   29.5360 C   0  0  0  0  0  0  0  0  0  0  0  0
   54.7010   81.2040   28.8120 O   0  0  0  0  0  0  0  0  0  0  0  0
   54.5870   81.3560   27.4550 C   0  0  0  0  0  0  0  0  0  0  0  0
   54.5140   82.7570   26.9550 C   0  0  0  0  0  0  0  0  0  0  0  0
   54.9980   92.9030   24.3780 H   0  0  0  0  0  0  0  0  0  0  0  0
   55.4540   90.3660   24.0810 H   0  0  0  0  0  0  0  0  0  0  0  0
   57.0050   89.1320   23.3970 H   0  0  0  0  0  0  0  0  0  0  0  0
   57.6610   88.5290   21.8810 H   0  0  0  0  0  0  0  0  0  0  0  0
   57.5090   86.2870   22.4140 H   0  0  0  0  0  0  0  0  0  0  0  0
   58.0170   87.1070   23.9300 H   0  0  0  0  0  0  0  0  0  0  0  0
   56.2900   85.3900   24.2740 H   0  0  0  0  0  0  0  0  0  0  0  0
   55.1660   85.2700   22.3200 H   0  0  0  0  0  0  0  0  0  0  0  0
   53.9750   85.9050   23.4630 H   0  0  0  0  0  0  0  0  0  0  0  0
   53.6110   87.6550   22.0790 H   0  0  0  0  0  0  0  0  0  0  0  0
   54.6610   86.9150   20.8590 H   0  0  0  0  0  0  0  0  0  0  0  0
   53.9530   87.6110   26.3610 H   0  0  0  0  0  0  0  0  0  0  0  0
   53.1040   85.2680   25.7930 H   0  0  0  0  0  0  0  0  0  0  0  0
   54.8010   84.8200   25.5700 H   0  0  0  0  0  0  0  0  0  0  0  0
   55.3700   85.0770   27.8130 H   0  0  0  0  0  0  0  0  0  0  0  0
   53.7720   85.7190   28.3170 H   0  0  0  0  0  0  0  0  0  0  0  0
   52.8050   82.8520   29.4640 H   0  0  0  0  0  0  0  0  0  0  0  0
   53.8720   84.2330   29.7980 H   0  0  0  0  0  0  0  0  0  0  0  0
   55.8720   82.8310   29.3430 H   0  0  0  0  0  0  0  0  0  0  0  0
   54.7880   82.1050   30.6110 H   0  0  0  0  0  0  0  0  0  0  0  0
   55.3730   80.7620   26.9090 H   0  0  0  0  0  0  0  0  0  0  0  0
   53.6220   80.8520   27.1530 H   0  0  0  0  0  0  0  0  0  0  0  0
   54.0600   82.8110   25.9510 H   0  0  0  0  0  0  0  0  0  0  0  0
   55.5770   83.1150   26.8230 H   0  0  0  0  0  0  0  0  0  0  0  0
  1  2  1  0  0  0  0
  2 10  1  0  0  0  0
  2  3  2  0  0  0  0
  3  4  2  0  0  0  0
  4  8  1  0  0  0  0
  4  5  1  0  0  0  0
  5  6  2  0  0  0  0
  6 28  1  0  0  0  0
  7  6  1  0  0  0  0
  7 29  1  0  0  0  0
  8  7  1  0  0  0  0
  9 11  1  0  0  0  0
  9  8  2  0  0  0  0
 10  9  1  0  0  0  0
 11 12  1  0  0  0  0
 12 13  1  0  0  0  0
 12 30  1  0  0  0  0
 13 14  1  0  0  0  0
 13 33  1  0  0  0  0
 14 34  1  1  0  0  0
 14 17  1  0  0  0  0
 15 36  1  0  0  0  0
 15 14  1  0  0  0  0
 16 11  1  0  0  0  0
 16 37  1  0  0  0  0
 16 15  1  0  0  0  0
 17 18  2  0  0  0  0
 17 19  1  0  0  0  0
 19 20  1  0  0  0  0
 19 39  1  0  0  0  0
 20 21  1  0  0  0  0
 21 22  1  0  0  0  0
 21 42  1  0  0  0  0
 21 43  1  0  0  0  0
 22 23  1  0  0  0  0
 23 44  1  0  0  0  0
 23 24  1  0  0  0  0
 23 45  1  0  0  0  0
 24 47  1  0  0  0  0
 25 24  1  0  0  0  0
 26 25  1  0  0  0  0
 27 26  1  0  0  0  0
 27 22  1  0  0  0  0
 31 12  1  0  0  0  0
 32 13  1  0  0  0  0
 35 15  1  0  0  0  0
 38 16  1  0  0  0  0
 40 20  1  0  0  0  0
 41 20  1  0  0  0  0
 46 24  1  0  0  0  0
 48 26  1  0  0  0  0
 49 26  1  0  0  0  0
 50 27  1  0  0  0  0
 51 27  1  0  0  0  0
M  END
>  <Pose>
1

>  <Score>
-6.80

$$$$
