
 OpenBabel03202210083D

 55 58  0  0  1  0  0  0  0  0999 V2000
   55.1070   79.9720   19.5860 Cl  0  0  0  0  0  0  0  0  0  0  0  0
   54.4630   81.6340   19.6370 C   0  0  0  0  0  0  0  0  0  0  0  0
   53.8750   82.1300   20.7760 C   0  0  0  0  0  0  0  0  0  0  0  0
   53.3790   83.4330   20.8150 C   0  0  0  0  0  0  0  0  0  0  0  0
   53.4570   84.2920   19.7110 C   0  0  0  0  0  0  0  0  0  0  0  0
   54.0520   83.7620   18.5920 C   0  0  0  0  0  0  0  0  0  0  0  0
   54.5470   82.4730   18.5380 C   0  0  0  0  0  0  0  0  0  0  0  0
   52.9440   85.6400   19.8740 C   0  0  2  0  0  0  0  0  0  0  0  0
   52.0410   86.0120   18.7010 C   0  0  0  0  0  0  0  0  0  0  0  0
   51.3530   87.2800   19.1610 C   0  0  0  0  0  0  0  0  0  0  0  0
   52.2890   88.3450   19.2500 N   0  0  0  0  0  0  0  0  0  0  0  0
   53.4490   88.1130   20.1500 C   0  0  0  0  0  0  0  0  0  0  0  0
   53.9380   86.7050   20.1550 C   0  0  0  0  0  0  0  0  0  0  0  0
   52.2250   89.5550   18.5720 C   0  0  0  0  0  0  0  0  0  0  0  0
   51.9000   89.4840   17.3070 O   0  0  0  0  0  0  0  0  0  0  0  0
   52.4710   90.9340   19.0200 C   0  0  0  0  0  0  0  0  0  0  0  0
   53.6490   91.1940   19.7240 N   0  0  0  0  0  0  0  0  0  0  0  0
   54.9270   90.6310   19.4210 C   0  0  0  0  0  0  0  0  0  0  0  0
   55.4460   91.0390   18.3480 O   0  0  0  0  0  0  0  0  0  0  0  0
   55.5480   89.6770   20.2980 C   0  0  0  0  0  0  0  0  0  0  0  0
   55.7050   89.6770   21.5800 C   0  0  0  0  0  0  0  0  0  0  0  0
   55.2520   90.7360   22.4270 N   0  0  0  0  0  0  0  0  0  0  0  0
   55.4170   90.7000   23.8270 N   0  0  0  0  0  0  0  0  0  0  0  0
   56.0420   89.6040   24.4560 C   0  0  0  0  0  0  0  0  0  0  0  0
   56.1670   89.6110   25.7160 O   0  0  0  0  0  0  0  0  0  0  0  0
   56.5160   88.5070   23.6360 C   0  0  0  0  0  0  0  0  0  0  0  0
   56.3590   88.5350   22.2690 C   0  0  0  0  0  0  0  0  0  0  0  0
   56.8070   87.4520   21.5690 C   0  0  0  0  0  0  0  0  0  0  0  0
   57.4040   86.3440   22.1820 C   0  0  0  0  0  0  0  0  0  0  0  0
   57.5370   86.3650   23.5430 C   0  0  0  0  0  0  0  0  0  0  0  0
   57.0960   87.4470   24.3010 C   0  0  0  0  0  0  0  0  0  0  0  0
   52.0410   85.6200   20.9850 O   0  0  0  0  0  0  0  0  0  0  0  0
   53.8100   81.4730   21.6430 H   0  0  0  0  0  0  0  0  0  0  0  0
   52.9300   83.7570   21.7340 H   0  0  0  0  0  0  0  0  0  0  0  0
   54.1210   84.4190   17.7320 H   0  0  0  0  0  0  0  0  0  0  0  0
   55.0150   82.0920   17.6270 H   0  0  0  0  0  0  0  0  0  0  0  0
   52.5860   86.1250   17.7680 H   0  0  0  0  0  0  0  0  0  0  0  0
   51.3050   85.2150   18.5650 H   0  0  0  0  0  0  0  0  0  0  0  0
   51.1050   87.0500   20.2770 H   0  0  0  0  0  0  0  0  0  0  0  0
   50.4020   87.4070   18.6950 H   0  0  0  0  0  0  0  0  0  0  0  0
   54.2640   88.8500   19.9230 H   0  0  0  0  0  0  0  0  0  0  0  0
   53.0800   88.3770   21.1630 H   0  0  0  0  0  0  0  0  0  0  0  0
   54.8530   86.6640   19.5150 H   0  0  0  0  0  0  0  0  0  0  0  0
   54.3730   86.5330   21.1960 H   0  0  0  0  0  0  0  0  0  0  0  0
   52.3810   91.5660   18.0690 H   0  0  0  0  0  0  0  0  0  0  0  0
   51.5640   91.3140   19.6200 H   0  0  0  0  0  0  0  0  0  0  0  0
   53.6780   91.9030   20.5040 H   0  0  0  0  0  0  0  0  0  0  0  0
   55.9600   88.7910   19.7550 H   0  0  0  0  0  0  0  0  0  0  0  0
   54.7790   91.5810   22.0260 H   0  0  0  0  0  0  0  0  0  0  0  0
   55.0690   91.4890   24.4200 H   0  0  0  0  0  0  0  0  0  0  0  0
   56.7200   87.4000   20.5160 H   0  0  0  0  0  0  0  0  0  0  0  0
   57.7410   85.5120   21.5710 H   0  0  0  0  0  0  0  0  0  0  0  0
   57.9970   85.4870   24.0070 H   0  0  0  0  0  0  0  0  0  0  0  0
   57.2280   87.4040   25.3740 H   0  0  0  0  0  0  0  0  0  0  0  0
   51.8050   86.5630   21.1680 H   0  0  0  0  0  0  0  0  0  0  0  0
  1  2  1  0  0  0  0
  2  3  1  0  0  0  0
  3  4  2  0  0  0  0
  3 33  1  0  0  0  0
  4 34  1  0  0  0  0
  5  8  1  0  0  0  0
  5  4  1  0  0  0  0
  6  5  2  0  0  0  0
  7  6  1  0  0  0  0
  7  2  2  0  0  0  0
  8 13  1  0  0  0  0
  8 32  1  1  0  0  0
  9 10  1  0  0  0  0
  9  8  1  0  0  0  0
 10 11  1  0  0  0  0
 10 39  1  0  0  0  0
 11 12  1  0  0  0  0
 12 13  1  0  0  0  0
 12 42  1  0  0  0  0
 13 44  1  0  0  0  0
 14 16  1  0  0  0  0
 14 11  1  0  0  0  0
 15 14  2  0  0  0  0
 16 46  1  0  0  0  0
 16 17  1  0  0  0  0
 17 47  1  0  0  0  0
 18 17  1  0  0  0  0
 18 20  1  0  0  0  0
 19 18  2  0  0  0  0
 20 21  2  0  0  0  0
 21 27  1  0  0  0  0
 21 22  1  0  0  0  0
 22 23  1  0  0  0  0
 23 50  1  0  0  0  0
 23 24  1  0  0  0  0
 24 25  2  0  0  0  0
 26 31  1  0  0  0  0
 26 24  1  0  0  0  0
 27 26  2  0  0  0  0
 28 29  2  0  0  0  0
 28 27  1  0  0  0  0
 29 30  1  0  0  0  0
 30 53  1  0  0  0  0
 30 31  2  0  0  0  0
 31 54  1  0  0  0  0
 32 55  1  0  0  0  0
 35  6  1  0  0  0  0
 36  7  1  0  0  0  0
 37  9  1  0  0  0  0
 38  9  1  0  0  0  0
 40 10  1  0  0  0  0
 41 12  1  0  0  0  0
 43 13  1  0  0  0  0
 45 16  1  0  0  0  0
 48 20  1  0  0  0  0
 49 22  1  0  0  0  0
 51 28  1  0  0  0  0
 52 29  1  0  0  0  0
M  END
>  <Pose>
1

>  <Score>
-7.94

$$$$
