
 OpenBabel03202210083D

 42 45  0  0  0  0  0  0  0  0999 V2000
   57.5060   98.7130   26.2450 Cl  0  0  0  0  0  0  0  0  0  0  0  0
   56.6030   97.2040   26.1290 C   0  0  0  0  0  0  0  0  0  0  0  0
   56.8930   96.2450   25.1730 C   0  0  0  0  0  0  0  0  0  0  0  0
   56.2120   95.0540   25.0470 C   0  0  0  0  0  0  0  0  0  0  0  0
   56.2820   93.9830   24.2370 N   0  0  0  0  0  0  0  0  0  0  0  0
   55.3440   93.0750   24.5660 C   0  0  0  0  0  0  0  0  0  0  0  0
   54.6790   93.6030   25.6050 N   0  0  0  0  0  0  0  0  0  0  0  0
   55.1670   94.8130   25.9440 C   0  0  0  0  0  0  0  0  0  0  0  0
   54.8680   95.7570   26.8980 C   0  0  0  0  0  0  0  0  0  0  0  0
   55.5580   96.9370   27.0080 C   0  0  0  0  0  0  0  0  0  0  0  0
   55.0970   91.7480   23.9030 C   0  0  0  0  0  0  0  0  0  0  0  0
   55.5990   91.7750   22.5410 N   0  0  0  0  0  0  0  0  0  0  0  0
   54.7520   91.7470   21.4170 C   0  0  0  0  0  0  0  0  0  0  0  0
   53.8190   92.5670   21.3760 O   0  0  0  0  0  0  0  0  0  0  0  0
   54.9280   90.7960   20.3060 C   0  0  0  0  0  0  0  0  0  0  0  0
   56.2950   90.2670   20.1080 C   0  0  0  0  0  0  0  0  0  0  0  0
   55.3310   89.3490   20.7500 C   0  0  0  0  0  0  0  0  0  0  0  0
   53.9700   90.7610   19.2420 N   0  0  0  0  0  0  0  0  0  0  0  0
   54.3880   90.1540   18.0400 C   0  0  0  0  0  0  0  0  0  0  0  0
   54.8360   91.2610   17.0940 C   0  0  0  0  0  0  0  0  0  0  0  0
   53.7520   92.0050   16.6920 O   0  0  0  0  0  0  0  0  0  0  0  0
   52.7340   92.0900   17.6080 C   0  0  0  0  0  0  0  0  0  0  0  0
   53.2150   91.9280   19.0350 C   0  0  0  0  0  0  0  0  0  0  0  0
   57.7120   96.4400   24.4710 H   0  0  0  0  0  0  0  0  0  0  0  0
   53.8820   93.1310   26.0900 H   0  0  0  0  0  0  0  0  0  0  0  0
   54.0630   95.5570   27.5810 H   0  0  0  0  0  0  0  0  0  0  0  0
   55.3460   97.7030   27.7520 H   0  0  0  0  0  0  0  0  0  0  0  0
   54.0450   91.4900   23.9030 H   0  0  0  0  0  0  0  0  0  0  0  0
   55.6990   91.0030   24.4520 H   0  0  0  0  0  0  0  0  0  0  0  0
   56.6340   91.8160   22.3940 H   0  0  0  0  0  0  0  0  0  0  0  0
   57.1420   90.6010   20.7410 H   0  0  0  0  0  0  0  0  0  0  0  0
   56.6680   89.9900   19.0950 H   0  0  0  0  0  0  0  0  0  0  0  0
   55.3400   89.1840   21.8530 H   0  0  0  0  0  0  0  0  0  0  0  0
   54.9680   88.5060   20.1790 H   0  0  0  0  0  0  0  0  0  0  0  0
   55.1060   89.3390   18.0990 H   0  0  0  0  0  0  0  0  0  0  0  0
   53.4730   89.7090   17.5440 H   0  0  0  0  0  0  0  0  0  0  0  0
   55.5620   91.9070   17.6210 H   0  0  0  0  0  0  0  0  0  0  0  0
   55.3320   90.7580   16.2190 H   0  0  0  0  0  0  0  0  0  0  0  0
   52.3260   93.1430   17.5380 H   0  0  0  0  0  0  0  0  0  0  0  0
   51.8670   91.4340   17.3800 H   0  0  0  0  0  0  0  0  0  0  0  0
   53.7030   92.8820   19.3070 H   0  0  0  0  0  0  0  0  0  0  0  0
   52.2790   91.8910   19.6640 H   0  0  0  0  0  0  0  0  0  0  0  0
  2  1  1  0  0  0  0
  2 10  1  0  0  0  0
  3  2  2  0  0  0  0
  4  3  1  0  0  0  0
  4  8  2  0  0  0  0
  5  6  2  0  0  0  0
  5  4  1  0  0  0  0
  6  7  1  0  0  0  0
  7  8  1  0  0  0  0
  7 25  1  0  0  0  0
  8  9  1  0  0  0  0
  9 10  2  0  0  0  0
  9 26  1  0  0  0  0
 10 27  1  0  0  0  0
 11 28  1  0  0  0  0
 11 29  1  0  0  0  0
 11  6  1  0  0  0  0
 12 11  1  0  0  0  0
 13 12  1  0  0  0  0
 14 13  2  0  0  0  0
 15 17  1  0  0  0  0
 15 13  1  0  0  0  0
 16 15  1  0  0  0  0
 16 31  1  0  0  0  0
 16 17  1  0  0  0  0
 17 33  1  0  0  0  0
 18 15  1  0  0  0  0
 19 35  1  0  0  0  0
 19 18  1  0  0  0  0
 20 37  1  0  0  0  0
 20 19  1  0  0  0  0
 21 20  1  0  0  0  0
 21 22  1  0  0  0  0
 22 23  1  0  0  0  0
 23 18  1  0  0  0  0
 23 41  1  0  0  0  0
 23 42  1  0  0  0  0
 24  3  1  0  0  0  0
 30 12  1  0  0  0  0
 32 16  1  0  0  0  0
 34 17  1  0  0  0  0
 36 19  1  0  0  0  0
 38 20  1  0  0  0  0
 39 22  1  0  0  0  0
 40 22  1  0  0  0  0
M  END
>  <Pose>
1

>  <Score>
-7.80

$$$$
