
 OpenBabel03202210083D

 54 57  0  0  1  0  0  0  0  0999 V2000
   54.9780   91.6910   21.3690 Cl  0  0  0  0  0  0  0  0  0  0  0  0
   53.9810   90.9490   20.1420 C   0  0  0  0  0  0  0  0  0  0  0  0
   54.1160   89.5830   19.9200 C   0  0  0  0  0  0  0  0  0  0  0  0
   53.2790   89.0300   18.9870 C   0  0  0  0  0  0  0  0  0  0  0  0
   52.3560   89.8060   18.2960 C   0  0  0  0  0  0  0  0  0  0  0  0
   52.2160   91.1920   18.5190 C   0  0  0  0  0  0  0  0  0  0  0  0
   53.0700   91.7020   19.4770 C   0  0  0  0  0  0  0  0  0  0  0  0
   55.2550   88.8790   20.5650 C   0  0  0  0  0  0  0  0  0  0  0  0
   55.0070   87.4980   20.7750 N   0  0  0  0  0  0  0  0  0  0  0  0
   55.3580   86.7320   21.8880 C   0  0  0  0  0  0  0  0  0  0  0  0
   55.1080   85.5580   21.9790 O   0  0  0  0  0  0  0  0  0  0  0  0
   56.1090   87.4360   23.0230 C   0  0  0  0  0  0  0  0  0  0  0  0
   56.1190   86.5250   24.1420 N   0  0  0  0  0  0  0  0  0  0  0  0
   57.2870   86.0380   24.7140 C   0  0  0  0  0  0  0  0  0  0  0  0
   56.8820   85.3430   26.0830 C   0  0  0  0  0  0  0  0  0  0  0  0
   55.5470   84.9070   25.7730 N   0  0  0  0  0  0  0  0  0  0  0  0
   54.5740   86.0250   25.9440 C   0  0  0  0  0  0  0  0  0  0  0  0
   55.2420   87.1450   25.1960 C   0  0  0  0  0  0  0  0  0  0  0  0
   55.1840   83.6320   25.4560 C   0  0  0  0  0  0  0  0  0  0  0  0
   54.3020   83.4770   24.5430 O   0  0  0  0  0  0  0  0  0  0  0  0
   55.6760   82.3560   26.0650 C   0  0  1  0  0  0  0  0  0  0  0  0
   55.4990   82.5600   27.5050 O   0  0  0  0  0  0  0  0  0  0  0  0
   54.3130   83.3100   27.7550 C   0  0  0  0  0  0  0  0  0  0  0  0
   53.2480   83.1010   26.9190 C   0  0  0  0  0  0  0  0  0  0  0  0
   52.0520   83.7910   27.0790 C   0  0  0  0  0  0  0  0  0  0  0  0
   51.9990   84.6990   28.1300 C   0  0  0  0  0  0  0  0  0  0  0  0
   53.0480   84.9270   28.9940 C   0  0  0  0  0  0  0  0  0  0  0  0
   54.2180   84.2190   28.8030 C   0  0  0  0  0  0  0  0  0  0  0  0
   53.3680   82.1700   25.8810 O   0  0  0  0  0  0  0  0  0  0  0  0
   54.5470   81.3350   25.7580 C   0  0  0  0  0  0  0  0  0  0  0  0
   53.3010   87.9830   18.7310 H   0  0  0  0  0  0  0  0  0  0  0  0
   51.6840   89.4180   17.5380 H   0  0  0  0  0  0  0  0  0  0  0  0
   51.4890   91.7680   17.9700 H   0  0  0  0  0  0  0  0  0  0  0  0
   52.9570   92.7470   19.6870 H   0  0  0  0  0  0  0  0  0  0  0  0
   56.0880   88.9670   19.7740 H   0  0  0  0  0  0  0  0  0  0  0  0
   55.5240   89.4010   21.4870 H   0  0  0  0  0  0  0  0  0  0  0  0
   54.5680   86.9340   19.9630 H   0  0  0  0  0  0  0  0  0  0  0  0
   57.1420   87.6620   22.7270 H   0  0  0  0  0  0  0  0  0  0  0  0
   55.5480   88.3430   23.2750 H   0  0  0  0  0  0  0  0  0  0  0  0
   58.1050   86.6890   24.9520 H   0  0  0  0  0  0  0  0  0  0  0  0
   57.6150   85.1200   24.1300 H   0  0  0  0  0  0  0  0  0  0  0  0
   56.8810   86.1320   26.8470 H   0  0  0  0  0  0  0  0  0  0  0  0
   57.5460   84.5130   26.2950 H   0  0  0  0  0  0  0  0  0  0  0  0
   54.6360   86.2820   27.0170 H   0  0  0  0  0  0  0  0  0  0  0  0
   53.5780   85.7670   25.6540 H   0  0  0  0  0  0  0  0  0  0  0  0
   55.9570   87.6830   25.8420 H   0  0  0  0  0  0  0  0  0  0  0  0
   54.6000   87.8520   24.6880 H   0  0  0  0  0  0  0  0  0  0  0  0
   56.6490   82.0410   25.7870 H   0  0  0  0  0  0  0  0  0  0  0  0
   51.2180   83.6160   26.3860 H   0  0  0  0  0  0  0  0  0  0  0  0
   51.0730   85.2490   28.2440 H   0  0  0  0  0  0  0  0  0  0  0  0
   52.9630   85.6700   29.8090 H   0  0  0  0  0  0  0  0  0  0  0  0
   55.0750   84.3560   29.4480 H   0  0  0  0  0  0  0  0  0  0  0  0
   54.6480   81.1510   24.6550 H   0  0  0  0  0  0  0  0  0  0  0  0
   54.5610   80.4770   26.3910 H   0  0  0  0  0  0  0  0  0  0  0  0
  2  1  1  0  0  0  0
  3  2  1  0  0  0  0
  3  8  1  0  0  0  0
  4  3  2  0  0  0  0
  5  6  2  0  0  0  0
  5  4  1  0  0  0  0
  6  7  1  0  0  0  0
  7 34  1  0  0  0  0
  7  2  2  0  0  0  0
  8  9  1  0  0  0  0
  8 36  1  0  0  0  0
  9 10  1  0  0  0  0
 10 11  2  0  0  0  0
 10 12  1  0  0  0  0
 12 39  1  0  0  0  0
 12 13  1  0  0  0  0
 13 14  1  0  0  0  0
 13 18  1  0  0  0  0
 14 40  1  0  0  0  0
 14 15  1  0  0  0  0
 15 43  1  0  0  0  0
 15 42  1  0  0  0  0
 16 17  1  0  0  0  0
 16 15  1  0  0  0  0
 17 44  1  0  0  0  0
 18 46  1  0  0  0  0
 18 17  1  0  0  0  0
 19 16  1  0  0  0  0
 19 21  1  0  0  0  0
 20 19  2  0  0  0  0
 21 48  1  6  0  0  0
 21 22  1  0  0  0  0
 22 23  1  0  0  0  0
 23 28  1  0  0  0  0
 24 25  1  0  0  0  0
 24 23  2  0  0  0  0
 25 26  2  0  0  0  0
 26 50  1  0  0  0  0
 26 27  1  0  0  0  0
 27 51  1  0  0  0  0
 28 27  2  0  0  0  0
 28 52  1  0  0  0  0
 29 24  1  0  0  0  0
 30 29  1  0  0  0  0
 30 21  1  0  0  0  0
 30 54  1  0  0  0  0
 31  4  1  0  0  0  0
 32  5  1  0  0  0  0
 33  6  1  0  0  0  0
 35  8  1  0  0  0  0
 37  9  1  0  0  0  0
 38 12  1  0  0  0  0
 41 14  1  0  0  0  0
 45 17  1  0  0  0  0
 47 18  1  0  0  0  0
 49 25  1  0  0  0  0
 53 30  1  0  0  0  0
M  END
>  <Pose>
1

>  <Score>
-5.43

$$$$
