
 OpenBabel03202210083D

 47 51  0  0  1  0  0  0  0  0999 V2000
   51.6970   91.3380   18.8860 Cl  0  0  0  0  0  0  0  0  0  0  0  0
   52.2890   89.6930   19.0360 C   0  0  0  0  0  0  0  0  0  0  0  0
   51.5810   88.6580   18.4740 C   0  0  0  0  0  0  0  0  0  0  0  0
   52.0550   87.3580   18.6070 C   0  0  0  0  0  0  0  0  0  0  0  0
   53.2060   87.0430   19.2750 C   0  0  0  0  0  0  0  0  0  0  0  0
   53.8930   88.0980   19.8250 C   0  0  0  0  0  0  0  0  0  0  0  0
   53.4400   89.4160   19.7070 C   0  0  0  0  0  0  0  0  0  0  0  0
   53.6830   85.7350   19.4130 N   0  0  0  0  0  0  0  0  0  0  0  0
   53.7610   84.6870   18.4220 C   0  0  0  0  0  0  0  0  0  0  0  0
   53.3690   84.7620   17.2540 O   0  0  0  0  0  0  0  0  0  0  0  0
   54.3900   83.4990   19.0140 C   0  0  2  0  0  0  0  0  0  0  0  0
   53.6880   82.1880   18.7510 C   0  0  2  0  0  0  0  0  0  0  0  0
   52.7720   81.9510   19.8410 N   0  0  0  0  0  0  0  0  0  0  0  0
   52.6690   83.2030   20.5630 C   0  0  2  0  0  0  0  0  0  0  0  0
   54.0960   83.7050   20.4820 C   0  0  2  0  0  0  0  0  0  0  0  0
   54.2190   85.1680   20.6200 C   0  0  0  0  0  0  0  0  0  0  0  0
   54.7000   85.7290   21.6070 O   0  0  0  0  0  0  0  0  0  0  0  0
   52.2400   83.0040   21.9930 C   0  0  0  0  0  0  0  0  0  0  0  0
   50.8920   83.4810   22.2880 C   0  0  0  0  0  0  0  0  0  0  0  0
   49.8970   82.8030   21.9690 O   0  0  0  0  0  0  0  0  0  0  0  0
   50.7070   84.7220   22.9390 N   0  0  0  0  0  0  0  0  0  0  0  0
   54.7870   81.1620   18.7200 C   0  0  0  0  0  0  0  0  0  0  0  0
   54.9090   80.7270   17.4300 C   0  0  0  0  0  0  0  0  0  0  0  0
   55.8960   79.8020   17.0530 C   0  0  0  0  0  0  0  0  0  0  0  0
   56.7740   79.3050   17.9930 C   0  0  0  0  0  0  0  0  0  0  0  0
   56.6510   79.7380   19.2860 C   0  0  0  0  0  0  0  0  0  0  0  0
   55.6760   80.6480   19.6400 C   0  0  0  0  0  0  0  0  0  0  0  0
   53.8840   81.2660   16.6120 N   0  0  0  0  0  0  0  0  0  0  0  0
   53.0710   82.0800   17.4440 C   0  0  0  0  0  0  0  0  0  0  0  0
   51.9990   82.5960   17.0630 O   0  0  0  0  0  0  0  0  0  0  0  0
   50.6550   88.8540   17.9300 H   0  0  0  0  0  0  0  0  0  0  0  0
   51.4640   86.6060   18.1550 H   0  0  0  0  0  0  0  0  0  0  0  0
   54.8020   87.9740   20.3670 H   0  0  0  0  0  0  0  0  0  0  0  0
   53.9990   90.2400   20.1510 H   0  0  0  0  0  0  0  0  0  0  0  0
   55.4800   83.4480   18.8140 H   0  0  0  0  0  0  0  0  0  0  0  0
   51.8520   81.6690   19.4270 H   0  0  0  0  0  0  0  0  0  0  0  0
   52.0400   83.9390   20.0150 H   0  0  0  0  0  0  0  0  0  0  0  0
   54.7720   83.1530   21.1560 H   0  0  0  0  0  0  0  0  0  0  0  0
   52.9670   83.6010   22.6220 H   0  0  0  0  0  0  0  0  0  0  0  0
   52.4220   81.9410   22.2560 H   0  0  0  0  0  0  0  0  0  0  0  0
   50.0700   84.8720   23.7580 H   0  0  0  0  0  0  0  0  0  0  0  0
   51.2120   85.6080   22.6420 H   0  0  0  0  0  0  0  0  0  0  0  0
   55.9860   79.4640   16.0270 H   0  0  0  0  0  0  0  0  0  0  0  0
   57.5330   78.5890   17.6710 H   0  0  0  0  0  0  0  0  0  0  0  0
   57.3210   79.3610   20.0340 H   0  0  0  0  0  0  0  0  0  0  0  0
   55.5910   80.9760   20.6720 H   0  0  0  0  0  0  0  0  0  0  0  0
   53.7480   81.0920   15.5690 H   0  0  0  0  0  0  0  0  0  0  0  0
  1  2  1  0  0  0  0
  2  7  1  0  0  0  0
  3  4  1  0  0  0  0
  3  2  2  0  0  0  0
  4  5  2  0  0  0  0
  5  8  1  0  0  0  0
  5  6  1  0  0  0  0
  6 33  1  0  0  0  0
  7  6  2  0  0  0  0
  7 34  1  0  0  0  0
  8 16  1  0  0  0  0
  9 11  1  0  0  0  0
  9  8  1  0  0  0  0
 10  9  2  0  0  0  0
 11 35  1  6  0  0  0
 11 15  1  0  0  0  0
 12 29  1  6  0  0  0
 12 11  1  0  0  0  0
 12 13  1  0  0  0  0
 13 14  1  0  0  0  0
 14 37  1  6  0  0  0
 14 18  1  0  0  0  0
 15 14  1  0  0  0  0
 15 16  1  0  0  0  0
 15 38  1  1  0  0  0
 16 17  2  0  0  0  0
 18 40  1  0  0  0  0
 18 19  1  0  0  0  0
 18 39  1  0  0  0  0
 19 21  1  0  0  0  0
 20 19  2  0  0  0  0
 21 41  1  0  0  0  0
 22 12  1  0  0  0  0
 22 27  1  0  0  0  0
 23 22  2  0  0  0  0
 24 23  1  0  0  0  0
 24 25  2  0  0  0  0
 25 26  1  0  0  0  0
 26 27  2  0  0  0  0
 26 45  1  0  0  0  0
 27 46  1  0  0  0  0
 28 23  1  0  0  0  0
 28 29  1  0  0  0  0
 30 29  2  0  0  0  0
 31  3  1  0  0  0  0
 32  4  1  0  0  0  0
 36 13  1  0  0  0  0
 42 21  1  0  0  0  0
 43 24  1  0  0  0  0
 44 25  1  0  0  0  0
 47 28  1  0  0  0  0
M  END
>  <Pose>
1

>  <Score>
-6.63

$$$$
