
 OpenBabel03202210083D

 63 66  0  0  1  0  0  0  0  0999 V2000
   55.3690   97.5210   26.9460 Cl  0  0  0  0  0  0  0  0  0  0  0  0
   55.7250   96.1840   25.8750 C   0  0  0  0  0  0  0  0  0  0  0  0
   56.8120   96.1680   25.0350 C   0  0  0  0  0  0  0  0  0  0  0  0
   57.0470   95.0880   24.2090 C   0  0  0  0  0  0  0  0  0  0  0  0
   56.2070   93.9670   24.1760 C   0  0  0  0  0  0  0  0  0  0  0  0
   55.1280   94.0110   25.0280 C   0  0  0  0  0  0  0  0  0  0  0  0
   54.8870   95.1060   25.8680 C   0  0  0  0  0  0  0  0  0  0  0  0
   56.5390   92.8520   23.3180 C   0  0  0  0  0  0  0  0  0  0  0  0
   55.6970   92.3510   22.4290 C   0  0  0  0  0  0  0  0  0  0  0  0
   55.9840   91.1880   21.5130 C   0  0  2  0  0  0  0  0  0  0  0  0
   54.9410   91.2080   20.5290 N   0  0  0  0  0  0  0  0  0  0  0  0
   53.9040   92.0990   20.9150 C   0  0  0  0  0  0  0  0  0  0  0  0
   52.8060   92.2500   20.3610 O   0  0  0  0  0  0  0  0  0  0  0  0
   54.3860   92.8220   22.1150 C   0  0  0  0  0  0  0  0  0  0  0  0
   53.7260   93.6970   22.7240 O   0  0  0  0  0  0  0  0  0  0  0  0
   54.9380   90.4350   19.2910 C   0  0  0  0  0  0  0  0  0  0  0  0
   54.7390   88.9910   19.5990 C   0  0  0  0  0  0  0  0  0  0  0  0
   53.3100   88.6390   19.6340 N   0  0  0  0  0  4  0  0  0  0  0  0
   53.2060   87.2130   19.5950 C   0  0  0  0  0  0  0  0  0  0  0  0
   51.7960   86.7550   19.2310 C   0  0  0  0  0  0  0  0  0  0  0  0
   51.5060   87.3360   17.9830 O   0  0  0  0  0  0  0  0  0  0  0  0
   51.3480   88.6900   18.1910 C   0  0  0  0  0  0  0  0  0  0  0  0
   52.7000   89.3010   18.5020 C   0  0  0  0  0  0  0  0  0  0  0  0
   55.9800   89.9690   22.3670 C   0  0  0  0  0  0  0  0  0  0  0  0
   56.4180   88.7790   21.8620 C   0  0  0  0  0  0  0  0  0  0  0  0
   56.4230   87.6680   22.6560 C   0  0  0  0  0  0  0  0  0  0  0  0
   55.9950   87.7100   23.9650 C   0  0  0  0  0  0  0  0  0  0  0  0
   55.5500   88.9140   24.4790 C   0  0  0  0  0  0  0  0  0  0  0  0
   55.5480   90.0390   23.6680 C   0  0  0  0  0  0  0  0  0  0  0  0
   56.0020   86.5740   24.7680 O   0  0  0  0  0  0  0  0  0  0  0  0
   54.7620   86.1530   25.3540 C   0  0  0  0  0  0  0  0  0  0  0  0
   54.5380   84.6800   25.0190 C   0  0  0  0  0  0  0  0  0  0  0  0
   55.3160   83.8690   26.0460 C   0  0  0  0  0  0  0  0  0  0  0  0
   57.8070   92.2290   23.3900 O   0  0  0  0  0  0  0  0  0  0  0  0
   57.4680   97.0260   25.0500 H   0  0  0  0  0  0  0  0  0  0  0  0
   57.9090   95.0920   23.5540 H   0  0  0  0  0  0  0  0  0  0  0  0
   54.4580   93.1620   25.0720 H   0  0  0  0  0  0  0  0  0  0  0  0
   54.0160   95.0940   26.5240 H   0  0  0  0  0  0  0  0  0  0  0  0
   56.9890   91.3210   21.0610 H   0  0  0  0  0  0  0  0  0  0  0  0
   55.9260   90.5760   18.7990 H   0  0  0  0  0  0  0  0  0  0  0  0
   54.1460   90.8270   18.6330 H   0  0  0  0  0  0  0  0  0  0  0  0
   55.1460   88.7190   20.5870 H   0  0  0  0  0  0  0  0  0  0  0  0
   55.1960   88.3630   18.7920 H   0  0  0  0  0  0  0  0  0  0  0  0
   52.8670   88.9950   20.5210 H   0  0  0  0  0  0  0  0  0  0  0  0
   53.4180   86.8410   20.6350 H   0  0  0  0  0  0  0  0  0  0  0  0
   53.8940   86.7590   18.8520 H   0  0  0  0  0  0  0  0  0  0  0  0
   51.1340   87.1410   20.0260 H   0  0  0  0  0  0  0  0  0  0  0  0
   51.7990   85.6680   19.1400 H   0  0  0  0  0  0  0  0  0  0  0  0
   50.9840   89.1780   17.2710 H   0  0  0  0  0  0  0  0  0  0  0  0
   50.6810   88.9230   19.0320 H   0  0  0  0  0  0  0  0  0  0  0  0
   52.5450   90.3630   18.7900 H   0  0  0  0  0  0  0  0  0  0  0  0
   53.3940   89.2240   17.6440 H   0  0  0  0  0  0  0  0  0  0  0  0
   56.7660   88.6930   20.8400 H   0  0  0  0  0  0  0  0  0  0  0  0
   56.7690   86.7160   22.2680 H   0  0  0  0  0  0  0  0  0  0  0  0
   55.2180   88.9270   25.5070 H   0  0  0  0  0  0  0  0  0  0  0  0
   55.1840   90.9600   24.1290 H   0  0  0  0  0  0  0  0  0  0  0  0
   54.8120   86.2490   26.4500 H   0  0  0  0  0  0  0  0  0  0  0  0
   53.9340   86.7760   24.9720 H   0  0  0  0  0  0  0  0  0  0  0  0
   53.4590   84.4650   25.1600 H   0  0  0  0  0  0  0  0  0  0  0  0
   54.8700   84.4600   23.9870 H   0  0  0  0  0  0  0  0  0  0  0  0
   54.7870   82.9360   26.2740 H   0  0  0  0  0  0  0  0  0  0  0  0
   55.4250   84.4240   27.0090 H   0  0  0  0  0  0  0  0  0  0  0  0
   56.3110   83.6470   25.6130 H   0  0  0  0  0  0  0  0  0  0  0  0
  2  1  1  0  0  0  0
  3 35  1  0  0  0  0
  3  2  2  0  0  0  0
  4  3  1  0  0  0  0
  5  4  2  0  0  0  0
  5  6  1  0  0  0  0
  6 37  1  0  0  0  0
  6  7  2  0  0  0  0
  7  2  1  0  0  0  0
  7 38  1  0  0  0  0
  8 34  1  0  0  0  0
  8  5  1  0  0  0  0
  9  8  2  0  0  0  0
 10 39  1  6  0  0  0
 10 24  1  0  0  0  0
 10  9  1  0  0  0  0
 11 12  1  0  0  0  0
 11 10  1  0  0  0  0
 12 14  1  0  0  0  0
 13 12  2  0  0  0  0
 14  9  1  0  0  0  0
 14 15  2  0  0  0  0
 16 17  1  0  0  0  0
 16 11  1  0  0  0  0
 17 18  1  0  0  0  0
 17 42  1  0  0  0  0
 18 44  1  0  0  0  0
 19 18  1  0  0  0  0
 19 45  1  0  0  0  0
 20 19  1  0  0  0  0
 20 47  1  0  0  0  0
 21 22  1  0  0  0  0
 21 20  1  0  0  0  0
 22 23  1  0  0  0  0
 22 50  1  0  0  0  0
 23 51  1  0  0  0  0
 23 18  1  0  0  0  0
 24 29  1  0  0  0  0
 25 24  2  0  0  0  0
 25 26  1  0  0  0  0
 26 27  2  0  0  0  0
 27 28  1  0  0  0  0
 27 30  1  0  0  0  0
 28 55  1  0  0  0  0
 29 56  1  0  0  0  0
 29 28  2  0  0  0  0
 30 31  1  0  0  0  0
 31 57  1  0  0  0  0
 32 59  1  0  0  0  0
 32 31  1  0  0  0  0
 32 33  1  0  0  0  0
 33 61  1  0  0  0  0
 33 62  1  0  0  0  0
 36  4  1  0  0  0  0
 40 16  1  0  0  0  0
 41 16  1  0  0  0  0
 43 17  1  0  0  0  0
 46 19  1  0  0  0  0
 48 20  1  0  0  0  0
 49 22  1  0  0  0  0
 52 23  1  0  0  0  0
 53 25  1  0  0  0  0
 54 26  1  0  0  0  0
 58 31  1  0  0  0  0
 60 32  1  0  0  0  0
 63 33  1  0  0  0  0
M  END
>  <Pose>
1

>  <Score>
-6.79

$$$$
