
 OpenBabel03202210083D

 42 45  0  0  0  0  0  0  0  0999 V2000
   57.5460   97.9080   25.3230 Cl  0  0  0  0  0  0  0  0  0  0  0  0
   56.3750   96.6440   25.5350 C   0  0  0  0  0  0  0  0  0  0  0  0
   56.3300   95.4880   24.7670 C   0  0  0  0  0  0  0  0  0  0  0  0
   55.3990   94.5330   24.9860 C   0  0  0  0  0  0  0  0  0  0  0  0
   54.4990   94.7690   26.0070 C   0  0  0  0  0  0  0  0  0  0  0  0
   54.4940   95.8750   26.7870 C   0  0  0  0  0  0  0  0  0  0  0  0
   55.4210   96.8380   26.5860 C   0  0  0  0  0  0  0  0  0  0  0  0
   55.2770   93.3070   24.2290 N   0  0  0  0  0  0  0  0  0  0  0  0
   54.6080   93.2770   23.0960 N   0  0  0  0  0  0  0  0  0  0  0  0
   54.6880   92.1560   22.7180 N   0  0  0  0  0  0  0  0  0  0  0  0
   55.2000   91.1340   23.1270 C   0  0  0  0  0  0  0  0  0  0  0  0
   55.7060   92.0890   24.4240 C   0  0  0  0  0  0  0  0  0  0  0  0
   55.8120   89.9100   23.6150 C   0  0  0  0  0  0  0  0  0  0  0  0
   55.5950   90.0020   24.9860 O   0  0  0  0  0  0  0  0  0  0  0  0
   56.4740   88.7710   23.3010 N   0  0  0  0  0  0  0  0  0  0  0  0
   57.3270   88.4310   22.2020 C   0  0  0  0  0  0  0  0  0  0  0  0
   57.2890   86.9050   21.9800 C   0  0  0  0  0  0  0  0  0  0  0  0
   55.9200   86.5300   22.3640 N   0  0  0  0  0  0  0  0  0  0  0  0
   55.5610   86.5600   23.7430 C   0  0  0  0  0  0  0  0  0  0  0  0
   56.3610   87.6820   24.3240 C   0  0  0  0  0  0  0  0  0  0  0  0
   54.9790   86.2690   21.3740 C   0  0  0  0  0  0  0  0  0  0  0  0
   54.9150   85.0160   20.7540 N   0  0  0  0  0  0  0  0  0  0  0  0
   54.0700   84.6620   19.8510 C   0  0  0  0  0  0  0  0  0  0  0  0
   53.0750   85.5350   19.3830 C   0  0  0  0  0  0  0  0  0  0  0  0
   53.1360   86.7840   19.9880 C   0  0  0  0  0  0  0  0  0  0  0  0
   54.0050   87.0770   20.8800 N   0  0  0  0  0  0  0  0  0  0  0  0
   57.0340   95.3860   23.9470 H   0  0  0  0  0  0  0  0  0  0  0  0
   53.7330   93.9500   26.1430 H   0  0  0  0  0  0  0  0  0  0  0  0
   53.7550   95.9860   27.5770 H   0  0  0  0  0  0  0  0  0  0  0  0
   55.5050   97.7240   27.1340 H   0  0  0  0  0  0  0  0  0  0  0  0
   56.2410   91.6980   25.1840 H   0  0  0  0  0  0  0  0  0  0  0  0
   58.3980   88.6010   22.4750 H   0  0  0  0  0  0  0  0  0  0  0  0
   57.0440   88.8560   21.2490 H   0  0  0  0  0  0  0  0  0  0  0  0
   57.4770   86.6180   20.9490 H   0  0  0  0  0  0  0  0  0  0  0  0
   58.0290   86.4370   22.6690 H   0  0  0  0  0  0  0  0  0  0  0  0
   55.8490   85.6290   24.2600 H   0  0  0  0  0  0  0  0  0  0  0  0
   54.4320   86.6860   23.8500 H   0  0  0  0  0  0  0  0  0  0  0  0
   57.3780   87.4420   24.6920 H   0  0  0  0  0  0  0  0  0  0  0  0
   55.7780   88.0960   25.1590 H   0  0  0  0  0  0  0  0  0  0  0  0
   54.0710   83.6830   19.3440 H   0  0  0  0  0  0  0  0  0  0  0  0
   52.3510   85.2930   18.6320 H   0  0  0  0  0  0  0  0  0  0  0  0
   52.3930   87.5470   19.6470 H   0  0  0  0  0  0  0  0  0  0  0  0
  1  2  1  0  0  0  0
  2  7  1  0  0  0  0
  3  4  1  0  0  0  0
  3  2  2  0  0  0  0
  4  5  2  0  0  0  0
  5 28  1  0  0  0  0
  5  6  1  0  0  0  0
  6 29  1  0  0  0  0
  7  6  2  0  0  0  0
  7 30  1  0  0  0  0
  8 12  1  0  0  0  0
  8  4  1  0  0  0  0
  9  8  1  0  0  0  0
 10  9  2  0  0  0  0
 10 11  1  0  0  0  0
 11 13  1  0  0  0  0
 11 12  2  0  0  0  0
 12 31  1  0  0  0  0
 13 14  2  0  0  0  0
 15 13  1  0  0  0  0
 15 20  1  0  0  0  0
 16 32  1  0  0  0  0
 16 15  1  0  0  0  0
 17 16  1  0  0  0  0
 17 18  1  0  0  0  0
 17 35  1  0  0  0  0
 18 19  1  0  0  0  0
 19 37  1  0  0  0  0
 19 36  1  0  0  0  0
 19 20  1  0  0  0  0
 20 38  1  0  0  0  0
 20 39  1  0  0  0  0
 21 18  1  0  0  0  0
 22 21  2  0  0  0  0
 23 22  1  0  0  0  0
 24 23  2  0  0  0  0
 24 25  1  0  0  0  0
 25 26  2  0  0  0  0
 26 21  1  0  0  0  0
 27  3  1  0  0  0  0
 33 16  1  0  0  0  0
 34 17  1  0  0  0  0
 40 23  1  0  0  0  0
 41 24  1  0  0  0  0
 42 25  1  0  0  0  0
M  END
>  <Pose>
1

>  <Score>
-6.47

$$$$
