
 OpenBabel03202210083D

 42 45  0  0  1  0  0  0  0  0999 V2000
   55.7400   80.1540   18.8250 Cl  0  0  0  0  0  0  0  0  0  0  0  0
   54.6530   81.4740   19.2520 C   0  0  0  0  0  0  0  0  0  0  0  0
   54.4670   82.5640   18.4260 C   0  0  0  0  0  0  0  0  0  0  0  0
   53.6360   83.5880   18.7360 N   0  0  0  0  0  0  0  0  0  0  0  0
   52.9330   83.6040   19.8840 C   0  0  0  0  0  0  0  0  0  0  0  0
   52.0950   84.6220   20.2120 N   0  0  0  0  0  0  0  0  0  0  0  0
   51.9080   85.6880   19.4130 C   0  0  0  0  0  0  0  0  0  0  0  0
   52.6280   85.6870   18.2220 C   0  0  1  0  0  0  0  0  0  0  0  0
   52.4230   86.8640   17.3380 C   0  0  0  0  0  0  0  0  0  0  0  0
   52.4890   88.0300   18.2280 N   0  0  0  0  0  0  0  0  0  0  0  0
   51.5010   88.1310   19.2640 C   0  0  0  0  0  0  0  0  0  0  0  0
   50.9940   86.8060   19.7580 C   0  0  0  0  0  0  0  0  0  0  0  0
   53.4990   89.0040   18.0630 C   0  0  0  0  0  0  0  0  0  0  0  0
   54.1500   88.9820   16.9650 O   0  0  0  0  0  0  0  0  0  0  0  0
   53.8140   90.0180   19.0940 C   0  0  0  0  0  0  0  0  0  0  0  0
   52.6570   90.9620   19.3390 C   0  0  0  0  0  0  0  0  0  0  0  0
   52.0910   91.2890   17.9640 C   0  0  0  0  0  0  0  0  0  0  0  0
   53.1250   91.4190   17.0380 O   0  0  0  0  0  0  0  0  0  0  0  0
   54.2910   91.9150   17.6370 C   0  0  0  0  0  0  0  0  0  0  0  0
   54.9490   90.8970   18.5490 C   0  0  0  0  0  0  0  0  0  0  0  0
   53.4700   84.6410   17.9160 C   0  0  0  0  0  0  0  0  0  0  0  0
   54.1170   84.6650   16.8190 O   0  0  0  0  0  0  0  0  0  0  0  0
   53.1060   82.5190   20.7270 C   0  0  0  0  0  0  0  0  0  0  0  0
   53.9460   81.4640   20.4350 C   0  0  0  0  0  0  0  0  0  0  0  0
   55.0150   82.5940   17.4870 H   0  0  0  0  0  0  0  0  0  0  0  0
   51.4510   86.7690   16.8440 H   0  0  0  0  0  0  0  0  0  0  0  0
   53.2010   86.9540   16.5660 H   0  0  0  0  0  0  0  0  0  0  0  0
   51.9080   88.6600   20.1560 H   0  0  0  0  0  0  0  0  0  0  0  0
   50.6560   88.7440   18.8310 H   0  0  0  0  0  0  0  0  0  0  0  0
   49.9950   86.5690   19.2870 H   0  0  0  0  0  0  0  0  0  0  0  0
   50.8500   86.7870   20.8590 H   0  0  0  0  0  0  0  0  0  0  0  0
   54.1370   89.5110   20.0300 H   0  0  0  0  0  0  0  0  0  0  0  0
   53.1060   91.9300   19.7030 H   0  0  0  0  0  0  0  0  0  0  0  0
   51.9120   90.6080   20.0450 H   0  0  0  0  0  0  0  0  0  0  0  0
   51.4830   90.4260   17.6460 H   0  0  0  0  0  0  0  0  0  0  0  0
   51.4300   92.1740   17.9850 H   0  0  0  0  0  0  0  0  0  0  0  0
   55.0070   92.1180   16.8150 H   0  0  0  0  0  0  0  0  0  0  0  0
   54.1100   92.8780   18.1490 H   0  0  0  0  0  0  0  0  0  0  0  0
   55.7140   90.2980   18.0480 H   0  0  0  0  0  0  0  0  0  0  0  0
   55.3250   91.4700   19.4290 H   0  0  0  0  0  0  0  0  0  0  0  0
   52.5390   82.5250   21.6600 H   0  0  0  0  0  0  0  0  0  0  0  0
   54.0750   80.6170   21.1000 H   0  0  0  0  0  0  0  0  0  0  0  0
  1  2  1  0  0  0  0
  2 24  2  0  0  0  0
  3  4  1  0  0  0  0
  3  2  1  0  0  0  0
  4  5  1  0  0  0  0
  5  6  1  0  0  0  0
  5 23  2  0  0  0  0
  7 12  1  0  0  0  0
  7  6  2  0  0  0  0
  8 21  1  1  0  0  0
  8  7  1  0  0  0  0
  9  8  1  0  0  0  0
  9 10  1  0  0  0  0
 10 11  1  0  0  0  0
 11 12  1  0  0  0  0
 11 28  1  0  0  0  0
 12 31  1  0  0  0  0
 13 10  1  0  0  0  0
 13 15  1  0  0  0  0
 14 13  2  0  0  0  0
 15 16  1  0  0  0  0
 15 32  1  0  0  0  0
 16 33  1  0  0  0  0
 16 34  1  0  0  0  0
 17 36  1  0  0  0  0
 17 16  1  0  0  0  0
 18 19  1  0  0  0  0
 18 17  1  0  0  0  0
 19 38  1  0  0  0  0
 19 20  1  0  0  0  0
 20 15  1  0  0  0  0
 20 40  1  0  0  0  0
 21  4  1  0  0  0  0
 22 21  2  0  0  0  0
 23 41  1  0  0  0  0
 24 23  1  0  0  0  0
 24 42  1  0  0  0  0
 25  3  1  0  0  0  0
 26  9  1  0  0  0  0
 27  9  1  0  0  0  0
 29 11  1  0  0  0  0
 30 12  1  0  0  0  0
 35 17  1  0  0  0  0
 37 19  1  0  0  0  0
 39 20  1  0  0  0  0
M  END
>  <Pose>
1

>  <Score>
-4.65

$$$$
