
 OpenBabel03202210083D

 41 44  0  0  0  0  0  0  0  0999 V2000
   56.5900   90.0090   21.1490 F   0  0  0  0  0  0  0  0  0  0  0  0
   55.4240   89.7260   20.5210 C   0  0  0  0  0  0  0  0  0  0  0  0
   54.9440   88.4260   20.5770 C   0  0  0  0  0  0  0  0  0  0  0  0
   53.7650   88.0640   19.9620 C   0  0  0  0  0  0  0  0  0  0  0  0
   53.0690   89.0460   19.2790 C   0  0  0  0  0  0  0  0  0  0  0  0
   53.5440   90.3360   19.2230 C   0  0  0  0  0  0  0  0  0  0  0  0
   54.7210   90.6910   19.8380 C   0  0  0  0  0  0  0  0  0  0  0  0
   51.5670   88.5900   18.4940 Cl  0  0  0  0  0  0  0  0  0  0  0  0
   53.4770   86.6590   20.1630 C   0  0  0  0  0  0  0  0  0  0  0  0
   52.4990   85.9960   19.7490 O   0  0  0  0  0  0  0  0  0  0  0  0
   54.5810   86.1480   20.9660 C   0  0  0  0  0  0  0  0  0  0  0  0
   54.7070   84.9470   21.3620 O   0  0  0  0  0  0  0  0  0  0  0  0
   55.4610   87.2350   21.2070 N   0  0  0  0  0  0  0  0  0  0  0  0
   56.6980   87.2020   21.9590 C   0  0  0  0  0  0  0  0  0  0  0  0
   56.5390   87.5970   23.3430 N   0  0  0  0  0  0  0  0  0  0  0  0
   55.1650   87.6380   23.7090 C   0  0  0  0  0  0  0  0  0  0  0  0
   54.8320   87.0390   25.0300 C   0  0  0  0  0  0  0  0  0  0  0  0
   55.5780   85.8440   25.3270 N   0  0  0  0  0  0  0  0  0  0  0  0
   56.7770   85.5720   24.5690 C   0  0  0  0  0  0  0  0  0  0  0  0
   57.4010   86.9130   24.2460 C   0  0  0  0  0  0  0  0  0  0  0  0
   55.1810   84.9330   26.3320 C   0  0  0  0  0  0  0  0  0  0  0  0
   54.8130   85.3550   27.5540 N   0  0  0  0  0  0  0  0  0  0  0  0
   54.4310   84.5070   28.5280 C   0  0  0  0  0  0  0  0  0  0  0  0
   54.4040   83.1450   28.2990 C   0  0  0  0  0  0  0  0  0  0  0  0
   54.7700   82.7170   27.0800 N   0  0  0  0  0  0  0  0  0  0  0  0
   55.1520   83.5630   26.1050 C   0  0  0  0  0  0  0  0  0  0  0  0
   52.9680   91.0940   18.6730 H   0  0  0  0  0  0  0  0  0  0  0  0
   55.0750   91.7270   19.7760 H   0  0  0  0  0  0  0  0  0  0  0  0
   57.1180   86.1980   21.8480 H   0  0  0  0  0  0  0  0  0  0  0  0
   57.4110   87.9100   21.4900 H   0  0  0  0  0  0  0  0  0  0  0  0
   54.8450   88.7120   23.7240 H   0  0  0  0  0  0  0  0  0  0  0  0
   54.5400   87.1750   22.8940 H   0  0  0  0  0  0  0  0  0  0  0  0
   54.8690   87.7790   25.8660 H   0  0  0  0  0  0  0  0  0  0  0  0
   53.7480   86.7240   24.9840 H   0  0  0  0  0  0  0  0  0  0  0  0
   56.4280   85.1350   23.5960 H   0  0  0  0  0  0  0  0  0  0  0  0
   57.4740   84.9010   25.0980 H   0  0  0  0  0  0  0  0  0  0  0  0
   58.4180   86.8680   23.8650 H   0  0  0  0  0  0  0  0  0  0  0  0
   57.4590   87.5290   25.1900 H   0  0  0  0  0  0  0  0  0  0  0  0
   54.1370   84.8590   29.5120 H   0  0  0  0  0  0  0  0  0  0  0  0
   54.0920   82.4840   29.1020 H   0  0  0  0  0  0  0  0  0  0  0  0
   55.4490   83.2250   25.1190 H   0  0  0  0  0  0  0  0  0  0  0  0
  2  3  1  0  0  0  0
  2  1  1  0  0  0  0
  3 13  1  0  0  0  0
  4  9  1  0  0  0  0
  4  3  2  0  0  0  0
  5  4  1  0  0  0  0
  6  5  2  0  0  0  0
  6  7  1  0  0  0  0
  7  2  2  0  0  0  0
  8  5  1  0  0  0  0
  9 11  1  0  0  0  0
 10  9  2  0  0  0  0
 11 13  1  0  0  0  0
 11 12  2  0  0  0  0
 13 14  1  0  0  0  0
 14 15  1  0  0  0  0
 15 16  1  0  0  0  0
 15 20  1  0  0  0  0
 16 31  1  0  0  0  0
 16 17  1  0  0  0  0
 17 18  1  0  0  0  0
 17 33  1  0  0  0  0
 18 21  1  0  0  0  0
 19 36  1  0  0  0  0
 19 18  1  0  0  0  0
 20 19  1  0  0  0  0
 20 38  1  0  0  0  0
 21 22  1  0  0  0  0
 22 23  2  0  0  0  0
 23 39  1  0  0  0  0
 24 23  1  0  0  0  0
 24 40  1  0  0  0  0
 25 24  2  0  0  0  0
 26 21  2  0  0  0  0
 26 25  1  0  0  0  0
 27  6  1  0  0  0  0
 28  7  1  0  0  0  0
 29 14  1  0  0  0  0
 30 14  1  0  0  0  0
 32 16  1  0  0  0  0
 34 17  1  0  0  0  0
 35 19  1  0  0  0  0
 37 20  1  0  0  0  0
 41 26  1  0  0  0  0
M  END
>  <Pose>
1

>  <Score>
-6.04

$$$$
