
 OpenBabel03202210083D

 41 44  0  0  0  0  0  0  0  0999 V2000
   50.9370  100.5680   25.5740 Cl  0  0  0  0  0  0  0  0  0  0  0  0
   50.6060  100.7540   27.2760 C   0  0  0  0  0  0  0  0  0  0  0  0
   50.0600  101.9210   27.7860 C   0  0  0  0  0  0  0  0  0  0  0  0
   49.7920  102.0850   29.1320 C   0  0  0  0  0  0  0  0  0  0  0  0
   50.0880  101.0320   29.9770 C   0  0  0  0  0  0  0  0  0  0  0  0
   50.6330   99.8760   29.4520 C   0  0  0  0  0  0  0  0  0  0  0  0
   50.9080   99.6940   28.1080 C   0  0  0  0  0  0  0  0  0  0  0  0
   51.4940   98.4160   27.6000 C   0  0  0  0  0  0  0  0  0  0  0  0
   52.9800   98.4160   27.7870 C   0  0  0  0  0  0  0  0  0  0  0  0
   53.4580   99.2040   28.6760 O   0  0  0  0  0  0  0  0  0  0  0  0
   53.8170   97.5750   27.0080 N   0  0  0  0  0  0  0  0  0  0  0  0
   53.3450   96.2920   26.6200 C   0  0  0  0  0  0  0  0  0  0  0  0
   54.4400   95.2670   26.9380 C   0  0  0  0  0  0  0  0  0  0  0  0
   55.5700   95.6940   26.0250 C   0  0  0  0  0  0  0  0  0  0  0  0
   55.8570   97.0360   25.8870 C   0  0  0  0  0  0  0  0  0  0  0  0
   56.8700   97.4000   25.0490 N   0  0  0  0  0  0  0  0  0  0  0  0
   57.5950   96.5070   24.3570 C   0  0  0  0  0  0  0  0  0  0  0  0
   57.3010   95.2030   24.5030 N   0  0  0  0  0  0  0  0  0  0  0  0
   56.2990   94.7750   25.3270 C   0  0  0  0  0  0  0  0  0  0  0  0
   55.9940   93.4340   25.4790 O   0  0  0  0  0  0  0  0  0  0  0  0
   55.1020   98.0620   26.6340 C   0  0  0  0  0  0  0  0  0  0  0  0
   49.8200  101.1960   31.3200 O   0  0  0  0  0  0  0  0  0  0  0  0
   48.9400  102.1620   31.8580 C   0  0  0  0  0  0  0  0  0  0  0  0
   48.6060  103.2750   30.9290 C   0  0  0  0  0  0  0  0  0  0  0  0
   49.2520  103.2190   29.6860 O   0  0  0  0  0  0  0  0  0  0  0  0
   49.8210  102.7540   27.1470 H   0  0  0  0  0  0  0  0  0  0  0  0
   50.8630   99.0520   30.1250 H   0  0  0  0  0  0  0  0  0  0  0  0
   51.2380   98.3610   26.5200 H   0  0  0  0  0  0  0  0  0  0  0  0
   51.0560   97.5360   28.0730 H   0  0  0  0  0  0  0  0  0  0  0  0
   53.1570   96.2260   25.5090 H   0  0  0  0  0  0  0  0  0  0  0  0
   52.3860   95.9980   27.0880 H   0  0  0  0  0  0  0  0  0  0  0  0
   54.1240   94.2440   26.7330 H   0  0  0  0  0  0  0  0  0  0  0  0
   54.7110   95.4120   28.0020 H   0  0  0  0  0  0  0  0  0  0  0  0
   58.4010   96.8140   23.6910 H   0  0  0  0  0  0  0  0  0  0  0  0
   56.5230   92.7620   24.9360 H   0  0  0  0  0  0  0  0  0  0  0  0
   55.6800   98.4150   27.5330 H   0  0  0  0  0  0  0  0  0  0  0  0
   55.0510   98.9580   25.9680 H   0  0  0  0  0  0  0  0  0  0  0  0
   47.9780  101.6120   32.0770 H   0  0  0  0  0  0  0  0  0  0  0  0
   49.3000  102.4960   32.8510 H   0  0  0  0  0  0  0  0  0  0  0  0
   47.5100  103.3490   30.7180 H   0  0  0  0  0  0  0  0  0  0  0  0
   48.8640  104.2420   31.4470 H   0  0  0  0  0  0  0  0  0  0  0  0
  1  2  1  0  0  0  0
  2  3  2  0  0  0  0
  2  7  1  0  0  0  0
  3  4  1  0  0  0  0
  4 25  1  0  0  0  0
  4  5  2  0  0  0  0
  5 22  1  0  0  0  0
  6  5  1  0  0  0  0
  6 27  1  0  0  0  0
  7  6  2  0  0  0  0
  8  9  1  0  0  0  0
  8 29  1  0  0  0  0
  8  7  1  0  0  0  0
  9 10  2  0  0  0  0
 11  9  1  0  0  0  0
 12 13  1  0  0  0  0
 12 11  1  0  0  0  0
 12 31  1  0  0  0  0
 13 33  1  0  0  0  0
 14 13  1  0  0  0  0
 15 14  2  0  0  0  0
 15 21  1  0  0  0  0
 16 15  1  0  0  0  0
 17 18  1  0  0  0  0
 17 16  2  0  0  0  0
 18 19  2  0  0  0  0
 19 20  1  0  0  0  0
 19 14  1  0  0  0  0
 21 11  1  0  0  0  0
 21 36  1  0  0  0  0
 22 23  1  0  0  0  0
 23 38  1  0  0  0  0
 23 39  1  0  0  0  0
 24 41  1  0  0  0  0
 24 23  1  0  0  0  0
 25 24  1  0  0  0  0
 26  3  1  0  0  0  0
 28  8  1  0  0  0  0
 30 12  1  0  0  0  0
 32 13  1  0  0  0  0
 34 17  1  0  0  0  0
 35 20  1  0  0  0  0
 37 21  1  0  0  0  0
 40 24  1  0  0  0  0
M  END
>  <Pose>
1

>  <Score>
-7.10

$$$$
