
 OpenBabel03202210083D

 46 49  0  0  1  0  0  0  0  0999 V2000
   48.5600   81.9510   26.7130 Cl  0  0  0  0  0  0  0  0  0  0  0  0
   49.7720   82.6590   25.6590 C   0  0  0  0  0  0  0  0  0  0  0  0
   50.7320   83.5180   26.1560 C   0  0  0  0  0  0  0  0  0  0  0  0
   51.6990   84.0840   25.3150 C   0  0  0  0  0  0  0  0  0  0  0  0
   51.6390   83.7420   23.9890 C   0  0  0  0  0  0  0  0  0  0  0  0
   50.6620   82.8700   23.4880 C   0  0  0  0  0  0  0  0  0  0  0  0
   49.7150   82.3180   24.3230 C   0  0  0  0  0  0  0  0  0  0  0  0
   52.5890   84.2900   23.1320 O   0  0  0  0  0  0  0  0  0  0  0  0
   53.5820   85.1580   23.5550 C   0  0  0  0  0  0  0  0  0  0  0  0
   53.6410   85.5030   24.8960 C   0  0  0  0  0  0  0  0  0  0  0  0
   52.7000   84.9970   25.9020 C   0  0  2  0  0  0  0  0  0  0  0  0
   53.4600   84.2630   26.9660 C   0  0  0  0  0  0  0  0  0  0  0  0
   54.4290   83.3430   26.6350 C   0  0  0  0  0  0  0  0  0  0  0  0
   55.1110   82.6820   27.6100 N   0  0  0  0  0  0  0  0  0  0  0  0
   54.8430   82.9210   28.9190 C   0  0  0  0  0  0  0  0  0  0  0  0
   55.4950   82.2890   29.7960 O   0  0  0  0  0  0  0  0  0  0  0  0
   53.9040   83.8120   29.2720 N   0  0  0  0  0  0  0  0  0  0  0  0
   53.2260   84.4680   28.3110 C   0  0  0  0  0  0  0  0  0  0  0  0
   52.3620   85.2880   28.6540 O   0  0  0  0  0  0  0  0  0  0  0  0
   53.6400   84.0430   30.6890 C   0  0  0  0  0  0  0  0  0  0  0  0
   56.1280   81.7220   27.1940 C   0  0  0  0  0  0  0  0  0  0  0  0
   54.7030   83.1000   25.3180 O   0  0  0  0  0  0  0  0  0  0  0  0
   54.6490   86.3690   25.2700 C   0  0  0  0  0  0  0  0  0  0  0  0
   54.7540   86.7210   26.4870 O   0  0  0  0  0  0  0  0  0  0  0  0
   55.5550   86.8850   24.4250 N   0  0  0  0  0  0  0  0  0  0  0  0
   55.4590   86.5200   23.1230 C   0  0  0  0  0  0  0  0  0  0  0  0
   56.3190   87.0160   22.3480 O   0  0  0  0  0  0  0  0  0  0  0  0
   54.4920   85.6780   22.7140 N   0  0  0  0  0  0  0  0  0  0  0  0
   54.4540   85.3360   21.3070 C   0  0  0  0  0  0  0  0  0  0  0  0
   56.6070   87.7990   24.8740 C   0  0  0  0  0  0  0  0  0  0  0  0
   50.7620   83.7750   27.2140 H   0  0  0  0  0  0  0  0  0  0  0  0
   50.6780   82.6450   22.4250 H   0  0  0  0  0  0  0  0  0  0  0  0
   48.9700   81.6480   23.9180 H   0  0  0  0  0  0  0  0  0  0  0  0
   52.2270   85.8700   26.4030 H   0  0  0  0  0  0  0  0  0  0  0  0
   52.6730   84.5090   30.8720 H   0  0  0  0  0  0  0  0  0  0  0  0
   54.4660   84.7230   31.0350 H   0  0  0  0  0  0  0  0  0  0  0  0
   53.7930   83.0840   31.2330 H   0  0  0  0  0  0  0  0  0  0  0  0
   55.8200   81.3030   26.2110 H   0  0  0  0  0  0  0  0  0  0  0  0
   57.0960   82.2830   27.0440 H   0  0  0  0  0  0  0  0  0  0  0  0
   56.2600   80.9370   27.9590 H   0  0  0  0  0  0  0  0  0  0  0  0
   55.1850   84.5080   21.1280 H   0  0  0  0  0  0  0  0  0  0  0  0
   53.4580   84.9930   20.9870 H   0  0  0  0  0  0  0  0  0  0  0  0
   54.7210   86.2180   20.6780 H   0  0  0  0  0  0  0  0  0  0  0  0
   57.5330   87.1590   24.9250 H   0  0  0  0  0  0  0  0  0  0  0  0
   56.7270   88.6590   24.2190 H   0  0  0  0  0  0  0  0  0  0  0  0
   56.3960   88.1050   25.9010 H   0  0  0  0  0  0  0  0  0  0  0  0
  2  3  1  0  0  0  0
  2  1  1  0  0  0  0
  3 31  1  0  0  0  0
  4 11  1  0  0  0  0
  4  3  2  0  0  0  0
  5  4  1  0  0  0  0
  6  5  2  0  0  0  0
  6  7  1  0  0  0  0
  7  2  2  0  0  0  0
  8  9  1  0  0  0  0
  8  5  1  0  0  0  0
  9 10  2  0  0  0  0
 10 23  1  0  0  0  0
 10 11  1  0  0  0  0
 11 34  1  1  0  0  0
 11 12  1  0  0  0  0
 12 18  1  0  0  0  0
 13 12  1  0  0  0  0
 13 14  1  0  0  0  0
 14 15  1  0  0  0  0
 15 17  1  0  0  0  0
 15 16  2  0  0  0  0
 17 20  1  0  0  0  0
 18 19  2  0  0  0  0
 18 17  1  0  0  0  0
 20 35  1  0  0  0  0
 20 36  1  0  0  0  0
 20 37  1  0  0  0  0
 21 14  1  0  0  0  0
 21 40  1  0  0  0  0
 22 13  2  0  0  0  0
 23 24  2  0  0  0  0
 25 30  1  0  0  0  0
 25 23  1  0  0  0  0
 26 25  1  0  0  0  0
 27 26  2  0  0  0  0
 28 26  1  0  0  0  0
 28  9  1  0  0  0  0
 29 28  1  0  0  0  0
 30 44  1  0  0  0  0
 30 46  1  0  0  0  0
 32  6  1  0  0  0  0
 33  7  1  0  0  0  0
 38 21  1  0  0  0  0
 39 21  1  0  0  0  0
 41 29  1  0  0  0  0
 42 29  1  0  0  0  0
 43 29  1  0  0  0  0
 45 30  1  0  0  0  0
M  END
>  <Pose>
1

>  <Score>
-4.66

$$$$
