
 OpenBabel03202210083D

 57 60  0  0  0  0  0  0  0  0999 V2000
   57.5530   86.1710   23.0240 Cl  0  0  0  0  0  0  0  0  0  0  0  0
   56.4720   87.2780   22.2120 C   0  0  0  0  0  0  0  0  0  0  0  0
   56.6430   88.6400   22.3160 C   0  0  0  0  0  0  0  0  0  0  0  0
   55.7850   89.4940   21.6730 C   0  0  0  0  0  0  0  0  0  0  0  0
   54.7350   88.9720   20.9080 C   0  0  0  0  0  0  0  0  0  0  0  0
   54.5550   87.6030   20.7980 C   0  0  0  0  0  0  0  0  0  0  0  0
   55.4320   86.7850   21.4550 C   0  0  0  0  0  0  0  0  0  0  0  0
   53.7870   89.6960   20.2010 O   0  0  0  0  0  0  0  0  0  0  0  0
   53.8960   91.0110   19.7100 C   0  0  0  0  0  0  0  0  0  0  0  0
   54.0100   92.0210   20.8050 C   0  0  0  0  0  0  0  0  0  0  0  0
   54.8460   91.6430   21.9040 N   0  0  0  0  0  0  0  0  0  0  0  0
   56.0980   90.9310   21.8790 C   0  0  0  0  0  0  0  0  0  0  0  0
   54.4140   92.0010   23.2260 C   0  0  0  0  0  0  0  0  0  0  0  0
   53.9920   91.0700   23.9560 O   0  0  0  0  0  0  0  0  0  0  0  0
   54.4620   93.3820   23.7040 C   0  0  0  0  0  0  0  0  0  0  0  0
   54.1030   93.6260   25.0520 N   0  0  0  0  0  0  0  0  0  0  0  0
   53.7970   95.0400   25.2880 C   0  0  0  0  0  0  0  0  0  0  0  0
   55.0100   95.8360   24.9840 C   0  0  0  0  0  0  0  0  0  0  0  0
   56.2970   95.3350   25.5500 C   0  0  0  0  0  0  0  0  0  0  0  0
   56.3070   93.9620   26.0960 C   0  0  0  0  0  0  0  0  0  0  0  0
   55.0440   93.1890   26.0540 C   0  0  0  0  0  0  0  0  0  0  0  0
   57.4240   95.5410   24.6080 C   0  0  0  0  0  0  0  0  0  0  0  0
   58.2790   96.4140   24.8590 O   0  0  0  0  0  0  0  0  0  0  0  0
   57.5210   94.7540   23.4400 N   0  0  0  0  0  0  0  0  0  0  0  0
   55.0460   91.0890   18.7180 C   0  0  0  0  0  0  0  0  0  0  0  0
   54.5430   90.8270   17.3090 C   0  0  0  0  0  0  0  0  0  0  0  0
   53.7000   91.8220   16.8550 O   0  0  0  0  0  0  0  0  0  0  0  0
   53.0360   92.4320   17.9130 C   0  0  0  0  0  0  0  0  0  0  0  0
   52.6380   91.3630   18.9110 C   0  0  0  0  0  0  0  0  0  0  0  0
   57.4500   89.0540   22.9020 H   0  0  0  0  0  0  0  0  0  0  0  0
   53.7310   87.2450   20.1990 H   0  0  0  0  0  0  0  0  0  0  0  0
   55.3250   85.7050   21.3940 H   0  0  0  0  0  0  0  0  0  0  0  0
   54.4030   92.9730   20.3630 H   0  0  0  0  0  0  0  0  0  0  0  0
   52.9680   92.2520   21.1480 H   0  0  0  0  0  0  0  0  0  0  0  0
   56.8110   91.3160   21.1240 H   0  0  0  0  0  0  0  0  0  0  0  0
   56.6240   91.0080   22.8610 H   0  0  0  0  0  0  0  0  0  0  0  0
   53.7270   93.9610   23.0670 H   0  0  0  0  0  0  0  0  0  0  0  0
   55.4550   93.8120   23.4060 H   0  0  0  0  0  0  0  0  0  0  0  0
   52.9790   95.3480   24.6390 H   0  0  0  0  0  0  0  0  0  0  0  0
   53.5690   95.1340   26.3750 H   0  0  0  0  0  0  0  0  0  0  0  0
   55.1530   95.9310   23.8700 H   0  0  0  0  0  0  0  0  0  0  0  0
   54.7780   96.8990   25.2920 H   0  0  0  0  0  0  0  0  0  0  0  0
   56.5300   96.0400   26.4100 H   0  0  0  0  0  0  0  0  0  0  0  0
   56.7610   93.9420   27.1330 H   0  0  0  0  0  0  0  0  0  0  0  0
   57.0630   93.3590   25.5030 H   0  0  0  0  0  0  0  0  0  0  0  0
   55.1360   92.1000   26.0110 H   0  0  0  0  0  0  0  0  0  0  0  0
   54.5220   93.3820   27.0410 H   0  0  0  0  0  0  0  0  0  0  0  0
   57.5050   95.2900   22.5230 H   0  0  0  0  0  0  0  0  0  0  0  0
   57.6050   93.7320   23.3960 H   0  0  0  0  0  0  0  0  0  0  0  0
   55.7700   90.2660   18.9370 H   0  0  0  0  0  0  0  0  0  0  0  0
   55.5280   92.0800   18.7200 H   0  0  0  0  0  0  0  0  0  0  0  0
   55.4300   90.8040   16.6380 H   0  0  0  0  0  0  0  0  0  0  0  0
   54.0230   89.8530   17.2610 H   0  0  0  0  0  0  0  0  0  0  0  0
   53.7530   93.1580   18.3630 H   0  0  0  0  0  0  0  0  0  0  0  0
   52.1690   93.0170   17.5570 H   0  0  0  0  0  0  0  0  0  0  0  0
   52.3350   90.4750   18.3160 H   0  0  0  0  0  0  0  0  0  0  0  0
   51.8170   91.6770   19.5690 H   0  0  0  0  0  0  0  0  0  0  0  0
  2  3  1  0  0  0  0
  2  1  1  0  0  0  0
  3 30  1  0  0  0  0
  4 12  1  0  0  0  0
  4  3  2  0  0  0  0
  5  4  1  0  0  0  0
  6  5  2  0  0  0  0
  6  7  1  0  0  0  0
  7  2  2  0  0  0  0
  8  5  1  0  0  0  0
  9  8  1  0  0  0  0
  9 10  1  0  0  0  0
 10 34  1  0  0  0  0
 10 11  1  0  0  0  0
 11 13  1  0  0  0  0
 12 11  1  0  0  0  0
 12 36  1  0  0  0  0
 13 15  1  0  0  0  0
 13 14  2  0  0  0  0
 15 16  1  0  0  0  0
 16 17  1  0  0  0  0
 16 21  1  0  0  0  0
 17 40  1  0  0  0  0
 18 17  1  0  0  0  0
 18 42  1  0  0  0  0
 18 19  1  0  0  0  0
 19 20  1  0  0  0  0
 19 43  1  0  0  0  0
 20 44  1  0  0  0  0
 21 20  1  0  0  0  0
 21 47  1  0  0  0  0
 22 23  2  0  0  0  0
 22 19  1  0  0  0  0
 24 22  1  0  0  0  0
 25 51  1  0  0  0  0
 25 50  1  0  0  0  0
 25  9  1  0  0  0  0
 26 25  1  0  0  0  0
 27 26  1  0  0  0  0
 27 28  1  0  0  0  0
 28 54  1  0  0  0  0
 28 29  1  0  0  0  0
 29 57  1  0  0  0  0
 29  9  1  0  0  0  0
 31  6  1  0  0  0  0
 32  7  1  0  0  0  0
 33 10  1  0  0  0  0
 35 12  1  0  0  0  0
 37 15  1  0  0  0  0
 38 15  1  0  0  0  0
 39 17  1  0  0  0  0
 41 18  1  0  0  0  0
 45 20  1  0  0  0  0
 46 21  1  0  0  0  0
 48 24  1  0  0  0  0
 49 24  1  0  0  0  0
 52 26  1  0  0  0  0
 53 26  1  0  0  0  0
 55 28  1  0  0  0  0
 56 29  1  0  0  0  0
M  END
>  <Pose>
1

>  <Score>
-5.96

$$$$
