
 OpenBabel03202210083D

 43 46  0  0  0  0  0  0  0  0999 V2000
   52.7430   92.1060   18.7990 S   0  0  0  0  0  0  0  0  0  0  0  0
   51.4600   92.8430   18.7300 O   0  0  0  0  0  0  0  0  0  0  0  0
   53.6810   92.6110   17.7260 O   0  0  0  0  0  0  0  0  0  0  0  0
   53.4850   92.3070   20.3070 N   0  0  0  0  0  0  0  0  0  0  0  0
   53.5530   93.6610   20.7640 C   0  0  0  0  0  0  0  0  0  0  0  0
   53.9050   93.7820   22.2230 C   0  0  0  0  0  0  0  0  0  0  0  0
   54.8520   92.7770   22.6460 N   0  0  0  0  0  0  0  0  0  0  0  0
   55.4190   91.7960   21.7590 C   0  0  0  0  0  0  0  0  0  0  0  0
   54.6520   91.5270   20.5210 C   0  0  0  0  0  0  0  0  0  0  0  0
   55.2460   92.7580   24.0110 C   0  0  0  0  0  0  0  0  0  0  0  0
   55.5210   91.6630   24.6050 O   0  0  0  0  0  0  0  0  0  0  0  0
   55.3480   93.9980   24.7810 C   0  0  0  0  0  0  0  0  0  0  0  0
   54.4380   94.3620   25.7530 C   0  0  0  0  0  0  0  0  0  0  0  0
   54.5970   95.5190   26.4230 N   0  0  0  0  0  0  0  0  0  0  0  0
   55.6150   96.3690   26.2000 C   0  0  0  0  0  0  0  0  0  0  0  0
   56.5110   96.0290   25.2560 N   0  0  0  0  0  0  0  0  0  0  0  0
   57.5400   96.8680   25.0190 C   0  0  0  0  0  0  0  0  0  0  0  0
   57.6960   98.0530   25.7090 C   0  0  0  0  0  0  0  0  0  0  0  0
   56.7930   98.4310   26.6850 C   0  0  0  0  0  0  0  0  0  0  0  0
   55.7460   97.5550   26.9120 C   0  0  0  0  0  0  0  0  0  0  0  0
   56.3880   94.8800   24.5640 C   0  0  0  0  0  0  0  0  0  0  0  0
   57.2240   94.5620   23.6830 O   0  0  0  0  0  0  0  0  0  0  0  0
   52.4610   90.3780   18.5300 C   0  0  0  0  0  0  0  0  0  0  0  0
   53.1680   89.0320   19.3010 S   0  0  0  0  0  0  0  0  0  0  0  0
   52.3570   87.7860   18.4660 C   0  0  0  0  0  0  0  0  0  0  0  0
   51.5480   88.4690   17.6000 C   0  0  0  0  0  0  0  0  0  0  0  0
   51.6000   89.8040   17.6300 C   0  0  0  0  0  0  0  0  0  0  0  0
   52.4950   86.0250   18.6440 Cl  0  0  0  0  0  0  0  0  0  0  0  0
   54.3420   94.1860   20.1870 H   0  0  0  0  0  0  0  0  0  0  0  0
   52.5830   94.1480   20.5390 H   0  0  0  0  0  0  0  0  0  0  0  0
   54.2800   94.7890   22.4880 H   0  0  0  0  0  0  0  0  0  0  0  0
   52.9690   93.6190   22.7950 H   0  0  0  0  0  0  0  0  0  0  0  0
   55.4670   90.8350   22.3530 H   0  0  0  0  0  0  0  0  0  0  0  0
   56.4940   92.0360   21.5520 H   0  0  0  0  0  0  0  0  0  0  0  0
   55.3400   91.7110   19.6440 H   0  0  0  0  0  0  0  0  0  0  0  0
   54.3560   90.4410   20.4240 H   0  0  0  0  0  0  0  0  0  0  0  0
   53.6130   93.6860   25.9410 H   0  0  0  0  0  0  0  0  0  0  0  0
   58.2600   96.5870   24.2550 H   0  0  0  0  0  0  0  0  0  0  0  0
   58.5270   98.7290   25.5160 H   0  0  0  0  0  0  0  0  0  0  0  0
   56.8850   99.3520   27.2460 H   0  0  0  0  0  0  0  0  0  0  0  0
   55.0270   97.8300   27.6730 H   0  0  0  0  0  0  0  0  0  0  0  0
   50.8850   87.9070   16.9090 H   0  0  0  0  0  0  0  0  0  0  0  0
   50.9900   90.4700   16.9750 H   0  0  0  0  0  0  0  0  0  0  0  0
  1  4  1  0  0  0  0
  2  1  2  0  0  0  0
  3  1  2  0  0  0  0
  4  9  1  0  0  0  0
  4  5  1  0  0  0  0
  5  6  1  0  0  0  0
  6 31  1  0  0  0  0
  6  7  1  0  0  0  0
  6 32  1  0  0  0  0
  7 10  1  0  0  0  0
  8 33  1  0  0  0  0
  8  7  1  0  0  0  0
  9  8  1  0  0  0  0
 10 11  2  0  0  0  0
 10 12  1  0  0  0  0
 12 13  2  0  0  0  0
 13 37  1  0  0  0  0
 13 14  1  0  0  0  0
 15 14  2  0  0  0  0
 15 20  1  0  0  0  0
 16 15  1  0  0  0  0
 17 16  1  0  0  0  0
 17 18  2  0  0  0  0
 18 19  1  0  0  0  0
 19 20  2  0  0  0  0
 19 40  1  0  0  0  0
 20 41  1  0  0  0  0
 21 12  1  0  0  0  0
 21 16  1  0  0  0  0
 22 21  2  0  0  0  0
 23  1  1  0  0  0  0
 23 24  1  0  0  0  0
 25 28  1  0  0  0  0
 25 24  1  0  0  0  0
 26 27  1  0  0  0  0
 26 25  2  0  0  0  0
 27 23  2  0  0  0  0
 29  5  1  0  0  0  0
 30  5  1  0  0  0  0
 34  8  1  0  0  0  0
 35  9  1  0  0  0  0
 36  9  1  0  0  0  0
 38 17  1  0  0  0  0
 39 18  1  0  0  0  0
 42 26  1  0  0  0  0
 43 27  1  0  0  0  0
M  END
>  <Pose>
1

>  <Score>
-8.09

$$$$
