
 OpenBabel03202210083D

 50 53  0  0  1  0  0  0  0  0999 V2000
   55.5810   89.1990   20.6560 S   0  0  0  0  0  0  0  0  0  0  0  0
   56.8680   88.4890   21.0490 O   0  0  0  0  0  0  0  0  0  0  0  0
   55.8700   89.7360   19.2560 O   0  0  0  0  0  0  0  0  0  0  0  0
   55.2500   90.4820   21.6780 N   0  0  0  0  0  0  0  0  0  0  0  0
   55.3190   91.7770   21.1590 C   0  0  0  0  0  0  0  0  0  0  0  0
   54.7350   92.8330   22.1100 C   0  0  0  0  0  0  0  0  0  0  0  0
   55.0560   92.5450   23.4760 N   0  0  0  0  0  0  0  0  0  0  0  0
   54.9110   91.1820   23.9370 C   0  0  0  0  0  0  0  0  0  0  0  0
   55.7610   90.3240   23.0200 C   0  0  0  0  0  0  0  0  0  0  0  0
   55.4940   93.5620   24.3320 C   0  0  0  0  0  0  0  0  0  0  0  0
   56.4400   94.3170   23.9890 O   0  0  0  0  0  0  0  0  0  0  0  0
   54.8770   93.8040   25.6740 C   0  0  0  0  0  0  0  0  0  0  0  0
   53.5510   94.5250   25.6100 C   0  0  0  0  0  0  0  0  0  0  0  0
   54.3320   95.8310   25.7360 C   0  0  0  0  0  0  0  0  0  0  0  0
   55.4700   95.0130   26.3530 C   0  0  0  0  0  0  0  0  0  0  0  0
   54.3260   87.9920   20.4780 C   0  0  0  0  0  0  0  0  0  0  0  0
   54.5140   86.7280   21.0710 C   0  0  0  0  0  0  0  0  0  0  0  0
   53.5910   85.7190   20.9170 C   0  0  0  0  0  0  0  0  0  0  0  0
   52.4390   85.8760   20.1820 C   0  0  0  0  0  0  0  0  0  0  0  0
   52.2500   87.1070   19.6030 C   0  0  0  0  0  0  0  0  0  0  0  0
   53.1770   88.1490   19.7490 C   0  0  0  0  0  0  0  0  0  0  0  0
   52.8260   89.7080   19.0450 Cl  0  0  0  0  0  0  0  0  0  0  0  0
   51.5310   84.7970   20.0600 N   0  0  0  0  0  0  0  0  0  0  0  0
   51.7610   83.5350   20.6730 C   0  0  0  0  0  0  0  0  0  0  0  0
   50.9020   82.6450   20.8200 O   0  0  0  0  0  0  0  0  0  0  0  0
   53.1430   83.2900   21.1640 C   0  0  2  0  0  0  0  0  0  0  0  0
   53.8020   84.4760   21.5160 O   0  0  0  0  0  0  0  0  0  0  0  0
   53.9680   82.5830   20.1130 C   0  0  0  0  0  0  0  0  0  0  0  0
   54.6700   91.8560   20.2650 H   0  0  0  0  0  0  0  0  0  0  0  0
   56.3420   92.0890   20.9100 H   0  0  0  0  0  0  0  0  0  0  0  0
   55.1560   93.8080   21.8230 H   0  0  0  0  0  0  0  0  0  0  0  0
   53.6320   92.8110   22.0160 H   0  0  0  0  0  0  0  0  0  0  0  0
   55.1760   91.0550   24.9970 H   0  0  0  0  0  0  0  0  0  0  0  0
   53.8380   90.8820   23.7720 H   0  0  0  0  0  0  0  0  0  0  0  0
   56.8130   90.6760   23.0620 H   0  0  0  0  0  0  0  0  0  0  0  0
   55.6800   89.2710   23.3000 H   0  0  0  0  0  0  0  0  0  0  0  0
   54.8550   92.8780   26.2990 H   0  0  0  0  0  0  0  0  0  0  0  0
   52.8920   94.3420   26.4690 H   0  0  0  0  0  0  0  0  0  0  0  0
   53.0210   94.4370   24.6260 H   0  0  0  0  0  0  0  0  0  0  0  0
   54.6010   96.2680   24.7600 H   0  0  0  0  0  0  0  0  0  0  0  0
   53.8760   96.5670   26.4030 H   0  0  0  0  0  0  0  0  0  0  0  0
   55.4230   94.9550   27.4620 H   0  0  0  0  0  0  0  0  0  0  0  0
   56.4670   95.3100   26.0070 H   0  0  0  0  0  0  0  0  0  0  0  0
   55.4110   86.5910   21.6480 H   0  0  0  0  0  0  0  0  0  0  0  0
   51.3620   87.2790   19.0180 H   0  0  0  0  0  0  0  0  0  0  0  0
   50.6560   84.9230   19.4990 H   0  0  0  0  0  0  0  0  0  0  0  0
   53.0750   82.6440   22.0520 H   0  0  0  0  0  0  0  0  0  0  0  0
   53.2650   82.1640   19.3380 H   0  0  0  0  0  0  0  0  0  0  0  0
   54.5480   81.7710   20.5850 H   0  0  0  0  0  0  0  0  0  0  0  0
   54.6280   83.3080   19.6010 H   0  0  0  0  0  0  0  0  0  0  0  0
  1  2  2  0  0  0  0
  1  4  1  0  0  0  0
  3  1  2  0  0  0  0
  4  9  1  0  0  0  0
  5  4  1  0  0  0  0
  5  6  1  0  0  0  0
  6  7  1  0  0  0  0
  7  8  1  0  0  0  0
  7 10  1  0  0  0  0
  8 33  1  0  0  0  0
  9 35  1  0  0  0  0
  9 36  1  0  0  0  0
  9  8  1  0  0  0  0
 10 12  1  0  0  0  0
 11 10  2  0  0  0  0
 12 37  1  0  0  0  0
 12 15  1  0  0  0  0
 13 12  1  0  0  0  0
 13 14  1  0  0  0  0
 13 38  1  0  0  0  0
 14 15  1  0  0  0  0
 14 41  1  0  0  0  0
 15 42  1  0  0  0  0
 16  1  1  0  0  0  0
 16 17  1  0  0  0  0
 17 44  1  0  0  0  0
 18 17  2  0  0  0  0
 18 27  1  0  0  0  0
 19 18  1  0  0  0  0
 20 21  1  0  0  0  0
 20 19  2  0  0  0  0
 21 16  2  0  0  0  0
 22 21  1  0  0  0  0
 23 19  1  0  0  0  0
 23 24  1  0  0  0  0
 24 25  2  0  0  0  0
 24 26  1  0  0  0  0
 26 27  1  0  0  0  0
 26 47  1  1  0  0  0
 28 49  1  0  0  0  0
 28 26  1  0  0  0  0
 29  5  1  0  0  0  0
 30  5  1  0  0  0  0
 31  6  1  0  0  0  0
 32  6  1  0  0  0  0
 34  8  1  0  0  0  0
 39 13  1  0  0  0  0
 40 14  1  0  0  0  0
 43 15  1  0  0  0  0
 45 20  1  0  0  0  0
 46 23  1  0  0  0  0
 48 28  1  0  0  0  0
 50 28  1  0  0  0  0
M  END
>  <Pose>
1

>  <Score>
-6.09

$$$$
