
 OpenBabel03202210083D

 41 44  0  0  0  0  0  0  0  0999 V2000
   50.8720  100.8430   26.5190 B   0  0  0  0  0  0  0  0  0  0  0  0
   51.9030   99.3540   27.1500 C   0  0  0  0  0  0  0  0  0  0  0  0
   53.2180   99.2190   26.7980 C   0  0  0  0  0  0  0  0  0  0  0  0
   53.9560   98.1330   27.2620 C   0  0  0  0  0  0  0  0  0  0  0  0
   53.2970   97.2330   28.0730 C   0  0  0  0  0  0  0  0  0  0  0  0
   51.9860   97.3770   28.4180 C   0  0  0  0  0  0  0  0  0  0  0  0
   51.2400   98.4520   27.9630 C   0  0  0  0  0  0  0  0  0  0  0  0
   54.0690   96.1410   28.5290 O   0  0  0  0  0  0  0  0  0  0  0  0
   53.4700   95.0800   29.2500 C   0  0  0  0  0  0  0  0  0  0  0  0
   55.3350   97.9320   26.8310 C   0  0  0  0  0  0  0  0  0  0  0  0
   55.9120   97.0630   26.0060 N   0  0  0  0  0  0  0  0  0  0  0  0
   57.2560   97.2970   25.9500 C   0  0  0  0  0  0  0  0  0  0  0  0
   57.4680   98.3440   26.7810 N   0  0  0  0  0  0  0  0  0  0  0  0
   56.3390   98.7310   27.3100 N   0  0  0  0  0  0  0  0  0  0  0  0
   57.8540   96.4250   25.1230 N   0  0  0  0  0  0  0  0  0  0  0  0
   56.9350   95.6070   24.6230 C   0  0  0  0  0  0  0  0  0  0  0  0
   55.7090   96.0070   25.1790 C   0  0  0  0  0  0  0  0  0  0  0  0
   54.5910   95.3420   24.8590 N   0  0  0  0  0  0  0  0  0  0  0  0
   54.6950   94.2980   23.9930 C   0  0  0  0  0  0  0  0  0  0  0  0
   53.6190   93.6870   23.7060 O   0  0  0  0  0  0  0  0  0  0  0  0
   55.8300   93.8820   23.4370 N   0  0  0  0  0  0  0  0  0  0  0  0
   56.9460   94.5400   23.7560 C   0  0  0  0  0  0  0  0  0  0  0  0
   58.0470   94.1880   23.2590 O   0  0  0  0  0  0  0  0  0  0  0  0
   55.8560   92.7400   22.5060 C   0  0  0  0  0  0  0  0  0  0  0  0
   53.3130   95.6720   25.4190 C   0  0  0  0  0  0  0  0  0  0  0  0
   59.2670   96.3650   24.8090 C   0  0  0  0  0  0  0  0  0  0  0  0
   53.7140   99.9380   26.1600 H   0  0  0  0  0  0  0  0  0  0  0  0
   51.5160   96.6270   29.0660 H   0  0  0  0  0  0  0  0  0  0  0  0
   50.2010   98.5670   28.2360 H   0  0  0  0  0  0  0  0  0  0  0  0
   54.3050   94.4910   29.6970 H   0  0  0  0  0  0  0  0  0  0  0  0
   52.8190   95.4380   30.0620 H   0  0  0  0  0  0  0  0  0  0  0  0
   52.8830   94.4030   28.6240 H   0  0  0  0  0  0  0  0  0  0  0  0
   55.7780   91.7840   23.0250 H   0  0  0  0  0  0  0  0  0  0  0  0
   54.9710   92.8790   21.8250 H   0  0  0  0  0  0  0  0  0  0  0  0
   56.7420   92.8580   21.8720 H   0  0  0  0  0  0  0  0  0  0  0  0
   52.6090   94.8030   25.1300 H   0  0  0  0  0  0  0  0  0  0  0  0
   52.8290   96.5290   24.9690 H   0  0  0  0  0  0  0  0  0  0  0  0
   53.3410   95.5940   26.4980 H   0  0  0  0  0  0  0  0  0  0  0  0
   59.5880   95.2970   24.7320 H   0  0  0  0  0  0  0  0  0  0  0  0
   59.4170   96.8540   23.8250 H   0  0  0  0  0  0  0  0  0  0  0  0
   59.8950   96.8060   25.6120 H   0  0  0  0  0  0  0  0  0  0  0  0
  1  2  1  0  0  0  0
  2  7  1  0  0  0  0
  3  2  2  0  0  0  0
  3  4  1  0  0  0  0
  4  5  2  0  0  0  0
  5  6  1  0  0  0  0
  5  8  1  0  0  0  0
  6 28  1  0  0  0  0
  7 29  1  0  0  0  0
  7  6  2  0  0  0  0
  8  9  1  0  0  0  0
  9 30  1  0  0  0  0
  9 31  1  0  0  0  0
 10  4  1  0  0  0  0
 10 14  2  0  0  0  0
 11 10  1  0  0  0  0
 12 11  1  0  0  0  0
 12 13  2  0  0  0  0
 13 14  1  0  0  0  0
 15 12  1  0  0  0  0
 16 15  1  0  0  0  0
 16 17  2  0  0  0  0
 17 11  1  0  0  0  0
 18 17  1  0  0  0  0
 18 25  1  0  0  0  0
 19 18  1  0  0  0  0
 20 19  2  0  0  0  0
 21 22  1  0  0  0  0
 21 19  1  0  0  0  0
 22 16  1  0  0  0  0
 23 22  2  0  0  0  0
 24 33  1  0  0  0  0
 24 21  1  0  0  0  0
 25 38  1  0  0  0  0
 26 15  1  0  0  0  0
 26 41  1  0  0  0  0
 27  3  1  0  0  0  0
 32  9  1  0  0  0  0
 34 24  1  0  0  0  0
 35 24  1  0  0  0  0
 36 25  1  0  0  0  0
 37 25  1  0  0  0  0
 39 26  1  0  0  0  0
 40 26  1  0  0  0  0
M  END
>  <Pose>
1

>  <Score>
-5.45

$$$$
