
 OpenBabel03202210083D

 40 43  0  0  0  0  0  0  0  0999 V2000
   55.9980   97.5670   26.7400 Cl  0  0  0  0  0  0  0  0  0  0  0  0
   55.5840   96.1550   25.7830 C   0  0  0  0  0  0  0  0  0  0  0  0
   56.4980   95.5250   24.9600 C   0  0  0  0  0  0  0  0  0  0  0  0
   56.1670   94.4330   24.2230 N   0  0  0  0  0  0  0  0  0  0  0  0
   54.9360   93.8930   24.2440 C   0  0  0  0  0  0  0  0  0  0  0  0
   54.5980   92.8120   23.5170 N   0  0  0  0  0  0  0  0  0  0  0  0
   55.4810   92.1930   22.7130 C   0  0  0  0  0  0  0  0  0  0  0  0
   56.7620   92.7460   22.6850 C   0  0  0  0  0  0  0  0  0  0  0  0
   57.0970   93.8540   23.4340 C   0  0  0  0  0  0  0  0  0  0  0  0
   58.2670   94.3550   23.4040 O   0  0  0  0  0  0  0  0  0  0  0  0
   55.1560   90.9980   21.8930 C   0  0  0  0  0  0  0  0  0  0  0  0
   54.9220   91.3980   20.5550 N   0  0  0  0  0  0  0  0  0  0  0  0
   53.8860   92.3300   20.3150 C   0  0  0  0  0  0  0  0  0  0  0  0
   53.2330   92.2030   18.9470 C   0  0  0  0  0  0  0  0  0  0  0  0
   52.9000   90.7630   18.7860 C   0  0  0  0  0  0  0  0  0  0  0  0
   53.9110   89.8760   19.0900 C   0  0  0  0  0  0  0  0  0  0  0  0
   53.6570   88.5650   18.9610 N   0  0  0  0  0  0  0  0  0  0  0  0
   52.4280   88.1340   18.5400 C   0  0  0  0  0  0  0  0  0  0  0  0
   51.4600   89.0360   18.2510 N   0  0  0  0  0  0  0  0  0  0  0  0
   51.6520   90.3690   18.3600 C   0  0  0  0  0  0  0  0  0  0  0  0
   52.1350   86.6850   18.3940 C   0  0  0  0  0  0  0  0  0  0  0  0
   55.2060   90.4440   19.5370 C   0  0  0  0  0  0  0  0  0  0  0  0
   53.9970   94.5070   25.0630 C   0  0  0  0  0  0  0  0  0  0  0  0
   54.3150   95.6170   25.8200 C   0  0  0  0  0  0  0  0  0  0  0  0
   57.5060   95.9430   24.9230 H   0  0  0  0  0  0  0  0  0  0  0  0
   57.4950   92.2760   22.0520 H   0  0  0  0  0  0  0  0  0  0  0  0
   56.0410   90.3230   21.9510 H   0  0  0  0  0  0  0  0  0  0  0  0
   54.2790   90.5090   22.3460 H   0  0  0  0  0  0  0  0  0  0  0  0
   54.1850   93.3900   20.4580 H   0  0  0  0  0  0  0  0  0  0  0  0
   53.0470   92.1200   21.0410 H   0  0  0  0  0  0  0  0  0  0  0  0
   54.0320   92.4810   18.2020 H   0  0  0  0  0  0  0  0  0  0  0  0
   52.3530   92.8380   18.8840 H   0  0  0  0  0  0  0  0  0  0  0  0
   50.8580   91.0620   18.1210 H   0  0  0  0  0  0  0  0  0  0  0  0
   53.0980   86.1430   18.3390 H   0  0  0  0  0  0  0  0  0  0  0  0
   51.5910   86.3770   19.3240 H   0  0  0  0  0  0  0  0  0  0  0  0
   51.5350   86.4850   17.4850 H   0  0  0  0  0  0  0  0  0  0  0  0
   55.7720   90.8730   18.6730 H   0  0  0  0  0  0  0  0  0  0  0  0
   55.8350   89.6420   19.9780 H   0  0  0  0  0  0  0  0  0  0  0  0
   52.9940   94.0760   25.0870 H   0  0  0  0  0  0  0  0  0  0  0  0
   53.5690   96.0940   26.4620 H   0  0  0  0  0  0  0  0  0  0  0  0
  2 24  2  0  0  0  0
  2  1  1  0  0  0  0
  3  2  1  0  0  0  0
  4  5  1  0  0  0  0
  4  3  1  0  0  0  0
  5 23  2  0  0  0  0
  6  5  1  0  0  0  0
  7  6  2  0  0  0  0
  8  7  1  0  0  0  0
  8  9  1  0  0  0  0
  9  4  1  0  0  0  0
 10  9  2  0  0  0  0
 11 27  1  0  0  0  0
 11 28  1  0  0  0  0
 11  7  1  0  0  0  0
 12 11  1  0  0  0  0
 13 29  1  0  0  0  0
 13 12  1  0  0  0  0
 13 30  1  0  0  0  0
 14 13  1  0  0  0  0
 15 14  1  0  0  0  0
 15 16  2  0  0  0  0
 16 22  1  0  0  0  0
 17 16  1  0  0  0  0
 18 17  2  0  0  0  0
 19 20  2  0  0  0  0
 19 18  1  0  0  0  0
 20 15  1  0  0  0  0
 21 18  1  0  0  0  0
 21 35  1  0  0  0  0
 22 38  1  0  0  0  0
 22 12  1  0  0  0  0
 23 39  1  0  0  0  0
 23 24  1  0  0  0  0
 24 40  1  0  0  0  0
 25  3  1  0  0  0  0
 26  8  1  0  0  0  0
 31 14  1  0  0  0  0
 32 14  1  0  0  0  0
 33 20  1  0  0  0  0
 34 21  1  0  0  0  0
 36 21  1  0  0  0  0
 37 22  1  0  0  0  0
M  END
>  <Pose>
1

>  <Score>
-5.85

$$$$
