
 OpenBabel03202210083D

 35 37  0  0  1  0  0  0  0  0999 V2000
   51.9790   97.3730   27.5920 B   0  0  0  0  0  0  0  0  0  0  0  0
   53.7700   97.3080   26.9550 C   0  0  0  0  0  0  0  0  0  0  0  0
   54.1100   96.4440   25.9120 C   0  0  0  0  0  0  0  0  0  0  0  0
   55.4200   96.3830   25.4180 C   0  0  0  0  0  0  0  0  0  0  0  0
   56.3350   97.2220   26.0280 C   0  0  0  0  0  0  0  0  0  0  0  0
   55.9780   98.0720   27.0600 C   0  0  0  0  0  0  0  0  0  0  0  0
   54.6960   98.1180   27.5310 C   0  0  0  0  0  0  0  0  0  0  0  0
   57.6100   97.1430   25.5420 O   0  0  0  0  0  0  0  0  0  0  0  0
   58.0900   98.1310   24.6720 C   0  0  0  0  0  0  0  0  0  0  0  0
   55.6480   95.5190   24.2650 C   0  0  2  0  0  0  0  0  0  0  0  0
   54.3220   94.7150   24.1720 C   0  0  2  0  0  0  0  0  0  0  0  0
   54.2350   94.2930   25.6520 C   0  0  0  0  0  0  0  0  0  0  0  0
   53.2310   94.4070   26.3310 O   0  0  0  0  0  0  0  0  0  0  0  0
   55.4980   93.7520   26.1010 N   0  0  0  0  0  0  0  0  0  0  0  0
   56.3830   93.3090   25.0070 C   0  0  1  0  0  0  0  0  0  0  0  0
   55.4810   92.5380   24.1400 N   0  0  0  0  0  0  0  0  0  0  0  0
   54.5050   93.3890   23.5060 C   0  0  0  0  0  0  0  0  0  0  0  0
   53.8610   93.0630   22.4920 O   0  0  0  0  0  0  0  0  0  0  0  0
   56.7300   94.5810   24.1880 C   0  0  0  0  0  0  0  0  0  0  0  0
   57.5830   92.5750   25.4170 C   0  0  0  0  0  0  0  0  0  0  0  0
   53.2960   95.8550   25.5300 H   0  0  0  0  0  0  0  0  0  0  0  0
   56.7610   98.6830   27.4640 H   0  0  0  0  0  0  0  0  0  0  0  0
   54.4990   98.8210   28.3610 H   0  0  0  0  0  0  0  0  0  0  0  0
   57.3670   98.3360   23.8670 H   0  0  0  0  0  0  0  0  0  0  0  0
   58.1190   99.0760   25.3120 H   0  0  0  0  0  0  0  0  0  0  0  0
   59.1120   97.9490   24.3150 H   0  0  0  0  0  0  0  0  0  0  0  0
   55.5910   96.1780   23.3600 H   0  0  0  0  0  0  0  0  0  0  0  0
   53.4770   95.2440   23.8300 H   0  0  0  0  0  0  0  0  0  0  0  0
   55.7780   93.6930   27.0830 H   0  0  0  0  0  0  0  0  0  0  0  0
   55.5490   91.5210   24.0160 H   0  0  0  0  0  0  0  0  0  0  0  0
   56.7650   94.1960   23.1180 H   0  0  0  0  0  0  0  0  0  0  0  0
   57.7550   94.9130   24.3300 H   0  0  0  0  0  0  0  0  0  0  0  0
   57.7420   91.7460   24.6450 H   0  0  0  0  0  0  0  0  0  0  0  0
   58.5140   93.1660   25.4500 H   0  0  0  0  0  0  0  0  0  0  0  0
   57.4600   92.0870   26.3790 H   0  0  0  0  0  0  0  0  0  0  0  0
  2  7  1  0  0  0  0
  2  1  1  0  0  0  0
  3  2  2  0  0  0  0
  4  3  1  0  0  0  0
  4  5  2  0  0  0  0
  5  6  1  0  0  0  0
  6 22  1  0  0  0  0
  6  7  2  0  0  0  0
  7 23  1  0  0  0  0
  8  5  1  0  0  0  0
  9 25  1  0  0  0  0
  9  8  1  0  0  0  0
 10 27  1  6  0  0  0
 10  4  1  0  0  0  0
 11 28  1  6  0  0  0
 11 10  1  0  0  0  0
 11 12  1  0  0  0  0
 12 14  1  0  0  0  0
 12 13  2  0  0  0  0
 14 29  1  0  0  0  0
 15 20  1  1  0  0  0
 15 14  1  0  0  0  0
 16 15  1  0  0  0  0
 17 16  1  0  0  0  0
 17 11  1  0  0  0  0
 18 17  2  0  0  0  0
 19 10  1  0  0  0  0
 19 32  1  0  0  0  0
 19 15  1  0  0  0  0
 20 34  1  0  0  0  0
 20 35  1  0  0  0  0
 21  3  1  0  0  0  0
 24  9  1  0  0  0  0
 26  9  1  0  0  0  0
 30 16  1  0  0  0  0
 31 19  1  0  0  0  0
 33 20  1  0  0  0  0
M  END
>  <Pose>
1

>  <Score>
-4.19

$$$$
