
 OpenBabel03202210083D

 50 53  0  0  1  0  0  0  0  0999 V2000
   51.5950   88.5340   17.8390 Cl  0  0  0  0  0  0  0  0  0  0  0  0
   52.2890   87.4110   19.0050 C   0  0  0  0  0  0  0  0  0  0  0  0
   53.4430   87.8120   19.7040 C   0  0  0  0  0  0  0  0  0  0  0  0
   53.9730   86.9420   20.6090 C   0  0  0  0  0  0  0  0  0  0  0  0
   53.4130   85.6940   20.8440 C   0  0  0  0  0  0  0  0  0  0  0  0
   52.2850   85.3300   20.1440 C   0  0  0  0  0  0  0  0  0  0  0  0
   51.7140   86.1790   19.2230 C   0  0  0  0  0  0  0  0  0  0  0  0
   51.6980   83.9710   20.4170 C   0  0  0  0  0  0  0  0  0  0  0  0
   55.0970   87.6520   21.2940 C   0  0  2  0  0  0  0  0  0  0  0  0
   56.2130   86.8500   21.6020 N   0  0  0  0  0  0  0  0  0  0  0  0
   55.9760   86.2920   22.9030 C   0  0  2  0  0  0  0  0  0  0  0  0
   54.8070   86.9540   23.5100 C   0  0  2  0  0  0  0  0  0  0  0  0
   54.6590   88.1900   22.6200 C   0  0  1  0  0  0  0  0  0  0  0  0
   55.6190   89.0890   23.2350 C   0  0  0  0  0  0  0  0  0  0  0  0
   56.4250   89.9300   22.7800 O   0  0  0  0  0  0  0  0  0  0  0  0
   55.4970   88.8400   24.6600 N   0  0  0  0  0  0  0  0  0  0  0  0
   54.9690   87.5340   24.8380 C   0  0  0  0  0  0  0  0  0  0  0  0
   54.7060   87.0120   25.9300 O   0  0  0  0  0  0  0  0  0  0  0  0
   55.8240   89.7260   25.7460 C   0  0  0  0  0  0  0  0  0  0  0  0
   54.7720   90.7020   26.1200 C   0  0  0  0  0  0  0  0  0  0  0  0
   55.0960   91.6760   27.0160 O   0  0  0  0  0  0  0  0  0  0  0  0
   55.0400   92.9660   26.5300 C   0  0  0  0  0  0  0  0  0  0  0  0
   57.2320   86.2650   23.7530 C   0  0  1  0  0  0  0  0  0  0  0  0
   57.1340   85.5520   24.9110 O   0  0  0  0  0  0  0  0  0  0  0  0
   58.4090   85.9640   22.8850 C   0  0  0  0  0  0  0  0  0  0  0  0
   55.3710   88.7820   20.4090 C   0  0  0  0  0  0  0  0  0  0  0  0
   56.3810   89.5490   20.3170 O   0  0  0  0  0  0  0  0  0  0  0  0
   54.2650   88.9630   19.5550 N   0  0  0  0  0  0  0  0  0  0  0  0
   53.8150   84.9680   21.5500 H   0  0  0  0  0  0  0  0  0  0  0  0
   50.8160   85.8620   18.6830 H   0  0  0  0  0  0  0  0  0  0  0  0
   51.6790   83.8160   21.5150 H   0  0  0  0  0  0  0  0  0  0  0  0
   52.3780   83.1670   20.0120 H   0  0  0  0  0  0  0  0  0  0  0  0
   50.6840   83.8780   20.0210 H   0  0  0  0  0  0  0  0  0  0  0  0
   56.3940   86.1030   20.8880 H   0  0  0  0  0  0  0  0  0  0  0  0
   55.7280   85.1880   22.7950 H   0  0  0  0  0  0  0  0  0  0  0  0
   53.8390   86.4090   23.3900 H   0  0  0  0  0  0  0  0  0  0  0  0
   53.6140   88.5560   22.6230 H   0  0  0  0  0  0  0  0  0  0  0  0
   56.0550   89.1190   26.6520 H   0  0  0  0  0  0  0  0  0  0  0  0
   56.7790   90.2510   25.4980 H   0  0  0  0  0  0  0  0  0  0  0  0
   53.9240   90.1100   26.5710 H   0  0  0  0  0  0  0  0  0  0  0  0
   54.3140   91.1560   25.2080 H   0  0  0  0  0  0  0  0  0  0  0  0
   54.0500   93.2430   26.1630 H   0  0  0  0  0  0  0  0  0  0  0  0
   55.3120   93.6490   27.3640 H   0  0  0  0  0  0  0  0  0  0  0  0
   55.7960   93.0370   25.7030 H   0  0  0  0  0  0  0  0  0  0  0  0
   57.3400   87.3520   24.0850 H   0  0  0  0  0  0  0  0  0  0  0  0
   57.8580   85.7250   25.5660 H   0  0  0  0  0  0  0  0  0  0  0  0
   59.1600   86.8090   22.9740 H   0  0  0  0  0  0  0  0  0  0  0  0
   58.9860   85.0760   23.2240 H   0  0  0  0  0  0  0  0  0  0  0  0
   58.0940   85.9330   21.8360 H   0  0  0  0  0  0  0  0  0  0  0  0
   54.0350   89.7630   18.9130 H   0  0  0  0  0  0  0  0  0  0  0  0
  1  2  1  0  0  0  0
  2  7  2  0  0  0  0
  2  3  1  0  0  0  0
  3  4  2  0  0  0  0
  4  5  1  0  0  0  0
  4  9  1  0  0  0  0
  5 29  1  0  0  0  0
  6  8  1  0  0  0  0
  6  5  2  0  0  0  0
  7  6  1  0  0  0  0
  8 31  1  0  0  0  0
  9 26  1  6  0  0  0
  9 10  1  0  0  0  0
  9 13  1  0  0  0  0
 10 11  1  0  0  0  0
 11 35  1  6  0  0  0
 11 12  1  0  0  0  0
 11 23  1  0  0  0  0
 12 36  1  6  0  0  0
 12 17  1  0  0  0  0
 13 37  1  6  0  0  0
 13 14  1  0  0  0  0
 13 12  1  0  0  0  0
 14 16  1  0  0  0  0
 15 14  2  0  0  0  0
 16 17  1  0  0  0  0
 16 19  1  0  0  0  0
 17 18  2  0  0  0  0
 19 20  1  0  0  0  0
 19 38  1  0  0  0  0
 20 40  1  0  0  0  0
 20 21  1  0  0  0  0
 22 21  1  0  0  0  0
 22 43  1  0  0  0  0
 23 45  1  1  0  0  0
 23 24  1  0  0  0  0
 24 46  1  0  0  0  0
 25 47  1  0  0  0  0
 25 48  1  0  0  0  0
 25 23  1  0  0  0  0
 27 26  2  0  0  0  0
 28  3  1  0  0  0  0
 28 26  1  0  0  0  0
 30  7  1  0  0  0  0
 32  8  1  0  0  0  0
 33  8  1  0  0  0  0
 34 10  1  0  0  0  0
 39 19  1  0  0  0  0
 41 20  1  0  0  0  0
 42 22  1  0  0  0  0
 44 22  1  0  0  0  0
 49 25  1  0  0  0  0
 50 28  1  0  0  0  0
M  END
>  <Pose>
1

>  <Score>
-5.27

$$$$
