
 OpenBabel03202210083D

 49 52  0  0  0  0  0  0  0  0999 V2000
   55.5110   87.1730   21.9120 S   0  0  0  0  0  0  0  0  0  0  0  0
   56.0690   85.9240   21.2440 O   0  0  0  0  0  0  0  0  0  0  0  0
   54.2050   86.7150   22.5520 O   0  0  0  0  0  0  0  0  0  0  0  0
   56.5690   87.6140   23.1400 N   0  0  0  0  0  0  0  0  0  0  0  0
   57.4820   86.5850   23.5720 C   0  0  0  0  0  0  0  0  0  0  0  0
   57.2730   86.3740   25.0700 C   0  0  0  0  0  0  0  0  0  0  0  0
   55.8900   86.3990   25.3630 N   0  0  0  0  0  0  0  0  0  0  0  0
   55.3660   87.8360   25.3050 C   0  0  0  0  0  0  0  0  0  0  0  0
   56.0720   88.4640   24.1570 C   0  0  0  0  0  0  0  0  0  0  0  0
   54.9850   85.4120   25.6220 C   0  0  0  0  0  0  0  0  0  0  0  0
   54.9500   84.5290   24.5650 O   0  0  0  0  0  0  0  0  0  0  0  0
   54.0690   84.9900   26.6080 C   0  0  0  0  0  0  0  0  0  0  0  0
   52.8280   85.1090   26.9480 C   0  0  0  0  0  0  0  0  0  0  0  0
   51.8940   85.8830   26.2430 N   0  0  0  0  0  0  0  0  0  0  0  0
   50.5210   85.9780   26.5630 N   0  0  0  0  0  0  0  0  0  0  0  0
   50.0310   85.2610   27.6590 C   0  0  0  0  0  0  0  0  0  0  0  0
   48.8100   85.3370   27.9570 O   0  0  0  0  0  0  0  0  0  0  0  0
   50.9660   84.4320   28.4400 C   0  0  0  0  0  0  0  0  0  0  0  0
   52.3080   84.3430   28.1200 C   0  0  0  0  0  0  0  0  0  0  0  0
   53.1000   83.5550   28.8920 C   0  0  0  0  0  0  0  0  0  0  0  0
   52.5520   82.8610   29.9760 C   0  0  0  0  0  0  0  0  0  0  0  0
   51.2210   82.9460   30.2990 C   0  0  0  0  0  0  0  0  0  0  0  0
   50.4210   83.7470   29.5120 C   0  0  0  0  0  0  0  0  0  0  0  0
   55.1360   88.4010   20.7690 C   0  0  0  0  0  0  0  0  0  0  0  0
   54.0060   88.3370   19.9930 C   0  0  0  0  0  0  0  0  0  0  0  0
   53.7250   89.3370   19.0800 C   0  0  0  0  0  0  0  0  0  0  0  0
   54.5560   90.4220   18.9100 C   0  0  0  0  0  0  0  0  0  0  0  0
   55.6990   90.4930   19.6900 C   0  0  0  0  0  0  0  0  0  0  0  0
   55.9690   89.4790   20.6060 C   0  0  0  0  0  0  0  0  0  0  0  0
   54.1550   91.6620   17.7380 Cl  0  0  0  0  0  0  0  0  0  0  0  0
   57.4140   85.6490   23.0050 H   0  0  0  0  0  0  0  0  0  0  0  0
   58.5110   86.9770   23.4520 H   0  0  0  0  0  0  0  0  0  0  0  0
   57.7290   87.3420   25.5200 H   0  0  0  0  0  0  0  0  0  0  0  0
   57.8620   85.5930   25.5130 H   0  0  0  0  0  0  0  0  0  0  0  0
   55.6990   88.2480   26.2730 H   0  0  0  0  0  0  0  0  0  0  0  0
   54.2690   87.8090   25.2460 H   0  0  0  0  0  0  0  0  0  0  0  0
   56.9520   89.0360   24.5760 H   0  0  0  0  0  0  0  0  0  0  0  0
   55.4500   89.2470   23.6650 H   0  0  0  0  0  0  0  0  0  0  0  0
   54.6230   84.3060   27.3690 H   0  0  0  0  0  0  0  0  0  0  0  0
   52.1840   86.4670   25.4560 H   0  0  0  0  0  0  0  0  0  0  0  0
   49.9100   86.5970   25.9520 H   0  0  0  0  0  0  0  0  0  0  0  0
   54.1530   83.4400   28.7010 H   0  0  0  0  0  0  0  0  0  0  0  0
   53.2150   82.2510   30.5580 H   0  0  0  0  0  0  0  0  0  0  0  0
   50.7810   82.4140   31.1370 H   0  0  0  0  0  0  0  0  0  0  0  0
   49.3500   83.8540   29.7210 H   0  0  0  0  0  0  0  0  0  0  0  0
   53.2900   87.5260   20.0510 H   0  0  0  0  0  0  0  0  0  0  0  0
   52.8270   89.3030   18.4510 H   0  0  0  0  0  0  0  0  0  0  0  0
   56.3630   91.3450   19.5660 H   0  0  0  0  0  0  0  0  0  0  0  0
   56.8940   89.6160   21.1810 H   0  0  0  0  0  0  0  0  0  0  0  0
  1  3  2  0  0  0  0
  1  4  1  0  0  0  0
  2  1  2  0  0  0  0
  4  5  1  0  0  0  0
  4  9  1  0  0  0  0
  5  6  1  0  0  0  0
  6  7  1  0  0  0  0
  6 34  1  0  0  0  0
  6 33  1  0  0  0  0
  7 10  1  0  0  0  0
  8  7  1  0  0  0  0
  8 35  1  0  0  0  0
  9 37  1  0  0  0  0
  9  8  1  0  0  0  0
 10 12  1  0  0  0  0
 11 10  2  0  0  0  0
 12 13  2  0  0  0  0
 12 39  1  0  0  0  0
 13 19  1  0  0  0  0
 14 15  1  0  0  0  0
 14 13  1  0  0  0  0
 15 16  1  0  0  0  0
 16 17  2  0  0  0  0
 16 18  1  0  0  0  0
 18 23  1  0  0  0  0
 19 18  2  0  0  0  0
 19 20  1  0  0  0  0
 20 21  2  0  0  0  0
 21 22  1  0  0  0  0
 21 43  1  0  0  0  0
 22 44  1  0  0  0  0
 23 45  1  0  0  0  0
 23 22  2  0  0  0  0
 24  1  1  0  0  0  0
 25 46  1  0  0  0  0
 25 24  2  0  0  0  0
 26 25  1  0  0  0  0
 27 26  2  0  0  0  0
 27 28  1  0  0  0  0
 28 29  2  0  0  0  0
 29 24  1  0  0  0  0
 29 49  1  0  0  0  0
 30 27  1  0  0  0  0
 31  5  1  0  0  0  0
 32  5  1  0  0  0  0
 36  8  1  0  0  0  0
 38  9  1  0  0  0  0
 40 14  1  0  0  0  0
 41 15  1  0  0  0  0
 42 20  1  0  0  0  0
 47 26  1  0  0  0  0
 48 28  1  0  0  0  0
M  END
>  <Pose>
1

>  <Score>
-7.93

$$$$
