
 OpenBabel03202210083D

 44 47  0  0  0  0  0  0  0  0999 V2000
   50.0560   97.5170   27.5990 Cl  0  0  0  0  0  0  0  0  0  0  0  0
   51.7790   97.5370   27.3800 C   0  0  0  0  0  0  0  0  0  0  0  0
   52.4380   98.6910   27.0390 C   0  0  0  0  0  0  0  0  0  0  0  0
   53.8040   98.6410   26.8790 C   0  0  0  0  0  0  0  0  0  0  0  0
   54.5460   97.4920   27.0430 C   0  0  0  0  0  0  0  0  0  0  0  0
   53.8680   96.3440   27.3840 C   0  0  0  0  0  0  0  0  0  0  0  0
   52.5000   96.3830   27.5470 C   0  0  0  0  0  0  0  0  0  0  0  0
   55.9850   97.4700   26.8680 N   0  0  0  0  0  0  0  0  0  0  0  0
   56.4580   97.3750   25.5310 C   0  0  0  0  0  0  0  0  0  0  0  0
   57.0160   96.1040   25.0800 C   0  0  0  0  0  0  0  0  0  0  0  0
   58.2900   96.1940   24.7830 O   0  0  0  0  0  0  0  0  0  0  0  0
   56.4620   94.8590   24.9150 N   0  0  0  0  0  0  0  0  0  0  0  0
   55.6590   94.1570   25.8640 C   0  0  0  0  0  0  0  0  0  0  0  0
   54.3040   93.8650   25.2250 C   0  0  0  0  0  0  0  0  0  0  0  0
   54.5960   93.0000   24.1470 O   0  0  0  0  0  0  0  0  0  0  0  0
   55.2440   93.7280   23.1730 C   0  0  0  0  0  0  0  0  0  0  0  0
   56.6470   94.1350   23.6380 C   0  0  0  0  0  0  0  0  0  0  0  0
   51.7710   99.9120   26.8400 N   0  0  0  0  0  0  0  0  0  0  0  0
   51.8810  100.6570   25.7590 N   0  0  0  0  0  0  0  0  0  0  0  0
   51.1250  101.7330   25.8700 N   0  0  0  0  0  0  0  0  0  0  0  0
   50.5340  101.6520   27.0450 N   0  0  0  0  0  0  0  0  0  0  0  0
   50.9290  100.5050   27.6760 C   0  0  0  0  0  0  0  0  0  0  0  0
   50.4520  100.1370   29.0080 C   0  0  0  0  0  0  0  0  0  0  0  0
   49.7230  101.0080   29.9220 C   0  0  0  0  0  0  0  0  0  0  0  0
   48.9070   99.9770   29.1230 C   0  0  0  0  0  0  0  0  0  0  0  0
   54.3580   99.5580   26.6040 H   0  0  0  0  0  0  0  0  0  0  0  0
   54.4570   95.4390   27.5130 H   0  0  0  0  0  0  0  0  0  0  0  0
   52.0110   95.4370   27.8190 H   0  0  0  0  0  0  0  0  0  0  0  0
   56.6200   97.5210   27.6700 H   0  0  0  0  0  0  0  0  0  0  0  0
   57.2940   98.1360   25.4330 H   0  0  0  0  0  0  0  0  0  0  0  0
   55.6980   97.7650   24.7940 H   0  0  0  0  0  0  0  0  0  0  0  0
   56.1380   93.1040   25.9020 H   0  0  0  0  0  0  0  0  0  0  0  0
   55.6250   94.5180   26.8780 H   0  0  0  0  0  0  0  0  0  0  0  0
   53.6400   93.4090   25.9600 H   0  0  0  0  0  0  0  0  0  0  0  0
   53.8300   94.7410   24.7860 H   0  0  0  0  0  0  0  0  0  0  0  0
   54.6470   94.6280   22.9260 H   0  0  0  0  0  0  0  0  0  0  0  0
   55.3390   93.1380   22.2530 H   0  0  0  0  0  0  0  0  0  0  0  0
   57.1360   94.7440   22.8820 H   0  0  0  0  0  0  0  0  0  0  0  0
   57.1690   93.1960   23.9080 H   0  0  0  0  0  0  0  0  0  0  0  0
   50.9480   99.2350   29.4920 H   0  0  0  0  0  0  0  0  0  0  0  0
   49.8290  100.8150   31.0330 H   0  0  0  0  0  0  0  0  0  0  0  0
   49.3730  102.0200   29.7360 H   0  0  0  0  0  0  0  0  0  0  0  0
   48.5140   99.1600   29.7410 H   0  0  0  0  0  0  0  0  0  0  0  0
   48.3000  100.2980   28.2800 H   0  0  0  0  0  0  0  0  0  0  0  0
  2  7  1  0  0  0  0
  2  1  1  0  0  0  0
  3  2  2  0  0  0  0
  4  3  1  0  0  0  0
  4  5  2  0  0  0  0
  5  6  1  0  0  0  0
  6 27  1  0  0  0  0
  6  7  2  0  0  0  0
  7 28  1  0  0  0  0
  8  5  1  0  0  0  0
  8 29  1  0  0  0  0
  9  8  1  0  0  0  0
 10  9  1  0  0  0  0
 11 10  2  0  0  0  0
 12 10  1  0  0  0  0
 12 13  1  0  0  0  0
 13 32  1  0  0  0  0
 13 33  1  0  0  0  0
 14 13  1  0  0  0  0
 14 34  1  0  0  0  0
 15 14  1  0  0  0  0
 16 17  1  0  0  0  0
 16 15  1  0  0  0  0
 17 39  1  0  0  0  0
 17 12  1  0  0  0  0
 18  3  1  0  0  0  0
 18 22  1  0  0  0  0
 19 20  2  0  0  0  0
 19 18  1  0  0  0  0
 20 21  1  0  0  0  0
 21 22  2  0  0  0  0
 22 23  1  0  0  0  0
 23 25  1  0  0  0  0
 23 40  1  0  0  0  0
 23 24  1  0  0  0  0
 24 41  1  0  0  0  0
 25 43  1  0  0  0  0
 25 24  1  0  0  0  0
 26  4  1  0  0  0  0
 30  9  1  0  0  0  0
 31  9  1  0  0  0  0
 35 14  1  0  0  0  0
 36 16  1  0  0  0  0
 37 16  1  0  0  0  0
 38 17  1  0  0  0  0
 42 24  1  0  0  0  0
 44 25  1  0  0  0  0
M  END
>  <Pose>
1

>  <Score>
-7.08

$$$$
