
 OpenBabel03202210083D

 49 52  0  0  1  0  0  0  0  0999 V2000
   54.3500   81.7440   30.2030 B   0  0  0  0  0  0  0  0  0  0  0  0
   54.4620   82.7390   28.5730 C   0  0  0  0  0  0  0  0  0  0  0  0
   55.0830   82.2290   27.4560 C   0  0  0  0  0  0  0  0  0  0  0  0
   55.1690   82.9430   26.2660 C   0  0  0  0  0  0  0  0  0  0  0  0
   54.6240   84.2070   26.1730 C   0  0  0  0  0  0  0  0  0  0  0  0
   53.9990   84.7170   27.2980 C   0  0  0  0  0  0  0  0  0  0  0  0
   53.9120   84.0090   28.4790 C   0  0  0  0  0  0  0  0  0  0  0  0
   54.6770   85.0060   24.9660 C   0  0  0  0  0  0  0  0  0  0  0  0
   54.0750   84.5830   23.7850 C   0  0  0  0  0  0  0  0  0  0  0  0
   54.1110   85.2920   22.6810 O   0  0  0  0  0  0  0  0  0  0  0  0
   54.7160   86.4540   22.6010 C   0  0  0  0  0  0  0  0  0  0  0  0
   55.3410   86.9540   23.7190 C   0  0  0  0  0  0  0  0  0  0  0  0
   55.9620   88.1720   23.5890 C   0  0  0  0  0  0  0  0  0  0  0  0
   55.9810   88.8890   22.4200 C   0  0  0  0  0  0  0  0  0  0  0  0
   55.3470   88.3940   21.2620 C   0  0  0  0  0  0  0  0  0  0  0  0
   54.7280   87.1750   21.4000 C   0  0  0  0  0  0  0  0  0  0  0  0
   55.3890   89.1460   20.1060 O   0  0  0  0  0  0  0  0  0  0  0  0
   54.3200   89.6220   19.4060 C   0  0  2  0  0  0  0  0  0  0  0  0
   53.4580   88.5970   18.9330 O   0  0  0  0  0  0  0  0  0  0  0  0
   52.2360   89.2040   18.7420 C   0  0  1  0  0  0  0  0  0  0  0  0
   52.2260   90.2600   17.6810 C   0  0  2  0  0  0  0  0  0  0  0  0
   53.4350   91.1610   17.7530 C   0  0  1  0  0  0  0  0  0  0  0  0
   54.6820   90.4010   18.1540 C   0  0  1  0  0  0  0  0  0  0  0  0
   55.6890   91.3270   18.3990 O   0  0  0  0  0  0  0  0  0  0  0  0
   53.5880   91.8310   16.5460 O   0  0  0  0  0  0  0  0  0  0  0  0
   51.1060   91.0740   17.9170 O   0  0  0  0  0  0  0  0  0  0  0  0
   51.1210   88.2200   18.4930 C   0  0  0  0  0  0  0  0  0  0  0  0
   50.7870   87.5060   19.6420 O   0  0  0  0  0  0  0  0  0  0  0  0
   55.3220   86.2350   24.8950 C   0  0  0  0  0  0  0  0  0  0  0  0
   55.8940   86.6920   25.9200 O   0  0  0  0  0  0  0  0  0  0  0  0
   55.5200   81.2340   27.5110 H   0  0  0  0  0  0  0  0  0  0  0  0
   55.6530   82.5490   25.3930 H   0  0  0  0  0  0  0  0  0  0  0  0
   53.5660   85.7170   27.2250 H   0  0  0  0  0  0  0  0  0  0  0  0
   53.4230   84.4090   29.3610 H   0  0  0  0  0  0  0  0  0  0  0  0
   53.5680   83.6160   23.8440 H   0  0  0  0  0  0  0  0  0  0  0  0
   56.4520   88.5560   24.4860 H   0  0  0  0  0  0  0  0  0  0  0  0
   56.4720   89.8490   22.3260 H   0  0  0  0  0  0  0  0  0  0  0  0
   54.2270   86.7430   20.5540 H   0  0  0  0  0  0  0  0  0  0  0  0
   53.7040   90.3040   20.0150 H   0  0  0  0  0  0  0  0  0  0  0  0
   51.9810   89.7190   19.7110 H   0  0  0  0  0  0  0  0  0  0  0  0
   52.1020   89.8380   16.6520 H   0  0  0  0  0  0  0  0  0  0  0  0
   53.2560   91.9140   18.5480 H   0  0  0  0  0  0  0  0  0  0  0  0
   54.9930   89.6570   17.3900 H   0  0  0  0  0  0  0  0  0  0  0  0
   56.5200   91.0740   17.9320 H   0  0  0  0  0  0  0  0  0  0  0  0
   54.5520   92.0460   16.3510 H   0  0  0  0  0  0  0  0  0  0  0  0
   50.6700   90.8290   18.7710 H   0  0  0  0  0  0  0  0  0  0  0  0
   51.3540   87.5450   17.6450 H   0  0  0  0  0  0  0  0  0  0  0  0
   50.1830   88.7580   18.1890 H   0  0  0  0  0  0  0  0  0  0  0  0
   49.8900   87.0910   19.4450 H   0  0  0  0  0  0  0  0  0  0  0  0
  2  1  1  0  0  0  0
  3 31  1  0  0  0  0
  3  2  2  0  0  0  0
  4  3  1  0  0  0  0
  5  4  2  0  0  0  0
  5  6  1  0  0  0  0
  6  7  2  0  0  0  0
  7  2  1  0  0  0  0
  7 34  1  0  0  0  0
  8  5  1  0  0  0  0
  9 35  1  0  0  0  0
  9  8  2  0  0  0  0
 10  9  1  0  0  0  0
 11 10  1  0  0  0  0
 11 12  1  0  0  0  0
 12 29  1  0  0  0  0
 13 12  2  0  0  0  0
 13 36  1  0  0  0  0
 14 13  1  0  0  0  0
 15 16  1  0  0  0  0
 15 14  2  0  0  0  0
 16 11  2  0  0  0  0
 17 15  1  0  0  0  0
 18 39  1  1  0  0  0
 18 17  1  0  0  0  0
 19 18  1  0  0  0  0
 20 19  1  0  0  0  0
 20 40  1  1  0  0  0
 21 41  1  6  0  0  0
 21 22  1  0  0  0  0
 21 26  1  0  0  0  0
 21 20  1  0  0  0  0
 22 23  1  0  0  0  0
 22 42  1  1  0  0  0
 23 43  1  6  0  0  0
 23 24  1  0  0  0  0
 23 18  1  0  0  0  0
 25 22  1  0  0  0  0
 26 46  1  0  0  0  0
 27 20  1  0  0  0  0
 27 28  1  0  0  0  0
 29  8  1  0  0  0  0
 29 30  2  0  0  0  0
 32  4  1  0  0  0  0
 33  6  1  0  0  0  0
 37 14  1  0  0  0  0
 38 16  1  0  0  0  0
 44 24  1  0  0  0  0
 45 25  1  0  0  0  0
 47 27  1  0  0  0  0
 48 27  1  0  0  0  0
 49 28  1  0  0  0  0
M  END
>  <Pose>
1

>  <Score>
-7.09

$$$$
