
 OpenBabel03202210083D

 54 57  0  0  0  0  0  0  0  0999 V2000
   54.7140   86.2890   25.7490 B   0  0  0  0  0  0  0  0  0  0  0  0
   55.1480   87.5160   24.3550 C   0  0  0  0  0  0  0  0  0  0  0  0
   55.4140   88.8390   24.6290 C   0  0  0  0  0  0  0  0  0  0  0  0
   55.7280   89.7230   23.5960 C   0  0  0  0  0  0  0  0  0  0  0  0
   55.7680   89.2560   22.3150 C   0  0  0  0  0  0  0  0  0  0  0  0
   55.5070   87.9480   22.0260 C   0  0  0  0  0  0  0  0  0  0  0  0
   55.1980   87.0770   23.0420 C   0  0  0  0  0  0  0  0  0  0  0  0
   56.0770   90.2630   21.2220 C   0  0  0  0  0  0  0  0  0  0  0  0
   54.8740   90.8890   20.7350 N   0  0  0  0  0  0  0  0  0  0  0  0
   53.9850   90.2820   19.8830 C   0  0  0  0  0  0  0  0  0  0  0  0
   52.9620   91.1590   19.5830 C   0  0  0  0  0  0  0  0  0  0  0  0
   53.2460   92.2760   20.2590 N   0  0  0  0  0  0  0  0  0  0  0  0
   54.4100   92.1170   20.9660 C   0  0  0  0  0  0  0  0  0  0  0  0
   54.8840   93.1090   21.8390 N   0  0  0  0  0  0  0  0  0  0  0  0
   55.8530   93.0280   22.8730 C   0  0  0  0  0  0  0  0  0  0  0  0
   55.6050   94.0550   23.9830 C   0  0  0  0  0  0  0  0  0  0  0  0
   54.2810   94.5060   24.1090 N   0  0  0  0  0  0  0  0  0  0  0  0
   53.6100   94.8920   22.9310 C   0  0  0  0  0  0  0  0  0  0  0  0
   54.3130   94.4720   21.6600 C   0  0  0  0  0  0  0  0  0  0  0  0
   53.5270   94.1790   25.2480 C   0  0  0  0  0  0  0  0  0  0  0  0
   53.9420   94.7710   26.5290 C   0  0  0  0  0  0  0  0  0  0  0  0
   54.9020   94.3180   27.2080 O   0  0  0  0  0  0  0  0  0  0  0  0
   53.2690   95.8650   27.0280 O   0  0  0  0  0  0  0  0  0  0  0  0
   53.9090   97.0740   27.3300 C   0  0  0  0  0  0  0  0  0  0  0  0
   51.9530   90.7960   18.7670 N   0  0  0  0  0  0  0  0  0  0  0  0
   51.9680   89.5580   18.2520 C   0  0  0  0  0  0  0  0  0  0  0  0
   51.0230   89.2310   17.4920 O   0  0  0  0  0  0  0  0  0  0  0  0
   52.9410   88.6810   18.5200 N   0  0  0  0  0  0  0  0  0  0  0  0
   53.9800   89.0130   19.3430 C   0  0  0  0  0  0  0  0  0  0  0  0
   54.8750   88.1660   19.5770 O   0  0  0  0  0  0  0  0  0  0  0  0
   50.9000   91.7510   18.4730 C   0  0  0  0  0  0  0  0  0  0  0  0
   55.3870   89.2310   25.6500 H   0  0  0  0  0  0  0  0  0  0  0  0
   55.9370   90.7650   23.8700 H   0  0  0  0  0  0  0  0  0  0  0  0
   55.5270   87.5890   21.0140 H   0  0  0  0  0  0  0  0  0  0  0  0
   54.9930   86.0440   22.8060 H   0  0  0  0  0  0  0  0  0  0  0  0
   56.6290   89.6680   20.4980 H   0  0  0  0  0  0  0  0  0  0  0  0
   56.7400   91.0350   21.6940 H   0  0  0  0  0  0  0  0  0  0  0  0
   55.8530   92.0500   23.4240 H   0  0  0  0  0  0  0  0  0  0  0  0
   56.8460   93.3000   22.4670 H   0  0  0  0  0  0  0  0  0  0  0  0
   55.9500   93.6630   24.9750 H   0  0  0  0  0  0  0  0  0  0  0  0
   56.2480   94.9760   23.8300 H   0  0  0  0  0  0  0  0  0  0  0  0
   53.5740   96.0120   22.9090 H   0  0  0  0  0  0  0  0  0  0  0  0
   52.5620   94.5530   22.9540 H   0  0  0  0  0  0  0  0  0  0  0  0
   55.1870   95.1140   21.4290 H   0  0  0  0  0  0  0  0  0  0  0  0
   53.5840   94.4920   20.8410 H   0  0  0  0  0  0  0  0  0  0  0  0
   53.3690   93.0750   25.3230 H   0  0  0  0  0  0  0  0  0  0  0  0
   52.4770   94.5710   25.0700 H   0  0  0  0  0  0  0  0  0  0  0  0
   54.0990   97.1660   28.4260 H   0  0  0  0  0  0  0  0  0  0  0  0
   53.1730   97.8900   27.0760 H   0  0  0  0  0  0  0  0  0  0  0  0
   54.8770   97.2250   26.8150 H   0  0  0  0  0  0  0  0  0  0  0  0
   52.9350   87.7120   18.1090 H   0  0  0  0  0  0  0  0  0  0  0  0
   50.4080   91.9990   19.4370 H   0  0  0  0  0  0  0  0  0  0  0  0
   51.3260   92.7100   18.0840 H   0  0  0  0  0  0  0  0  0  0  0  0
   50.2310   91.3320   17.7130 H   0  0  0  0  0  0  0  0  0  0  0  0
  2  3  1  0  0  0  0
  2  1  1  0  0  0  0
  3 32  1  0  0  0  0
  4 33  1  0  0  0  0
  4  3  2  0  0  0  0
  5  4  1  0  0  0  0
  6  5  2  0  0  0  0
  6  7  1  0  0  0  0
  7  2  2  0  0  0  0
  8 37  1  0  0  0  0
  8  5  1  0  0  0  0
  9 13  1  0  0  0  0
  9  8  1  0  0  0  0
 10  9  1  0  0  0  0
 11 10  2  0  0  0  0
 11 12  1  0  0  0  0
 12 13  2  0  0  0  0
 13 14  1  0  0  0  0
 14 15  1  0  0  0  0
 15 38  1  0  0  0  0
 15 16  1  0  0  0  0
 16 17  1  0  0  0  0
 16 40  1  0  0  0  0
 17 20  1  0  0  0  0
 18 43  1  0  0  0  0
 18 17  1  0  0  0  0
 19 14  1  0  0  0  0
 19 18  1  0  0  0  0
 20 46  1  0  0  0  0
 20 21  1  0  0  0  0
 21 23  1  0  0  0  0
 21 22  2  0  0  0  0
 23 24  1  0  0  0  0
 24 48  1  0  0  0  0
 25 11  1  0  0  0  0
 26 28  1  0  0  0  0
 26 25  1  0  0  0  0
 27 26  2  0  0  0  0
 28 29  1  0  0  0  0
 29 30  2  0  0  0  0
 29 10  1  0  0  0  0
 31 25  1  0  0  0  0
 31 52  1  0  0  0  0
 34  6  1  0  0  0  0
 35  7  1  0  0  0  0
 36  8  1  0  0  0  0
 39 15  1  0  0  0  0
 41 16  1  0  0  0  0
 42 18  1  0  0  0  0
 44 19  1  0  0  0  0
 45 19  1  0  0  0  0
 47 20  1  0  0  0  0
 49 24  1  0  0  0  0
 50 24  1  0  0  0  0
 51 28  1  0  0  0  0
 53 31  1  0  0  0  0
 54 31  1  0  0  0  0
M  END
>  <Pose>
1

>  <Score>
-6.54

$$$$
