
 OpenBabel03202210083D

 48 51  0  0  0  0  0  0  0  0999 V2000
   54.1900   91.7330   16.5750 B   0  0  0  0  0  0  0  0  0  0  0  0
   53.7800   90.4220   17.8970 C   0  0  0  0  0  0  0  0  0  0  0  0
   54.7510   89.9170   18.7570 C   0  0  0  0  0  0  0  0  0  0  0  0
   54.3900   88.9520   19.6950 C   0  0  0  0  0  0  0  0  0  0  0  0
   53.1260   88.4660   19.8240 C   0  0  0  0  0  0  0  0  0  0  0  0
   52.1780   89.0070   18.9340 C   0  0  0  0  0  0  0  0  0  0  0  0
   52.4890   89.9590   17.9910 C   0  0  0  0  0  0  0  0  0  0  0  0
   52.6880   87.4370   20.7460 C   0  0  0  0  0  0  0  0  0  0  0  0
   53.3200   86.1430   20.6660 N   0  0  0  0  0  0  0  0  0  0  0  0
   53.1490   85.2240   19.7040 C   0  0  0  0  0  0  0  0  0  0  0  0
   53.9370   84.1310   19.9840 C   0  0  0  0  0  0  0  0  0  0  0  0
   54.5660   84.4190   21.1130 N   0  0  0  0  0  0  0  0  0  0  0  0
   54.2120   85.6340   21.5530 C   0  0  0  0  0  0  0  0  0  0  0  0
   54.6810   86.2920   22.7370 N   0  0  0  0  0  0  0  0  0  0  0  0
   54.9980   87.7000   22.6440 C   0  0  0  0  0  0  0  0  0  0  0  0
   56.4920   87.8560   22.8870 C   0  0  0  0  0  0  0  0  0  0  0  0
   57.0500   86.7770   23.6310 N   0  0  0  0  0  0  0  0  0  0  0  0
   56.1830   86.1510   24.5730 C   0  0  0  0  0  0  0  0  0  0  0  0
   54.8750   85.6550   24.0120 C   0  0  0  0  0  0  0  0  0  0  0  0
   57.9990   85.9540   22.9820 C   0  0  0  0  0  0  0  0  0  0  0  0
   53.9850   83.0200   19.2070 N   0  0  0  0  0  0  0  0  0  0  0  0
   53.2100   83.0130   18.1110 C   0  0  0  0  0  0  0  0  0  0  0  0
   53.2680   81.9770   17.4020 O   0  0  0  0  0  0  0  0  0  0  0  0
   52.4160   84.0470   17.7850 N   0  0  0  0  0  0  0  0  0  0  0  0
   52.3610   85.1540   18.5490 C   0  0  0  0  0  0  0  0  0  0  0  0
   51.6390   86.1230   18.2780 O   0  0  0  0  0  0  0  0  0  0  0  0
   54.8480   81.9200   19.5810 C   0  0  0  0  0  0  0  0  0  0  0  0
   55.7690   90.2760   18.6980 H   0  0  0  0  0  0  0  0  0  0  0  0
   55.1760   88.6080   20.3130 H   0  0  0  0  0  0  0  0  0  0  0  0
   51.1440   88.6790   18.9570 H   0  0  0  0  0  0  0  0  0  0  0  0
   51.7040   90.3390   17.3280 H   0  0  0  0  0  0  0  0  0  0  0  0
   52.8760   87.8010   21.8020 H   0  0  0  0  0  0  0  0  0  0  0  0
   51.5920   87.2770   20.6000 H   0  0  0  0  0  0  0  0  0  0  0  0
   54.4510   88.2160   23.4890 H   0  0  0  0  0  0  0  0  0  0  0  0
   54.6620   88.1860   21.7180 H   0  0  0  0  0  0  0  0  0  0  0  0
   56.9710   87.8870   21.8880 H   0  0  0  0  0  0  0  0  0  0  0  0
   56.7000   88.8200   23.3860 H   0  0  0  0  0  0  0  0  0  0  0  0
   55.9770   86.8800   25.4100 H   0  0  0  0  0  0  0  0  0  0  0  0
   56.7130   85.2980   25.0410 H   0  0  0  0  0  0  0  0  0  0  0  0
   54.0540   85.9900   24.7090 H   0  0  0  0  0  0  0  0  0  0  0  0
   54.8970   84.5500   23.9570 H   0  0  0  0  0  0  0  0  0  0  0  0
   58.0250   86.0290   21.8780 H   0  0  0  0  0  0  0  0  0  0  0  0
   57.7540   84.8900   23.2180 H   0  0  0  0  0  0  0  0  0  0  0  0
   59.0470   86.1040   23.3560 H   0  0  0  0  0  0  0  0  0  0  0  0
   51.8150   84.0310   16.9330 H   0  0  0  0  0  0  0  0  0  0  0  0
   54.4450   80.9420   19.2260 H   0  0  0  0  0  0  0  0  0  0  0  0
   55.0780   81.9620   20.6430 H   0  0  0  0  0  0  0  0  0  0  0  0
   55.8010   82.0500   19.0200 H   0  0  0  0  0  0  0  0  0  0  0  0
  1  2  1  0  0  0  0
  2  7  2  0  0  0  0
  2  3  1  0  0  0  0
  3  4  2  0  0  0  0
  4  5  1  0  0  0  0
  4 29  1  0  0  0  0
  5  8  1  0  0  0  0
  6 30  1  0  0  0  0
  6  5  2  0  0  0  0
  7  6  1  0  0  0  0
  8 32  1  0  0  0  0
  9  8  1  0  0  0  0
  9 13  1  0  0  0  0
 10 11  2  0  0  0  0
 10  9  1  0  0  0  0
 11 12  1  0  0  0  0
 12 13  2  0  0  0  0
 13 14  1  0  0  0  0
 14 19  1  0  0  0  0
 15 14  1  0  0  0  0
 15 16  1  0  0  0  0
 15 34  1  0  0  0  0
 16 37  1  0  0  0  0
 16 17  1  0  0  0  0
 17 18  1  0  0  0  0
 18 39  1  0  0  0  0
 18 38  1  0  0  0  0
 19 18  1  0  0  0  0
 19 40  1  0  0  0  0
 20 43  1  0  0  0  0
 20 44  1  0  0  0  0
 20 17  1  0  0  0  0
 21 27  1  0  0  0  0
 21 11  1  0  0  0  0
 22 21  1  0  0  0  0
 23 22  2  0  0  0  0
 24 22  1  0  0  0  0
 24 25  1  0  0  0  0
 25 10  1  0  0  0  0
 26 25  2  0  0  0  0
 27 47  1  0  0  0  0
 28  3  1  0  0  0  0
 31  7  1  0  0  0  0
 33  8  1  0  0  0  0
 35 15  1  0  0  0  0
 36 16  1  0  0  0  0
 41 19  1  0  0  0  0
 42 20  1  0  0  0  0
 45 24  1  0  0  0  0
 46 27  1  0  0  0  0
 48 27  1  0  0  0  0
M  END
>  <Pose>
1

>  <Score>
-6.75

$$$$
