
 OpenBabel03202210083D

 36 39  0  0  1  0  0  0  0  0999 V2000
   54.4980   96.5410   27.5150 Cl  0  0  0  0  0  0  0  0  0  0  0  0
   53.0490   97.5210   27.6510 C   0  0  0  0  0  0  0  0  0  0  0  0
   51.8260   96.9360   27.9060 C   0  0  0  0  0  0  0  0  0  0  0  0
   50.6870   97.7170   28.0110 C   0  0  0  0  0  0  0  0  0  0  0  0
   50.7060   99.0890   27.8720 C   0  0  0  0  0  0  0  0  0  0  0  0
   51.9410   99.6680   27.6160 C   0  0  0  0  0  0  0  0  0  0  0  0
   53.0800   98.8920   27.5100 C   0  0  0  0  0  0  0  0  0  0  0  0
   49.5370   99.9030   27.9790 N   0  0  0  0  0  0  0  0  0  0  0  0
   48.3160   99.6110   28.6740 C   0  0  0  0  0  0  0  0  0  0  0  0
   48.0480   98.5490   29.2890 O   0  0  0  0  0  0  0  0  0  0  0  0
   47.3870  100.7590   28.5650 C   0  0  1  0  0  0  0  0  0  0  0  0
   46.8900  101.1640   29.7980 O   0  0  0  0  0  0  0  0  0  0  0  0
   47.8960  101.6510   30.5060 N   0  0  1  0  0  0  0  0  0  0  0  0
   48.9270  102.1020   29.6800 C   0  0  1  0  0  0  0  0  0  0  0  0
   48.3680  101.8900   28.2720 C   0  0  1  0  0  0  0  0  0  0  0  0
   49.3480  101.1950   27.4040 C   0  0  0  0  0  0  0  0  0  0  0  0
   49.9340  101.6040   26.3570 O   0  0  0  0  0  0  0  0  0  0  0  0
   49.4760  103.4510   29.8800 C   0  0  0  0  0  0  0  0  0  0  0  0
   48.9520  104.2560   31.0030 C   0  0  0  0  0  0  0  0  0  0  0  0
   48.6080  103.3280   32.1480 C   0  0  0  0  0  0  0  0  0  0  0  0
   47.5370  102.4000   31.6380 C   0  0  0  0  0  0  0  0  0  0  0  0
   51.7560   95.8460   28.0260 H   0  0  0  0  0  0  0  0  0  0  0  0
   49.7280   97.2660   28.2100 H   0  0  0  0  0  0  0  0  0  0  0  0
   51.9640  100.7480   27.5050 H   0  0  0  0  0  0  0  0  0  0  0  0
   54.0390   99.3400   27.3110 H   0  0  0  0  0  0  0  0  0  0  0  0
   46.6230  100.6530   27.8010 H   0  0  0  0  0  0  0  0  0  0  0  0
   49.7780  101.3600   29.7600 H   0  0  0  0  0  0  0  0  0  0  0  0
   47.9110  102.7680   27.8400 H   0  0  0  0  0  0  0  0  0  0  0  0
   49.2970  104.0440   28.9330 H   0  0  0  0  0  0  0  0  0  0  0  0
   50.6040  103.4430   29.9590 H   0  0  0  0  0  0  0  0  0  0  0  0
   49.7380  104.9520   31.3850 H   0  0  0  0  0  0  0  0  0  0  0  0
   48.0400  104.8420   30.7760 H   0  0  0  0  0  0  0  0  0  0  0  0
   48.1670  103.9480   32.9530 H   0  0  0  0  0  0  0  0  0  0  0  0
   49.4800  102.8060   32.5510 H   0  0  0  0  0  0  0  0  0  0  0  0
   46.6080  103.0080   31.4920 H   0  0  0  0  0  0  0  0  0  0  0  0
   47.2930  101.6980   32.4840 H   0  0  0  0  0  0  0  0  0  0  0  0
  1  2  1  0  0  0  0
  2  3  1  0  0  0  0
  3  4  2  0  0  0  0
  3 22  1  0  0  0  0
  4 23  1  0  0  0  0
  5  8  1  0  0  0  0
  5  4  1  0  0  0  0
  6  5  2  0  0  0  0
  7  6  1  0  0  0  0
  7  2  2  0  0  0  0
  8  9  1  0  0  0  0
  9 10  2  0  0  0  0
 11 26  1  6  0  0  0
 11  9  1  0  0  0  0
 11 12  1  0  0  0  0
 13 12  1  6  0  0  0
 13 21  1  0  0  0  0
 14 27  1  1  0  0  0
 14 18  1  0  0  0  0
 14 13  1  0  0  0  0
 15 28  1  6  0  0  0
 15 11  1  0  0  0  0
 15 14  1  0  0  0  0
 16  8  1  0  0  0  0
 16 15  1  0  0  0  0
 17 16  2  0  0  0  0
 18 30  1  0  0  0  0
 18 19  1  0  0  0  0
 19 31  1  0  0  0  0
 19 20  1  0  0  0  0
 20 34  1  0  0  0  0
 20 33  1  0  0  0  0
 21 20  1  0  0  0  0
 21 36  1  0  0  0  0
 24  6  1  0  0  0  0
 25  7  1  0  0  0  0
 29 18  1  0  0  0  0
 32 19  1  0  0  0  0
 35 21  1  0  0  0  0
M  END
>  <Pose>
1

>  <Score>
-5.43

$$$$
