
 OpenBabel03202210083D

 41 45  0  0  1  0  0  0  0  0999 V2000
   56.2250   90.2600   20.2190 Cl  0  0  0  0  0  0  0  0  0  0  0  0
   55.6530   88.9430   21.2480 C   0  0  0  0  0  0  0  0  0  0  0  0
   54.5710   88.1730   20.8960 C   0  0  0  0  0  0  0  0  0  0  0  0
   54.1530   87.1460   21.7240 C   0  0  0  0  0  0  0  0  0  0  0  0
   54.7780   86.8480   22.9110 C   0  0  0  0  0  0  0  0  0  0  0  0
   55.8670   87.6210   23.2670 C   0  0  0  0  0  0  0  0  0  0  0  0
   56.2900   88.6550   22.4340 C   0  0  0  0  0  0  0  0  0  0  0  0
   54.3560   85.7880   23.7740 N   0  0  0  0  0  0  0  0  0  0  0  0
   54.3040   85.7420   25.1920 C   0  0  0  0  0  0  0  0  0  0  0  0
   54.5280   86.7140   25.9610 O   0  0  0  0  0  0  0  0  0  0  0  0
   53.9440   84.3610   25.6590 C   0  0  1  0  0  0  0  0  0  0  0  0
   52.7220   84.3850   26.5160 C   0  0  2  0  0  0  0  0  0  0  0  0
   51.8730   83.3990   25.9540 O   0  0  0  0  0  0  0  0  0  0  0  0
   51.9040   83.9030   24.6290 C   0  0  2  0  0  0  0  0  0  0  0  0
   53.3980   83.7340   24.3680 C   0  0  1  0  0  0  0  0  0  0  0  0
   53.8990   84.5420   23.2650 C   0  0  0  0  0  0  0  0  0  0  0  0
   53.9130   84.1710   22.0640 O   0  0  0  0  0  0  0  0  0  0  0  0
   51.5360   85.3180   24.8710 C   0  0  0  0  0  0  0  0  0  0  0  0
   51.9410   85.6020   26.1260 C   0  0  0  0  0  0  0  0  0  0  0  0
   51.0360   83.1810   23.6860 C   0  0  0  0  0  0  0  0  0  0  0  0
   52.9150   84.2270   27.9630 C   0  0  0  0  0  0  0  0  0  0  0  0
   51.7210   84.5560   28.6080 O   0  0  0  0  0  0  0  0  0  0  0  0
   50.9480   83.4250   28.6820 C   0  0  0  0  0  0  0  0  0  0  0  0
   51.9720   82.3210   28.6780 C   0  0  0  0  0  0  0  0  0  0  0  0
   53.1560   82.8850   28.2590 O   0  0  0  0  0  0  0  0  0  0  0  0
   54.0630   88.3780   19.9780 H   0  0  0  0  0  0  0  0  0  0  0  0
   53.2950   86.5170   21.4650 H   0  0  0  0  0  0  0  0  0  0  0  0
   56.3890   87.4220   24.1960 H   0  0  0  0  0  0  0  0  0  0  0  0
   57.1380   89.2640   22.6980 H   0  0  0  0  0  0  0  0  0  0  0  0
   54.7950   83.8130   26.0620 H   0  0  0  0  0  0  0  0  0  0  0  0
   53.6140   82.6700   24.3100 H   0  0  0  0  0  0  0  0  0  0  0  0
   51.0450   86.0490   24.2430 H   0  0  0  0  0  0  0  0  0  0  0  0
   51.7660   86.4790   26.7270 H   0  0  0  0  0  0  0  0  0  0  0  0
   51.5550   82.4080   23.0720 H   0  0  0  0  0  0  0  0  0  0  0  0
   50.5300   83.8710   22.9530 H   0  0  0  0  0  0  0  0  0  0  0  0
   50.1850   82.6380   24.1770 H   0  0  0  0  0  0  0  0  0  0  0  0
   53.7640   84.8090   28.3210 H   0  0  0  0  0  0  0  0  0  0  0  0
   50.3850   83.4740   29.6580 H   0  0  0  0  0  0  0  0  0  0  0  0
   50.1840   83.3270   27.9010 H   0  0  0  0  0  0  0  0  0  0  0  0
   51.5880   81.5330   27.9810 H   0  0  0  0  0  0  0  0  0  0  0  0
   52.0240   81.9330   29.7290 H   0  0  0  0  0  0  0  0  0  0  0  0
  1  2  1  0  0  0  0
  2  7  1  0  0  0  0
  3  2  2  0  0  0  0
  3  4  1  0  0  0  0
  4  5  2  0  0  0  0
  5  6  1  0  0  0  0
  5  8  1  0  0  0  0
  6 28  1  0  0  0  0
  7 29  1  0  0  0  0
  7  6  2  0  0  0  0
  8  9  1  0  0  0  0
  9 11  1  0  0  0  0
  9 10  2  0  0  0  0
 11 30  1  1  0  0  0
 11 12  1  0  0  0  0
 12 21  1  1  0  0  0
 13 12  1  0  0  0  0
 14 20  1  6  0  0  0
 14 18  1  0  0  0  0
 14 13  1  0  0  0  0
 15 31  1  6  0  0  0
 15 14  1  0  0  0  0
 15 11  1  0  0  0  0
 16  8  1  0  0  0  0
 16 15  1  0  0  0  0
 17 16  2  0  0  0  0
 18 19  2  0  0  0  0
 19 12  1  0  0  0  0
 19 33  1  0  0  0  0
 20 36  1  0  0  0  0
 21 25  1  0  0  0  0
 21 37  1  0  0  0  0
 21 22  1  0  0  0  0
 22 23  1  0  0  0  0
 23 38  1  0  0  0  0
 24 23  1  0  0  0  0
 24 41  1  0  0  0  0
 25 24  1  0  0  0  0
 26  3  1  0  0  0  0
 27  4  1  0  0  0  0
 32 18  1  0  0  0  0
 34 20  1  0  0  0  0
 35 20  1  0  0  0  0
 39 23  1  0  0  0  0
 40 24  1  0  0  0  0
M  END
>  <Pose>
1

>  <Score>
-4.25

$$$$
