
 OpenBabel03202210083D

 49 52  0  0  0  0  0  0  0  0999 V2000
   56.6040   85.7670   24.5560 Cl  0  0  0  0  0  0  0  0  0  0  0  0
   56.3180   87.2580   23.6480 C   0  0  0  0  0  0  0  0  0  0  0  0
   56.1240   87.2220   22.2920 C   0  0  0  0  0  0  0  0  0  0  0  0
   55.9120   88.4250   21.6570 C   0  0  0  0  0  0  0  0  0  0  0  0
   55.8930   89.6330   22.3510 C   0  0  0  0  0  0  0  0  0  0  0  0
   56.0940   89.6170   23.7240 C   0  0  0  0  0  0  0  0  0  0  0  0
   56.3070   88.4210   24.3700 C   0  0  0  0  0  0  0  0  0  0  0  0
   55.6710   90.8620   21.6680 N   0  0  0  0  0  0  0  0  0  0  0  0
   55.0140   91.9850   22.2000 C   0  0  0  0  0  0  0  0  0  0  0  0
   53.9300   92.3390   21.6600 O   0  0  0  0  0  0  0  0  0  0  0  0
   55.4940   92.7350   23.2910 N   0  0  0  0  0  0  0  0  0  0  0  0
   54.9360   93.8950   23.8170 N   0  0  0  0  0  0  0  0  0  0  0  0
   54.9340   94.0670   25.2220 C   0  0  0  0  0  0  0  0  0  0  0  0
   55.0030   93.0430   25.9740 O   0  0  0  0  0  0  0  0  0  0  0  0
   54.8440   95.4040   25.7740 C   0  0  0  0  0  0  0  0  0  0  0  0
   53.7740   95.9060   26.3420 N   0  0  0  0  0  0  0  0  0  0  0  0
   53.9630   97.1920   26.7790 N   0  0  0  0  0  0  0  0  0  0  0  0
   55.3090   97.5240   26.4390 C   0  0  0  0  0  0  0  0  0  0  0  0
   56.0240   98.5970   26.6070 N   0  0  0  0  0  0  0  0  0  0  0  0
   57.3730   98.6750   26.1700 N   0  0  0  0  0  0  0  0  0  0  0  0
   58.0130   97.5970   25.5320 C   0  0  0  0  0  0  0  0  0  0  0  0
   59.2740   97.6520   25.1260 C   0  0  0  0  0  0  0  0  0  0  0  0
   57.2270   96.3840   25.3310 C   0  0  0  0  0  0  0  0  0  0  0  0
   57.7690   95.4250   24.7720 O   0  0  0  0  0  0  0  0  0  0  0  0
   55.8770   96.3830   25.7970 N   0  0  0  0  0  0  0  0  0  0  0  0
   53.0150   97.9960   27.4760 C   0  0  0  0  0  0  0  0  0  0  0  0
   52.4810   97.5950   28.6760 C   0  0  0  0  0  0  0  0  0  0  0  0
   51.5870   98.3570   29.4160 C   0  0  0  0  0  0  0  0  0  0  0  0
   51.1880   99.5940   28.9500 C   0  0  0  0  0  0  0  0  0  0  0  0
   51.7090  100.0170   27.7450 C   0  0  0  0  0  0  0  0  0  0  0  0
   52.6050   99.2290   27.0240 C   0  0  0  0  0  0  0  0  0  0  0  0
   50.2570  100.4630   29.7330 C   0  0  0  0  0  0  0  0  0  0  0  0
   56.1370   86.2810   21.7360 H   0  0  0  0  0  0  0  0  0  0  0  0
   55.7540   88.4510   20.5740 H   0  0  0  0  0  0  0  0  0  0  0  0
   56.0680   90.5790   24.2340 H   0  0  0  0  0  0  0  0  0  0  0  0
   56.4570   88.4330   25.4580 H   0  0  0  0  0  0  0  0  0  0  0  0
   56.0410   90.8980   20.6860 H   0  0  0  0  0  0  0  0  0  0  0  0
   56.3750   92.4080   23.8080 H   0  0  0  0  0  0  0  0  0  0  0  0
   54.5500   94.5950   23.1670 H   0  0  0  0  0  0  0  0  0  0  0  0
   57.8560   99.5830   26.3540 H   0  0  0  0  0  0  0  0  0  0  0  0
   59.9000   98.5180   25.2550 H   0  0  0  0  0  0  0  0  0  0  0  0
   59.7340   96.7960   24.6450 H   0  0  0  0  0  0  0  0  0  0  0  0
   52.7940   96.6120   29.0550 H   0  0  0  0  0  0  0  0  0  0  0  0
   51.1870   98.0100   30.3520 H   0  0  0  0  0  0  0  0  0  0  0  0
   51.3820  100.9910   27.3870 H   0  0  0  0  0  0  0  0  0  0  0  0
   52.9960   99.5900   26.0750 H   0  0  0  0  0  0  0  0  0  0  0  0
   49.2090  100.1630   29.6660 H   0  0  0  0  0  0  0  0  0  0  0  0
   50.3440  101.5210   29.4570 H   0  0  0  0  0  0  0  0  0  0  0  0
   50.5510  100.4330   30.8280 H   0  0  0  0  0  0  0  0  0  0  0  0
  2  7  1  0  0  0  0
  2  1  1  0  0  0  0
  3  2  2  0  0  0  0
  4  3  1  0  0  0  0
  4  5  2  0  0  0  0
  5  6  1  0  0  0  0
  6 35  1  0  0  0  0
  6  7  2  0  0  0  0
  7 36  1  0  0  0  0
  8  9  1  0  0  0  0
  8  5  1  0  0  0  0
  9 11  1  0  0  0  0
 10  9  2  0  0  0  0
 11 38  1  0  0  0  0
 11 12  1  0  0  0  0
 12 13  1  0  0  0  0
 13 15  1  0  0  0  0
 13 14  2  0  0  0  0
 15 25  1  0  0  0  0
 15 16  2  0  0  0  0
 16 17  1  0  0  0  0
 17 26  1  0  0  0  0
 18 19  2  0  0  0  0
 18 17  1  0  0  0  0
 20 40  1  0  0  0  0
 20 19  1  0  0  0  0
 21 20  1  0  0  0  0
 22 41  1  0  0  0  0
 22 21  2  0  0  0  0
 23 21  1  0  0  0  0
 23 25  1  0  0  0  0
 24 23  2  0  0  0  0
 25 18  1  0  0  0  0
 26 27  1  0  0  0  0
 27 43  1  0  0  0  0
 27 28  2  0  0  0  0
 28 44  1  0  0  0  0
 29 28  1  0  0  0  0
 29 32  1  0  0  0  0
 30 29  2  0  0  0  0
 31 26  2  0  0  0  0
 31 30  1  0  0  0  0
 32 49  1  0  0  0  0
 33  3  1  0  0  0  0
 34  4  1  0  0  0  0
 37  8  1  0  0  0  0
 39 12  1  0  0  0  0
 42 22  1  0  0  0  0
 45 30  1  0  0  0  0
 46 31  1  0  0  0  0
 47 32  1  0  0  0  0
 48 32  1  0  0  0  0
M  END
>  <Pose>
1

>  <Score>
-10.69

$$$$
