
 OpenBabel03202210083D

 53 57  0  0  1  0  0  0  0  0999 V2000
   54.8400   80.0630   29.9150 Cl  0  0  0  0  0  0  0  0  0  0  0  0
   54.1060   81.6330   29.6660 C   0  0  0  0  0  0  0  0  0  0  0  0
   54.3110   82.3800   28.5240 C   0  0  0  0  0  0  0  0  0  0  0  0
   53.7120   83.6250   28.3600 C   0  0  0  0  0  0  0  0  0  0  0  0
   52.9160   84.0630   29.3820 C   0  0  0  0  0  0  0  0  0  0  0  0
   52.6990   83.3330   30.5270 C   0  0  0  0  0  0  0  0  0  0  0  0
   53.2880   82.1140   30.6840 C   0  0  0  0  0  0  0  0  0  0  0  0
   54.1220   84.1580   27.0560 C   0  0  2  0  0  0  0  0  0  0  0  0
   54.8030   85.4350   27.1660 N   0  0  0  0  0  0  0  0  0  0  0  0
   54.7620   85.9210   25.7850 C   0  0  1  0  0  0  0  0  0  0  0  0
   53.4680   85.4800   25.2150 C   0  0  2  0  0  0  0  0  0  0  0  0
   52.9240   84.5090   26.2140 C   0  0  1  0  0  0  0  0  0  0  0  0
   52.3690   83.3600   25.4940 C   0  0  0  0  0  0  0  0  0  0  0  0
   51.6120   82.5040   26.0160 O   0  0  0  0  0  0  0  0  0  0  0  0
   52.8540   83.4390   24.1590 N   0  0  0  0  0  0  0  0  0  0  0  0
   53.6590   84.6000   24.0030 C   0  0  0  0  0  0  0  0  0  0  0  0
   54.4230   84.9100   23.0480 O   0  0  0  0  0  0  0  0  0  0  0  0
   52.5600   82.4630   23.1130 C   0  0  0  0  0  0  0  0  0  0  0  0
   51.2980   82.9150   22.3930 C   0  0  0  0  0  0  0  0  0  0  0  0
   50.4570   81.8410   22.1470 O   0  0  0  0  0  0  0  0  0  0  0  0
   49.4380   81.8330   23.0790 C   0  0  0  0  0  0  0  0  0  0  0  0
   54.9060   87.4120   25.7290 C   0  0  0  0  0  0  0  0  0  0  0  0
   55.3730   87.9350   24.4350 C   0  0  0  0  0  0  0  0  0  0  0  0
   55.7570   87.0110   23.4660 C   0  0  0  0  0  0  0  0  0  0  0  0
   56.1770   87.4660   22.2420 C   0  0  0  0  0  0  0  0  0  0  0  0
   56.2380   88.8020   21.9230 C   0  0  0  0  0  0  0  0  0  0  0  0
   55.8500   89.6840   22.9080 C   0  0  0  0  0  0  0  0  0  0  0  0
   55.4190   89.2810   24.1540 C   0  0  0  0  0  0  0  0  0  0  0  0
   55.0110   83.1530   26.4500 C   0  0  0  0  0  0  0  0  0  0  0  0
   55.5890   83.1870   25.3550 O   0  0  0  0  0  0  0  0  0  0  0  0
   55.0970   82.0830   27.3800 N   0  0  0  0  0  0  0  0  0  0  0  0
   52.4380   85.0500   29.2540 H   0  0  0  0  0  0  0  0  0  0  0  0
   52.0670   83.7270   31.2900 H   0  0  0  0  0  0  0  0  0  0  0  0
   53.1310   81.5250   31.5740 H   0  0  0  0  0  0  0  0  0  0  0  0
   55.8000   85.3230   27.4970 H   0  0  0  0  0  0  0  0  0  0  0  0
   55.6470   85.5090   25.2300 H   0  0  0  0  0  0  0  0  0  0  0  0
   52.7400   86.2780   24.9720 H   0  0  0  0  0  0  0  0  0  0  0  0
   52.1910   84.9770   26.9120 H   0  0  0  0  0  0  0  0  0  0  0  0
   52.3520   81.4820   23.5490 H   0  0  0  0  0  0  0  0  0  0  0  0
   53.3990   82.3650   22.4020 H   0  0  0  0  0  0  0  0  0  0  0  0
   50.8220   83.6950   23.0240 H   0  0  0  0  0  0  0  0  0  0  0  0
   51.5590   83.3530   21.4070 H   0  0  0  0  0  0  0  0  0  0  0  0
   48.8400   82.7610   23.0370 H   0  0  0  0  0  0  0  0  0  0  0  0
   49.7960   81.7210   24.1230 H   0  0  0  0  0  0  0  0  0  0  0  0
   48.7950   80.9480   22.8700 H   0  0  0  0  0  0  0  0  0  0  0  0
   53.9700   87.9000   26.0750 H   0  0  0  0  0  0  0  0  0  0  0  0
   55.6820   87.6760   26.5070 H   0  0  0  0  0  0  0  0  0  0  0  0
   55.7150   85.9370   23.7030 H   0  0  0  0  0  0  0  0  0  0  0  0
   56.4740   86.7470   21.4920 H   0  0  0  0  0  0  0  0  0  0  0  0
   56.5660   89.1760   20.9640 H   0  0  0  0  0  0  0  0  0  0  0  0
   55.8760   90.7470   22.7140 H   0  0  0  0  0  0  0  0  0  0  0  0
   55.1070   90.0350   24.8970 H   0  0  0  0  0  0  0  0  0  0  0  0
   55.6520   81.1930   27.2670 H   0  0  0  0  0  0  0  0  0  0  0  0
  2  1  1  0  0  0  0
  2  7  1  0  0  0  0
  3  2  2  0  0  0  0
  4  3  1  0  0  0  0
  4  5  2  0  0  0  0
  5  6  1  0  0  0  0
  6  7  2  0  0  0  0
  6 33  1  0  0  0  0
  7 34  1  0  0  0  0
  8 29  1  6  0  0  0
  8  9  1  0  0  0  0
  8  4  1  0  0  0  0
  9 35  1  0  0  0  0
 10 36  1  6  0  0  0
 10  9  1  0  0  0  0
 11 37  1  6  0  0  0
 11 10  1  0  0  0  0
 11 12  1  0  0  0  0
 12 38  1  1  0  0  0
 12  8  1  0  0  0  0
 13 14  2  0  0  0  0
 13 12  1  0  0  0  0
 15 13  1  0  0  0  0
 16 15  1  0  0  0  0
 16 11  1  0  0  0  0
 17 16  2  0  0  0  0
 18 39  1  0  0  0  0
 18 15  1  0  0  0  0
 19 41  1  0  0  0  0
 19 18  1  0  0  0  0
 20 19  1  0  0  0  0
 20 21  1  0  0  0  0
 21 44  1  0  0  0  0
 22 10  1  0  0  0  0
 22 46  1  0  0  0  0
 22 47  1  0  0  0  0
 23 22  1  0  0  0  0
 24 48  1  0  0  0  0
 24 23  2  0  0  0  0
 25 24  1  0  0  0  0
 26 25  2  0  0  0  0
 26 27  1  0  0  0  0
 27 28  2  0  0  0  0
 28 23  1  0  0  0  0
 28 52  1  0  0  0  0
 29 31  1  0  0  0  0
 30 29  2  0  0  0  0
 31  3  1  0  0  0  0
 32  5  1  0  0  0  0
 40 18  1  0  0  0  0
 42 19  1  0  0  0  0
 43 21  1  0  0  0  0
 45 21  1  0  0  0  0
 49 25  1  0  0  0  0
 50 26  1  0  0  0  0
 51 27  1  0  0  0  0
 53 31  1  0  0  0  0
M  END
>  <Pose>
1

>  <Score>
-6.05

$$$$
