
 OpenBabel03202210083D

 42 45  0  0  0  0  0  0  0  0999 V2000
   54.0730   84.0420   20.2100 Cl  0  0  0  0  0  0  0  0  0  0  0  0
   53.3800   85.5620   19.6810 C   0  0  0  0  0  0  0  0  0  0  0  0
   52.6250   85.6050   18.5280 C   0  0  0  0  0  0  0  0  0  0  0  0
   52.1010   86.8390   18.1600 C   0  0  0  0  0  0  0  0  0  0  0  0
   52.2970   87.9920   18.8780 C   0  0  0  0  0  0  0  0  0  0  0  0
   53.0500   87.9270   20.0220 C   0  0  0  0  0  0  0  0  0  0  0  0
   53.5770   86.7170   20.4040 C   0  0  0  0  0  0  0  0  0  0  0  0
   51.7150   89.2570   18.4330 C   0  0  0  0  0  0  0  0  0  0  0  0
   52.5730   90.1300   17.7290 N   0  0  0  0  0  0  0  0  0  0  0  0
   52.3060   91.5110   17.7890 C   0  0  0  0  0  0  0  0  0  0  0  0
   53.0210   92.2870   18.8620 C   0  0  0  0  0  0  0  0  0  0  0  0
   54.2220   91.4840   19.2140 N   0  0  0  0  0  0  0  0  0  0  0  0
   54.8440   90.8710   18.1030 C   0  0  0  0  0  0  0  0  0  0  0  0
   53.9520   89.7360   17.6500 C   0  0  0  0  0  0  0  0  0  0  0  0
   54.5910   91.4670   20.5760 C   0  0  0  0  0  0  0  0  0  0  0  0
   54.2310   92.5150   21.3770 N   0  0  0  0  0  0  0  0  0  0  0  0
   54.5440   92.6380   22.6610 C   0  0  0  0  0  0  0  0  0  0  0  0
   55.2720   91.6660   23.2380 N   0  0  0  0  0  0  0  0  0  0  0  0
   55.6560   90.6040   22.4960 C   0  0  0  0  0  0  0  0  0  0  0  0
   56.3630   89.4990   22.7980 N   0  0  0  0  0  0  0  0  0  0  0  0
   56.4660   88.7330   21.7110 C   0  0  0  0  0  0  0  0  0  0  0  0
   55.8320   89.3150   20.6780 N   0  0  0  0  0  0  0  0  0  0  0  0
   55.3290   90.4690   21.1450 C   0  0  0  0  0  0  0  0  0  0  0  0
   54.1300   93.7730   23.4490 N   0  0  0  0  0  0  0  0  0  0  0  0
   52.4500   84.7120   17.9350 H   0  0  0  0  0  0  0  0  0  0  0  0
   51.5140   86.8110   17.2400 H   0  0  0  0  0  0  0  0  0  0  0  0
   53.2390   88.8260   20.6380 H   0  0  0  0  0  0  0  0  0  0  0  0
   54.1810   86.6660   21.3200 H   0  0  0  0  0  0  0  0  0  0  0  0
   50.7860   89.1110   17.8280 H   0  0  0  0  0  0  0  0  0  0  0  0
   51.3550   89.7950   19.3580 H   0  0  0  0  0  0  0  0  0  0  0  0
   51.2380   91.6810   17.9010 H   0  0  0  0  0  0  0  0  0  0  0  0
   52.5900   91.9640   16.7950 H   0  0  0  0  0  0  0  0  0  0  0  0
   52.4230   92.5230   19.7390 H   0  0  0  0  0  0  0  0  0  0  0  0
   53.4340   93.2330   18.4550 H   0  0  0  0  0  0  0  0  0  0  0  0
   54.7760   91.6370   17.2460 H   0  0  0  0  0  0  0  0  0  0  0  0
   55.8990   90.6440   18.1460 H   0  0  0  0  0  0  0  0  0  0  0  0
   54.1030   88.7940   18.2010 H   0  0  0  0  0  0  0  0  0  0  0  0
   54.1910   89.5430   16.5780 H   0  0  0  0  0  0  0  0  0  0  0  0
   56.9960   87.7750   21.6960 H   0  0  0  0  0  0  0  0  0  0  0  0
   55.7660   88.9000   19.7240 H   0  0  0  0  0  0  0  0  0  0  0  0
   53.6770   93.6650   24.3670 H   0  0  0  0  0  0  0  0  0  0  0  0
   54.2900   94.7350   23.0890 H   0  0  0  0  0  0  0  0  0  0  0  0
  2  1  1  0  0  0  0
  2  7  1  0  0  0  0
  3  2  2  0  0  0  0
  4  3  1  0  0  0  0
  4  5  2  0  0  0  0
  5  6  1  0  0  0  0
  6  7  2  0  0  0  0
  6 27  1  0  0  0  0
  7 28  1  0  0  0  0
  8  5  1  0  0  0  0
  8 30  1  0  0  0  0
  9 10  1  0  0  0  0
  9  8  1  0  0  0  0
 10 31  1  0  0  0  0
 10 11  1  0  0  0  0
 11 12  1  0  0  0  0
 11 33  1  0  0  0  0
 12 15  1  0  0  0  0
 13 36  1  0  0  0  0
 13 12  1  0  0  0  0
 14  9  1  0  0  0  0
 14 13  1  0  0  0  0
 14 37  1  0  0  0  0
 15 23  2  0  0  0  0
 15 16  1  0  0  0  0
 16 17  2  0  0  0  0
 17 18  1  0  0  0  0
 17 24  1  0  0  0  0
 19 20  1  0  0  0  0
 19 18  2  0  0  0  0
 21 20  2  0  0  0  0
 22 23  1  0  0  0  0
 22 21  1  0  0  0  0
 23 19  1  0  0  0  0
 24 41  1  0  0  0  0
 25  3  1  0  0  0  0
 26  4  1  0  0  0  0
 29  8  1  0  0  0  0
 32 10  1  0  0  0  0
 34 11  1  0  0  0  0
 35 13  1  0  0  0  0
 38 14  1  0  0  0  0
 39 21  1  0  0  0  0
 40 22  1  0  0  0  0
 42 24  1  0  0  0  0
M  END
>  <Pose>
1

>  <Score>
-6.55

$$$$
