
 OpenBabel03202210083D

 42 45  0  0  0  0  0  0  0  0999 V2000
   55.1860   98.0600   26.7830 Cl  0  0  0  0  0  0  0  0  0  0  0  0
   55.3260   96.4040   26.2020 C   0  0  0  0  0  0  0  0  0  0  0  0
   56.3510   96.0580   25.3570 C   0  0  0  0  0  0  0  0  0  0  0  0
   56.4460   94.7500   24.9100 C   0  0  0  0  0  0  0  0  0  0  0  0
   55.5430   93.7970   25.2910 C   0  0  0  0  0  0  0  0  0  0  0  0
   54.5150   94.1400   26.1370 C   0  0  0  0  0  0  0  0  0  0  0  0
   54.4200   95.4350   26.5810 C   0  0  0  0  0  0  0  0  0  0  0  0
   55.7250   92.4210   24.7610 C   0  0  0  0  0  0  0  0  0  0  0  0
   55.1660   92.3900   23.4100 N   0  0  0  0  0  0  0  0  0  0  0  0
   54.4890   93.3270   22.7750 N   0  0  0  0  0  0  0  0  0  0  0  0
   54.1480   92.9310   21.5620 N   0  0  0  0  0  0  0  0  0  0  0  0
   54.6090   91.6940   21.3750 C   0  0  0  0  0  0  0  0  0  0  0  0
   55.2540   91.3500   22.5430 C   0  0  0  0  0  0  0  0  0  0  0  0
   55.8140   90.1330   22.6130 N   0  0  0  0  0  0  0  0  0  0  0  0
   55.7470   89.2800   21.5770 C   0  0  0  0  0  0  0  0  0  0  0  0
   55.1130   89.6390   20.4460 N   0  0  0  0  0  0  0  0  0  0  0  0
   54.5140   90.8480   20.2770 C   0  0  0  0  0  0  0  0  0  0  0  0
   53.8490   91.2270   19.0980 N   0  0  0  0  0  0  0  0  0  0  0  0
   54.3140   91.0420   17.7490 C   0  0  0  0  0  0  0  0  0  0  0  0
   53.3220   90.2110   17.0240 C   0  0  0  0  0  0  0  0  0  0  0  0
   52.0360   90.0880   17.5660 N   0  0  0  0  0  0  0  0  0  0  0  0
   51.5650   91.0190   18.5010 C   0  0  0  0  0  0  0  0  0  0  0  0
   52.5640   91.8760   19.1830 C   0  0  0  0  0  0  0  0  0  0  0  0
   51.8630   88.7460   18.0930 C   0  0  0  0  0  0  0  0  0  0  0  0
   57.0800   96.7880   25.0390 H   0  0  0  0  0  0  0  0  0  0  0  0
   57.2650   94.4870   24.2390 H   0  0  0  0  0  0  0  0  0  0  0  0
   53.8120   93.3970   26.4330 H   0  0  0  0  0  0  0  0  0  0  0  0
   53.6170   95.7590   27.2580 H   0  0  0  0  0  0  0  0  0  0  0  0
   56.7890   92.1650   24.7070 H   0  0  0  0  0  0  0  0  0  0  0  0
   55.2070   91.7020   25.4280 H   0  0  0  0  0  0  0  0  0  0  0  0
   56.2110   88.3080   21.6680 H   0  0  0  0  0  0  0  0  0  0  0  0
   55.3150   90.5730   17.6950 H   0  0  0  0  0  0  0  0  0  0  0  0
   54.4280   92.0370   17.2690 H   0  0  0  0  0  0  0  0  0  0  0  0
   53.2220   90.6400   15.9820 H   0  0  0  0  0  0  0  0  0  0  0  0
   53.7630   89.1910   16.8330 H   0  0  0  0  0  0  0  0  0  0  0  0
   50.8390   91.7110   17.9770 H   0  0  0  0  0  0  0  0  0  0  0  0
   50.9220   90.5190   19.2820 H   0  0  0  0  0  0  0  0  0  0  0  0
   52.6250   92.8870   18.7260 H   0  0  0  0  0  0  0  0  0  0  0  0
   52.2660   92.0140   20.2600 H   0  0  0  0  0  0  0  0  0  0  0  0
   52.7270   88.0840   17.8060 H   0  0  0  0  0  0  0  0  0  0  0  0
   51.8690   88.7840   19.2040 H   0  0  0  0  0  0  0  0  0  0  0  0
   50.9570   88.2540   17.6930 H   0  0  0  0  0  0  0  0  0  0  0  0
  2  7  1  0  0  0  0
  2  1  1  0  0  0  0
  3  2  2  0  0  0  0
  4  5  2  0  0  0  0
  4  3  1  0  0  0  0
  5  6  1  0  0  0  0
  6 27  1  0  0  0  0
  6  7  2  0  0  0  0
  7 28  1  0  0  0  0
  8  5  1  0  0  0  0
  8 30  1  0  0  0  0
  9  8  1  0  0  0  0
 10  9  1  0  0  0  0
 11 10  2  0  0  0  0
 12 11  1  0  0  0  0
 12 13  2  0  0  0  0
 13 14  1  0  0  0  0
 13  9  1  0  0  0  0
 15 31  1  0  0  0  0
 15 14  2  0  0  0  0
 16 15  1  0  0  0  0
 17 16  2  0  0  0  0
 17 12  1  0  0  0  0
 18 23  1  0  0  0  0
 18 17  1  0  0  0  0
 19 18  1  0  0  0  0
 20 21  1  0  0  0  0
 20 19  1  0  0  0  0
 21 24  1  0  0  0  0
 21 22  1  0  0  0  0
 22 23  1  0  0  0  0
 22 37  1  0  0  0  0
 23 39  1  0  0  0  0
 24 41  1  0  0  0  0
 25  3  1  0  0  0  0
 26  4  1  0  0  0  0
 29  8  1  0  0  0  0
 32 19  1  0  0  0  0
 33 19  1  0  0  0  0
 34 20  1  0  0  0  0
 35 20  1  0  0  0  0
 36 22  1  0  0  0  0
 38 23  1  0  0  0  0
 40 24  1  0  0  0  0
 42 24  1  0  0  0  0
M  END
>  <Pose>
1

>  <Score>
-6.77

$$$$
