
 OpenBabel03202210083D

 48 52  0  0  1  0  0  0  0  0999 V2000
   54.3220   83.5070   26.1640 Cl  0  0  0  0  0  0  0  0  0  0  0  0
   54.6490   85.0700   25.4070 C   0  0  0  0  0  0  0  0  0  0  0  0
   54.7360   85.1550   24.0350 C   0  0  0  0  0  0  0  0  0  0  0  0
   54.9890   86.3550   23.4160 C   0  0  0  0  0  0  0  0  0  0  0  0
   55.1640   87.5140   24.1450 C   0  0  0  0  0  0  0  0  0  0  0  0
   55.0740   87.4090   25.5170 C   0  0  0  0  0  0  0  0  0  0  0  0
   54.8220   86.2140   26.1520 C   0  0  0  0  0  0  0  0  0  0  0  0
   55.4220   88.7230   23.4490 N   0  0  0  0  0  0  0  0  0  0  0  0
   55.5150   88.8270   22.0320 C   0  0  0  0  0  0  0  0  0  0  0  0
   55.7550   89.9620   21.4170 C   0  0  0  0  0  0  0  0  0  0  0  0
   55.9530   91.2130   22.0610 N   0  0  0  0  0  0  0  0  0  0  0  0
   55.1540   92.3330   21.6230 C   0  0  0  0  0  0  0  0  0  0  0  0
   54.5070   92.9520   22.8340 C   0  0  0  0  0  0  0  0  0  0  0  0
   55.4170   93.1100   23.9520 N   0  0  2  0  0  0  0  0  0  0  0  0
   56.2360   91.9830   24.3500 C   0  0  0  0  0  0  0  0  0  0  0  0
   56.9110   91.4290   23.1220 C   0  0  0  0  0  0  0  0  0  0  0  0
   55.4910   94.3610   24.6390 C   0  0  2  0  0  0  0  0  0  0  0  0
   54.4490   94.7470   25.4010 N   0  0  0  0  0  0  0  0  0  0  0  0
   54.4770   95.9320   26.0730 C   0  0  0  0  0  0  0  0  0  0  0  0
   55.5520   96.7470   25.9890 N   0  0  0  0  0  0  0  0  0  0  0  0
   56.6160   96.4190   25.2490 C   0  0  0  0  0  0  0  0  0  0  0  0
   57.7890   97.0270   24.9950 N   0  0  0  0  0  0  0  0  0  0  0  0
   58.4740   96.2400   24.1840 N   0  0  0  0  0  0  0  0  0  0  0  0
   57.7550   95.1160   23.9050 C   0  0  0  0  0  0  0  0  0  0  0  0
   56.5710   95.2020   24.5670 C   0  0  0  0  0  0  0  0  0  0  0  0
   58.2510   98.3210   25.5050 C   0  0  0  0  0  0  0  0  0  0  0  0
   55.3350   87.6410   21.2730 N   0  0  0  0  0  0  0  0  0  0  0  0
   55.0780   86.4300   21.9440 C   0  0  0  0  0  0  0  0  0  0  0  0
   54.9060   85.3270   21.3290 O   0  0  0  0  0  0  0  0  0  0  0  0
   54.5980   84.2450   23.4500 H   0  0  0  0  0  0  0  0  0  0  0  0
   55.2080   88.3000   26.1080 H   0  0  0  0  0  0  0  0  0  0  0  0
   54.7520   86.1330   27.2220 H   0  0  0  0  0  0  0  0  0  0  0  0
   55.5560   89.6020   23.9910 H   0  0  0  0  0  0  0  0  0  0  0  0
   55.8130   89.9710   20.3310 H   0  0  0  0  0  0  0  0  0  0  0  0
   55.7640   93.1240   21.1400 H   0  0  0  0  0  0  0  0  0  0  0  0
   54.3360   92.0120   20.9460 H   0  0  0  0  0  0  0  0  0  0  0  0
   54.1820   93.9830   22.4990 H   0  0  0  0  0  0  0  0  0  0  0  0
   53.5510   92.4600   23.1230 H   0  0  0  0  0  0  0  0  0  0  0  0
   57.0400   92.3840   25.0360 H   0  0  0  0  0  0  0  0  0  0  0  0
   55.6670   91.1790   24.8460 H   0  0  0  0  0  0  0  0  0  0  0  0
   57.5130   90.5270   23.3380 H   0  0  0  0  0  0  0  0  0  0  0  0
   57.6110   92.2380   22.7630 H   0  0  0  0  0  0  0  0  0  0  0  0
   53.6130   96.2010   26.6760 H   0  0  0  0  0  0  0  0  0  0  0  0
   58.0500   94.2920   23.2740 H   0  0  0  0  0  0  0  0  0  0  0  0
   59.3460   98.2980   25.7010 H   0  0  0  0  0  0  0  0  0  0  0  0
   57.7730   98.5180   26.4980 H   0  0  0  0  0  0  0  0  0  0  0  0
   58.0580   99.1270   24.7730 H   0  0  0  0  0  0  0  0  0  0  0  0
   55.3880   87.6360   20.2290 H   0  0  0  0  0  0  0  0  0  0  0  0
  2  7  1  0  0  0  0
  2  1  1  0  0  0  0
  3  2  2  0  0  0  0
  4  3  1  0  0  0  0
  4  5  2  0  0  0  0
  5  6  1  0  0  0  0
  6 31  1  0  0  0  0
  6  7  2  0  0  0  0
  7 32  1  0  0  0  0
  8 33  1  0  0  0  0
  8  5  1  0  0  0  0
  9  8  1  0  0  0  0
 10  9  2  0  0  0  0
 10 11  1  0  0  0  0
 11 16  1  0  0  0  0
 12 11  1  0  0  0  0
 12 13  1  0  0  0  0
 13 38  1  0  0  0  0
 14 13  1  1  0  0  0
 14 15  1  0  0  0  0
 14 17  1  0  0  0  0
 15 40  1  0  0  0  0
 15 39  1  0  0  0  0
 16 41  1  0  0  0  0
 16 15  1  0  0  0  0
 17 25  1  6  0  0  0
 17 18  1  0  0  0  0
 18 19  2  0  0  0  0
 19 43  1  0  0  0  0
 20 19  1  0  0  0  0
 21 20  1  0  0  0  0
 22 21  1  0  0  0  0
 22 26  1  0  0  0  0
 23 22  1  0  0  0  0
 24 23  2  0  0  0  0
 24 25  1  0  0  0  0
 25 21  2  0  0  0  0
 26 45  1  0  0  0  0
 26 46  1  0  0  0  0
 27 28  1  0  0  0  0
 27  9  1  0  0  0  0
 28  4  1  0  0  0  0
 29 28  2  0  0  0  0
 30  3  1  0  0  0  0
 34 10  1  0  0  0  0
 35 12  1  0  0  0  0
 36 12  1  0  0  0  0
 37 13  1  0  0  0  0
 42 16  1  0  0  0  0
 44 24  1  0  0  0  0
 47 26  1  0  0  0  0
 48 27  1  0  0  0  0
M  END
>  <Pose>
1

>  <Score>
-7.06

$$$$
