
 OpenBabel03202210083D

 49 52  0  0  0  0  0  0  0  0999 V2000
   52.0000   92.1330   18.6360 Cl  0  0  0  0  0  0  0  0  0  0  0  0
   52.9910   90.8060   19.2530 C   0  0  0  0  0  0  0  0  0  0  0  0
   53.9000   90.9450   20.2680 C   0  0  0  0  0  0  0  0  0  0  0  0
   54.5950   89.8840   20.7320 C   0  0  0  0  0  0  0  0  0  0  0  0
   54.4130   88.6350   20.2060 C   0  0  0  0  0  0  0  0  0  0  0  0
   53.4760   88.4880   19.1550 C   0  0  0  0  0  0  0  0  0  0  0  0
   52.7700   89.5530   18.6720 C   0  0  0  0  0  0  0  0  0  0  0  0
   51.8590   89.3770   17.6060 O   0  0  0  0  0  0  0  0  0  0  0  0
   55.0450   87.5840   20.6450 O   0  0  0  0  0  0  0  0  0  0  0  0
   55.9100   87.6980   21.6470 C   0  0  0  0  0  0  0  0  0  0  0  0
   56.4990   86.6860   22.0480 O   0  0  0  0  0  0  0  0  0  0  0  0
   56.1540   88.9500   22.2470 C   0  0  0  0  0  0  0  0  0  0  0  0
   55.5170   90.0600   21.8120 C   0  0  0  0  0  0  0  0  0  0  0  0
   55.6780   91.4710   22.2000 C   0  0  0  0  0  0  0  0  0  0  0  0
   54.7160   92.1590   22.9440 N   0  0  0  0  0  4  0  0  0  0  0  0
   54.5520   93.5310   22.9750 C   0  0  0  0  0  0  0  0  0  0  0  0
   54.2460   94.0160   24.4340 C   0  0  0  0  0  0  0  0  0  0  0  0
   55.6470   93.7850   25.0310 N   0  0  0  0  0  0  0  0  0  0  0  0
   55.9490   92.4410   25.1250 C   0  0  0  0  0  0  0  0  0  0  0  0
   54.8390   91.6900   24.3550 C   0  0  0  0  0  0  0  0  0  0  0  0
   56.3330   94.9930   25.2800 C   0  0  0  0  0  0  0  0  0  0  0  0
   57.4110   95.4600   24.6140 C   0  0  0  0  0  0  0  0  0  0  0  0
   57.8730   96.7980   24.7760 C   0  0  0  0  0  0  0  0  0  0  0  0
   57.2440   97.6760   25.6180 C   0  0  0  0  0  0  0  0  0  0  0  0
   56.1370   97.2020   26.3160 C   0  0  0  0  0  0  0  0  0  0  0  0
   55.6980   95.8970   26.1530 C   0  0  0  0  0  0  0  0  0  0  0  0
   57.7340   98.9700   25.7450 O   0  0  0  0  0  0  0  0  0  0  0  0
   56.9070  100.0240   26.2610 C   0  0  0  0  0  0  0  0  0  0  0  0
   54.0180   91.9170   20.6630 H   0  0  0  0  0  0  0  0  0  0  0  0
   53.3210   87.5060   18.7240 H   0  0  0  0  0  0  0  0  0  0  0  0
   56.9040   88.9810   23.0170 H   0  0  0  0  0  0  0  0  0  0  0  0
   56.4490   92.0670   21.7020 H   0  0  0  0  0  0  0  0  0  0  0  0
   56.4280   91.2320   23.1720 H   0  0  0  0  0  0  0  0  0  0  0  0
   53.7740   91.7310   22.6680 H   0  0  0  0  0  0  0  0  0  0  0  0
   55.4450   94.1820   22.7470 H   0  0  0  0  0  0  0  0  0  0  0  0
   53.7360   93.9900   22.3650 H   0  0  0  0  0  0  0  0  0  0  0  0
   53.5610   93.5150   24.9940 H   0  0  0  0  0  0  0  0  0  0  0  0
   54.1220   95.0930   24.3020 H   0  0  0  0  0  0  0  0  0  0  0  0
   56.9340   92.2380   24.6270 H   0  0  0  0  0  0  0  0  0  0  0  0
   56.0040   91.9600   26.1350 H   0  0  0  0  0  0  0  0  0  0  0  0
   53.9020   91.8370   24.8420 H   0  0  0  0  0  0  0  0  0  0  0  0
   55.0200   90.5940   24.3470 H   0  0  0  0  0  0  0  0  0  0  0  0
   57.9350   94.7680   23.9440 H   0  0  0  0  0  0  0  0  0  0  0  0
   58.7250   97.0980   24.2080 H   0  0  0  0  0  0  0  0  0  0  0  0
   55.6060   97.8650   26.9910 H   0  0  0  0  0  0  0  0  0  0  0  0
   54.8730   95.5640   26.7320 H   0  0  0  0  0  0  0  0  0  0  0  0
   56.6590  100.7280   25.3910 H   0  0  0  0  0  0  0  0  0  0  0  0
   57.3250  100.5520   27.1130 H   0  0  0  0  0  0  0  0  0  0  0  0
   55.8980   99.6750   26.5630 H   0  0  0  0  0  0  0  0  0  0  0  0
  1  2  1  0  0  0  0
  2  3  1  0  0  0  0
  3 29  1  0  0  0  0
  3  4  2  0  0  0  0
  4 13  1  0  0  0  0
  5  9  1  0  0  0  0
  5  4  1  0  0  0  0
  6  5  2  0  0  0  0
  7  6  1  0  0  0  0
  7  2  2  0  0  0  0
  8  7  1  0  0  0  0
  9 10  1  0  0  0  0
 10 11  2  0  0  0  0
 10 12  1  0  0  0  0
 12 31  1  0  0  0  0
 13 14  1  0  0  0  0
 13 12  2  0  0  0  0
 14 15  1  0  0  0  0
 14 33  1  0  0  0  0
 15 16  1  0  0  0  0
 15 20  1  0  0  0  0
 16 17  1  0  0  0  0
 17 37  1  0  0  0  0
 17 18  1  0  0  0  0
 18 19  1  0  0  0  0
 18 21  1  0  0  0  0
 19 40  1  0  0  0  0
 20 41  1  0  0  0  0
 20 19  1  0  0  0  0
 21 26  1  0  0  0  0
 22 23  1  0  0  0  0
 22 21  2  0  0  0  0
 23 24  2  0  0  0  0
 24 27  1  0  0  0  0
 24 25  1  0  0  0  0
 25 45  1  0  0  0  0
 26 25  2  0  0  0  0
 26 46  1  0  0  0  0
 27 28  1  0  0  0  0
 28 49  1  0  0  0  0
 28 48  1  0  0  0  0
 30  6  1  0  0  0  0
 32 14  1  0  0  0  0
 34 15  1  0  0  0  0
 35 16  1  0  0  0  0
 36 16  1  0  0  0  0
 38 17  1  0  0  0  0
 39 19  1  0  0  0  0
 42 20  1  0  0  0  0
 43 22  1  0  0  0  0
 44 23  1  0  0  0  0
 47 28  1  0  0  0  0
M  END
>  <Pose>
1

>  <Score>
-6.08

$$$$
