
 OpenBabel03202210083D

 47 50  0  0  1  0  0  0  0  0999 V2000
   53.0340   89.7560   17.8950 S   0  0  0  0  0  0  0  0  0  0  0  0
   54.0950   88.9530   18.5620 O   0  0  0  0  0  0  0  0  0  0  0  0
   53.4110   90.0420   16.4550 O   0  0  0  0  0  0  0  0  0  0  0  0
   52.7290   91.2360   18.6620 N   0  0  0  0  0  0  0  0  0  0  0  0
   53.8680   91.9180   19.0840 C   0  0  0  0  0  0  0  0  0  0  0  0
   53.7790   93.0110   20.0540 C   0  0  1  0  0  0  0  0  0  0  0  0
   52.3620   93.5060   20.1880 C   0  0  0  0  0  0  0  0  0  0  0  0
   51.4780   92.3430   20.4680 C   0  0  0  0  0  0  0  0  0  0  0  0
   51.5110   91.3900   19.3080 C   0  0  0  0  0  0  0  0  0  0  0  0
   54.3010   92.6970   21.4120 C   0  0  0  0  0  0  0  0  0  0  0  0
   54.1600   93.5110   22.4570 N   0  0  0  0  0  0  0  0  0  0  0  0
   54.6500   93.2000   23.6690 C   0  0  0  0  0  0  0  0  0  0  0  0
   54.6480   93.8320   24.8750 N   0  0  0  0  0  0  0  0  0  0  0  0
   55.2850   93.0390   25.7110 N   0  0  0  0  0  0  0  0  0  0  0  0
   55.6970   91.9370   25.1130 N   0  0  0  0  0  0  0  0  0  0  0  0
   55.3200   91.9950   23.8310 C   0  0  0  0  0  0  0  0  0  0  0  0
   55.4730   91.1390   22.7530 C   0  0  0  0  0  0  0  0  0  0  0  0
   54.9480   91.5410   21.5880 N   0  0  0  0  0  0  0  0  0  0  0  0
   56.1400   89.9300   22.8940 O   0  0  0  0  0  0  0  0  0  0  0  0
   54.0640   95.1040   25.1650 C   0  0  0  0  0  0  0  0  0  0  0  0
   55.0500   96.1280   25.5890 C   0  0  0  0  0  0  0  0  0  0  0  0
   54.7390   96.9350   26.6540 C   0  0  0  0  0  0  0  0  0  0  0  0
   55.6070   97.9210   27.1160 C   0  0  0  0  0  0  0  0  0  0  0  0
   56.8250   98.1100   26.4990 C   0  0  0  0  0  0  0  0  0  0  0  0
   57.1450   97.3030   25.4300 C   0  0  0  0  0  0  0  0  0  0  0  0
   56.2680   96.3190   24.9760 C   0  0  0  0  0  0  0  0  0  0  0  0
   53.2080   96.7490   27.4830 Cl  0  0  0  0  0  0  0  0  0  0  0  0
   51.5400   88.7580   17.8030 C   0  0  0  0  0  0  0  0  0  0  0  0
   54.4260   92.2690   18.1630 H   0  0  0  0  0  0  0  0  0  0  0  0
   54.5810   91.1480   19.5150 H   0  0  0  0  0  0  0  0  0  0  0  0
   54.3540   93.9080   19.6510 H   0  0  0  0  0  0  0  0  0  0  0  0
   52.3070   94.3000   20.9620 H   0  0  0  0  0  0  0  0  0  0  0  0
   52.0170   93.9640   19.2300 H   0  0  0  0  0  0  0  0  0  0  0  0
   50.4230   92.7630   20.5230 H   0  0  0  0  0  0  0  0  0  0  0  0
   51.6180   91.8370   21.4230 H   0  0  0  0  0  0  0  0  0  0  0  0
   51.0830   90.4200   19.6750 H   0  0  0  0  0  0  0  0  0  0  0  0
   50.7530   91.7590   18.5580 H   0  0  0  0  0  0  0  0  0  0  0  0
   56.9870   89.8800   23.4400 H   0  0  0  0  0  0  0  0  0  0  0  0
   53.2930   95.0620   25.9670 H   0  0  0  0  0  0  0  0  0  0  0  0
   53.6050   95.5010   24.2150 H   0  0  0  0  0  0  0  0  0  0  0  0
   55.3750   98.5650   27.9530 H   0  0  0  0  0  0  0  0  0  0  0  0
   57.5150   98.8860   26.8580 H   0  0  0  0  0  0  0  0  0  0  0  0
   58.1160   97.4530   24.9380 H   0  0  0  0  0  0  0  0  0  0  0  0
   56.5370   95.6960   24.1350 H   0  0  0  0  0  0  0  0  0  0  0  0
   51.2440   88.4050   18.7990 H   0  0  0  0  0  0  0  0  0  0  0  0
   50.7760   89.4000   17.3190 H   0  0  0  0  0  0  0  0  0  0  0  0
   51.8120   87.8680   17.2000 H   0  0  0  0  0  0  0  0  0  0  0  0
  1  2  2  0  0  0  0
  1  4  1  0  0  0  0
  3  1  2  0  0  0  0
  4  5  1  0  0  0  0
  4  9  1  0  0  0  0
  5 30  1  0  0  0  0
  5  6  1  0  0  0  0
  6 31  1  6  0  0  0
  6  7  1  0  0  0  0
  6 10  1  0  0  0  0
  7  8  1  0  0  0  0
  7 32  1  0  0  0  0
  8 34  1  0  0  0  0
  8 35  1  0  0  0  0
  9 36  1  0  0  0  0
  9  8  1  0  0  0  0
 10 18  1  0  0  0  0
 10 11  2  0  0  0  0
 11 12  1  0  0  0  0
 12 16  2  0  0  0  0
 12 13  1  0  0  0  0
 13 20  1  0  0  0  0
 13 14  1  0  0  0  0
 15 14  2  0  0  0  0
 16 15  1  0  0  0  0
 17 19  1  0  0  0  0
 17 16  1  0  0  0  0
 18 17  2  0  0  0  0
 19 38  1  0  0  0  0
 20 21  1  0  0  0  0
 20 39  1  0  0  0  0
 21 22  1  0  0  0  0
 22 23  2  0  0  0  0
 22 27  1  0  0  0  0
 23 41  1  0  0  0  0
 24 42  1  0  0  0  0
 24 23  1  0  0  0  0
 25 24  2  0  0  0  0
 26 25  1  0  0  0  0
 26 21  2  0  0  0  0
 28  1  1  0  0  0  0
 28 45  1  0  0  0  0
 29  5  1  0  0  0  0
 33  7  1  0  0  0  0
 37  9  1  0  0  0  0
 40 20  1  0  0  0  0
 43 25  1  0  0  0  0
 44 26  1  0  0  0  0
 46 28  1  0  0  0  0
 47 28  1  0  0  0  0
M  END
>  <Pose>
1

>  <Score>
-6.02

$$$$
