
 OpenBabel03202210083D

 54 56  0  0  1  0  0  0  0  0999 V2000
   51.1940  100.4230   27.1260 S   0  0  0  0  0  0  0  0  0  0  0  0
   51.4240  101.7160   26.3330 O   0  0  0  0  0  0  0  0  0  0  0  0
   51.1620   99.3470   26.0680 O   0  0  0  0  0  0  0  0  0  0  0  0
   52.4740  100.2640   28.2080 N   0  0  0  0  0  0  0  0  0  0  0  0
   53.7040   99.8030   27.5310 C   0  0  0  0  0  0  0  0  0  0  0  0
   53.4500   98.4210   27.0530 C   0  0  2  0  0  0  0  0  0  0  0  0
   52.9010   97.5310   27.8990 O   0  0  0  0  0  0  0  0  0  0  0  0
   52.2850   97.9480   29.0150 C   0  0  0  0  0  0  0  0  0  0  0  0
   52.3380   99.4040   29.3260 C   0  0  0  0  0  0  0  0  0  0  0  0
   54.7530   97.8840   26.5600 C   0  0  0  0  0  0  0  0  0  0  0  0
   55.6770   98.7160   26.3570 O   0  0  0  0  0  0  0  0  0  0  0  0
   55.0190   96.5250   26.3100 N   0  0  0  0  0  0  0  0  0  0  0  0
   56.0580   96.0480   25.4170 C   0  0  0  0  0  0  0  0  0  0  0  0
   56.0850   94.5370   25.5280 C   0  0  0  0  0  0  0  0  0  0  0  0
   54.8320   93.9230   25.1300 N   0  0  0  0  0  0  0  0  0  0  0  0
   53.7500   94.5820   25.7900 C   0  0  0  0  0  0  0  0  0  0  0  0
   54.2390   95.4560   26.9520 C   0  0  0  0  0  0  0  0  0  0  0  0
   54.7660   93.9200   23.7050 C   0  0  0  0  0  0  0  0  0  0  0  0
   55.4620   92.7510   23.0650 C   0  0  0  0  0  0  0  0  0  0  0  0
   55.1940   92.6390   21.5650 C   0  0  0  0  0  0  0  0  0  0  0  0
   54.7380   91.5940   22.5340 C   0  0  0  0  0  0  0  0  0  0  0  0
   49.6480  100.6150   27.8900 C   0  0  0  0  0  0  0  0  0  0  0  0
   48.9430   99.5400   28.3840 C   0  0  0  0  0  0  0  0  0  0  0  0
   47.6860   99.6760   28.9420 C   0  0  0  0  0  0  0  0  0  0  0  0
   47.1090  100.9190   29.0140 C   0  0  0  0  0  0  0  0  0  0  0  0
   47.8060  102.0140   28.5240 C   0  0  0  0  0  0  0  0  0  0  0  0
   49.0480  101.8720   27.9720 C   0  0  0  0  0  0  0  0  0  0  0  0
   49.6630   97.9180   28.4060 Cl  0  0  0  0  0  0  0  0  0  0  0  0
   54.4930   99.7960   28.2810 H   0  0  0  0  0  0  0  0  0  0  0  0
   53.9720  100.4410   26.6900 H   0  0  0  0  0  0  0  0  0  0  0  0
   52.7930   98.4370   26.1270 H   0  0  0  0  0  0  0  0  0  0  0  0
   52.7410   97.3950   29.8930 H   0  0  0  0  0  0  0  0  0  0  0  0
   51.2300   97.6210   29.0120 H   0  0  0  0  0  0  0  0  0  0  0  0
   51.5620   99.7490   30.0050 H   0  0  0  0  0  0  0  0  0  0  0  0
   53.3010   99.5740   29.9340 H   0  0  0  0  0  0  0  0  0  0  0  0
   55.8820   96.3940   24.3960 H   0  0  0  0  0  0  0  0  0  0  0  0
   57.0580   96.3880   25.7570 H   0  0  0  0  0  0  0  0  0  0  0  0
   56.9040   94.1650   24.8450 H   0  0  0  0  0  0  0  0  0  0  0  0
   56.4010   94.2790   26.5410 H   0  0  0  0  0  0  0  0  0  0  0  0
   53.0790   93.8380   26.2360 H   0  0  0  0  0  0  0  0  0  0  0  0
   53.2330   95.2770   25.0960 H   0  0  0  0  0  0  0  0  0  0  0  0
   53.3310   95.9370   27.3670 H   0  0  0  0  0  0  0  0  0  0  0  0
   54.8240   94.8930   27.6790 H   0  0  0  0  0  0  0  0  0  0  0  0
   53.7180   94.0270   23.3770 H   0  0  0  0  0  0  0  0  0  0  0  0
   55.2890   94.8460   23.3500 H   0  0  0  0  0  0  0  0  0  0  0  0
   56.5240   92.6100   23.3510 H   0  0  0  0  0  0  0  0  0  0  0  0
   54.4410   93.3040   21.1080 H   0  0  0  0  0  0  0  0  0  0  0  0
   56.0400   92.4070   20.8950 H   0  0  0  0  0  0  0  0  0  0  0  0
   55.2670   90.6300   22.4620 H   0  0  0  0  0  0  0  0  0  0  0  0
   53.6390   91.4850   22.6020 H   0  0  0  0  0  0  0  0  0  0  0  0
   47.1280   98.8320   29.3300 H   0  0  0  0  0  0  0  0  0  0  0  0
   46.1290  101.0140   29.4520 H   0  0  0  0  0  0  0  0  0  0  0  0
   47.3130  102.9710   28.6040 H   0  0  0  0  0  0  0  0  0  0  0  0
   49.6050  102.7190   27.5840 H   0  0  0  0  0  0  0  0  0  0  0  0
  1 22  1  0  0  0  0
  1  4  1  0  0  0  0
  2  1  2  0  0  0  0
  3  1  2  0  0  0  0
  4  9  1  0  0  0  0
  5  4  1  0  0  0  0
  5 29  1  0  0  0  0
  6 31  1  6  0  0  0
  6  5  1  0  0  0  0
  6  7  1  0  0  0  0
  7  8  1  0  0  0  0
  8  9  1  0  0  0  0
  8 32  1  0  0  0  0
  9 35  1  0  0  0  0
  9 34  1  0  0  0  0
 10  6  1  0  0  0  0
 11 10  2  0  0  0  0
 12 10  1  0  0  0  0
 12 17  1  0  0  0  0
 13 14  1  0  0  0  0
 13 37  1  0  0  0  0
 13 12  1  0  0  0  0
 14 39  1  0  0  0  0
 15 14  1  0  0  0  0
 15 16  1  0  0  0  0
 16 40  1  0  0  0  0
 16 17  1  0  0  0  0
 17 42  1  0  0  0  0
 17 43  1  0  0  0  0
 18 15  1  0  0  0  0
 19 46  1  0  0  0  0
 19 18  1  0  0  0  0
 20 21  1  0  0  0  0
 20 19  1  0  0  0  0
 21 50  1  0  0  0  0
 21 19  1  0  0  0  0
 22 27  2  0  0  0  0
 22 23  1  0  0  0  0
 23 24  2  0  0  0  0
 24 25  1  0  0  0  0
 24 51  1  0  0  0  0
 25 52  1  0  0  0  0
 26 53  1  0  0  0  0
 26 25  2  0  0  0  0
 27 26  1  0  0  0  0
 30  5  1  0  0  0  0
 33  8  1  0  0  0  0
 36 13  1  0  0  0  0
 38 14  1  0  0  0  0
 41 16  1  0  0  0  0
 44 18  1  0  0  0  0
 45 18  1  0  0  0  0
 47 20  1  0  0  0  0
 48 20  1  0  0  0  0
 49 21  1  0  0  0  0
 54 27  1  0  0  0  0
M  END
>  <Pose>
1

>  <Score>
-6.05

$$$$
