
 OpenBabel03202210083D

 46 49  0  0  1  0  0  0  0  0999 V2000
   53.1530   80.6660   23.7010 Cl  0  0  0  0  0  0  0  0  0  0  0  0
   52.4300   82.1620   23.1530 C   0  0  0  0  0  0  0  0  0  0  0  0
   52.7460   82.6150   21.8630 C   0  0  0  0  0  0  0  0  0  0  0  0
   52.1960   83.7840   21.4050 C   0  0  0  0  0  0  0  0  0  0  0  0
   51.3360   84.4680   22.2710 C   0  0  0  0  0  0  0  0  0  0  0  0
   51.0340   84.0140   23.5350 C   0  0  0  0  0  0  0  0  0  0  0  0
   51.5860   82.8350   24.0020 C   0  0  0  0  0  0  0  0  0  0  0  0
   49.9480   84.8920   24.6050 Cl  0  0  0  0  0  0  0  0  0  0  0  0
   52.4710   84.3330   20.0690 C   0  0  2  0  0  0  0  0  0  0  0  0
   53.3950   83.4660   19.3190 C   0  0  0  0  0  0  0  0  0  0  0  0
   53.9290   82.3090   19.7930 C   0  0  0  0  0  0  0  0  0  0  0  0
   54.7830   81.5410   19.0550 N   0  0  0  0  0  0  0  0  0  0  0  0
   55.0880   81.9620   17.8300 C   0  0  0  0  0  0  0  0  0  0  0  0
   55.8800   81.2800   17.1060 O   0  0  0  0  0  0  0  0  0  0  0  0
   54.5810   83.1030   17.3210 N   0  0  0  0  0  0  0  0  0  0  0  0
   53.7430   83.8630   18.0340 C   0  0  0  0  0  0  0  0  0  0  0  0
   53.2700   84.9270   17.5600 O   0  0  0  0  0  0  0  0  0  0  0  0
   54.9520   83.5090   15.9730 C   0  0  0  0  0  0  0  0  0  0  0  0
   55.3350   80.3140   19.5900 C   0  0  0  0  0  0  0  0  0  0  0  0
   53.6030   81.8930   21.0550 O   0  0  0  0  0  0  0  0  0  0  0  0
   52.9820   85.7420   20.1510 C   0  0  0  0  0  0  0  0  0  0  0  0
   54.2080   86.0390   20.6950 C   0  0  0  0  0  0  0  0  0  0  0  0
   54.6880   87.2890   20.7910 N   0  0  0  0  0  0  0  0  0  0  0  0
   53.9250   88.2990   20.3320 C   0  0  0  0  0  0  0  0  0  0  0  0
   54.3860   89.4740   20.4290 O   0  0  0  0  0  0  0  0  0  0  0  0
   52.7180   88.0530   19.7920 N   0  0  0  0  0  0  0  0  0  0  0  0
   52.2220   86.8130   19.6850 C   0  0  0  0  0  0  0  0  0  0  0  0
   51.1010   86.5530   19.1870 O   0  0  0  0  0  0  0  0  0  0  0  0
   51.9370   89.1710   19.3150 C   0  0  0  0  0  0  0  0  0  0  0  0
   55.9890   87.5710   21.3680 C   0  0  0  0  0  0  0  0  0  0  0  0
   54.9890   85.0040   21.1660 O   0  0  0  0  0  0  0  0  0  0  0  0
   50.8980   85.3930   21.9140 H   0  0  0  0  0  0  0  0  0  0  0  0
   51.3700   82.4510   24.9860 H   0  0  0  0  0  0  0  0  0  0  0  0
   51.5220   84.3890   19.4610 H   0  0  0  0  0  0  0  0  0  0  0  0
   55.7140   82.7950   15.5610 H   0  0  0  0  0  0  0  0  0  0  0  0
   55.3320   84.5410   15.9200 H   0  0  0  0  0  0  0  0  0  0  0  0
   54.0970   83.4440   15.2630 H   0  0  0  0  0  0  0  0  0  0  0  0
   55.0790   80.2040   20.6740 H   0  0  0  0  0  0  0  0  0  0  0  0
   56.4440   80.3000   19.5440 H   0  0  0  0  0  0  0  0  0  0  0  0
   54.8800   79.4620   19.0540 H   0  0  0  0  0  0  0  0  0  0  0  0
   51.3970   88.8900   18.3990 H   0  0  0  0  0  0  0  0  0  0  0  0
   52.5690   90.0530   19.0810 H   0  0  0  0  0  0  0  0  0  0  0  0
   51.2290   89.5380   20.1150 H   0  0  0  0  0  0  0  0  0  0  0  0
   56.5950   88.0530   20.5440 H   0  0  0  0  0  0  0  0  0  0  0  0
   55.9420   88.3410   22.1700 H   0  0  0  0  0  0  0  0  0  0  0  0
   56.5230   86.6620   21.6500 H   0  0  0  0  0  0  0  0  0  0  0  0
  2  1  1  0  0  0  0
  2  7  1  0  0  0  0
  3  2  2  0  0  0  0
  4  3  1  0  0  0  0
  4  5  2  0  0  0  0
  5  6  1  0  0  0  0
  6  7  2  0  0  0  0
  6  8  1  0  0  0  0
  7 33  1  0  0  0  0
  9 34  1  6  0  0  0
  9 21  1  0  0  0  0
  9  4  1  0  0  0  0
 10 11  2  0  0  0  0
 10  9  1  0  0  0  0
 11 20  1  0  0  0  0
 12 19  1  0  0  0  0
 12 11  1  0  0  0  0
 13 12  1  0  0  0  0
 14 13  2  0  0  0  0
 15 13  1  0  0  0  0
 15 16  1  0  0  0  0
 16 10  1  0  0  0  0
 17 16  2  0  0  0  0
 18 15  1  0  0  0  0
 19 38  1  0  0  0  0
 20  3  1  0  0  0  0
 21 22  1  0  0  0  0
 22 23  1  0  0  0  0
 22 31  2  0  0  0  0
 23 30  1  0  0  0  0
 24 25  2  0  0  0  0
 24 23  1  0  0  0  0
 26 24  1  0  0  0  0
 27 26  1  0  0  0  0
 27 21  1  0  0  0  0
 28 27  2  0  0  0  0
 29 26  1  0  0  0  0
 29 43  1  0  0  0  0
 30 46  1  0  0  0  0
 30 45  1  0  0  0  0
 32  5  1  0  0  0  0
 35 18  1  0  0  0  0
 36 18  1  0  0  0  0
 37 18  1  0  0  0  0
 39 19  1  0  0  0  0
 40 19  1  0  0  0  0
 41 29  1  0  0  0  0
 42 29  1  0  0  0  0
 44 30  1  0  0  0  0
M  END
>  <Pose>
1

>  <Score>
-5.54

$$$$
