
 OpenBabel03202210083D

 51 55  0  0  1  0  0  0  0  0999 V2000
   55.5830   87.5430   24.5600 Cl  0  0  0  0  0  0  0  0  0  0  0  0
   54.6050   86.2400   23.9200 C   0  0  0  0  0  0  0  0  0  0  0  0
   54.1690   86.2220   22.6230 C   0  0  0  0  0  0  0  0  0  0  0  0
   53.3900   85.1610   22.1530 C   0  0  0  0  0  0  0  0  0  0  0  0
   53.0840   84.1570   23.0240 C   0  0  0  0  0  0  0  0  0  0  0  0
   53.5310   84.1730   24.3550 C   0  0  0  0  0  0  0  0  0  0  0  0
   54.2920   85.2100   24.8140 C   0  0  0  0  0  0  0  0  0  0  0  0
   52.2890   83.1910   22.3440 N   0  0  0  0  0  0  0  0  0  0  0  0
   52.0900   83.5980   21.0120 C   0  0  0  0  0  0  0  0  0  0  0  0
   51.4160   82.9380   20.1590 O   0  0  0  0  0  0  0  0  0  0  0  0
   52.7920   84.8740   20.8390 C   0  0  1  0  0  0  0  0  0  0  0  0
   51.8900   85.9660   20.5450 N   0  0  0  0  0  0  0  0  0  0  0  0
   52.1510   86.4790   19.2380 C   0  0  2  0  0  0  0  0  0  0  0  0
   53.0970   85.5270   18.6200 C   0  0  1  0  0  0  0  0  0  0  0  0
   53.8230   84.8280   19.7360 C   0  0  2  0  0  0  0  0  0  0  0  0
   54.0170   83.4660   19.1920 C   0  0  0  0  0  0  0  0  0  0  0  0
   54.8360   82.5870   19.5610 O   0  0  0  0  0  0  0  0  0  0  0  0
   53.0930   83.2380   18.1070 N   0  0  0  0  0  0  0  0  0  0  0  0
   52.3020   84.4150   17.9900 C   0  0  0  0  0  0  0  0  0  0  0  0
   51.1700   84.4700   17.4560 O   0  0  0  0  0  0  0  0  0  0  0  0
   53.0040   82.0340   17.3090 C   0  0  0  0  0  0  0  0  0  0  0  0
   54.1490   81.8750   16.3460 C   0  0  1  0  0  0  0  0  0  0  0  0
   54.0380   80.6530   15.6870 O   0  0  0  0  0  0  0  0  0  0  0  0
   53.3240   80.8760   14.5320 C   0  0  0  0  0  0  0  0  0  0  0  0
   53.5550   82.3100   14.1070 C   0  0  0  0  0  0  0  0  0  0  0  0
   54.2370   82.9370   15.3070 C   0  0  0  0  0  0  0  0  0  0  0  0
   52.6240   87.9080   19.2540 C   0  0  0  0  0  0  0  0  0  0  0  0
   52.6320   88.5650   17.9600 C   0  0  0  0  0  0  0  0  0  0  0  0
   51.5590   88.7700   17.3530 O   0  0  0  0  0  0  0  0  0  0  0  0
   53.8410   88.9820   17.3630 N   0  0  0  0  0  0  0  0  0  0  0  0
   54.4080   87.0030   21.9480 H   0  0  0  0  0  0  0  0  0  0  0  0
   53.2590   83.3580   24.9900 H   0  0  0  0  0  0  0  0  0  0  0  0
   54.6270   85.2060   25.8400 H   0  0  0  0  0  0  0  0  0  0  0  0
   51.8960   82.2920   22.7580 H   0  0  0  0  0  0  0  0  0  0  0  0
   51.9740   86.7580   21.2210 H   0  0  0  0  0  0  0  0  0  0  0  0
   51.1720   86.4110   18.6780 H   0  0  0  0  0  0  0  0  0  0  0  0
   53.7900   85.9560   17.8680 H   0  0  0  0  0  0  0  0  0  0  0  0
   54.7770   85.3130   20.0130 H   0  0  0  0  0  0  0  0  0  0  0  0
   52.9600   81.1470   17.9740 H   0  0  0  0  0  0  0  0  0  0  0  0
   52.0310   82.0350   16.7450 H   0  0  0  0  0  0  0  0  0  0  0  0
   55.0980   81.8510   16.9190 H   0  0  0  0  0  0  0  0  0  0  0  0
   53.7320   80.1920   13.7530 H   0  0  0  0  0  0  0  0  0  0  0  0
   52.2450   80.6370   14.6250 H   0  0  0  0  0  0  0  0  0  0  0  0
   54.2540   82.3350   13.2540 H   0  0  0  0  0  0  0  0  0  0  0  0
   52.5990   82.8300   13.8980 H   0  0  0  0  0  0  0  0  0  0  0  0
   53.7910   83.8920   15.5990 H   0  0  0  0  0  0  0  0  0  0  0  0
   55.3120   83.1780   15.0550 H   0  0  0  0  0  0  0  0  0  0  0  0
   51.9100   88.4670   19.9240 H   0  0  0  0  0  0  0  0  0  0  0  0
   53.5960   87.9480   19.7920 H   0  0  0  0  0  0  0  0  0  0  0  0
   54.0680   90.0030   17.3220 H   0  0  0  0  0  0  0  0  0  0  0  0
   54.5420   88.3380   16.9490 H   0  0  0  0  0  0  0  0  0  0  0  0
  2  1  1  0  0  0  0
  2  7  1  0  0  0  0
  3  2  2  0  0  0  0
  4  3  1  0  0  0  0
  4  5  2  0  0  0  0
  5  6  1  0  0  0  0
  6  7  2  0  0  0  0
  6 32  1  0  0  0  0
  7 33  1  0  0  0  0
  8 34  1  0  0  0  0
  8  5  1  0  0  0  0
  9  8  1  0  0  0  0
 10  9  2  0  0  0  0
 11  9  1  1  0  0  0
 11  4  1  0  0  0  0
 12 11  1  0  0  0  0
 12 35  1  0  0  0  0
 13 36  1  6  0  0  0
 13 27  1  0  0  0  0
 13 12  1  0  0  0  0
 14 37  1  6  0  0  0
 14 13  1  0  0  0  0
 14 15  1  0  0  0  0
 15 38  1  1  0  0  0
 15 11  1  0  0  0  0
 16 17  2  0  0  0  0
 16 15  1  0  0  0  0
 18 16  1  0  0  0  0
 19 18  1  0  0  0  0
 19 14  1  0  0  0  0
 20 19  2  0  0  0  0
 21 39  1  0  0  0  0
 21 18  1  0  0  0  0
 22 41  1  1  0  0  0
 22 21  1  0  0  0  0
 23 22  1  0  0  0  0
 24 43  1  0  0  0  0
 24 23  1  0  0  0  0
 25 24  1  0  0  0  0
 25 26  1  0  0  0  0
 26 46  1  0  0  0  0
 26 22  1  0  0  0  0
 27 49  1  0  0  0  0
 27 48  1  0  0  0  0
 28 27  1  0  0  0  0
 29 28  2  0  0  0  0
 30 28  1  0  0  0  0
 31  3  1  0  0  0  0
 40 21  1  0  0  0  0
 42 24  1  0  0  0  0
 44 25  1  0  0  0  0
 45 25  1  0  0  0  0
 47 26  1  0  0  0  0
 50 30  1  0  0  0  0
 51 30  1  0  0  0  0
M  END
>  <Pose>
1

>  <Score>
-6.15

$$$$
