
 OpenBabel03202210083D

 53 56  0  0  0  0  0  0  0  0999 V2000
   55.9960   97.7960   26.8720 Cl  0  0  0  0  0  0  0  0  0  0  0  0
   55.7240   96.3570   25.9220 C   0  0  0  0  0  0  0  0  0  0  0  0
   54.5040   95.7210   25.9040 C   0  0  0  0  0  0  0  0  0  0  0  0
   54.2780   94.5990   25.1670 C   0  0  0  0  0  0  0  0  0  0  0  0
   55.2900   94.0170   24.3730 C   0  0  0  0  0  0  0  0  0  0  0  0
   56.5330   94.6830   24.4040 C   0  0  0  0  0  0  0  0  0  0  0  0
   56.7240   95.8050   25.1540 C   0  0  0  0  0  0  0  0  0  0  0  0
   55.1350   92.9520   23.6540 O   0  0  0  0  0  0  0  0  0  0  0  0
   54.9450   91.8930   22.9540 C   0  0  0  0  0  0  0  0  0  0  0  0
   54.5470   91.8910   21.5330 C   0  0  0  0  0  0  0  0  0  0  0  0
   53.8290   92.9230   21.1850 O   0  0  0  0  0  0  0  0  0  0  0  0
   54.8160   90.9760   20.5270 N   0  0  0  0  0  0  0  0  0  0  0  0
   53.6540   90.2680   19.9060 C   0  0  0  0  0  0  0  0  0  0  0  0
   54.0940   88.8370   19.7240 C   0  0  0  0  0  0  0  0  0  0  0  0
   55.2070   88.4690   20.5800 N   0  0  0  0  0  0  0  0  0  0  0  0
   56.4420   89.1830   20.3960 C   0  0  0  0  0  0  0  0  0  0  0  0
   56.0790   90.5910   19.9540 C   0  0  0  0  0  0  0  0  0  0  0  0
   55.0530   87.4520   21.5460 C   0  0  0  0  0  0  0  0  0  0  0  0
   54.2000   86.4100   21.3440 N   0  0  0  0  0  0  0  0  0  0  0  0
   54.0230   85.4300   22.2200 C   0  0  0  0  0  0  0  0  0  0  0  0
   54.7390   85.4870   23.3720 N   0  0  0  0  0  0  0  0  0  0  0  0
   55.5860   86.4650   23.6400 C   0  0  0  0  0  0  0  0  0  0  0  0
   55.7660   87.4900   22.7170 C   0  0  0  0  0  0  0  0  0  0  0  0
   53.1390   84.3400   22.0260 N   0  0  0  0  0  0  0  0  0  0  0  0
   53.3560   83.4170   20.9170 C   0  0  0  0  0  0  0  0  0  0  0  0
   52.0210   83.3690   20.1690 C   0  0  0  0  0  0  0  0  0  0  0  0
   51.0330   82.9120   21.0000 O   0  0  0  0  0  0  0  0  0  0  0  0
   50.7690   83.7140   22.0840 C   0  0  0  0  0  0  0  0  0  0  0  0
   52.0050   84.0770   22.8760 C   0  0  0  0  0  0  0  0  0  0  0  0
   53.7250   96.1760   26.5200 H   0  0  0  0  0  0  0  0  0  0  0  0
   53.3290   94.1260   25.1610 H   0  0  0  0  0  0  0  0  0  0  0  0
   57.3200   94.2460   23.7970 H   0  0  0  0  0  0  0  0  0  0  0  0
   57.6910   96.2970   25.1580 H   0  0  0  0  0  0  0  0  0  0  0  0
   54.1330   91.2130   23.4460 H   0  0  0  0  0  0  0  0  0  0  0  0
   55.8170   91.1210   22.9860 H   0  0  0  0  0  0  0  0  0  0  0  0
   53.5210   90.7700   18.9270 H   0  0  0  0  0  0  0  0  0  0  0  0
   52.7670   90.3610   20.5700 H   0  0  0  0  0  0  0  0  0  0  0  0
   54.4930   88.7310   18.6720 H   0  0  0  0  0  0  0  0  0  0  0  0
   53.2550   88.1090   19.8810 H   0  0  0  0  0  0  0  0  0  0  0  0
   57.1140   89.1810   21.2570 H   0  0  0  0  0  0  0  0  0  0  0  0
   57.0250   88.6790   19.5690 H   0  0  0  0  0  0  0  0  0  0  0  0
   55.8930   90.4780   18.8330 H   0  0  0  0  0  0  0  0  0  0  0  0
   56.8820   91.3120   20.0180 H   0  0  0  0  0  0  0  0  0  0  0  0
   56.1530   86.4910   24.5750 H   0  0  0  0  0  0  0  0  0  0  0  0
   56.4690   88.2910   22.9420 H   0  0  0  0  0  0  0  0  0  0  0  0
   54.1550   83.7680   20.2380 H   0  0  0  0  0  0  0  0  0  0  0  0
   53.5370   82.4310   21.3430 H   0  0  0  0  0  0  0  0  0  0  0  0
   51.8280   84.3950   19.7750 H   0  0  0  0  0  0  0  0  0  0  0  0
   52.1460   82.6870   19.3280 H   0  0  0  0  0  0  0  0  0  0  0  0
   50.2400   84.6550   21.8150 H   0  0  0  0  0  0  0  0  0  0  0  0
   50.0960   83.1560   22.7680 H   0  0  0  0  0  0  0  0  0  0  0  0
   51.7470   84.9740   23.4780 H   0  0  0  0  0  0  0  0  0  0  0  0
   52.2360   83.2620   23.5820 H   0  0  0  0  0  0  0  0  0  0  0  0
  2  1  1  0  0  0  0
  3  2  1  0  0  0  0
  3 30  1  0  0  0  0
  4  3  2  0  0  0  0
  5  6  2  0  0  0  0
  5  4  1  0  0  0  0
  6  7  1  0  0  0  0
  7 33  1  0  0  0  0
  7  2  2  0  0  0  0
  8  5  1  0  0  0  0
  9 35  1  0  0  0  0
  9 34  1  0  0  0  0
  9  8  1  0  0  0  0
 10  9  1  0  0  0  0
 11 10  2  0  0  0  0
 12 10  1  0  0  0  0
 13 12  1  0  0  0  0
 13 37  1  0  0  0  0
 14 39  1  0  0  0  0
 14 13  1  0  0  0  0
 14 15  1  0  0  0  0
 15 18  1  0  0  0  0
 16 15  1  0  0  0  0
 16 40  1  0  0  0  0
 17 43  1  0  0  0  0
 17 16  1  0  0  0  0
 17 12  1  0  0  0  0
 18 23  2  0  0  0  0
 19 18  1  0  0  0  0
 19 20  2  0  0  0  0
 20 21  1  0  0  0  0
 21 22  2  0  0  0  0
 22 44  1  0  0  0  0
 23 45  1  0  0  0  0
 23 22  1  0  0  0  0
 24 20  1  0  0  0  0
 24 29  1  0  0  0  0
 25 47  1  0  0  0  0
 25 24  1  0  0  0  0
 26 25  1  0  0  0  0
 26 27  1  0  0  0  0
 27 28  1  0  0  0  0
 28 51  1  0  0  0  0
 28 29  1  0  0  0  0
 29 52  1  0  0  0  0
 29 53  1  0  0  0  0
 31  4  1  0  0  0  0
 32  6  1  0  0  0  0
 36 13  1  0  0  0  0
 38 14  1  0  0  0  0
 41 16  1  0  0  0  0
 42 17  1  0  0  0  0
 46 25  1  0  0  0  0
 48 26  1  0  0  0  0
 49 26  1  0  0  0  0
 50 28  1  0  0  0  0
M  END
>  <Pose>
1

>  <Score>
-7.16

$$$$
