
 OpenBabel03202210083D

 45 49  0  0  0  0  0  0  0  0999 V2000
   46.3210  104.1970   31.9930 Cl  0  0  0  0  0  0  0  0  0  0  0  0
   47.4650  103.1130   31.2640 C   0  0  0  0  0  0  0  0  0  0  0  0
   48.7470  103.0470   31.7480 C   0  0  0  0  0  0  0  0  0  0  0  0
   49.6580  102.1890   31.1720 C   0  0  0  0  0  0  0  0  0  0  0  0
   49.3230  101.3810   30.1110 C   0  0  0  0  0  0  0  0  0  0  0  0
   48.0290  101.4700   29.6470 C   0  0  0  0  0  0  0  0  0  0  0  0
   47.1010  102.3250   30.2110 C   0  0  0  0  0  0  0  0  0  0  0  0
   50.2170  100.4780   29.4780 N   0  0  0  0  0  0  0  0  0  0  0  0
   50.6410   99.3130   29.9340 N   0  0  0  0  0  0  0  0  0  0  0  0
   51.4690   98.7290   29.0890 N   0  0  0  0  0  0  0  0  0  0  0  0
   51.6260   99.5160   28.0110 C   0  0  0  0  0  0  0  0  0  0  0  0
   50.8290  100.6120   28.2740 C   0  0  0  0  0  0  0  0  0  0  0  0
   50.7840  101.5940   27.3460 N   0  0  0  0  0  0  0  0  0  0  0  0
   51.5070  101.4690   26.2170 C   0  0  0  0  0  0  0  0  0  0  0  0
   52.2870  100.3890   25.9640 N   0  0  0  0  0  0  0  0  0  0  0  0
   52.3670   99.3830   26.8540 C   0  0  0  0  0  0  0  0  0  0  0  0
   53.1840   98.2400   26.6050 N   0  0  0  0  0  0  0  0  0  0  0  0
   53.1380   97.6920   25.2620 C   0  0  0  0  0  0  0  0  0  0  0  0
   54.4150   96.9160   24.9470 C   0  0  0  0  0  0  0  0  0  0  0  0
   54.9000   96.2280   26.0890 N   0  0  0  0  0  0  0  0  0  0  0  0
   55.2900   97.1470   27.2020 C   0  0  0  0  0  0  0  0  0  0  0  0
   53.9740   97.7290   27.6820 C   0  0  0  0  0  0  0  0  0  0  0  0
   55.0210   94.8570   26.2390 C   0  0  0  0  0  0  0  0  0  0  0  0
   55.0450   94.4520   27.4970 O   0  0  0  0  0  0  0  0  0  0  0  0
   55.1260   93.7610   25.2880 C   0  0  0  0  0  0  0  0  0  0  0  0
   54.3550   93.8380   24.0250 C   0  0  0  0  0  0  0  0  0  0  0  0
   55.8630   93.7420   24.0290 C   0  0  0  0  0  0  0  0  0  0  0  0
   49.0060  103.6950   32.5940 H   0  0  0  0  0  0  0  0  0  0  0  0
   50.6560  102.1630   31.5780 H   0  0  0  0  0  0  0  0  0  0  0  0
   47.7350  100.8400   28.8060 H   0  0  0  0  0  0  0  0  0  0  0  0
   46.0930  102.3320   29.7790 H   0  0  0  0  0  0  0  0  0  0  0  0
   51.4630  102.2720   25.4690 H   0  0  0  0  0  0  0  0  0  0  0  0
   52.2280   97.0820   25.1330 H   0  0  0  0  0  0  0  0  0  0  0  0
   53.0820   98.5150   24.5230 H   0  0  0  0  0  0  0  0  0  0  0  0
   55.2120   97.7110   24.7200 H   0  0  0  0  0  0  0  0  0  0  0  0
   54.2760   96.4020   24.0210 H   0  0  0  0  0  0  0  0  0  0  0  0
   55.7990   96.6030   27.9930 H   0  0  0  0  0  0  0  0  0  0  0  0
   55.8780   97.9540   26.7630 H   0  0  0  0  0  0  0  0  0  0  0  0
   53.4730   96.9100   28.2580 H   0  0  0  0  0  0  0  0  0  0  0  0
   54.2220   98.5260   28.4140 H   0  0  0  0  0  0  0  0  0  0  0  0
   55.0850   92.7230   25.7990 H   0  0  0  0  0  0  0  0  0  0  0  0
   53.8270   94.7580   23.7320 H   0  0  0  0  0  0  0  0  0  0  0  0
   53.8100   92.9340   23.6450 H   0  0  0  0  0  0  0  0  0  0  0  0
   56.2950   92.7340   23.7060 H   0  0  0  0  0  0  0  0  0  0  0  0
   56.3990   94.5500   23.5520 H   0  0  0  0  0  0  0  0  0  0  0  0
  2  3  1  0  0  0  0
  2  1  1  0  0  0  0
  3 28  1  0  0  0  0
  4 29  1  0  0  0  0
  4  3  2  0  0  0  0
  5  4  1  0  0  0  0
  6  5  2  0  0  0  0
  6  7  1  0  0  0  0
  7  2  2  0  0  0  0
  8  9  1  0  0  0  0
  8  5  1  0  0  0  0
 10  9  2  0  0  0  0
 11 12  2  0  0  0  0
 11 10  1  0  0  0  0
 12  8  1  0  0  0  0
 13 12  1  0  0  0  0
 14 13  2  0  0  0  0
 15 14  1  0  0  0  0
 15 16  2  0  0  0  0
 16 11  1  0  0  0  0
 17 16  1  0  0  0  0
 17 22  1  0  0  0  0
 18 17  1  0  0  0  0
 19 18  1  0  0  0  0
 19 20  1  0  0  0  0
 20 23  1  0  0  0  0
 20 21  1  0  0  0  0
 21 22  1  0  0  0  0
 21 37  1  0  0  0  0
 22 39  1  0  0  0  0
 22 40  1  0  0  0  0
 23 24  2  0  0  0  0
 25 41  1  0  0  0  0
 25 23  1  0  0  0  0
 26 27  1  0  0  0  0
 26 25  1  0  0  0  0
 27 25  1  0  0  0  0
 30  6  1  0  0  0  0
 31  7  1  0  0  0  0
 32 14  1  0  0  0  0
 33 18  1  0  0  0  0
 34 18  1  0  0  0  0
 35 19  1  0  0  0  0
 36 19  1  0  0  0  0
 38 21  1  0  0  0  0
 42 26  1  0  0  0  0
 43 26  1  0  0  0  0
 44 27  1  0  0  0  0
 45 27  1  0  0  0  0
M  END
>  <Pose>
1

>  <Score>
-5.78

$$$$
