
 OpenBabel03202210083D

 51 54  0  0  0  0  0  0  0  0999 V2000
   52.6330   98.4980   28.4190 Cl  0  0  0  0  0  0  0  0  0  0  0  0
   53.6530   97.4580   27.4550 C   0  0  0  0  0  0  0  0  0  0  0  0
   54.8190   97.9320   26.9190 C   0  0  0  0  0  0  0  0  0  0  0  0
   55.6230   97.0720   26.1610 C   0  0  0  0  0  0  0  0  0  0  0  0
   55.2810   95.7600   25.9330 C   0  0  0  0  0  0  0  0  0  0  0  0
   54.0860   95.2600   26.4800 C   0  0  0  0  0  0  0  0  0  0  0  0
   53.3150   96.1370   27.2240 C   0  0  0  0  0  0  0  0  0  0  0  0
   56.2170   95.1620   25.2000 N   0  0  0  0  0  0  0  0  0  0  0  0
   57.1620   96.1330   24.9670 C   0  0  0  0  0  0  0  0  0  0  0  0
   58.2230   95.9710   24.2970 O   0  0  0  0  0  0  0  0  0  0  0  0
   56.7680   97.2370   25.5520 O   0  0  0  0  0  0  0  0  0  0  0  0
   56.2950   93.8260   24.6350 C   0  0  0  0  0  0  0  0  0  0  0  0
   56.0510   93.6870   23.2020 C   0  0  0  0  0  0  0  0  0  0  0  0
   54.8440   93.0940   22.6810 C   0  0  0  0  0  0  0  0  0  0  0  0
   53.7530   93.6820   23.0420 O   0  0  0  0  0  0  0  0  0  0  0  0
   54.6850   91.9970   21.8310 N   0  0  0  0  0  0  0  0  0  0  0  0
   53.4660   91.1700   21.7530 C   0  0  0  0  0  0  0  0  0  0  0  0
   52.9670   91.6240   20.3450 C   0  0  0  0  0  0  0  0  0  0  0  0
   53.9260   91.1370   19.3630 N   0  0  0  0  0  0  0  0  0  0  0  0
   55.2160   90.8900   19.7100 C   0  0  0  0  0  0  0  0  0  0  0  0
   55.7330   91.5250   20.9690 C   0  0  0  0  0  0  0  0  0  0  0  0
   53.4220   91.4140   18.1030 C   0  0  0  0  0  0  0  0  0  0  0  0
   52.0160   90.8440   17.9130 C   0  0  0  0  0  0  0  0  0  0  0  0
   51.1380   91.7370   17.6020 O   0  0  0  0  0  0  0  0  0  0  0  0
   51.7670   89.5490   18.0710 N   0  0  0  0  0  0  0  0  0  0  0  0
   51.5030   88.1710   18.2380 C   0  0  0  0  0  0  0  0  0  0  0  0
   51.7780   87.6210   19.6900 C   0  0  0  0  0  0  0  0  0  0  0  0
   52.6610   87.2620   18.5960 C   0  0  0  0  0  0  0  0  0  0  0  0
   55.1200   98.9630   27.0750 H   0  0  0  0  0  0  0  0  0  0  0  0
   53.8450   94.2500   26.2850 H   0  0  0  0  0  0  0  0  0  0  0  0
   52.3980   95.7510   27.6360 H   0  0  0  0  0  0  0  0  0  0  0  0
   55.5540   93.1960   25.2160 H   0  0  0  0  0  0  0  0  0  0  0  0
   57.3380   93.4830   24.9390 H   0  0  0  0  0  0  0  0  0  0  0  0
   56.9130   93.0890   22.7160 H   0  0  0  0  0  0  0  0  0  0  0  0
   56.1060   94.7390   22.7430 H   0  0  0  0  0  0  0  0  0  0  0  0
   52.7470   91.3500   22.5180 H   0  0  0  0  0  0  0  0  0  0  0  0
   53.7100   90.0940   21.6970 H   0  0  0  0  0  0  0  0  0  0  0  0
   51.9830   91.2040   20.1460 H   0  0  0  0  0  0  0  0  0  0  0  0
   52.9050   92.7080   20.2550 H   0  0  0  0  0  0  0  0  0  0  0  0
   55.9320   91.1630   18.8720 H   0  0  0  0  0  0  0  0  0  0  0  0
   55.3820   89.7420   19.7830 H   0  0  0  0  0  0  0  0  0  0  0  0
   56.5020   92.2640   20.7680 H   0  0  0  0  0  0  0  0  0  0  0  0
   56.2900   90.6730   21.5120 H   0  0  0  0  0  0  0  0  0  0  0  0
   54.0760   90.9540   17.3240 H   0  0  0  0  0  0  0  0  0  0  0  0
   53.3850   92.5120   17.8330 H   0  0  0  0  0  0  0  0  0  0  0  0
   51.1520   89.7720   19.2610 H   0  0  0  0  0  0  0  0  0  0  0  0
   50.5100   87.7580   17.9470 H   0  0  0  0  0  0  0  0  0  0  0  0
   51.8790   88.4170   20.4070 H   0  0  0  0  0  0  0  0  0  0  0  0
   51.0710   86.8070   20.0350 H   0  0  0  0  0  0  0  0  0  0  0  0
   53.7070   87.6680   18.5100 H   0  0  0  0  0  0  0  0  0  0  0  0
   52.6450   86.1920   18.2480 H   0  0  0  0  0  0  0  0  0  0  0  0
  2  1  1  0  0  0  0
  3 29  1  0  0  0  0
  3  2  2  0  0  0  0
  4  3  1  0  0  0  0
  5  4  2  0  0  0  0
  5  6  1  0  0  0  0
  6  7  2  0  0  0  0
  7  2  1  0  0  0  0
  7 31  1  0  0  0  0
  8  5  1  0  0  0  0
  9  8  1  0  0  0  0
  9 11  1  0  0  0  0
 10  9  2  0  0  0  0
 11  4  1  0  0  0  0
 12 33  1  0  0  0  0
 12  8  1  0  0  0  0
 12 32  1  0  0  0  0
 13 12  1  0  0  0  0
 14 15  2  0  0  0  0
 14 13  1  0  0  0  0
 16 14  1  0  0  0  0
 17 16  1  0  0  0  0
 17 36  1  0  0  0  0
 18 17  1  0  0  0  0
 19 20  1  0  0  0  0
 19 18  1  0  0  0  0
 20 41  1  0  0  0  0
 20 21  1  0  0  0  0
 21 43  1  0  0  0  0
 21 16  1  0  0  0  0
 22 19  1  0  0  0  0
 23 25  1  0  0  0  0
 23 22  1  0  0  0  0
 24 23  2  0  0  0  0
 25 26  1  0  0  0  0
 25 46  1  0  0  0  0
 26 28  1  0  0  0  0
 26 27  1  0  0  0  0
 27 49  1  0  0  0  0
 27 48  1  0  0  0  0
 28 27  1  0  0  0  0
 30  6  1  0  0  0  0
 34 13  1  0  0  0  0
 35 13  1  0  0  0  0
 37 17  1  0  0  0  0
 38 18  1  0  0  0  0
 39 18  1  0  0  0  0
 40 20  1  0  0  0  0
 42 21  1  0  0  0  0
 44 22  1  0  0  0  0
 45 22  1  0  0  0  0
 47 26  1  0  0  0  0
 50 28  1  0  0  0  0
 51 28  1  0  0  0  0
M  END
>  <Pose>
1

>  <Score>
-6.59

$$$$
