
 OpenBabel03202210083D

 38 40  0  0  1  0  0  0  0  0999 V2000
   55.0760   92.8210   22.7200 Cl  0  0  0  0  0  0  0  0  0  0  0  0
   55.3290   91.1090   22.4630 C   0  0  0  0  0  0  0  0  0  0  0  0
   55.1730   90.5680   21.2030 C   0  0  0  0  0  0  0  0  0  0  0  0
   55.3930   89.2150   21.0740 C   0  0  0  0  0  0  0  0  0  0  0  0
   55.2770   88.6160   19.9610 O   0  0  0  0  0  0  0  0  0  0  0  0
   55.7400   88.4860   22.1460 N   0  0  0  0  0  0  0  0  0  0  0  0
   55.9000   88.9600   23.3660 N   0  0  0  0  0  0  0  0  0  0  0  0
   56.2780   88.1340   24.5000 C   0  0  1  0  0  0  0  0  0  0  0  0
   55.1500   87.2340   24.9590 C   0  0  0  0  0  0  0  0  0  0  0  0
   55.0770   85.9890   24.0930 C   0  0  0  0  0  0  0  0  0  0  0  0
   54.8120   86.3400   22.6470 C   0  0  0  0  0  0  0  0  0  0  0  0
   55.9680   87.0420   21.9840 C   0  0  2  0  0  0  0  0  0  0  0  0
   57.2020   86.7300   22.7530 C   0  0  0  0  0  0  0  0  0  0  0  0
   57.3550   87.2100   23.9820 C   0  0  0  0  0  0  0  0  0  0  0  0
   55.6880   90.3010   23.5210 C   0  0  0  0  0  0  0  0  0  0  0  0
   55.8350   90.7890   24.6920 O   0  0  0  0  0  0  0  0  0  0  0  0
   54.8000   91.3410   20.0660 N   0  0  0  0  0  0  0  0  0  0  0  0
   53.4570   91.4680   19.5710 C   0  0  0  0  0  0  0  0  0  0  0  0
   53.3950   92.3110   18.3080 C   0  0  0  0  0  0  0  0  0  0  0  0
   52.7730   90.1710   19.2930 C   0  0  0  0  0  0  0  0  0  0  0  0
   56.6640   88.7220   25.3320 H   0  0  0  0  0  0  0  0  0  0  0  0
   54.1850   87.7510   25.0310 H   0  0  0  0  0  0  0  0  0  0  0  0
   55.4100   86.8900   25.9840 H   0  0  0  0  0  0  0  0  0  0  0  0
   54.2060   85.4020   24.4420 H   0  0  0  0  0  0  0  0  0  0  0  0
   56.0260   85.4370   24.1850 H   0  0  0  0  0  0  0  0  0  0  0  0
   53.8980   87.0030   22.6580 H   0  0  0  0  0  0  0  0  0  0  0  0
   54.4980   85.4250   22.1080 H   0  0  0  0  0  0  0  0  0  0  0  0
   56.0660   86.7810   20.9120 H   0  0  0  0  0  0  0  0  0  0  0  0
   57.9880   86.1100   22.3180 H   0  0  0  0  0  0  0  0  0  0  0  0
   58.2070   86.9610   24.6030 H   0  0  0  0  0  0  0  0  0  0  0  0
   55.6150   91.8340   19.5900 H   0  0  0  0  0  0  0  0  0  0  0  0
   52.8590   92.0100   20.3300 H   0  0  0  0  0  0  0  0  0  0  0  0
   53.9760   91.8360   17.4860 H   0  0  0  0  0  0  0  0  0  0  0  0
   52.3380   92.3240   17.9880 H   0  0  0  0  0  0  0  0  0  0  0  0
   53.7110   93.3590   18.4880 H   0  0  0  0  0  0  0  0  0  0  0  0
   51.7940   90.4200   18.8190 H   0  0  0  0  0  0  0  0  0  0  0  0
   52.5610   89.5730   20.2130 H   0  0  0  0  0  0  0  0  0  0  0  0
   53.3280   89.5880   18.5460 H   0  0  0  0  0  0  0  0  0  0  0  0
  2  1  1  0  0  0  0
  2 15  1  0  0  0  0
  3  2  2  0  0  0  0
  4  3  1  0  0  0  0
  4  6  1  0  0  0  0
  5  4  2  0  0  0  0
  6  7  1  0  0  0  0
  7 15  1  0  0  0  0
  7  8  1  0  0  0  0
  8  9  1  0  0  0  0
  8 21  1  1  0  0  0
  9 22  1  0  0  0  0
  9 23  1  0  0  0  0
 10 25  1  0  0  0  0
 10 24  1  0  0  0  0
 10  9  1  0  0  0  0
 11 26  1  0  0  0  0
 11 10  1  0  0  0  0
 12 28  1  6  0  0  0
 12  6  1  0  0  0  0
 12 11  1  0  0  0  0
 12 13  1  0  0  0  0
 13 14  2  0  0  0  0
 14  8  1  0  0  0  0
 14 30  1  0  0  0  0
 15 16  2  0  0  0  0
 17  3  1  0  0  0  0
 18 17  1  0  0  0  0
 18 32  1  0  0  0  0
 19 35  1  0  0  0  0
 19 18  1  0  0  0  0
 20 18  1  0  0  0  0
 20 37  1  0  0  0  0
 27 11  1  0  0  0  0
 29 13  1  0  0  0  0
 31 17  1  0  0  0  0
 33 19  1  0  0  0  0
 34 19  1  0  0  0  0
 36 20  1  0  0  0  0
 38 20  1  0  0  0  0
M  END
>  <Pose>
1

>  <Score>
-5.09

$$$$
