
 OpenBabel03202210083D

 59 62  0  0  1  0  0  0  0  0999 V2000
   55.3080   86.4710   22.1030 Cl  0  0  0  0  0  0  0  0  0  0  0  0
   55.2790   88.2710   21.9170 C   0  0  2  0  0  0  0  0  0  0  0  0
   55.7920   88.9910   22.9040 C   0  0  2  0  0  0  0  0  0  0  0  0
   55.6950   90.4590   22.7190 C   0  0  0  0  0  0  0  0  0  0  0  0
   55.1630   90.8890   21.6380 N   0  0  0  0  0  0  0  0  0  0  0  0
   54.6640   90.1140   20.6400 N   0  0  0  0  0  0  0  0  0  0  0  0
   54.7110   88.8160   20.7640 C   0  0  0  0  0  0  0  0  0  0  0  0
   54.2820   87.9980   19.8810 O   0  0  0  0  0  0  0  0  0  0  0  0
   54.3520   90.7840   19.3790 C   0  0  0  0  0  0  0  0  0  0  0  0
   55.0760   90.5940   18.2460 C   0  0  0  0  0  0  0  0  0  0  0  0
   54.6860   91.1440   17.0440 C   0  0  0  0  0  0  0  0  0  0  0  0
   53.5290   91.9160   16.9580 C   0  0  0  0  0  0  0  0  0  0  0  0
   52.8110   92.1010   18.1390 C   0  0  0  0  0  0  0  0  0  0  0  0
   53.2080   91.5570   19.2980 C   0  0  0  0  0  0  0  0  0  0  0  0
   56.6640   88.5580   23.8910 N   0  0  0  0  0  0  0  0  0  0  0  0
   57.8660   87.8370   23.9060 C   0  0  0  0  0  0  0  0  0  0  0  0
   57.6240   86.5610   24.7930 C   0  0  0  0  0  0  0  0  0  0  0  0
   56.3250   86.2720   25.1460 N   0  0  0  0  0  0  0  0  0  0  0  0
   55.3640   87.3370   25.2380 C   0  0  0  0  0  0  0  0  0  0  0  0
   56.1030   88.7140   25.3000 C   0  0  0  0  0  0  0  0  0  0  0  0
   56.1620   85.5900   26.4730 C   0  0  0  0  0  0  0  0  0  0  0  0
   54.8570   84.9480   26.5390 C   0  0  0  0  0  0  0  0  0  0  0  0
   54.1150   84.5700   25.7940 O   0  0  0  0  0  0  0  0  0  0  0  0
   54.3970   84.7360   28.1700 N   0  0  0  0  0  0  0  0  0  0  0  0
   52.9310   84.5910   27.8620 C   0  0  0  0  0  0  0  0  0  0  0  0
   52.3520   85.1110   26.9490 O   0  0  0  0  0  0  0  0  0  0  0  0
   52.3060   83.7100   28.8220 N   0  0  0  0  0  0  0  0  0  0  0  0
   51.5940   84.0720   29.9900 C   0  0  0  0  0  0  0  0  0  0  0  0
   51.5470   85.4840   30.4090 C   0  0  0  0  0  0  0  0  0  0  0  0
   50.2970   86.1080   29.7800 C   0  0  0  0  0  0  0  0  0  0  0  0
   49.3450   84.9350   29.7950 C   0  0  0  0  0  0  0  0  0  0  0  0
   50.1270   83.7010   29.6900 C   0  0  0  0  0  0  0  0  0  0  0  0
   56.1020   90.9610   23.5690 H   0  0  0  0  0  0  0  0  0  0  0  0
   55.9980   90.0140   18.2890 H   0  0  0  0  0  0  0  0  0  0  0  0
   55.2130   90.9750   16.1560 H   0  0  0  0  0  0  0  0  0  0  0  0
   53.2560   92.3110   16.0050 H   0  0  0  0  0  0  0  0  0  0  0  0
   51.8980   92.6890   18.0290 H   0  0  0  0  0  0  0  0  0  0  0  0
   52.6220   91.7180   20.1930 H   0  0  0  0  0  0  0  0  0  0  0  0
   58.3410   87.5760   22.9700 H   0  0  0  0  0  0  0  0  0  0  0  0
   58.6210   88.4810   24.4390 H   0  0  0  0  0  0  0  0  0  0  0  0
   58.3100   86.7400   25.6780 H   0  0  0  0  0  0  0  0  0  0  0  0
   58.1820   85.7420   24.2420 H   0  0  0  0  0  0  0  0  0  0  0  0
   54.7160   87.4650   24.3360 H   0  0  0  0  0  0  0  0  0  0  0  0
   54.8400   87.3050   26.1900 H   0  0  0  0  0  0  0  0  0  0  0  0
   55.4590   89.5330   25.4150 H   0  0  0  0  0  0  0  0  0  0  0  0
   56.9370   88.5550   26.0270 H   0  0  0  0  0  0  0  0  0  0  0  0
   57.0130   84.9220   26.5060 H   0  0  0  0  0  0  0  0  0  0  0  0
   56.2480   86.3640   27.2410 H   0  0  0  0  0  0  0  0  0  0  0  0
   55.1510   84.8140   28.3230 H   0  0  0  0  0  0  0  0  0  0  0  0
   52.4200   82.6610   28.6200 H   0  0  0  0  0  0  0  0  0  0  0  0
   51.9950   83.4740   30.8940 H   0  0  0  0  0  0  0  0  0  0  0  0
   51.3630   85.5090   31.5100 H   0  0  0  0  0  0  0  0  0  0  0  0
   52.4500   86.0830   30.1760 H   0  0  0  0  0  0  0  0  0  0  0  0
   50.4950   86.4280   28.7350 H   0  0  0  0  0  0  0  0  0  0  0  0
   49.9080   86.9570   30.4020 H   0  0  0  0  0  0  0  0  0  0  0  0
   48.7280   85.0420   28.8310 H   0  0  0  0  0  0  0  0  0  0  0  0
   48.6340   84.9430   30.6470 H   0  0  0  0  0  0  0  0  0  0  0  0
   49.7790   82.8220   30.2690 H   0  0  0  0  0  0  0  0  0  0  0  0
   50.1050   83.4040   28.5660 H   0  0  0  0  0  0  0  0  0  0  0  0
  2  1  1  1  0  0  0
  2  3  1  0  0  0  0
  3 15  1  6  0  0  0
  4  3  1  0  0  0  0
  4 33  1  0  0  0  0
  5  4  2  0  0  0  0
  6  7  1  0  0  0  0
  6  5  1  0  0  0  0
  7  2  1  0  0  0  0
  8  7  2  0  0  0  0
  9  6  1  0  0  0  0
 10 34  1  0  0  0  0
 10  9  2  0  0  0  0
 11 10  1  0  0  0  0
 12 11  2  0  0  0  0
 12 13  1  0  0  0  0
 13 14  2  0  0  0  0
 14  9  1  0  0  0  0
 14 38  1  0  0  0  0
 15 16  1  0  0  0  0
 15 20  1  0  0  0  0
 16 40  1  0  0  0  0
 16 17  1  0  0  0  0
 17 18  1  0  0  0  0
 17 41  1  0  0  0  0
 18 19  1  0  0  0  0
 18 21  1  0  0  0  0
 19 20  1  0  0  0  0
 19 44  1  0  0  0  0
 20 45  1  0  0  0  0
 20 46  1  0  0  0  0
 21 47  1  0  0  0  0
 21 22  1  0  0  0  0
 21 48  1  0  0  0  0
 22 24  1  0  0  0  0
 23 22  2  0  0  0  0
 24 49  1  0  0  0  0
 25 24  1  0  0  0  0
 25 27  1  0  0  0  0
 26 25  2  0  0  0  0
 27 28  1  0  0  0  0
 28 29  1  0  0  0  0
 28 51  1  0  0  0  0
 29 52  1  0  0  0  0
 30 31  1  0  0  0  0
 30 55  1  0  0  0  0
 30 29  1  0  0  0  0
 31 57  1  0  0  0  0
 32 31  1  0  0  0  0
 32 28  1  0  0  0  0
 32 58  1  0  0  0  0
 35 11  1  0  0  0  0
 36 12  1  0  0  0  0
 37 13  1  0  0  0  0
 39 16  1  0  0  0  0
 42 17  1  0  0  0  0
 43 19  1  0  0  0  0
 50 27  1  0  0  0  0
 53 29  1  0  0  0  0
 54 30  1  0  0  0  0
 56 31  1  0  0  0  0
 59 32  1  0  0  0  0
M  END
>  <Pose>
1

>  <Score>
-6.68

$$$$
