
 OpenBabel03202210083D

 56 59  0  0  1  0  0  0  0  0999 V2000
   54.9450   88.8810   20.7500 Cl  0  0  0  0  0  0  0  0  0  0  0  0
   53.5910   87.9170   20.2010 C   0  0  0  0  0  0  0  0  0  0  0  0
   52.7650   88.4780   19.2320 C   0  0  0  0  0  0  0  0  0  0  0  0
   51.7090   87.6910   18.8220 C   0  0  0  0  0  0  0  0  0  0  0  0
   51.5240   86.4680   19.3490 N   0  0  0  0  0  0  0  0  0  0  0  0
   52.2970   85.9180   20.2690 N   0  0  0  0  0  0  0  0  0  0  0  0
   53.3400   86.6520   20.6970 C   0  0  0  0  0  0  0  0  0  0  0  0
   54.0940   86.1480   21.5760 O   0  0  0  0  0  0  0  0  0  0  0  0
   52.0350   84.6070   20.7870 C   0  0  0  0  0  0  0  0  0  0  0  0
   50.9470   84.3910   21.6010 C   0  0  0  0  0  0  0  0  0  0  0  0
   50.6820   83.1150   22.1120 C   0  0  0  0  0  0  0  0  0  0  0  0
   51.4950   82.0440   21.8190 C   0  0  0  0  0  0  0  0  0  0  0  0
   52.5860   82.2510   21.0040 C   0  0  0  0  0  0  0  0  0  0  0  0
   52.8390   83.5240   20.5030 C   0  0  0  0  0  0  0  0  0  0  0  0
   52.9950   89.7770   18.7090 N   0  0  0  0  0  0  0  0  0  0  0  0
   54.2260   90.1440   18.0520 C   0  0  0  0  0  0  0  0  0  0  0  0
   54.6910   91.4780   18.5470 C   0  0  0  0  0  0  0  0  0  0  0  0
   53.8980   91.8060   19.7050 N   0  0  0  0  0  0  0  0  0  0  0  0
   52.5720   92.0900   19.2870 C   0  0  0  0  0  0  0  0  0  0  0  0
   51.9510   90.7620   18.8420 C   0  0  0  0  0  0  0  0  0  0  0  0
   54.5000   92.6480   20.6600 C   0  0  0  0  0  0  0  0  0  0  0  0
   55.0080   91.9610   21.8520 C   0  0  0  0  0  0  0  0  0  0  0  0
   55.7180   90.9200   21.6390 O   0  0  0  0  0  0  0  0  0  0  0  0
   54.7880   92.3430   23.1980 N   0  0  0  0  0  0  0  0  0  0  0  0
   55.4200   93.4710   23.8340 C   0  0  0  0  0  0  0  0  0  0  0  0
   54.4840   94.0680   24.8390 C   0  0  1  0  0  0  0  0  0  0  0  0
   54.5610   93.3610   26.0090 O   0  0  0  0  0  0  0  0  0  0  0  0
   54.9020   94.1770   27.0530 C   0  0  0  0  0  0  0  0  0  0  0  0
   54.3670   95.5290   26.6290 C   0  0  0  0  0  0  0  0  0  0  0  0
   54.8520   95.5080   25.1690 C   0  0  0  0  0  0  0  0  0  0  0  0
   51.0470   88.1060   18.0640 H   0  0  0  0  0  0  0  0  0  0  0  0
   50.2980   85.2400   21.8360 H   0  0  0  0  0  0  0  0  0  0  0  0
   49.8310   82.9400   22.7490 H   0  0  0  0  0  0  0  0  0  0  0  0
   51.3190   81.0320   22.1990 H   0  0  0  0  0  0  0  0  0  0  0  0
   53.2240   81.4050   20.7760 H   0  0  0  0  0  0  0  0  0  0  0  0
   53.6950   83.6960   19.8620 H   0  0  0  0  0  0  0  0  0  0  0  0
   54.1590   90.0870   16.9460 H   0  0  0  0  0  0  0  0  0  0  0  0
   55.0490   89.4140   18.3130 H   0  0  0  0  0  0  0  0  0  0  0  0
   54.4240   92.2530   17.7670 H   0  0  0  0  0  0  0  0  0  0  0  0
   55.7500   91.5270   18.8090 H   0  0  0  0  0  0  0  0  0  0  0  0
   51.9540   92.6180   20.0220 H   0  0  0  0  0  0  0  0  0  0  0  0
   52.6280   92.7280   18.3730 H   0  0  0  0  0  0  0  0  0  0  0  0
   51.3610   90.8820   17.8990 H   0  0  0  0  0  0  0  0  0  0  0  0
   51.2460   90.4880   19.6650 H   0  0  0  0  0  0  0  0  0  0  0  0
   53.8250   93.4910   20.9790 H   0  0  0  0  0  0  0  0  0  0  0  0
   55.3800   93.1500   20.1530 H   0  0  0  0  0  0  0  0  0  0  0  0
   54.1190   91.7750   23.7550 H   0  0  0  0  0  0  0  0  0  0  0  0
   55.6950   94.2580   23.0810 H   0  0  0  0  0  0  0  0  0  0  0  0
   56.3430   93.1300   24.3260 H   0  0  0  0  0  0  0  0  0  0  0  0
   53.4460   94.0900   24.4730 H   0  0  0  0  0  0  0  0  0  0  0  0
   56.0050   94.2680   27.0930 H   0  0  0  0  0  0  0  0  0  0  0  0
   54.4640   93.8330   28.0060 H   0  0  0  0  0  0  0  0  0  0  0  0
   54.7710   96.3650   27.1930 H   0  0  0  0  0  0  0  0  0  0  0  0
   53.2600   95.4770   26.5960 H   0  0  0  0  0  0  0  0  0  0  0  0
   55.9580   95.6280   25.2320 H   0  0  0  0  0  0  0  0  0  0  0  0
   54.3470   96.2520   24.5610 H   0  0  0  0  0  0  0  0  0  0  0  0
  2  7  1  0  0  0  0
  2  1  1  0  0  0  0
  3  2  2  0  0  0  0
  4  3  1  0  0  0  0
  4  5  2  0  0  0  0
  5  6  1  0  0  0  0
  6  7  1  0  0  0  0
  6  9  1  0  0  0  0
  7  8  2  0  0  0  0
  9 10  1  0  0  0  0
 10 32  1  0  0  0  0
 10 11  2  0  0  0  0
 11 33  1  0  0  0  0
 12 11  1  0  0  0  0
 12 34  1  0  0  0  0
 13 12  2  0  0  0  0
 14  9  2  0  0  0  0
 14 13  1  0  0  0  0
 15 20  1  0  0  0  0
 15  3  1  0  0  0  0
 16 38  1  0  0  0  0
 16 17  1  0  0  0  0
 16 15  1  0  0  0  0
 17 40  1  0  0  0  0
 17 18  1  0  0  0  0
 18 21  1  0  0  0  0
 19 18  1  0  0  0  0
 19 41  1  0  0  0  0
 20 19  1  0  0  0  0
 20 44  1  0  0  0  0
 21 45  1  0  0  0  0
 21 22  1  0  0  0  0
 22 24  1  0  0  0  0
 23 22  2  0  0  0  0
 24 47  1  0  0  0  0
 24 25  1  0  0  0  0
 25 49  1  0  0  0  0
 25 26  1  0  0  0  0
 26 50  1  6  0  0  0
 26 30  1  0  0  0  0
 26 27  1  0  0  0  0
 27 28  1  0  0  0  0
 28 51  1  0  0  0  0
 28 52  1  0  0  0  0
 29 28  1  0  0  0  0
 29 53  1  0  0  0  0
 30 55  1  0  0  0  0
 30 29  1  0  0  0  0
 31  4  1  0  0  0  0
 35 13  1  0  0  0  0
 36 14  1  0  0  0  0
 37 16  1  0  0  0  0
 39 17  1  0  0  0  0
 42 19  1  0  0  0  0
 43 20  1  0  0  0  0
 46 21  1  0  0  0  0
 48 25  1  0  0  0  0
 54 29  1  0  0  0  0
 56 30  1  0  0  0  0
M  END
>  <Pose>
1

>  <Score>
-6.99

$$$$
