
 OpenBabel03202210083D

 56 59  0  0  0  0  0  0  0  0999 V2000
   56.0540   86.5350   21.9570 S   0  0  0  0  0  0  0  0  0  0  0  0
   55.1480   85.5200   21.3300 O   0  0  0  0  0  0  0  0  0  0  0  0
   57.4550   86.2560   21.4970 O   0  0  0  0  0  0  0  0  0  0  0  0
   55.9250   86.4310   23.6600 N   0  0  0  0  0  0  0  0  0  0  0  0
   56.9980   87.0180   24.3770 C   0  0  0  0  0  0  0  0  0  0  0  0
   56.8240   88.4880   24.6540 C   0  0  0  0  0  0  0  0  0  0  0  0
   55.4560   88.8220   24.9930 N   0  0  0  0  0  0  0  0  0  0  0  0
   54.5730   87.7040   25.2650 C   0  0  0  0  0  0  0  0  0  0  0  0
   54.6200   86.6750   24.1620 C   0  0  0  0  0  0  0  0  0  0  0  0
   55.0600   90.1640   25.0410 C   0  0  0  0  0  0  0  0  0  0  0  0
   53.9100   90.4470   25.4540 O   0  0  0  0  0  0  0  0  0  0  0  0
   55.9520   91.2740   24.6180 C   0  0  0  0  0  0  0  0  0  0  0  0
   55.3340   92.5600   24.7860 N   0  0  0  0  0  0  0  0  0  0  0  0
   54.7030   93.2910   23.7460 C   0  0  0  0  0  0  0  0  0  0  0  0
   54.6090   92.8960   22.5350 O   0  0  0  0  0  0  0  0  0  0  0  0
   54.1850   94.5290   24.2150 N   0  0  0  0  0  0  0  0  0  0  0  0
   54.6910   94.7100   25.5630 C   0  0  0  0  0  0  0  0  0  0  0  0
   53.6070   95.0850   26.5320 C   0  0  0  0  0  0  0  0  0  0  0  0
   53.3110   96.5550   26.5710 C   0  0  0  0  0  0  0  0  0  0  0  0
   54.5320   97.4130   26.7310 C   0  0  0  0  0  0  0  0  0  0  0  0
   55.8120   96.6060   26.7210 C   0  0  0  0  0  0  0  0  0  0  0  0
   55.7980   95.7340   25.4850 C   0  0  0  0  0  0  0  0  0  0  0  0
   55.2030   93.3710   25.9460 C   0  0  0  0  0  0  0  0  0  0  0  0
   55.4890   92.9780   27.1020 O   0  0  0  0  0  0  0  0  0  0  0  0
   53.3100   95.4270   23.4620 C   0  0  0  0  0  0  0  0  0  0  0  0
   55.6440   88.1550   21.3700 C   0  0  0  0  0  0  0  0  0  0  0  0
   54.3680   88.6250   20.3520 S   0  0  0  0  0  0  0  0  0  0  0  0
   54.6710   90.2960   20.2790 C   0  0  0  0  0  0  0  0  0  0  0  0
   55.7820   90.4510   21.0660 C   0  0  0  0  0  0  0  0  0  0  0  0
   56.2880   89.3330   21.6350 C   0  0  0  0  0  0  0  0  0  0  0  0
   53.7860   91.5650   19.4060 Cl  0  0  0  0  0  0  0  0  0  0  0  0
   57.9230   86.9210   23.7560 H   0  0  0  0  0  0  0  0  0  0  0  0
   57.1550   86.4830   25.3330 H   0  0  0  0  0  0  0  0  0  0  0  0
   57.2050   89.1240   23.8300 H   0  0  0  0  0  0  0  0  0  0  0  0
   57.4400   88.7180   25.5620 H   0  0  0  0  0  0  0  0  0  0  0  0
   53.5210   88.0590   25.3450 H   0  0  0  0  0  0  0  0  0  0  0  0
   54.8240   87.2170   26.2180 H   0  0  0  0  0  0  0  0  0  0  0  0
   53.8660   86.9020   23.3570 H   0  0  0  0  0  0  0  0  0  0  0  0
   54.2450   85.7150   24.6220 H   0  0  0  0  0  0  0  0  0  0  0  0
   56.2380   91.1670   23.5650 H   0  0  0  0  0  0  0  0  0  0  0  0
   56.8850   91.1670   25.2130 H   0  0  0  0  0  0  0  0  0  0  0  0
   52.6660   94.5590   26.2820 H   0  0  0  0  0  0  0  0  0  0  0  0
   53.9350   94.7580   27.5480 H   0  0  0  0  0  0  0  0  0  0  0  0
   52.6360   96.7230   27.4500 H   0  0  0  0  0  0  0  0  0  0  0  0
   52.7260   96.8400   25.6750 H   0  0  0  0  0  0  0  0  0  0  0  0
   54.5250   98.1760   25.9240 H   0  0  0  0  0  0  0  0  0  0  0  0
   54.5110   97.9620   27.7140 H   0  0  0  0  0  0  0  0  0  0  0  0
   56.6630   97.2980   26.6760 H   0  0  0  0  0  0  0  0  0  0  0  0
   55.8290   95.9630   27.6070 H   0  0  0  0  0  0  0  0  0  0  0  0
   56.7990   95.2730   25.3730 H   0  0  0  0  0  0  0  0  0  0  0  0
   55.6450   96.3890   24.6020 H   0  0  0  0  0  0  0  0  0  0  0  0
   53.6750   96.4730   23.5020 H   0  0  0  0  0  0  0  0  0  0  0  0
   53.2710   95.0910   22.4220 H   0  0  0  0  0  0  0  0  0  0  0  0
   52.2910   95.3020   23.8840 H   0  0  0  0  0  0  0  0  0  0  0  0
   56.2350   91.4650   21.2190 H   0  0  0  0  0  0  0  0  0  0  0  0
   57.1990   89.3880   22.2930 H   0  0  0  0  0  0  0  0  0  0  0  0
  1  4  1  0  0  0  0
  2  1  2  0  0  0  0
  3  1  2  0  0  0  0
  4  9  1  0  0  0  0
  4  5  1  0  0  0  0
  5  6  1  0  0  0  0
  5 33  1  0  0  0  0
  6  7  1  0  0  0  0
  6 35  1  0  0  0  0
  7 10  1  0  0  0  0
  7  8  1  0  0  0  0
  8 36  1  0  0  0  0
  8 37  1  0  0  0  0
  9 39  1  0  0  0  0
  9  8  1  0  0  0  0
 10 11  2  0  0  0  0
 12 13  1  0  0  0  0
 12 10  1  0  0  0  0
 12 41  1  0  0  0  0
 13 23  1  0  0  0  0
 14 16  1  0  0  0  0
 14 13  1  0  0  0  0
 15 14  2  0  0  0  0
 16 17  1  0  0  0  0
 17 23  1  0  0  0  0
 17 18  1  0  0  0  0
 18 19  1  0  0  0  0
 18 43  1  0  0  0  0
 19 20  1  0  0  0  0
 19 44  1  0  0  0  0
 20 47  1  0  0  0  0
 21 20  1  0  0  0  0
 21 49  1  0  0  0  0
 22 17  1  0  0  0  0
 22 21  1  0  0  0  0
 23 24  2  0  0  0  0
 25 52  1  0  0  0  0
 25 54  1  0  0  0  0
 25 16  1  0  0  0  0
 26 30  2  0  0  0  0
 26  1  1  0  0  0  0
 27 26  1  0  0  0  0
 28 27  1  0  0  0  0
 28 29  2  0  0  0  0
 29 55  1  0  0  0  0
 29 30  1  0  0  0  0
 30 56  1  0  0  0  0
 31 28  1  0  0  0  0
 32  5  1  0  0  0  0
 34  6  1  0  0  0  0
 38  9  1  0  0  0  0
 40 12  1  0  0  0  0
 42 18  1  0  0  0  0
 45 19  1  0  0  0  0
 46 20  1  0  0  0  0
 48 21  1  0  0  0  0
 50 22  1  0  0  0  0
 51 22  1  0  0  0  0
 53 25  1  0  0  0  0
M  END
>  <Pose>
1

>  <Score>
-7.28

$$$$
