
 OpenBabel03202210083D

 50 53  0  0  1  0  0  0  0  0999 V2000
   56.8760   95.8640   25.3380 S   0  0  0  0  0  0  0  0  0  0  0  0
   57.2280   97.1410   24.6410 O   0  0  0  0  0  0  0  0  0  0  0  0
   58.1550   95.3290   25.9320 O   0  0  0  0  0  0  0  0  0  0  0  0
   55.7760   96.1420   26.5990 N   0  0  0  0  0  0  0  0  0  0  0  0
   54.4590   95.6770   26.3800 C   0  0  0  0  0  0  0  0  0  0  0  0
   53.3930   96.3940   27.1650 C   0  0  0  0  0  0  0  0  0  0  0  0
   53.5770   97.8180   27.1970 N   0  0  0  0  0  0  0  0  0  0  0  0
   54.8460   98.3230   26.7350 C   0  0  0  0  0  0  0  0  0  0  0  0
   55.9170   97.3820   27.2790 C   0  0  0  0  0  0  0  0  0  0  0  0
   52.5490   98.6520   27.6670 C   0  0  0  0  0  0  0  0  0  0  0  0
   52.8470   99.4810   28.5740 O   0  0  0  0  0  0  0  0  0  0  0  0
   51.1470   98.6180   27.1680 C   0  0  2  0  0  0  0  0  0  0  0  0
   50.4280   99.7820   27.5350 N   0  0  0  0  0  0  0  0  0  0  0  0
   49.7360   99.7370   28.7820 C   0  0  2  0  0  0  0  0  0  0  0  0
   49.2910   97.9940   28.9280 S   0  0  0  0  0  0  0  0  0  0  0  0
   50.4130   97.3860   27.6070 C   0  0  0  0  0  0  0  0  0  0  0  0
   48.4590  100.5000   28.4830 C   0  0  0  0  0  0  0  0  0  0  0  0
   49.0690  101.7140   27.7700 C   0  0  0  0  0  0  0  0  0  0  0  0
   50.1560  101.1020   27.0100 C   0  0  0  0  0  0  0  0  0  0  0  0
   50.7460  101.6740   26.0450 O   0  0  0  0  0  0  0  0  0  0  0  0
   50.4560  100.2760   29.9530 C   0  0  0  0  0  0  0  0  0  0  0  0
   56.3130   94.6550   24.1870 C   0  0  0  0  0  0  0  0  0  0  0  0
   56.9890   94.4460   23.0050 C   0  0  0  0  0  0  0  0  0  0  0  0
   56.5760   93.5120   22.0850 C   0  0  0  0  0  0  0  0  0  0  0  0
   55.4540   92.7330   22.3070 C   0  0  0  0  0  0  0  0  0  0  0  0
   54.7970   92.9660   23.5030 C   0  0  0  0  0  0  0  0  0  0  0  0
   55.1980   93.8940   24.4310 C   0  0  0  0  0  0  0  0  0  0  0  0
   54.9000   91.5340   21.1570 Cl  0  0  0  0  0  0  0  0  0  0  0  0
   54.4070   94.5800   26.5340 H   0  0  0  0  0  0  0  0  0  0  0  0
   54.2120   95.8420   25.2950 H   0  0  0  0  0  0  0  0  0  0  0  0
   53.3590   95.9300   28.1750 H   0  0  0  0  0  0  0  0  0  0  0  0
   52.3890   96.1440   26.7120 H   0  0  0  0  0  0  0  0  0  0  0  0
   55.0380   99.3660   27.0500 H   0  0  0  0  0  0  0  0  0  0  0  0
   54.8430   98.2390   25.6230 H   0  0  0  0  0  0  0  0  0  0  0  0
   55.8560   97.3030   28.3660 H   0  0  0  0  0  0  0  0  0  0  0  0
   56.9330   97.7930   27.0430 H   0  0  0  0  0  0  0  0  0  0  0  0
   51.2210   98.5350   26.0620 H   0  0  0  0  0  0  0  0  0  0  0  0
   49.7730   96.9380   26.8300 H   0  0  0  0  0  0  0  0  0  0  0  0
   51.0670   96.5830   28.0020 H   0  0  0  0  0  0  0  0  0  0  0  0
   47.8790   99.8700   27.7720 H   0  0  0  0  0  0  0  0  0  0  0  0
   47.9100  100.7840   29.3790 H   0  0  0  0  0  0  0  0  0  0  0  0
   48.2810  102.1510   27.1070 H   0  0  0  0  0  0  0  0  0  0  0  0
   49.4350  102.4060   28.5340 H   0  0  0  0  0  0  0  0  0  0  0  0
   49.6850  100.6410   30.6960 H   0  0  0  0  0  0  0  0  0  0  0  0
   51.0240   99.4930   30.5250 H   0  0  0  0  0  0  0  0  0  0  0  0
   51.0740  101.1640   29.7290 H   0  0  0  0  0  0  0  0  0  0  0  0
   57.8800   95.0560   22.8140 H   0  0  0  0  0  0  0  0  0  0  0  0
   57.1210   93.3580   21.1530 H   0  0  0  0  0  0  0  0  0  0  0  0
   53.9130   92.3360   23.6540 H   0  0  0  0  0  0  0  0  0  0  0  0
   54.6360   94.0170   25.3340 H   0  0  0  0  0  0  0  0  0  0  0  0
  1  3  2  0  0  0  0
  1  4  1  0  0  0  0
  2  1  2  0  0  0  0
  4  9  1  0  0  0  0
  5 29  1  0  0  0  0
  5  4  1  0  0  0  0
  5  6  1  0  0  0  0
  6  7  1  0  0  0  0
  6 31  1  0  0  0  0
  7 10  1  0  0  0  0
  8 33  1  0  0  0  0
  8  7  1  0  0  0  0
  8  9  1  0  0  0  0
  9 35  1  0  0  0  0
 10 11  2  0  0  0  0
 12 37  1  6  0  0  0
 12 13  1  0  0  0  0
 12 16  1  0  0  0  0
 12 10  1  0  0  0  0
 13 14  1  0  0  0  0
 14 15  1  0  0  0  0
 14 21  1  1  0  0  0
 16 39  1  0  0  0  0
 16 15  1  0  0  0  0
 17 14  1  0  0  0  0
 17 41  1  0  0  0  0
 18 17  1  0  0  0  0
 18 43  1  0  0  0  0
 19 13  1  0  0  0  0
 19 18  1  0  0  0  0
 20 19  2  0  0  0  0
 21 45  1  0  0  0  0
 21 44  1  0  0  0  0
 22 27  1  0  0  0  0
 22  1  1  0  0  0  0
 23 22  2  0  0  0  0
 24 25  2  0  0  0  0
 24 23  1  0  0  0  0
 25 26  1  0  0  0  0
 26 49  1  0  0  0  0
 26 27  2  0  0  0  0
 27 50  1  0  0  0  0
 28 25  1  0  0  0  0
 30  5  1  0  0  0  0
 32  6  1  0  0  0  0
 34  8  1  0  0  0  0
 36  9  1  0  0  0  0
 38 16  1  0  0  0  0
 40 17  1  0  0  0  0
 42 18  1  0  0  0  0
 46 21  1  0  0  0  0
 47 23  1  0  0  0  0
 48 24  1  0  0  0  0
M  END
>  <Pose>
1

>  <Score>
-6.16

$$$$
