
 OpenBabel03202210083D

 44 47  0  0  1  0  0  0  0  0999 V2000
   57.6610   99.3290   26.6700 B   0  0  0  0  0  0  0  0  0  0  0  0
   56.2320   98.0570   26.6030 C   0  0  0  0  0  0  0  0  0  0  0  0
   56.3270   96.8980   25.8600 C   0  0  0  0  0  0  0  0  0  0  0  0
   55.3010   95.9700   25.8060 C   0  0  0  0  0  0  0  0  0  0  0  0
   54.1690   96.2620   26.5350 C   0  0  0  0  0  0  0  0  0  0  0  0
   54.0370   97.4080   27.2870 C   0  0  0  0  0  0  0  0  0  0  0  0
   55.0730   98.3270   27.3310 C   0  0  0  0  0  0  0  0  0  0  0  0
   52.4390   97.7530   28.2770 B   0  0  0  0  0  0  0  0  0  0  0  0
   55.6590   94.8430   24.9570 C   0  0  0  0  0  0  0  0  0  0  0  0
   54.9930   93.7930   24.6540 N   0  0  0  0  0  0  0  0  0  0  0  0
   55.4950   92.7940   23.8140 N   0  0  0  0  0  0  0  0  0  0  0  0
   54.7610   92.4770   22.6490 C   0  0  0  0  0  0  0  0  0  0  0  0
   53.8820   93.2540   22.2230 O   0  0  0  0  0  0  0  0  0  0  0  0
   54.9910   91.2150   21.8770 C   0  0  0  0  0  0  0  0  0  0  0  0
   56.0310   90.4110   22.4580 N   0  0  0  0  0  0  0  0  0  0  0  0
   55.9500   88.9950   22.5540 C   0  0  0  0  0  0  0  0  0  0  0  0
   56.1740   88.4610   23.6620 O   0  0  0  0  0  0  0  0  0  0  0  0
   55.6130   88.1090   21.4000 C   0  0  2  0  0  0  0  0  0  0  0  0
   55.6250   88.8030   20.1880 O   0  0  0  0  0  0  0  0  0  0  0  0
   54.4950   89.1060   19.4320 C   0  0  0  0  0  0  0  0  0  0  0  0
   53.3620   88.3800   19.6890 C   0  0  0  0  0  0  0  0  0  0  0  0
   52.2160   88.6610   18.9460 C   0  0  0  0  0  0  0  0  0  0  0  0
   52.1850   89.6340   17.9730 C   0  0  0  0  0  0  0  0  0  0  0  0
   53.3470   90.3460   17.7420 C   0  0  0  0  0  0  0  0  0  0  0  0
   54.4800   90.0730   18.4710 C   0  0  0  0  0  0  0  0  0  0  0  0
   53.3820   87.4100   20.6530 O   0  0  0  0  0  0  0  0  0  0  0  0
   54.3780   87.3100   21.6330 C   0  0  0  0  0  0  0  0  0  0  0  0
   57.0120   95.1300   24.4690 C   0  0  0  0  0  0  0  0  0  0  0  0
   57.6570   94.3680   23.6990 O   0  0  0  0  0  0  0  0  0  0  0  0
   57.3660   96.3740   25.0400 N   0  0  0  0  0  0  0  0  0  0  0  0
   53.3440   95.5710   26.5230 H   0  0  0  0  0  0  0  0  0  0  0  0
   54.9930   99.2190   27.9080 H   0  0  0  0  0  0  0  0  0  0  0  0
   56.3870   92.3350   24.0950 H   0  0  0  0  0  0  0  0  0  0  0  0
   54.0340   90.6510   21.9360 H   0  0  0  0  0  0  0  0  0  0  0  0
   55.1720   91.4310   20.8010 H   0  0  0  0  0  0  0  0  0  0  0  0
   56.9040   90.8450   22.8400 H   0  0  0  0  0  0  0  0  0  0  0  0
   56.4830   87.3900   21.3450 H   0  0  0  0  0  0  0  0  0  0  0  0
   51.3330   88.0740   19.1670 H   0  0  0  0  0  0  0  0  0  0  0  0
   51.2770   89.8200   17.4220 H   0  0  0  0  0  0  0  0  0  0  0  0
   53.3160   91.1260   16.9610 H   0  0  0  0  0  0  0  0  0  0  0  0
   55.3760   90.6450   18.2690 H   0  0  0  0  0  0  0  0  0  0  0  0
   54.6380   86.2140   21.7610 H   0  0  0  0  0  0  0  0  0  0  0  0
   53.9170   87.6190   22.6000 H   0  0  0  0  0  0  0  0  0  0  0  0
   58.2710   96.8490   24.8830 H   0  0  0  0  0  0  0  0  0  0  0  0
  2  1  1  0  0  0  0
  2  7  1  0  0  0  0
  3  2  2  0  0  0  0
  4  3  1  0  0  0  0
  4  5  2  0  0  0  0
  5  6  1  0  0  0  0
  6  7  2  0  0  0  0
  6  8  1  0  0  0  0
  7 32  1  0  0  0  0
  9  4  1  0  0  0  0
 10  9  2  0  0  0  0
 11 33  1  0  0  0  0
 11 10  1  0  0  0  0
 12 11  1  0  0  0  0
 13 12  2  0  0  0  0
 14 34  1  0  0  0  0
 14 15  1  0  0  0  0
 14 12  1  0  0  0  0
 15 16  1  0  0  0  0
 15 36  1  0  0  0  0
 16 17  2  0  0  0  0
 18 37  1  6  0  0  0
 18 27  1  0  0  0  0
 18 16  1  0  0  0  0
 19 18  1  0  0  0  0
 20 21  1  0  0  0  0
 20 19  1  0  0  0  0
 21 26  1  0  0  0  0
 22 38  1  0  0  0  0
 22 21  2  0  0  0  0
 23 22  1  0  0  0  0
 24 23  2  0  0  0  0
 24 25  1  0  0  0  0
 25 20  2  0  0  0  0
 26 27  1  0  0  0  0
 27 42  1  0  0  0  0
 27 43  1  0  0  0  0
 28  9  1  0  0  0  0
 28 30  1  0  0  0  0
 29 28  2  0  0  0  0
 30  3  1  0  0  0  0
 31  5  1  0  0  0  0
 35 14  1  0  0  0  0
 39 23  1  0  0  0  0
 40 24  1  0  0  0  0
 41 25  1  0  0  0  0
 44 30  1  0  0  0  0
M  END
>  <Pose>
1

>  <Score>
-9.00

$$$$
