
 OpenBabel03202210083D

 39 42  0  0  0  0  0  0  0  0999 V2000
   53.2690   92.3800   26.1130 Cl  0  0  0  0  0  0  0  0  0  0  0  0
   54.3160   93.7800   25.9350 C   0  0  0  0  0  0  0  0  0  0  0  0
   54.8560   94.0190   24.6880 C   0  0  0  0  0  0  0  0  0  0  0  0
   55.6740   95.1220   24.5700 C   0  0  0  0  0  0  0  0  0  0  0  0
   55.9760   95.9740   25.6000 C   0  0  0  0  0  0  0  0  0  0  0  0
   55.4040   95.6890   26.8450 C   0  0  0  0  0  0  0  0  0  0  0  0
   54.5820   94.6070   27.0240 C   0  0  0  0  0  0  0  0  0  0  0  0
   56.8430   97.1340   25.4520 C   0  0  0  0  0  0  0  0  0  0  0  0
   57.0630   98.1440   26.3000 N   0  0  0  0  0  0  0  0  0  0  0  0
   57.9440   98.9930   25.7460 N   0  0  0  0  0  0  0  0  0  0  0  0
   58.2780   98.5240   24.5570 N   0  0  0  0  0  0  0  0  0  0  0  0
   57.6050   97.3860   24.3770 N   0  0  0  0  0  0  0  0  0  0  0  0
   54.5740   93.1440   23.5360 C   0  0  0  0  0  0  0  0  0  0  0  0
   53.7500   93.5610   22.6890 O   0  0  0  0  0  0  0  0  0  0  0  0
   55.1730   91.8970   23.3510 N   0  0  0  0  0  0  0  0  0  0  0  0
   55.8500   91.3480   22.2480 C   0  0  0  0  0  0  0  0  0  0  0  0
   55.3170   90.1810   21.5340 C   0  0  0  0  0  0  0  0  0  0  0  0
   54.7530   90.3470   20.1970 C   0  0  0  0  0  0  0  0  0  0  0  0
   53.8090   89.6060   19.6090 N   0  0  0  0  0  0  0  0  0  0  0  0
   53.5570   90.1210   18.4160 C   0  0  0  0  0  0  0  0  0  0  0  0
   54.3490   91.1900   18.2590 N   0  0  0  0  0  0  0  0  0  0  0  0
   55.0710   91.3230   19.3390 N   0  0  0  0  0  0  0  0  0  0  0  0
   52.6240   89.5810   17.5570 C   0  0  0  0  0  0  0  0  0  0  0  0
   51.9420   88.4570   17.9860 C   0  0  0  0  0  0  0  0  0  0  0  0
   52.2090   87.9310   19.2200 C   0  0  0  0  0  0  0  0  0  0  0  0
   53.1430   88.5110   20.0270 C   0  0  0  0  0  0  0  0  0  0  0  0
   56.0970   95.3120   23.5940 H   0  0  0  0  0  0  0  0  0  0  0  0
   55.6540   96.3770   27.6550 H   0  0  0  0  0  0  0  0  0  0  0  0
   54.1510   94.4040   27.9950 H   0  0  0  0  0  0  0  0  0  0  0  0
   58.3130   99.8770   26.1660 H   0  0  0  0  0  0  0  0  0  0  0  0
   55.0940   91.2510   24.2150 H   0  0  0  0  0  0  0  0  0  0  0  0
   56.0150   92.1760   21.4700 H   0  0  0  0  0  0  0  0  0  0  0  0
   56.9310   91.1200   22.5200 H   0  0  0  0  0  0  0  0  0  0  0  0
   54.5830   89.6240   22.2080 H   0  0  0  0  0  0  0  0  0  0  0  0
   56.1370   89.3940   21.4330 H   0  0  0  0  0  0  0  0  0  0  0  0
   52.4490   90.0240   16.6030 H   0  0  0  0  0  0  0  0  0  0  0  0
   51.2070   87.9940   17.3640 H   0  0  0  0  0  0  0  0  0  0  0  0
   51.6950   87.0570   19.5830 H   0  0  0  0  0  0  0  0  0  0  0  0
   53.3800   88.1190   21.0130 H   0  0  0  0  0  0  0  0  0  0  0  0
  2  1  1  0  0  0  0
  2  7  1  0  0  0  0
  3  2  2  0  0  0  0
  4  3  1  0  0  0  0
  4  5  2  0  0  0  0
  5  6  1  0  0  0  0
  6  7  2  0  0  0  0
  6 28  1  0  0  0  0
  7 29  1  0  0  0  0
  8  5  1  0  0  0  0
  8  9  2  0  0  0  0
 10 30  1  0  0  0  0
 10  9  1  0  0  0  0
 11 10  1  0  0  0  0
 12 11  2  0  0  0  0
 12  8  1  0  0  0  0
 13  3  1  0  0  0  0
 14 13  2  0  0  0  0
 15 13  1  0  0  0  0
 15 31  1  0  0  0  0
 16 33  1  0  0  0  0
 16 15  1  0  0  0  0
 17 34  1  0  0  0  0
 17 16  1  0  0  0  0
 18 17  1  0  0  0  0
 19 26  1  0  0  0  0
 19 18  1  0  0  0  0
 20 19  1  0  0  0  0
 21 20  2  0  0  0  0
 21 22  1  0  0  0  0
 22 18  2  0  0  0  0
 23 24  2  0  0  0  0
 23 20  1  0  0  0  0
 24 25  1  0  0  0  0
 25 38  1  0  0  0  0
 25 26  2  0  0  0  0
 26 39  1  0  0  0  0
 27  4  1  0  0  0  0
 32 16  1  0  0  0  0
 35 17  1  0  0  0  0
 36 23  1  0  0  0  0
 37 24  1  0  0  0  0
M  END
>  <Pose>
1

>  <Score>
-8.86

$$$$
