
 OpenBabel03202210083D

 53 56  0  0  1  0  0  0  0  0999 V2000
   55.1090   88.0070   24.6570 S   0  0  0  0  0  0  0  0  0  0  0  0
   56.3040   88.8870   25.0340 O   0  0  0  0  0  0  0  0  0  0  0  0
   53.9120   88.7070   25.3120 O   0  0  0  0  0  0  0  0  0  0  0  0
   54.9720   88.0770   22.9700 N   0  0  0  0  0  0  0  0  0  0  0  0
   56.0820   88.6070   22.2610 C   0  0  0  0  0  0  0  0  0  0  0  0
   55.8910   88.6030   20.7620 C   0  0  1  0  0  0  0  0  0  0  0  0
   55.5730   87.2290   20.2820 C   0  0  0  0  0  0  0  0  0  0  0  0
   54.4490   86.5980   21.0860 C   0  0  0  0  0  0  0  0  0  0  0  0
   54.7880   86.6780   22.5330 C   0  0  0  0  0  0  0  0  0  0  0  0
   54.9910   89.6630   20.2640 C   0  0  0  0  0  0  0  0  0  0  0  0
   54.2430   89.3220   19.2750 O   0  0  0  0  0  0  0  0  0  0  0  0
   54.8660   90.9600   20.7410 N   0  0  0  0  0  0  0  0  0  0  0  0
   53.7340   91.7740   20.4250 C   0  0  0  0  0  0  0  0  0  0  0  0
   53.3000   92.6710   21.5510 C   0  0  0  0  0  0  0  0  0  0  0  0
   54.2640   92.9790   22.4600 O   0  0  0  0  0  0  0  0  0  0  0  0
   55.1080   91.9570   22.8420 C   0  0  0  0  0  0  0  0  0  0  0  0
   55.8780   91.5690   21.5690 C   0  0  0  0  0  0  0  0  0  0  0  0
   55.2740   86.4610   25.3750 C   0  0  0  0  0  0  0  0  0  0  0  0
   56.3130   85.6120   25.0810 C   0  0  0  0  0  0  0  0  0  0  0  0
   56.4260   84.4000   25.7440 C   0  0  0  0  0  0  0  0  0  0  0  0
   55.4990   84.0120   26.7150 C   0  0  0  0  0  0  0  0  0  0  0  0
   54.4510   84.8520   27.0180 C   0  0  0  0  0  0  0  0  0  0  0  0
   54.3560   86.0490   26.3500 C   0  0  0  0  0  0  0  0  0  0  0  0
   53.4690   84.4710   28.0250 C   0  0  0  0  0  0  0  0  0  0  0  0
   52.6800   83.3840   27.9910 N   0  0  0  0  0  0  0  0  0  0  0  0
   51.9210   83.3530   29.0520 O   0  0  0  0  0  0  0  0  0  0  0  0
   52.1860   84.3950   29.7940 C   0  0  0  0  0  0  0  0  0  0  0  0
   53.1470   85.0990   29.1670 N   0  0  0  0  0  0  0  0  0  0  0  0
   51.5440   84.7540   31.1070 C   0  0  0  0  0  0  0  0  0  0  0  0
   57.4950   85.9340   23.8300 Cl  0  0  0  0  0  0  0  0  0  0  0  0
   56.3190   89.6610   22.5780 H   0  0  0  0  0  0  0  0  0  0  0  0
   56.9800   88.0040   22.4810 H   0  0  0  0  0  0  0  0  0  0  0  0
   56.9180   88.8420   20.3470 H   0  0  0  0  0  0  0  0  0  0  0  0
   56.4690   86.5910   20.4530 H   0  0  0  0  0  0  0  0  0  0  0  0
   55.3120   87.2190   19.2110 H   0  0  0  0  0  0  0  0  0  0  0  0
   53.5260   87.1750   20.9000 H   0  0  0  0  0  0  0  0  0  0  0  0
   54.3980   85.5460   20.7880 H   0  0  0  0  0  0  0  0  0  0  0  0
   55.7700   86.1580   22.7220 H   0  0  0  0  0  0  0  0  0  0  0  0
   53.9860   86.2000   23.1200 H   0  0  0  0  0  0  0  0  0  0  0  0
   52.8460   91.1870   20.1040 H   0  0  0  0  0  0  0  0  0  0  0  0
   54.0180   92.3990   19.5330 H   0  0  0  0  0  0  0  0  0  0  0  0
   52.4070   92.2460   22.0970 H   0  0  0  0  0  0  0  0  0  0  0  0
   52.9340   93.6170   21.0940 H   0  0  0  0  0  0  0  0  0  0  0  0
   54.4680   91.0830   23.1340 H   0  0  0  0  0  0  0  0  0  0  0  0
   55.7630   92.3000   23.6360 H   0  0  0  0  0  0  0  0  0  0  0  0
   56.7710   90.9920   21.7530 H   0  0  0  0  0  0  0  0  0  0  0  0
   56.1130   92.5540   21.0520 H   0  0  0  0  0  0  0  0  0  0  0  0
   57.2490   83.7460   25.5040 H   0  0  0  0  0  0  0  0  0  0  0  0
   55.5950   83.0650   27.2270 H   0  0  0  0  0  0  0  0  0  0  0  0
   53.5250   86.6880   26.6060 H   0  0  0  0  0  0  0  0  0  0  0  0
   50.8620   83.9380   31.3910 H   0  0  0  0  0  0  0  0  0  0  0  0
   52.3650   84.9250   31.8260 H   0  0  0  0  0  0  0  0  0  0  0  0
   51.0100   85.7160   30.9330 H   0  0  0  0  0  0  0  0  0  0  0  0
  1  2  2  0  0  0  0
  1  3  2  0  0  0  0
  1 18  1  0  0  0  0
  4  1  1  0  0  0  0
  5 32  1  0  0  0  0
  5 31  1  0  0  0  0
  5  4  1  0  0  0  0
  6 33  1  6  0  0  0
  6  5  1  0  0  0  0
  7 34  1  0  0  0  0
  7  6  1  0  0  0  0
  7  8  1  0  0  0  0
  8  9  1  0  0  0  0
  9 38  1  0  0  0  0
  9  4  1  0  0  0  0
  9 39  1  0  0  0  0
 10 12  1  0  0  0  0
 10  6  1  0  0  0  0
 11 10  2  0  0  0  0
 12 17  1  0  0  0  0
 13 12  1  0  0  0  0
 13 14  1  0  0  0  0
 14 42  1  0  0  0  0
 14 15  1  0  0  0  0
 15 16  1  0  0  0  0
 16 44  1  0  0  0  0
 16 45  1  0  0  0  0
 17 46  1  0  0  0  0
 17 16  1  0  0  0  0
 18 23  1  0  0  0  0
 19 18  2  0  0  0  0
 19 20  1  0  0  0  0
 20 21  2  0  0  0  0
 21 22  1  0  0  0  0
 21 49  1  0  0  0  0
 22 24  1  0  0  0  0
 23 50  1  0  0  0  0
 23 22  2  0  0  0  0
 24 28  1  0  0  0  0
 25 24  2  0  0  0  0
 25 26  1  0  0  0  0
 26 27  1  0  0  0  0
 27 29  1  0  0  0  0
 28 27  2  0  0  0  0
 29 51  1  0  0  0  0
 29 52  1  0  0  0  0
 30 19  1  0  0  0  0
 35  7  1  0  0  0  0
 36  8  1  0  0  0  0
 37  8  1  0  0  0  0
 40 13  1  0  0  0  0
 41 13  1  0  0  0  0
 43 14  1  0  0  0  0
 47 17  1  0  0  0  0
 48 20  1  0  0  0  0
 53 29  1  0  0  0  0
M  END
>  <Pose>
1

>  <Score>
-5.44

$$$$
