
 OpenBabel03202210083D

 67 70  0  0  1  0  0  0  0  0999 V2000
   54.9920   92.8460   22.2130 S   0  0  0  0  0  0  0  0  0  0  0  0
   55.5150   93.6590   21.0300 O   0  0  0  0  0  0  0  0  0  0  0  0
   53.5040   93.1770   22.2390 O   0  0  0  0  0  0  0  0  0  0  0  0
   55.6850   93.4270   23.6060 N   0  0  0  0  0  0  0  0  0  0  0  0
   54.8710   93.8930   24.6580 C   0  0  0  0  0  0  0  0  0  0  0  0
   55.1410   95.3320   25.0420 C   0  0  2  0  0  0  0  0  0  0  0  0
   56.5230   95.7850   24.7670 C   0  0  0  0  0  0  0  0  0  0  0  0
   57.5440   94.7340   24.5260 C   0  0  0  0  0  0  0  0  0  0  0  0
   57.0700   93.5290   23.7550 C   0  0  0  0  0  0  0  0  0  0  0  0
   54.7970   95.5740   26.4660 C   0  0  0  0  0  0  0  0  0  0  0  0
   55.0640   94.6730   27.2980 O   0  0  0  0  0  0  0  0  0  0  0  0
   54.1750   96.8150   26.8680 N   0  0  0  0  0  0  0  0  0  0  0  0
   53.4110   96.8040   28.0620 C   0  0  0  0  0  0  0  0  0  0  0  0
   52.5490   97.9690   28.3750 C   0  0  0  0  0  0  0  0  0  0  0  0
   51.7520   98.5350   27.3510 N   0  0  0  0  0  0  0  0  0  0  0  0
   52.2960   99.5510   26.5740 C   0  0  0  0  0  0  0  0  0  0  0  0
   51.6660  100.9080   26.7040 C   0  0  0  0  0  0  0  0  0  0  0  0
   50.2840  100.8460   26.8110 O   0  0  0  0  0  0  0  0  0  0  0  0
   50.0100  100.1620   27.9950 C   0  0  0  0  0  0  0  0  0  0  0  0
   50.3790   98.7150   27.7610 C   0  0  0  0  0  0  0  0  0  0  0  0
   55.1640   91.1580   21.9010 C   0  0  0  0  0  0  0  0  0  0  0  0
   55.7530   90.3310   22.8450 C   0  0  0  0  0  0  0  0  0  0  0  0
   55.9020   88.9790   22.6520 C   0  0  0  0  0  0  0  0  0  0  0  0
   55.4430   88.4130   21.4560 C   0  0  0  0  0  0  0  0  0  0  0  0
   54.8690   89.2310   20.5380 C   0  0  0  0  0  0  0  0  0  0  0  0
   54.7200   90.5940   20.7360 C   0  0  0  0  0  0  0  0  0  0  0  0
   53.8910   91.6570   19.3550 B   0  0  0  0  0  0  0  0  0  0  0  0
   55.6990   86.9480   21.4450 C   0  0  0  0  0  0  0  0  0  0  0  0
   56.8050   86.8240   22.4730 C   0  0  0  0  0  0  0  0  0  0  0  0
   56.4340   87.8970   23.4030 N   0  0  0  0  0  0  0  0  0  0  0  0
   56.6010   87.8050   24.7830 C   0  0  0  0  0  0  0  0  0  0  0  0
   55.7880   87.0980   25.4740 O   0  0  0  0  0  0  0  0  0  0  0  0
   57.6650   88.4760   25.5260 C   0  0  0  0  0  0  0  0  0  0  0  0
   58.9370   87.6340   25.5910 C   0  0  0  0  0  0  0  0  0  0  0  0
   55.0970   93.2810   25.5790 H   0  0  0  0  0  0  0  0  0  0  0  0
   53.8110   93.7050   24.4220 H   0  0  0  0  0  0  0  0  0  0  0  0
   54.4160   95.9340   24.4150 H   0  0  0  0  0  0  0  0  0  0  0  0
   56.8940   96.3880   25.6530 H   0  0  0  0  0  0  0  0  0  0  0  0
   56.5290   96.4690   23.8820 H   0  0  0  0  0  0  0  0  0  0  0  0
   58.3720   95.1810   23.9130 H   0  0  0  0  0  0  0  0  0  0  0  0
   58.0440   94.4620   25.4920 H   0  0  0  0  0  0  0  0  0  0  0  0
   57.5890   93.3820   22.7900 H   0  0  0  0  0  0  0  0  0  0  0  0
   57.4120   92.6360   24.3700 H   0  0  0  0  0  0  0  0  0  0  0  0
   54.3350   97.6080   26.2410 H   0  0  0  0  0  0  0  0  0  0  0  0
   54.1480   96.7180   28.9110 H   0  0  0  0  0  0  0  0  0  0  0  0
   52.8080   95.8380   28.0390 H   0  0  0  0  0  0  0  0  0  0  0  0
   51.8750   97.7070   29.2660 H   0  0  0  0  0  0  0  0  0  0  0  0
   53.2100   98.7700   28.8560 H   0  0  0  0  0  0  0  0  0  0  0  0
   52.0610   99.2630   25.4760 H   0  0  0  0  0  0  0  0  0  0  0  0
   53.3950   99.5610   26.5670 H   0  0  0  0  0  0  0  0  0  0  0  0
   52.0390  101.3940   27.6210 H   0  0  0  0  0  0  0  0  0  0  0  0
   51.9170  101.5690   25.8520 H   0  0  0  0  0  0  0  0  0  0  0  0
   50.5000  100.6230   28.8540 H   0  0  0  0  0  0  0  0  0  0  0  0
   48.9090  100.1690   28.2140 H   0  0  0  0  0  0  0  0  0  0  0  0
   49.7560   98.3810   26.8800 H   0  0  0  0  0  0  0  0  0  0  0  0
   50.0870   98.0490   28.5860 H   0  0  0  0  0  0  0  0  0  0  0  0
   56.1240   90.7140   23.7850 H   0  0  0  0  0  0  0  0  0  0  0  0
   54.5000   88.8190   19.5920 H   0  0  0  0  0  0  0  0  0  0  0  0
   54.8250   86.3460   21.7010 H   0  0  0  0  0  0  0  0  0  0  0  0
   56.1020   86.6410   20.4640 H   0  0  0  0  0  0  0  0  0  0  0  0
   56.7990   85.8360   22.9740 H   0  0  0  0  0  0  0  0  0  0  0  0
   57.7840   86.9670   22.0150 H   0  0  0  0  0  0  0  0  0  0  0  0
   57.9130   89.4090   24.9270 H   0  0  0  0  0  0  0  0  0  0  0  0
   57.4130   88.7850   26.5440 H   0  0  0  0  0  0  0  0  0  0  0  0
   59.8100   88.2820   25.4220 H   0  0  0  0  0  0  0  0  0  0  0  0
   58.8500   86.8320   24.8260 H   0  0  0  0  0  0  0  0  0  0  0  0
   58.9810   87.1530   26.5880 H   0  0  0  0  0  0  0  0  0  0  0  0
  1  3  2  0  0  0  0
  1  4  1  0  0  0  0
  2  1  2  0  0  0  0
  4  9  1  0  0  0  0
  4  5  1  0  0  0  0
  5  6  1  0  0  0  0
  5 35  1  0  0  0  0
  6 37  1  6  0  0  0
  6 10  1  0  0  0  0
  7  6  1  0  0  0  0
  7 38  1  0  0  0  0
  8  7  1  0  0  0  0
  8 41  1  0  0  0  0
  9 43  1  0  0  0  0
  9  8  1  0  0  0  0
 10 12  1  0  0  0  0
 10 11  2  0  0  0  0
 12 13  1  0  0  0  0
 13 14  1  0  0  0  0
 13 45  1  0  0  0  0
 14 48  1  0  0  0  0
 14 47  1  0  0  0  0
 15 20  1  0  0  0  0
 15 14  1  0  0  0  0
 16 17  1  0  0  0  0
 16 15  1  0  0  0  0
 17 18  1  0  0  0  0
 17 51  1  0  0  0  0
 18 19  1  0  0  0  0
 19 54  1  0  0  0  0
 19 53  1  0  0  0  0
 20 19  1  0  0  0  0
 20 56  1  0  0  0  0
 21  1  1  0  0  0  0
 21 22  1  0  0  0  0
 22 57  1  0  0  0  0
 23 22  2  0  0  0  0
 23 30  1  0  0  0  0
 24 23  1  0  0  0  0
 25 26  1  0  0  0  0
 25 24  2  0  0  0  0
 26 21  2  0  0  0  0
 27 26  1  0  0  0  0
 28 24  1  0  0  0  0
 28 59  1  0  0  0  0
 28 29  1  0  0  0  0
 29 61  1  0  0  0  0
 29 30  1  0  0  0  0
 30 31  1  0  0  0  0
 31 32  2  0  0  0  0
 31 33  1  0  0  0  0
 33 34  1  0  0  0  0
 33 64  1  0  0  0  0
 34 67  1  0  0  0  0
 36  5  1  0  0  0  0
 39  7  1  0  0  0  0
 40  8  1  0  0  0  0
 42  9  1  0  0  0  0
 44 12  1  0  0  0  0
 46 13  1  0  0  0  0
 49 16  1  0  0  0  0
 50 16  1  0  0  0  0
 52 17  1  0  0  0  0
 55 20  1  0  0  0  0
 58 25  1  0  0  0  0
 60 28  1  0  0  0  0
 62 29  1  0  0  0  0
 63 33  1  0  0  0  0
 65 34  1  0  0  0  0
 66 34  1  0  0  0  0
M  END
>  <Pose>
1

>  <Score>
-8.15

$$$$
