
 OpenBabel03202210083D

 51 54  0  0  1  0  0  0  0  0999 V2000
   56.8290   87.2840   21.9990 Cl  0  0  0  0  0  0  0  0  0  0  0  0
   55.4230   86.2140   22.0900 C   0  0  0  0  0  0  0  0  0  0  0  0
   54.8900   85.6520   20.9570 C   0  0  0  0  0  0  0  0  0  0  0  0
   53.7930   84.8190   21.0460 C   0  0  0  0  0  0  0  0  0  0  0  0
   53.2030   84.5260   22.2490 C   0  0  0  0  0  0  0  0  0  0  0  0
   53.7330   85.0870   23.3770 C   0  0  0  0  0  0  0  0  0  0  0  0
   54.8470   85.9340   23.3060 C   0  0  0  0  0  0  0  0  0  0  0  0
   52.0720   83.6680   22.3070 N   0  0  0  0  0  0  0  0  0  0  0  0
   50.8280   84.0930   21.7680 C   0  0  0  0  0  0  0  0  0  0  0  0
   50.7900   85.2610   21.2430 O   0  0  0  0  0  0  0  0  0  0  0  0
   49.7040   83.2640   21.8160 N   0  0  0  0  0  0  0  0  0  0  0  0
   49.7780   81.9790   22.4030 C   0  0  0  0  0  0  0  0  0  0  0  0
   48.8990   81.1260   22.1750 O   0  0  0  0  0  0  0  0  0  0  0  0
   50.9070   81.6410   23.2970 C   0  0  1  0  0  0  0  0  0  0  0  0
   52.1300   82.3760   22.8930 C   0  0  0  0  0  0  0  0  0  0  0  0
   53.2360   81.8380   23.0740 O   0  0  0  0  0  0  0  0  0  0  0  0
   50.5850   82.0270   24.7150 C   0  0  0  0  0  0  0  0  0  0  0  0
   50.9830   81.4380   25.8250 C   0  0  0  0  0  0  0  0  0  0  0  0
   50.4320   82.1500   27.0050 C   0  0  2  0  0  0  0  0  0  0  0  0
   49.3400   82.8950   26.4420 N   0  0  0  0  0  0  0  0  0  0  0  0
   49.7670   83.1180   25.1250 N   0  0  0  0  0  0  0  0  0  0  0  0
   51.4870   82.9660   27.5940 C   0  0  0  0  0  0  0  0  0  0  0  0
   52.7590   82.8720   27.0710 C   0  0  0  0  0  0  0  0  0  0  0  0
   53.8240   83.6040   27.5560 C   0  0  0  0  0  0  0  0  0  0  0  0
   53.5830   84.4740   28.6270 C   0  0  0  0  0  0  0  0  0  0  0  0
   52.3300   84.6010   29.1840 C   0  0  0  0  0  0  0  0  0  0  0  0
   51.3130   83.8380   28.6470 C   0  0  0  0  0  0  0  0  0  0  0  0
   52.1490   85.4610   30.2260 O   0  0  0  0  0  0  0  0  0  0  0  0
   51.6730   85.1410   31.5010 C   0  0  0  0  0  0  0  0  0  0  0  0
   54.6130   85.2260   29.1460 O   0  0  0  0  0  0  0  0  0  0  0  0
   55.1090   83.5170   27.0350 O   0  0  0  0  0  0  0  0  0  0  0  0
   55.4110   84.3570   25.9400 C   0  0  0  0  0  0  0  0  0  0  0  0
   55.3550   85.8820   20.0130 H   0  0  0  0  0  0  0  0  0  0  0  0
   53.3930   84.3890   20.1400 H   0  0  0  0  0  0  0  0  0  0  0  0
   53.2840   84.8690   24.3290 H   0  0  0  0  0  0  0  0  0  0  0  0
   55.2590   86.3720   24.1980 H   0  0  0  0  0  0  0  0  0  0  0  0
   48.8010   83.6320   21.3980 H   0  0  0  0  0  0  0  0  0  0  0  0
   51.0470   80.5430   23.2630 H   0  0  0  0  0  0  0  0  0  0  0  0
   51.6290   80.5510   25.8300 H   0  0  0  0  0  0  0  0  0  0  0  0
   50.0630   81.3810   27.7220 H   0  0  0  0  0  0  0  0  0  0  0  0
   49.0810   83.7400   26.9480 H   0  0  0  0  0  0  0  0  0  0  0  0
   49.5160   83.9510   24.5560 H   0  0  0  0  0  0  0  0  0  0  0  0
   52.9830   82.2080   26.2400 H   0  0  0  0  0  0  0  0  0  0  0  0
   50.3220   83.9080   29.0540 H   0  0  0  0  0  0  0  0  0  0  0  0
   50.8170   84.4300   31.4810 H   0  0  0  0  0  0  0  0  0  0  0  0
   51.3670   85.9920   32.1030 H   0  0  0  0  0  0  0  0  0  0  0  0
   52.4850   84.6120   32.0490 H   0  0  0  0  0  0  0  0  0  0  0  0
   55.5050   84.7910   29.3410 H   0  0  0  0  0  0  0  0  0  0  0  0
   56.3980   84.1130   25.5140 H   0  0  0  0  0  0  0  0  0  0  0  0
   55.3050   85.4250   26.1790 H   0  0  0  0  0  0  0  0  0  0  0  0
   54.6670   84.1350   25.1310 H   0  0  0  0  0  0  0  0  0  0  0  0
  1  2  1  0  0  0  0
  2  7  1  0  0  0  0
  3  4  1  0  0  0  0
  3  2  2  0  0  0  0
  4  5  2  0  0  0  0
  5  8  1  0  0  0  0
  5  6  1  0  0  0  0
  6 35  1  0  0  0  0
  7  6  2  0  0  0  0
  7 36  1  0  0  0  0
  8 15  1  0  0  0  0
  9 11  1  0  0  0  0
  9  8  1  0  0  0  0
 10  9  2  0  0  0  0
 11 12  1  0  0  0  0
 12 14  1  0  0  0  0
 13 12  2  0  0  0  0
 14 38  1  6  0  0  0
 14 17  1  0  0  0  0
 15 16  2  0  0  0  0
 15 14  1  0  0  0  0
 17 21  1  0  0  0  0
 17 18  2  0  0  0  0
 18 39  1  0  0  0  0
 18 19  1  0  0  0  0
 19 22  1  0  0  0  0
 19 40  1  1  0  0  0
 20 41  1  0  0  0  0
 20 19  1  0  0  0  0
 21 20  1  0  0  0  0
 22 27  1  0  0  0  0
 23 24  1  0  0  0  0
 23 22  2  0  0  0  0
 24 25  2  0  0  0  0
 25 30  1  0  0  0  0
 25 26  1  0  0  0  0
 26 28  1  0  0  0  0
 27 44  1  0  0  0  0
 27 26  2  0  0  0  0
 28 29  1  0  0  0  0
 29 47  1  0  0  0  0
 29 46  1  0  0  0  0
 30 48  1  0  0  0  0
 31 24  1  0  0  0  0
 32 50  1  0  0  0  0
 32 31  1  0  0  0  0
 33  3  1  0  0  0  0
 34  4  1  0  0  0  0
 37 11  1  0  0  0  0
 42 21  1  0  0  0  0
 43 23  1  0  0  0  0
 45 29  1  0  0  0  0
 49 32  1  0  0  0  0
 51 32  1  0  0  0  0
M  END
>  <Pose>
1

>  <Score>
-7.82

$$$$
