
 OpenBabel03202210083D

 47 50  0  0  1  0  0  0  0  0999 V2000
   53.1360   84.3390   18.0450 Cl  0  0  0  0  0  0  0  0  0  0  0  0
   53.6590   85.2510   19.4490 C   0  0  0  0  0  0  0  0  0  0  0  0
   54.4330   84.6600   20.4370 C   0  0  0  0  0  0  0  0  0  0  0  0
   54.8230   85.3950   21.5160 C   0  0  0  0  0  0  0  0  0  0  0  0
   54.4740   86.7310   21.6700 C   0  0  0  0  0  0  0  0  0  0  0  0
   53.7060   87.3130   20.6860 C   0  0  0  0  0  0  0  0  0  0  0  0
   53.2930   86.5810   19.5710 C   0  0  0  0  0  0  0  0  0  0  0  0
   54.8840   87.4930   22.7980 N   0  0  0  0  0  0  0  0  0  0  0  0
   54.5070   87.1640   24.1280 C   0  0  0  0  0  0  0  0  0  0  0  0
   53.7730   86.1480   24.3080 O   0  0  0  0  0  0  0  0  0  0  0  0
   54.9330   87.9380   25.2310 N   0  0  0  0  0  0  0  0  0  0  0  0
   55.7530   89.0740   25.0370 C   0  0  0  0  0  0  0  0  0  0  0  0
   56.2950   89.6820   26.0260 O   0  0  0  0  0  0  0  0  0  0  0  0
   56.0210   89.6060   23.7020 C   0  0  1  0  0  0  0  0  0  0  0  0
   55.7070   88.6400   22.6420 C   0  0  0  0  0  0  0  0  0  0  0  0
   56.1980   88.8130   21.4730 O   0  0  0  0  0  0  0  0  0  0  0  0
   55.3100   90.9050   23.5100 C   0  0  0  0  0  0  0  0  0  0  0  0
   54.2700   91.3610   24.1570 C   0  0  0  0  0  0  0  0  0  0  0  0
   53.9500   92.6930   23.5900 C   0  0  2  0  0  0  0  0  0  0  0  0
   54.6290   92.7010   22.3120 N   0  0  0  0  0  0  0  0  0  0  0  0
   55.7200   91.8520   22.5310 N   0  0  0  0  0  0  0  0  0  0  0  0
   54.4820   93.7770   24.4620 C   0  0  0  0  0  0  0  0  0  0  0  0
   53.7040   94.4110   25.4040 C   0  0  0  0  0  0  0  0  0  0  0  0
   54.1870   95.4190   26.2180 C   0  0  0  0  0  0  0  0  0  0  0  0
   55.4970   95.8260   26.1050 C   0  0  0  0  0  0  0  0  0  0  0  0
   56.2900   95.2050   25.1710 C   0  0  0  0  0  0  0  0  0  0  0  0
   55.7980   94.2020   24.3650 C   0  0  0  0  0  0  0  0  0  0  0  0
   56.0000   96.8300   26.9070 O   0  0  0  0  0  0  0  0  0  0  0  0
   56.5520   97.9830   26.3160 C   0  0  0  0  0  0  0  0  0  0  0  0
   53.3570   96.0180   27.1460 O   0  0  0  0  0  0  0  0  0  0  0  0
   54.7150   83.6360   20.3420 H   0  0  0  0  0  0  0  0  0  0  0  0
   55.4350   84.9220   22.2940 H   0  0  0  0  0  0  0  0  0  0  0  0
   53.4390   88.3540   20.8150 H   0  0  0  0  0  0  0  0  0  0  0  0
   52.6880   87.0840   18.8200 H   0  0  0  0  0  0  0  0  0  0  0  0
   54.6420   87.6780   26.2090 H   0  0  0  0  0  0  0  0  0  0  0  0
   57.1310   89.8120   23.6600 H   0  0  0  0  0  0  0  0  0  0  0  0
   53.7670   90.8210   24.9580 H   0  0  0  0  0  0  0  0  0  0  0  0
   52.8470   92.8100   23.4650 H   0  0  0  0  0  0  0  0  0  0  0  0
   54.0090   92.3430   21.5470 H   0  0  0  0  0  0  0  0  0  0  0  0
   56.6440   91.9480   22.0350 H   0  0  0  0  0  0  0  0  0  0  0  0
   52.6660   94.0710   25.4750 H   0  0  0  0  0  0  0  0  0  0  0  0
   57.3360   95.5220   25.0740 H   0  0  0  0  0  0  0  0  0  0  0  0
   56.4240   93.7010   23.6170 H   0  0  0  0  0  0  0  0  0  0  0  0
   55.8110   98.5630   25.7340 H   0  0  0  0  0  0  0  0  0  0  0  0
   57.0130   98.6000   27.1110 H   0  0  0  0  0  0  0  0  0  0  0  0
   57.3810   97.6500   25.6560 H   0  0  0  0  0  0  0  0  0  0  0  0
   52.8480   95.4760   27.8150 H   0  0  0  0  0  0  0  0  0  0  0  0
  1  2  1  0  0  0  0
  2  7  2  0  0  0  0
  2  3  1  0  0  0  0
  3  4  2  0  0  0  0
  4  5  1  0  0  0  0
  4 32  1  0  0  0  0
  5  8  1  0  0  0  0
  6 33  1  0  0  0  0
  6  5  2  0  0  0  0
  7  6  1  0  0  0  0
  8  9  1  0  0  0  0
  9 10  2  0  0  0  0
  9 11  1  0  0  0  0
 11 35  1  0  0  0  0
 12 11  1  0  0  0  0
 12 13  2  0  0  0  0
 14 36  1  6  0  0  0
 14 12  1  0  0  0  0
 15  8  1  0  0  0  0
 15 14  1  0  0  0  0
 16 15  2  0  0  0  0
 17 14  1  0  0  0  0
 17 18  2  0  0  0  0
 18 37  1  0  0  0  0
 19 38  1  6  0  0  0
 19 18  1  0  0  0  0
 19 22  1  0  0  0  0
 20 21  1  0  0  0  0
 20 19  1  0  0  0  0
 21 17  1  0  0  0  0
 22 23  1  0  0  0  0
 23 41  1  0  0  0  0
 23 24  2  0  0  0  0
 24 30  1  0  0  0  0
 25 24  1  0  0  0  0
 25 28  1  0  0  0  0
 26 25  2  0  0  0  0
 27 22  2  0  0  0  0
 27 26  1  0  0  0  0
 29 28  1  0  0  0  0
 29 45  1  0  0  0  0
 30 47  1  0  0  0  0
 31  3  1  0  0  0  0
 34  7  1  0  0  0  0
 39 20  1  0  0  0  0
 40 21  1  0  0  0  0
 42 26  1  0  0  0  0
 43 27  1  0  0  0  0
 44 29  1  0  0  0  0
 46 29  1  0  0  0  0
M  END
>  <Pose>
1

>  <Score>
-6.13

$$$$
