
 OpenBabel03202210083D

 41 44  0  0  1  0  0  0  0  0999 V2000
   55.1050   97.2800   27.1080 Cl  0  0  0  0  0  0  0  0  0  0  0  0
   53.5320   97.9820   27.4450 C   0  0  0  0  0  0  0  0  0  0  0  0
   53.4070   99.1280   28.2020 C   0  0  0  0  0  0  0  0  0  0  0  0
   52.1600   99.6790   28.4680 C   0  0  0  0  0  0  0  0  0  0  0  0
   51.0030   99.1040   27.9870 C   0  0  0  0  0  0  0  0  0  0  0  0
   51.1320   97.9590   27.2310 C   0  0  0  0  0  0  0  0  0  0  0  0
   52.3730   97.4100   26.9650 C   0  0  0  0  0  0  0  0  0  0  0  0
   49.6970   99.6670   28.2540 N   0  0  0  0  0  0  0  0  0  0  0  0
   48.7010   98.9030   28.9100 C   0  0  0  0  0  0  0  0  0  0  0  0
   48.9440   97.7260   29.2740 O   0  0  0  0  0  0  0  0  0  0  0  0
   47.4150   99.5000   29.1510 N   0  0  0  0  0  0  0  0  0  0  0  0
   47.1370  100.8320   28.7410 C   0  0  0  0  0  0  0  0  0  0  0  0
   45.9440  101.2140   28.6490 O   0  0  0  0  0  0  0  0  0  0  0  0
   48.2530  101.7400   28.4310 C   0  0  2  0  0  0  0  0  0  0  0  0
   49.3860  100.9910   27.8580 C   0  0  0  0  0  0  0  0  0  0  0  0
   50.1260  101.5430   26.9720 O   0  0  0  0  0  0  0  0  0  0  0  0
   48.6950  102.4830   29.6580 C   0  0  0  0  0  0  0  0  0  0  0  0
   49.3060  102.0160   30.7150 C   0  0  0  0  0  0  0  0  0  0  0  0
   49.5370  103.1140   31.6660 C   0  0  1  0  0  0  0  0  0  0  0  0
   49.3170  104.3000   30.8880 N   0  0  0  0  0  0  0  0  0  0  0  0
   48.4980  103.8770   29.8290 N   0  0  0  0  0  0  0  0  0  0  0  0
   48.5020  102.9980   32.7260 C   0  0  0  0  0  0  0  0  0  0  0  0
   48.8610  102.6630   34.0100 C   0  0  0  0  0  0  0  0  0  0  0  0
   47.9170  102.5540   34.9850 N   0  0  0  0  0  0  0  0  0  0  0  0
   46.6110  102.7630   34.7530 C   0  0  0  0  0  0  0  0  0  0  0  0
   46.2170  103.0990   33.4770 C   0  0  0  0  0  0  0  0  0  0  0  0
   47.1760  103.2160   32.4610 C   0  0  0  0  0  0  0  0  0  0  0  0
   54.3010   99.5920   28.5860 H   0  0  0  0  0  0  0  0  0  0  0  0
   52.0440  100.5760   29.0550 H   0  0  0  0  0  0  0  0  0  0  0  0
   50.2210   97.4900   26.8420 H   0  0  0  0  0  0  0  0  0  0  0  0
   52.4850   96.5010   26.3690 H   0  0  0  0  0  0  0  0  0  0  0  0
   46.6520   98.9740   29.6310 H   0  0  0  0  0  0  0  0  0  0  0  0
   47.9650  102.5340   27.7060 H   0  0  0  0  0  0  0  0  0  0  0  0
   49.5860  100.9780   30.8420 H   0  0  0  0  0  0  0  0  0  0  0  0
   50.5630  103.0860   32.1080 H   0  0  0  0  0  0  0  0  0  0  0  0
   50.1890  104.7190   30.5500 H   0  0  0  0  0  0  0  0  0  0  0  0
   47.8770  104.5360   29.3060 H   0  0  0  0  0  0  0  0  0  0  0  0
   49.9190  102.4890   34.2250 H   0  0  0  0  0  0  0  0  0  0  0  0
   45.8640  102.6700   35.5550 H   0  0  0  0  0  0  0  0  0  0  0  0
   45.1710  103.2700   33.2800 H   0  0  0  0  0  0  0  0  0  0  0  0
   46.8620  103.4760   31.4810 H   0  0  0  0  0  0  0  0  0  0  0  0
  1  2  1  0  0  0  0
  2  3  1  0  0  0  0
  3  4  2  0  0  0  0
  3 28  1  0  0  0  0
  4 29  1  0  0  0  0
  5  8  1  0  0  0  0
  5  4  1  0  0  0  0
  6  5  2  0  0  0  0
  7  6  1  0  0  0  0
  7  2  2  0  0  0  0
  8  9  1  0  0  0  0
  9 11  1  0  0  0  0
  9 10  2  0  0  0  0
 11 32  1  0  0  0  0
 12 11  1  0  0  0  0
 13 12  2  0  0  0  0
 14 33  1  6  0  0  0
 14 12  1  0  0  0  0
 14 17  1  0  0  0  0
 15  8  1  0  0  0  0
 15 14  1  0  0  0  0
 16 15  2  0  0  0  0
 17 21  1  0  0  0  0
 17 18  2  0  0  0  0
 18 34  1  0  0  0  0
 18 19  1  0  0  0  0
 19 35  1  1  0  0  0
 19 22  1  0  0  0  0
 20 19  1  0  0  0  0
 21 20  1  0  0  0  0
 22 23  1  0  0  0  0
 23 38  1  0  0  0  0
 23 24  2  0  0  0  0
 25 24  1  0  0  0  0
 25 39  1  0  0  0  0
 26 25  2  0  0  0  0
 27 22  2  0  0  0  0
 27 26  1  0  0  0  0
 30  6  1  0  0  0  0
 31  7  1  0  0  0  0
 36 20  1  0  0  0  0
 37 21  1  0  0  0  0
 40 26  1  0  0  0  0
 41 27  1  0  0  0  0
M  END
>  <Pose>
1

>  <Score>
-6.68

$$$$
