
 OpenBabel03202210083D

 53 56  0  0  1  0  0  0  0  0999 V2000
   52.8170   79.6070   23.0910 Cl  0  0  0  0  0  0  0  0  0  0  0  0
   52.9850   81.2710   22.5180 C   0  0  0  0  0  0  0  0  0  0  0  0
   53.8200   81.5320   21.4550 C   0  0  0  0  0  0  0  0  0  0  0  0
   53.9570   82.8390   20.9990 C   0  0  0  0  0  0  0  0  0  0  0  0
   53.2740   83.8670   21.5920 C   0  0  0  0  0  0  0  0  0  0  0  0
   52.4460   83.5750   22.6530 C   0  0  0  0  0  0  0  0  0  0  0  0
   52.2860   82.2870   23.1320 C   0  0  0  0  0  0  0  0  0  0  0  0
   53.4080   85.2520   21.1210 N   0  0  0  0  0  0  0  0  0  0  0  0
   52.6980   85.6700   19.9660 C   0  0  2  0  0  0  0  0  0  0  0  0
   52.9950   87.0260   19.5270 C   0  0  0  0  0  0  0  0  0  0  0  0
   53.8140   87.8630   20.2220 C   0  0  0  0  0  0  0  0  0  0  0  0
   54.0390   89.1700   19.7490 C   0  0  0  0  0  0  0  0  0  0  0  0
   53.4650   89.6550   18.6010 C   0  0  0  0  0  0  0  0  0  0  0  0
   52.6360   88.7890   17.9070 C   0  0  0  0  0  0  0  0  0  0  0  0
   52.4150   87.5280   18.3570 C   0  0  0  0  0  0  0  0  0  0  0  0
   54.4870   87.4510   21.4230 N   0  0  0  0  0  0  0  0  0  0  0  0
   54.2470   86.1210   21.8360 C   0  0  0  0  0  0  0  0  0  0  0  0
   54.8050   85.6790   22.8930 O   0  0  0  0  0  0  0  0  0  0  0  0
   51.3180   85.6580   20.3760 O   0  0  0  0  0  0  0  0  0  0  0  0
   52.7830   84.6820   18.8600 C   0  0  0  0  0  0  0  0  0  0  0  0
   53.8530   84.4960   18.2770 O   0  0  0  0  0  0  0  0  0  0  0  0
   51.6140   83.9790   18.5130 N   0  0  0  0  0  0  0  0  0  0  0  0
   51.6070   82.9090   17.5140 C   0  0  0  0  0  0  0  0  0  0  0  0
   52.9280   82.7180   16.8740 C   0  0  0  0  0  0  0  0  0  0  0  0
   52.9720   81.9640   15.6820 N   0  0  0  0  0  0  0  0  0  0  0  0
   53.4960   82.5580   14.5220 C   0  0  0  0  0  0  0  0  0  0  0  0
   53.6880   81.4710   13.4600 C   0  0  0  0  0  0  0  0  0  0  0  0
   52.6790   80.4980   13.5720 O   0  0  0  0  0  0  0  0  0  0  0  0
   52.8540   79.7170   14.7120 C   0  0  0  0  0  0  0  0  0  0  0  0
   53.3600   80.6010   15.8190 C   0  0  0  0  0  0  0  0  0  0  0  0
   54.3460   80.7100   21.0070 H   0  0  0  0  0  0  0  0  0  0  0  0
   54.6110   83.0160   20.1720 H   0  0  0  0  0  0  0  0  0  0  0  0
   51.8990   84.3640   23.1340 H   0  0  0  0  0  0  0  0  0  0  0  0
   51.6480   82.0350   23.9560 H   0  0  0  0  0  0  0  0  0  0  0  0
   54.6920   89.7960   20.3290 H   0  0  0  0  0  0  0  0  0  0  0  0
   53.6240   90.6490   18.2230 H   0  0  0  0  0  0  0  0  0  0  0  0
   52.1650   89.1590   16.9790 H   0  0  0  0  0  0  0  0  0  0  0  0
   51.7720   86.8680   17.8130 H   0  0  0  0  0  0  0  0  0  0  0  0
   55.1000   88.1160   21.9260 H   0  0  0  0  0  0  0  0  0  0  0  0
   50.7460   85.4130   19.6020 H   0  0  0  0  0  0  0  0  0  0  0  0
   50.6760   84.1850   18.9540 H   0  0  0  0  0  0  0  0  0  0  0  0
   51.1820   82.0320   18.0060 H   0  0  0  0  0  0  0  0  0  0  0  0
   50.8840   83.2330   16.7370 H   0  0  0  0  0  0  0  0  0  0  0  0
   53.5920   82.2040   17.6240 H   0  0  0  0  0  0  0  0  0  0  0  0
   53.4120   83.6990   16.6920 H   0  0  0  0  0  0  0  0  0  0  0  0
   52.9300   83.4200   14.1220 H   0  0  0  0  0  0  0  0  0  0  0  0
   54.5160   82.9450   14.7420 H   0  0  0  0  0  0  0  0  0  0  0  0
   53.7000   81.8780   12.4470 H   0  0  0  0  0  0  0  0  0  0  0  0
   54.6470   80.9210   13.6150 H   0  0  0  0  0  0  0  0  0  0  0  0
   53.5320   78.8570   14.5440 H   0  0  0  0  0  0  0  0  0  0  0  0
   51.8800   79.2990   15.0150 H   0  0  0  0  0  0  0  0  0  0  0  0
   53.0910   80.2130   16.8230 H   0  0  0  0  0  0  0  0  0  0  0  0
   54.4840   80.5570   15.7620 H   0  0  0  0  0  0  0  0  0  0  0  0
  2  1  1  0  0  0  0
  2  7  1  0  0  0  0
  3  2  2  0  0  0  0
  4  3  1  0  0  0  0
  4  5  2  0  0  0  0
  5  6  1  0  0  0  0
  6  7  2  0  0  0  0
  6 33  1  0  0  0  0
  7 34  1  0  0  0  0
  8  5  1  0  0  0  0
  8 17  1  0  0  0  0
  9 20  1  6  0  0  0
  9 19  1  0  0  0  0
  9  8  1  0  0  0  0
 10  9  1  0  0  0  0
 10 11  1  0  0  0  0
 11 16  1  0  0  0  0
 12 11  2  0  0  0  0
 12 35  1  0  0  0  0
 13 12  1  0  0  0  0
 14 15  1  0  0  0  0
 14 13  2  0  0  0  0
 15 10  2  0  0  0  0
 16 17  1  0  0  0  0
 16 39  1  0  0  0  0
 17 18  2  0  0  0  0
 21 20  2  0  0  0  0
 22 20  1  0  0  0  0
 22 41  1  0  0  0  0
 23 42  1  0  0  0  0
 23 22  1  0  0  0  0
 24 23  1  0  0  0  0
 24 44  1  0  0  0  0
 25 30  1  0  0  0  0
 25 24  1  0  0  0  0
 26 47  1  0  0  0  0
 26 25  1  0  0  0  0
 27 28  1  0  0  0  0
 27 49  1  0  0  0  0
 27 26  1  0  0  0  0
 28 29  1  0  0  0  0
 29 51  1  0  0  0  0
 29 30  1  0  0  0  0
 30 52  1  0  0  0  0
 31  3  1  0  0  0  0
 32  4  1  0  0  0  0
 36 13  1  0  0  0  0
 37 14  1  0  0  0  0
 38 15  1  0  0  0  0
 40 19  1  0  0  0  0
 43 23  1  0  0  0  0
 45 24  1  0  0  0  0
 46 26  1  0  0  0  0
 48 27  1  0  0  0  0
 50 29  1  0  0  0  0
 53 30  1  0  0  0  0
M  END
>  <Pose>
1

>  <Score>
-4.96

$$$$
