
 OpenBabel03202210083D

 58 62  0  0  1  0  0  0  0  0999 V2000
   52.2650   91.9410   18.3790 Cl  0  0  0  0  0  0  0  0  0  0  0  0
   52.7740   90.3690   18.9540 C   0  0  0  0  0  0  0  0  0  0  0  0
   54.0260   90.1890   19.5050 C   0  0  0  0  0  0  0  0  0  0  0  0
   54.4530   88.9640   19.9650 C   0  0  0  0  0  0  0  0  0  0  0  0
   53.5870   87.8980   19.8630 C   0  0  0  0  0  0  0  0  0  0  0  0
   52.3570   88.0880   19.3170 C   0  0  0  0  0  0  0  0  0  0  0  0
   51.9100   89.3040   18.8520 C   0  0  0  0  0  0  0  0  0  0  0  0
   55.8230   88.7980   20.5630 C   0  0  0  0  0  0  0  0  0  0  0  0
   55.7210   88.1410   21.8550 N   0  0  0  0  0  0  0  0  0  0  0  0
   55.7540   88.8660   23.0780 C   0  0  0  0  0  0  0  0  0  0  0  0
   55.9610   90.1220   23.0540 O   0  0  0  0  0  0  0  0  0  0  0  0
   55.5600   88.2420   24.3910 C   0  0  1  0  0  0  0  0  0  0  0  0
   55.5660   86.8170   24.3870 N   0  0  1  0  0  0  0  0  0  0  0  0
   55.0480   86.1810   23.2190 C   0  0  0  0  0  0  0  0  0  0  0  0
   53.5600   85.9280   23.2100 C   0  0  0  0  0  0  0  0  0  0  0  0
   53.8030   84.5250   23.3030 N   0  0  0  0  0  0  0  0  0  0  0  0
   55.2040   84.6750   23.3500 C   0  0  0  0  0  0  0  0  0  0  0  0
   53.1150   83.7620   24.2800 C   0  0  0  0  0  0  0  0  0  0  0  0
   53.8040   83.5830   25.5630 C   0  0  0  0  0  0  0  0  0  0  0  0
   53.4720   84.3700   26.6380 C   0  0  0  0  0  0  0  0  0  0  0  0
   54.1120   84.2200   27.8720 C   0  0  0  0  0  0  0  0  0  0  0  0
   55.0940   83.2640   28.0040 C   0  0  0  0  0  0  0  0  0  0  0  0
   55.4450   82.4630   26.9440 C   0  0  0  0  0  0  0  0  0  0  0  0
   54.7870   82.6380   25.7290 C   0  0  0  0  0  0  0  0  0  0  0  0
   53.7810   85.0090   28.9550 O   0  0  0  0  0  0  0  0  0  0  0  0
   52.5980   84.7110   29.6720 C   0  0  0  0  0  0  0  0  0  0  0  0
   55.5840   86.7280   21.9460 C   0  0  0  0  0  0  0  0  0  0  0  0
   55.9140   86.0070   20.9700 O   0  0  0  0  0  0  0  0  0  0  0  0
   56.9110   86.3730   24.6180 C   0  0  0  0  0  0  0  0  0  0  0  0
   57.7690   87.5860   24.8420 C   0  0  1  0  0  0  0  0  0  0  0  0
   56.7720   88.6330   25.2480 C   0  0  0  0  0  0  0  0  0  0  0  0
   58.7510   87.3840   25.8020 O   0  0  0  0  0  0  0  0  0  0  0  0
   54.7090   91.0500   19.5820 H   0  0  0  0  0  0  0  0  0  0  0  0
   53.9110   86.9450   20.2190 H   0  0  0  0  0  0  0  0  0  0  0  0
   51.6820   87.2370   19.2430 H   0  0  0  0  0  0  0  0  0  0  0  0
   50.9120   89.4270   18.4160 H   0  0  0  0  0  0  0  0  0  0  0  0
   56.2360   89.8200   20.6970 H   0  0  0  0  0  0  0  0  0  0  0  0
   56.4150   88.1890   19.8540 H   0  0  0  0  0  0  0  0  0  0  0  0
   54.6550   88.6370   24.9100 H   0  0  0  0  0  0  0  0  0  0  0  0
   52.9820   86.4200   23.9900 H   0  0  0  0  0  0  0  0  0  0  0  0
   53.1200   86.1510   22.1940 H   0  0  0  0  0  0  0  0  0  0  0  0
   55.7600   84.3400   24.2300 H   0  0  0  0  0  0  0  0  0  0  0  0
   55.7120   84.2740   22.4260 H   0  0  0  0  0  0  0  0  0  0  0  0
   52.1040   84.2550   24.4150 H   0  0  0  0  0  0  0  0  0  0  0  0
   52.8400   82.7710   23.8100 H   0  0  0  0  0  0  0  0  0  0  0  0
   52.7120   85.1400   26.6040 H   0  0  0  0  0  0  0  0  0  0  0  0
   55.5750   83.1730   28.9810 H   0  0  0  0  0  0  0  0  0  0  0  0
   56.2210   81.7300   27.1070 H   0  0  0  0  0  0  0  0  0  0  0  0
   55.1050   81.9810   24.9320 H   0  0  0  0  0  0  0  0  0  0  0  0
   52.4960   85.4990   30.4510 H   0  0  0  0  0  0  0  0  0  0  0  0
   51.7060   84.7110   29.0010 H   0  0  0  0  0  0  0  0  0  0  0  0
   52.6490   83.7190   30.1640 H   0  0  0  0  0  0  0  0  0  0  0  0
   57.3450   85.8100   23.7540 H   0  0  0  0  0  0  0  0  0  0  0  0
   56.9300   85.7130   25.5340 H   0  0  0  0  0  0  0  0  0  0  0  0
   58.2090   87.9060   23.8570 H   0  0  0  0  0  0  0  0  0  0  0  0
   57.1040   89.6590   25.0260 H   0  0  0  0  0  0  0  0  0  0  0  0
   56.4960   88.4780   26.2960 H   0  0  0  0  0  0  0  0  0  0  0  0
   59.5440   87.0190   25.3390 H   0  0  0  0  0  0  0  0  0  0  0  0
  1  2  1  0  0  0  0
  2  3  1  0  0  0  0
  3 33  1  0  0  0  0
  3  4  2  0  0  0  0
  4  8  1  0  0  0  0
  5  4  1  0  0  0  0
  5 34  1  0  0  0  0
  6  5  2  0  0  0  0
  7  2  2  0  0  0  0
  7  6  1  0  0  0  0
  8 37  1  0  0  0  0
  8  9  1  0  0  0  0
  9 27  1  0  0  0  0
  9 10  1  0  0  0  0
 10 12  1  0  0  0  0
 11 10  2  0  0  0  0
 12 39  1  1  0  0  0
 12 31  1  0  0  0  0
 13 14  1  6  0  0  0
 13 12  1  0  0  0  0
 13 29  1  0  0  0  0
 14 17  1  0  0  0  0
 15 14  1  0  0  0  0
 15 16  1  0  0  0  0
 15 40  1  0  0  0  0
 16 17  1  0  0  0  0
 16 18  1  0  0  0  0
 17 42  1  0  0  0  0
 18 44  1  0  0  0  0
 18 19  1  0  0  0  0
 19 24  2  0  0  0  0
 19 20  1  0  0  0  0
 20 21  2  0  0  0  0
 21 22  1  0  0  0  0
 21 25  1  0  0  0  0
 22 47  1  0  0  0  0
 23 48  1  0  0  0  0
 23 22  2  0  0  0  0
 24 23  1  0  0  0  0
 25 26  1  0  0  0  0
 26 52  1  0  0  0  0
 26 50  1  0  0  0  0
 27 14  1  0  0  0  0
 28 27  2  0  0  0  0
 29 30  1  0  0  0  0
 29 54  1  0  0  0  0
 30 55  1  6  0  0  0
 30 31  1  0  0  0  0
 30 32  1  0  0  0  0
 31 57  1  0  0  0  0
 35  6  1  0  0  0  0
 36  7  1  0  0  0  0
 38  8  1  0  0  0  0
 41 15  1  0  0  0  0
 43 17  1  0  0  0  0
 45 18  1  0  0  0  0
 46 20  1  0  0  0  0
 49 24  1  0  0  0  0
 51 26  1  0  0  0  0
 53 29  1  0  0  0  0
 56 31  1  0  0  0  0
 58 32  1  0  0  0  0
M  END
>  <Pose>
1

>  <Score>
-6.66

$$$$
