
 OpenBabel03202210083D

 55 59  0  0  1  0  0  0  0  0999 V2000
   52.8680   97.8180   27.6640 B   0  0  0  0  0  0  0  0  0  0  0  0
   54.4040   97.0750   26.8160 C   0  0  0  0  0  0  0  0  0  0  0  0
   54.4780   96.0910   25.8500 C   0  0  0  0  0  0  0  0  0  0  0  0
   55.7780   95.8660   25.5300 N   0  0  0  0  0  0  0  0  0  0  0  0
   56.4980   96.6710   26.2630 N   0  0  0  0  0  0  0  0  0  0  0  0
   55.7310   97.4320   27.0650 C   0  0  0  0  0  0  0  0  0  0  0  0
   56.3070   94.9250   24.5710 C   0  0  0  0  0  0  0  0  0  0  0  0
   55.6590   93.5630   24.6740 C   0  0  2  0  0  0  0  0  0  0  0  0
   56.6460   92.5070   25.0400 C   0  0  0  0  0  0  0  0  0  0  0  0
   54.9480   93.2620   23.3980 C   0  0  0  0  0  0  0  0  0  0  0  0
   53.7500   93.6340   23.3190 O   0  0  0  0  0  0  0  0  0  0  0  0
   55.5770   92.5890   22.3240 N   0  0  0  0  0  0  0  0  0  0  0  0
   55.6000   91.2220   22.1590 N   0  0  0  0  0  0  0  0  0  0  0  0
   55.7660   90.6400   20.8930 C   0  0  0  0  0  0  0  0  0  0  0  0
   56.8900   90.1240   20.6120 O   0  0  0  0  0  0  0  0  0  0  0  0
   54.7130   90.5860   19.8530 C   0  0  1  0  0  0  0  0  0  0  0  0
   54.1020   89.2010   19.7810 C   0  0  0  0  0  0  0  0  0  0  0  0
   53.0410   89.1380   18.7190 C   0  0  1  0  0  0  0  0  0  0  0  0
   51.9330   90.1080   19.1340 C   0  0  0  0  0  0  0  0  0  0  0  0
   52.4900   91.4920   19.2340 C   0  0  1  0  0  0  0  0  0  0  0  0
   53.6080   91.5420   20.2500 C   0  0  0  0  0  0  0  0  0  0  0  0
   53.0220   91.9100   17.8820 C   0  0  0  0  0  0  0  0  0  0  0  0
   54.1170   90.9440   17.4960 C   0  0  2  0  0  0  0  0  0  0  0  0
   53.5360   89.5590   17.3700 C   0  0  0  0  0  0  0  0  0  0  0  0
   55.2410   90.9980   18.4970 C   0  0  0  0  0  0  0  0  0  0  0  0
   52.5120   87.7890   18.7190 N   0  0  1  0  0  0  0  0  0  0  0  0
   52.8320   86.7510   17.9670 N   0  0  0  0  0  0  0  0  0  0  0  0
   52.1310   85.6980   18.2650 N   0  0  0  0  0  0  0  0  0  0  0  0
   51.3090   86.0230   19.2470 C   0  0  0  0  0  0  0  0  0  0  0  0
   51.5460   87.3340   19.5340 N   0  0  0  0  0  0  0  0  0  0  0  0
   53.6430   95.5820   25.4150 H   0  0  0  0  0  0  0  0  0  0  0  0
   56.0170   98.1880   27.7820 H   0  0  0  0  0  0  0  0  0  0  0  0
   57.3830   94.7940   24.7740 H   0  0  0  0  0  0  0  0  0  0  0  0
   56.2070   95.2870   23.5250 H   0  0  0  0  0  0  0  0  0  0  0  0
   54.8810   93.6000   25.4650 H   0  0  0  0  0  0  0  0  0  0  0  0
   57.1920   92.8780   25.9530 H   0  0  0  0  0  0  0  0  0  0  0  0
   56.1200   91.5890   25.3890 H   0  0  0  0  0  0  0  0  0  0  0  0
   57.4090   92.3170   24.2770 H   0  0  0  0  0  0  0  0  0  0  0  0
   56.0590   93.1940   21.6020 H   0  0  0  0  0  0  0  0  0  0  0  0
   55.4940   90.6010   22.9980 H   0  0  0  0  0  0  0  0  0  0  0  0
   54.8980   88.4290   19.6240 H   0  0  0  0  0  0  0  0  0  0  0  0
   53.5730   89.0460   20.7580 H   0  0  0  0  0  0  0  0  0  0  0  0
   51.0920   90.0800   18.4360 H   0  0  0  0  0  0  0  0  0  0  0  0
   51.6480   89.7870   20.1670 H   0  0  0  0  0  0  0  0  0  0  0  0
   51.7060   92.1890   19.5700 H   0  0  0  0  0  0  0  0  0  0  0  0
   53.9670   92.5890   20.3440 H   0  0  0  0  0  0  0  0  0  0  0  0
   53.1950   91.1820   21.2190 H   0  0  0  0  0  0  0  0  0  0  0  0
   52.1760   91.8030   17.1570 H   0  0  0  0  0  0  0  0  0  0  0  0
   53.3800   92.9410   17.9510 H   0  0  0  0  0  0  0  0  0  0  0  0
   54.5190   91.3030   16.5040 H   0  0  0  0  0  0  0  0  0  0  0  0
   54.2900   88.8640   16.9630 H   0  0  0  0  0  0  0  0  0  0  0  0
   52.6480   89.6230   16.7050 H   0  0  0  0  0  0  0  0  0  0  0  0
   55.6070   92.0240   18.5870 H   0  0  0  0  0  0  0  0  0  0  0  0
   56.0120   90.2730   18.1800 H   0  0  0  0  0  0  0  0  0  0  0  0
   50.5950   85.3630   19.7160 H   0  0  0  0  0  0  0  0  0  0  0  0
  2  6  1  0  0  0  0
  2  1  1  0  0  0  0
  3  2  2  0  0  0  0
  4  3  1  0  0  0  0
  4  5  1  0  0  0  0
  5  6  2  0  0  0  0
  6 32  1  0  0  0  0
  7  8  1  0  0  0  0
  7 33  1  0  0  0  0
  7  4  1  0  0  0  0
  8  9  1  0  0  0  0
  8 35  1  1  0  0  0
  9 37  1  0  0  0  0
  9 36  1  0  0  0  0
 10  8  1  0  0  0  0
 11 10  2  0  0  0  0
 12 10  1  0  0  0  0
 13 12  1  0  0  0  0
 13 40  1  0  0  0  0
 14 13  1  0  0  0  0
 15 14  2  0  0  0  0
 16 21  1  0  0  0  0
 16 14  1  1  0  0  0
 17 16  1  0  0  0  0
 17 42  1  0  0  0  0
 18 24  1  6  0  0  0
 18 19  1  0  0  0  0
 18 17  1  0  0  0  0
 19 20  1  0  0  0  0
 19 44  1  0  0  0  0
 20 45  1  1  0  0  0
 20 21  1  0  0  0  0
 21 46  1  0  0  0  0
 21 47  1  0  0  0  0
 22 49  1  0  0  0  0
 22 20  1  0  0  0  0
 23 50  1  6  0  0  0
 23 22  1  0  0  0  0
 23 25  1  0  0  0  0
 24 23  1  0  0  0  0
 25 53  1  0  0  0  0
 25 16  1  0  0  0  0
 26 27  1  1  0  0  0
 26 18  1  0  0  0  0
 26 30  1  0  0  0  0
 27 28  1  0  0  0  0
 28 29  2  0  0  0  0
 29 30  1  0  0  0  0
 29 55  1  0  0  0  0
 31  3  1  0  0  0  0
 34  7  1  0  0  0  0
 38  9  1  0  0  0  0
 39 12  1  0  0  0  0
 41 17  1  0  0  0  0
 43 19  1  0  0  0  0
 48 22  1  0  0  0  0
 51 24  1  0  0  0  0
 52 24  1  0  0  0  0
 54 25  1  0  0  0  0
M  END
>  <Pose>
1

>  <Score>
-8.04

$$$$
