
 OpenBabel03202210083D

 58 61  0  0  0  0  0  0  0  0999 V2000
   56.3350   98.1060   26.7290 Cl  0  0  0  0  0  0  0  0  0  0  0  0
   54.6520   97.6700   26.8850 C   0  0  0  0  0  0  0  0  0  0  0  0
   54.3090   96.3440   26.7280 C   0  0  0  0  0  0  0  0  0  0  0  0
   52.9410   96.0810   26.8870 C   0  0  0  0  0  0  0  0  0  0  0  0
   52.0640   97.0620   27.1690 N   0  0  0  0  0  0  0  0  0  0  0  0
   52.3840   98.3300   27.3200 N   0  0  0  0  0  0  0  0  0  0  0  0
   53.6810   98.6310   27.1770 C   0  0  0  0  0  0  0  0  0  0  0  0
   54.0690   99.8190   27.3060 O   0  0  0  0  0  0  0  0  0  0  0  0
   51.3900   99.3050   27.6180 C   0  0  0  0  0  0  0  0  0  0  0  0
   51.0820  100.3350   26.7430 C   0  0  0  0  0  0  0  0  0  0  0  0
   50.1210  101.2880   27.0160 C   0  0  0  0  0  0  0  0  0  0  0  0
   49.4430  101.2040   28.2150 C   0  0  0  0  0  0  0  0  0  0  0  0
   49.7260  100.1900   29.1110 C   0  0  0  0  0  0  0  0  0  0  0  0
   50.7060   99.2390   28.8050 C   0  0  0  0  0  0  0  0  0  0  0  0
   55.2300   95.3310   26.3990 N   0  0  0  0  0  0  0  0  0  0  0  0
   55.0710   93.9890   26.9510 C   0  0  0  0  0  0  0  0  0  0  0  0
   54.9500   92.9410   25.8680 C   0  0  0  0  0  0  0  0  0  0  0  0
   55.4510   93.5110   24.6410 N   0  0  0  0  0  0  0  0  0  0  0  0
   56.6870   94.2640   24.7540 C   0  0  0  0  0  0  0  0  0  0  0  0
   56.3450   95.5690   25.4720 C   0  0  0  0  0  0  0  0  0  0  0  0
   54.8200   93.3750   23.3880 C   0  0  0  0  0  0  0  0  0  0  0  0
   53.7140   93.9270   23.2010 O   0  0  0  0  0  0  0  0  0  0  0  0
   55.4020   92.6050   22.2620 C   0  0  0  0  0  0  0  0  0  0  0  0
   54.9110   91.1750   22.2790 C   0  0  0  0  0  0  0  0  0  0  0  0
   55.8780   90.2280   21.6340 C   0  0  0  0  0  0  0  0  0  0  0  0
   55.7890   88.8720   22.1280 N   0  0  0  0  0  0  0  0  0  0  0  0
   56.2680   88.4040   23.3760 C   0  0  0  0  0  0  0  0  0  0  0  0
   56.8580   89.0970   24.2710 O   0  0  0  0  0  0  0  0  0  0  0  0
   56.0130   87.0260   23.5390 N   0  0  0  0  0  0  0  0  0  0  0  0
   55.3490   86.5440   22.3490 C   0  0  0  0  0  0  0  0  0  0  0  0
   55.2100   87.7340   21.4810 C   0  0  0  0  0  0  0  0  0  0  0  0
   54.6710   87.7550   20.3540 O   0  0  0  0  0  0  0  0  0  0  0  0
   56.3520   86.2190   24.6940 C   0  0  0  0  0  0  0  0  0  0  0  0
   52.6400   95.0580   26.7590 H   0  0  0  0  0  0  0  0  0  0  0  0
   51.6230  100.3870   25.8070 H   0  0  0  0  0  0  0  0  0  0  0  0
   49.8920  102.0970   26.3080 H   0  0  0  0  0  0  0  0  0  0  0  0
   48.6920  101.9540   28.4210 H   0  0  0  0  0  0  0  0  0  0  0  0
   49.1740  100.1580   30.0350 H   0  0  0  0  0  0  0  0  0  0  0  0
   50.9360   98.4400   29.4960 H   0  0  0  0  0  0  0  0  0  0  0  0
   56.0430   93.8200   27.5230 H   0  0  0  0  0  0  0  0  0  0  0  0
   54.2100   93.8580   27.6110 H   0  0  0  0  0  0  0  0  0  0  0  0
   53.9010   92.6080   25.7370 H   0  0  0  0  0  0  0  0  0  0  0  0
   55.5590   92.0460   26.1820 H   0  0  0  0  0  0  0  0  0  0  0  0
   57.3870   93.6940   25.3960 H   0  0  0  0  0  0  0  0  0  0  0  0
   57.1710   94.4470   23.7760 H   0  0  0  0  0  0  0  0  0  0  0  0
   55.9610   96.2150   24.6710 H   0  0  0  0  0  0  0  0  0  0  0  0
   57.1980   95.8890   26.0400 H   0  0  0  0  0  0  0  0  0  0  0  0
   55.1350   93.0550   21.2840 H   0  0  0  0  0  0  0  0  0  0  0  0
   56.5180   92.6210   22.3020 H   0  0  0  0  0  0  0  0  0  0  0  0
   53.9520   91.0900   21.7370 H   0  0  0  0  0  0  0  0  0  0  0  0
   54.7130   90.8480   23.3300 H   0  0  0  0  0  0  0  0  0  0  0  0
   56.9320   90.5820   21.7860 H   0  0  0  0  0  0  0  0  0  0  0  0
   55.7490   90.1670   20.5350 H   0  0  0  0  0  0  0  0  0  0  0  0
   54.3390   86.1150   22.5910 H   0  0  0  0  0  0  0  0  0  0  0  0
   55.9060   85.7310   21.8440 H   0  0  0  0  0  0  0  0  0  0  0  0
   55.5800   86.3960   25.4790 H   0  0  0  0  0  0  0  0  0  0  0  0
   57.3070   86.6170   25.1400 H   0  0  0  0  0  0  0  0  0  0  0  0
   56.4320   85.1570   24.4210 H   0  0  0  0  0  0  0  0  0  0  0  0
  1  2  1  0  0  0  0
  2  7  1  0  0  0  0
  3  2  2  0  0  0  0
  3  4  1  0  0  0  0
  4  5  2  0  0  0  0
  5  6  1  0  0  0  0
  6  9  1  0  0  0  0
  7  8  2  0  0  0  0
  7  6  1  0  0  0  0
  9 14  1  0  0  0  0
 10 11  1  0  0  0  0
 10  9  2  0  0  0  0
 11 12  2  0  0  0  0
 12 37  1  0  0  0  0
 12 13  1  0  0  0  0
 13 38  1  0  0  0  0
 14 13  2  0  0  0  0
 14 39  1  0  0  0  0
 15  3  1  0  0  0  0
 15 16  1  0  0  0  0
 16 40  1  0  0  0  0
 16 41  1  0  0  0  0
 17 43  1  0  0  0  0
 17 16  1  0  0  0  0
 18 19  1  0  0  0  0
 18 17  1  0  0  0  0
 19 44  1  0  0  0  0
 19 20  1  0  0  0  0
 20 47  1  0  0  0  0
 20 15  1  0  0  0  0
 21 18  1  0  0  0  0
 22 21  2  0  0  0  0
 23 24  1  0  0  0  0
 23 49  1  0  0  0  0
 23 21  1  0  0  0  0
 24 51  1  0  0  0  0
 25 52  1  0  0  0  0
 25 26  1  0  0  0  0
 25 24  1  0  0  0  0
 26 27  1  0  0  0  0
 27 29  1  0  0  0  0
 27 28  2  0  0  0  0
 29 33  1  0  0  0  0
 30 54  1  0  0  0  0
 30 29  1  0  0  0  0
 31 26  1  0  0  0  0
 31 30  1  0  0  0  0
 32 31  2  0  0  0  0
 33 57  1  0  0  0  0
 33 56  1  0  0  0  0
 34  4  1  0  0  0  0
 35 10  1  0  0  0  0
 36 11  1  0  0  0  0
 42 17  1  0  0  0  0
 45 19  1  0  0  0  0
 46 20  1  0  0  0  0
 48 23  1  0  0  0  0
 50 24  1  0  0  0  0
 53 25  1  0  0  0  0
 55 30  1  0  0  0  0
 58 33  1  0  0  0  0
M  END
>  <Pose>
1

>  <Score>
-8.11

$$$$
