
 OpenBabel03202210083D

 50 53  0  0  0  0  0  0  0  0999 V2000
   53.1800   99.4930   25.4130 Cl  0  0  0  0  0  0  0  0  0  0  0  0
   52.4250   99.3340   26.9830 C   0  0  0  0  0  0  0  0  0  0  0  0
   52.8230   98.3070   27.8150 C   0  0  0  0  0  0  0  0  0  0  0  0
   52.1850   98.2360   29.0410 C   0  0  0  0  0  0  0  0  0  0  0  0
   51.2320   99.1160   29.4010 N   0  0  0  0  0  0  0  0  0  0  0  0
   50.8390  100.1060   28.6160 N   0  0  0  0  0  0  0  0  0  0  0  0
   51.4380  100.2060   27.4150 C   0  0  0  0  0  0  0  0  0  0  0  0
   51.0740  101.1380   26.6680 O   0  0  0  0  0  0  0  0  0  0  0  0
   49.8260  101.0380   29.0070 C   0  0  0  0  0  0  0  0  0  0  0  0
   48.6990  101.2230   28.2330 C   0  0  0  0  0  0  0  0  0  0  0  0
   47.7170  102.1200   28.6030 C   0  0  0  0  0  0  0  0  0  0  0  0
   47.8140  102.8700   29.7570 C   0  0  0  0  0  0  0  0  0  0  0  0
   48.9380  102.6880   30.5360 C   0  0  0  0  0  0  0  0  0  0  0  0
   49.9140  101.7930   30.1620 C   0  0  0  0  0  0  0  0  0  0  0  0
   53.8340   97.3680   27.4440 N   0  0  0  0  0  0  0  0  0  0  0  0
   55.1690   97.8510   27.2290 C   0  0  0  0  0  0  0  0  0  0  0  0
   55.8350   97.1410   26.0710 C   0  0  0  0  0  0  0  0  0  0  0  0
   55.4180   95.7650   25.9710 N   0  0  0  0  0  0  0  0  0  0  0  0
   54.7100   95.1730   27.0800 C   0  0  0  0  0  0  0  0  0  0  0  0
   53.4550   95.9760   27.3040 C   0  0  0  0  0  0  0  0  0  0  0  0
   55.7020   95.0170   24.8000 C   0  0  0  0  0  0  0  0  0  0  0  0
   56.8440   95.0710   24.2400 O   0  0  0  0  0  0  0  0  0  0  0  0
   54.6960   94.1310   24.1580 C   0  0  0  0  0  0  0  0  0  0  0  0
   55.2580   92.9170   23.7400 O   0  0  0  0  0  0  0  0  0  0  0  0
   54.9480   92.3880   22.5010 C   0  0  0  0  0  0  0  0  0  0  0  0
   53.9510   92.6940   21.6640 N   0  0  0  0  0  0  0  0  0  0  0  0
   54.0150   91.9610   20.6010 O   0  0  0  0  0  0  0  0  0  0  0  0
   55.0370   91.1320   20.6510 C   0  0  0  0  0  0  0  0  0  0  0  0
   55.6560   91.3820   21.8590 C   0  0  0  0  0  0  0  0  0  0  0  0
   55.3650   90.1730   19.5800 C   0  0  0  0  0  0  0  0  0  0  0  0
   52.4930   97.4220   29.7130 H   0  0  0  0  0  0  0  0  0  0  0  0
   48.5960  100.6500   27.3220 H   0  0  0  0  0  0  0  0  0  0  0  0
   46.8340  102.2670   27.9970 H   0  0  0  0  0  0  0  0  0  0  0  0
   47.0340  103.5720   30.0390 H   0  0  0  0  0  0  0  0  0  0  0  0
   48.9910  103.2900   31.4390 H   0  0  0  0  0  0  0  0  0  0  0  0
   50.7750  101.6830   30.7980 H   0  0  0  0  0  0  0  0  0  0  0  0
   55.1900   98.9360   27.0130 H   0  0  0  0  0  0  0  0  0  0  0  0
   55.7290   97.7020   28.1860 H   0  0  0  0  0  0  0  0  0  0  0  0
   55.7170   97.7100   25.1470 H   0  0  0  0  0  0  0  0  0  0  0  0
   56.9350   97.1250   26.2930 H   0  0  0  0  0  0  0  0  0  0  0  0
   55.3470   95.3300   27.9930 H   0  0  0  0  0  0  0  0  0  0  0  0
   54.5140   94.0960   26.9400 H   0  0  0  0  0  0  0  0  0  0  0  0
   52.7300   95.8430   26.4700 H   0  0  0  0  0  0  0  0  0  0  0  0
   53.0070   95.6210   28.2770 H   0  0  0  0  0  0  0  0  0  0  0  0
   54.1620   94.6380   23.3320 H   0  0  0  0  0  0  0  0  0  0  0  0
   53.9020   93.8670   24.9160 H   0  0  0  0  0  0  0  0  0  0  0  0
   56.5340   90.8650   22.2080 H   0  0  0  0  0  0  0  0  0  0  0  0
   56.1070   89.4210   19.8970 H   0  0  0  0  0  0  0  0  0  0  0  0
   55.7800   90.6990   18.6700 H   0  0  0  0  0  0  0  0  0  0  0  0
   54.4150   89.6660   19.2400 H   0  0  0  0  0  0  0  0  0  0  0  0
  1  2  1  0  0  0  0
  2  7  1  0  0  0  0
  2  3  2  0  0  0  0
  3  4  1  0  0  0  0
  4  5  2  0  0  0  0
  4 31  1  0  0  0  0
  6  9  1  0  0  0  0
  6  5  1  0  0  0  0
  7  6  1  0  0  0  0
  8  7  2  0  0  0  0
  9 14  1  0  0  0  0
 10 11  1  0  0  0  0
 10  9  2  0  0  0  0
 11 12  2  0  0  0  0
 12 34  1  0  0  0  0
 12 13  1  0  0  0  0
 13 35  1  0  0  0  0
 14 13  2  0  0  0  0
 14 36  1  0  0  0  0
 15  3  1  0  0  0  0
 16 15  1  0  0  0  0
 16 38  1  0  0  0  0
 17 40  1  0  0  0  0
 17 16  1  0  0  0  0
 18 17  1  0  0  0  0
 18 19  1  0  0  0  0
 19 20  1  0  0  0  0
 19 41  1  0  0  0  0
 20 15  1  0  0  0  0
 20 44  1  0  0  0  0
 21 18  1  0  0  0  0
 22 21  2  0  0  0  0
 23 21  1  0  0  0  0
 23 46  1  0  0  0  0
 24 23  1  0  0  0  0
 25 24  1  0  0  0  0
 26 25  2  0  0  0  0
 27 28  1  0  0  0  0
 27 26  1  0  0  0  0
 28 29  2  0  0  0  0
 29 47  1  0  0  0  0
 29 25  1  0  0  0  0
 30 48  1  0  0  0  0
 30 28  1  0  0  0  0
 32 10  1  0  0  0  0
 33 11  1  0  0  0  0
 37 16  1  0  0  0  0
 39 17  1  0  0  0  0
 42 19  1  0  0  0  0
 43 20  1  0  0  0  0
 45 23  1  0  0  0  0
 49 30  1  0  0  0  0
 50 30  1  0  0  0  0
M  END
>  <Pose>
1

>  <Score>
-8.11

$$$$
