
 OpenBabel03202210083D

 53 56  0  0  0  0  0  0  0  0999 V2000
   51.5810   88.7360   17.3800 Cl  0  0  0  0  0  0  0  0  0  0  0  0
   52.6370   88.6140   18.7840 C   0  0  0  0  0  0  0  0  0  0  0  0
   53.5540   89.6440   18.9790 C   0  0  0  0  0  0  0  0  0  0  0  0
   54.3870   89.5630   20.0720 C   0  0  0  0  0  0  0  0  0  0  0  0
   54.3020   88.4840   20.9410 C   0  0  0  0  0  0  0  0  0  0  0  0
   53.3840   87.4600   20.7390 C   0  0  0  0  0  0  0  0  0  0  0  0
   52.5480   87.5420   19.6400 C   0  0  0  0  0  0  0  0  0  0  0  0
   55.1030   88.3310   22.0590 O   0  0  0  0  0  0  0  0  0  0  0  0
   56.4020   88.7940   22.3040 C   0  0  0  0  0  0  0  0  0  0  0  0
   56.5900   90.2670   22.2680 C   0  0  0  0  0  0  0  0  0  0  0  0
   55.6390   91.0170   21.5130 N   0  0  0  0  0  0  0  0  0  0  0  0
   55.2880   90.7460   20.1130 C   0  0  0  0  0  0  0  0  0  0  0  0
   54.9790   92.1120   22.1350 C   0  0  0  0  0  0  0  0  0  0  0  0
   53.9120   92.5030   21.6080 O   0  0  0  0  0  0  0  0  0  0  0  0
   55.4950   92.7610   23.3300 C   0  0  0  0  0  0  0  0  0  0  0  0
   54.7710   93.9300   23.8610 C   0  0  0  0  0  0  0  0  0  0  0  0
   55.1510   94.4980   25.1640 C   0  0  0  0  0  0  0  0  0  0  0  0
   56.0780   95.5640   25.2390 N   0  0  0  0  0  0  0  0  0  0  0  0
   57.3160   95.6310   24.5540 C   0  0  0  0  0  0  0  0  0  0  0  0
   57.8240   94.7860   23.7590 O   0  0  0  0  0  0  0  0  0  0  0  0
   57.9280   96.8560   24.9170 N   0  0  0  0  0  0  0  0  0  0  0  0
   56.9200   97.7210   25.5260 C   0  0  0  0  0  0  0  0  0  0  0  0
   55.9310   96.7370   26.0160 C   0  0  0  0  0  0  0  0  0  0  0  0
   55.1020   96.9390   26.9750 O   0  0  0  0  0  0  0  0  0  0  0  0
   56.8370   88.2760   23.6890 C   0  0  0  0  0  0  0  0  0  0  0  0
   56.5570   86.7980   23.6960 C   0  0  0  0  0  0  0  0  0  0  0  0
   56.1440   86.3270   22.4620 O   0  0  0  0  0  0  0  0  0  0  0  0
   57.0530   86.5990   21.4540 C   0  0  0  0  0  0  0  0  0  0  0  0
   57.3640   88.0760   21.3440 C   0  0  0  0  0  0  0  0  0  0  0  0
   53.5850   90.4600   18.2800 H   0  0  0  0  0  0  0  0  0  0  0  0
   53.3470   86.6490   21.4230 H   0  0  0  0  0  0  0  0  0  0  0  0
   51.8150   86.7520   19.4560 H   0  0  0  0  0  0  0  0  0  0  0  0
   57.5960   90.4620   21.7900 H   0  0  0  0  0  0  0  0  0  0  0  0
   56.7160   90.6740   23.3110 H   0  0  0  0  0  0  0  0  0  0  0  0
   54.8910   91.6140   19.5920 H   0  0  0  0  0  0  0  0  0  0  0  0
   56.2100   90.4430   19.5450 H   0  0  0  0  0  0  0  0  0  0  0  0
   56.5740   93.0460   23.2460 H   0  0  0  0  0  0  0  0  0  0  0  0
   55.5060   91.9810   24.1520 H   0  0  0  0  0  0  0  0  0  0  0  0
   53.6790   93.6120   23.9590 H   0  0  0  0  0  0  0  0  0  0  0  0
   54.6840   94.7380   23.0590 H   0  0  0  0  0  0  0  0  0  0  0  0
   54.1660   94.7700   25.6830 H   0  0  0  0  0  0  0  0  0  0  0  0
   55.5420   93.6960   25.8780 H   0  0  0  0  0  0  0  0  0  0  0  0
   58.9210   97.1340   24.7900 H   0  0  0  0  0  0  0  0  0  0  0  0
   56.4250   98.3460   24.7610 H   0  0  0  0  0  0  0  0  0  0  0  0
   57.3500   98.3150   26.3580 H   0  0  0  0  0  0  0  0  0  0  0  0
   56.3380   88.8240   24.4910 H   0  0  0  0  0  0  0  0  0  0  0  0
   57.9350   88.4460   23.7290 H   0  0  0  0  0  0  0  0  0  0  0  0
   57.4310   86.1990   24.0490 H   0  0  0  0  0  0  0  0  0  0  0  0
   55.7390   86.6150   24.4210 H   0  0  0  0  0  0  0  0  0  0  0  0
   57.9800   85.9870   21.5200 H   0  0  0  0  0  0  0  0  0  0  0  0
   56.5610   86.2890   20.4880 H   0  0  0  0  0  0  0  0  0  0  0  0
   58.3980   88.2160   21.7500 H   0  0  0  0  0  0  0  0  0  0  0  0
   57.2920   88.4530   20.3240 H   0  0  0  0  0  0  0  0  0  0  0  0
  1  2  1  0  0  0  0
  2  3  2  0  0  0  0
  2  7  1  0  0  0  0
  3  4  1  0  0  0  0
  4 12  1  0  0  0  0
  4  5  2  0  0  0  0
  5  8  1  0  0  0  0
  6  5  1  0  0  0  0
  6 31  1  0  0  0  0
  7  6  2  0  0  0  0
  8  9  1  0  0  0  0
  9 25  1  0  0  0  0
 10  9  1  0  0  0  0
 10 34  1  0  0  0  0
 11 13  1  0  0  0  0
 11 10  1  0  0  0  0
 12 11  1  0  0  0  0
 13 15  1  0  0  0  0
 14 13  2  0  0  0  0
 15 16  1  0  0  0  0
 15 38  1  0  0  0  0
 16 39  1  0  0  0  0
 16 17  1  0  0  0  0
 17 18  1  0  0  0  0
 17 41  1  0  0  0  0
 17 42  1  0  0  0  0
 18 23  1  0  0  0  0
 19 21  1  0  0  0  0
 19 18  1  0  0  0  0
 20 19  2  0  0  0  0
 21 22  1  0  0  0  0
 22 23  1  0  0  0  0
 22 45  1  0  0  0  0
 23 24  2  0  0  0  0
 25 26  1  0  0  0  0
 25 47  1  0  0  0  0
 25 46  1  0  0  0  0
 26 48  1  0  0  0  0
 26 49  1  0  0  0  0
 27 26  1  0  0  0  0
 28 50  1  0  0  0  0
 28 27  1  0  0  0  0
 29 28  1  0  0  0  0
 29 52  1  0  0  0  0
 29  9  1  0  0  0  0
 30  3  1  0  0  0  0
 32  7  1  0  0  0  0
 33 10  1  0  0  0  0
 35 12  1  0  0  0  0
 36 12  1  0  0  0  0
 37 15  1  0  0  0  0
 40 16  1  0  0  0  0
 43 21  1  0  0  0  0
 44 22  1  0  0  0  0
 51 28  1  0  0  0  0
 53 29  1  0  0  0  0
M  END
>  <Pose>
1

>  <Score>
-6.23

$$$$
