
 OpenBabel03202210083D

 58 62  0  0  1  0  0  0  0  0999 V2000
   52.6790   91.8940   14.8640 B   0  0  0  0  0  0  0  0  0  0  0  0
   53.3330   91.4070   16.6090 C   0  0  0  0  0  0  0  0  0  0  0  0
   54.6010   90.9480   16.7940 C   0  0  0  0  0  0  0  0  0  0  0  0
   55.0600   90.6050   18.0330 C   0  0  0  0  0  0  0  0  0  0  0  0
   54.2690   90.7010   19.1600 C   0  0  0  0  0  0  0  0  0  0  0  0
   53.0070   91.1570   18.9780 C   0  0  0  0  0  0  0  0  0  0  0  0
   52.5170   91.5170   17.7000 C   0  0  0  0  0  0  0  0  0  0  0  0
   54.8270   90.3060   20.4350 C   0  0  0  0  0  0  0  0  0  0  0  0
   55.3170   89.0130   20.6830 C   0  0  0  0  0  0  0  0  0  0  0  0
   55.7630   89.0080   21.9330 N   0  0  0  0  0  0  0  0  0  0  0  0
   56.3530   88.1480   22.8190 C   0  0  0  0  0  0  0  0  0  0  0  0
   56.5390   88.8800   23.9640 C   0  0  0  0  0  0  0  0  0  0  0  0
   56.0750   90.0990   23.7340 N   0  0  0  0  0  0  0  0  0  0  0  0
   55.5840   90.1940   22.4650 C   0  0  1  0  0  0  0  0  0  0  0  0
   55.0000   91.0240   21.5510 N   0  0  0  0  0  0  0  0  0  0  0  0
   54.7060   92.3880   21.8650 C   0  0  0  0  0  0  0  0  0  0  0  0
   55.6990   93.1310   22.6650 C   0  0  0  0  0  0  0  0  0  0  0  0
   55.3330   93.5650   24.0390 C   0  0  0  0  0  0  0  0  0  0  0  0
   56.4720   94.0850   24.7640 N   0  0  0  0  0  4  0  0  0  0  0  0
   56.3470   95.4730   25.0940 C   0  0  0  0  0  0  0  0  0  0  0  0
   55.6930   95.7570   26.4170 C   0  0  0  0  0  0  0  0  0  0  0  0
   55.2210   97.2170   26.3550 C   0  0  0  0  0  0  0  0  0  0  0  0
   56.4130   98.0940   26.1910 C   0  0  0  0  0  0  0  0  0  0  0  0
   57.3020   97.7050   25.0320 C   0  0  0  0  0  0  0  0  0  0  0  0
   57.6740   96.2200   25.1140 C   0  0  0  0  0  0  0  0  0  0  0  0
   57.1290   88.3180   25.1000 C   0  0  0  0  0  0  0  0  0  0  0  0
   57.5320   87.0000   25.0780 C   0  0  0  0  0  0  0  0  0  0  0  0
   57.3340   86.2880   23.9170 C   0  0  0  0  0  0  0  0  0  0  0  0
   56.7500   86.8400   22.7830 C   0  0  0  0  0  0  0  0  0  0  0  0
   55.2710   90.8540   15.9250 H   0  0  0  0  0  0  0  0  0  0  0  0
   56.1050   90.2410   18.1140 H   0  0  0  0  0  0  0  0  0  0  0  0
   52.2850   91.2800   19.7350 H   0  0  0  0  0  0  0  0  0  0  0  0
   51.5120   91.8780   17.5640 H   0  0  0  0  0  0  0  0  0  0  0  0
   55.3290   88.1760   19.9910 H   0  0  0  0  0  0  0  0  0  0  0  0
   56.1070   90.8570   24.4420 H   0  0  0  0  0  0  0  0  0  0  0  0
   53.6920   92.5230   22.2290 H   0  0  0  0  0  0  0  0  0  0  0  0
   54.7050   92.9510   20.8440 H   0  0  0  0  0  0  0  0  0  0  0  0
   56.5640   92.3990   22.8140 H   0  0  0  0  0  0  0  0  0  0  0  0
   56.2240   93.9610   22.1010 H   0  0  0  0  0  0  0  0  0  0  0  0
   54.8940   92.7580   24.6610 H   0  0  0  0  0  0  0  0  0  0  0  0
   54.6240   94.4320   23.9210 H   0  0  0  0  0  0  0  0  0  0  0  0
   56.8020   93.5290   25.5480 H   0  0  0  0  0  0  0  0  0  0  0  0
   57.2960   94.0420   24.0590 H   0  0  0  0  0  0  0  0  0  0  0  0
   55.7370   96.0230   24.3150 H   0  0  0  0  0  0  0  0  0  0  0  0
   54.8710   95.0880   26.6700 H   0  0  0  0  0  0  0  0  0  0  0  0
   56.4870   95.7510   27.2170 H   0  0  0  0  0  0  0  0  0  0  0  0
   54.5090   97.3260   25.4970 H   0  0  0  0  0  0  0  0  0  0  0  0
   54.7300   97.4770   27.3090 H   0  0  0  0  0  0  0  0  0  0  0  0
   56.0590   99.1260   25.9920 H   0  0  0  0  0  0  0  0  0  0  0  0
   56.9940   98.0970   27.1310 H   0  0  0  0  0  0  0  0  0  0  0  0
   58.2250   98.3010   25.1140 H   0  0  0  0  0  0  0  0  0  0  0  0
   56.7590   97.8830   24.1030 H   0  0  0  0  0  0  0  0  0  0  0  0
   58.2010   96.0430   26.0860 H   0  0  0  0  0  0  0  0  0  0  0  0
   58.2460   95.9520   24.2270 H   0  0  0  0  0  0  0  0  0  0  0  0
   57.2780   88.8840   26.0030 H   0  0  0  0  0  0  0  0  0  0  0  0
   57.9990   86.5230   25.9510 H   0  0  0  0  0  0  0  0  0  0  0  0
   57.6480   85.2610   23.8990 H   0  0  0  0  0  0  0  0  0  0  0  0
   56.5960   86.2830   21.8810 H   0  0  0  0  0  0  0  0  0  0  0  0
  1  2  1  0  0  0  0
  2  3  2  0  0  0  0
  2  7  1  0  0  0  0
  3  4  1  0  0  0  0
  4 31  1  0  0  0  0
  4  5  2  0  0  0  0
  5  8  1  0  0  0  0
  6  5  1  0  0  0  0
  6 32  1  0  0  0  0
  7  6  2  0  0  0  0
  8  9  2  0  0  0  0
  8 15  1  0  0  0  0
  9 10  1  0  0  0  0
 10 14  1  0  0  0  0
 10 11  1  0  0  0  0
 11 12  1  0  0  0  0
 12 26  2  0  0  0  0
 13 12  1  0  0  0  0
 13 35  1  0  0  0  0
 14 15  1  6  0  0  0
 14 13  1  0  0  0  0
 15 16  1  0  0  0  0
 16 36  1  0  0  0  0
 16 17  1  0  0  0  0
 17 38  1  0  0  0  0
 17 18  1  0  0  0  0
 18 40  1  0  0  0  0
 18 19  1  0  0  0  0
 19 20  1  0  0  0  0
 19 42  1  0  0  0  0
 20 25  1  0  0  0  0
 20 21  1  0  0  0  0
 21 45  1  0  0  0  0
 21 46  1  0  0  0  0
 22 21  1  0  0  0  0
 22 48  1  0  0  0  0
 23 22  1  0  0  0  0
 23 50  1  0  0  0  0
 24 51  1  0  0  0  0
 24 25  1  0  0  0  0
 24 23  1  0  0  0  0
 25 53  1  0  0  0  0
 26 55  1  0  0  0  0
 27 26  1  0  0  0  0
 27 56  1  0  0  0  0
 28 27  2  0  0  0  0
 29 11  2  0  0  0  0
 29 28  1  0  0  0  0
 30  3  1  0  0  0  0
 33  7  1  0  0  0  0
 34  9  1  0  0  0  0
 37 16  1  0  0  0  0
 39 17  1  0  0  0  0
 41 18  1  0  0  0  0
 43 19  1  0  0  0  0
 44 20  1  0  0  0  0
 47 22  1  0  0  0  0
 49 23  1  0  0  0  0
 52 24  1  0  0  0  0
 54 25  1  0  0  0  0
 57 28  1  0  0  0  0
 58 29  1  0  0  0  0
M  END
>  <Pose>
1

>  <Score>
-7.61

$$$$
