
 OpenBabel03202210083D

 49 52  0  0  1  0  0  0  0  0999 V2000
   53.4300   97.1180   27.7250 B   0  0  0  0  0  0  0  0  0  0  0  0
   54.2570   96.0550   26.3810 C   0  0  0  0  0  0  0  0  0  0  0  0
   55.5380   96.3270   25.9550 C   0  0  0  0  0  0  0  0  0  0  0  0
   56.1460   95.5760   24.9930 C   0  0  0  0  0  0  0  0  0  0  0  0
   57.3630   95.5930   24.3800 N   0  0  0  0  0  0  0  0  0  0  0  0
   57.4270   94.6080   23.4980 N   0  0  0  0  0  0  0  0  0  0  0  0
   56.2830   93.9120   23.4880 C   0  0  0  0  0  0  0  0  0  0  0  0
   55.4670   94.5210   24.4340 C   0  0  0  0  0  0  0  0  0  0  0  0
   54.1740   94.2240   24.8460 C   0  0  0  0  0  0  0  0  0  0  0  0
   53.5610   94.9840   25.8170 C   0  0  0  0  0  0  0  0  0  0  0  0
   55.8990   92.7830   22.7200 N   0  0  0  0  0  0  0  0  0  0  0  0
   56.7450   91.6640   22.3090 C   0  0  0  0  0  0  0  0  0  0  0  0
   55.8260   90.4720   22.4590 C   0  0  2  0  0  0  0  0  0  0  0  0
   54.5180   91.0000   21.8840 C   0  0  0  0  0  0  0  0  0  0  0  0
   54.6150   92.4750   22.1700 C   0  0  0  0  0  0  0  0  0  0  0  0
   53.7010   93.3270   21.9590 O   0  0  0  0  0  0  0  0  0  0  0  0
   55.6460   90.0890   23.8800 C   0  0  0  0  0  0  0  0  0  0  0  0
   54.5460   90.3480   24.4290 O   0  0  0  0  0  0  0  0  0  0  0  0
   56.6590   89.4490   24.6310 N   0  0  0  0  0  0  0  0  0  0  0  0
   56.7730   88.0170   24.7300 C   0  0  0  0  0  0  0  0  0  0  0  0
   55.4980   87.4480   25.3160 C   0  0  0  0  0  0  0  0  0  0  0  0
   55.2130   86.1130   24.8510 N   0  0  0  0  0  0  0  0  0  0  0  0
   55.6050   85.1890   25.9100 C   0  0  0  0  0  0  0  0  0  0  0  0
   54.4820   85.0530   26.9350 C   0  0  0  0  0  0  0  0  0  0  0  0
   53.3730   84.4200   26.4260 O   0  0  0  0  0  0  0  0  0  0  0  0
   53.3680   84.5350   25.0550 C   0  0  0  0  0  0  0  0  0  0  0  0
   53.8060   85.9090   24.5930 C   0  0  0  0  0  0  0  0  0  0  0  0
   56.0870   97.1540   26.3840 H   0  0  0  0  0  0  0  0  0  0  0  0
   58.0720   96.3220   24.6420 H   0  0  0  0  0  0  0  0  0  0  0  0
   53.6430   93.3750   24.3870 H   0  0  0  0  0  0  0  0  0  0  0  0
   52.5430   94.7350   26.1290 H   0  0  0  0  0  0  0  0  0  0  0  0
   57.6720   91.5880   22.8870 H   0  0  0  0  0  0  0  0  0  0  0  0
   57.0030   91.7590   21.2350 H   0  0  0  0  0  0  0  0  0  0  0  0
   56.1620   89.6350   21.8260 H   0  0  0  0  0  0  0  0  0  0  0  0
   53.6970   90.6360   22.5360 H   0  0  0  0  0  0  0  0  0  0  0  0
   54.3950   90.7830   20.8260 H   0  0  0  0  0  0  0  0  0  0  0  0
   57.3470   90.0680   25.1310 H   0  0  0  0  0  0  0  0  0  0  0  0
   57.5670   87.8230   25.5030 H   0  0  0  0  0  0  0  0  0  0  0  0
   57.0800   87.5200   23.8120 H   0  0  0  0  0  0  0  0  0  0  0  0
   54.6390   88.0860   24.9840 H   0  0  0  0  0  0  0  0  0  0  0  0
   55.5030   87.4840   26.4230 H   0  0  0  0  0  0  0  0  0  0  0  0
   55.8690   84.1960   25.5540 H   0  0  0  0  0  0  0  0  0  0  0  0
   56.4690   85.6540   26.4360 H   0  0  0  0  0  0  0  0  0  0  0  0
   54.9240   84.4320   27.7670 H   0  0  0  0  0  0  0  0  0  0  0  0
   54.1770   86.0380   27.3420 H   0  0  0  0  0  0  0  0  0  0  0  0
   53.9860   83.7720   24.5440 H   0  0  0  0  0  0  0  0  0  0  0  0
   52.3130   84.3750   24.7230 H   0  0  0  0  0  0  0  0  0  0  0  0
   53.5760   85.9460   23.4980 H   0  0  0  0  0  0  0  0  0  0  0  0
   53.1700   86.6870   25.0760 H   0  0  0  0  0  0  0  0  0  0  0  0
  2  1  1  0  0  0  0
  3  2  1  0  0  0  0
  3 28  1  0  0  0  0
  4  3  2  0  0  0  0
  5 29  1  0  0  0  0
  5  4  1  0  0  0  0
  6  5  1  0  0  0  0
  7  6  2  0  0  0  0
  7  8  1  0  0  0  0
  8  9  2  0  0  0  0
  8  4  1  0  0  0  0
  9 10  1  0  0  0  0
 10 31  1  0  0  0  0
 10  2  2  0  0  0  0
 11  7  1  0  0  0  0
 12 13  1  0  0  0  0
 12 11  1  0  0  0  0
 12 32  1  0  0  0  0
 13 34  1  6  0  0  0
 13 17  1  0  0  0  0
 14 15  1  0  0  0  0
 14 13  1  0  0  0  0
 14 35  1  0  0  0  0
 15 11  1  0  0  0  0
 16 15  2  0  0  0  0
 17 18  2  0  0  0  0
 17 19  1  0  0  0  0
 19 20  1  0  0  0  0
 19 37  1  0  0  0  0
 20 21  1  0  0  0  0
 20 38  1  0  0  0  0
 21 41  1  0  0  0  0
 22 21  1  0  0  0  0
 22 23  1  0  0  0  0
 23 43  1  0  0  0  0
 23 24  1  0  0  0  0
 24 45  1  0  0  0  0
 24 44  1  0  0  0  0
 25 24  1  0  0  0  0
 26 25  1  0  0  0  0
 27 22  1  0  0  0  0
 27 26  1  0  0  0  0
 27 49  1  0  0  0  0
 30  9  1  0  0  0  0
 33 12  1  0  0  0  0
 36 14  1  0  0  0  0
 39 20  1  0  0  0  0
 40 21  1  0  0  0  0
 42 23  1  0  0  0  0
 46 26  1  0  0  0  0
 47 26  1  0  0  0  0
 48 27  1  0  0  0  0
M  END
>  <Pose>
1

>  <Score>
-6.34

$$$$
