
 OpenBabel03202210083D

 40 43  0  0  1  0  0  0  0  0999 V2000
   50.9490   82.5120   32.8030 Cl  0  0  0  0  0  0  0  0  0  0  0  0
   51.5530   83.6330   31.6020 C   0  0  0  0  0  0  0  0  0  0  0  0
   52.4800   83.4100   30.6280 N   0  0  0  0  0  0  0  0  0  0  0  0
   52.6970   84.5010   29.8910 C   0  0  0  0  0  0  0  0  0  0  0  0
   51.8430   85.4600   30.4510 C   0  0  0  0  0  0  0  0  0  0  0  0
   51.1360   84.9320   31.5060 C   0  0  0  0  0  0  0  0  0  0  0  0
   49.9530   85.7290   32.5200 Cl  0  0  0  0  0  0  0  0  0  0  0  0
   53.5870   84.7330   28.7840 C   0  0  0  0  0  0  0  0  0  0  0  0
   54.6490   85.4340   29.1340 O   0  0  0  0  0  0  0  0  0  0  0  0
   53.5000   84.3460   27.4560 N   0  0  0  0  0  0  0  0  0  0  0  0
   54.6820   83.6880   26.8490 C   0  0  0  0  0  0  0  0  0  0  0  0
   55.1160   84.5780   25.7150 C   0  0  0  0  0  0  0  0  0  0  0  0
   54.2380   85.6720   25.4440 N   0  0  0  0  0  0  0  0  0  0  0  0
   52.7950   85.6310   25.6370 C   0  0  0  0  0  0  0  0  0  0  0  0
   52.4200   84.4730   26.5480 C   0  0  0  0  0  0  0  0  0  0  0  0
   54.7660   86.8980   24.9550 C   0  0  2  0  0  0  0  0  0  0  0  0
   55.0060   87.9320   25.7830 N   0  0  0  0  0  0  0  0  0  0  0  0
   55.5060   89.1070   25.3350 C   0  0  0  0  0  0  0  0  0  0  0  0
   55.7820   89.2750   24.0300 N   0  0  0  0  0  0  0  0  0  0  0  0
   55.5710   88.2920   23.1390 C   0  0  0  0  0  0  0  0  0  0  0  0
   55.7590   88.2050   21.8100 N   0  0  0  0  0  0  0  0  0  0  0  0
   55.3810   86.9970   21.4430 N   0  0  0  0  0  0  0  0  0  0  0  0
   54.9470   86.2870   22.5100 C   0  0  0  0  0  0  0  0  0  0  0  0
   55.0530   87.0840   23.6200 C   0  0  0  0  0  0  0  0  0  0  0  0
   56.2810   89.2340   20.9090 C   0  0  0  0  0  0  0  0  0  0  0  0
   52.8980   82.4620   30.5490 H   0  0  0  0  0  0  0  0  0  0  0  0
   51.7040   86.5040   30.1460 H   0  0  0  0  0  0  0  0  0  0  0  0
   55.4580   83.5430   27.6130 H   0  0  0  0  0  0  0  0  0  0  0  0
   54.3360   82.6980   26.4570 H   0  0  0  0  0  0  0  0  0  0  0  0
   56.1570   84.8910   25.9310 H   0  0  0  0  0  0  0  0  0  0  0  0
   55.1980   83.9420   24.7860 H   0  0  0  0  0  0  0  0  0  0  0  0
   52.2910   85.5430   24.6710 H   0  0  0  0  0  0  0  0  0  0  0  0
   52.5040   86.5720   26.1310 H   0  0  0  0  0  0  0  0  0  0  0  0
   52.4480   83.5710   25.8220 H   0  0  0  0  0  0  0  0  0  0  0  0
   51.4140   84.5390   26.9070 H   0  0  0  0  0  0  0  0  0  0  0  0
   55.6890   89.9210   26.0200 H   0  0  0  0  0  0  0  0  0  0  0  0
   54.5870   85.2870   22.4910 H   0  0  0  0  0  0  0  0  0  0  0  0
   55.4250   89.5750   20.2700 H   0  0  0  0  0  0  0  0  0  0  0  0
   57.1060   88.8570   20.2880 H   0  0  0  0  0  0  0  0  0  0  0  0
   56.6410   90.0990   21.4740 H   0  0  0  0  0  0  0  0  0  0  0  0
  2  1  1  0  0  0  0
  3  2  1  0  0  0  0
  4  5  2  0  0  0  0
  4  3  1  0  0  0  0
  5  6  1  0  0  0  0
  6  2  2  0  0  0  0
  6  7  1  0  0  0  0
  8  9  2  0  0  0  0
  8  4  1  0  0  0  0
 10  8  1  0  0  0  0
 11 10  1  0  0  0  0
 11 28  1  0  0  0  0
 12 30  1  0  0  0  0
 12 11  1  0  0  0  0
 13 14  1  0  0  0  0
 13 12  1  0  0  0  0
 14 33  1  0  0  0  0
 14 15  1  0  0  0  0
 15 35  1  0  0  0  0
 15 10  1  0  0  0  0
 16 13  1  6  0  0  0
 16 17  1  0  0  0  0
 18 17  2  0  0  0  0
 18 36  1  0  0  0  0
 19 18  1  0  0  0  0
 20 24  2  0  0  0  0
 20 19  1  0  0  0  0
 21 20  1  0  0  0  0
 22 21  1  0  0  0  0
 22 23  2  0  0  0  0
 23 24  1  0  0  0  0
 24 16  1  0  0  0  0
 25 40  1  0  0  0  0
 25 21  1  0  0  0  0
 26  3  1  0  0  0  0
 27  5  1  0  0  0  0
 29 11  1  0  0  0  0
 31 12  1  0  0  0  0
 32 14  1  0  0  0  0
 34 15  1  0  0  0  0
 37 23  1  0  0  0  0
 38 25  1  0  0  0  0
 39 25  1  0  0  0  0
M  END
>  <Pose>
1

>  <Score>
-6.25

$$$$
