
 OpenBabel03202210083D

 52 55  0  0  1  0  0  0  0  0999 V2000
   54.5960   86.0180   26.2100 Cl  0  0  0  0  0  0  0  0  0  0  0  0
   55.5730   86.5710   24.8530 C   0  0  0  0  0  0  0  0  0  0  0  0
   55.1050   87.6840   24.1390 C   0  0  0  0  0  0  0  0  0  0  0  0
   55.8670   88.1110   23.0860 C   0  0  0  0  0  0  0  0  0  0  0  0
   57.0680   87.4610   22.7350 C   0  0  0  0  0  0  0  0  0  0  0  0
   57.5150   86.3730   23.4410 C   0  0  0  0  0  0  0  0  0  0  0  0
   56.7450   85.9470   24.5000 C   0  0  0  0  0  0  0  0  0  0  0  0
   55.2040   89.2820   22.4960 C   0  0  2  0  0  0  0  0  0  0  0  0
   54.9890   89.1990   21.0960 N   0  0  0  0  0  0  0  0  0  0  0  0
   54.9870   90.4610   20.4980 C   0  0  1  0  0  0  0  0  0  0  0  0
   55.6490   91.3740   21.5070 C   0  0  2  0  0  0  0  0  0  0  0  0
   56.0650   90.5320   22.6690 C   0  0  1  0  0  0  0  0  0  0  0  0
   55.7290   91.2790   23.9090 C   0  0  0  0  0  0  0  0  0  0  0  0
   56.0420   90.8990   25.0620 O   0  0  0  0  0  0  0  0  0  0  0  0
   55.0140   92.4560   23.5320 N   0  0  0  0  0  0  0  0  0  0  0  0
   54.7020   92.3200   22.1380 C   0  0  0  0  0  0  0  0  0  0  0  0
   53.7740   92.9150   21.5660 O   0  0  0  0  0  0  0  0  0  0  0  0
   54.6640   93.5760   24.3510 C   0  0  0  0  0  0  0  0  0  0  0  0
   55.7940   94.2860   25.0050 C   0  0  0  0  0  0  0  0  0  0  0  0
   55.4370   95.3380   25.9940 C   0  0  0  0  0  0  0  0  0  0  0  0
   55.9170   96.7160   25.5540 C   0  0  0  0  0  0  0  0  0  0  0  0
   55.5250   90.6150   19.1290 C   0  0  0  0  0  0  0  0  0  0  0  0
   54.6220   90.3650   17.9880 C   0  0  0  0  0  0  0  0  0  0  0  0
   53.9480   91.5220   17.3890 C   0  0  0  0  0  0  0  0  0  0  0  0
   53.9630   91.6950   16.1560 O   0  0  0  0  0  0  0  0  0  0  0  0
   53.2500   92.4950   18.1620 N   0  0  0  0  0  0  0  0  0  0  0  0
   53.9760   89.4680   23.2750 C   0  0  0  0  0  0  0  0  0  0  0  0
   53.0580   90.3340   23.1240 O   0  0  0  0  0  0  0  0  0  0  0  0
   53.9390   88.4850   24.2920 N   0  0  0  0  0  0  0  0  0  0  0  0
   57.6460   87.8280   21.8910 H   0  0  0  0  0  0  0  0  0  0  0  0
   58.4320   85.8510   23.1990 H   0  0  0  0  0  0  0  0  0  0  0  0
   57.0780   85.0920   25.0710 H   0  0  0  0  0  0  0  0  0  0  0  0
   54.2800   88.5150   20.7850 H   0  0  0  0  0  0  0  0  0  0  0  0
   53.9080   90.8070   20.4540 H   0  0  0  0  0  0  0  0  0  0  0  0
   56.4670   91.9690   21.0730 H   0  0  0  0  0  0  0  0  0  0  0  0
   57.1270   90.2880   22.7000 H   0  0  0  0  0  0  0  0  0  0  0  0
   54.0040   93.1990   25.1880 H   0  0  0  0  0  0  0  0  0  0  0  0
   54.0110   94.3020   23.8080 H   0  0  0  0  0  0  0  0  0  0  0  0
   56.3870   93.5090   25.5740 H   0  0  0  0  0  0  0  0  0  0  0  0
   56.5250   94.6490   24.2380 H   0  0  0  0  0  0  0  0  0  0  0  0
   55.8090   95.2040   27.0120 H   0  0  0  0  0  0  0  0  0  0  0  0
   54.3110   95.3560   26.0510 H   0  0  0  0  0  0  0  0  0  0  0  0
   56.9060   96.6750   25.0540 H   0  0  0  0  0  0  0  0  0  0  0  0
   55.9900   97.4120   26.4220 H   0  0  0  0  0  0  0  0  0  0  0  0
   55.2200   97.1660   24.8190 H   0  0  0  0  0  0  0  0  0  0  0  0
   56.0340   91.6150   19.0820 H   0  0  0  0  0  0  0  0  0  0  0  0
   56.3920   89.8960   19.0240 H   0  0  0  0  0  0  0  0  0  0  0  0
   55.1770   89.8690   17.1290 H   0  0  0  0  0  0  0  0  0  0  0  0
   53.8200   89.6220   18.2200 H   0  0  0  0  0  0  0  0  0  0  0  0
   53.5330   92.7780   19.1160 H   0  0  0  0  0  0  0  0  0  0  0  0
   52.4160   92.9470   17.7500 H   0  0  0  0  0  0  0  0  0  0  0  0
   53.2170   88.3370   25.0360 H   0  0  0  0  0  0  0  0  0  0  0  0
  2  1  1  0  0  0  0
  3 29  1  0  0  0  0
  3  2  2  0  0  0  0
  4  3  1  0  0  0  0
  5  4  2  0  0  0  0
  5  6  1  0  0  0  0
  6  7  2  0  0  0  0
  7  2  1  0  0  0  0
  7 32  1  0  0  0  0
  8 12  1  0  0  0  0
  8  4  1  1  0  0  0
  8 27  1  0  0  0  0
  9  8  1  0  0  0  0
 10 34  1  6  0  0  0
 10  9  1  0  0  0  0
 10 11  1  0  0  0  0
 11 35  1  6  0  0  0
 11 16  1  0  0  0  0
 11 12  1  0  0  0  0
 12 36  1  6  0  0  0
 12 13  1  0  0  0  0
 13 14  2  0  0  0  0
 15 13  1  0  0  0  0
 15 18  1  0  0  0  0
 16 15  1  0  0  0  0
 17 16  2  0  0  0  0
 18 19  1  0  0  0  0
 18 37  1  0  0  0  0
 19 39  1  0  0  0  0
 19 20  1  0  0  0  0
 20 42  1  0  0  0  0
 20 41  1  0  0  0  0
 21 20  1  0  0  0  0
 21 44  1  0  0  0  0
 22 10  1  0  0  0  0
 23 49  1  0  0  0  0
 23 22  1  0  0  0  0
 24 23  1  0  0  0  0
 24 26  1  0  0  0  0
 25 24  2  0  0  0  0
 26 50  1  0  0  0  0
 27 29  1  0  0  0  0
 28 27  2  0  0  0  0
 29 52  1  0  0  0  0
 30  5  1  0  0  0  0
 31  6  1  0  0  0  0
 33  9  1  0  0  0  0
 38 18  1  0  0  0  0
 40 19  1  0  0  0  0
 43 21  1  0  0  0  0
 45 21  1  0  0  0  0
 46 22  1  0  0  0  0
 47 22  1  0  0  0  0
 48 23  1  0  0  0  0
 51 26  1  0  0  0  0
M  END
>  <Pose>
1

>  <Score>
-5.78

$$$$
