
 OpenBabel03202210083D

 62 65  0  0  1  0  0  0  0  0999 V2000
   49.7000  100.9510   28.2210 S   0  0  0  0  0  0  0  0  0  0  0  0
   50.2860  102.1550   27.5150 O   0  0  0  0  0  0  0  0  0  0  0  0
   48.3250  100.7360   27.6020 O   0  0  0  0  0  0  0  0  0  0  0  0
   50.6050   99.5320   27.9950 N   0  0  0  0  0  0  0  0  0  0  0  0
   51.4790   99.2040   29.0720 C   0  0  0  0  0  0  0  0  0  0  0  0
   52.8660   99.7240   28.7470 C   0  0  0  0  0  0  0  0  0  0  0  0
   53.3830   98.9190   27.6680 N   0  0  0  0  0  0  0  0  0  0  0  0
   52.4150   98.4300   26.7580 C   0  0  0  0  0  0  0  0  0  0  0  0
   51.2510   99.4220   26.7280 C   0  0  0  0  0  0  0  0  0  0  0  0
   54.4580   98.0580   28.0160 C   0  0  0  0  0  0  0  0  0  0  0  0
   55.0820   97.5330   26.7720 C   0  0  1  0  0  0  0  0  0  0  0  0
   56.4890   97.9910   26.5800 C   0  0  0  0  0  0  0  0  0  0  0  0
   57.0220   98.8610   27.3090 O   0  0  0  0  0  0  0  0  0  0  0  0
   57.1440   97.3640   25.5230 O   0  0  0  0  0  0  0  0  0  0  0  0
   56.8640   96.0930   25.0680 C   0  0  0  0  0  0  0  0  0  0  0  0
   55.8850   95.4020   25.6920 C   0  0  0  0  0  0  0  0  0  0  0  0
   55.1910   96.0300   26.7960 C   0  0  0  0  0  0  0  0  0  0  0  0
   54.7010   95.3790   27.7340 O   0  0  0  0  0  0  0  0  0  0  0  0
   55.5390   94.0360   25.2780 C   0  0  0  0  0  0  0  0  0  0  0  0
   55.6880   93.7630   23.9080 N   0  0  0  0  0  0  0  0  0  0  0  0
   54.5920   93.3940   23.1190 C   0  0  0  0  0  0  0  0  0  0  0  0
   55.0670   92.6490   21.8510 C   0  0  0  0  0  0  0  0  0  0  0  0
   56.0030   91.6640   22.3290 N   0  0  0  0  0  0  0  0  0  0  0  0
   57.2550   92.2170   22.8250 C   0  0  0  0  0  0  0  0  0  0  0  0
   56.9980   93.6090   23.3870 C   0  0  0  0  0  0  0  0  0  0  0  0
   55.7240   90.2840   22.3290 C   0  0  0  0  0  0  0  0  0  0  0  0
   55.6050   89.5260   23.4720 C   0  0  0  0  0  0  0  0  0  0  0  0
   55.3270   88.1800   23.4130 C   0  0  0  0  0  0  0  0  0  0  0  0
   55.1540   87.5170   22.2210 C   0  0  0  0  0  0  0  0  0  0  0  0
   55.2670   88.2450   21.0650 C   0  0  0  0  0  0  0  0  0  0  0  0
   55.5470   89.6030   21.1200 C   0  0  0  0  0  0  0  0  0  0  0  0
   55.1900   87.2740   24.8960 Cl  0  0  0  0  0  0  0  0  0  0  0  0
   49.4490  101.3730   29.9050 C   0  0  0  0  0  0  0  0  0  0  0  0
   51.5820   98.0780   29.0650 H   0  0  0  0  0  0  0  0  0  0  0  0
   51.1110   99.4760   30.0560 H   0  0  0  0  0  0  0  0  0  0  0  0
   52.7640  100.7620   28.3730 H   0  0  0  0  0  0  0  0  0  0  0  0
   53.5200   99.7410   29.6200 H   0  0  0  0  0  0  0  0  0  0  0  0
   52.0740   97.3960   26.9370 H   0  0  0  0  0  0  0  0  0  0  0  0
   52.8570   98.4430   25.7260 H   0  0  0  0  0  0  0  0  0  0  0  0
   51.6900  100.4010   26.4030 H   0  0  0  0  0  0  0  0  0  0  0  0
   50.5270   99.1480   25.9250 H   0  0  0  0  0  0  0  0  0  0  0  0
   55.2540   98.5990   28.5860 H   0  0  0  0  0  0  0  0  0  0  0  0
   54.0450   97.2580   28.6740 H   0  0  0  0  0  0  0  0  0  0  0  0
   54.5020   97.8250   25.8970 H   0  0  0  0  0  0  0  0  0  0  0  0
   57.3730   95.6150   24.2500 H   0  0  0  0  0  0  0  0  0  0  0  0
   54.5010   93.8290   25.6710 H   0  0  0  0  0  0  0  0  0  0  0  0
   56.2180   93.3320   25.8480 H   0  0  0  0  0  0  0  0  0  0  0  0
   53.9780   94.2260   22.7410 H   0  0  0  0  0  0  0  0  0  0  0  0
   53.9920   92.5910   23.6380 H   0  0  0  0  0  0  0  0  0  0  0  0
   54.2460   92.2820   21.2480 H   0  0  0  0  0  0  0  0  0  0  0  0
   55.5780   93.4400   21.2550 H   0  0  0  0  0  0  0  0  0  0  0  0
   57.7010   91.6180   23.6220 H   0  0  0  0  0  0  0  0  0  0  0  0
   57.9120   92.3610   21.9440 H   0  0  0  0  0  0  0  0  0  0  0  0
   57.7380   93.7770   24.1930 H   0  0  0  0  0  0  0  0  0  0  0  0
   57.1920   94.3880   22.6210 H   0  0  0  0  0  0  0  0  0  0  0  0
   55.7430   90.0400   24.4340 H   0  0  0  0  0  0  0  0  0  0  0  0
   54.9320   86.4420   22.1910 H   0  0  0  0  0  0  0  0  0  0  0  0
   55.1390   87.7770   20.0850 H   0  0  0  0  0  0  0  0  0  0  0  0
   55.6370   90.1940   20.2120 H   0  0  0  0  0  0  0  0  0  0  0  0
   50.2100  102.0630   30.3160 H   0  0  0  0  0  0  0  0  0  0  0  0
   48.4640  101.9070   30.0390 H   0  0  0  0  0  0  0  0  0  0  0  0
   49.4060  100.5020   30.5890 H   0  0  0  0  0  0  0  0  0  0  0  0
  1 33  1  0  0  0  0
  2  1  2  0  0  0  0
  3  1  2  0  0  0  0
  4  1  1  0  0  0  0
  4  5  1  0  0  0  0
  5 35  1  0  0  0  0
  6  5  1  0  0  0  0
  6 37  1  0  0  0  0
  7 10  1  0  0  0  0
  7  6  1  0  0  0  0
  8 38  1  0  0  0  0
  8  7  1  0  0  0  0
  9  8  1  0  0  0  0
  9  4  1  0  0  0  0
 10 42  1  0  0  0  0
 10 43  1  0  0  0  0
 11 44  1  6  0  0  0
 11 17  1  0  0  0  0
 11 10  1  0  0  0  0
 12 11  1  0  0  0  0
 12 13  2  0  0  0  0
 14 12  1  0  0  0  0
 15 14  1  0  0  0  0
 15 16  2  0  0  0  0
 16 17  1  0  0  0  0
 17 18  2  0  0  0  0
 19 46  1  0  0  0  0
 19 16  1  0  0  0  0
 19 47  1  0  0  0  0
 20 19  1  0  0  0  0
 21 49  1  0  0  0  0
 21 20  1  0  0  0  0
 22 23  1  0  0  0  0
 22 21  1  0  0  0  0
 23 24  1  0  0  0  0
 24 25  1  0  0  0  0
 24 52  1  0  0  0  0
 25 20  1  0  0  0  0
 25 54  1  0  0  0  0
 26 23  1  0  0  0  0
 26 27  1  0  0  0  0
 27 56  1  0  0  0  0
 28 27  2  0  0  0  0
 28 32  1  0  0  0  0
 29 28  1  0  0  0  0
 30 31  1  0  0  0  0
 30 29  2  0  0  0  0
 31 26  2  0  0  0  0
 33 61  1  0  0  0  0
 33 60  1  0  0  0  0
 33 62  1  0  0  0  0
 34  5  1  0  0  0  0
 36  6  1  0  0  0  0
 39  8  1  0  0  0  0
 40  9  1  0  0  0  0
 41  9  1  0  0  0  0
 45 15  1  0  0  0  0
 48 21  1  0  0  0  0
 50 22  1  0  0  0  0
 51 22  1  0  0  0  0
 53 24  1  0  0  0  0
 55 25  1  0  0  0  0
 57 29  1  0  0  0  0
 58 30  1  0  0  0  0
 59 31  1  0  0  0  0
M  END
>  <Pose>
1

>  <Score>
-7.08

$$$$
