/Users/jonathanwahrer/Desktop/Msc/3_Semester/Drug_Design_Praktikum/waehrer_HTS_screening/HTS_experiment/out/docking_results/vina_output/2jam/0003_docked.pdbqt
 OpenBabel03142216403D

 38 41  0  0  0  0  0  0  0  0999 V2000
    8.2290    7.1360   11.8470 C   0  0  0  0  0  0  0  0  0  0  0  0
    7.0080    6.6700   11.4280 N   0  0  0  0  0  0  0  0  0  0  0  0
    6.0650    7.4270   11.9160 N   0  0  0  0  0  0  0  0  0  0  0  0
    6.5630    8.4030   12.6560 N   0  0  0  0  0  0  0  0  0  0  0  0
    7.8970    8.2450   12.6330 C   0  0  0  0  0  0  0  0  0  0  0  0
    9.5100    6.5460   11.5090 C   0  0  0  0  0  0  0  0  0  0  0  0
   10.2750    5.6430   12.2350 N   0  0  0  0  0  0  0  0  0  0  0  0
   10.0510    5.2280   13.1710 H   0  0  0  0  0  0  0  0  0  0  0  0
    9.9900    6.9270   10.3760 O   0  0  0  0  0  0  0  0  0  0  0  0
   11.5180    5.2210   11.6520 N   0  0  0  0  0  0  0  0  0  0  0  0
   11.8000    3.9670   11.6170 C   0  0  0  0  0  3  0  0  0  0  0  0
   13.0290    3.4340   11.0490 C   0  0  0  0  0  0  0  0  0  0  0  0
   13.0030    2.5700    9.9870 C   0  0  0  0  0  3  0  0  0  0  0  0
   14.1670    2.0500    9.4300 C   0  0  0  0  0  0  0  0  0  0  0  0
   15.4040    2.4100    9.9590 C   0  0  0  0  0  0  0  0  0  0  0  0
   14.0850    0.8560    7.9600 Br  0  0  0  0  0  0  0  0  0  0  0  0
   15.4380    3.2690   11.0180 C   0  0  0  0  0  0  0  0  0  0  0  0
   17.1000    3.7860   11.7670 Br  0  0  0  0  0  0  0  0  0  0  0  0
   14.2590    3.7810   11.5620 C   0  0  0  0  0  0  0  0  0  0  0  0
   16.5520    1.8790    9.3900 O   0  0  0  0  0  0  0  0  0  0  0  0
   17.4430    2.3390    9.4920 H   0  0  0  0  0  0  0  0  0  0  0  0
   14.2730    4.6550   12.6380 O   0  0  0  0  0  0  0  0  0  0  0  0
   14.8760    5.4680   12.6260 H   0  0  0  0  0  0  0  0  0  0  0  0
    8.8960    9.1010   13.2790 C   0  0  0  0  0  2  0  0  0  0  0  0
    8.8430    9.0910   14.7430 N   0  0  0  0  0  0  0  0  0  0  0  0
   10.1490    9.5450   15.2610 C   0  0  0  0  0  2  0  0  0  0  0  0
   11.2480    8.8370   14.5480 C   0  0  0  0  0  2  0  0  0  0  0  0
   11.0540    7.4800   14.6320 O   0  0  0  0  0  0  0  0  0  0  0  0
   10.0570    7.1020   15.4920 C   0  0  0  0  0  2  0  0  0  0  0  0
    8.7010    7.6840   15.1860 C   0  0  0  0  0  2  0  0  0  0  0  0
    5.7780    9.3990   13.2880 C   0  0  0  0  0  0  0  0  0  0  0  0
    5.9620   10.7350   13.3330 N   0  0  0  0  0  0  0  0  0  0  0  0
    4.9970   11.2930   14.0140 O   0  0  0  0  0  0  0  0  0  0  0  0
    4.1550   10.3850   14.4390 N   0  0  0  0  0  0  0  0  0  0  0  0
    4.6090    9.1970   14.0060 C   0  0  0  0  0  0  0  0  0  0  0  0
    3.9710    7.9630   14.2590 N   0  0  0  0  0  0  0  0  0  0  0  0
    3.0160    7.8080   13.8890 H   0  0  0  0  0  0  0  0  0  0  0  0
    4.4210    7.2040   14.8020 H   0  0  0  0  0  0  0  0  0  0  0  0
  1  5  2  0  0  0  0
  2  1  1  0  0  0  0
  2  3  2  0  0  0  0
  3  4  1  0  0  0  0
  4 31  1  0  0  0  0
  5  4  1  0  0  0  0
  5 24  1  0  0  0  0
  6  1  1  0  0  0  0
  6  7  1  0  0  0  0
  7  8  1  0  0  0  0
  9  6  2  0  0  0  0
 10  7  1  0  0  0  0
 11 10  2  0  0  0  0
 12 19  1  0  0  0  0
 12 11  1  0  0  0  0
 13 12  2  0  0  0  0
 14 15  2  0  0  0  0
 14 13  1  0  0  0  0
 15 17  1  0  0  0  0
 16 14  1  0  0  0  0
 17 19  2  0  0  0  0
 17 18  1  0  0  0  0
 19 22  1  0  0  0  0
 20 21  1  0  0  0  0
 20 15  1  0  0  0  0
 23 22  1  0  0  0  0
 24 25  1  0  0  0  0
 25 30  1  0  0  0  0
 25 26  1  0  0  0  0
 27 28  1  0  0  0  0
 27 26  1  0  0  0  0
 28 29  1  0  0  0  0
 30 29  1  0  0  0  0
 31 32  2  0  0  0  0
 31 35  1  0  0  0  0
 32 33  1  0  0  0  0
 33 34  1  0  0  0  0
 35 36  1  0  0  0  0
 35 34  2  0  0  0  0
 36 38  1  0  0  0  0
 37 36  1  0  0  0  0
M  END
>  <Pose>
1

>  <Score>
-8.985

$$$$
