/Users/jonathanwahrer/Desktop/Msc/3_Semester/Drug_Design_Praktikum/waehrer_HTS_screening/HTS_experiment/out/docking_results/vina_output/2jam/0003_docked.pdbqt
 OpenBabel03162217133D

 38 41  0  0  0  0  0  0  0  0999 V2000
    8.2240    7.1300   11.8200 C   0  0  0  0  0  0  0  0  0  0  0  0
    7.0070    6.6510   11.4050 N   0  0  0  0  0  0  0  0  0  0  0  0
    6.0580    7.3990   11.8950 N   0  0  0  0  0  0  0  0  0  0  0  0
    6.5480    8.3810   12.6330 N   0  0  0  0  0  0  0  0  0  0  0  0
    7.8840    8.2370   12.6050 C   0  0  0  0  0  0  0  0  0  0  0  0
    9.5110    6.5520   11.4790 C   0  0  0  0  0  0  0  0  0  0  0  0
   10.3660    5.7950   12.2680 N   0  0  0  0  0  0  0  0  0  0  0  0
   10.2230    5.5090   13.2660 H   0  0  0  0  0  0  0  0  0  0  0  0
    9.8970    6.7870   10.2730 O   0  0  0  0  0  0  0  0  0  0  0  0
   11.5900    5.3470   11.6640 N   0  0  0  0  0  0  0  0  0  0  0  0
   11.8560    4.0890   11.6460 C   0  0  0  0  0  3  0  0  0  0  0  0
   13.0640    3.5310   11.0590 C   0  0  0  0  0  0  0  0  0  0  0  0
   13.0050    2.6800    9.9880 C   0  0  0  0  0  3  0  0  0  0  0  0
   14.1500    2.1360    9.4130 C   0  0  0  0  0  0  0  0  0  0  0  0
   15.4010    2.4570    9.9340 C   0  0  0  0  0  0  0  0  0  0  0  0
   14.0210    0.9620    7.9310 Br  0  0  0  0  0  0  0  0  0  0  0  0
   15.4680    3.3040   11.0020 C   0  0  0  0  0  0  0  0  0  0  0  0
   17.1500    3.7680   11.7390 Br  0  0  0  0  0  0  0  0  0  0  0  0
   14.3080    3.8400   11.5630 C   0  0  0  0  0  0  0  0  0  0  0  0
   16.5290    1.9040    9.3470 O   0  0  0  0  0  0  0  0  0  0  0  0
   16.9050    1.0270    9.6690 H   0  0  0  0  0  0  0  0  0  0  0  0
   14.3560    4.7010   12.6490 O   0  0  0  0  0  0  0  0  0  0  0  0
   15.0990    5.3840   12.7240 H   0  0  0  0  0  0  0  0  0  0  0  0
    8.8760    9.1040   13.2470 C   0  0  0  0  0  2  0  0  0  0  0  0
    8.8270    9.0970   14.7110 N   0  0  0  0  0  0  0  0  0  0  0  0
   10.0950    9.6520   15.2250 C   0  0  0  0  0  2  0  0  0  0  0  0
   11.2440    9.0280   14.5130 C   0  0  0  0  0  2  0  0  0  0  0  0
   11.1550    7.6600   14.6030 O   0  0  0  0  0  0  0  0  0  0  0  0
   10.1910    7.2110   15.4670 C   0  0  0  0  0  2  0  0  0  0  0  0
    8.7940    7.6850   15.1620 C   0  0  0  0  0  2  0  0  0  0  0  0
    5.7550    9.3690   13.2660 C   0  0  0  0  0  0  0  0  0  0  0  0
    5.8830   10.7130   13.2460 N   0  0  0  0  0  0  0  0  0  0  0  0
    4.9320   11.2590   13.9560 O   0  0  0  0  0  0  0  0  0  0  0  0
    4.1550   10.3360   14.4630 N   0  0  0  0  0  0  0  0  0  0  0  0
    4.6360    9.1500   14.0550 C   0  0  0  0  0  0  0  0  0  0  0  0
    4.0680    7.9030   14.3940 N   0  0  0  0  0  0  0  0  0  0  0  0
    3.1030    7.8790   14.7700 H   0  0  0  0  0  0  0  0  0  0  0  0
    4.5780    7.0090   14.2820 H   0  0  0  0  0  0  0  0  0  0  0  0
  1  5  2  0  0  0  0
  2  1  1  0  0  0  0
  2  3  2  0  0  0  0
  3  4  1  0  0  0  0
  4 31  1  0  0  0  0
  5  4  1  0  0  0  0
  5 24  1  0  0  0  0
  6  1  1  0  0  0  0
  6  7  1  0  0  0  0
  7  8  1  0  0  0  0
  9  6  2  0  0  0  0
 10  7  1  0  0  0  0
 11 10  2  0  0  0  0
 12 19  1  0  0  0  0
 12 11  1  0  0  0  0
 13 12  2  0  0  0  0
 14 15  2  0  0  0  0
 14 13  1  0  0  0  0
 15 17  1  0  0  0  0
 16 14  1  0  0  0  0
 17 19  2  0  0  0  0
 17 18  1  0  0  0  0
 19 22  1  0  0  0  0
 20 21  1  0  0  0  0
 20 15  1  0  0  0  0
 22 23  1  0  0  0  0
 24 25  1  0  0  0  0
 25 30  1  0  0  0  0
 25 26  1  0  0  0  0
 27 28  1  0  0  0  0
 27 26  1  0  0  0  0
 28 29  1  0  0  0  0
 30 29  1  0  0  0  0
 31 35  1  0  0  0  0
 32 31  2  0  0  0  0
 32 33  1  0  0  0  0
 33 34  1  0  0  0  0
 35 36  1  0  0  0  0
 35 34  2  0  0  0  0
 36 37  1  0  0  0  0
 38 36  1  0  0  0  0
M  END
>  <Pose>
1

>  <Score>
-8.932

$$$$
