/Users/jonathanwahrer/Desktop/Msc/3_Semester/Drug_Design_Praktikum/waehrer_HTS_screening/HTS_experiment/out/docking_results/vina_output/2jam/0004_docked.pdbqt
 OpenBabel03162217133D

 34 37  0  0  0  0  0  0  0  0999 V2000
    9.2180    6.1510   11.4700 C   0  0  0  0  0  0  0  0  0  0  0  0
    8.1700    6.9560   11.6300 N   0  0  0  0  0  4  0  0  0  0  0  0
    8.2870    8.2340   12.0920 C   0  0  0  0  0  0  0  0  0  0  0  0
    9.5220    8.6420   12.3790 N   0  0  0  0  0  0  0  0  0  0  0  0
   10.6390    7.8920   12.2450 C   0  0  0  0  0  0  0  0  0  0  0  0
   10.4310    6.6250   11.7770 N   0  0  0  0  0  2  0  0  0  0  0  0
    9.0530    4.8240   10.9860 N   0  0  0  0  0  0  0  0  0  0  0  0
    8.1800    4.2900   11.0500 H   0  0  0  0  0  0  0  0  0  0  0  0
   10.1430    4.1790   10.3710 N   0  0  0  0  0  0  0  0  0  0  0  0
   10.8550    3.3010   10.9590 C   0  0  0  0  0  3  0  0  0  0  0  0
   11.9850    2.6210   10.3470 C   0  0  0  0  0  0  0  0  0  0  0  0
   13.2680    2.9800   10.6870 C   0  0  0  0  0  3  0  0  0  0  0  0
   14.3600    2.3480   10.1190 C   0  0  0  0  0  0  0  0  0  0  0  0
   14.2060    1.3400    9.1930 C   0  0  0  0  0  0  0  0  0  0  0  0
   16.1370    2.8670   10.6110 Br  0  0  0  0  0  0  0  0  0  0  0  0
   12.9210    0.9720    8.8450 C   0  0  0  0  0  0  0  0  0  0  0  0
   12.7160   -0.4270    7.5600 Br  0  0  0  0  0  0  0  0  0  0  0  0
   11.8330    1.6110    9.4190 C   0  0  0  0  0  0  0  0  0  0  0  0
   15.2940    0.6930    8.6110 O   0  0  0  0  0  0  0  0  0  0  0  0
   15.2650    0.4540    7.6340 H   0  0  0  0  0  0  0  0  0  0  0  0
   10.5590    1.2360    9.0630 O   0  0  0  0  0  0  0  0  0  0  0  0
    9.8160    1.9340    8.9640 H   0  0  0  0  0  0  0  0  0  0  0  0
    7.1630    9.0710   12.2550 N   0  0  0  0  0  0  0  0  0  0  0  0
    7.2160   10.1910   13.1530 C   0  0  0  0  0  2  0  0  0  0  0  0
    5.9500   10.1550   13.9940 C   0  0  0  0  0  2  0  0  0  0  0  0
    4.8160    9.9490   13.2190 O   0  0  0  0  0  0  0  0  0  0  0  0
    4.8220    8.7490   12.5440 C   0  0  0  0  0  2  0  0  0  0  0  0
    5.9610    8.8040   11.5180 C   0  0  0  0  0  2  0  0  0  0  0  0
   11.9250    8.3670   12.5610 N   0  0  0  0  0  0  0  0  0  0  0  0
   13.0750    7.8860   11.8620 C   0  0  0  0  0  2  0  0  0  0  0  0
   14.0930    7.4440   12.9170 C   0  0  0  0  0  2  0  0  0  0  0  0
   13.5930    7.5570   14.1960 O   0  0  0  0  0  0  0  0  0  0  0  0
   13.1760    8.8210   14.5350 C   0  0  0  0  0  2  0  0  0  0  0  0
   12.0980    9.3420   13.5930 C   0  0  0  0  0  2  0  0  0  0  0  0
  1  2  2  0  0  0  0
  1  6  1  0  0  0  0
  2  3  2  0  0  0  0
  3 23  1  0  0  0  0
  3  4  1  0  0  0  0
  5  4  2  0  0  0  0
  5 29  1  0  0  0  0
  6  5  1  0  0  0  0
  7  8  1  0  0  0  0
  7  1  1  0  0  0  0
  9 10  2  0  0  0  0
  9  7  1  0  0  0  0
 11 12  1  0  0  0  0
 11 10  1  0  0  0  0
 13 15  1  0  0  0  0
 13 12  2  0  0  0  0
 14 13  1  0  0  0  0
 16 14  2  0  0  0  0
 16 18  1  0  0  0  0
 17 16  1  0  0  0  0
 18 11  2  0  0  0  0
 19 14  1  0  0  0  0
 20 19  1  0  0  0  0
 21 18  1  0  0  0  0
 22 21  1  0  0  0  0
 23 24  1  0  0  0  0
 24 25  1  0  0  0  0
 26 25  1  0  0  0  0
 27 26  1  0  0  0  0
 28 23  1  0  0  0  0
 28 27  1  0  0  0  0
 29 34  1  0  0  0  0
 30 29  1  0  0  0  0
 30 31  1  0  0  0  0
 31 32  1  0  0  0  0
 32 33  1  0  0  0  0
 34 33  1  0  0  0  0
M  END
>  <Pose>
1

>  <Score>
-8.503

$$$$
