/Users/jonathanwahrer/Desktop/Msc/3_Semester/Drug_Design_Praktikum/waehrer_HTS_screening/HTS_experiment/out/docking_results/vina_output/2jam/0006_docked.pdbqt
 OpenBabel03162217143D

 34 37  0  0  0  0  0  0  0  0999 V2000
    9.4730    7.6710   12.8640 N   0  0  0  0  0  0  0  0  0  0  0  0
   10.1160    7.6840   14.0620 C   0  0  0  0  0  0  0  0  0  0  0  0
    9.2180    7.5040   15.0780 C   0  0  0  0  0  0  0  0  0  0  0  0
    8.0240    7.3820   14.4780 N   0  0  0  0  0  0  0  0  0  0  0  0
    8.1770    7.4840   13.1200 C   0  0  0  0  0  0  0  0  0  0  0  0
    9.6810    7.4870   16.3770 C   0  0  0  0  0  3  0  0  0  0  0  0
   11.0230    7.6470   16.6800 C   0  0  0  0  0  3  0  0  0  0  0  0
   11.9080    7.8270   15.6310 C   0  0  0  0  0  3  0  0  0  0  0  0
   11.4470    7.8440   14.3300 C   0  0  0  0  0  3  0  0  0  0  0  0
   10.0490    7.8240   11.5650 C   0  0  0  0  0  2  0  0  0  0  0  0
   10.6230    6.6390   10.9760 C   0  0  0  0  0  0  0  0  0  0  0  0
    9.8480    5.5910   10.4210 N   0  0  0  0  0  0  0  0  0  0  0  0
    8.8110    5.6970   10.4470 H   0  0  0  0  0  0  0  0  0  0  0  0
   11.8680    6.4990   10.9390 O   0  0  0  0  0  0  0  0  0  0  0  0
   10.3710    4.4430    9.8490 N   0  0  0  0  0  0  0  0  0  0  0  0
   10.5620    3.3530   10.4880 C   0  0  0  0  0  3  0  0  0  0  0  0
   11.1170    2.2110    9.7880 C   0  0  0  0  0  0  0  0  0  0  0  0
   12.4400    2.1840    9.4690 C   0  0  0  0  0  0  0  0  0  0  0  0
   12.9570    1.0930    8.8030 C   0  0  0  0  0  0  0  0  0  0  0  0
   13.2690    3.2380    9.8080 O   0  0  0  0  0  1  0  0  0  0  0  0
   14.8040    1.0760    8.3690 Br  0  0  0  0  0  0  0  0  0  0  0  0
   12.1360    0.0330    8.4580 C   0  0  0  0  0  3  0  0  0  0  0  0
   10.8040    0.0800    8.7880 C   0  0  0  0  0  0  0  0  0  0  0  0
   10.2630    1.1540    9.4530 C   0  0  0  0  0  3  0  0  0  0  0  0
    9.6830   -1.3930    8.3070 Br  0  0  0  0  0  0  0  0  0  0  0  0
    7.0740    7.3940   12.1700 C   0  0  0  0  0  0  0  0  0  0  0  0
    6.8000    6.3380   11.3940 N   0  0  0  0  0  0  0  0  0  0  0  0
    5.7330    6.6100   10.6640 O   0  0  0  0  0  0  0  0  0  0  0  0
    5.3000    7.8020   10.9330 N   0  0  0  0  0  0  0  0  0  0  0  0
    6.1120    8.3320   11.8740 C   0  0  0  0  0  0  0  0  0  0  0  0
    5.9980    9.6180   12.4550 N   0  0  0  0  0  4  0  0  0  0  0  0
    6.8130    9.8700   13.0300 H   0  0  0  0  0  0  0  0  0  0  0  0
    5.1730    9.5690   13.1130 H   0  0  0  0  0  0  0  0  0  0  0  0
    5.7780   10.3660   11.7470 H   0  0  0  0  0  0  0  0  0  0  0  0
  1  5  1  0  0  0  0
  1  2  1  0  0  0  0
  2  9  2  0  0  0  0
  2  3  1  0  0  0  0
  3  6  2  0  0  0  0
  4  3  1  0  0  0  0
  5  4  2  0  0  0  0
  6  7  1  0  0  0  0
  8  7  2  0  0  0  0
  9  8  1  0  0  0  0
 10  1  1  0  0  0  0
 11 10  1  0  0  0  0
 12 13  1  0  0  0  0
 12 11  1  0  0  0  0
 14 11  2  0  0  0  0
 15 12  1  0  0  0  0
 15 16  2  0  0  0  0
 17 16  1  0  0  0  0
 18 17  1  0  0  0  0
 18 20  1  0  0  0  0
 19 18  2  0  0  0  0
 21 19  1  0  0  0  0
 22 23  2  0  0  0  0
 22 19  1  0  0  0  0
 23 24  1  0  0  0  0
 24 17  2  0  0  0  0
 25 23  1  0  0  0  0
 26  5  1  0  0  0  0
 27 26  2  0  0  0  0
 28 29  1  0  0  0  0
 28 27  1  0  0  0  0
 29 30  2  0  0  0  0
 30 26  1  0  0  0  0
 30 31  1  0  0  0  0
 31 32  1  0  0  0  0
 31 33  1  0  0  0  0
 34 31  1  0  0  0  0
M  END
>  <Pose>
1

>  <Score>
-9.036

$$$$
