/Users/jonathanwahrer/Desktop/Msc/3_Semester/Drug_Design_Praktikum/waehrer_HTS_screening/HTS_experiment/out/docking_results/vina_output/2jam/0011_docked.pdbqt
 OpenBabel03162217143D

 36 39  0  0  0  0  0  0  0  0999 V2000
   11.7640    2.1690   10.4710 N   0  0  0  0  0  0  0  0  0  0  0  0
   11.1940    1.1250    9.7580 C   0  0  0  0  0  0  0  0  0  0  0  0
   12.2030    0.4150    9.2220 C   0  0  0  0  0  0  0  0  0  0  0  0
   13.3300    1.0000    9.5950 N   0  0  0  0  0  0  0  0  0  0  0  0
   13.0660    2.1110   10.3840 C   0  0  0  0  0  0  0  0  0  0  0  0
   11.9940   -0.7120    8.4420 C   0  0  0  0  0  3  0  0  0  0  0  0
   10.6860   -1.0790    8.2350 C   0  0  0  0  0  3  0  0  0  0  0  0
    9.6130   -0.3850    8.7590 C   0  0  0  0  0  3  0  0  0  0  0  0
    9.8810    0.7400    9.5370 C   0  0  0  0  0  3  0  0  0  0  0  0
   10.9410    3.0700   11.1660 C   0  0  0  0  0  2  0  0  0  0  0  0
   10.6290    4.3330   10.3340 C   0  0  0  0  0  0  0  0  0  0  0  0
    9.4650    4.9030   10.7350 N   0  0  0  0  0  0  0  0  0  0  0  0
    9.6770    5.9050    9.7710 H   0  0  0  0  0  0  0  0  0  0  0  0
   11.4860    4.5660    9.4840 O   0  0  0  0  0  0  0  0  0  0  0  0
    8.4080    5.4250   11.0970 N   0  0  0  0  0  2  0  0  0  0  0  0
    7.4430    5.9710   11.5030 C   0  0  0  0  0  2  0  0  0  0  0  0
    7.1880    7.2330   12.1060 C   0  0  0  0  0  0  0  0  0  0  0  0
    5.8820    7.7410   12.1520 C   0  0  0  0  0  3  0  0  0  0  0  0
    5.5190    8.9290   12.7180 C   0  0  0  0  0  0  0  0  0  0  0  0
    6.5420    9.7120   13.3050 C   0  0  0  0  0  0  0  0  0  0  0  0
    7.8400    9.2510   13.2810 C   0  0  0  0  0  0  0  0  0  0  0  0
    6.1740   10.8970   13.8740 O   0  0  0  0  0  1  0  0  0  0  0  0
    9.2300   10.2640   14.0860 Br  0  0  0  0  0  0  0  0  0  0  0  0
    8.1400    8.0390   12.6920 C   0  0  0  0  0  3  0  0  0  0  0  0
    4.2260    9.4150   12.7590 O   0  0  0  0  0  0  0  0  0  0  0  0
    3.2270    8.8400   13.5300 C   0  0  0  0  0  2  0  0  0  0  0  0
    3.5740    8.5620   14.9650 C   0  0  0  0  0  1  0  0  0  0  0  0
   14.2230    2.8370   10.8760 C   0  0  0  0  0  0  0  0  0  0  0  0
   14.1550    3.6860   11.9790 N   0  0  0  0  0  0  0  0  0  0  0  0
   15.2970    4.1850   12.2290 O   0  0  0  0  0  0  0  0  0  0  0  0
   16.1610    3.7600   11.3970 N   0  0  0  0  0  0  0  0  0  0  0  0
   15.5220    2.9050   10.5260 C   0  0  0  0  0  0  0  0  0  0  0  0
   16.2140    2.2430    9.4900 N   0  0  0  0  0  4  0  0  0  0  0  0
   16.3310    2.9410    8.6630 H   0  0  0  0  0  0  0  0  0  0  0  0
   15.6270    1.5010    9.0910 H   0  0  0  0  0  0  0  0  0  0  0  0
   17.1780    2.0440    9.7450 H   0  0  0  0  0  0  0  0  0  0  0  0
  1 10  1  0  0  0  0
  2  1  1  0  0  0  0
  3  4  1  0  0  0  0
  3  2  2  0  0  0  0
  4  5  2  0  0  0  0
  5  1  1  0  0  0  0
  5 28  1  0  0  0  0
  6  3  1  0  0  0  0
  7  6  2  0  0  0  0
  7  8  1  0  0  0  0
  8  9  2  0  0  0  0
  9  2  1  0  0  0  0
 11 12  1  0  0  0  0
 11 10  1  0  0  0  0
 12 15  1  0  0  0  0
 13 12  1  0  0  0  0
 14 11  2  0  0  0  0
 15 16  1  0  0  0  0
 16 17  1  0  0  0  0
 17 18  2  0  0  0  0
 17 24  1  0  0  0  0
 18 19  1  0  0  0  0
 19 25  1  0  0  0  0
 19 20  2  0  0  0  0
 20 22  1  0  0  0  0
 21 20  1  0  0  0  0
 21 23  1  0  0  0  0
 24 21  2  0  0  0  0
 25 26  1  0  0  0  0
 26 27  1  0  0  0  0
 28 29  2  0  0  0  0
 29 30  1  0  0  0  0
 31 30  1  0  0  0  0
 32 28  1  0  0  0  0
 32 31  2  0  0  0  0
 33 36  1  0  0  0  0
 33 32  1  0  0  0  0
 34 33  1  0  0  0  0
 35 33  1  0  0  0  0
M  END
>  <Pose>
1

>  <Score>
-9.200

$$$$
