/Users/jonathanwahrer/Desktop/Msc/3_Semester/Drug_Design_Praktikum/waehrer_HTS_screening/HTS_experiment/out/docking_results/vina_output/2jam/0020_docked.pdbqt
 OpenBabel03162217163D

 34 37  0  0  0  0  0  0  0  0999 V2000
   10.3670    6.2480   10.3270 C   0  0  0  0  0  0  0  0  0  0  0  0
   11.5860    6.5240   10.7510 N   0  0  0  0  0  4  0  0  0  0  0  0
   11.7890    7.3690   11.8020 C   0  0  0  0  0  0  0  0  0  0  0  0
   10.6720    7.8880   12.3650 N   0  0  0  0  0  0  0  0  0  0  0  0
    9.4070    7.6440   11.9760 C   0  0  0  0  0  0  0  0  0  0  0  0
    9.2780    6.8020   10.9260 N   0  0  0  0  0  2  0  0  0  0  0  0
   10.0450    5.1890    9.3430 N   0  0  0  0  0  0  0  0  0  0  0  0
    9.6760    5.5120    8.4700 H   0  0  0  0  0  0  0  0  0  0  0  0
   10.3370    4.0130    9.8380 N   0  0  0  0  0  2  0  0  0  0  0  0
   10.5790    2.9710   10.2880 C   0  0  0  0  0  2  0  0  0  0  0  0
   11.1870    1.7800    9.6610 C   0  0  0  0  0  0  0  0  0  0  0  0
   10.4890    0.7540    9.0930 C   0  0  0  0  0  3  0  0  0  0  0  0
   11.1310   -0.2140    8.3340 C   0  0  0  0  0  0  0  0  0  0  0  0
   12.5100   -0.1560    8.1460 C   0  0  0  0  0  0  0  0  0  0  0  0
   13.2220    0.8620    8.7190 C   0  0  0  0  0  0  0  0  0  0  0  0
   15.1190    0.9590    8.4430 Br  0  0  0  0  0  0  0  0  0  0  0  0
   12.5490    1.8080    9.4610 C   0  0  0  0  0  3  0  0  0  0  0  0
   10.5040   -1.2630    7.7370 O   0  0  0  0  0  0  0  0  0  0  0  0
    9.3110   -1.8830    8.0650 C   0  0  0  0  0  2  0  0  0  0  0  0
    8.3990   -2.0810    6.8640 C   0  0  0  0  0  1  0  0  0  0  0  0
   13.1910   -1.0920    7.3980 O   0  0  0  0  0  0  0  0  0  0  0  0
   12.7700   -1.8880    6.9830 H   0  0  0  0  0  0  0  0  0  0  0  0
   13.0720    7.6230   12.3410 N   0  0  0  0  0  0  0  0  0  0  0  0
   14.2500    7.5860   11.4590 C   0  0  0  0  0  2  0  0  0  0  0  0
   15.2970    6.7430   12.2300 C   0  0  0  0  0  2  0  0  0  0  0  0
   15.6330    7.5170   13.3040 O   0  0  0  0  0  0  0  0  0  0  0  0
   14.6380    7.6390   14.2340 C   0  0  0  0  0  2  0  0  0  0  0  0
   13.2580    7.8780   13.7180 C   0  0  0  0  0  2  0  0  0  0  0  0
    8.3110    8.0920   12.6940 N   0  0  0  0  0  0  0  0  0  0  0  0
    7.8530    7.7210   13.9760 C   0  0  0  0  0  2  0  0  0  0  0  0
    6.4580    7.1190   13.7840 C   0  0  0  0  0  2  0  0  0  0  0  0
    5.6880    8.0500   13.1220 O   0  0  0  0  0  0  0  0  0  0  0  0
    6.1280    8.4020   11.8670 C   0  0  0  0  0  2  0  0  0  0  0  0
    7.4930    9.1350   12.0050 C   0  0  0  0  0  2  0  0  0  0  0  0
  1  2  2  0  0  0  0
  1  6  1  0  0  0  0
  2  3  2  0  0  0  0
  3 23  1  0  0  0  0
  3  4  1  0  0  0  0
  5  4  2  0  0  0  0
  5 29  1  0  0  0  0
  6  5  1  0  0  0  0
  7  9  1  0  0  0  0
  7  1  1  0  0  0  0
  8  7  1  0  0  0  0
  9 10  1  0  0  0  0
 11 10  1  0  0  0  0
 12 11  2  0  0  0  0
 13 12  1  0  0  0  0
 14 13  2  0  0  0  0
 14 15  1  0  0  0  0
 15 17  2  0  0  0  0
 16 15  1  0  0  0  0
 17 11  1  0  0  0  0
 18 19  1  0  0  0  0
 18 13  1  0  0  0  0
 20 19  1  0  0  0  0
 21 14  1  0  0  0  0
 22 21  1  0  0  0  0
 23 28  1  0  0  0  0
 24 25  1  0  0  0  0
 24 23  1  0  0  0  0
 25 26  1  0  0  0  0
 26 27  1  0  0  0  0
 28 27  1  0  0  0  0
 29 30  1  0  0  0  0
 31 30  1  0  0  0  0
 32 31  1  0  0  0  0
 33 34  1  0  0  0  0
 33 32  1  0  0  0  0
 34 29  1  0  0  0  0
M  END
>  <Pose>
1

>  <Score>
-8.563

$$$$
