/Users/jonathanwahrer/Desktop/Msc/3_Semester/Drug_Design_Praktikum/waehrer_HTS_screening/HTS_experiment/out/docking_results/vina_output/2jam/0037_docked.pdbqt
 OpenBabel03162217183D

 27 30  0  0  1  0  0  0  0  0999 V2000
   11.3670    4.2750   10.8170 N   0  0  0  0  0  0  0  0  0  0  0  0
   10.4090    5.2960   10.4630 C   0  0  0  0  0  2  0  0  0  0  0  0
   10.0900    5.9040   11.8110 C   0  0  1  0  0  3  0  0  0  0  0  0
   11.4800    6.0470   12.4050 C   0  0  0  0  0  2  0  0  0  0  0  0
   12.0760    4.7660   11.9400 C   0  0  0  0  0  0  0  0  0  0  0  0
   13.0620    4.2140   12.4730 O   0  0  0  0  0  0  0  0  0  0  0  0
    9.4070    7.2080   11.6870 C   0  0  0  0  0  0  0  0  0  0  0  0
    9.4670    7.8770   10.6270 O   0  0  0  0  0  0  0  0  0  0  0  0
    8.6740    7.7040   12.7860 N   0  0  0  0  0  0  0  0  0  0  0  0
    8.6200    7.1600   13.6650 H   0  0  0  0  0  0  0  0  0  0  0  0
    7.9890    8.9710   12.7080 C   0  0  0  0  0  2  0  0  0  0  0  0
    6.5480    8.7850   12.3770 C   0  0  0  0  0  0  0  0  0  0  0  0
    5.4750    9.0450   13.1650 N   0  0  0  0  0  0  0  0  0  0  0  0
    4.3480    8.7450   12.4970 C   0  0  0  0  0  0  0  0  0  0  0  0
    5.1880    9.5430   14.4980 C   0  0  0  0  0  2  0  0  0  0  0  0
    4.7600    8.2950   11.2840 N   0  0  0  0  0  0  0  0  0  0  0  0
    3.1390    9.0210   13.3400 C   0  0  0  0  0  2  0  0  0  0  0  0
    6.0750    8.3180   11.2110 N   0  0  0  0  0  0  0  0  0  0  0  0
    3.7390    9.1650   14.7210 C   0  0  0  0  0  2  0  0  0  0  0  0
   11.5120    3.0460   10.1200 C   0  0  0  0  0  0  0  0  0  0  0  0
   10.4950    2.1320    9.9420 C   0  0  0  0  0  3  0  0  0  0  0  0
   10.6160    0.9460    9.2730 C   0  0  0  0  0  0  0  0  0  0  0  0
   11.8600    0.6390    8.7320 C   0  0  0  0  0  0  0  0  0  0  0  0
    9.4950   -0.0170    9.0980 C   0  0  0  0  0  1  0  0  0  0  0  0
   12.0640   -1.0070    7.7950 Br  0  0  0  0  0  0  0  0  0  0  0  0
   12.9180    1.5130    8.8770 C   0  0  0  0  0  3  0  0  0  0  0  0
   12.7450    2.7000    9.5620 C   0  0  0  0  0  3  0  0  0  0  0  0
  1  5  1  0  0  0  0
  2  1  1  0  0  0  0
  2  3  1  0  0  0  0
  3  7  1  6  0  0  0
  3  4  1  0  0  0  0
  5  4  1  0  0  0  0
  5  6  2  0  0  0  0
  7  9  1  0  0  0  0
  8  7  2  0  0  0  0
  9 10  1  0  0  0  0
 11  9  1  0  0  0  0
 12 11  1  0  0  0  0
 12 13  1  0  0  0  0
 13 15  1  0  0  0  0
 14 13  1  0  0  0  0
 14 17  1  0  0  0  0
 15 19  1  0  0  0  0
 16 14  2  0  0  0  0
 17 19  1  0  0  0  0
 18 16  1  0  0  0  0
 18 12  2  0  0  0  0
 20  1  1  0  0  0  0
 21 20  1  0  0  0  0
 22 21  2  0  0  0  0
 23 26  2  0  0  0  0
 23 22  1  0  0  0  0
 24 22  1  0  0  0  0
 25 23  1  0  0  0  0
 26 27  1  0  0  0  0
 27 20  2  0  0  0  0
M  END
>  <Pose>
1

>  <Score>
-9.150

$$$$
