/Users/jonathanwahrer/Desktop/Msc/3_Semester/Drug_Design_Praktikum/waehrer_HTS_screening/HTS_experiment/out/docking_results/vina_output/2jam/0064_docked.pdbqt
 OpenBabel03162217183D

 22 25  0  0  1  0  0  0  0  0999 V2000
    5.4990    9.1360   14.9240 N   0  0  0  0  0  0  0  0  0  0  0  0
    5.6830    7.8550   14.3450 C   0  0  0  0  0  0  0  0  0  0  0  0
    5.7360    6.7940   14.9910 O   0  0  0  0  0  0  0  0  0  0  0  0
    5.8040    7.9480   12.8710 C   0  0  2  0  0  3  0  0  0  0  0  0
    7.1420    7.5350   12.3630 C   0  0  1  0  0  0  0  0  0  0  0  0
    7.5830    8.6130   11.5510 O   0  0  0  0  0  0  0  0  0  0  0  0
    7.3850    9.6300   12.5210 C   0  0  1  0  0  3  0  0  0  0  0  0
    5.8650    9.4700   12.6480 C   0  0  2  0  0  3  0  0  0  0  0  0
    5.3530   10.0980   13.8750 C   0  0  0  0  0  0  0  0  0  0  0  0
    4.8750   11.2450   14.0160 O   0  0  0  0  0  0  0  0  0  0  0  0
    8.0990    9.0460   13.6760 C   0  0  0  0  0  2  0  0  0  0  0  0
    8.1110    7.7260   13.4860 C   0  0  0  0  0  2  0  0  0  0  0  0
    5.4610    9.5040   16.2960 C   0  0  0  0  0  0  0  0  0  0  0  0
    4.3510    9.3570   17.0970 C   0  0  0  0  0  0  0  0  0  0  0  0
    2.7760    8.6060   16.2790 Br  0  0  0  0  0  0  0  0  0  0  0  0
    4.3390    9.7230   18.4240 C   0  0  0  0  0  3  0  0  0  0  0  0
    5.4490   10.2610   19.0200 C   0  0  0  0  0  3  0  0  0  0  0  0
    6.5880   10.4230   18.2410 C   0  0  0  0  0  3  0  0  0  0  0  0
    6.5820   10.0500   16.9100 C   0  0  0  0  0  3  0  0  0  0  0  0
    7.2440    6.2310   11.6920 C   0  0  0  0  0  2  0  0  0  0  0  0
    6.0410    6.0010   10.9980 O   0  0  0  0  0  0  0  0  0  0  0  0
    5.3590    5.6310   11.6320 H   0  0  0  0  0  0  0  0  0  0  0  0
  1 13  1  0  0  0  0
  2  1  1  0  0  0  0
  2  3  2  0  0  0  0
  4  2  1  1  0  0  0
  5 20  1  6  0  0  0
  5  4  1  0  0  0  0
  5 12  1  0  0  0  0
  6  5  1  0  0  0  0
  6  7  1  0  0  0  0
  7  8  1  0  0  0  0
  7 11  1  1  0  0  0
  8  4  1  0  0  0  0
  8  9  1  1  0  0  0
  9 10  2  0  0  0  0
  9  1  1  0  0  0  0
 12 11  1  0  0  0  0
 13 19  2  0  0  0  0
 13 14  1  0  0  0  0
 14 16  2  0  0  0  0
 15 14  1  0  0  0  0
 16 17  1  0  0  0  0
 18 17  2  0  0  0  0
 19 18  1  0  0  0  0
 21 22  1  0  0  0  0
 21 20  1  0  0  0  0
M  END
>  <Pose>
1

>  <Score>
-7.213

$$$$
