/Users/jonathanwahrer/Desktop/Msc/3_Semester/Drug_Design_Praktikum/waehrer_HTS_screening/HTS_experiment/out/docking_results/vina_output/2jam/0067_docked.pdbqt
 OpenBabel03162217183D

 22 25  0  0  1  0  0  0  0  0999 V2000
   10.6190    7.1390   12.6150 N   0  0  0  0  0  0  0  0  0  0  0  0
   10.7680    7.9780   13.8190 C   0  0  0  0  0  2  0  0  0  0  0  0
    9.4730    8.6440   13.8750 C   0  0  2  0  0  0  0  0  0  0  0  0
    8.4430    7.9360   14.5170 O   0  0  0  0  0  0  0  0  0  0  0  0
    7.4040    8.8350   14.1550 C   0  0  2  0  0  3  0  0  0  0  0  0
    7.4940    8.6400   12.6350 C   0  0  1  0  0  3  0  0  0  0  0  0
    8.9660    8.8230   12.4340 C   0  0  2  0  0  3  0  0  0  0  0  0
    9.6720    7.7530   11.7490 C   0  0  0  0  0  0  0  0  0  0  0  0
    9.4920    7.4040   10.5640 O   0  0  0  0  0  0  0  0  0  0  0  0
    8.0030   10.1320   14.5860 C   0  0  0  0  0  2  0  0  0  0  0  0
    9.3410    9.9470   14.5200 C   0  0  0  0  0  2  0  0  0  0  0  0
   11.2830    5.9170   12.3320 C   0  0  0  0  0  0  0  0  0  0  0  0
   12.5390    5.8710   11.7520 C   0  0  0  0  0  0  0  0  0  0  0  0
   13.4760    7.4390   11.2860 Br  0  0  0  0  0  0  0  0  0  0  0  0
   13.1650    4.6500   11.4870 C   0  0  0  0  0  3  0  0  0  0  0  0
   12.5600    3.4600   11.7930 C   0  0  0  0  0  3  0  0  0  0  0  0
   11.3270    3.4850   12.3630 C   0  0  0  0  0  3  0  0  0  0  0  0
   10.7130    4.6840   12.6230 C   0  0  0  0  0  3  0  0  0  0  0  0
    7.1130    7.2090   12.4100 C   0  0  0  0  0  0  0  0  0  0  0  0
    7.4450    6.2950   13.1790 O   0  0  0  0  0  0  0  0  0  0  0  0
    6.3550    6.8960   11.2890 O   0  0  0  0  0  0  0  0  0  0  0  0
    5.2900    7.7770   10.9150 C   0  0  0  0  0  1  0  0  0  0  0  0
  1  2  1  0  0  0  0
  3  2  1  1  0  0  0
  3  4  1  0  0  0  0
  3 11  1  0  0  0  0
  5  4  1  0  0  0  0
  5 10  1  6  0  0  0
  6 19  1  1  0  0  0
  6  5  1  0  0  0  0
  7  8  1  6  0  0  0
  7  6  1  0  0  0  0
  7  3  1  0  0  0  0
  8  1  1  0  0  0  0
  9  8  2  0  0  0  0
 11 10  1  0  0  0  0
 12  1  1  0  0  0  0
 12 18  1  0  0  0  0
 13 12  2  0  0  0  0
 14 13  1  0  0  0  0
 15 13  1  0  0  0  0
 15 16  2  0  0  0  0
 16 17  1  0  0  0  0
 17 18  2  0  0  0  0
 19 20  2  0  0  0  0
 21 19  1  0  0  0  0
 22 21  1  0  0  0  0
M  END
>  <Pose>
1

>  <Score>
-6.695

$$$$
