/Users/jonathanwahrer/Desktop/Msc/3_Semester/Drug_Design_Praktikum/waehrer_HTS_screening/HTS_experiment/out/docking_results/vina_output/2jam/0081_docked.pdbqt
 OpenBabel03162217183D

 22 25  0  0  0  0  0  0  0  0999 V2000
   11.6100    4.1280   11.6960 C   0  0  0  0  0  0  0  0  0  0  0  0
   11.5290    5.1720   10.8510 N   0  0  0  0  0  0  0  0  0  0  0  0
   10.5850    6.0140   11.2760 N   0  0  0  0  0  0  0  0  0  0  0  0
   10.0400    5.5230   12.4070 C   0  0  0  0  0  0  0  0  0  0  0  0
   10.6860    4.3660   12.6430 N   0  0  0  0  0  0  0  0  0  0  0  0
    9.0320    6.2320   13.0320 C   0  0  0  0  0  0  0  0  0  0  0  0
    8.5590    7.4310   12.5400 C   0  0  0  0  0  0  0  0  0  0  0  0
    7.5820    7.9070   13.3380 N   0  0  0  0  0  0  0  0  0  0  0  0
    7.4260    7.0410   14.3210 N   0  0  0  0  0  0  0  0  0  0  0  0
    8.2940    5.9970   14.1740 C   0  0  0  0  0  3  0  0  0  0  0  0
    6.8170    9.1340   13.1870 C   0  0  0  0  0  1  0  0  0  0  0  0
    9.1290    7.8860   11.4090 N   0  0  0  0  0  0  0  0  0  0  0  0
   10.1200    7.1830   10.8000 C   0  0  0  0  0  3  0  0  0  0  0  0
   12.5380    2.9480   11.5990 C   0  0  0  0  0  2  0  0  0  0  0  0
   12.0490    1.9690   10.6560 N   0  0  0  0  0  0  0  0  0  0  0  0
   12.8160    1.3090    9.7780 C   0  0  0  0  0  0  0  0  0  0  0  0
   11.9790    0.4820    9.0750 C   0  0  0  0  0  0  0  0  0  0  0  0
   14.2960    1.4180    9.5710 C   0  0  0  0  0  1  0  0  0  0  0  0
   12.4700   -0.7140    7.6840 Br  0  0  0  0  0  0  0  0  0  0  0  0
   10.7020    0.6540    9.5410 C   0  0  0  0  0  0  0  0  0  0  0  0
   10.7950    1.5840   10.5190 N   0  0  0  0  0  0  0  0  0  0  0  0
    9.4440   -0.0350    9.0780 C   0  0  0  0  0  1  0  0  0  0  0  0
  1  5  1  0  0  0  0
  2  3  1  0  0  0  0
  2  1  2  0  0  0  0
  3  4  1  0  0  0  0
  4  5  2  0  0  0  0
  4  6  1  0  0  0  0
  6 10  1  0  0  0  0
  7  6  2  0  0  0  0
  7  8  1  0  0  0  0
  8  9  1  0  0  0  0
 10  9  2  0  0  0  0
 11  8  1  0  0  0  0
 12  7  1  0  0  0  0
 13  3  1  0  0  0  0
 13 12  2  0  0  0  0
 14  1  1  0  0  0  0
 15 14  1  0  0  0  0
 16 15  1  0  0  0  0
 17 20  1  0  0  0  0
 17 16  2  0  0  0  0
 18 16  1  0  0  0  0
 19 17  1  0  0  0  0
 20 21  2  0  0  0  0
 21 15  1  0  0  0  0
 22 20  1  0  0  0  0
M  END
>  <Pose>
1

>  <Score>
-7.750

$$$$
