/Users/jonathanwahrer/Desktop/Msc/3_Semester/Drug_Design_Praktikum/waehrer_HTS_screening/HTS_experiment/out/docking_results/vina_output/2jam/0085_docked.pdbqt
 OpenBabel03162217193D

 26 29  0  0  0  0  0  0  0  0999 V2000
   10.9450    6.3350   11.5260 C   0  0  0  0  0  0  0  0  0  0  0  0
    9.5390    6.3010   11.4200 C   0  0  0  0  0  0  0  0  0  0  0  0
    8.7190    5.4220   10.7840 N   0  0  0  0  0  0  0  0  0  0  0  0
    7.5010    5.8250   10.9820 O   0  0  0  0  0  0  0  0  0  0  0  0
    7.4880    6.9030   11.7020 N   0  0  0  0  0  0  0  0  0  0  0  0
    8.7450    7.2500   12.0080 C   0  0  0  0  0  0  0  0  0  0  0  0
    9.2640    8.2980   12.7400 C   0  0  0  0  0  0  0  0  0  0  0  0
   10.6420    8.3280   12.8410 C   0  0  0  0  0  3  0  0  0  0  0  0
   11.4590    7.3680   12.2480 C   0  0  0  0  0  3  0  0  0  0  0  0
   11.6640    5.3000   10.8770 N   0  0  0  0  0  0  0  0  0  0  0  0
   11.9220    4.0390   11.4080 C   0  0  0  0  0  0  0  0  0  0  0  0
   11.4870    3.7370   12.5810 O   0  0  0  0  0  0  0  0  0  0  0  0
   12.0410    5.4650    9.8950 H   0  0  0  0  0  0  0  0  0  0  0  0
   12.6820    2.9880   10.7010 C   0  0  0  0  0  0  0  0  0  0  0  0
   14.0230    2.7950   10.6410 C   0  0  0  0  0  0  0  0  0  0  0  0
   15.4220    3.7800   11.4890 Br  0  0  0  0  0  0  0  0  0  0  0  0
   14.2360    1.6710    9.8170 C   0  0  0  0  0  3  0  0  0  0  0  0
   13.0250    1.2720    9.4450 N   0  0  0  0  0  0  0  0  0  0  0  0
   12.0710    2.0150    9.9400 N   0  0  0  0  0  0  0  0  0  0  0  0
   10.6560    1.8550    9.7320 C   0  0  0  0  0  1  0  0  0  0  0  0
    8.4610    9.2800   13.3480 N   0  0  0  0  0  0  0  0  0  0  0  0
    8.1810    9.1610   14.7770 C   0  0  0  0  0  2  0  0  0  0  0  0
    7.1750   10.1820   15.2320 C   0  0  0  0  0  2  0  0  0  0  0  0
    6.1500   10.4310   14.3800 O   0  0  0  0  0  0  0  0  0  0  0  0
    6.3710   10.3070   13.0400 C   0  0  0  0  0  2  0  0  0  0  0  0
    7.8530   10.4300   12.7490 C   0  0  0  0  0  2  0  0  0  0  0  0
  1  9  2  0  0  0  0
  2  1  1  0  0  0  0
  2  6  1  0  0  0  0
  3  4  1  0  0  0  0
  3  2  2  0  0  0  0
  4  5  1  0  0  0  0
  5  6  2  0  0  0  0
  6  7  1  0  0  0  0
  7  8  2  0  0  0  0
  7 21  1  0  0  0  0
  9  8  1  0  0  0  0
 10 11  1  0  0  0  0
 10  1  1  0  0  0  0
 11 12  2  0  0  0  0
 13 10  1  0  0  0  0
 14 11  1  0  0  0  0
 15 14  2  0  0  0  0
 15 16  1  0  0  0  0
 17 15  1  0  0  0  0
 18 17  2  0  0  0  0
 18 19  1  0  0  0  0
 19 14  1  0  0  0  0
 20 19  1  0  0  0  0
 21 22  1  0  0  0  0
 22 23  1  0  0  0  0
 24 23  1  0  0  0  0
 25 24  1  0  0  0  0
 26 25  1  0  0  0  0
 26 21  1  0  0  0  0
M  END
>  <Pose>
1

>  <Score>
-7.934

$$$$
