/Users/jonathanwahrer/Desktop/Msc/3_Semester/Drug_Design_Praktikum/waehrer_HTS_screening/HTS_experiment/out/docking_results/vina_output/2jam/0106_docked.pdbqt
 OpenBabel03162217193D

 29 32  0  0  0  0  0  0  0  0999 V2000
   16.2030    2.8300   10.4230 C   0  0  0  0  0  3  0  0  0  0  0  0
   15.1140    2.2290   10.0310 C   0  0  0  0  0  0  0  0  0  0  0  0
   13.8430    2.5200   10.5020 O   0  0  0  0  0  0  0  0  0  0  0  0
   12.8800    1.7240    9.9110 C   0  0  0  0  0  0  0  0  0  0  0  0
   13.4560    0.8560    9.0120 C   0  0  0  0  0  0  0  0  0  0  0  0
   12.6710   -0.0330    8.3080 C   0  0  0  0  0  3  0  0  0  0  0  0
   11.3080   -0.0440    8.5140 C   0  0  0  0  0  3  0  0  0  0  0  0
   10.7430    0.8550    9.4400 C   0  0  0  0  0  0  0  0  0  0  0  0
   11.4980    1.7420   10.1450 C   0  0  0  0  0  0  0  0  0  0  0  0
    9.3490    0.7290    9.5460 O   0  0  0  0  0  1  0  0  0  0  0  0
   14.8910    1.1520    9.0620 C   0  0  0  0  0  0  0  0  0  0  0  0
   15.7880    0.5890    8.3960 O   0  0  0  0  0  0  0  0  0  0  0  0
   16.2930    3.8950   11.4080 C   0  0  0  0  0  0  0  0  0  0  0  0
   15.2640    4.7760   11.6550 C   0  0  0  0  0  3  0  0  0  0  0  0
   15.3330    5.7920   12.5650 C   0  0  0  0  0  0  0  0  0  0  0  0
   13.9300    7.0280   12.9290 Br  0  0  0  0  0  0  0  0  0  0  0  0
   16.5200    5.9300   13.2770 C   0  0  0  0  0  3  0  0  0  0  0  0
   17.5930    5.0710   13.0720 C   0  0  0  0  0  3  0  0  0  0  0  0
   17.4680    4.0720   12.1460 C   0  0  0  0  0  0  0  0  0  0  0  0
   18.5170    3.2050   11.9150 O   0  0  0  0  0  0  0  0  0  0  0  0
   19.7460    3.6880   11.4380 C   0  0  0  0  0  1  0  0  0  0  0  0
   10.9750    2.6940   11.0870 C   0  0  0  0  0  2  0  0  0  0  0  0
   11.5650    3.9500   11.3100 N   0  0  0  0  0  4  0  0  0  0  0  0
   11.4910    4.8800   10.2170 C   0  0  0  0  0  2  0  0  0  0  0  0
   10.1810    5.6230   10.1280 C   0  0  0  0  0  2  0  0  0  0  0  0
    9.2330    5.1880   11.0430 O   0  0  0  0  0  0  0  0  0  0  0  0
    9.7930    5.3680   12.3030 C   0  0  0  0  0  2  0  0  0  0  0  0
   11.0540    4.6020   12.5300 C   0  0  0  0  0  2  0  0  0  0  0  0
   12.5730    3.8180   11.5380 H   0  0  0  0  0  0  0  0  0  0  0  0
  1 13  1  0  0  0  0
  2  1  2  0  0  0  0
  2  3  1  0  0  0  0
  4  9  1  0  0  0  0
  4  3  1  0  0  0  0
  5 11  1  0  0  0  0
  5  4  2  0  0  0  0
  6  7  2  0  0  0  0
  6  5  1  0  0  0  0
  7  8  1  0  0  0  0
  8 10  1  0  0  0  0
  8  9  2  0  0  0  0
  9 22  1  0  0  0  0
 11  2  1  0  0  0  0
 12 11  2  0  0  0  0
 13 14  2  0  0  0  0
 13 19  1  0  0  0  0
 14 15  1  0  0  0  0
 15 16  1  0  0  0  0
 15 17  2  0  0  0  0
 18 17  1  0  0  0  0
 19 18  2  0  0  0  0
 20 19  1  0  0  0  0
 21 20  1  0  0  0  0
 22 23  1  0  0  0  0
 23 29  1  0  0  0  0
 23 28  1  0  0  0  0
 24 23  1  0  0  0  0
 25 24  1  0  0  0  0
 25 26  1  0  0  0  0
 26 27  1  0  0  0  0
 27 28  1  0  0  0  0
M  END
>  <Pose>
1

>  <Score>
-8.872

$$$$
