/Users/jonathanwahrer/Desktop/Msc/3_Semester/Drug_Design_Praktikum/waehrer_HTS_screening/HTS_experiment/out/docking_results/vina_output/2jam/0107_docked.pdbqt
 OpenBabel03162217193D

 31 34  0  0  0  0  0  0  0  0999 V2000
    9.7630    5.9770   11.0140 C   0  0  0  0  0  0  0  0  0  0  0  0
   11.0370    6.3580   11.2520 N   0  0  0  0  0  4  0  0  0  0  0  0
   11.3210    7.4770   11.9290 C   0  0  0  0  0  0  0  0  0  0  0  0
   10.3030    8.2290   12.3750 N   0  0  0  0  0  0  0  0  0  0  0  0
    8.9970    7.9060   12.1720 C   0  0  0  0  0  0  0  0  0  0  0  0
    8.7850    6.7560   11.4760 N   0  0  0  0  0  2  0  0  0  0  0  0
    9.4260    4.7950   10.2990 N   0  0  0  0  0  0  0  0  0  0  0  0
    8.4190    4.5020   10.1770 H   0  0  0  0  0  0  0  0  0  0  0  0
   10.3870    3.9610    9.7240 N   0  0  0  0  0  0  0  0  0  0  0  0
   10.5450    2.7310   10.0360 C   0  0  0  0  0  3  0  0  0  0  0  0
   11.5550    1.8740    9.4250 C   0  0  0  0  0  0  0  0  0  0  0  0
   12.8910    2.1890    9.4730 C   0  0  0  0  0  3  0  0  0  0  0  0
   13.8350    1.3730    8.8910 C   0  0  0  0  0  0  0  0  0  0  0  0
   15.6890    1.8120    8.9580 Br  0  0  0  0  0  0  0  0  0  0  0  0
   13.4790    0.2020    8.2350 C   0  0  0  0  0  3  0  0  0  0  0  0
   12.1320   -0.1220    8.1830 C   0  0  0  0  0  3  0  0  0  0  0  0
   11.1850    0.7160    8.7760 C   0  0  0  0  0  0  0  0  0  0  0  0
    9.8270    0.4200    8.7430 O   0  0  0  0  0  0  0  0  0  0  0  0
    9.3100   -0.8900    8.7320 C   0  0  0  0  0  1  0  0  0  0  0  0
   12.6610    7.8770   12.1780 N   0  0  0  0  0  0  0  0  0  0  0  0
   13.7240    7.6670   11.2210 C   0  0  0  0  0  2  0  0  0  0  0  0
   14.9950    7.1880   11.9060 C   0  0  0  0  0  2  0  0  0  0  0  0
   15.2480    7.9460   13.0550 O   0  0  0  0  0  0  0  0  0  0  0  0
   14.2350    7.8280   13.9760 C   0  0  0  0  0  2  0  0  0  0  0  0
   13.0090    8.5220   13.4250 C   0  0  0  0  0  2  0  0  0  0  0  0
    7.9350    8.6990   12.6430 N   0  0  0  0  0  0  0  0  0  0  0  0
    7.2530    9.6190   11.7820 C   0  0  0  0  0  2  0  0  0  0  0  0
    7.2760   10.9800   12.4750 C   0  0  0  0  0  2  0  0  0  0  0  0
    6.7030   10.8080   13.7230 O   0  0  0  0  0  0  0  0  0  0  0  0
    7.4620   10.0240   14.5600 C   0  0  0  0  0  2  0  0  0  0  0  0
    7.5170    8.5990   14.0100 C   0  0  0  0  0  2  0  0  0  0  0  0
  1  2  2  0  0  0  0
  1  6  1  0  0  0  0
  2  3  2  0  0  0  0
  3 20  1  0  0  0  0
  3  4  1  0  0  0  0
  5  4  2  0  0  0  0
  5 26  1  0  0  0  0
  6  5  1  0  0  0  0
  7  1  1  0  0  0  0
  8  7  1  0  0  0  0
  9 10  2  0  0  0  0
  9  7  1  0  0  0  0
 11 12  1  0  0  0  0
 11 10  1  0  0  0  0
 13 14  1  0  0  0  0
 13 12  2  0  0  0  0
 15 13  1  0  0  0  0
 16 15  2  0  0  0  0
 16 17  1  0  0  0  0
 17 11  2  0  0  0  0
 18 17  1  0  0  0  0
 19 18  1  0  0  0  0
 20 25  1  0  0  0  0
 21 22  1  0  0  0  0
 21 20  1  0  0  0  0
 22 23  1  0  0  0  0
 23 24  1  0  0  0  0
 25 24  1  0  0  0  0
 26 31  1  0  0  0  0
 27 28  1  0  0  0  0
 27 26  1  0  0  0  0
 28 29  1  0  0  0  0
 29 30  1  0  0  0  0
 31 30  1  0  0  0  0
M  END
>  <Pose>
1

>  <Score>
-8.569

$$$$
