/Users/jonathanwahrer/Desktop/Msc/3_Semester/Drug_Design_Praktikum/waehrer_HTS_screening/HTS_experiment/out/docking_results/vina_output/2jam/0111_docked.pdbqt
 OpenBabel03162217193D

 29 32  0  0  0  0  0  0  0  0999 V2000
    7.5570    7.1470   12.4550 C   0  0  0  0  0  0  0  0  0  0  0  0
    8.8390    7.3410   12.2370 N   0  0  0  0  0  0  0  0  0  0  0  0
    9.3210    6.4160   11.3480 C   0  0  0  0  0  0  0  0  0  0  0  0
    8.2750    5.6220   11.0210 N   0  0  0  0  0  0  0  0  0  0  0  0
    7.2360    6.0360   11.6620 N   0  0  0  0  0  0  0  0  0  0  0  0
   10.6220    6.6270   11.1380 N   0  0  0  0  0  0  0  0  0  0  0  0
   10.9750    7.6800   11.8930 C   0  0  0  0  0  0  0  0  0  0  0  0
    9.8710    8.1460   12.5980 C   0  0  0  0  0  0  0  0  0  0  0  0
    9.9380    9.1610   13.4370 N   0  0  0  0  0  0  0  0  0  0  0  0
   11.1610    9.7590   13.5870 C   0  0  0  0  0  0  0  0  0  0  0  0
   11.3370   10.7360   14.3580 O   0  0  0  0  0  0  0  0  0  0  0  0
   12.2540    9.3370   12.9160 N   0  0  0  0  0  0  0  0  0  0  0  0
   12.1910    8.3120   12.0740 C   0  0  0  0  0  0  0  0  0  0  0  0
   13.1710    7.8720   11.4210 O   0  0  0  0  0  0  0  0  0  0  0  0
    8.9160    9.6990   14.2840 C   0  0  0  0  0  1  0  0  0  0  0  0
   13.1770    9.8030   13.0400 H   0  0  0  0  0  0  0  0  0  0  0  0
    6.4860    7.7160   13.2220 C   0  0  0  0  0  0  0  0  0  0  0  0
    6.2120    7.5750   14.5490 C   0  0  0  0  0  3  0  0  0  0  0  0
    5.1640    8.1320   15.2230 C   0  0  0  0  0  0  0  0  0  0  0  0
    4.9620    7.8050   17.0910 Br  0  0  0  0  0  0  0  0  0  0  0  0
    4.2760    8.9140   14.5460 C   0  0  0  0  0  3  0  0  0  0  0  0
    4.4780    9.1140   13.1890 C   0  0  0  0  0  3  0  0  0  0  0  0
    5.5480    8.5340   12.5510 C   0  0  0  0  0  0  0  0  0  0  0  0
    5.7110    8.7580   11.1950 O   0  0  0  0  0  0  0  0  0  0  0  0
    4.7670    8.4340   10.2220 C   0  0  0  0  0  1  0  0  0  0  0  0
   11.4990    5.8880   10.2780 C   0  0  0  0  0  2  0  0  0  0  0  0
   11.4880    4.4280   10.6810 C   0  0  0  0  0  2  0  0  0  0  0  0
   10.9800    3.6930    9.6280 O   0  0  0  0  0  0  0  0  0  0  0  0
   10.6330    2.3900   10.0260 C   0  0  0  0  0  1  0  0  0  0  0  0
  1 17  1  0  0  0  0
  2  1  1  0  0  0  0
  2  8  1  0  0  0  0
  3  2  1  0  0  0  0
  4  3  2  0  0  0  0
  4  5  1  0  0  0  0
  5  1  2  0  0  0  0
  6  3  1  0  0  0  0
  6  7  1  0  0  0  0
  7 13  1  0  0  0  0
  7  8  2  0  0  0  0
  8  9  1  0  0  0  0
  9 10  1  0  0  0  0
  9 15  1  0  0  0  0
 10 11  2  0  0  0  0
 12 16  1  0  0  0  0
 12 10  1  0  0  0  0
 13 12  1  0  0  0  0
 14 13  2  0  0  0  0
 17 18  1  0  0  0  0
 18 19  2  0  0  0  0
 19 20  1  0  0  0  0
 21 19  1  0  0  0  0
 22 21  2  0  0  0  0
 23 22  1  0  0  0  0
 23 17  2  0  0  0  0
 24 23  1  0  0  0  0
 25 24  1  0  0  0  0
 26 27  1  0  0  0  0
 26  6  1  0  0  0  0
 28 29  1  0  0  0  0
 28 27  1  0  0  0  0
M  END
>  <Pose>
1

>  <Score>
-7.540

$$$$
