/Users/jonathanwahrer/Desktop/Msc/3_Semester/Drug_Design_Praktikum/waehrer_HTS_screening/HTS_experiment/out/docking_results/vina_output/2jam/0127_docked.pdbqt
 OpenBabel03162217203D

 29 32  0  0  0  0  0  0  0  0999 V2000
    9.9520    6.1020   11.4000 N   0  0  0  0  0  0  0  0  0  0  0  0
    9.9470    7.1490   12.3530 C   0  0  0  0  0  2  0  0  0  0  0  0
    8.7370    8.0030   12.3750 C   0  0  0  0  0  2  0  0  0  0  0  0
    7.5510    7.2160   12.4780 N   0  0  0  0  0  0  0  0  0  0  0  0
    7.6050    5.8390   12.0780 C   0  0  0  0  0  2  0  0  0  0  0  0
    8.6900    5.5360   11.0700 C   0  0  0  0  0  2  0  0  0  0  0  0
    6.3190    7.7550   12.9350 C   0  0  0  0  0  0  0  0  0  0  0  0
    6.0210    7.6250   14.2270 C   0  0  0  0  0  0  0  0  0  0  0  0
    6.6590    7.0460   15.3510 N   0  0  0  0  0  0  0  0  0  0  0  0
    4.7300    8.2020   14.6620 C   0  0  0  0  0  0  0  0  0  0  0  0
    5.7760    7.2680   16.4330 N   0  0  0  0  0  0  0  0  0  0  0  0
    7.9350    6.3740   15.3810 C   0  0  0  0  0  1  0  0  0  0  0  0
    4.6380    7.9640   15.9610 C   0  0  0  0  0  0  0  0  0  0  0  0
    5.9960    6.9420   17.3970 H   0  0  0  0  0  0  0  0  0  0  0  0
    3.4640    8.3980   16.7650 C   0  0  0  0  0  1  0  0  0  0  0  0
    3.8860    8.8490   13.7160 N   0  0  0  0  0  0  0  0  0  0  0  0
    4.2220    8.9480   12.4770 C   0  0  0  0  0  3  0  0  0  0  0  0
    5.4380    8.4190   12.0060 N   0  0  0  0  0  0  0  0  0  0  0  0
    5.7510    8.4730   11.0210 H   0  0  0  0  0  0  0  0  0  0  0  0
   11.0480    5.2160   11.4370 C   0  0  0  0  0  2  0  0  0  0  0  0
   11.4860    4.7470   10.1210 C   0  0  0  0  0  0  0  0  0  0  0  0
   11.6350    5.5830    9.1930 O   0  0  0  0  0  0  0  0  0  0  0  0
   11.7370    3.3230    9.9240 C   0  0  0  0  0  0  0  0  0  0  0  0
   10.7020    2.4580    9.6820 C   0  0  0  0  0  3  0  0  0  0  0  0
   10.9050    1.0980    9.4900 C   0  0  0  0  0  0  0  0  0  0  0  0
    9.4660   -0.1000    9.1530 Br  0  0  0  0  0  0  0  0  0  0  0  0
   12.1870    0.5980    9.5440 C   0  0  0  0  0  3  0  0  0  0  0  0
   13.2260    1.4860    9.7900 C   0  0  0  0  0  3  0  0  0  0  0  0
   13.0200    2.8290    9.9790 C   0  0  0  0  0  3  0  0  0  0  0  0
  1 20  1  0  0  0  0
  1  2  1  0  0  0  0
  2  3  1  0  0  0  0
  3  4  1  0  0  0  0
  4  7  1  0  0  0  0
  5  4  1  0  0  0  0
  6  1  1  0  0  0  0
  6  5  1  0  0  0  0
  7  8  2  0  0  0  0
  8 10  1  0  0  0  0
  8  9  1  0  0  0  0
  9 12  1  0  0  0  0
  9 11  1  0  0  0  0
 10 13  2  0  0  0  0
 11 14  1  0  0  0  0
 13 11  1  0  0  0  0
 13 15  1  0  0  0  0
 16 10  1  0  0  0  0
 17 16  2  0  0  0  0
 18 17  1  0  0  0  0
 18  7  1  0  0  0  0
 19 18  1  0  0  0  0
 21 20  1  0  0  0  0
 22 21  2  0  0  0  0
 23 29  1  0  0  0  0
 23 21  1  0  0  0  0
 24 23  2  0  0  0  0
 25 27  2  0  0  0  0
 25 24  1  0  0  0  0
 26 25  1  0  0  0  0
 27 28  1  0  0  0  0
 28 29  2  0  0  0  0
M  END
>  <Pose>
1

>  <Score>
-8.931

$$$$
