/Users/jonathanwahrer/Desktop/Msc/3_Semester/Drug_Design_Praktikum/waehrer_HTS_screening/HTS_experiment/out/docking_results/vina_output/2jam/0129_docked.pdbqt
 OpenBabel03162217203D

 31 34  0  0  1  0  0  0  0  0999 V2000
   10.6310    4.9210   11.8450 C   0  0  0  0  0  0  0  0  0  0  0  0
   10.9350    5.3400   13.0060 O   0  0  0  0  0  0  0  0  0  0  0  0
   11.1210    3.6680   11.3770 N   0  0  0  0  0  0  0  0  0  0  0  0
   10.9450    3.2240   10.0180 C   0  0  0  0  0  2  0  0  0  0  0  0
   12.3940    3.1930    9.4760 C   0  0  0  0  0  2  0  0  0  0  0  0
   13.0160    1.9840   10.1210 C   0  0  2  0  0  0  0  0  0  0  0  0
   14.4610    2.1170    9.9430 N   0  0  0  0  0  0  0  0  0  0  0  0
   14.8490    2.2440    8.5880 C   0  0  0  0  0  2  0  0  0  0  0  0
   14.5270    1.0160    7.7570 C   0  0  0  0  0  2  0  0  0  0  0  0
   13.2860    0.3580    8.2090 C   0  0  0  0  0  0  0  0  0  0  0  0
   12.6490   -0.7040    7.6880 N   0  0  0  0  0  0  0  0  0  0  0  0
   11.5620   -0.9360    8.4550 C   0  0  0  0  0  3  0  0  0  0  0  0
   11.5390   -0.0090    9.4460 N   0  0  0  0  0  0  0  0  0  0  0  0
   12.5980    0.8130    9.3170 C   0  0  0  0  0  0  0  0  0  0  0  0
   12.7420    1.8240   11.5750 C   0  0  0  0  0  3  0  0  0  0  0  0
   11.8310    2.7960   12.2440 C   0  0  0  0  0  3  0  0  0  0  0  0
   14.9930    1.3660   10.4530 H   0  0  0  0  0  0  0  0  0  0  0  0
   10.7660   -0.0340   10.1410 H   0  0  0  0  0  0  0  0  0  0  0  0
    9.7850    5.7880   11.0380 C   0  0  2  0  0  3  0  0  0  0  0  0
   10.5910    6.3590    9.8820 C   0  0  0  0  0  1  0  0  0  0  0  0
    9.0500    6.7440   11.7820 N   0  0  0  0  0  0  0  0  0  0  0  0
    7.6620    6.8470   11.8050 C   0  0  0  0  0  0  0  0  0  0  0  0
    6.8080    6.1640   11.2670 O   0  0  0  0  0  0  0  0  0  0  0  0
    9.6290    7.3880   12.4000 H   0  0  0  0  0  0  0  0  0  0  0  0
    7.1600    8.0100   12.6280 C   0  0  0  0  0  0  0  0  0  0  0  0
    5.8210    8.0200   12.9520 C   0  0  0  0  0  3  0  0  0  0  0  0
    5.3080    9.0770   13.6660 C   0  0  0  0  0  0  0  0  0  0  0  0
    3.4390    9.0910   14.1340 Br  0  0  0  0  0  0  0  0  0  0  0  0
    6.0930   10.1370   14.0690 C   0  0  0  0  0  3  0  0  0  0  0  0
    7.4420   10.0770   13.7100 C   0  0  0  0  0  3  0  0  0  0  0  0
    7.9710    9.0330   13.0030 C   0  0  0  0  0  3  0  0  0  0  0  0
  1  2  2  0  0  0  0
  3  1  1  0  0  0  0
  3 16  1  0  0  0  0
  4  3  1  0  0  0  0
  5  4  1  0  0  0  0
  6  5  1  6  0  0  0
  6 15  1  0  0  0  0
  7  6  1  0  0  0  0
  7 17  1  0  0  0  0
  8  7  1  0  0  0  0
  9 10  1  0  0  0  0
  9  8  1  0  0  0  0
 10 14  2  0  0  0  0
 11 10  1  0  0  0  0
 11 12  2  0  0  0  0
 12 13  1  0  0  0  0
 13 18  1  0  0  0  0
 14 13  1  0  0  0  0
 14  6  1  0  0  0  0
 15 16  2  0  0  0  0
 19 20  1  6  0  0  0
 19 21  1  0  0  0  0
 19  1  1  0  0  0  0
 21 22  1  0  0  0  0
 21 24  1  0  0  0  0
 22 25  1  0  0  0  0
 23 22  2  0  0  0  0
 25 26  2  0  0  0  0
 25 31  1  0  0  0  0
 26 27  1  0  0  0  0
 27 29  2  0  0  0  0
 27 28  1  0  0  0  0
 30 29  1  0  0  0  0
 31 30  2  0  0  0  0
M  END
>  <Pose>
1

>  <Score>
-9.642

$$$$
