/Users/jonathanwahrer/Desktop/Msc/3_Semester/Drug_Design_Praktikum/waehrer_HTS_screening/HTS_experiment/out/docking_results/vina_output/2jam/0130_docked.pdbqt
 OpenBabel03162217203D

 30 33  0  0  1  0  0  0  0  0999 V2000
    9.9640    6.3330   11.3740 C   0  0  0  0  0  0  0  0  0  0  0  0
    9.8530    6.3840   10.0980 O   0  0  0  0  0  0  0  0  0  0  0  0
    8.8780    5.9840   12.1880 N   0  0  0  0  0  0  0  0  0  0  0  0
    8.9640    5.9210   13.6120 C   0  0  0  0  0  2  0  0  0  0  0  0
    7.7010    6.3730   14.2900 C   0  0  0  0  0  2  0  0  0  0  0  0
    6.8120    7.2620   13.4500 C   0  0  1  0  0  0  0  0  0  0  0  0
    5.5630    7.3080   14.1970 N   0  0  0  0  0  0  0  0  0  0  0  0
    4.6030    8.2440   13.7500 C   0  0  0  0  0  2  0  0  0  0  0  0
    5.0640    9.3450   12.8670 C   0  0  0  0  0  2  0  0  0  0  0  0
    6.5030    9.6790   13.1030 C   0  0  0  0  0  0  0  0  0  0  0  0
    7.1610   10.8370   13.0880 N   0  0  0  0  0  0  0  0  0  0  0  0
    8.4450   10.5340   13.3720 C   0  0  0  0  0  3  0  0  0  0  0  0
    8.5820    9.2030   13.5590 N   0  0  0  0  0  0  0  0  0  0  0  0
    7.3510    8.6390   13.3900 C   0  0  0  0  0  0  0  0  0  0  0  0
    6.5720    6.7430   12.0550 C   0  0  0  0  0  2  0  0  0  0  0  0
    7.5670    5.6800   11.6270 C   0  0  0  0  0  2  0  0  0  0  0  0
    5.1980    6.3140   14.1400 H   0  0  0  0  0  0  0  0  0  0  0  0
    9.4640    8.7140   13.7870 H   0  0  0  0  0  0  0  0  0  0  0  0
   11.3360    6.6750   11.8960 C   0  0  0  0  0  2  0  0  0  0  0  0
   12.1900    5.5860   11.8350 N   0  0  0  0  0  0  0  0  0  0  0  0
   13.0060    4.5460   11.7770 C   0  0  0  0  0  0  0  0  0  0  0  0
   14.1430    4.3900   12.3470 O   0  0  0  0  0  0  0  0  0  0  0  0
   13.0780    6.2540   12.6600 H   0  0  0  0  0  0  0  0  0  0  0  0
   12.5920    3.3630   10.9440 C   0  0  0  0  0  0  0  0  0  0  0  0
   13.4450    2.7930   10.0370 C   0  0  0  0  0  3  0  0  0  0  0  0
   13.0410    1.7240    9.2510 C   0  0  0  0  0  0  0  0  0  0  0  0
   14.2520    0.9650    8.0190 Br  0  0  0  0  0  0  0  0  0  0  0  0
   11.7590    1.2630    9.4170 C   0  0  0  0  0  3  0  0  0  0  0  0
   10.9010    1.8410   10.3340 C   0  0  0  0  0  3  0  0  0  0  0  0
   11.3160    2.9180   11.1230 C   0  0  0  0  0  3  0  0  0  0  0  0
  1 19  1  0  0  0  0
  1  3  1  0  0  0  0
  2  1  2  0  0  0  0
  3  4  1  0  0  0  0
  4  5  1  0  0  0  0
  6 15  1  6  0  0  0
  6  7  1  0  0  0  0
  6  5  1  0  0  0  0
  8  7  1  0  0  0  0
  9 10  1  0  0  0  0
  9  8  1  0  0  0  0
 10 14  2  0  0  0  0
 11 10  1  0  0  0  0
 11 12  2  0  0  0  0
 12 13  1  0  0  0  0
 13 18  1  0  0  0  0
 14  6  1  0  0  0  0
 14 13  1  0  0  0  0
 16 15  1  0  0  0  0
 16  3  1  0  0  0  0
 17  7  1  0  0  0  0
 20 19  1  0  0  0  0
 20 23  1  0  0  0  0
 21 20  1  0  0  0  0
 21 22  2  0  0  0  0
 24 30  1  0  0  0  0
 24 21  1  0  0  0  0
 25 24  2  0  0  0  0
 26 28  2  0  0  0  0
 26 25  1  0  0  0  0
 27 26  1  0  0  0  0
 28 29  1  0  0  0  0
 29 30  2  0  0  0  0
M  END
>  <Pose>
1

>  <Score>
-9.046

$$$$
