/Users/jonathanwahrer/Desktop/Msc/3_Semester/Drug_Design_Praktikum/waehrer_HTS_screening/HTS_experiment/out/docking_results/vina_output/2jam/0136_docked.pdbqt
 OpenBabel03162217203D

 30 33  0  0  1  0  0  0  0  0999 V2000
    9.1800    6.1390   12.9990 C   0  0  2  0  0  3  0  0  0  0  0  0
   10.6860    6.2780   13.1090 C   0  0  0  0  0  2  0  0  0  0  0  0
   11.1710    5.3590   12.0980 N   0  0  0  0  0  0  0  0  0  0  0  0
   10.0810    4.8620   11.2820 C   0  0  1  0  0  3  0  0  0  0  0  0
    9.0020    5.9270   11.5220 C   0  0  0  0  0  2  0  0  0  0  0  0
   10.5170    4.8370    9.8870 C   0  0  0  0  0  0  0  0  0  0  0  0
    9.8600    5.3890    8.9920 O   0  0  0  0  0  0  0  0  0  0  0  0
   11.7240    4.1560    9.5820 N   0  0  0  0  0  0  0  0  0  0  0  0
   12.7470    4.0320   10.5950 C   0  0  1  0  0  3  0  0  0  0  0  0
   12.4850    4.8790   11.7810 C   0  0  0  0  0  0  0  0  0  0  0  0
   13.4360    5.1940   12.5440 O   0  0  0  0  0  0  0  0  0  0  0  0
   11.9100    3.7350    8.6440 H   0  0  0  0  0  0  0  0  0  0  0  0
    8.4990    7.3260   13.4830 N   0  0  0  0  0  0  0  0  0  0  0  0
    7.1690    7.1790   13.9230 C   0  0  0  0  0  0  0  0  0  0  0  0
    6.6130    6.0200   13.8810 O   0  0  0  0  0  0  0  0  0  0  0  0
    8.9480    8.2520   13.5090 H   0  0  0  0  0  0  0  0  0  0  0  0
    6.3920    8.2980   14.4280 C   0  0  0  0  0  0  0  0  0  0  0  0
    6.3980    8.6040   15.7840 C   0  0  0  0  0  3  0  0  0  0  0  0
    5.6720    9.6590   16.2630 C   0  0  0  0  0  0  0  0  0  0  0  0
    5.6890   10.0700   18.1320 Br  0  0  0  0  0  0  0  0  0  0  0  0
    4.9220   10.4450   15.4350 C   0  0  0  0  0  3  0  0  0  0  0  0
    4.9150   10.1460   14.0950 C   0  0  0  0  0  3  0  0  0  0  0  0
    5.6470    9.0780   13.6000 C   0  0  0  0  0  3  0  0  0  0  0  0
   13.0180    2.5920   10.9730 C   0  0  0  0  0  2  0  0  0  0  0  0
   12.9930    1.6740    9.8220 C   0  0  0  0  0  0  0  0  0  0  0  0
   11.9270    0.8090    9.6560 C   0  0  0  0  0  3  0  0  0  0  0  0
   11.8950   -0.0510    8.5830 C   0  0  0  0  0  3  0  0  0  0  0  0
   12.9010   -0.0990    7.6360 C   0  0  0  0  0  3  0  0  0  0  0  0
   13.9650    0.7620    7.7990 C   0  0  0  0  0  3  0  0  0  0  0  0
   14.0130    1.6330    8.8700 C   0  0  0  0  0  3  0  0  0  0  0  0
  1  2  1  0  0  0  0
  1 13  1  6  0  0  0
  3  2  1  0  0  0  0
  4  5  1  6  0  0  0
  4  3  1  0  0  0  0
  5  1  1  0  0  0  0
  6  4  1  0  0  0  0
  7  6  2  0  0  0  0
  8  6  1  0  0  0  0
  8  9  1  0  0  0  0
  9 24  1  1  0  0  0
  9 10  1  0  0  0  0
 10  3  1  0  0  0  0
 10 11  2  0  0  0  0
 12  8  1  0  0  0  0
 13 16  1  0  0  0  0
 13 14  1  0  0  0  0
 14 17  1  0  0  0  0
 15 14  2  0  0  0  0
 17 18  1  0  0  0  0
 18 19  2  0  0  0  0
 19 20  1  0  0  0  0
 21 19  1  0  0  0  0
 22 21  2  0  0  0  0
 23 22  1  0  0  0  0
 23 17  2  0  0  0  0
 25 24  1  0  0  0  0
 26 25  1  0  0  0  0
 27 26  2  0  0  0  0
 28 29  2  0  0  0  0
 28 27  1  0  0  0  0
 29 30  1  0  0  0  0
 30 25  2  0  0  0  0
M  END
>  <Pose>
1

>  <Score>
-9.405

$$$$
