/Users/jonathanwahrer/Desktop/Msc/3_Semester/Drug_Design_Praktikum/waehrer_HTS_screening/HTS_experiment/out/docking_results/vina_output/2jam/0137_docked.pdbqt
 OpenBabel03162217203D

 25 28  0  0  1  0  0  0  0  0999 V2000
   12.0710    4.9550   10.5580 C   0  0  2  0  0  3  0  0  0  0  0  0
   12.1010    5.4480   12.0520 C   0  0  0  0  0  2  0  0  0  0  0  0
   11.0670    6.4240   12.1010 N   0  0  0  0  0  0  0  0  0  0  0  0
   10.1490    6.2040   10.9940 C   0  0  1  0  0  3  0  0  0  0  0  0
   10.5160    4.8810   10.4590 C   0  0  0  0  0  2  0  0  0  0  0  0
    8.7590    6.3930   11.4390 C   0  0  0  0  0  0  0  0  0  0  0  0
    7.8740    5.6250   11.0230 O   0  0  0  0  0  0  0  0  0  0  0  0
    8.4310    7.4380   12.3310 N   0  0  0  0  0  0  0  0  0  0  0  0
    9.3970    7.8650   13.3190 C   0  0  2  0  0  3  0  0  0  0  0  0
    9.1610    9.3500   13.5040 C   0  0  0  0  0  2  0  0  0  0  0  0
    7.9680    9.6570   12.6690 C   0  0  0  0  0  2  0  0  0  0  0  0
    7.2690    8.2950   12.5440 C   0  0  0  0  0  2  0  0  0  0  0  0
   10.7690    7.5100   12.9720 C   0  0  0  0  0  0  0  0  0  0  0  0
   11.7450    8.1830   13.4560 O   0  0  0  0  0  0  0  0  0  0  0  0
   12.7530    3.8320   10.3640 N   0  0  0  0  0  0  0  0  0  0  0  0
   13.4640    2.6740   10.1650 C   0  0  0  0  0  0  0  0  0  0  0  0
   14.6140    2.3410   10.5870 O   0  0  0  0  0  0  0  0  0  0  0  0
   13.7950    4.3160   11.1230 H   0  0  0  0  0  0  0  0  0  0  0  0
   12.8560    1.5720    9.3250 C   0  0  0  0  0  0  0  0  0  0  0  0
   11.5530    1.1780    9.5070 C   0  0  0  0  0  3  0  0  0  0  0  0
   10.9720    0.1830    8.7590 C   0  0  0  0  0  0  0  0  0  0  0  0
    9.1610   -0.3440    8.9900 Br  0  0  0  0  0  0  0  0  0  0  0  0
   11.7640   -0.4260    7.7890 C   0  0  0  0  0  3  0  0  0  0  0  0
   13.0630   -0.0570    7.5820 C   0  0  0  0  0  3  0  0  0  0  0  0
   13.6110    0.9540    8.3610 C   0  0  0  0  0  3  0  0  0  0  0  0
  1 15  1  1  0  0  0
  1  2  1  0  0  0  0
  2  3  1  0  0  0  0
  3 13  1  0  0  0  0
  4  5  1  1  0  0  0
  4  6  1  0  0  0  0
  4  3  1  0  0  0  0
  5  1  1  0  0  0  0
  6  8  1  0  0  0  0
  7  6  2  0  0  0  0
  8 12  1  0  0  0  0
  8  9  1  0  0  0  0
  9 10  1  6  0  0  0
 11 10  1  0  0  0  0
 12 11  1  0  0  0  0
 13  9  1  0  0  0  0
 13 14  2  0  0  0  0
 15 18  1  0  0  0  0
 16 15  1  0  0  0  0
 16 17  2  0  0  0  0
 19 20  1  0  0  0  0
 19 16  1  0  0  0  0
 21 22  1  0  0  0  0
 21 20  2  0  0  0  0
 23 21  1  0  0  0  0
 24 23  2  0  0  0  0
 24 25  1  0  0  0  0
 25 19  2  0  0  0  0
M  END
>  <Pose>
1

>  <Score>
-8.884

$$$$
