/Users/jonathanwahrer/Desktop/Msc/3_Semester/Drug_Design_Praktikum/waehrer_HTS_screening/HTS_experiment/out/docking_results/vina_output/2jam/0138_docked.pdbqt
 OpenBabel03162217213D

 25 28  0  0  1  0  0  0  0  0999 V2000
   10.0890    5.1260   11.8180 C   0  0  2  0  0  3  0  0  0  0  0  0
    8.8130    5.4960   11.1390 C   0  0  0  0  0  2  0  0  0  0  0  0
    8.2790    6.5630   12.0040 N   0  0  0  0  0  0  0  0  0  0  0  0
    9.3240    7.0060   12.9160 C   0  0  1  0  0  3  0  0  0  0  0  0
   10.5820    6.5080   12.2740 C   0  0  0  0  0  2  0  0  0  0  0  0
    9.2380    8.4600   13.0270 C   0  0  0  0  0  0  0  0  0  0  0  0
   10.2550    9.1530   13.1440 O   0  0  0  0  0  0  0  0  0  0  0  0
    7.9530    9.0980   12.9980 N   0  0  0  0  0  0  0  0  0  0  0  0
    6.8090    8.2270   13.1220 C   0  0  1  0  0  3  0  0  0  0  0  0
    5.5600    8.9950   12.9780 C   0  0  0  0  0  2  0  0  0  0  0  0
    6.0280   10.4200   13.1980 C   0  0  0  0  0  2  0  0  0  0  0  0
    7.4840   10.4430   12.8740 C   0  0  0  0  0  2  0  0  0  0  0  0
    6.9930    7.1720   12.0650 C   0  0  0  0  0  0  0  0  0  0  0  0
    6.0670    6.8500   11.2870 O   0  0  0  0  0  0  0  0  0  0  0  0
   11.0320    4.4480   11.0090 N   0  0  0  0  0  0  0  0  0  0  0  0
   11.6540    3.2690   11.4760 C   0  0  0  0  0  0  0  0  0  0  0  0
   11.3570    2.8210   12.6380 O   0  0  0  0  0  0  0  0  0  0  0  0
   11.2750    4.8070   10.0690 H   0  0  0  0  0  0  0  0  0  0  0  0
   12.6330    2.4890   10.7380 C   0  0  0  0  0  0  0  0  0  0  0  0
   12.2880    1.5850    9.7650 C   0  0  0  0  0  3  0  0  0  0  0  0
   13.2000    0.8420    9.0610 C   0  0  0  0  0  0  0  0  0  0  0  0
   12.6840   -0.4020    7.7200 Br  0  0  0  0  0  0  0  0  0  0  0  0
   14.5430    0.9950    9.3300 C   0  0  0  0  0  3  0  0  0  0  0  0
   14.9400    1.8970   10.3040 C   0  0  0  0  0  3  0  0  0  0  0  0
   13.9730    2.6370   11.0010 C   0  0  0  0  0  3  0  0  0  0  0  0
  1 15  1  6  0  0  0
  1  5  1  0  0  0  0
  2  1  1  0  0  0  0
  2  3  1  0  0  0  0
  3 13  1  0  0  0  0
  3  4  1  0  0  0  0
  4  5  1  6  0  0  0
  4  6  1  0  0  0  0
  6  7  2  0  0  0  0
  8  6  1  0  0  0  0
  8  9  1  0  0  0  0
  9 10  1  6  0  0  0
 10 11  1  0  0  0  0
 12  8  1  0  0  0  0
 12 11  1  0  0  0  0
 13  9  1  0  0  0  0
 14 13  2  0  0  0  0
 15 16  1  0  0  0  0
 16 17  2  0  0  0  0
 18 15  1  0  0  0  0
 19 25  1  0  0  0  0
 19 16  1  0  0  0  0
 20 19  2  0  0  0  0
 21 23  2  0  0  0  0
 21 20  1  0  0  0  0
 22 21  1  0  0  0  0
 23 24  1  0  0  0  0
 24 25  2  0  0  0  0
M  END
>  <Pose>
1

>  <Score>
-8.846

$$$$
