/Users/jonathanwahrer/Desktop/Msc/3_Semester/Drug_Design_Praktikum/waehrer_HTS_screening/HTS_experiment/out/docking_results/vina_output/2jam/0141_docked.pdbqt
 OpenBabel03162217213D

 23 26  0  0  1  0  0  0  0  0999 V2000
   11.0350    5.2480   10.5320 N   0  0  0  0  0  0  0  0  0  0  0  0
   12.0820    5.9740   11.2040 C   0  0  0  0  0  0  0  0  0  0  0  0
   13.3250    5.7070   11.2310 O   0  0  0  0  0  0  0  0  0  0  0  0
   11.4880    7.1110   11.8800 C   0  0  1  0  0  3  0  0  0  0  0  0
   10.1140    7.3370   11.2180 C   0  0  2  0  0  3  0  0  0  0  0  0
    9.1800    7.6910   12.3300 C   0  0  2  0  0  3  0  0  0  0  0  0
   10.1580    8.1090   13.4460 C   0  0  0  0  0  2  0  0  0  0  0  0
   11.0070    6.8290   13.2960 C   0  0  1  0  0  3  0  0  0  0  0  0
    9.9090    5.8210   13.2870 C   0  0  0  0  0  2  0  0  0  0  0  0
    8.7420    6.3910   12.9570 C   0  0  0  0  0  2  0  0  0  0  0  0
    9.8280    5.9120   10.7880 C   0  0  0  0  0  0  0  0  0  0  0  0
    8.6770    5.4300   10.6870 O   0  0  0  0  0  0  0  0  0  0  0  0
   11.3190    4.0860    9.7870 N   0  0  0  0  0  0  0  0  0  0  0  0
   11.3940    2.7810   10.3040 C   0  0  0  0  0  0  0  0  0  0  0  0
   11.2030    2.5560   11.5120 O   0  0  0  0  0  0  0  0  0  0  0  0
   11.5010    4.1700    8.7370 H   0  0  0  0  0  0  0  0  0  0  0  0
   11.6980    1.6480    9.4520 C   0  0  0  0  0  0  0  0  0  0  0  0
   10.6900    0.7300    9.1680 C   0  0  0  0  0  3  0  0  0  0  0  0
   10.9320   -0.3550    8.3620 C   0  0  0  0  0  0  0  0  0  0  0  0
    9.5110   -1.5730    8.0190 Br  0  0  0  0  0  0  0  0  0  0  0  0
   12.1880   -0.5680    7.8060 C   0  0  0  0  0  3  0  0  0  0  0  0
   13.1650    0.3510    8.1010 C   0  0  0  0  0  3  0  0  0  0  0  0
   12.9280    1.4410    8.9090 C   0  0  0  0  0  3  0  0  0  0  0  0
  1 11  1  0  0  0  0
  1  2  1  0  0  0  0
  2  3  2  0  0  0  0
  4  2  1  6  0  0  0
  4  8  1  0  0  0  0
  5 11  1  1  0  0  0
  5  4  1  0  0  0  0
  5  6  1  0  0  0  0
  6 10  1  1  0  0  0
  6  7  1  0  0  0  0
  8  9  1  6  0  0  0
  8  7  1  0  0  0  0
 10  9  1  0  0  0  0
 12 11  2  0  0  0  0
 13 14  1  0  0  0  0
 13  1  1  0  0  0  0
 14 15  2  0  0  0  0
 16 13  1  0  0  0  0
 17 14  1  0  0  0  0
 18 17  1  0  0  0  0
 19 18  2  0  0  0  0
 20 19  1  0  0  0  0
 21 22  2  0  0  0  0
 21 19  1  0  0  0  0
 22 23  1  0  0  0  0
 23 17  2  0  0  0  0
M  END
>  <Pose>
1

>  <Score>
-8.546

$$$$
