/Users/jonathanwahrer/Desktop/Msc/3_Semester/Drug_Design_Praktikum/waehrer_HTS_screening/HTS_experiment/out/docking_results/vina_output/2jam/0152_docked.pdbqt
 OpenBabel03162217213D

 27 30  0  0  0  0  0  0  0  0999 V2000
   12.9830    0.2130    8.7270 C   0  0  0  0  0  3  0  0  0  0  0  0
   13.6450    1.1550    9.4080 C   0  0  0  0  0  0  0  0  0  0  0  0
   13.1500    1.9220   10.3790 O   0  0  0  0  0  0  0  0  0  0  0  0
   14.1630    2.7790   10.8800 C   0  0  0  0  0  0  0  0  0  0  0  0
   15.3350    2.5720   10.2350 C   0  0  0  0  0  0  0  0  0  0  0  0
   16.4530    3.2850   10.6630 C   0  0  0  0  0  3  0  0  0  0  0  0
   16.3540    4.1780   11.6830 C   0  0  0  0  0  3  0  0  0  0  0  0
   15.1370    4.3900   12.3000 C   0  0  0  0  0  0  0  0  0  0  0  0
   13.9950    3.7180   11.9350 C   0  0  0  0  0  0  0  0  0  0  0  0
   15.0830    5.3250   13.3360 O   0  0  0  0  0  1  0  0  0  0  0  0
   15.0590    1.5130    9.2360 C   0  0  0  0  0  0  0  0  0  0  0  0
   15.8640    1.0320    8.4160 O   0  0  0  0  0  0  0  0  0  0  0  0
   11.5550   -0.0660    9.0410 C   0  0  0  0  0  0  0  0  0  0  0  0
   10.8480   -0.9770    8.2430 C   0  0  0  0  0  3  0  0  0  0  0  0
    9.4470   -1.0200    8.2400 C   0  0  0  0  0  0  0  0  0  0  0  0
    8.5980   -2.2860    7.0920 Br  0  0  0  0  0  0  0  0  0  0  0  0
    8.7300   -0.1840    9.0160 C   0  0  0  0  0  3  0  0  0  0  0  0
    9.4060    0.7510    9.8430 C   0  0  0  0  0  3  0  0  0  0  0  0
   10.8180    0.7730    9.8270 C   0  0  0  0  0  3  0  0  0  0  0  0
   12.6170    4.1240   12.1280 C   0  0  0  0  0  2  0  0  0  0  0  0
   11.7420    5.0940   11.7980 N   0  0  0  0  0  4  0  0  0  0  0  0
   11.9230    6.1180   10.8650 C   0  0  0  0  0  2  0  0  0  0  0  0
   11.3420    5.8030    9.4690 C   0  0  0  0  0  2  0  0  0  0  0  0
    9.9730    5.6920    9.4590 O   0  0  0  0  0  0  0  0  0  0  0  0
    9.5480    5.0340   10.6190 C   0  0  0  0  0  2  0  0  0  0  0  0
   10.5750    4.2360   11.2300 C   0  0  0  0  0  2  0  0  0  0  0  0
   11.3060    5.5130   12.7040 H   0  0  0  0  0  0  0  0  0  0  0  0
  1 13  1  0  0  0  0
  1  2  2  0  0  0  0
  2  3  1  0  0  0  0
  3  4  1  0  0  0  0
  4  9  1  0  0  0  0
  5  6  1  0  0  0  0
  5  4  2  0  0  0  0
  6  7  2  0  0  0  0
  7  8  1  0  0  0  0
  8 10  1  0  0  0  0
  9 20  1  0  0  0  0
  9  8  2  0  0  0  0
 11  2  1  0  0  0  0
 11  5  1  0  0  0  0
 12 11  2  0  0  0  0
 13 19  1  0  0  0  0
 14 13  2  0  0  0  0
 15 14  1  0  0  0  0
 15 17  2  0  0  0  0
 16 15  1  0  0  0  0
 17 18  1  0  0  0  0
 19 18  2  0  0  0  0
 21 20  1  0  0  0  0
 21 27  1  0  0  0  0
 22 21  1  0  0  0  0
 23 22  1  0  0  0  0
 24 23  1  0  0  0  0
 24 25  1  0  0  0  0
 25 26  1  0  0  0  0
 26 21  1  0  0  0  0
M  END
>  <Pose>
1

>  <Score>
-9.519

$$$$
