/Users/jonathanwahrer/Desktop/Msc/3_Semester/Drug_Design_Praktikum/waehrer_HTS_screening/HTS_experiment/out/docking_results/vina_output/2jam/0156_docked.pdbqt
 OpenBabel03162217213D

 29 32  0  0  0  0  0  0  0  0999 V2000
   10.0830    6.8050   11.0940 C   0  0  0  0  0  0  0  0  0  0  0  0
    8.7580    6.9770   11.1350 N   0  0  0  0  0  4  0  0  0  0  0  0
    8.0890    7.3260   12.2690 C   0  0  0  0  0  0  0  0  0  0  0  0
    8.8540    7.4900   13.3700 N   0  0  0  0  0  0  0  0  0  0  0  0
   10.1880    7.3320   13.3920 C   0  0  0  0  0  0  0  0  0  0  0  0
   10.7730    6.9850   12.2190 N   0  0  0  0  0  2  0  0  0  0  0  0
   10.7190    6.4420    9.8740 N   0  0  0  0  0  0  0  0  0  0  0  0
   10.8200    7.1360    9.1050 H   0  0  0  0  0  0  0  0  0  0  0  0
   11.2230    5.1540    9.6700 N   0  0  0  0  0  0  0  0  0  0  0  0
   10.6980    4.0860   10.1250 C   0  0  0  0  0  3  0  0  0  0  0  0
   11.2470    2.7550    9.8970 C   0  0  0  0  0  0  0  0  0  0  0  0
   10.4540    1.6900    9.5080 C   0  0  0  0  0  3  0  0  0  0  0  0
   10.9410    0.4250    9.2860 C   0  0  0  0  0  0  0  0  0  0  0  0
    9.7880   -1.0060    8.7460 Br  0  0  0  0  0  0  0  0  0  0  0  0
   12.2910    0.1950    9.4590 C   0  0  0  0  0  3  0  0  0  0  0  0
   13.1220    1.2240    9.8470 C   0  0  0  0  0  3  0  0  0  0  0  0
   12.5900    2.4930   10.0620 C   0  0  0  0  0  3  0  0  0  0  0  0
    6.6880    7.5010   12.2880 N   0  0  0  0  0  0  0  0  0  0  0  0
    6.0400    8.1180   13.4120 C   0  0  0  0  0  2  0  0  0  0  0  0
    5.2040    9.2690   12.8640 C   0  0  0  0  0  2  0  0  0  0  0  0
    4.2910    8.7010   11.9780 O   0  0  0  0  0  0  0  0  0  0  0  0
    4.9030    8.1970   10.8450 C   0  0  0  0  0  2  0  0  0  0  0  0
    5.8720    7.0690   11.1860 C   0  0  0  0  0  2  0  0  0  0  0  0
   10.9610    7.5090   14.5520 N   0  0  0  0  0  0  0  0  0  0  0  0
   12.3400    7.9150   14.4970 C   0  0  0  0  0  2  0  0  0  0  0  0
   12.5440    8.8640   15.6860 C   0  0  0  0  0  2  0  0  0  0  0  0
   11.3420    9.4800   16.0240 O   0  0  0  0  0  0  0  0  0  0  0  0
   10.4120    8.6330   16.5740 C   0  0  0  0  0  2  0  0  0  0  0  0
   10.3800    7.2830   15.8450 C   0  0  0  0  0  2  0  0  0  0  0  0
  1  2  2  0  0  0  0
  1  6  1  0  0  0  0
  2  3  2  0  0  0  0
  3 18  1  0  0  0  0
  3  4  1  0  0  0  0
  4  5  2  0  0  0  0
  5 24  1  0  0  0  0
  6  5  1  0  0  0  0
  7  1  1  0  0  0  0
  8  7  1  0  0  0  0
  9  7  1  0  0  0  0
  9 10  2  0  0  0  0
 11 17  1  0  0  0  0
 11 10  1  0  0  0  0
 12 11  2  0  0  0  0
 13 15  2  0  0  0  0
 13 12  1  0  0  0  0
 14 13  1  0  0  0  0
 15 16  1  0  0  0  0
 16 17  2  0  0  0  0
 18 19  1  0  0  0  0
 20 19  1  0  0  0  0
 21 20  1  0  0  0  0
 22 23  1  0  0  0  0
 22 21  1  0  0  0  0
 23 18  1  0  0  0  0
 24 29  1  0  0  0  0
 25 24  1  0  0  0  0
 25 26  1  0  0  0  0
 26 27  1  0  0  0  0
 27 28  1  0  0  0  0
 29 28  1  0  0  0  0
M  END
>  <Pose>
1

>  <Score>
-8.477

$$$$
