/Users/jonathanwahrer/Desktop/Msc/3_Semester/Drug_Design_Praktikum/waehrer_HTS_screening/HTS_experiment/out/docking_results/vina_output/2jam/0175_docked.pdbqt
 OpenBabel03162217233D

 32 35  0  0  1  0  0  0  0  0999 V2000
   11.9100    4.9220   12.3360 C   0  0  2  0  0  3  0  0  0  0  0  0
   11.8610    3.7570   11.5040 N   0  0  0  0  0  0  0  0  0  0  0  0
   11.0860    4.1100   10.3680 C   0  0  0  0  0  0  0  0  0  0  0  0
   11.0790    3.5060    9.2670 O   0  0  0  0  0  0  0  0  0  0  0  0
   10.2770    5.3110   10.6840 C   0  0  0  0  0  0  0  0  0  0  0  0
    9.4790    5.9080    9.9420 O   0  0  0  0  0  0  0  0  0  0  0  0
   10.6180    5.6450   12.0540 C   0  0  0  0  0  0  0  0  0  0  0  0
    9.9310    6.3770   12.9030 C   0  0  0  0  0  0  0  0  0  0  0  0
   10.3820    6.5310   14.1970 O   0  0  0  0  0  1  0  0  0  0  0  0
   12.4810    2.4380   11.7410 C   0  0  0  0  0  2  0  0  0  0  0  0
   13.7110    2.3620   10.8810 C   0  0  0  0  0  2  0  0  0  0  0  0
   13.9750    1.0900   10.3120 N   0  0  0  0  0  4  0  0  0  0  0  0
   12.8610    0.4340    9.6920 C   0  0  0  0  0  2  0  0  0  0  0  0
   12.7100    0.7230    8.2240 C   0  0  0  0  0  2  0  0  0  0  0  0
   13.9020    0.7330    7.5340 O   0  0  0  0  0  0  0  0  0  0  0  0
   14.8050    1.6250    8.0630 C   0  0  0  0  0  2  0  0  0  0  0  0
   15.1340    1.1740    9.4610 C   0  0  0  0  0  2  0  0  0  0  0  0
   14.2820    0.4610   11.1130 H   0  0  0  0  0  0  0  0  0  0  0  0
   13.0690    5.8060   12.0270 C   0  0  0  0  0  0  0  0  0  0  0  0
   14.3660    5.4630   12.3490 C   0  0  0  0  0  3  0  0  0  0  0  0
   15.4500    6.2860   12.0630 C   0  0  0  0  0  0  0  0  0  0  0  0
   17.2300    5.7720   12.5260 Br  0  0  0  0  0  0  0  0  0  0  0  0
   15.2260    7.4740   11.4400 C   0  0  0  0  0  3  0  0  0  0  0  0
   13.9540    7.8580   11.1000 C   0  0  0  0  0  3  0  0  0  0  0  0
   12.8930    7.0280   11.3930 C   0  0  0  0  0  3  0  0  0  0  0  0
    8.7100    7.0370   12.5190 C   0  0  0  0  0  0  0  0  0  0  0  0
    8.5880    8.3140   12.0520 C   0  0  0  0  0  3  0  0  0  0  0  0
    7.3510    8.8080   11.6810 C   0  0  0  0  0  3  0  0  0  0  0  0
    6.1880    8.0760   11.7510 C   0  0  0  0  0  0  0  0  0  0  0  0
    6.3130    6.7860   12.2230 C   0  0  0  0  0  3  0  0  0  0  0  0
    4.8670    8.6320   11.3440 C   0  0  0  0  0  1  0  0  0  0  0  0
    7.5320    6.2770   12.5980 C   0  0  0  0  0  3  0  0  0  0  0  0
  1 19  1  6  0  0  0
  2 10  1  0  0  0  0
  2  1  1  0  0  0  0
  3  5  1  0  0  0  0
  3  2  1  0  0  0  0
  4  3  2  0  0  0  0
  5  7  1  0  0  0  0
  6  5  2  0  0  0  0
  7  1  1  0  0  0  0
  7  8  2  0  0  0  0
  8  9  1  0  0  0  0
 11 10  1  0  0  0  0
 12 11  1  0  0  0  0
 12 18  1  0  0  0  0
 13 12  1  0  0  0  0
 14 13  1  0  0  0  0
 15 16  1  0  0  0  0
 15 14  1  0  0  0  0
 16 17  1  0  0  0  0
 17 12  1  0  0  0  0
 19 20  1  0  0  0  0
 21 20  2  0  0  0  0
 21 22  1  0  0  0  0
 23 21  1  0  0  0  0
 24 25  1  0  0  0  0
 24 23  2  0  0  0  0
 25 19  2  0  0  0  0
 26 32  1  0  0  0  0
 26  8  1  0  0  0  0
 27 26  2  0  0  0  0
 28 29  2  0  0  0  0
 28 27  1  0  0  0  0
 29 30  1  0  0  0  0
 30 32  2  0  0  0  0
 31 29  1  0  0  0  0
M  END
>  <Pose>
1

>  <Score>
-8.943

$$$$
