/Users/jonathanwahrer/Desktop/Msc/3_Semester/Drug_Design_Praktikum/waehrer_HTS_screening/HTS_experiment/out/docking_results/vina_output/2jam/0176_docked.pdbqt
 OpenBabel03162217233D

 33 36  0  0  1  0  0  0  0  0999 V2000
   11.6180    4.7360   12.3790 C   0  0  1  0  0  3  0  0  0  0  0  0
   10.3630    5.4670   12.4210 N   0  0  0  0  0  0  0  0  0  0  0  0
    9.7880    5.3900   11.1000 C   0  0  0  0  0  0  0  0  0  0  0  0
    8.8940    6.1560   10.6630 O   0  0  0  0  0  0  0  0  0  0  0  0
   10.4360    4.2890   10.4200 C   0  0  0  0  0  0  0  0  0  0  0  0
   10.2370    3.8700    9.2370 O   0  0  0  0  0  0  0  0  0  0  0  0
   11.3990    3.7070   11.3450 C   0  0  0  0  0  0  0  0  0  0  0  0
   11.9620    2.5150   11.2170 C   0  0  0  0  0  0  0  0  0  0  0  0
   12.9050    2.2120   12.2220 O   0  0  0  0  0  1  0  0  0  0  0  0
    9.8660    6.2060   13.5370 C   0  0  0  0  0  2  0  0  0  0  0  0
    9.8480    7.6780   13.4790 C   0  0  0  0  0  2  0  0  0  0  0  0
    8.5580    8.4080   13.4350 C   0  0  0  0  0  2  0  0  0  0  0  0
    7.4970    7.8580   12.6590 N   0  0  0  0  0  4  0  0  0  0  0  0
    6.4070    7.4400   13.5030 C   0  0  0  0  0  2  0  0  0  0  0  0
    5.3470    8.5060   13.6840 C   0  0  0  0  0  2  0  0  0  0  0  0
    4.7140    8.7650   12.4660 O   0  0  0  0  0  0  0  0  0  0  0  0
    5.5500    8.4490   11.3940 C   0  0  0  0  0  2  0  0  0  0  0  0
    6.9330    8.9120   11.7600 C   0  0  0  0  0  2  0  0  0  0  0  0
    7.8080    7.1420   12.0080 H   0  0  0  0  0  0  0  0  0  0  0  0
   12.7470    5.6480   12.0640 C   0  0  0  0  0  0  0  0  0  0  0  0
   14.0240    5.3350   12.4700 C   0  0  0  0  0  3  0  0  0  0  0  0
   15.1100    6.1560   12.2010 C   0  0  0  0  0  0  0  0  0  0  0  0
   16.8780    5.7320   12.7520 Br  0  0  0  0  0  0  0  0  0  0  0  0
   14.9260    7.3320   11.5040 C   0  0  0  0  0  3  0  0  0  0  0  0
   13.6500    7.6470   11.0980 C   0  0  0  0  0  3  0  0  0  0  0  0
   12.5610    6.8090   11.3740 C   0  0  0  0  0  3  0  0  0  0  0  0
   11.6660    1.5650   10.1570 C   0  0  0  0  0  0  0  0  0  0  0  0
   12.5460    1.1590    9.1820 C   0  0  0  0  0  3  0  0  0  0  0  0
   12.2170    0.2270    8.2190 C   0  0  0  0  0  3  0  0  0  0  0  0
   10.9650   -0.3450    8.1960 C   0  0  0  0  0  0  0  0  0  0  0  0
   10.0680    0.0510    9.1680 C   0  0  0  0  0  3  0  0  0  0  0  0
   10.5210   -1.5410    6.9750 Cl  0  0  0  0  0  0  0  0  0  0  0  0
   10.4060    0.9850   10.1270 C   0  0  0  0  0  3  0  0  0  0  0  0
  1 20  1  6  0  0  0
  1  2  1  0  0  0  0
  2 10  1  0  0  0  0
  3  2  1  0  0  0  0
  4  3  2  0  0  0  0
  5  3  1  0  0  0  0
  5  7  1  0  0  0  0
  6  5  2  0  0  0  0
  7  1  1  0  0  0  0
  8  7  2  0  0  0  0
  8  9  1  0  0  0  0
 11 10  1  0  0  0  0
 12 11  1  0  0  0  0
 13 12  1  0  0  0  0
 13 14  1  0  0  0  0
 14 15  1  0  0  0  0
 16 15  1  0  0  0  0
 17 18  1  0  0  0  0
 17 16  1  0  0  0  0
 18 13  1  0  0  0  0
 19 13  1  0  0  0  0
 20 21  1  0  0  0  0
 22 21  2  0  0  0  0
 22 23  1  0  0  0  0
 24 22  1  0  0  0  0
 25 26  1  0  0  0  0
 25 24  2  0  0  0  0
 26 20  2  0  0  0  0
 27  8  1  0  0  0  0
 28 27  2  0  0  0  0
 29 28  1  0  0  0  0
 30 29  2  0  0  0  0
 30 31  1  0  0  0  0
 31 33  2  0  0  0  0
 32 30  1  0  0  0  0
 33 27  1  0  0  0  0
M  END
>  <Pose>
1

>  <Score>
-9.114

$$$$
