/Users/jonathanwahrer/Desktop/Msc/3_Semester/Drug_Design_Praktikum/waehrer_HTS_screening/HTS_experiment/out/docking_results/vina_output/2jam/0182_docked.pdbqt
 OpenBabel03162217243D

 36 40  0  0  1  0  0  0  0  0999 V2000
   12.8450    6.9810   11.3010 C   0  0  2  0  0  3  0  0  0  0  0  0
   11.5860    7.4140   11.7980 N   0  0  0  0  0  0  0  0  0  0  0  0
   10.6320    6.8470   10.8400 C   0  0  0  0  0  0  0  0  0  0  0  0
    9.5120    7.3050   10.5610 O   0  0  0  0  0  0  0  0  0  0  0  0
   11.2710    5.6400   10.2890 C   0  0  0  0  0  0  0  0  0  0  0  0
   10.8140    4.8410    9.4410 O   0  0  0  0  0  0  0  0  0  0  0  0
   12.5730    5.5570   10.9470 C   0  0  0  0  0  0  0  0  0  0  0  0
   13.2660    4.4730   11.1840 C   0  0  0  0  0  0  0  0  0  0  0  0
   14.4760    4.6270   11.8950 O   0  0  0  0  0  1  0  0  0  0  0  0
   14.0540    7.2510   12.0200 C   0  0  0  0  0  0  0  0  0  0  0  0
   15.1930    7.6870   11.3140 C   0  0  0  0  0  3  0  0  0  0  0  0
   16.3930    7.9570   11.9180 C   0  0  0  0  0  0  0  0  0  0  0  0
   17.9000    8.5470   10.8930 Br  0  0  0  0  0  0  0  0  0  0  0  0
   16.5510    7.8130   13.2700 C   0  0  0  0  0  3  0  0  0  0  0  0
   15.4660    7.3890   14.0030 C   0  0  0  0  0  3  0  0  0  0  0  0
   14.2690    7.1230   13.3740 C   0  0  0  0  0  3  0  0  0  0  0  0
   12.8470    3.1510   10.7440 C   0  0  0  0  0  0  0  0  0  0  0  0
   13.2420    2.3830    9.7190 N   0  0  0  0  0  0  0  0  0  0  0  0
   12.5250    1.2550    9.6990 C   0  0  0  0  0  0  0  0  0  0  0  0
   14.2250    2.6370    8.8110 C   0  0  0  0  0  3  0  0  0  0  0  0
   11.6550    1.3130   10.7420 N   0  0  0  0  0  0  0  0  0  0  0  0
   12.7400    0.2670    8.7410 C   0  0  0  0  0  0  0  0  0  0  0  0
   11.8210    2.4610   11.4100 C   0  0  0  0  0  0  0  0  0  0  0  0
   11.0700    2.9170   12.6140 C   0  0  0  0  0  1  0  0  0  0  0  0
   13.7310    0.5000    7.8080 C   0  0  0  0  0  3  0  0  0  0  0  0
   11.9120   -0.9640    8.7670 C   0  0  0  0  0  1  0  0  0  0  0  0
   14.4560    1.6760    7.8570 C   0  0  0  0  0  3  0  0  0  0  0  0
   11.1590    8.2480   12.9070 C   0  0  0  0  0  2  0  0  0  0  0  0
   10.5100    7.5230   14.0350 C   0  0  0  0  0  2  0  0  0  0  0  0
    9.1500    7.9600   14.2810 N   0  0  0  0  0  4  0  0  0  0  0  0
    8.1890    7.0710   13.6660 C   0  0  0  0  0  2  0  0  0  0  0  0
    8.1310    5.7560   14.4490 C   0  0  0  0  0  2  0  0  0  0  0  0
    7.6150    6.0860   15.7070 O   0  0  0  0  0  0  0  0  0  0  0  0
    8.6390    6.8000   16.3620 C   0  0  0  0  0  2  0  0  0  0  0  0
    8.8940    8.1320   15.6970 C   0  0  0  0  0  2  0  0  0  0  0  0
    9.0100    8.9000   13.8370 H   0  0  0  0  0  0  0  0  0  0  0  0
  1  2  1  0  0  0  0
  1 10  1  1  0  0  0
  2 28  1  0  0  0  0
  3  2  1  0  0  0  0
  4  3  2  0  0  0  0
  5  3  1  0  0  0  0
  5  7  1  0  0  0  0
  6  5  2  0  0  0  0
  7  8  2  0  0  0  0
  7  1  1  0  0  0  0
  8  9  1  0  0  0  0
 10 16  1  0  0  0  0
 11 12  1  0  0  0  0
 11 10  2  0  0  0  0
 12 14  2  0  0  0  0
 13 12  1  0  0  0  0
 14 15  1  0  0  0  0
 16 15  2  0  0  0  0
 17  8  1  0  0  0  0
 17 23  2  0  0  0  0
 18 17  1  0  0  0  0
 19 18  1  0  0  0  0
 19 21  2  0  0  0  0
 20 18  1  0  0  0  0
 21 23  1  0  0  0  0
 22 26  1  0  0  0  0
 22 19  1  0  0  0  0
 23 24  1  0  0  0  0
 25 27  1  0  0  0  0
 25 22  2  0  0  0  0
 27 20  2  0  0  0  0
 28 29  1  0  0  0  0
 29 30  1  0  0  0  0
 30 35  1  0  0  0  0
 31 30  1  0  0  0  0
 31 32  1  0  0  0  0
 32 33  1  0  0  0  0
 33 34  1  0  0  0  0
 35 34  1  0  0  0  0
 36 30  1  0  0  0  0
M  END
>  <Pose>
1

>  <Score>
-9.202

$$$$
