/Users/jonathanwahrer/Desktop/Msc/3_Semester/Drug_Design_Praktikum/waehrer_HTS_screening/HTS_experiment/out/docking_results/vina_output/2jam/0184_docked.pdbqt
 OpenBabel03162217243D

 33 36  0  0  1  0  0  0  0  0999 V2000
    9.8030    6.9280   13.5510 C   0  0  2  0  0  3  0  0  0  0  0  0
   10.0500    6.6660   12.1460 N   0  0  0  0  0  0  0  0  0  0  0  0
    8.8000    6.1890   11.6300 C   0  0  0  0  0  0  0  0  0  0  0  0
    8.6170    5.4580   10.6410 O   0  0  0  0  0  0  0  0  0  0  0  0
    7.7530    6.7280   12.4900 C   0  0  0  0  0  0  0  0  0  0  0  0
    6.4950    6.5870   12.4410 O   0  0  0  0  0  0  0  0  0  0  0  0
    8.4300    7.5210   13.5050 C   0  0  0  0  0  0  0  0  0  0  0  0
    7.8900    8.4910   14.2160 C   0  0  0  0  0  0  0  0  0  0  0  0
    8.7170    9.0750   15.1860 O   0  0  0  0  0  1  0  0  0  0  0  0
   10.7620    7.8420   14.1840 C   0  0  0  0  0  0  0  0  0  0  0  0
   11.3400    7.6240   15.3900 C   0  0  0  0  0  3  0  0  0  0  0  0
   12.2370    8.5490   15.9250 C   0  0  0  0  0  0  0  0  0  0  0  0
   13.0270    8.2080   17.6180 Br  0  0  0  0  0  0  0  0  0  0  0  0
   12.5680    9.7150   15.2480 C   0  0  0  0  0  3  0  0  0  0  0  0
   11.9690    9.9160   14.0240 C   0  0  0  0  0  3  0  0  0  0  0  0
   11.0920    9.0150   13.4970 C   0  0  0  0  0  3  0  0  0  0  0  0
    6.5310    8.9880   14.0630 C   0  0  0  0  0  0  0  0  0  0  0  0
    5.4310    8.5780   14.7110 N   0  0  0  0  0  0  0  0  0  0  0  0
    4.3490    9.3060   14.3360 C   0  0  0  0  0  0  0  0  0  0  0  0
    5.2230    7.5860   15.6280 C   0  0  0  0  0  3  0  0  0  0  0  0
    4.8230   10.1940   13.4190 N   0  0  0  0  0  0  0  0  0  0  0  0
    3.0780    9.0820   14.8420 C   0  0  0  0  0  3  0  0  0  0  0  0
    6.1220   10.0380   13.2270 C   0  0  0  0  0  0  0  0  0  0  0  0
    7.0720   10.7510   12.3450 C   0  0  0  0  0  1  0  0  0  0  0  0
    2.8770    8.0800   15.7690 C   0  0  0  0  0  3  0  0  0  0  0  0
    3.9900    7.3380   16.1460 C   0  0  0  0  0  3  0  0  0  0  0  0
   11.2970    6.8260   11.3950 C   0  0  0  0  0  2  0  0  0  0  0  0
   12.2130    5.6630   11.5080 C   0  0  0  0  0  2  0  0  0  0  0  0
   12.0200    4.5230   10.5950 C   0  0  0  0  0  2  0  0  0  0  0  0
   11.0890    3.5300   11.0010 N   0  0  0  0  0  4  0  0  0  0  0  0
   11.5020    2.9450   12.2540 C   0  0  0  0  0  1  0  0  0  0  0  0
   11.0980    2.4260   10.0220 C   0  0  0  0  0  1  0  0  0  0  0  0
   10.0950    3.8460   11.0100 H   0  0  0  0  0  0  0  0  0  0  0  0
  1 10  1  6  0  0  0
  2  1  1  0  0  0  0
  3  2  1  0  0  0  0
  3  5  1  0  0  0  0
  4  3  2  0  0  0  0
  5  7  1  0  0  0  0
  6  5  2  0  0  0  0
  7  1  1  0  0  0  0
  7  8  2  0  0  0  0
  8  9  1  0  0  0  0
 10 11  1  0  0  0  0
 11 12  2  0  0  0  0
 12 13  1  0  0  0  0
 14 12  1  0  0  0  0
 15 14  2  0  0  0  0
 16 15  1  0  0  0  0
 16 10  2  0  0  0  0
 17  8  1  0  0  0  0
 17 18  1  0  0  0  0
 18 20  1  0  0  0  0
 19 18  1  0  0  0  0
 19 22  1  0  0  0  0
 20 26  2  0  0  0  0
 21 19  2  0  0  0  0
 22 25  2  0  0  0  0
 23 21  1  0  0  0  0
 23 17  2  0  0  0  0
 24 23  1  0  0  0  0
 25 26  1  0  0  0  0
 27 28  1  0  0  0  0
 27  2  1  0  0  0  0
 29 30  1  0  0  0  0
 29 28  1  0  0  0  0
 30 33  1  0  0  0  0
 30 31  1  0  0  0  0
 32 30  1  0  0  0  0
M  END
>  <Pose>
1

>  <Score>
-7.511

$$$$
