/Users/jonathanwahrer/Desktop/Msc/3_Semester/Drug_Design_Praktikum/waehrer_HTS_screening/HTS_experiment/out/docking_results/vina_output/2jam/0188_docked.pdbqt
 OpenBabel03162217253D

 31 34  0  0  1  0  0  0  0  0999 V2000
   11.0250    5.3850   12.4620 C   0  0  2  0  0  3  0  0  0  0  0  0
   10.5460    4.5760   11.3510 N   0  0  0  0  0  0  0  0  0  0  0  0
   10.1300    5.5660   10.3800 C   0  0  0  0  0  0  0  0  0  0  0  0
   10.0520    5.4080    9.1430 O   0  0  0  0  0  0  0  0  0  0  0  0
    9.8100    6.8030   11.0810 C   0  0  0  0  0  0  0  0  0  0  0  0
    9.4150    7.9170   10.6530 O   0  0  0  0  0  0  0  0  0  0  0  0
   10.0440    6.5300   12.4980 C   0  0  0  0  0  0  0  0  0  0  0  0
    9.5590    7.1280   13.5480 C   0  0  0  0  0  0  0  0  0  0  0  0
    9.9810    6.6830   14.8190 O   0  0  0  0  0  1  0  0  0  0  0  0
   10.4820    3.1500   11.1670 C   0  0  0  0  0  2  0  0  0  0  0  0
   11.8360    2.4870   11.0600 C   0  0  0  0  0  2  0  0  0  0  0  0
   11.9860    1.8760    9.7230 C   0  0  0  0  0  2  0  0  0  0  0  0
   13.0140    0.8650    9.6210 N   0  0  0  0  0  4  0  0  0  0  0  0
   13.2100    0.4100    8.2650 C   0  0  0  0  0  2  0  0  0  0  0  0
   14.3170    1.0800    7.5330 C   0  0  0  0  0  2  0  0  0  0  0  0
   15.4680    1.2960    8.2610 O   0  0  0  0  0  0  0  0  0  0  0  0
   15.2440    1.8970    9.4930 C   0  0  0  0  0  2  0  0  0  0  0  0
   14.2250    1.1480   10.3130 C   0  0  0  0  0  2  0  0  0  0  0  0
   12.5900    0.0200   10.1210 H   0  0  0  0  0  0  0  0  0  0  0  0
   12.3520    5.9950   12.1540 C   0  0  0  0  0  0  0  0  0  0  0  0
   13.4960    5.2290   12.1760 C   0  0  0  0  0  3  0  0  0  0  0  0
   14.7530    5.7450   11.8990 C   0  0  0  0  0  0  0  0  0  0  0  0
   16.3200    4.6390   11.9390 Br  0  0  0  0  0  0  0  0  0  0  0  0
   14.8830    7.0820   11.5850 C   0  0  0  0  0  3  0  0  0  0  0  0
   13.7470    7.8700   11.5570 C   0  0  0  0  0  3  0  0  0  0  0  0
   12.4880    7.3340   11.8390 C   0  0  0  0  0  3  0  0  0  0  0  0
    8.6100    8.2180   13.4090 C   0  0  0  0  0  0  0  0  0  0  0  0
    7.3370    8.0380   13.1780 O   0  0  0  0  0  0  0  0  0  0  0  0
    6.7060    9.1760   13.0920 C   0  0  0  0  0  3  0  0  0  0  0  0
    7.6100   10.1770   13.2780 C   0  0  0  0  0  3  0  0  0  0  0  0
    8.8510    9.5620   13.4820 C   0  0  0  0  0  3  0  0  0  0  0  0
  1 20  1  6  0  0  0
  1  7  1  0  0  0  0
  2  1  1  0  0  0  0
  3  5  1  0  0  0  0
  3  2  1  0  0  0  0
  4  3  2  0  0  0  0
  5  7  1  0  0  0  0
  6  5  2  0  0  0  0
  7  8  2  0  0  0  0
  8  9  1  0  0  0  0
 10  2  1  0  0  0  0
 11 10  1  0  0  0  0
 12 11  1  0  0  0  0
 13 12  1  0  0  0  0
 13 19  1  0  0  0  0
 13 18  1  0  0  0  0
 14 13  1  0  0  0  0
 15 16  1  0  0  0  0
 15 14  1  0  0  0  0
 16 17  1  0  0  0  0
 17 18  1  0  0  0  0
 20 21  1  0  0  0  0
 22 23  1  0  0  0  0
 22 21  2  0  0  0  0
 24 22  1  0  0  0  0
 25 24  2  0  0  0  0
 25 26  1  0  0  0  0
 26 20  2  0  0  0  0
 27 31  2  0  0  0  0
 27  8  1  0  0  0  0
 28 27  1  0  0  0  0
 29 28  1  0  0  0  0
 29 30  2  0  0  0  0
 30 31  1  0  0  0  0
M  END
>  <Pose>
1

>  <Score>
-8.571

$$$$
