/Users/jonathanwahrer/Desktop/Msc/3_Semester/Drug_Design_Praktikum/waehrer_HTS_screening/HTS_experiment/out/docking_results/vina_output/2jam/0191_docked.pdbqt
 OpenBabel03162217253D

 34 37  0  0  1  0  0  0  0  0999 V2000
   11.5490    5.6480   12.8320 C   0  0  2  0  0  3  0  0  0  0  0  0
   12.6620    6.5010   12.4690 N   0  0  0  0  0  0  0  0  0  0  0  0
   12.7490    6.4380   11.0290 C   0  0  0  0  0  0  0  0  0  0  0  0
   13.2860    7.3010   10.2940 O   0  0  0  0  0  0  0  0  0  0  0  0
   12.0960    5.1900   10.6230 C   0  0  0  0  0  0  0  0  0  0  0  0
   11.9400    4.7300    9.4630 O   0  0  0  0  0  0  0  0  0  0  0  0
   11.6250    4.5200   11.8300 C   0  0  0  0  0  0  0  0  0  0  0  0
   11.3290    3.2410   11.9830 C   0  0  0  0  0  0  0  0  0  0  0  0
   10.8780    2.7960   13.2000 O   0  0  0  0  0  1  0  0  0  0  0  0
   10.2320    6.3300   12.7550 C   0  0  0  0  0  0  0  0  0  0  0  0
   10.0680    7.6450   13.1940 C   0  0  0  0  0  3  0  0  0  0  0  0
    8.8760    8.3090   13.1450 C   0  0  0  0  0  0  0  0  0  0  0  0
    8.7460   10.1240   13.7740 Br  0  0  0  0  0  0  0  0  0  0  0  0
    7.7700    7.6860   12.6470 C   0  0  0  0  0  3  0  0  0  0  0  0
    7.8740    6.3990   12.2030 C   0  0  0  0  0  3  0  0  0  0  0  0
    9.0960    5.7320   12.2580 C   0  0  0  0  0  3  0  0  0  0  0  0
   11.4750    2.2810   10.8730 C   0  0  0  0  0  0  0  0  0  0  0  0
   12.6010    1.9440   10.3040 O   0  0  0  0  0  0  0  0  0  0  0  0
   12.4640    1.0830    9.3530 C   0  0  0  0  0  0  0  0  0  0  0  0
   11.1220    0.8040    9.2610 C   0  0  0  0  0  0  0  0  0  0  0  0
   13.4070    0.4900    8.5230 C   0  0  0  0  0  0  0  0  0  0  0  0
   10.4960    1.5650   10.2250 C   0  0  0  0  0  3  0  0  0  0  0  0
   10.7080   -0.0980    8.3060 C   0  0  0  0  0  3  0  0  0  0  0  0
   11.6010   -0.7170    7.4550 C   0  0  0  0  0  3  0  0  0  0  0  0
   12.9580   -0.4040    7.5850 C   0  0  0  0  0  3  0  0  0  0  0  0
   14.7470    0.7670    8.6190 O   0  0  0  0  0  0  0  0  0  0  0  0
   15.3580    2.0050    8.4420 C   0  0  0  0  0  1  0  0  0  0  0  0
   13.5140    7.2840   13.3310 C   0  0  0  0  0  2  0  0  0  0  0  0
   14.9540    6.8400   13.2390 C   0  0  0  0  0  2  0  0  0  0  0  0
   15.1840    5.3890   13.4600 C   0  0  0  0  0  2  0  0  0  0  0  0
   16.0040    4.7490   12.4800 N   0  0  0  0  0  4  0  0  0  0  0  0
   16.5620    5.7350   11.5490 C   0  0  0  0  0  1  0  0  0  0  0  0
   15.3090    3.7390   11.7450 C   0  0  0  0  0  1  0  0  0  0  0  0
   16.8600    4.2900   12.9070 H   0  0  0  0  0  0  0  0  0  0  0  0
  1 10  1  6  0  0  0
  2  1  1  0  0  0  0
  2 28  1  0  0  0  0
  3  2  1  0  0  0  0
  4  3  2  0  0  0  0
  5  3  1  0  0  0  0
  5  7  1  0  0  0  0
  6  5  2  0  0  0  0
  7  8  2  0  0  0  0
  7  1  1  0  0  0  0
  8  9  1  0  0  0  0
 10 11  1  0  0  0  0
 12 11  2  0  0  0  0
 12 13  1  0  0  0  0
 14 12  1  0  0  0  0
 15 16  1  0  0  0  0
 15 14  2  0  0  0  0
 16 10  2  0  0  0  0
 17  8  1  0  0  0  0
 18 17  1  0  0  0  0
 19 18  1  0  0  0  0
 20 19  1  0  0  0  0
 20 22  1  0  0  0  0
 21 26  1  0  0  0  0
 21 19  2  0  0  0  0
 22 17  2  0  0  0  0
 23 20  2  0  0  0  0
 24 25  2  0  0  0  0
 24 23  1  0  0  0  0
 25 21  1  0  0  0  0
 27 26  1  0  0  0  0
 29 28  1  0  0  0  0
 29 30  1  0  0  0  0
 31 34  1  0  0  0  0
 31 30  1  0  0  0  0
 32 31  1  0  0  0  0
 33 31  1  0  0  0  0
M  END
>  <Pose>
1

>  <Score>
-8.163

$$$$
