/Users/jonathanwahrer/Desktop/Msc/3_Semester/Drug_Design_Praktikum/waehrer_HTS_screening/HTS_experiment/out/docking_results/vina_output/2jam/0200_docked.pdbqt
 OpenBabel03162217253D

 21 24  0  0  1  0  0  0  0  0999 V2000
   11.7850    3.3600   10.9700 C   0  0  1  0  0  3  0  0  0  0  0  0
   10.5210    3.7280   10.7870 N   0  0  0  0  0  0  0  0  0  0  0  0
   10.0640    4.9900   10.8560 C   0  0  0  0  0  0  0  0  0  0  0  0
    8.8760    5.6040   10.7160 N   0  0  0  0  0  2  0  0  0  0  0  0
    8.9840    6.8830   10.8890 O   0  0  0  0  0  0  0  0  0  0  0  0
   10.2190    7.1370   11.1420 N   0  0  0  0  0  0  0  0  0  0  0  0
   10.9560    6.0140   11.1400 C   0  0  0  0  0  0  0  0  0  0  0  0
   12.2440    5.6910   11.3330 N   0  0  0  0  0  0  0  0  0  0  0  0
   13.2740    6.4850   11.6140 N   0  0  0  0  0  0  0  0  0  0  0  0
   14.3590    5.7020   11.7170 N   0  0  0  0  0  0  0  0  0  0  0  0
   13.9800    4.4420   11.4960 N   0  0  0  0  0  0  0  0  0  0  0  0
   12.6670    4.4200   11.2560 C   0  0  0  0  0  0  0  0  0  0  0  0
   12.3110    2.0480   10.9070 N   0  0  0  0  0  0  0  0  0  0  0  0
   12.8170    1.6470   11.7470 H   0  0  0  0  0  0  0  0  0  0  0  0
   12.2170    1.1980    9.7850 C   0  0  0  0  0  0  0  0  0  0  0  0
   11.1690    0.3780    9.4630 C   0  0  0  0  0  3  0  0  0  0  0  0
   11.1170   -0.4430    8.3490 C   0  0  0  0  0  0  0  0  0  0  0  0
    9.6070   -1.5500    7.9900 Br  0  0  0  0  0  0  0  0  0  0  0  0
   12.1850   -0.4520    7.4890 C   0  0  0  0  0  3  0  0  0  0  0  0
   13.2710    0.3510    7.7550 C   0  0  0  0  0  3  0  0  0  0  0  0
   13.2890    1.1520    8.8690 C   0  0  0  0  0  3  0  0  0  0  0  0
  1 13  1  1  0  0  0
  1 12  1  0  0  0  0
  2  3  2  0  0  0  0
  2  1  1  0  0  0  0
  3  7  1  0  0  0  0
  4  3  1  0  0  0  0
  4  5  1  0  0  0  0
  5  6  1  0  0  0  0
  7  6  2  0  0  0  0
  7  8  1  0  0  0  0
  8  9  1  0  0  0  0
  9 10  2  0  0  0  0
 11 10  1  0  0  0  0
 12  8  1  0  0  0  0
 12 11  2  0  0  0  0
 13 14  1  0  0  0  0
 15 13  1  0  0  0  0
 16 15  1  0  0  0  0
 17 16  2  0  0  0  0
 18 17  1  0  0  0  0
 19 20  2  0  0  0  0
 19 17  1  0  0  0  0
 20 21  1  0  0  0  0
 21 15  2  0  0  0  0
M  END
>  <Pose>
1

>  <Score>
-7.860

$$$$
