/Users/jonathanwahrer/Desktop/Msc/3_Semester/Drug_Design_Praktikum/waehrer_HTS_screening/HTS_experiment/out/docking_results/vina_output/2jam/0201_docked.pdbqt
 OpenBabel03162217253D

 25 28  0  0  0  0  0  0  0  0999 V2000
    9.5290    6.8800   11.6830 C   0  0  0  0  0  0  0  0  0  0  0  0
    9.6330    7.5530   10.6280 O   0  0  0  0  0  0  0  0  0  0  0  0
    8.8430    7.4370   12.7810 N   0  0  0  0  0  0  0  0  0  0  0  0
    8.7660    6.8620   13.6500 H   0  0  0  0  0  0  0  0  0  0  0  0
   10.1250    5.5500   11.7130 C   0  0  0  0  0  0  0  0  0  0  0  0
   10.5720    4.8630   12.7920 N   0  0  0  0  0  0  0  0  0  0  0  0
   11.0380    3.6960   12.3770 N   0  0  0  0  0  0  0  0  0  0  0  0
   10.9170    3.5870   11.0800 N   0  0  0  0  0  0  0  0  0  0  0  0
   10.3530    4.7230   10.6370 C   0  0  0  0  0  3  0  0  0  0  0  0
   11.2890    2.5010   10.2200 C   0  0  0  0  0  0  0  0  0  0  0  0
   12.5540    2.3560    9.7050 C   0  0  0  0  0  3  0  0  0  0  0  0
   12.8680    1.2780    8.8700 C   0  0  0  0  0  0  0  0  0  0  0  0
   14.6220    1.0740    8.1540 Br  0  0  0  0  0  0  0  0  0  0  0  0
   11.9150    0.3380    8.5440 C   0  0  0  0  0  3  0  0  0  0  0  0
   10.6450    0.4730    9.0550 C   0  0  0  0  0  3  0  0  0  0  0  0
   10.3440    1.5550    9.8890 C   0  0  0  0  0  3  0  0  0  0  0  0
    8.2390    8.7500   12.7880 C   0  0  0  0  0  2  0  0  0  0  0  0
    6.7870    8.6810   12.4000 C   0  0  0  0  0  0  0  0  0  0  0  0
    5.7000    8.8920   13.1800 N   0  0  0  0  0  0  0  0  0  0  0  0
    4.5910    8.7370   12.4500 C   0  0  0  0  0  0  0  0  0  0  0  0
    5.3830    9.2280   14.5570 C   0  0  0  0  0  2  0  0  0  0  0  0
    5.0080    8.4240   11.2000 N   0  0  0  0  0  0  0  0  0  0  0  0
    3.3560    8.9630   13.2860 C   0  0  0  0  0  2  0  0  0  0  0  0
    6.3260    8.3910   11.1700 N   0  0  0  0  0  0  0  0  0  0  0  0
    3.9260    8.8230   14.6810 C   0  0  0  0  0  2  0  0  0  0  0  0
  1  5  1  0  0  0  0
  1  3  1  0  0  0  0
  2  1  2  0  0  0  0
  3 17  1  0  0  0  0
  3  4  1  0  0  0  0
  5  6  1  0  0  0  0
  7  6  2  0  0  0  0
  8  7  1  0  0  0  0
  9  8  1  0  0  0  0
  9  5  2  0  0  0  0
 10  8  1  0  0  0  0
 11 10  2  0  0  0  0
 12 11  1  0  0  0  0
 13 12  1  0  0  0  0
 14 12  2  0  0  0  0
 14 15  1  0  0  0  0
 15 16  2  0  0  0  0
 16 10  1  0  0  0  0
 18 17  1  0  0  0  0
 18 19  1  0  0  0  0
 19 21  1  0  0  0  0
 20 19  1  0  0  0  0
 20 23  1  0  0  0  0
 21 25  1  0  0  0  0
 22 20  2  0  0  0  0
 23 25  1  0  0  0  0
 24 22  1  0  0  0  0
 24 18  2  0  0  0  0
M  END
>  <Pose>
1

>  <Score>
-8.759

$$$$
