/Users/jonathanwahrer/Desktop/Msc/3_Semester/Drug_Design_Praktikum/waehrer_HTS_screening/HTS_experiment/out/docking_results/vina_output/2jam/0205_docked.pdbqt
 OpenBabel03162217263D

 25 28  0  0  1  0  0  0  0  0999 V2000
   13.3560    2.3010    9.7630 N   0  0  0  0  0  0  0  0  0  0  0  0
   12.8110    3.5770   10.1550 C   0  0  0  0  0  0  0  0  0  0  0  0
   11.8560    4.1450    9.5530 O   0  0  0  0  0  0  0  0  0  0  0  0
   13.5350    4.0690   11.3250 C   0  0  2  0  0  3  0  0  0  0  0  0
   13.7570    5.4150   11.4260 O   0  0  0  0  0  0  0  0  0  0  0  0
   15.0020    5.4610   12.0490 N   0  0  0  0  0  0  0  0  0  0  0  0
   15.7990    4.4320   11.5120 C   0  0  0  0  0  0  0  0  0  0  0  0
   14.9200    3.5380   11.0380 C   0  0  0  0  0  0  0  0  0  0  0  0
   14.6800    2.2890   10.3250 C   0  0  0  0  0  0  0  0  0  0  0  0
   15.4990    1.3530   10.2170 O   0  0  0  0  0  0  0  0  0  0  0  0
   15.2880    6.1300   12.7750 H   0  0  0  0  0  0  0  0  0  0  0  0
   12.7650    1.2720    8.9960 C   0  0  0  0  0  0  0  0  0  0  0  0
   11.4550    0.8490    9.2120 C   0  0  0  0  0  3  0  0  0  0  0  0
   10.8430   -0.1440    8.4900 C   0  0  0  0  0  0  0  0  0  0  0  0
    9.0480   -0.6980    8.8170 Br  0  0  0  0  0  0  0  0  0  0  0  0
   11.5280   -0.7900    7.4810 C   0  0  0  0  0  3  0  0  0  0  0  0
   12.8380   -0.3810    7.2500 C   0  0  0  0  0  3  0  0  0  0  0  0
   13.4410    0.6150    7.9790 C   0  0  0  0  0  3  0  0  0  0  0  0
   17.2470    4.2990   11.5010 C   0  0  0  0  0  0  0  0  0  0  0  0
   18.1300    5.2680   11.0140 C   0  0  0  0  0  0  0  0  0  0  0  0
   19.3620    4.8310   11.1830 N   0  0  0  0  0  0  0  0  0  0  0  0
   17.7530    6.5570   10.3870 C   0  0  0  0  0  1  0  0  0  0  0  0
   19.3070    3.6290   11.7530 N   0  0  0  0  0  0  0  0  0  0  0  0
   20.5960    5.5220   10.8120 C   0  0  0  0  0  1  0  0  0  0  0  0
   18.0460    3.2870   11.9530 C   0  0  0  0  0  3  0  0  0  0  0  0
  1  2  1  0  0  0  0
  1  9  1  0  0  0  0
  3  2  2  0  0  0  0
  4  2  1  6  0  0  0
  4  5  1  0  0  0  0
  5  6  1  0  0  0  0
  6 11  1  0  0  0  0
  7  6  1  0  0  0  0
  8  4  1  0  0  0  0
  8  7  2  0  0  0  0
  9  8  1  0  0  0  0
 10  9  2  0  0  0  0
 12 13  1  0  0  0  0
 12  1  1  0  0  0  0
 14 15  1  0  0  0  0
 14 13  2  0  0  0  0
 16 14  1  0  0  0  0
 17 16  2  0  0  0  0
 17 18  1  0  0  0  0
 18 12  2  0  0  0  0
 19  7  1  0  0  0  0
 19 25  1  0  0  0  0
 20 21  1  0  0  0  0
 20 19  2  0  0  0  0
 21 23  1  0  0  0  0
 22 20  1  0  0  0  0
 23 25  2  0  0  0  0
 24 21  1  0  0  0  0
M  END
>  <Pose>
1

>  <Score>
-8.845

$$$$
