/Users/jonathanwahrer/Desktop/Msc/3_Semester/Drug_Design_Praktikum/waehrer_HTS_screening/HTS_experiment/out/docking_results/vina_output/2jam/0213_docked.pdbqt
 OpenBabel03162217263D

 25 28  0  0  1  0  0  0  0  0999 V2000
   10.7120    4.1700   10.7030 N   0  0  0  0  0  0  0  0  0  0  0  0
   10.2080    5.3300   10.0060 C   0  0  0  0  0  0  0  0  0  0  0  0
    9.6840    5.3810    8.8880 O   0  0  0  0  0  0  0  0  0  0  0  0
   10.4270    6.5130   10.8890 C   0  0  1  0  0  3  0  0  0  0  0  0
    9.4270    7.4660   10.8210 O   0  0  0  0  0  0  0  0  0  0  0  0
    9.4540    7.9840   12.0950 N   0  0  0  0  0  0  0  0  0  0  0  0
    9.5450    6.8290   12.9480 C   0  0  0  0  0  0  0  0  0  0  0  0
   10.1380    5.8960   12.2430 C   0  0  0  0  0  0  0  0  0  0  0  0
   10.6650    4.5340   12.1010 C   0  0  0  0  0  0  0  0  0  0  0  0
   11.0030    3.8460   13.0700 O   0  0  0  0  0  0  0  0  0  0  0  0
    9.4170    8.9630   12.3980 H   0  0  0  0  0  0  0  0  0  0  0  0
   11.1460    2.9650   10.1050 C   0  0  0  0  0  0  0  0  0  0  0  0
   12.4600    2.8140    9.7250 C   0  0  0  0  0  3  0  0  0  0  0  0
   12.9140    1.6350    9.1260 C   0  0  0  0  0  0  0  0  0  0  0  0
   14.7360    1.4550    8.6100 Br  0  0  0  0  0  0  0  0  0  0  0  0
   12.0620    0.5800    8.8950 C   0  0  0  0  0  3  0  0  0  0  0  0
   10.7450    0.7290    9.2740 C   0  0  0  0  0  3  0  0  0  0  0  0
   10.2940    1.9130    9.8740 C   0  0  0  0  0  3  0  0  0  0  0  0
    9.0840    6.6750   14.3010 C   0  0  0  0  0  0  0  0  0  0  0  0
    9.9030    6.9150   15.4030 C   0  0  0  0  0  3  0  0  0  0  0  0
    9.2060    6.7060   16.5340 N   0  0  0  0  0  0  0  0  0  0  0  0
    7.9930    6.3480   16.1480 N   0  0  0  0  0  0  0  0  0  0  0  0
    9.7050    6.8490   17.9120 C   0  0  0  0  0  1  0  0  0  0  0  0
    7.8640    6.3120   14.8240 C   0  0  0  0  0  0  0  0  0  0  0  0
    6.6450    5.9620   14.0190 C   0  0  0  0  0  1  0  0  0  0  0  0
  1  9  1  0  0  0  0
  2  1  1  0  0  0  0
  3  2  2  0  0  0  0
  4  2  1  6  0  0  0
  4  8  1  0  0  0  0
  5  4  1  0  0  0  0
  5  6  1  0  0  0  0
  6 11  1  0  0  0  0
  6  7  1  0  0  0  0
  7 19  1  0  0  0  0
  8  7  2  0  0  0  0
  9  8  1  0  0  0  0
  9 10  2  0  0  0  0
 12  1  1  0  0  0  0
 13 12  2  0  0  0  0
 14 13  1  0  0  0  0
 15 14  1  0  0  0  0
 16 14  2  0  0  0  0
 16 17  1  0  0  0  0
 17 18  2  0  0  0  0
 18 12  1  0  0  0  0
 19 24  1  0  0  0  0
 19 20  2  0  0  0  0
 20 21  1  0  0  0  0
 21 23  1  0  0  0  0
 22 21  1  0  0  0  0
 24 22  2  0  0  0  0
 25 24  1  0  0  0  0
M  END
>  <Pose>
1

>  <Score>
-8.540

$$$$
