/Users/jonathanwahrer/Desktop/Msc/3_Semester/Drug_Design_Praktikum/waehrer_HTS_screening/HTS_experiment/out/docking_results/vina_output/2jam/0216_docked.pdbqt
 OpenBabel03162217263D

 28 31  0  0  1  0  0  0  0  0999 V2000
   12.0910    6.9820   12.6680 C   0  0  0  0  0  0  0  0  0  0  0  0
   11.2910    6.9860   13.6360 O   0  0  0  0  0  0  0  0  0  0  0  0
   13.2820    7.7390   12.6840 N   0  0  0  0  0  0  0  0  0  0  0  0
   14.2330    7.7570   11.5810 C   0  0  0  0  0  2  0  0  0  0  0  0
   15.6210    8.0490   12.1350 C   0  0  0  0  0  2  0  0  0  0  0  0
   15.7790    7.6180   13.5100 N   0  0  0  0  0  0  0  0  0  0  0  0
   14.9710    8.4300   14.3510 C   0  0  0  0  0  2  0  0  0  0  0  0
   13.5600    8.5390   13.8830 C   0  0  0  0  0  2  0  0  0  0  0  0
   11.7650    6.1710   11.5110 C   0  0  1  0  0  3  0  0  0  0  0  0
   11.2450    4.7720   11.9030 C   0  0  0  0  0  2  0  0  0  0  0  0
   10.9760    4.3030   10.5520 N   0  0  0  0  0  0  0  0  0  0  0  0
   10.2760    5.3940    9.9640 C   0  0  0  0  0  0  0  0  0  0  0  0
   10.5130    6.6330   10.7570 C   0  0  0  0  0  2  0  0  0  0  0  0
    9.5670    5.3230    8.9340 O   0  0  0  0  0  0  0  0  0  0  0  0
   11.3690    3.0450   10.0430 C   0  0  0  0  0  0  0  0  0  0  0  0
   10.4150    2.0800    9.7790 C   0  0  0  0  0  3  0  0  0  0  0  0
   10.7390    0.8210    9.2850 C   0  0  0  0  0  0  0  0  0  0  0  0
    9.3590   -0.4260    8.9590 Br  0  0  0  0  0  0  0  0  0  0  0  0
   12.0810    0.5250    9.0480 C   0  0  0  0  0  3  0  0  0  0  0  0
   13.0660    1.4550    9.2960 C   0  0  0  0  0  3  0  0  0  0  0  0
   12.6740    2.6840    9.7850 C   0  0  0  0  0  3  0  0  0  0  0  0
   15.6620    6.2110   13.6560 C   0  0  0  0  0  2  0  0  0  0  0  0
   16.9560    5.4620   13.4630 C   0  0  0  0  0  2  0  0  0  0  0  0
   16.9090    4.4690   12.4280 N   0  0  0  0  0  0  0  0  0  0  0  0
   17.9010    3.7120   11.9570 C   0  0  0  0  0  3  0  0  0  0  0  0
   17.4310    2.9110   10.9770 N   0  0  0  0  0  0  0  0  0  0  0  0
   16.1260    3.1610   10.8240 C   0  0  0  0  0  3  0  0  0  0  0  0
   15.8090    4.1390   11.7370 C   0  0  0  0  0  3  0  0  0  0  0  0
  1  3  1  0  0  0  0
  1  2  2  0  0  0  0
  3  8  1  0  0  0  0
  4  5  1  0  0  0  0
  4  3  1  0  0  0  0
  5  6  1  0  0  0  0
  6 22  1  0  0  0  0
  6  7  1  0  0  0  0
  8  7  1  0  0  0  0
  9 10  1  0  0  0  0
  9  1  1  1  0  0  0
 11 10  1  0  0  0  0
 12 11  1  0  0  0  0
 12 13  1  0  0  0  0
 13  9  1  0  0  0  0
 14 12  2  0  0  0  0
 15 11  1  0  0  0  0
 16 15  2  0  0  0  0
 17 16  1  0  0  0  0
 18 17  1  0  0  0  0
 19 17  2  0  0  0  0
 19 20  1  0  0  0  0
 20 21  2  0  0  0  0
 21 15  1  0  0  0  0
 23 22  1  0  0  0  0
 24 23  1  0  0  0  0
 25 24  1  0  0  0  0
 26 25  2  0  0  0  0
 27 26  1  0  0  0  0
 27 28  2  0  0  0  0
 28 24  1  0  0  0  0
M  END
>  <Pose>
1

>  <Score>
-7.638

$$$$
