/Users/jonathanwahrer/Desktop/Msc/3_Semester/Drug_Design_Praktikum/waehrer_HTS_screening/HTS_experiment/out/docking_results/vina_output/2jam/0219_docked.pdbqt
 OpenBabel03162217263D

 27 30  0  0  1  0  0  0  0  0999 V2000
   10.7760    4.9500   11.5660 N   0  0  0  0  0  0  0  0  0  0  0  0
    9.6340    5.3800   10.8360 C   0  0  0  0  0  0  0  0  0  0  0  0
    9.8300    5.5590    9.5830 O   0  0  0  0  0  0  0  0  0  0  0  0
   10.6730    4.7830   12.5890 H   0  0  0  0  0  0  0  0  0  0  0  0
    8.2970    5.6200   11.4150 C   0  0  0  0  0  2  0  0  0  0  0  0
    8.2120    6.7690   12.2760 N   0  0  0  0  0  0  0  0  0  0  0  0
    7.8200    6.6610   13.6540 C   0  0  0  0  0  0  0  0  0  0  0  0
    7.2340    5.7020   14.2160 O   0  0  0  0  0  0  0  0  0  0  0  0
    8.2260    7.8950   14.3280 C   0  0  1  0  0  3  0  0  0  0  0  0
    8.9090    8.7810   13.2670 C   0  0  2  0  0  3  0  0  0  0  0  0
    7.0930    8.7950   14.7400 C   0  0  1  0  0  3  0  0  0  0  0  0
    8.2690   10.1210   13.3710 C   0  0  2  0  0  3  0  0  0  0  0  0
    8.4910    8.1460   11.9890 C   0  0  0  0  0  0  0  0  0  0  0  0
    7.8570   10.1290   14.8580 C   0  0  0  0  0  2  0  0  0  0  0  0
    6.9130   10.0140   12.7780 C   0  0  0  0  0  2  0  0  0  0  0  0
    6.2780    9.1120   13.5190 C   0  0  0  0  0  2  0  0  0  0  0  0
    8.3910    8.6770   10.8700 O   0  0  0  0  0  0  0  0  0  0  0  0
   12.0530    4.7390   10.9550 C   0  0  0  0  0  2  0  0  0  0  0  0
   12.6690    3.4180   11.4420 C   0  0  0  0  0  2  0  0  0  0  0  0
   12.6590    2.5110   10.5200 O   0  0  0  0  0  0  0  0  0  0  0  0
   12.5560    1.6010    9.6240 C   0  0  0  0  0  0  0  0  0  0  0  0
   11.3870    0.8240    9.5380 C   0  0  0  0  0  3  0  0  0  0  0  0
   11.2100   -0.1640    8.6070 C   0  0  0  0  0  0  0  0  0  0  0  0
    9.6080   -1.1990    8.5210 Br  0  0  0  0  0  0  0  0  0  0  0  0
   12.1990   -0.4350    7.7010 C   0  0  0  0  0  3  0  0  0  0  0  0
   13.3710    0.2940    7.7350 C   0  0  0  0  0  3  0  0  0  0  0  0
   13.5450    1.2850    8.6700 C   0  0  0  0  0  3  0  0  0  0  0  0
  1  4  1  0  0  0  0
  2  5  1  0  0  0  0
  2  1  1  0  0  0  0
  3  2  2  0  0  0  0
  5  6  1  0  0  0  0
  6  7  1  0  0  0  0
  7  8  2  0  0  0  0
  9  7  1  6  0  0  0
  9 11  1  0  0  0  0
 10 13  1  6  0  0  0
 10 12  1  0  0  0  0
 10  9  1  0  0  0  0
 11 16  1  6  0  0  0
 11 14  1  0  0  0  0
 12 15  1  6  0  0  0
 12 14  1  0  0  0  0
 13  6  1  0  0  0  0
 15 16  1  0  0  0  0
 17 13  2  0  0  0  0
 18 19  1  0  0  0  0
 18  1  1  0  0  0  0
 20 19  1  0  0  0  0
 21 20  1  0  0  0  0
 22 21  1  0  0  0  0
 23 22  2  0  0  0  0
 24 23  1  0  0  0  0
 25 26  2  0  0  0  0
 25 23  1  0  0  0  0
 26 27  1  0  0  0  0
 27 21  2  0  0  0  0
M  END
>  <Pose>
1

>  <Score>
-8.203

$$$$
