/Users/jonathanwahrer/Desktop/Msc/3_Semester/Drug_Design_Praktikum/waehrer_HTS_screening/HTS_experiment/out/docking_results/vina_output/2jam/0235_docked.pdbqt
 OpenBabel03162217273D

 25 28  0  0  1  0  0  0  0  0999 V2000
   10.5200    4.9440   11.0830 C   0  0  1  0  0  3  0  0  0  0  0  0
    9.9880    5.6580   12.2330 N   0  0  0  0  0  0  0  0  0  0  0  0
    9.7400    5.3890   13.5630 N   0  0  0  0  0  2  0  0  0  0  0  0
    9.3540    6.2780   14.4100 C   0  0  0  0  0  3  0  0  0  0  0  0
    9.1490    7.6390   13.9720 C   0  0  0  0  0  3  0  0  0  0  0  0
    9.3370    7.9680   12.7150 C   0  0  0  0  0  3  0  0  0  0  0  0
    9.7420    7.0000   11.7120 C   0  0  0  0  0  0  0  0  0  0  0  0
   11.0220    7.2760   11.0070 C   0  0  2  0  0  3  0  0  0  0  0  0
   11.6010    5.9050   10.6390 C   0  0  1  0  0  3  0  0  0  0  0  0
   12.8180    5.8080   11.4420 C   0  0  0  0  0  0  0  0  0  0  0  0
   13.4710    4.7500   11.6580 O   0  0  0  0  0  0  0  0  0  0  0  0
   13.1430    7.0920   11.9380 N   0  0  0  0  0  0  0  0  0  0  0  0
   12.0220    7.9610   11.8350 C   0  0  0  0  0  0  0  0  0  0  0  0
   11.9010    9.0980   12.3510 O   0  0  0  0  0  0  0  0  0  0  0  0
   11.0470    3.6270   11.4660 C   0  0  0  0  0  0  0  0  0  0  0  0
   11.2740    3.4460   12.7060 O   0  0  0  0  0  0  0  0  0  0  0  0
   11.3240    2.5370   10.5570 C   0  0  0  0  0  0  0  0  0  0  0  0
   12.5980    2.1180   10.2740 C   0  0  0  0  0  3  0  0  0  0  0  0
   12.8020    1.0710    9.4030 C   0  0  0  0  0  3  0  0  0  0  0  0
   11.7760    0.3970    8.7780 C   0  0  0  0  0  0  0  0  0  0  0  0
   12.1280   -1.0480    7.5800 Br  0  0  0  0  0  0  0  0  0  0  0  0
   10.4970    0.8210    9.0640 C   0  0  0  0  0  3  0  0  0  0  0  0
   10.2840    1.8670    9.9330 C   0  0  0  0  0  3  0  0  0  0  0  0
   14.4230    7.4900   12.4760 C   0  0  0  0  0  2  0  0  0  0  0  0
   15.4650    7.7310   11.4260 C   0  0  0  0  0  1  0  0  0  0  0  0
  1 15  1  1  0  0  0
  1  2  1  0  0  0  0
  2  3  1  0  0  0  0
  3  4  1  0  0  0  0
  5  4  2  0  0  0  0
  6  5  1  0  0  0  0
  7  2  1  0  0  0  0
  7  6  2  0  0  0  0
  8  7  1  1  0  0  0
  8 13  1  0  0  0  0
  9  8  1  0  0  0  0
  9  1  1  0  0  0  0
  9 10  1  1  0  0  0
 10 11  2  0  0  0  0
 10 12  1  0  0  0  0
 12 24  1  0  0  0  0
 13 12  1  0  0  0  0
 13 14  2  0  0  0  0
 15 16  2  0  0  0  0
 17 15  1  0  0  0  0
 18 17  1  0  0  0  0
 19 18  2  0  0  0  0
 20 22  2  0  0  0  0
 20 19  1  0  0  0  0
 21 20  1  0  0  0  0
 22 23  1  0  0  0  0
 23 17  2  0  0  0  0
 25 24  1  0  0  0  0
M  END
>  <Pose>
1

>  <Score>
-7.661

$$$$
