/Users/jonathanwahrer/Desktop/Msc/3_Semester/Drug_Design_Praktikum/waehrer_HTS_screening/HTS_experiment/out/docking_results/vina_output/2jam/0243_docked.pdbqt
 OpenBabel03162217273D

 30 33  0  0  1  0  0  0  0  0999 V2000
   12.4440    3.7650   11.1190 C   0  0  2  0  0  3  0  0  0  0  0  0
   12.0180    4.2210   12.4930 C   0  0  0  0  0  2  0  0  0  0  0  0
   11.2030    5.3900   12.2430 N   0  0  0  0  0  0  0  0  0  0  0  0
   11.4680    5.9060   10.9110 C   0  0  1  0  0  3  0  0  0  0  0  0
   12.4030    4.9730   10.2250 C   0  0  0  0  0  2  0  0  0  0  0  0
   10.1500    6.0180   10.2460 C   0  0  0  0  0  0  0  0  0  0  0  0
   10.0020    5.5510    9.0950 O   0  0  0  0  0  0  0  0  0  0  0  0
    9.1000    6.6570   10.9490 N   0  0  0  0  0  0  0  0  0  0  0  0
    9.1000    6.8610   12.3790 C   0  0  1  0  0  3  0  0  0  0  0  0
   10.2360    6.1150   12.9920 C   0  0  0  0  0  0  0  0  0  0  0  0
   10.3730    6.1070   14.2680 O   0  0  0  0  0  0  0  0  0  0  0  0
    8.2870    6.9890   10.3660 H   0  0  0  0  0  0  0  0  0  0  0  0
   11.5560    2.7730   10.5690 N   0  0  0  0  0  0  0  0  0  0  0  0
   12.0370    1.7680    9.7250 C   0  0  0  0  0  0  0  0  0  0  0  0
   13.2760    1.7060    9.4220 O   0  0  0  0  0  0  0  0  0  0  0  0
   10.5530    2.8210   10.8120 H   0  0  0  0  0  0  0  0  0  0  0  0
   11.1820    0.7290    9.1320 C   0  0  0  0  0  0  0  0  0  0  0  0
   11.6660   -0.1640    8.1990 C   0  0  0  0  0  3  0  0  0  0  0  0
   10.8640   -1.1400    7.6430 C   0  0  0  0  0  3  0  0  0  0  0  0
    9.5340   -1.2730    7.9890 C   0  0  0  0  0  0  0  0  0  0  0  0
    8.3930   -2.6010    7.2500 Br  0  0  0  0  0  0  0  0  0  0  0  0
    9.0490   -0.3720    8.9290 C   0  0  0  0  0  3  0  0  0  0  0  0
    9.8570    0.5960    9.4770 C   0  0  0  0  0  3  0  0  0  0  0  0
    9.1240    8.3310   12.7220 C   0  0  0  0  0  2  0  0  0  0  0  0
    7.7550    8.8450   13.0100 C   0  0  0  0  0  0  0  0  0  0  0  0
    7.4640   10.2020   12.8700 C   0  0  0  0  0  3  0  0  0  0  0  0
    6.1820   10.6210   13.1490 C   0  0  0  0  0  3  0  0  0  0  0  0
    5.1790    9.7600   13.5590 C   0  0  0  0  0  3  0  0  0  0  0  0
    5.5140    8.4320   13.6830 C   0  0  0  0  0  3  0  0  0  0  0  0
    6.7780    7.9540   13.4180 C   0  0  0  0  0  3  0  0  0  0  0  0
  1 13  1  6  0  0  0
  1  2  1  0  0  0  0
  3  2  1  0  0  0  0
  3 10  1  0  0  0  0
  4  5  1  6  0  0  0
  4  3  1  0  0  0  0
  5  1  1  0  0  0  0
  6  4  1  0  0  0  0
  6  8  1  0  0  0  0
  7  6  2  0  0  0  0
  8  9  1  0  0  0  0
  9 24  1  6  0  0  0
  9 10  1  0  0  0  0
 10 11  2  0  0  0  0
 12  8  1  0  0  0  0
 13 16  1  0  0  0  0
 14 13  1  0  0  0  0
 15 14  2  0  0  0  0
 17 23  1  0  0  0  0
 17 14  1  0  0  0  0
 18 17  2  0  0  0  0
 19 20  2  0  0  0  0
 19 18  1  0  0  0  0
 20 22  1  0  0  0  0
 21 20  1  0  0  0  0
 22 23  2  0  0  0  0
 24 25  1  0  0  0  0
 25 30  1  0  0  0  0
 26 25  2  0  0  0  0
 26 27  1  0  0  0  0
 27 28  2  0  0  0  0
 28 29  1  0  0  0  0
 30 29  2  0  0  0  0
M  END
>  <Pose>
1

>  <Score>
-8.824

$$$$
