/Users/jonathanwahrer/Desktop/Msc/3_Semester/Drug_Design_Praktikum/waehrer_HTS_screening/HTS_experiment/out/docking_results/vina_output/2jam/0244_docked.pdbqt
 OpenBabel03162217273D

 25 28  0  0  1  0  0  0  0  0999 V2000
   10.8600    7.0960   13.9540 C   0  0  2  0  0  3  0  0  0  0  0  0
    9.8650    7.1980   15.0870 C   0  0  0  0  0  2  0  0  0  0  0  0
    8.6920    7.7580   14.4410 N   0  0  0  0  0  0  0  0  0  0  0  0
    9.1080    8.5200   13.2800 C   0  0  1  0  0  3  0  0  0  0  0  0
   10.5640    8.2780   13.0640 C   0  0  0  0  0  2  0  0  0  0  0  0
    8.2660    8.0590   12.1470 C   0  0  0  0  0  0  0  0  0  0  0  0
    8.7200    7.7850   11.0120 O   0  0  0  0  0  0  0  0  0  0  0  0
    6.8700    7.9120   12.3290 N   0  0  0  0  0  0  0  0  0  0  0  0
    6.2790    7.6370   13.6220 C   0  0  2  0  0  3  0  0  0  0  0  0
    5.2230    8.6940   13.6810 C   0  0  0  0  0  2  0  0  0  0  0  0
    4.6830    8.6660   12.2460 C   0  0  0  0  0  2  0  0  0  0  0  0
    5.7710    7.9890   11.4070 C   0  0  0  0  0  2  0  0  0  0  0  0
    7.2940    7.7160   14.7030 C   0  0  0  0  0  0  0  0  0  0  0  0
    6.9190    7.7480   15.9240 O   0  0  0  0  0  0  0  0  0  0  0  0
   10.7130    5.9080   13.1790 N   0  0  0  0  0  0  0  0  0  0  0  0
   11.8270    5.3920   12.4670 C   0  0  0  0  0  0  0  0  0  0  0  0
   12.9260    5.9820   12.5260 O   0  0  0  0  0  0  0  0  0  0  0  0
    9.7710    5.4440   13.1560 H   0  0  0  0  0  0  0  0  0  0  0  0
   11.7150    4.1660   11.6540 C   0  0  0  0  0  0  0  0  0  0  0  0
   12.7200    3.2260   11.7150 C   0  0  0  0  0  3  0  0  0  0  0  0
   12.6460    2.0720   10.9680 C   0  0  0  0  0  3  0  0  0  0  0  0
   11.5740    1.8030   10.1340 C   0  0  0  0  0  0  0  0  0  0  0  0
   11.5410    0.1890    9.1350 Br  0  0  0  0  0  0  0  0  0  0  0  0
   10.5650    2.7450   10.0730 C   0  0  0  0  0  3  0  0  0  0  0  0
   10.6570    3.9080   10.8350 C   0  0  0  0  0  3  0  0  0  0  0  0
  1 15  1  6  0  0  0
  1  2  1  0  0  0  0
  3 13  1  0  0  0  0
  3  2  1  0  0  0  0
  4  5  1  6  0  0  0
  4  3  1  0  0  0  0
  5  1  1  0  0  0  0
  6  8  1  0  0  0  0
  6  4  1  0  0  0  0
  7  6  2  0  0  0  0
  8  9  1  0  0  0  0
  9 10  1  1  0  0  0
  9 13  1  0  0  0  0
 11 10  1  0  0  0  0
 12 11  1  0  0  0  0
 12  8  1  0  0  0  0
 13 14  2  0  0  0  0
 16 17  2  0  0  0  0
 16 15  1  0  0  0  0
 18 15  1  0  0  0  0
 19 20  1  0  0  0  0
 19 16  1  0  0  0  0
 21 20  2  0  0  0  0
 22 21  1  0  0  0  0
 23 22  1  0  0  0  0
 24 22  2  0  0  0  0
 24 25  1  0  0  0  0
 25 19  2  0  0  0  0
M  END
>  <Pose>
1

>  <Score>
-7.917

$$$$
