/Users/jonathanwahrer/Desktop/Msc/3_Semester/Drug_Design_Praktikum/waehrer_HTS_screening/HTS_experiment/out/docking_results/vina_output/2jam/0257_docked.pdbqt
 OpenBabel03162217283D

 31 34  0  0  1  0  0  0  0  0999 V2000
   10.8210    5.2170   11.2260 C   0  0  2  0  0  3  0  0  0  0  0  0
   11.5740    5.4160   12.5060 C   0  0  2  0  0  3  0  0  0  0  0  0
   11.0070    6.6790   12.9640 N   0  0  0  0  0  0  0  0  0  0  0  0
    9.6030    6.5730   12.6510 C   0  0  0  0  0  0  0  0  0  0  0  0
    8.7030    7.1860   13.2470 O   0  0  0  0  0  0  0  0  0  0  0  0
    9.4600    5.6310   11.5300 C   0  0  0  0  0  0  0  0  0  0  0  0
    8.4000    5.2600   10.9610 O   0  0  0  0  0  0  0  0  0  0  0  0
   11.2590    4.7440   10.0880 C   0  0  1  0  0  3  0  0  0  0  0  0
   11.6640    5.6520    9.0900 O   0  0  0  0  0  1  0  0  0  0  0  0
   11.3210    3.3090    9.8720 C   0  0  0  0  0  0  0  0  0  0  0  0
   12.5540    2.7040    9.5960 C   0  0  0  0  0  3  0  0  0  0  0  0
   12.6400    1.3500    9.3570 C   0  0  0  0  0  3  0  0  0  0  0  0
   11.5350    0.5260    9.3760 C   0  0  0  0  0  0  0  0  0  0  0  0
   11.6270   -1.3490    9.0500 Br  0  0  0  0  0  0  0  0  0  0  0  0
   10.3110    1.1010    9.6460 C   0  0  0  0  0  3  0  0  0  0  0  0
   10.2260    2.4710    9.8870 C   0  0  0  0  0  3  0  0  0  0  0  0
   13.0340    5.4940   12.2510 C   0  0  0  0  0  0  0  0  0  0  0  0
   13.5250    6.6440   11.7620 N   0  0  0  0  0  0  0  0  0  0  0  0
   14.8210    6.8350   11.5050 C   0  0  0  0  0  3  0  0  0  0  0  0
   15.6900    5.7990   11.7540 C   0  0  0  0  0  3  0  0  0  0  0  0
   15.2310    4.6040   12.2550 C   0  0  0  0  0  3  0  0  0  0  0  0
   13.8900    4.4590   12.5030 C   0  0  0  0  0  3  0  0  0  0  0  0
   11.7010    7.7640   13.5930 C   0  0  0  0  0  2  0  0  0  0  0  0
   11.4120    9.0960   12.9160 C   0  0  0  0  0  2  0  0  0  0  0  0
   11.1570   10.1270   14.0150 C   0  0  0  0  0  2  0  0  0  0  0  0
    9.7490   10.2140   14.3500 N   0  0  0  0  0  0  0  0  0  0  0  0
    8.7270   10.5490   13.5270 C   0  0  0  0  0  2  0  0  0  0  0  0
    7.5780   10.5110   14.2230 N   0  0  0  0  0  0  0  0  0  0  0  0
    7.8320   10.1560   15.4910 C   0  0  0  0  0  3  0  0  0  0  0  0
    6.6110   10.7250   13.8490 H   0  0  0  0  0  0  0  0  0  0  0  0
    9.1990    9.9740   15.5500 C   0  0  0  0  0  3  0  0  0  0  0  0
  1  8  1  1  0  0  0
  1  6  1  0  0  0  0
  1  2  1  0  0  0  0
  2 17  1  6  0  0  0
  2  3  1  0  0  0  0
  3 23  1  0  0  0  0
  4  3  1  0  0  0  0
  4  5  2  0  0  0  0
  6  4  1  0  0  0  0
  7  6  2  0  0  0  0
  8  9  1  1  0  0  0
 10 16  1  0  0  0  0
 10  8  1  0  0  0  0
 11 10  2  0  0  0  0
 12 13  2  0  0  0  0
 12 11  1  0  0  0  0
 13 15  1  0  0  0  0
 14 13  1  0  0  0  0
 15 16  2  0  0  0  0
 17 22  1  0  0  0  0
 18 17  2  0  0  0  0
 19 20  2  0  0  0  0
 19 18  1  0  0  0  0
 20 21  1  0  0  0  0
 21 22  2  0  0  0  0
 24 23  1  0  0  0  0
 24 25  1  0  0  0  0
 25 26  1  0  0  0  0
 26 31  1  0  0  0  0
 27 28  1  0  0  0  0
 27 26  1  0  0  0  0
 28 29  1  0  0  0  0
 29 31  2  0  0  0  0
 30 28  1  0  0  0  0
M  END
>  <Pose>
1

>  <Score>
-7.490

$$$$
