/Users/jonathanwahrer/Desktop/Msc/3_Semester/Drug_Design_Praktikum/waehrer_HTS_screening/HTS_experiment/out/docking_results/vina_output/2jam/0263_docked.pdbqt
 OpenBabel03162217283D

 34 37  0  0  1  0  0  0  0  0999 V2000
   15.0420    4.5460   11.9110 C   0  0  0  0  0  0  0  0  0  0  0  0
   14.9670    3.4370   11.2250 C   0  0  0  0  0  0  0  0  0  0  0  0
   13.7560    2.5590   11.0430 C   0  0  2  0  0  3  0  0  0  0  0  0
   13.9350    2.0190    9.7390 N   0  0  0  0  0  0  0  0  0  0  0  0
   15.3620    1.9410    9.5030 C   0  0  0  0  0  0  0  0  0  0  0  0
   15.9570    1.2360    8.6530 O   0  0  0  0  0  0  0  0  0  0  0  0
   16.0250    2.8400   10.4420 C   0  0  0  0  0  0  0  0  0  0  0  0
   17.2860    3.0290   10.5160 O   0  0  0  0  0  0  0  0  0  0  0  0
   13.8760    5.0060   12.5620 O   0  0  0  0  0  1  0  0  0  0  0  0
   16.2870    5.2900   12.0050 C   0  0  0  0  0  0  0  0  0  0  0  0
   16.4480    6.3180   11.0770 C   0  0  0  0  0  3  0  0  0  0  0  0
   17.5590    7.1130   11.1000 C   0  0  0  0  0  3  0  0  0  0  0  0
   18.5200    6.8830   12.0580 C   0  0  0  0  0  0  0  0  0  0  0  0
   20.0700    8.0220   12.0610 Br  0  0  0  0  0  0  0  0  0  0  0  0
   18.3660    5.8690   12.9790 C   0  0  0  0  0  3  0  0  0  0  0  0
   17.2400    5.0740   12.9450 C   0  0  0  0  0  3  0  0  0  0  0  0
   12.5240    3.2850   11.3200 C   0  0  0  0  0  0  0  0  0  0  0  0
   11.9990    4.2960   10.5610 C   0  0  0  0  0  3  0  0  0  0  0  0
   10.8250    4.9250   10.8860 C   0  0  0  0  0  0  0  0  0  0  0  0
   10.1430    4.5400   12.0090 C   0  0  0  0  0  3  0  0  0  0  0  0
   10.6270    3.5190   12.8210 C   0  0  0  0  0  3  0  0  0  0  0  0
   11.8040    2.9110   12.4660 C   0  0  0  0  0  3  0  0  0  0  0  0
   10.3420    5.9580   10.0580 N   0  0  0  0  0  0  0  0  0  0  0  0
   10.2490    5.8300    8.8100 O   0  0  0  0  0  0  0  0  0  0  0  0
    9.9620    7.1440   10.6430 O   0  0  0  0  0  0  0  0  0  0  0  0
   13.0200    1.5320    8.7240 C   0  0  0  0  0  2  0  0  0  0  0  0
   12.9290    0.0450    8.5990 C   0  0  0  0  0  2  0  0  0  0  0  0
   11.5720   -0.4530    8.7560 N   0  0  0  0  0  4  0  0  0  0  0  0
   11.0900   -1.0500    7.5060 C   0  0  0  0  0  2  0  0  0  0  0  0
    9.7310   -1.6670    7.8620 C   0  0  0  0  0  2  0  0  0  0  0  0
    8.8360   -0.7300    8.3170 O   0  0  0  0  0  0  0  0  0  0  0  0
    9.3120    0.0530    9.3570 C   0  0  0  0  0  2  0  0  0  0  0  0
   10.6720    0.6320    9.0560 C   0  0  0  0  0  2  0  0  0  0  0  0
   11.4680   -1.1800    9.4680 H   0  0  0  0  0  0  0  0  0  0  0  0
  1 10  1  0  0  0  0
  1  9  1  0  0  0  0
  2  1  2  0  0  0  0
  3  2  1  0  0  0  0
  3 17  1  6  0  0  0
  4  3  1  0  0  0  0
  5  4  1  0  0  0  0
  5  7  1  0  0  0  0
  6  5  2  0  0  0  0
  7  8  2  0  0  0  0
  7  2  1  0  0  0  0
 10 16  1  0  0  0  0
 11 12  1  0  0  0  0
 11 10  2  0  0  0  0
 12 13  2  0  0  0  0
 13 14  1  0  0  0  0
 13 15  1  0  0  0  0
 16 15  2  0  0  0  0
 17 22  1  0  0  0  0
 18 19  1  0  0  0  0
 18 17  2  0  0  0  0
 19 20  2  0  0  0  0
 20 21  1  0  0  0  0
 22 21  2  0  0  0  0
 23 25  2  0  0  0  0
 23 19  1  0  0  0  0
 24 23  2  0  0  0  0
 26  4  1  0  0  0  0
 27 26  1  0  0  0  0
 27 28  1  0  0  0  0
 28 33  1  0  0  0  0
 28 34  1  0  0  0  0
 29 30  1  0  0  0  0
 29 28  1  0  0  0  0
 30 31  1  0  0  0  0
 31 32  1  0  0  0  0
 33 32  1  0  0  0  0
M  END
>  <Pose>
1

>  <Score>
-8.931

$$$$
