/Users/jonathanwahrer/Desktop/Msc/3_Semester/Drug_Design_Praktikum/waehrer_HTS_screening/HTS_experiment/out/docking_results/vina_output/2jam/0265_docked.pdbqt
 OpenBabel03162217293D

 35 38  0  0  1  0  0  0  0  0999 V2000
   12.8130    4.1190   11.6910 C   0  0  0  0  0  0  0  0  0  0  0  0
   12.0740    5.2060   11.7010 C   0  0  0  0  0  0  0  0  0  0  0  0
   12.1890    6.3440   12.6820 C   0  0  2  0  0  3  0  0  0  0  0  0
   11.1410    7.2500   12.3600 N   0  0  0  0  0  0  0  0  0  0  0  0
   10.4510    6.8420   11.1600 C   0  0  0  0  0  0  0  0  0  0  0  0
    9.5380    7.4220   10.5570 O   0  0  0  0  0  0  0  0  0  0  0  0
   11.0450    5.5510   10.7460 C   0  0  0  0  0  0  0  0  0  0  0  0
   10.6930    4.8830    9.7210 O   0  0  0  0  0  0  0  0  0  0  0  0
   13.8010    4.0420   12.7000 O   0  0  0  0  0  1  0  0  0  0  0  0
   13.5330    6.9390   12.4070 C   0  0  0  0  0  0  0  0  0  0  0  0
   14.3750    7.1370   13.4560 C   0  0  0  0  0  3  0  0  0  0  0  0
   15.6250    7.6870   13.2610 C   0  0  0  0  0  3  0  0  0  0  0  0
   16.0270    8.0380   12.0010 C   0  0  0  0  0  0  0  0  0  0  0  0
   15.1770    7.8360   10.9440 C   0  0  0  0  0  3  0  0  0  0  0  0
   13.9210    7.2840   11.1340 C   0  0  0  0  0  3  0  0  0  0  0  0
   17.3510    8.6260   11.7810 C   0  0  0  0  0  0  0  0  0  0  0  0
   17.5830    9.7940   12.1850 O   0  0  0  0  0  0  0  0  0  0  0  0
   18.3670    7.9640   11.1480 O   0  0  0  0  0  0  0  0  0  0  0  0
   18.7240    6.6340   11.4510 C   0  0  0  0  0  1  0  0  0  0  0  0
   10.7520    8.4410   13.0660 C   0  0  0  0  0  2  0  0  0  0  0  0
    9.4790    8.3400   13.8330 C   0  0  0  0  0  2  0  0  0  0  0  0
    8.3550    9.0120   13.2520 N   0  0  0  0  0  4  0  0  0  0  0  0
    8.4630   10.4570   13.2620 C   0  0  0  0  0  2  0  0  0  0  0  0
    7.3060   10.9960   12.4470 C   0  0  0  0  0  2  0  0  0  0  0  0
    6.1400   10.6980   13.1920 O   0  0  0  0  0  0  0  0  0  0  0  0
    6.0000    9.3090   13.1360 C   0  0  0  0  0  2  0  0  0  0  0  0
    7.1090    8.7010   13.9790 C   0  0  0  0  0  2  0  0  0  0  0  0
    8.1490    8.6660   12.2770 H   0  0  0  0  0  0  0  0  0  0  0  0
   12.6590    3.0430   10.7230 C   0  0  0  0  0  0  0  0  0  0  0  0
   13.5530    2.9250    9.6510 C   0  0  0  0  0  3  0  0  0  0  0  0
   13.4780    1.9080    8.7230 C   0  0  0  0  0  3  0  0  0  0  0  0
   12.4970    0.9440    8.8170 C   0  0  0  0  0  0  0  0  0  0  0  0
   12.4120   -0.4540    7.5150 Br  0  0  0  0  0  0  0  0  0  0  0  0
   11.6070    1.0370    9.8610 C   0  0  0  0  0  3  0  0  0  0  0  0
   11.6880    2.0730   10.8010 C   0  0  0  0  0  3  0  0  0  0  0  0
  1  2  2  0  0  0  0
  1  9  1  0  0  0  0
  2  3  1  0  0  0  0
  3 10  1  6  0  0  0
  4  3  1  0  0  0  0
  4 20  1  0  0  0  0
  5  4  1  0  0  0  0
  6  5  2  0  0  0  0
  7  5  1  0  0  0  0
  7  2  1  0  0  0  0
  8  7  2  0  0  0  0
 10 11  1  0  0  0  0
 12 11  2  0  0  0  0
 13 12  1  0  0  0  0
 14 15  1  0  0  0  0
 14 13  2  0  0  0  0
 15 10  2  0  0  0  0
 16 13  1  0  0  0  0
 16 17  2  0  0  0  0
 18 19  1  0  0  0  0
 18 16  1  0  0  0  0
 20 21  1  0  0  0  0
 22 23  1  0  0  0  0
 22 21  1  0  0  0  0
 22 27  1  0  0  0  0
 24 25  1  0  0  0  0
 24 23  1  0  0  0  0
 26 25  1  0  0  0  0
 26 27  1  0  0  0  0
 28 22  1  0  0  0  0
 29 35  1  0  0  0  0
 29  1  1  0  0  0  0
 30 29  2  0  0  0  0
 31 32  2  0  0  0  0
 31 30  1  0  0  0  0
 32 34  1  0  0  0  0
 33 32  1  0  0  0  0
 34 35  2  0  0  0  0
M  END
>  <Pose>
1

>  <Score>
-8.184

$$$$
