/Users/jonathanwahrer/Desktop/Msc/3_Semester/Drug_Design_Praktikum/waehrer_HTS_screening/HTS_experiment/out/docking_results/vina_output/2jam/0289_docked.pdbqt
 OpenBabel03162217303D

 31 34  0  0  0  0  0  0  0  0999 V2000
    9.6880    7.0740   13.4200 C   0  0  0  0  0  0  0  0  0  0  0  0
    8.3550    7.2370   13.4010 N   0  0  0  0  0  0  0  0  0  0  0  0
    7.8820    7.1910   14.6690 C   0  0  0  0  0  0  0  0  0  0  0  0
    8.9430    6.9930   15.5260 C   0  0  0  0  0  0  0  0  0  0  0  0
   10.0220    6.9240   14.7470 N   0  0  0  0  0  0  0  0  0  0  0  0
    8.7180    6.9140   16.8510 N   0  0  0  0  0  0  0  0  0  0  0  0
    7.4870    7.0240   17.3680 C   0  0  0  0  0  0  0  0  0  0  0  0
    7.3150    6.9470   18.6270 O   0  0  0  0  0  0  0  0  0  0  0  0
    6.4400    7.2190   16.5490 N   0  0  0  0  0  0  0  0  0  0  0  0
    6.6270    7.3010   15.2250 C   0  0  0  0  0  0  0  0  0  0  0  0
    5.6470    7.4830   14.4620 O   0  0  0  0  0  0  0  0  0  0  0  0
    9.8720    6.7080   17.7330 C   0  0  0  0  0  1  0  0  0  0  0  0
    5.4620    7.3060   16.9510 H   0  0  0  0  0  0  0  0  0  0  0  0
   10.5830    7.0970   12.3360 N   0  0  0  0  0  0  0  0  0  0  0  0
   10.1760    7.0010   10.9770 C   0  0  0  0  0  2  0  0  0  0  0  0
   10.8100    5.7360   10.4070 C   0  0  0  0  0  2  0  0  0  0  0  0
   11.6820    5.1160   11.3120 N   0  0  0  0  0  0  0  0  0  0  0  0
   12.5760    5.8670   12.0940 C   0  0  0  0  0  2  0  0  0  0  0  0
   12.0020    7.2040   12.5750 C   0  0  0  0  0  2  0  0  0  0  0  0
   11.2810    3.8380   11.7980 C   0  0  0  0  0  2  0  0  0  0  0  0
   11.5030    2.7250   10.8560 C   0  0  0  0  0  0  0  0  0  0  0  0
   10.4070    2.1510   10.2610 C   0  0  0  0  0  3  0  0  0  0  0  0
   10.5680    1.1120    9.3590 C   0  0  0  0  0  3  0  0  0  0  0  0
   11.8250    0.6370    9.0450 C   0  0  0  0  0  0  0  0  0  0  0  0
   12.0440   -0.8030    7.7910 Br  0  0  0  0  0  0  0  0  0  0  0  0
   12.9110    1.2260    9.6540 C   0  0  0  0  0  3  0  0  0  0  0  0
   12.7670    2.2620   10.5540 C   0  0  0  0  0  3  0  0  0  0  0  0
    7.4880    7.3890   12.2640 C   0  0  0  0  0  2  0  0  0  0  0  0
    7.2980    8.8390   11.8820 C   0  0  0  0  0  2  0  0  0  0  0  0
    6.4810    9.0280   10.7860 O   0  0  0  0  0  0  0  0  0  0  0  0
    5.2940    8.3120   11.0630 C   0  0  0  0  0  1  0  0  0  0  0  0
  1  5  2  0  0  0  0
  2  1  1  0  0  0  0
  2  3  1  0  0  0  0
  3 10  1  0  0  0  0
  3  4  2  0  0  0  0
  4  6  1  0  0  0  0
  5  4  1  0  0  0  0
  6  7  1  0  0  0  0
  6 12  1  0  0  0  0
  7  8  2  0  0  0  0
  9 13  1  0  0  0  0
  9  7  1  0  0  0  0
 10  9  1  0  0  0  0
 11 10  2  0  0  0  0
 14 19  1  0  0  0  0
 14  1  1  0  0  0  0
 15 14  1  0  0  0  0
 16 15  1  0  0  0  0
 16 17  1  0  0  0  0
 17 20  1  0  0  0  0
 17 18  1  0  0  0  0
 18 19  1  0  0  0  0
 21 20  1  0  0  0  0
 22 21  2  0  0  0  0
 23 22  1  0  0  0  0
 24 23  2  0  0  0  0
 24 26  1  0  0  0  0
 25 24  1  0  0  0  0
 26 27  2  0  0  0  0
 27 21  1  0  0  0  0
 28  2  1  0  0  0  0
 29 28  1  0  0  0  0
 30 31  1  0  0  0  0
 30 29  1  0  0  0  0
M  END
>  <Pose>
1

>  <Score>
-8.127

$$$$
