/Users/jonathanwahrer/Desktop/Msc/3_Semester/Drug_Design_Praktikum/waehrer_HTS_screening/HTS_experiment/out/docking_results/vina_output/2jam/0293_docked.pdbqt
 OpenBabel03162217303D

 27 30  0  0  0  0  0  0  0  0999 V2000
   15.9610    2.5360    9.8820 C   0  0  0  0  0  3  0  0  0  0  0  0
   14.8360    1.9210    9.4960 C   0  0  0  0  0  0  0  0  0  0  0  0
   13.6080    2.1240   10.1030 O   0  0  0  0  0  0  0  0  0  0  0  0
   12.6080    1.3630    9.5060 C   0  0  0  0  0  0  0  0  0  0  0  0
   13.1720    0.6450    8.4950 C   0  0  0  0  0  0  0  0  0  0  0  0
   12.3950   -0.2010    7.7320 C   0  0  0  0  0  3  0  0  0  0  0  0
   11.0610   -0.2830    8.0360 C   0  0  0  0  0  3  0  0  0  0  0  0
   10.4790    0.4540    9.0750 C   0  0  0  0  0  0  0  0  0  0  0  0
   11.2350    1.3010    9.8460 C   0  0  0  0  0  0  0  0  0  0  0  0
    9.1120    0.3140    9.3190 O   0  0  0  0  0  1  0  0  0  0  0  0
   14.6050    0.9670    8.4460 C   0  0  0  0  0  0  0  0  0  0  0  0
   15.4820    0.5230    7.6610 O   0  0  0  0  0  0  0  0  0  0  0  0
   15.9220    3.4750   10.9980 C   0  0  0  0  0  0  0  0  0  0  0  0
   17.0970    3.9310   11.5720 C   0  0  0  0  0  3  0  0  0  0  0  0
   17.0950    4.8170   12.6330 C   0  0  0  0  0  3  0  0  0  0  0  0
   15.9160    5.2870   13.1640 C   0  0  0  0  0  0  0  0  0  0  0  0
   15.9150    6.5230   14.6370 Br  0  0  0  0  0  0  0  0  0  0  0  0
   14.7350    4.8440   12.6050 C   0  0  0  0  0  3  0  0  0  0  0  0
   14.7440    3.9470   11.5340 C   0  0  0  0  0  3  0  0  0  0  0  0
   10.7700    2.1310   10.9640 C   0  0  0  0  0  2  0  0  0  0  0  0
   11.2860    3.4390   11.0900 N   0  0  0  0  0  4  0  0  0  0  0  0
   10.6130    4.3850   10.2240 C   0  0  0  0  0  2  0  0  0  0  0  0
    9.3790    4.9240   10.9240 C   0  0  0  0  0  2  0  0  0  0  0  0
    9.7910    5.8820   11.8380 O   0  0  0  0  0  0  0  0  0  0  0  0
   11.0220    5.4750   12.3620 C   0  0  0  0  0  2  0  0  0  0  0  0
   11.0720    3.9580   12.4520 C   0  0  0  0  0  2  0  0  0  0  0  0
   12.3180    3.4700   10.9630 H   0  0  0  0  0  0  0  0  0  0  0  0
  1 13  1  0  0  0  0
  2  1  2  0  0  0  0
  2  3  1  0  0  0  0
  4  9  1  0  0  0  0
  4  3  1  0  0  0  0
  5  4  2  0  0  0  0
  6  7  2  0  0  0  0
  6  5  1  0  0  0  0
  7  8  1  0  0  0  0
  8 10  1  0  0  0  0
  8  9  2  0  0  0  0
  9 20  1  0  0  0  0
 11  5  1  0  0  0  0
 11  2  1  0  0  0  0
 12 11  2  0  0  0  0
 13 19  2  0  0  0  0
 13 14  1  0  0  0  0
 14 15  2  0  0  0  0
 15 16  1  0  0  0  0
 16 17  1  0  0  0  0
 18 16  2  0  0  0  0
 19 18  1  0  0  0  0
 20 21  1  0  0  0  0
 21 26  1  0  0  0  0
 22 23  1  0  0  0  0
 22 21  1  0  0  0  0
 23 24  1  0  0  0  0
 24 25  1  0  0  0  0
 25 26  1  0  0  0  0
 27 21  1  0  0  0  0
M  END
>  <Pose>
1

>  <Score>
-9.473

$$$$
