/Users/jonathanwahrer/Desktop/Msc/3_Semester/Drug_Design_Praktikum/waehrer_HTS_screening/HTS_experiment/out/docking_results/vina_output/2jam/0305_docked.pdbqt
 OpenBabel03162217303D

 27 30  0  0  0  0  0  0  0  0999 V2000
   11.2770    3.8010   10.4440 C   0  0  0  0  0  0  0  0  0  0  0  0
   12.3620    3.1130   10.1110 N   0  0  0  0  0  0  0  0  0  0  0  0
   12.0520    2.1260    9.2340 C   0  0  0  0  0  0  0  0  0  0  0  0
   10.7270    2.2190    9.0160 N   0  0  0  0  0  0  0  0  0  0  0  0
   10.2500    3.1980    9.7130 N   0  0  0  0  0  0  0  0  0  0  0  0
   13.1300    1.4170    8.8770 N   0  0  0  0  0  0  0  0  0  0  0  0
   14.1510    1.9730    9.5380 C   0  0  0  0  0  0  0  0  0  0  0  0
   13.7060    3.0470   10.3200 C   0  0  0  0  0  0  0  0  0  0  0  0
   14.5530    3.7730   11.0320 N   0  0  0  0  0  0  0  0  0  0  0  0
   15.8760    3.4260   10.9850 C   0  0  0  0  0  0  0  0  0  0  0  0
   16.7110    4.0840   11.6490 O   0  0  0  0  0  0  0  0  0  0  0  0
   16.3320    2.4010   10.2550 N   0  0  0  0  0  0  0  0  0  0  0  0
   15.4890    1.6570    9.5180 C   0  0  0  0  0  0  0  0  0  0  0  0
   15.8810    0.6870    8.8180 O   0  0  0  0  0  0  0  0  0  0  0  0
   14.2570    4.9700   11.7760 C   0  0  0  0  0  1  0  0  0  0  0  0
   17.3370    2.1360   10.2200 H   0  0  0  0  0  0  0  0  0  0  0  0
   10.9610    4.9240   11.3060 C   0  0  0  0  0  0  0  0  0  0  0  0
   10.8260    6.1790   10.7100 C   0  0  0  0  0  3  0  0  0  0  0  0
   10.3900    7.2690   11.3960 C   0  0  0  0  0  3  0  0  0  0  0  0
   10.0620    7.1530   12.7310 C   0  0  0  0  0  0  0  0  0  0  0  0
    9.4540    8.6720   13.6840 Br  0  0  0  0  0  0  0  0  0  0  0  0
   10.1710    5.9410   13.3750 C   0  0  0  0  0  3  0  0  0  0  0  0
   10.6170    4.8770   12.6320 C   0  0  0  0  0  3  0  0  0  0  0  0
   13.1820    0.2890    7.9750 C   0  0  0  0  0  2  0  0  0  0  0  0
   12.2540   -0.8320    8.3900 C   0  0  0  0  0  2  0  0  0  0  0  0
   11.2430   -1.0410    7.4600 O   0  0  0  0  0  0  0  0  0  0  0  0
   10.0670   -1.2780    8.1710 C   0  0  0  0  0  1  0  0  0  0  0  0
  1 17  1  0  0  0  0
  2  8  1  0  0  0  0
  2  1  1  0  0  0  0
  3  2  1  0  0  0  0
  4  3  2  0  0  0  0
  4  5  1  0  0  0  0
  5  1  2  0  0  0  0
  6  3  1  0  0  0  0
  6  7  1  0  0  0  0
  7  8  2  0  0  0  0
  8  9  1  0  0  0  0
  9 15  1  0  0  0  0
 10  9  1  0  0  0  0
 10 11  2  0  0  0  0
 12 10  1  0  0  0  0
 13  7  1  0  0  0  0
 13 12  1  0  0  0  0
 14 13  2  0  0  0  0
 16 12  1  0  0  0  0
 17 23  1  0  0  0  0
 18 17  2  0  0  0  0
 18 19  1  0  0  0  0
 19 20  2  0  0  0  0
 20 22  1  0  0  0  0
 20 21  1  0  0  0  0
 23 22  2  0  0  0  0
 24 25  1  0  0  0  0
 24  6  1  0  0  0  0
 26 27  1  0  0  0  0
 26 25  1  0  0  0  0
M  END
>  <Pose>
1

>  <Score>
-8.030

$$$$
