/Users/jonathanwahrer/Desktop/Msc/3_Semester/Drug_Design_Praktikum/waehrer_HTS_screening/HTS_experiment/out/docking_results/vina_output/2jam/0320_docked.pdbqt
 OpenBabel03162217313D

 32 36  0  0  1  0  0  0  0  0999 V2000
   13.7400    2.7760   10.8990 C   0  0  0  0  0  0  0  0  0  0  0  0
   13.6740    1.5710   10.1800 C   0  0  0  0  0  3  0  0  0  0  0  0
   12.3880    1.3260    9.9650 N   0  0  0  0  0  0  0  0  0  0  0  0
   11.6000    0.3790    9.3690 C   0  0  0  0  0  0  0  0  0  0  0  0
   10.3110    0.8090    9.5620 C   0  0  0  0  0  0  0  0  0  0  0  0
   10.3700    1.9470   10.2360 N   0  0  0  0  0  0  0  0  0  0  0  0
   11.6660    2.2840   10.4960 C   0  0  1  0  0  3  0  0  0  0  0  0
   12.4860    3.2030   11.0850 N   0  0  0  0  0  0  0  0  0  0  0  0
    9.2210    0.0780    9.0800 C   0  0  0  0  0  3  0  0  0  0  0  0
    9.4370   -1.0980    8.3950 C   0  0  0  0  0  3  0  0  0  0  0  0
   10.7390   -1.5070    8.2160 C   0  0  0  0  0  3  0  0  0  0  0  0
   11.8280   -0.7870    8.6920 C   0  0  0  0  0  3  0  0  0  0  0  0
    9.5250    2.4770   10.5220 H   0  0  0  0  0  0  0  0  0  0  0  0
   11.9570    4.3510   11.7560 C   0  0  0  0  0  2  0  0  0  0  0  0
   11.9590    5.6300   11.0210 C   0  0  0  0  0  2  0  0  0  0  0  0
   10.6800    6.1380   10.4610 C   0  0  0  0  0  2  0  0  0  0  0  0
   10.3340    7.4380   10.9940 N   0  0  0  0  0  4  0  0  0  0  0  0
   10.9900    7.8470   11.6550 H   0  0  0  0  0  0  0  0  0  0  0  0
   10.3810    8.1100   10.1440 H   0  0  0  0  0  0  0  0  0  0  0  0
    8.9780    7.5210   11.4490 C   0  0  0  0  0  3  0  0  0  0  0  0
    8.4330    6.2610   12.0600 C   0  0  0  0  0  2  0  0  0  0  0  0
    6.9040    6.3930   12.0180 C   0  0  0  0  0  2  0  0  0  0  0  0
    6.5070    7.5620   12.8500 C   0  0  0  0  0  2  0  0  0  0  0  0
    7.2260    8.8410   12.4890 C   0  0  0  0  0  2  0  0  0  0  0  0
    8.7430    8.6200   12.4760 C   0  0  0  0  0  2  0  0  0  0  0  0
   14.9900    3.3630   11.3330 C   0  0  0  0  0  0  0  0  0  0  0  0
   16.1630    2.9200   10.7570 C   0  0  0  0  0  3  0  0  0  0  0  0
   17.3800    3.4310   11.1060 C   0  0  0  0  0  3  0  0  0  0  0  0
   17.4950    4.4090   12.0460 C   0  0  0  0  0  0  0  0  0  0  0  0
   19.2080    5.1350   12.5430 Br  0  0  0  0  0  0  0  0  0  0  0  0
   16.3570    4.8750   12.6410 C   0  0  0  0  0  3  0  0  0  0  0  0
   15.1020    4.3350   12.2680 C   0  0  0  0  0  3  0  0  0  0  0  0
  1  8  1  0  0  0  0
  1 26  1  0  0  0  0
  2  1  2  0  0  0  0
  3  2  1  0  0  0  0
  4  5  1  0  0  0  0
  4  3  1  0  0  0  0
  5  6  1  0  0  0  0
  6  7  1  0  0  0  0
  6 13  1  0  0  0  0
  7  3  1  1  0  0  0
  7  8  1  0  0  0  0
  8 14  1  0  0  0  0
  9  5  2  0  0  0  0
 10  9  1  0  0  0  0
 11 10  2  0  0  0  0
 11 12  1  0  0  0  0
 12  4  2  0  0  0  0
 15 14  1  0  0  0  0
 16 17  1  0  0  0  0
 16 15  1  0  0  0  0
 17 20  1  0  0  0  0
 17 18  1  0  0  0  0
 19 17  1  0  0  0  0
 20 21  1  0  0  0  0
 20 25  1  0  0  0  0
 22 21  1  0  0  0  0
 22 23  1  0  0  0  0
 24 23  1  0  0  0  0
 25 24  1  0  0  0  0
 26 32  1  0  0  0  0
 27 28  1  0  0  0  0
 27 26  2  0  0  0  0
 28 29  2  0  0  0  0
 29 30  1  0  0  0  0
 29 31  1  0  0  0  0
 32 31  2  0  0  0  0
M  END
>  <Pose>
1

>  <Score>
-9.385

$$$$
