/Users/jonathanwahrer/Desktop/Msc/3_Semester/Drug_Design_Praktikum/waehrer_HTS_screening/HTS_experiment/out/docking_results/vina_output/2jam/0324_docked.pdbqt
 OpenBabel03162217313D

 34 38  0  0  1  0  0  0  0  0999 V2000
   13.5530    2.9760   10.9660 C   0  0  0  0  0  0  0  0  0  0  0  0
   13.5060    1.7260   10.3200 C   0  0  0  0  0  3  0  0  0  0  0  0
   12.2440    1.3830   10.0390 N   0  0  0  0  0  0  0  0  0  0  0  0
   11.4660    0.4220    9.4830 C   0  0  0  0  0  0  0  0  0  0  0  0
   10.1710    0.8630    9.6030 C   0  0  0  0  0  0  0  0  0  0  0  0
   10.1940    2.0740   10.2250 N   0  0  0  0  0  0  0  0  0  0  0  0
   11.4800    2.3760   10.4850 C   0  0  1  0  0  3  0  0  0  0  0  0
   12.2750    3.3520   11.0530 N   0  0  0  0  0  0  0  0  0  0  0  0
    9.1640    0.0590    9.1090 C   0  0  0  0  0  3  0  0  0  0  0  0
    9.4340   -1.1630    8.5060 C   0  0  0  0  0  3  0  0  0  0  0  0
   10.7280   -1.6020    8.3880 C   0  0  0  0  0  3  0  0  0  0  0  0
   11.7490   -0.7850    8.8900 C   0  0  0  0  0  3  0  0  0  0  0  0
    9.3470    2.6410   10.4460 H   0  0  0  0  0  0  0  0  0  0  0  0
   11.7310    4.5540   11.6490 C   0  0  0  0  0  2  0  0  0  0  0  0
   11.6440    5.7260   10.7000 C   0  0  0  0  0  2  0  0  0  0  0  0
   10.2400    6.2730   10.6350 C   0  0  0  0  0  2  0  0  0  0  0  0
    9.4650    6.0930   11.8310 N   0  0  0  0  0  0  0  0  0  0  0  0
    8.1000    5.8550   11.3880 C   0  0  0  0  0  2  0  0  0  0  0  0
    7.0650    6.6180   12.1260 C   0  0  0  0  0  2  0  0  0  0  0  0
    7.3510    8.0070   12.3590 N   0  0  0  0  0  4  0  0  0  0  0  0
    8.7610    8.3280   12.2900 C   0  0  0  0  0  2  0  0  0  0  0  0
    7.0900    8.1860   13.3800 H   0  0  0  0  0  0  0  0  0  0  0  0
    9.5460    7.1360   12.7990 C   0  0  0  0  0  2  0  0  0  0  0  0
    6.5020    8.8660   11.5970 C   0  0  0  0  0  2  0  0  0  0  0  0
    5.2040    8.2810   11.1550 C   0  0  0  0  0  2  0  0  0  0  0  0
    4.9710    8.4010    9.7860 O   0  0  0  0  0  0  0  0  0  0  0  0
    5.5300    7.7700    9.3000 H   0  0  0  0  0  0  0  0  0  0  0  0
   14.7920    3.6000   11.4290 C   0  0  0  0  0  0  0  0  0  0  0  0
   14.8920    4.6120   12.3280 C   0  0  0  0  0  3  0  0  0  0  0  0
   16.1240    5.1310   12.7600 C   0  0  0  0  0  3  0  0  0  0  0  0
   17.3060    4.6270   12.2800 C   0  0  0  0  0  0  0  0  0  0  0  0
   18.9890    5.3340   12.8680 Br  0  0  0  0  0  0  0  0  0  0  0  0
   17.2270    3.6090   11.3730 C   0  0  0  0  0  3  0  0  0  0  0  0
   16.0060    3.1030   10.9540 C   0  0  0  0  0  3  0  0  0  0  0  0
  1  8  1  0  0  0  0
  1 28  1  0  0  0  0
  2  1  2  0  0  0  0
  3  2  1  0  0  0  0
  4  5  1  0  0  0  0
  4  3  1  0  0  0  0
  5  6  1  0  0  0  0
  6 13  1  0  0  0  0
  6  7  1  0  0  0  0
  7  3  1  1  0  0  0
  7  8  1  0  0  0  0
  8 14  1  0  0  0  0
  9  5  2  0  0  0  0
 10  9  1  0  0  0  0
 11 10  2  0  0  0  0
 11 12  1  0  0  0  0
 12  4  2  0  0  0  0
 15 14  1  0  0  0  0
 16 15  1  0  0  0  0
 16 17  1  0  0  0  0
 17 23  1  0  0  0  0
 18 17  1  0  0  0  0
 18 19  1  0  0  0  0
 19 20  1  0  0  0  0
 20 22  1  0  0  0  0
 21 20  1  0  0  0  0
 21 23  1  0  0  0  0
 24 20  1  0  0  0  0
 25 24  1  0  0  0  0
 26 25  1  0  0  0  0
 27 26  1  0  0  0  0
 28 29  1  0  0  0  0
 29 30  2  0  0  0  0
 31 30  1  0  0  0  0
 31 32  1  0  0  0  0
 33 31  2  0  0  0  0
 34 33  1  0  0  0  0
 34 28  2  0  0  0  0
M  END
>  <Pose>
1

>  <Score>
-9.653

$$$$
