/Users/jonathanwahrer/Desktop/Msc/3_Semester/Drug_Design_Praktikum/waehrer_HTS_screening/HTS_experiment/out/docking_results/vina_output/2jam/0349_docked.pdbqt
 OpenBabel03162217333D

 32 35  0  0  1  0  0  0  0  0999 V2000
   12.0900    5.3010   11.2520 C   0  0  1  0  0  3  0  0  0  0  0  0
   11.8210    3.9280   11.2520 N   0  0  0  0  0  0  0  0  0  0  0  0
   10.6020    3.8160   10.4260 C   0  0  0  0  0  0  0  0  0  0  0  0
   10.2590    2.8400    9.7020 O   0  0  0  0  0  0  0  0  0  0  0  0
    9.8970    5.0830   10.6440 C   0  0  0  0  0  0  0  0  0  0  0  0
    8.7870    5.4590   10.1570 O   0  0  0  0  0  0  0  0  0  0  0  0
   10.7450    5.8570   11.5710 C   0  0  0  0  0  0  0  0  0  0  0  0
   10.3630    6.7470   12.4580 C   0  0  0  0  0  0  0  0  0  0  0  0
   11.2900    7.3380   13.3080 O   0  0  0  0  0  1  0  0  0  0  0  0
   12.4060    2.7030   11.7780 C   0  0  0  0  0  2  0  0  0  0  0  0
   13.6570    2.2640   11.0630 C   0  0  0  0  0  2  0  0  0  0  0  0
   13.4460    1.8940    9.7020 N   0  0  0  0  0  4  0  0  0  0  0  0
   12.7280    0.6350    9.6300 C   0  0  0  0  0  2  0  0  0  0  0  0
   12.4870    0.3000    8.1820 C   0  0  0  0  0  2  0  0  0  0  0  0
   13.7430   -0.0100    7.6350 O   0  0  0  0  0  0  0  0  0  0  0  0
   14.5130    1.1290    7.6790 C   0  0  0  0  0  2  0  0  0  0  0  0
   14.7570    1.6180    9.0830 C   0  0  0  0  0  2  0  0  0  0  0  0
   12.9730    2.6230    9.1490 H   0  0  0  0  0  0  0  0  0  0  0  0
   13.2420    5.9680   11.7230 C   0  0  0  0  0  0  0  0  0  0  0  0
   13.6710    7.0970   11.0080 C   0  0  0  0  0  3  0  0  0  0  0  0
   14.7780    7.8120   11.3670 C   0  0  0  0  0  3  0  0  0  0  0  0
   15.5280    7.4450   12.4630 C   0  0  0  0  0  0  0  0  0  0  0  0
   17.0850    8.4270   12.9930 Br  0  0  0  0  0  0  0  0  0  0  0  0
   15.1140    6.3390   13.1660 C   0  0  0  0  0  3  0  0  0  0  0  0
   13.9820    5.6120   12.7950 C   0  0  0  0  0  3  0  0  0  0  0  0
    8.9810    7.1770   12.6060 C   0  0  0  0  0  0  0  0  0  0  0  0
    8.0340    6.5800   13.3770 C   0  0  0  0  0  3  0  0  0  0  0  0
    6.7580    7.1200   13.4660 C   0  0  0  0  0  3  0  0  0  0  0  0
    6.4350    8.2650   12.7750 C   0  0  0  0  0  0  0  0  0  0  0  0
    7.3640    8.8980   11.9830 C   0  0  0  0  0  3  0  0  0  0  0  0
    5.0740    8.8740   12.8460 C   0  0  0  0  0  1  0  0  0  0  0  0
    8.6330    8.3410   11.9100 C   0  0  0  0  0  3  0  0  0  0  0  0
  1  2  1  0  0  0  0
  1  7  1  0  0  0  0
  1 19  1  1  0  0  0
  2 10  1  0  0  0  0
  3  5  1  0  0  0  0
  3  2  1  0  0  0  0
  4  3  2  0  0  0  0
  5  7  1  0  0  0  0
  6  5  2  0  0  0  0
  7  8  2  0  0  0  0
  8 26  1  0  0  0  0
  8  9  1  0  0  0  0
 11 10  1  0  0  0  0
 12 11  1  0  0  0  0
 13 12  1  0  0  0  0
 14 13  1  0  0  0  0
 15 16  1  0  0  0  0
 15 14  1  0  0  0  0
 16 17  1  0  0  0  0
 17 12  1  0  0  0  0
 18 12  1  0  0  0  0
 19 25  1  0  0  0  0
 20 21  1  0  0  0  0
 20 19  2  0  0  0  0
 21 22  2  0  0  0  0
 22 23  1  0  0  0  0
 22 24  1  0  0  0  0
 25 24  2  0  0  0  0
 26 27  1  0  0  0  0
 27 28  2  0  0  0  0
 29 31  1  0  0  0  0
 29 28  1  0  0  0  0
 30 29  2  0  0  0  0
 32 30  1  0  0  0  0
 32 26  2  0  0  0  0
M  END
>  <Pose>
1

>  <Score>
-8.245

$$$$
