/Users/jonathanwahrer/Desktop/Msc/3_Semester/Drug_Design_Praktikum/waehrer_HTS_screening/HTS_experiment/out/docking_results/vina_output/2jam/0361_docked.pdbqt
 OpenBabel03162217343D

 33 36  0  0  1  0  0  0  0  0999 V2000
   11.0790    5.0550   12.4420 C   0  0  1  0  0  3  0  0  0  0  0  0
   10.0220    5.7770   11.7100 N   0  0  0  0  0  0  0  0  0  0  0  0
   10.4470    5.7470   10.3520 C   0  0  0  0  0  0  0  0  0  0  0  0
   10.1010    6.5940    9.4790 O   0  0  0  0  0  0  0  0  0  0  0  0
   11.3240    4.5960   10.1580 C   0  0  0  0  0  0  0  0  0  0  0  0
   11.8810    4.2470    9.0970 O   0  0  0  0  0  0  0  0  0  0  0  0
   11.3990    3.9560   11.4580 C   0  0  0  0  0  0  0  0  0  0  0  0
   11.6480    2.7000   11.7300 C   0  0  0  0  0  0  0  0  0  0  0  0
   11.6330    2.2350   13.0370 O   0  0  0  0  0  1  0  0  0  0  0  0
   12.2960    5.8890   12.5640 C   0  0  0  0  0  0  0  0  0  0  0  0
   12.2210    7.2190   12.9010 C   0  0  0  0  0  3  0  0  0  0  0  0
   13.3560    8.0180   13.0330 C   0  0  0  0  0  3  0  0  0  0  0  0
   14.6110    7.4770   12.8230 C   0  0  0  0  0  0  0  0  0  0  0  0
   16.1880    8.5600   13.0000 Br  0  0  0  0  0  0  0  0  0  0  0  0
   14.6820    6.1480   12.4870 C   0  0  0  0  0  3  0  0  0  0  0  0
   13.5560    5.3700   12.3590 C   0  0  0  0  0  3  0  0  0  0  0  0
   11.9530    1.7390   10.6870 C   0  0  0  0  0  0  0  0  0  0  0  0
   11.1620    0.9190    9.9660 N   0  0  0  0  0  0  0  0  0  0  0  0
   11.8910    0.1680    9.1270 C   0  0  0  0  0  0  0  0  0  0  0  0
    9.8150    0.7530    9.9360 C   0  0  0  0  0  3  0  0  0  0  0  0
   13.1780    0.5280    9.3280 N   0  0  0  0  0  0  0  0  0  0  0  0
   11.3280   -0.7570    8.2480 C   0  0  0  0  0  3  0  0  0  0  0  0
   13.2680    1.4650   10.2510 C   0  0  0  0  0  0  0  0  0  0  0  0
   14.4800    2.1600   10.7910 C   0  0  0  0  0  1  0  0  0  0  0  0
    9.9630   -0.9300    8.2140 C   0  0  0  0  0  3  0  0  0  0  0  0
    9.2310   -0.1500    9.0790 C   0  0  0  0  0  3  0  0  0  0  0  0
    8.8460    6.3790   12.2810 C   0  0  0  0  0  3  0  0  0  0  0  0
    7.5160    6.0360   11.7350 C   0  0  0  0  0  3  0  0  0  0  0  0
    6.3220    6.8190   12.1100 C   0  0  0  0  0  2  0  0  0  0  0  0
    6.1950    8.1460   11.5870 N   0  0  0  0  0  4  0  0  0  0  0  0
    4.9170    8.1800   10.8210 C   0  0  0  0  0  1  0  0  0  0  0  0
    5.9810    9.0840   12.6700 C   0  0  0  0  0  1  0  0  0  0  0  0
    6.9430    8.4770   10.9790 H   0  0  0  0  0  0  0  0  0  0  0  0
  1 10  1  6  0  0  0
  2 27  1  0  0  0  0
  2  1  1  0  0  0  0
  3  2  1  0  0  0  0
  4  3  2  0  0  0  0
  5  3  1  0  0  0  0
  5  7  1  0  0  0  0
  6  5  2  0  0  0  0
  7  8  2  0  0  0  0
  7  1  1  0  0  0  0
  8  9  1  0  0  0  0
 10 11  1  0  0  0  0
 11 12  2  0  0  0  0
 13 14  1  0  0  0  0
 13 12  1  0  0  0  0
 15 13  2  0  0  0  0
 16 15  1  0  0  0  0
 16 10  2  0  0  0  0
 17  8  1  0  0  0  0
 18 17  1  0  0  0  0
 19 21  2  0  0  0  0
 19 18  1  0  0  0  0
 20 18  1  0  0  0  0
 21 23  1  0  0  0  0
 22 19  1  0  0  0  0
 23 17  2  0  0  0  0
 23 24  1  0  0  0  0
 25 22  2  0  0  0  0
 25 26  1  0  0  0  0
 26 20  2  0  0  0  0
 28 29  1  0  0  0  0
 28 27  2  0  0  0  0
 30 29  1  0  0  0  0
 30 32  1  0  0  0  0
 31 30  1  0  0  0  0
 33 30  1  0  0  0  0
M  END
>  <Pose>
1

>  <Score>
-8.615

$$$$
