/Users/jonathanwahrer/Desktop/Msc/3_Semester/Drug_Design_Praktikum/waehrer_HTS_screening/HTS_experiment/out/docking_results/vina_output/2jam/0364_docked.pdbqt
 OpenBabel03162217343D

 32 35  0  0  1  0  0  0  0  0999 V2000
   11.9950    4.2040   12.1100 C   0  0  1  0  0  3  0  0  0  0  0  0
   10.7330    4.8860   12.1970 N   0  0  0  0  0  0  0  0  0  0  0  0
   10.0820    4.7360   10.9480 C   0  0  0  0  0  0  0  0  0  0  0  0
    9.0470    5.3610   10.5780 O   0  0  0  0  0  0  0  0  0  0  0  0
   10.7980    3.7390   10.1490 C   0  0  0  0  0  0  0  0  0  0  0  0
   10.5170    3.3370    8.9930 O   0  0  0  0  0  0  0  0  0  0  0  0
   11.9170    3.2840   10.9550 C   0  0  0  0  0  0  0  0  0  0  0  0
   12.6630    2.2190   10.7100 C   0  0  0  0  0  0  0  0  0  0  0  0
   13.6560    1.8980   11.6560 O   0  0  0  0  0  1  0  0  0  0  0  0
   13.1370    5.1490   11.9890 C   0  0  0  0  0  0  0  0  0  0  0  0
   13.0300    6.3680   11.3570 C   0  0  0  0  0  3  0  0  0  0  0  0
   14.0640    7.2650   11.2270 C   0  0  0  0  0  3  0  0  0  0  0  0
   15.2880    6.9580   11.7490 C   0  0  0  0  0  0  0  0  0  0  0  0
   16.7130    8.2180   11.5600 Br  0  0  0  0  0  0  0  0  0  0  0  0
   15.4460    5.7530   12.3910 C   0  0  0  0  0  3  0  0  0  0  0  0
   14.4010    4.8670   12.5110 C   0  0  0  0  0  3  0  0  0  0  0  0
   12.5660    1.3540    9.5600 C   0  0  0  0  0  0  0  0  0  0  0  0
   11.6570    0.4540    9.1660 N   0  0  0  0  0  0  0  0  0  0  0  0
   12.0360   -0.1410    8.0210 C   0  0  0  0  0  0  0  0  0  0  0  0
   10.4750    0.0900    9.7060 C   0  0  0  0  0  3  0  0  0  0  0  0
   13.2190    0.3940    7.6740 N   0  0  0  0  0  0  0  0  0  0  0  0
   11.2770   -1.1070    7.3690 C   0  0  0  0  0  3  0  0  0  0  0  0
   13.5710    1.3040    8.5840 C   0  0  0  0  0  0  0  0  0  0  0  0
   14.8190    2.1160    8.5480 C   0  0  0  0  0  1  0  0  0  0  0  0
   10.0800   -1.4710    7.9220 C   0  0  0  0  0  3  0  0  0  0  0  0
    9.6870   -0.8600    9.0990 C   0  0  0  0  0  3  0  0  0  0  0  0
   10.2010    5.6130   13.3710 C   0  0  0  0  0  2  0  0  0  0  0  0
   10.1450    7.0970   13.0770 C   0  0  0  0  0  2  0  0  0  0  0  0
    8.8430    7.5580   12.7410 N   0  0  0  0  0  4  0  0  0  0  0  0
    7.8890    6.8620   13.6050 C   0  0  0  0  0  1  0  0  0  0  0  0
    8.6410    8.9670   12.8780 C   0  0  0  0  0  1  0  0  0  0  0  0
    8.5740    7.2990   11.7500 H   0  0  0  0  0  0  0  0  0  0  0  0
  1 10  1  6  0  0  0
  1  2  1  0  0  0  0
  2 27  1  0  0  0  0
  3  2  1  0  0  0  0
  4  3  2  0  0  0  0
  5  3  1  0  0  0  0
  5  7  1  0  0  0  0
  6  5  2  0  0  0  0
  7  1  1  0  0  0  0
  8  7  2  0  0  0  0
  8  9  1  0  0  0  0
 10 16  1  0  0  0  0
 11 10  2  0  0  0  0
 12 11  1  0  0  0  0
 12 13  2  0  0  0  0
 13 15  1  0  0  0  0
 14 13  1  0  0  0  0
 15 16  2  0  0  0  0
 17  8  1  0  0  0  0
 18 17  1  0  0  0  0
 18 20  1  0  0  0  0
 19 18  1  0  0  0  0
 21 19  2  0  0  0  0
 21 23  1  0  0  0  0
 22 25  2  0  0  0  0
 22 19  1  0  0  0  0
 23 17  2  0  0  0  0
 24 23  1  0  0  0  0
 25 26  1  0  0  0  0
 26 20  2  0  0  0  0
 28 27  1  0  0  0  0
 29 31  1  0  0  0  0
 29 28  1  0  0  0  0
 29 30  1  0  0  0  0
 32 29  1  0  0  0  0
M  END
>  <Pose>
1

>  <Score>
-9.424

$$$$
