/Users/jonathanwahrer/Desktop/Msc/3_Semester/Drug_Design_Praktikum/waehrer_HTS_screening/HTS_experiment/out/docking_results/vina_output/2jam/0381_docked.pdbqt
 OpenBabel03162217343D

 29 32  0  0  0  0  0  0  0  0999 V2000
   10.8870    7.2870   11.9410 N   0  0  0  0  0  0  0  0  0  0  0  0
   12.1390    6.8400   11.9230 N   0  0  0  0  0  0  0  0  0  0  0  0
   13.1100    7.3960   12.7030 C   0  0  0  0  0  0  0  0  0  0  0  0
   12.7960    8.4210   13.5110 N   0  0  0  0  0  0  0  0  0  0  0  0
   13.9660    8.8760   14.2290 C   0  0  0  0  0  3  0  0  0  0  0  0
   15.1080    8.0050   13.7990 C   0  0  0  0  0  3  0  0  0  0  0  0
   14.4830    7.0710   12.8810 N   0  0  0  0  0  0  0  0  0  0  0  0
   11.5520    8.9140   13.5730 C   0  0  0  0  0  0  0  0  0  0  0  0
   11.2610    9.8720   14.3280 O   0  0  0  0  0  0  0  0  0  0  0  0
   10.6080    8.3140   12.7630 C   0  0  0  0  0  0  0  0  0  0  0  0
    9.4270    8.7430   12.7850 O   0  0  0  0  0  0  0  0  0  0  0  0
    9.8210    6.6760   11.1290 C   0  0  0  0  0  2  0  0  0  0  0  0
   10.3250    5.5100   10.4050 C   0  0  0  0  0  0  0  0  0  0  0  0
   10.8680    4.3350   10.9370 N   0  0  0  0  0  0  0  0  0  0  0  0
   10.9310    4.2820   11.9930 H   0  0  0  0  0  0  0  0  0  0  0  0
   10.2350    5.6320    9.1190 O   0  0  0  0  0  0  0  0  0  0  0  0
   11.3310    3.2420   10.2000 C   0  0  0  0  0  0  0  0  0  0  0  0
   12.6120    3.0200    9.7590 C   0  0  0  0  0  3  0  0  0  0  0  0
   12.9840    1.8720    9.0450 C   0  0  0  0  0  3  0  0  0  0  0  0
   12.0740    0.8930    8.7460 C   0  0  0  0  0  0  0  0  0  0  0  0
   12.5650   -0.6800    7.7780 Br  0  0  0  0  0  0  0  0  0  0  0  0
   10.7780    1.0940    9.1780 C   0  0  0  0  0  3  0  0  0  0  0  0
   10.4220    2.2170    9.8730 C   0  0  0  0  0  3  0  0  0  0  0  0
   15.1880    6.0030   12.2780 C   0  0  0  0  0  0  0  0  0  0  0  0
   14.7940    4.6940   12.3480 C   0  0  0  0  0  3  0  0  0  0  0  0
   15.5150    3.6690   11.7590 C   0  0  0  0  0  3  0  0  0  0  0  0
   16.6780    3.9610   11.0720 C   0  0  0  0  0  3  0  0  0  0  0  0
   17.0860    5.2540   10.9900 C   0  0  0  0  0  3  0  0  0  0  0  0
   16.3630    6.2690   11.5800 C   0  0  0  0  0  3  0  0  0  0  0  0
  1 10  1  0  0  0  0
  2  1  1  0  0  0  0
  2  3  2  0  0  0  0
  3  7  1  0  0  0  0
  3  4  1  0  0  0  0
  4  8  1  0  0  0  0
  4  5  1  0  0  0  0
  6  5  2  0  0  0  0
  7  6  1  0  0  0  0
  8  9  2  0  0  0  0
 10 11  2  0  0  0  0
 10  8  1  0  0  0  0
 12  1  1  0  0  0  0
 13 14  1  0  0  0  0
 13 12  1  0  0  0  0
 14 15  1  0  0  0  0
 16 13  2  0  0  0  0
 17 14  1  0  0  0  0
 18 17  2  0  0  0  0
 19 18  1  0  0  0  0
 20 19  2  0  0  0  0
 20 22  1  0  0  0  0
 21 20  1  0  0  0  0
 22 23  2  0  0  0  0
 23 17  1  0  0  0  0
 24 25  1  0  0  0  0
 24  7  1  0  0  0  0
 26 25  2  0  0  0  0
 27 26  1  0  0  0  0
 28 27  2  0  0  0  0
 28 29  1  0  0  0  0
 29 24  2  0  0  0  0
M  END
>  <Pose>
1

>  <Score>
-8.167

$$$$
