/Users/jonathanwahrer/Desktop/Msc/3_Semester/Drug_Design_Praktikum/waehrer_HTS_screening/HTS_experiment/out/docking_results/vina_output/2jam/0385_docked.pdbqt
 OpenBabel03162217353D

 32 35  0  0  1  0  0  0  0  0999 V2000
   10.2570    6.1960   11.2770 C   0  0  2  0  0  3  0  0  0  0  0  0
   11.5730    6.8820   11.0580 C   0  0  0  0  0  2  0  0  0  0  0  0
   11.9580    7.8180   12.1210 C   0  0  0  0  0  0  0  0  0  0  0  0
   13.1880    7.9770   12.3500 O   0  0  0  0  0  0  0  0  0  0  0  0
   10.9650    8.5100   12.8570 N   0  0  0  0  0  0  0  0  0  0  0  0
    9.6220    8.0740   12.8140 C   0  0  0  0  0  0  0  0  0  0  0  0
    8.6770    8.7660   13.5220 N   0  0  0  0  0  0  0  0  0  0  0  0
    7.3880    8.4190   13.5160 C   0  0  0  0  0  0  0  0  0  0  0  0
    7.0350    7.3540   12.7840 N   0  0  0  0  0  0  0  0  0  0  0  0
    7.9380    6.6290   12.0610 C   0  0  0  0  0  0  0  0  0  0  0  0
    9.2760    6.9680   12.0510 C   0  0  0  0  0  0  0  0  0  0  0  0
   11.1990    9.3580   13.4490 H   0  0  0  0  0  0  0  0  0  0  0  0
   10.6080    4.8590   11.9650 C   0  0  0  0  0  0  0  0  0  0  0  0
   11.0280    3.8370   11.2390 N   0  0  0  0  0  0  0  0  0  0  0  0
   10.9630    3.0280   12.3320 H   0  0  0  0  0  0  0  0  0  0  0  0
   10.4160    4.9670   13.2410 O   0  0  0  0  0  0  0  0  0  0  0  0
   11.4630    2.7750   10.4860 C   0  0  0  0  0  0  0  0  0  0  0  0
   10.4490    1.9430    9.9140 C   0  0  0  0  0  3  0  0  0  0  0  0
   10.7560    0.9160    9.0980 C   0  0  0  0  0  3  0  0  0  0  0  0
   12.0560    0.6150    8.7780 C   0  0  0  0  0  0  0  0  0  0  0  0
   12.4750   -0.8490    7.6090 Br  0  0  0  0  0  0  0  0  0  0  0  0
   13.0640    1.3900    9.3100 C   0  0  0  0  0  3  0  0  0  0  0  0
   12.7540    2.4390   10.1400 C   0  0  0  0  0  3  0  0  0  0  0  0
    7.5140    5.4960   11.3090 N   0  0  0  0  0  0  0  0  0  0  0  0
    7.1420    5.5610   10.3570 H   0  0  0  0  0  0  0  0  0  0  0  0
    7.5820    4.5460   11.7550 H   0  0  0  0  0  0  0  0  0  0  0  0
    6.4080    9.1640   14.2740 N   0  0  0  0  0  0  0  0  0  0  0  0
    6.6030    9.2460   15.6800 C   0  0  0  0  0  2  0  0  0  0  0  0
    5.8520   10.3630   16.3440 C   0  0  0  0  0  2  0  0  0  0  0  0
    5.1750   11.1650   15.4320 O   0  0  0  0  0  0  0  0  0  0  0  0
    4.3910   10.4150   14.5650 C   0  0  0  0  0  2  0  0  0  0  0  0
    5.3080    9.7740   13.5560 C   0  0  0  0  0  2  0  0  0  0  0  0
  1 13  1  1  0  0  0
  1 11  1  0  0  0  0
  2  1  1  0  0  0  0
  2  3  1  0  0  0  0
  3  4  2  0  0  0  0
  3  5  1  0  0  0  0
  5 12  1  0  0  0  0
  6  5  1  0  0  0  0
  6  7  1  0  0  0  0
  8  7  2  0  0  0  0
  8 27  1  0  0  0  0
  9  8  1  0  0  0  0
 10  9  2  0  0  0  0
 11 10  1  0  0  0  0
 11  6  2  0  0  0  0
 13 16  2  0  0  0  0
 14 13  1  0  0  0  0
 14 15  1  0  0  0  0
 17 14  1  0  0  0  0
 18 17  2  0  0  0  0
 19 18  1  0  0  0  0
 20 19  2  0  0  0  0
 20 22  1  0  0  0  0
 21 20  1  0  0  0  0
 22 23  2  0  0  0  0
 23 17  1  0  0  0  0
 24 26  1  0  0  0  0
 24 10  1  0  0  0  0
 25 24  1  0  0  0  0
 27 28  1  0  0  0  0
 28 29  1  0  0  0  0
 30 29  1  0  0  0  0
 31 30  1  0  0  0  0
 32 27  1  0  0  0  0
 32 31  1  0  0  0  0
M  END
>  <Pose>
1

>  <Score>
-8.787

$$$$
