/Users/jonathanwahrer/Desktop/Msc/3_Semester/Drug_Design_Praktikum/waehrer_HTS_screening/HTS_experiment/out/docking_results/vina_output/2jam/0386_docked.pdbqt
 OpenBabel03162217353D

 36 39  0  0  1  0  0  0  0  0999 V2000
   12.1730    6.0040   10.9950 C   0  0  2  0  0  3  0  0  0  0  0  0
   13.0520    5.3080   12.0170 C   0  0  0  0  0  2  0  0  0  0  0  0
   13.4530    6.3210   13.0400 C   0  0  0  0  0  0  0  0  0  0  0  0
   14.6180    6.4420   13.3740 O   0  0  0  0  0  0  0  0  0  0  0  0
   12.4240    7.1050   13.5800 N   0  0  0  0  0  0  0  0  0  0  0  0
   11.2020    7.2720   12.8890 C   0  0  0  0  0  0  0  0  0  0  0  0
   10.1690    7.9410   13.4410 N   0  0  0  0  0  0  0  0  0  0  0  0
    8.9560    8.0680   12.9020 C   0  0  0  0  0  0  0  0  0  0  0  0
    8.7940    7.4570   11.7000 N   0  0  0  0  0  0  0  0  0  0  0  0
    9.7890    6.7680   11.0840 C   0  0  0  0  0  0  0  0  0  0  0  0
   11.0290    6.6430   11.6330 C   0  0  0  0  0  0  0  0  0  0  0  0
   12.5060    7.5950   14.5110 H   0  0  0  0  0  0  0  0  0  0  0  0
   11.9810    5.2360    9.7350 C   0  0  0  0  0  0  0  0  0  0  0  0
   11.7080    3.9170    9.7280 N   0  0  0  0  0  0  0  0  0  0  0  0
   11.5310    3.9510    8.3930 H   0  0  0  0  0  0  0  0  0  0  0  0
   12.1120    6.0360    8.7110 O   0  0  0  0  0  0  0  0  0  0  0  0
   11.4310    2.5730    9.7200 C   0  0  0  0  0  0  0  0  0  0  0  0
   12.5800    1.7390    9.5320 C   0  0  0  0  0  3  0  0  0  0  0  0
   12.3780    0.4020    9.4440 C   0  0  0  0  0  3  0  0  0  0  0  0
   11.1280   -0.1860    9.5280 C   0  0  0  0  0  0  0  0  0  0  0  0
   10.9620   -2.0670    9.3920 Br  0  0  0  0  0  0  0  0  0  0  0  0
   10.0230    0.5960    9.7070 C   0  0  0  0  0  3  0  0  0  0  0  0
   10.2050    1.9570    9.7990 C   0  0  0  0  0  3  0  0  0  0  0  0
    9.5360    6.1680    9.8540 O   0  0  0  0  0  0  0  0  0  0  0  0
   10.2240    5.5860    9.3800 H   0  0  0  0  0  0  0  0  0  0  0  0
    7.9050    8.8190   13.4780 N   0  0  0  0  0  0  0  0  0  0  0  0
    7.3430   10.0420   12.9670 C   0  0  0  0  0  2  0  0  0  0  0  0
    5.8350   10.0090   13.1970 C   0  0  0  0  0  2  0  0  0  0  0  0
    5.2910    8.6110   13.1880 C   0  0  2  0  0  3  0  0  0  0  0  0
    5.9140    7.7740   14.2490 C   0  0  0  0  0  2  0  0  0  0  0  0
    7.2800    8.3300   14.7120 C   0  0  0  0  0  2  0  0  0  0  0  0
    5.3690    7.9930   11.8430 C   0  0  0  0  0  0  0  0  0  0  0  0
    4.9500    8.6590   10.8740 O   0  0  0  0  0  0  0  0  0  0  0  0
    5.8820    6.7000   11.5990 N   0  0  0  0  0  0  0  0  0  0  0  0
    6.6790    6.3050   12.1310 H   0  0  0  0  0  0  0  0  0  0  0  0
    5.4400    6.1200   10.8560 H   0  0  0  0  0  0  0  0  0  0  0  0
  1 13  1  6  0  0  0
  1 11  1  0  0  0  0
  1  2  1  0  0  0  0
  2  3  1  0  0  0  0
  3  4  2  0  0  0  0
  3  5  1  0  0  0  0
  5 12  1  0  0  0  0
  6  7  1  0  0  0  0
  6  5  1  0  0  0  0
  8  7  2  0  0  0  0
  8 26  1  0  0  0  0
  9  8  1  0  0  0  0
 10 11  1  0  0  0  0
 10  9  2  0  0  0  0
 11  6  2  0  0  0  0
 14 13  1  0  0  0  0
 15 14  1  0  0  0  0
 16 13  2  0  0  0  0
 17 14  1  0  0  0  0
 17 23  1  0  0  0  0
 18 17  2  0  0  0  0
 19 20  2  0  0  0  0
 19 18  1  0  0  0  0
 20 22  1  0  0  0  0
 21 20  1  0  0  0  0
 22 23  2  0  0  0  0
 24 10  1  0  0  0  0
 25 24  1  0  0  0  0
 26 31  1  0  0  0  0
 27 28  1  0  0  0  0
 27 26  1  0  0  0  0
 29 32  1  6  0  0  0
 29 28  1  0  0  0  0
 29 30  1  0  0  0  0
 30 31  1  0  0  0  0
 33 32  2  0  0  0  0
 34 32  1  0  0  0  0
 34 35  1  0  0  0  0
 36 34  1  0  0  0  0
M  END
>  <Pose>
1

>  <Score>
-8.578

$$$$
