/Users/jonathanwahrer/Desktop/Msc/3_Semester/Drug_Design_Praktikum/waehrer_HTS_screening/HTS_experiment/out/docking_results/vina_output/2jam/0393_docked.pdbqt
 OpenBabel03162217353D

 27 30  0  0  0  0  0  0  0  0999 V2000
   15.0410    3.0670   10.8530 N   0  0  0  0  0  0  0  0  0  0  0  0
   16.3320    3.0360   11.0710 N   0  0  0  0  0  0  0  0  0  0  0  0
   16.7390    4.0220   11.8950 C   0  0  0  0  0  3  0  0  0  0  0  0
   15.6130    4.7270   12.2190 C   0  0  0  0  0  0  0  0  0  0  0  0
   14.5690    4.1150   11.5590 C   0  0  0  0  0  0  0  0  0  0  0  0
   15.5730    5.8920   13.0950 C   0  0  0  0  0  0  0  0  0  0  0  0
   15.4420    5.6650   14.3220 O   0  0  0  0  0  0  0  0  0  0  0  0
   15.6730    7.2210   12.6300 N   0  0  0  0  0  0  0  0  0  0  0  0
   15.6220    8.3030   13.5830 C   0  0  0  0  0  2  0  0  0  0  0  0
   15.8250    7.6080   11.2460 C   0  0  0  0  0  2  0  0  0  0  0  0
   16.9660    8.9660   13.6030 C   0  0  0  0  0  2  0  0  0  0  0  0
   17.7280    8.7040   12.3870 N   0  0  0  0  0  0  0  0  0  0  0  0
   17.1080    8.3430   11.1580 C   0  0  0  0  0  0  0  0  0  0  0  0
   18.7870    8.7920   12.4440 H   0  0  0  0  0  0  0  0  0  0  0  0
   17.6540    8.6490   10.0690 O   0  0  0  0  0  0  0  0  0  0  0  0
   13.1810    4.5170   11.6040 N   0  0  0  0  0  0  0  0  0  0  0  0
   12.2260    4.0880   12.4150 C   0  0  0  0  0  3  0  0  0  0  0  0
   11.0360    4.7180   12.1360 C   0  0  0  0  0  3  0  0  0  0  0  0
   11.3110    5.5710   11.0940 C   0  0  0  0  0  3  0  0  0  0  0  0
   12.6450    5.4320   10.7790 C   0  0  0  0  0  3  0  0  0  0  0  0
   14.3130    2.1560   10.0250 C   0  0  0  0  0  0  0  0  0  0  0  0
   13.2050    1.4710   10.4880 C   0  0  0  0  0  3  0  0  0  0  0  0
   12.4870    0.5870    9.7090 C   0  0  0  0  0  3  0  0  0  0  0  0
   12.8710    0.3570    8.4040 C   0  0  0  0  0  0  0  0  0  0  0  0
   11.8910   -0.8630    7.3050 Br  0  0  0  0  0  0  0  0  0  0  0  0
   13.9780    1.0330    7.9240 C   0  0  0  0  0  3  0  0  0  0  0  0
   14.6860    1.9150    8.7150 C   0  0  0  0  0  3  0  0  0  0  0  0
  1  2  1  0  0  0  0
  1  5  1  0  0  0  0
  2  3  2  0  0  0  0
  3  4  1  0  0  0  0
  4  6  1  0  0  0  0
  5 16  1  0  0  0  0
  5  4  2  0  0  0  0
  6  7  2  0  0  0  0
  8  6  1  0  0  0  0
  8  9  1  0  0  0  0
  9 11  1  0  0  0  0
 10  8  1  0  0  0  0
 12 14  1  0  0  0  0
 12 11  1  0  0  0  0
 13 10  1  0  0  0  0
 13 12  1  0  0  0  0
 15 13  2  0  0  0  0
 16 17  1  0  0  0  0
 18 17  2  0  0  0  0
 19 18  1  0  0  0  0
 20 19  2  0  0  0  0
 20 16  1  0  0  0  0
 21 22  1  0  0  0  0
 21  1  1  0  0  0  0
 23 22  2  0  0  0  0
 24 23  1  0  0  0  0
 25 24  1  0  0  0  0
 26 24  2  0  0  0  0
 26 27  1  0  0  0  0
 27 21  2  0  0  0  0
M  END
>  <Pose>
1

>  <Score>
-7.765

$$$$
