/Users/jonathanwahrer/Desktop/Msc/3_Semester/Drug_Design_Praktikum/waehrer_HTS_screening/HTS_experiment/out/docking_results/vina_output/2jam/0408_docked.pdbqt
 OpenBabel03162217363D

 31 34  0  0  0  0  0  0  0  0999 V2000
   15.3880    5.4780   11.8630 N   0  0  0  0  0  0  0  0  0  0  0  0
   14.2070    4.8410   11.9280 C   0  0  0  0  0  0  0  0  0  0  0  0
   14.0810    3.6210   12.2560 O   0  0  0  0  0  0  0  0  0  0  0  0
   13.1570    5.6960   11.5910 C   0  0  0  0  0  0  0  0  0  0  0  0
   13.7280    6.8660   11.3200 C   0  0  0  0  0  0  0  0  0  0  0  0
   12.7010    7.6730   10.9980 N   0  0  0  0  0  0  0  0  0  0  0  0
   11.5570    7.0130   11.0730 N   0  0  0  0  0  0  0  0  0  0  0  0
   11.8300    5.7850   11.4410 N   0  0  0  0  0  0  0  0  0  0  0  0
   15.0940    6.7420   11.4840 C   0  0  0  0  0  0  0  0  0  0  0  0
   15.9580    7.6310   11.3190 O   0  0  0  0  0  0  0  0  0  0  0  0
   12.8590    8.6790   10.7340 H   0  0  0  0  0  0  0  0  0  0  0  0
   10.6310    7.4510   10.8630 H   0  0  0  0  0  0  0  0  0  0  0  0
   10.8960    4.7080   11.6510 C   0  0  0  0  0  2  0  0  0  0  0  0
   10.9360    3.7070   10.5340 C   0  0  0  0  0  0  0  0  0  0  0  0
   10.4080    4.0990    9.4670 O   0  0  0  0  0  0  0  0  0  0  0  0
   11.5140    2.4430   10.6780 N   0  0  0  0  0  0  0  0  0  0  0  0
   11.9250    2.2520   11.6520 H   0  0  0  0  0  0  0  0  0  0  0  0
   11.6050    1.4370    9.7080 C   0  0  0  0  0  0  0  0  0  0  0  0
   12.8290    1.3070    9.0320 C   0  0  0  0  0  0  0  0  0  0  0  0
   12.9630    0.3350    8.0740 C   0  0  0  0  0  3  0  0  0  0  0  0
   13.9710    2.1940    9.3300 C   0  0  0  0  0  1  0  0  0  0  0  0
   11.9450   -0.5320    7.7390 C   0  0  0  0  0  3  0  0  0  0  0  0
   10.7540   -0.4120    8.3910 C   0  0  0  0  0  3  0  0  0  0  0  0
   10.6070    0.5630    9.3560 C   0  0  0  0  0  3  0  0  0  0  0  0
   16.6790    4.9400   12.1350 C   0  0  0  0  0  0  0  0  0  0  0  0
   17.2140    3.9530   11.3250 C   0  0  0  0  0  3  0  0  0  0  0  0
   18.4640    3.4160   11.5700 C   0  0  0  0  0  3  0  0  0  0  0  0
   19.2280    3.8430   12.6350 C   0  0  0  0  0  0  0  0  0  0  0  0
   20.9640    3.0950   12.9720 Br  0  0  0  0  0  0  0  0  0  0  0  0
   18.7050    4.8240   13.4470 C   0  0  0  0  0  3  0  0  0  0  0  0
   17.4600    5.3530   13.1960 C   0  0  0  0  0  3  0  0  0  0  0  0
  1  2  1  0  0  0  0
  1 25  1  0  0  0  0
  2  3  2  0  0  0  0
  4  2  1  0  0  0  0
  5  9  1  0  0  0  0
  5  4  2  0  0  0  0
  6  7  1  0  0  0  0
  6  5  1  0  0  0  0
  7  8  1  0  0  0  0
  8  4  1  0  0  0  0
  8 13  1  0  0  0  0
  9  1  1  0  0  0  0
 10  9  2  0  0  0  0
 11  6  1  0  0  0  0
 12  7  1  0  0  0  0
 14 16  1  0  0  0  0
 14 13  1  0  0  0  0
 15 14  2  0  0  0  0
 16 17  1  0  0  0  0
 18 16  1  0  0  0  0
 19 21  1  0  0  0  0
 19 18  2  0  0  0  0
 20 19  1  0  0  0  0
 22 20  2  0  0  0  0
 22 23  1  0  0  0  0
 23 24  2  0  0  0  0
 24 18  1  0  0  0  0
 25 31  1  0  0  0  0
 26 27  1  0  0  0  0
 26 25  2  0  0  0  0
 27 28  2  0  0  0  0
 28 29  1  0  0  0  0
 28 30  1  0  0  0  0
 31 30  2  0  0  0  0
M  END
>  <Pose>
1

>  <Score>
-8.910

$$$$
