/Users/jonathanwahrer/Desktop/Msc/3_Semester/Drug_Design_Praktikum/waehrer_HTS_screening/HTS_experiment/out/docking_results/vina_output/2jam/0414_docked.pdbqt
 OpenBabel03162217373D

 35 38  0  0  0  0  0  0  0  0999 V2000
   13.5480    1.3330    9.3610 N   0  0  0  0  0  0  0  0  0  0  0  0
   13.5290    2.1470   10.4470 C   0  0  0  0  0  0  0  0  0  0  0  0
   12.5440    2.3310   11.2280 O   0  0  0  0  0  0  0  0  0  0  0  0
   14.7610    2.7620   10.5870 C   0  0  0  0  0  0  0  0  0  0  0  0
   15.5040    2.3070    9.5800 C   0  0  0  0  0  0  0  0  0  0  0  0
   16.7190    2.8960    9.6940 N   0  0  0  0  0  0  0  0  0  0  0  0
   16.6790    3.6870   10.7630 N   0  0  0  0  0  0  0  0  0  0  0  0
   15.4920    3.6300   11.3360 N   0  0  0  0  0  0  0  0  0  0  0  0
   14.7700    1.4290    8.8190 C   0  0  0  0  0  0  0  0  0  0  0  0
   15.1500    0.8150    7.7980 O   0  0  0  0  0  0  0  0  0  0  0  0
   17.5260    2.7460    9.0550 H   0  0  0  0  0  0  0  0  0  0  0  0
   17.4730    4.2630   11.0920 H   0  0  0  0  0  0  0  0  0  0  0  0
   15.0060    4.3250   12.5220 C   0  0  0  0  0  2  0  0  0  0  0  0
   13.8540    5.2190   12.1320 C   0  0  0  0  0  0  0  0  0  0  0  0
   14.2010    6.1350   11.3450 O   0  0  0  0  0  0  0  0  0  0  0  0
   12.5800    4.9750   12.6410 N   0  0  0  0  0  0  0  0  0  0  0  0
   12.5000    4.1370   13.3000 H   0  0  0  0  0  0  0  0  0  0  0  0
   11.3970    5.7100   12.3810 C   0  0  0  0  0  0  0  0  0  0  0  0
   10.4110    5.3370   11.4990 C   0  0  0  0  0  3  0  0  0  0  0  0
    9.2670    6.1210   11.2960 C   0  0  0  0  0  3  0  0  0  0  0  0
    9.0800    7.3020   11.9740 C   0  0  0  0  0  0  0  0  0  0  0  0
   10.0600    7.6840   12.8580 C   0  0  0  0  0  3  0  0  0  0  0  0
   11.1860    6.9100   13.0560 C   0  0  0  0  0  3  0  0  0  0  0  0
    7.8740    8.0860   11.7310 C   0  0  0  0  0  0  0  0  0  0  0  0
    7.9720    9.1210   11.0250 O   0  0  0  0  0  0  0  0  0  0  0  0
    6.6370    7.7720   12.2210 O   0  0  0  0  0  0  0  0  0  0  0  0
    5.5010    8.5880   12.1870 C   0  0  0  0  0  2  0  0  0  0  0  0
    4.7660    8.2570   10.8810 C   0  0  0  0  0  1  0  0  0  0  0  0
   12.4310    0.5540    8.9380 C   0  0  0  0  0  0  0  0  0  0  0  0
   12.5680   -0.3100    7.8630 C   0  0  0  0  0  3  0  0  0  0  0  0
   11.5250   -1.0690    7.4320 C   0  0  0  0  0  3  0  0  0  0  0  0
   10.2890   -1.0160    8.0420 C   0  0  0  0  0  0  0  0  0  0  0  0
    8.8040   -2.0590    7.4740 Br  0  0  0  0  0  0  0  0  0  0  0  0
   10.1670   -0.1540    9.1090 C   0  0  0  0  0  3  0  0  0  0  0  0
   11.2080    0.6160    9.5540 C   0  0  0  0  0  3  0  0  0  0  0  0
  1  2  1  0  0  0  0
  2  4  1  0  0  0  0
  2  3  2  0  0  0  0
  4  8  1  0  0  0  0
  5  6  1  0  0  0  0
  5  4  2  0  0  0  0
  6  7  1  0  0  0  0
  7 12  1  0  0  0  0
  7  8  1  0  0  0  0
  8 13  1  0  0  0  0
  9  1  1  0  0  0  0
  9  5  1  0  0  0  0
 10  9  2  0  0  0  0
 11  6  1  0  0  0  0
 14 13  1  0  0  0  0
 14 16  1  0  0  0  0
 15 14  2  0  0  0  0
 16 17  1  0  0  0  0
 18 16  1  0  0  0  0
 18 23  1  0  0  0  0
 19 18  2  0  0  0  0
 20 19  1  0  0  0  0
 20 21  2  0  0  0  0
 21 22  1  0  0  0  0
 22 23  2  0  0  0  0
 24 21  1  0  0  0  0
 24 26  1  0  0  0  0
 25 24  2  0  0  0  0
 27 26  1  0  0  0  0
 28 27  1  0  0  0  0
 29  1  1  0  0  0  0
 29 35  1  0  0  0  0
 30 29  2  0  0  0  0
 31 30  1  0  0  0  0
 31 32  2  0  0  0  0
 32 34  1  0  0  0  0
 33 32  1  0  0  0  0
 34 35  2  0  0  0  0
M  END
>  <Pose>
1

>  <Score>
-9.622

$$$$
