/Users/jonathanwahrer/Desktop/Msc/3_Semester/Drug_Design_Praktikum/waehrer_HTS_screening/HTS_experiment/out/docking_results/vina_output/2jam/0416_docked.pdbqt
 OpenBabel03162217383D

 33 36  0  0  0  0  0  0  0  0999 V2000
   13.3970    1.2410    9.3540 N   0  0  0  0  0  0  0  0  0  0  0  0
   13.3570    2.0910   10.4180 C   0  0  0  0  0  0  0  0  0  0  0  0
   12.3340    2.2820   11.1180 O   0  0  0  0  0  0  0  0  0  0  0  0
   14.5790    2.6990   10.6090 C   0  0  0  0  0  0  0  0  0  0  0  0
   15.3720    2.2220    9.6620 C   0  0  0  0  0  0  0  0  0  0  0  0
   16.5760    2.8000    9.8230 N   0  0  0  0  0  0  0  0  0  0  0  0
   16.5020    3.6190   10.8620 N   0  0  0  0  0  0  0  0  0  0  0  0
   15.2850    3.5810   11.3710 N   0  0  0  0  0  0  0  0  0  0  0  0
   14.6540    1.3320    8.8950 C   0  0  0  0  0  0  0  0  0  0  0  0
   15.0800    0.6750    7.8940 O   0  0  0  0  0  0  0  0  0  0  0  0
   17.4320    2.6540    9.2590 H   0  0  0  0  0  0  0  0  0  0  0  0
   17.3070    4.2090   11.2230 H   0  0  0  0  0  0  0  0  0  0  0  0
   14.7680    4.3150   12.4880 C   0  0  0  0  0  2  0  0  0  0  0  0
   13.5290    5.1150   12.1600 C   0  0  0  0  0  0  0  0  0  0  0  0
   13.7100    6.1180   11.4350 O   0  0  0  0  0  0  0  0  0  0  0  0
   12.2700    4.7510   12.6320 N   0  0  0  0  0  0  0  0  0  0  0  0
   12.2510    3.8680   13.2540 H   0  0  0  0  0  0  0  0  0  0  0  0
   11.0170    5.3540   12.4290 C   0  0  0  0  0  0  0  0  0  0  0  0
   10.2290    4.9780   11.3420 C   0  0  0  0  0  3  0  0  0  0  0  0
    9.0100    5.5530   11.0960 C   0  0  0  0  0  3  0  0  0  0  0  0
    8.5170    6.5480   11.9410 C   0  0  0  0  0  0  0  0  0  0  0  0
    9.3160    6.8950   13.0030 C   0  0  0  0  0  3  0  0  0  0  0  0
   10.5400    6.3200   13.2560 C   0  0  0  0  0  3  0  0  0  0  0  0
    7.2910    7.1000   11.6550 O   0  0  0  0  0  0  0  0  0  0  0  0
    6.7650    8.2780   12.1750 C   0  0  0  0  0  2  0  0  0  0  0  0
    7.1790    9.5120   11.4490 C   0  0  0  0  0  1  0  0  0  0  0  0
   12.3400    0.4370    8.8370 C   0  0  0  0  0  0  0  0  0  0  0  0
   12.4570   -0.3470    7.7080 C   0  0  0  0  0  3  0  0  0  0  0  0
   11.4020   -1.1120    7.2340 C   0  0  0  0  0  3  0  0  0  0  0  0
   10.1790   -1.1250    7.8720 C   0  0  0  0  0  0  0  0  0  0  0  0
    8.7120   -2.1670    7.2350 Br  0  0  0  0  0  0  0  0  0  0  0  0
   10.0660   -0.3360    9.0090 C   0  0  0  0  0  3  0  0  0  0  0  0
   11.1160    0.4250    9.4800 C   0  0  0  0  0  3  0  0  0  0  0  0
  1  2  1  0  0  0  0
  2  4  1  0  0  0  0
  2  3  2  0  0  0  0
  4  8  1  0  0  0  0
  5  6  1  0  0  0  0
  5  4  2  0  0  0  0
  6  7  1  0  0  0  0
  7 12  1  0  0  0  0
  7  8  1  0  0  0  0
  8 13  1  0  0  0  0
  9  1  1  0  0  0  0
  9  5  1  0  0  0  0
 10  9  2  0  0  0  0
 11  6  1  0  0  0  0
 14 13  1  0  0  0  0
 14 16  1  0  0  0  0
 15 14  2  0  0  0  0
 16 17  1  0  0  0  0
 18 16  1  0  0  0  0
 18 23  1  0  0  0  0
 19 18  2  0  0  0  0
 20 19  1  0  0  0  0
 20 21  2  0  0  0  0
 21 22  1  0  0  0  0
 22 23  2  0  0  0  0
 24 21  1  0  0  0  0
 24 25  1  0  0  0  0
 26 25  1  0  0  0  0
 27  1  1  0  0  0  0
 27 33  1  0  0  0  0
 28 27  2  0  0  0  0
 29 28  1  0  0  0  0
 29 30  2  0  0  0  0
 30 32  1  0  0  0  0
 31 30  1  0  0  0  0
 32 33  2  0  0  0  0
M  END
>  <Pose>
1

>  <Score>
-9.599

$$$$
