/Users/jonathanwahrer/Desktop/Msc/3_Semester/Drug_Design_Praktikum/waehrer_HTS_screening/HTS_experiment/out/docking_results/vina_output/2jam/0421_docked.pdbqt
 OpenBabel03162217383D

 28 31  0  0  0  0  0  0  0  0999 V2000
   11.7500    3.9980   11.0910 N   0  0  0  0  0  0  0  0  0  0  0  0
   10.6160    4.7300   11.1580 C   0  0  0  0  0  0  0  0  0  0  0  0
    9.5350    4.5460   10.5110 O   0  0  0  0  0  0  0  0  0  0  0  0
   10.7540    5.7700   12.0580 C   0  0  0  0  0  0  0  0  0  0  0  0
   11.9950    5.6530   12.5360 C   0  0  0  0  0  0  0  0  0  0  0  0
   12.1330    6.6710   13.4190 N   0  0  0  0  0  0  0  0  0  0  0  0
   11.0030    7.3570   13.4510 N   0  0  0  0  0  0  0  0  0  0  0  0
   10.1280    6.8220   12.6160 N   0  0  0  0  0  0  0  0  0  0  0  0
   12.6130    4.5690   11.9480 C   0  0  0  0  0  0  0  0  0  0  0  0
   13.7780    4.1420   12.1420 O   0  0  0  0  0  0  0  0  0  0  0  0
   13.0080    6.8600   13.9750 H   0  0  0  0  0  0  0  0  0  0  0  0
   10.7870    8.2070   14.0340 H   0  0  0  0  0  0  0  0  0  0  0  0
    8.7920    7.2750   12.3660 C   0  0  0  0  0  0  0  0  0  0  0  0
    7.7090    6.4430   12.5630 C   0  0  0  0  0  3  0  0  0  0  0  0
    6.4020    6.8550   12.3310 C   0  0  0  0  0  3  0  0  0  0  0  0
    6.1510    8.1350   11.8860 C   0  0  0  0  0  0  0  0  0  0  0  0
    7.2310    8.9680   11.6880 C   0  0  0  0  0  3  0  0  0  0  0  0
    8.5340    8.5550   11.9220 C   0  0  0  0  0  3  0  0  0  0  0  0
    4.8220    8.5860   11.6380 N   0  0  0  0  0  0  0  0  0  0  0  0
    4.1550    9.1900   12.4990 O   0  0  0  0  0  0  0  0  0  0  0  0
    4.2570    8.3520   10.4240 O   0  0  0  0  0  0  0  0  0  0  0  0
   11.9630    2.8480   10.2630 C   0  0  0  0  0  0  0  0  0  0  0  0
   13.1050    2.6800    9.5080 C   0  0  0  0  0  3  0  0  0  0  0  0
   13.2820    1.5510    8.7130 C   0  0  0  0  0  3  0  0  0  0  0  0
   12.3210    0.5630    8.6570 C   0  0  0  0  0  0  0  0  0  0  0  0
   12.5460   -0.9980    7.5700 Br  0  0  0  0  0  0  0  0  0  0  0  0
   11.1780    0.7270    9.4120 C   0  0  0  0  0  3  0  0  0  0  0  0
   11.0110    1.8510   10.1970 C   0  0  0  0  0  3  0  0  0  0  0  0
  1  2  1  0  0  0  0
  1  9  1  0  0  0  0
  2  4  1  0  0  0  0
  3  2  2  0  0  0  0
  4  5  2  0  0  0  0
  4  8  1  0  0  0  0
  5  6  1  0  0  0  0
  6  7  1  0  0  0  0
  6 11  1  0  0  0  0
  7 12  1  0  0  0  0
  8  7  1  0  0  0  0
  9 10  2  0  0  0  0
  9  5  1  0  0  0  0
 13 14  1  0  0  0  0
 13  8  1  0  0  0  0
 15 14  2  0  0  0  0
 16 15  1  0  0  0  0
 17 16  2  0  0  0  0
 17 18  1  0  0  0  0
 18 13  2  0  0  0  0
 19 16  1  0  0  0  0
 19 20  2  0  0  0  0
 21 19  2  0  0  0  0
 22  1  1  0  0  0  0
 23 22  2  0  0  0  0
 24 23  1  0  0  0  0
 25 24  2  0  0  0  0
 25 27  1  0  0  0  0
 26 25  1  0  0  0  0
 27 28  2  0  0  0  0
 28 22  1  0  0  0  0
M  END
>  <Pose>
1

>  <Score>
-8.765

$$$$
