/Users/jonathanwahrer/Desktop/Msc/3_Semester/Drug_Design_Praktikum/waehrer_HTS_screening/HTS_experiment/out/docking_results/vina_output/2jam/0428_docked.pdbqt
 OpenBabel03162217383D

 28 31  0  0  1  0  0  0  0  0999 V2000
    5.0490    8.6750   14.3660 N   0  0  0  0  0  0  0  0  0  0  0  0
    3.9710    9.0090   13.4720 C   0  0  0  0  0  0  0  0  0  0  0  0
    2.9100    9.5090   13.9370 O   0  0  0  0  0  0  0  0  0  0  0  0
    4.1700    8.7520   12.1000 N   0  0  0  0  0  2  0  0  0  0  0  0
    5.2270    8.2510   11.6100 C   0  0  0  0  0  0  0  0  0  0  0  0
    6.4350    7.8460   12.3710 C   0  0  1  0  0  0  0  0  0  0  0  0
    6.7280    6.4200   12.0540 C   0  0  0  0  0  2  0  0  0  0  0  0
    8.0810    6.0050   12.1390 N   0  0  0  0  0  4  0  0  0  0  0  0
    8.9690    6.9140   12.7490 C   0  0  0  0  0  0  0  0  0  0  0  0
    8.7720    8.2940   12.6190 C   0  0  0  0  0  0  0  0  0  0  0  0
    9.6430    9.1600   13.2180 C   0  0  0  0  0  3  0  0  0  0  0  0
   10.7300    8.7570   13.9600 C   0  0  0  0  0  0  0  0  0  0  0  0
   10.9200    7.3970   14.0850 C   0  0  0  0  0  3  0  0  0  0  0  0
   10.0520    6.4920   13.4880 C   0  0  0  0  0  3  0  0  0  0  0  0
   11.6530    9.7260   14.5960 C   0  0  0  0  0  1  0  0  0  0  0  0
    7.5870    8.6850   11.8120 C   0  0  0  0  0  2  0  0  0  0  0  0
    8.6130    5.5630   10.8390 C   0  0  0  0  0  1  0  0  0  0  0  0
    6.2330    8.1120   13.8110 C   0  0  0  0  0  0  0  0  0  0  0  0
    7.1480    7.8380   14.6570 O   0  0  0  0  0  0  0  0  0  0  0  0
    5.2910    8.0480   10.2150 O   0  0  0  0  0  0  0  0  0  0  0  0
    8.1070    5.1240   12.7350 H   0  0  0  0  0  0  0  0  0  0  0  0
    4.9230    8.9060   15.7610 C   0  0  0  0  0  0  0  0  0  0  0  0
    4.1910    8.0050   16.5000 C   0  0  0  0  0  3  0  0  0  0  0  0
    4.0140    8.1540   17.8710 C   0  0  0  0  0  3  0  0  0  0  0  0
    4.5810    9.2240   18.5100 C   0  0  0  0  0  0  0  0  0  0  0  0
    4.3330    9.4200   20.3910 Br  0  0  0  0  0  0  0  0  0  0  0  0
    5.3230   10.1450   17.7890 C   0  0  0  0  0  3  0  0  0  0  0  0
    5.4850    9.9750   16.4240 C   0  0  0  0  0  3  0  0  0  0  0  0
  1 22  1  0  0  0  0
  2  3  2  0  0  0  0
  2  1  1  0  0  0  0
  4  2  1  0  0  0  0
  5  4  1  0  0  0  0
  5  6  1  0  0  0  0
  6 16  1  6  0  0  0
  6 18  1  0  0  0  0
  7  8  1  0  0  0  0
  7  6  1  0  0  0  0
  8 21  1  0  0  0  0
  8  9  1  0  0  0  0
  9 14  1  0  0  0  0
 10  9  2  0  0  0  0
 10 11  1  0  0  0  0
 11 12  2  0  0  0  0
 12 13  1  0  0  0  0
 12 15  1  0  0  0  0
 14 13  2  0  0  0  0
 16 10  1  0  0  0  0
 17  8  1  0  0  0  0
 18  1  1  0  0  0  0
 18 19  2  0  0  0  0
 20  5  2  0  0  0  0
 22 28  2  0  0  0  0
 22 23  1  0  0  0  0
 23 24  2  0  0  0  0
 24 25  1  0  0  0  0
 25 26  1  0  0  0  0
 27 25  2  0  0  0  0
 28 27  1  0  0  0  0
M  END
>  <Pose>
1

>  <Score>
-8.741

$$$$
