/Users/jonathanwahrer/Desktop/Msc/3_Semester/Drug_Design_Praktikum/waehrer_HTS_screening/HTS_experiment/out/docking_results/vina_output/2jam/0436_docked.pdbqt
 OpenBabel03162217393D

 29 32  0  0  0  0  0  0  0  0999 V2000
   12.9270    1.1420    8.7860 N   0  0  0  0  0  0  0  0  0  0  0  0
   14.2160    0.7940    8.2230 C   0  0  0  0  0  2  0  0  0  0  0  0
   15.3280    1.7080    8.6840 C   0  0  0  0  0  2  0  0  0  0  0  0
   15.1490    1.8960   10.1980 C   0  0  0  0  0  2  0  0  0  0  0  0
   13.9640    2.7010   10.3360 N   0  0  0  0  0  0  0  0  0  0  0  0
   12.8730    2.2950    9.6160 C   0  0  0  0  0  0  0  0  0  0  0  0
   11.8650    3.1500    9.8560 N   0  0  0  0  0  0  0  0  0  0  0  0
   12.3420    4.0770   10.7240 C   0  0  0  0  0  0  0  0  0  0  0  0
   13.6650    3.8010   11.0320 C   0  0  0  0  0  0  0  0  0  0  0  0
   14.3700    4.6120   11.9010 C   0  0  0  0  0  0  0  0  0  0  0  0
   15.5860    4.3230   12.1590 O   0  0  0  0  0  0  0  0  0  0  0  0
   13.7600    5.6770   12.4500 N   0  0  0  0  0  0  0  0  0  0  0  0
   12.4760    5.9210   12.1340 C   0  0  0  0  0  0  0  0  0  0  0  0
   11.9430    6.9290   12.6710 O   0  0  0  0  0  0  0  0  0  0  0  0
   11.7770    5.1540   11.2980 N   0  0  0  0  0  0  0  0  0  0  0  0
   10.3880    5.4480   10.9780 C   0  0  0  0  0  1  0  0  0  0  0  0
   11.8050    0.3360    8.4900 C   0  0  0  0  0  0  0  0  0  0  0  0
   10.6140    0.3900    9.1770 C   0  0  0  0  0  3  0  0  0  0  0  0
    9.5590   -0.4480    8.8080 C   0  0  0  0  0  3  0  0  0  0  0  0
    9.6850   -1.3350    7.7600 C   0  0  0  0  0  0  0  0  0  0  0  0
    8.2810   -2.4800    7.2360 Br  0  0  0  0  0  0  0  0  0  0  0  0
   10.8770   -1.3940    7.0670 C   0  0  0  0  0  3  0  0  0  0  0  0
   11.8940   -0.5620    7.4510 C   0  0  0  0  0  3  0  0  0  0  0  0
   14.4920    6.5340   13.3660 C   0  0  0  0  0  2  0  0  0  0  0  0
   15.2870    7.5210   12.5630 C   0  0  0  0  0  0  0  0  0  0  0  0
   16.4910    7.7400   12.8330 O   0  0  0  0  0  0  0  0  0  0  0  0
   14.7070    8.2290   11.4850 N   0  0  0  0  0  0  0  0  0  0  0  0
   15.2350    8.4600   10.6130 H   0  0  0  0  0  0  0  0  0  0  0  0
   13.7090    8.5530   11.5180 H   0  0  0  0  0  0  0  0  0  0  0  0
  1  6  1  0  0  0  0
  2  3  1  0  0  0  0
  2  1  1  0  0  0  0
  3  4  1  0  0  0  0
  4  5  1  0  0  0  0
  5  9  1  0  0  0  0
  6  7  2  0  0  0  0
  6  5  1  0  0  0  0
  7  8  1  0  0  0  0
  8  9  2  0  0  0  0
  8 15  1  0  0  0  0
  9 10  1  0  0  0  0
 10 11  2  0  0  0  0
 10 12  1  0  0  0  0
 12 24  1  0  0  0  0
 13 12  1  0  0  0  0
 13 14  2  0  0  0  0
 15 13  1  0  0  0  0
 16 15  1  0  0  0  0
 17  1  1  0  0  0  0
 17 18  1  0  0  0  0
 19 18  2  0  0  0  0
 20 19  1  0  0  0  0
 21 20  1  0  0  0  0
 22 23  1  0  0  0  0
 22 20  2  0  0  0  0
 23 17  2  0  0  0  0
 25 26  2  0  0  0  0
 25 24  1  0  0  0  0
 27 29  1  0  0  0  0
 27 25  1  0  0  0  0
 28 27  1  0  0  0  0
M  END
>  <Pose>
1

>  <Score>
-8.689

$$$$
