/Users/jonathanwahrer/Desktop/Msc/3_Semester/Drug_Design_Praktikum/waehrer_HTS_screening/HTS_experiment/out/docking_results/vina_output/2jam/0439_docked.pdbqt
 OpenBabel03162217393D

 28 32  0  0  1  0  0  0  0  0999 V2000
   10.7420    4.6590   11.4250 N   0  0  0  0  0  0  0  0  0  0  0  0
   10.8770    4.8520   12.7330 N   0  0  0  0  0  0  0  0  0  0  0  0
   10.2890    6.0050   13.1020 C   0  0  0  0  0  0  0  0  0  0  0  0
   10.2350    6.5020   14.3310 C   0  0  0  0  0  1  0  0  0  0  0  0
    9.7420    6.5960   11.9810 C   0  0  0  0  0  0  0  0  0  0  0  0
   10.0510    5.7170   10.9540 C   0  0  0  0  0  0  0  0  0  0  0  0
    9.7250    5.8990    9.7580 O   0  0  0  0  0  0  0  0  0  0  0  0
   11.3680    4.2030   13.3800 H   0  0  0  0  0  0  0  0  0  0  0  0
    9.0700    7.7470   11.8890 C   0  0  0  0  0  2  0  0  0  0  0  0
    7.6540    7.6830   11.7730 N   0  0  0  0  0  0  0  0  0  0  0  0
    7.2590    7.2060   10.9490 H   0  0  0  0  0  0  0  0  0  0  0  0
    6.7790    8.2550   12.7550 C   0  0  1  0  0  0  0  0  0  0  0  0
    6.5520    7.3020   13.8850 C   0  0  0  0  0  2  0  0  0  0  0  0
    5.7420    7.9560   14.9030 N   0  0  1  0  0  0  0  0  0  0  0  0
    6.4730    9.1290   15.3660 C   0  0  0  0  0  2  0  0  0  0  0  0
    4.4750    8.3310   14.3290 C   0  0  0  0  0  2  0  0  0  0  0  0
    6.6480   10.0990   14.3140 N   0  0  2  0  0  0  0  0  0  0  0  0
    5.3490   10.4340   13.7380 C   0  0  0  0  0  2  0  0  0  0  0  0
    7.4560    9.5310   13.2670 C   0  0  0  0  0  2  0  0  0  0  0  0
    4.6650    9.2610   13.2410 N   0  0  1  0  0  0  0  0  0  0  0  0
    5.4330    8.6420   12.1880 C   0  0  0  0  0  2  0  0  0  0  0  0
   11.2210    3.5650   10.6510 C   0  0  0  0  0  0  0  0  0  0  0  0
   12.5230    3.5570   10.1950 C   0  0  0  0  0  3  0  0  0  0  0  0
   13.0250    2.5030    9.4350 C   0  0  0  0  0  3  0  0  0  0  0  0
   12.2250    1.4450    9.1220 C   0  0  0  0  0  0  0  0  0  0  0  0
   12.8660   -0.0350    8.0750 Br  0  0  0  0  0  0  0  0  0  0  0  0
   10.9130    1.4250    9.5650 C   0  0  0  0  0  3  0  0  0  0  0  0
   10.4420    2.4790   10.3150 C   0  0  0  0  0  3  0  0  0  0  0  0
  1  2  1  0  0  0  0
  2  3  1  0  0  0  0
  2  8  1  0  0  0  0
  3  4  1  0  0  0  0
  5  3  2  0  0  0  0
  6  1  1  0  0  0  0
  6  5  1  0  0  0  0
  7  6  2  0  0  0  0
  9  5  1  0  0  0  0
 10  9  1  0  0  0  0
 11 10  1  0  0  0  0
 12 10  1  6  0  0  0
 12 19  1  0  0  0  0
 12 13  1  0  0  0  0
 14 13  1  6  0  0  0
 14 15  1  0  0  0  0
 16 14  1  0  0  0  0
 17 19  1  6  0  0  0
 17 15  1  0  0  0  0
 18 17  1  0  0  0  0
 20 21  1  6  0  0  0
 20 18  1  0  0  0  0
 20 16  1  0  0  0  0
 21 12  1  0  0  0  0
 22  1  1  0  0  0  0
 23 22  2  0  0  0  0
 24 23  1  0  0  0  0
 25 24  2  0  0  0  0
 25 27  1  0  0  0  0
 26 25  1  0  0  0  0
 27 28  2  0  0  0  0
 28 22  1  0  0  0  0
M  END
>  <Pose>
1

>  <Score>
-8.141

$$$$
