/Users/jonathanwahrer/Desktop/Msc/3_Semester/Drug_Design_Praktikum/waehrer_HTS_screening/HTS_experiment/out/docking_results/vina_output/2jam/0441_docked.pdbqt
 OpenBabel03162217403D

 36 39  0  0  1  0  0  0  0  0999 V2000
    7.3240    7.0180   12.0850 C   0  0  0  0  0  0  0  0  0  0  0  0
    7.3080    7.7190   13.2340 N   0  0  0  0  0  0  0  0  0  0  0  0
    6.3030    8.5420   13.4840 C   0  0  0  0  0  0  0  0  0  0  0  0
    6.0680    9.3350   14.5380 N   0  0  0  0  0  0  0  0  0  0  0  0
    4.8980    9.9590   14.2710 C   0  0  0  0  0  3  0  0  0  0  0  0
    4.4240    9.5620   13.0860 N   0  0  0  0  0  0  0  0  0  0  0  0
    5.2660    8.6750   12.5530 C   0  0  0  0  0  0  0  0  0  0  0  0
    5.2750    7.9580   11.3710 C   0  0  0  0  0  0  0  0  0  0  0  0
    6.3150    7.1420   11.1730 N   0  0  0  0  0  0  0  0  0  0  0  0
    8.3910    6.1240   11.7780 N   0  0  0  0  0  0  0  0  0  0  0  0
    9.6020    6.5540   11.1980 C   0  0  0  0  0  0  0  0  0  0  0  0
    9.7770    7.7560   10.9290 O   0  0  0  0  0  0  0  0  0  0  0  0
    8.2410    5.1000   12.0070 H   0  0  0  0  0  0  0  0  0  0  0  0
   10.6630    5.5720   10.9090 C   0  0  0  0  0  2  0  0  0  0  0  0
   10.2910    4.2570   11.2030 O   0  0  0  0  0  0  0  0  0  0  0  0
   10.8300    3.2180   10.4750 C   0  0  0  0  0  0  0  0  0  0  0  0
   12.1450    3.2540   10.0750 C   0  0  0  0  0  3  0  0  0  0  0  0
   12.7010    2.2060    9.3360 C   0  0  0  0  0  3  0  0  0  0  0  0
   11.9230    1.1190    9.0040 C   0  0  0  0  0  0  0  0  0  0  0  0
   12.6870   -0.3220    7.9900 Br  0  0  0  0  0  0  0  0  0  0  0  0
   10.6050    1.0860    9.4080 C   0  0  0  0  0  3  0  0  0  0  0  0
   10.0720    2.1260   10.1340 C   0  0  0  0  0  3  0  0  0  0  0  0
    4.2220    8.1280   10.4840 O   0  0  0  0  0  0  0  0  0  0  0  0
    3.4840    7.4170   10.5300 H   0  0  0  0  0  0  0  0  0  0  0  0
    6.8050    9.5550   15.7230 C   0  0  2  0  0  3  0  0  0  0  0  0
    7.0850    8.3570   16.3940 O   0  0  0  0  0  0  0  0  0  0  0  0
    6.0960    8.3170   17.3730 C   0  0  2  0  0  3  0  0  0  0  0  0
    6.2590    9.7030   17.9790 C   0  0  1  0  0  3  0  0  0  0  0  0
    6.2730   10.5230   16.6920 C   0  0  1  0  0  3  0  0  0  0  0  0
    6.3250    7.2270   18.3790 C   0  0  0  0  0  2  0  0  0  0  0  0
    7.3250    6.3580   18.0380 O   0  0  0  0  0  0  0  0  0  0  0  0
    7.8780    6.7770   17.3280 H   0  0  0  0  0  0  0  0  0  0  0  0
    5.2520   10.0500   18.8350 O   0  0  0  0  0  0  0  0  0  0  0  0
    5.3880   10.9530   19.2660 H   0  0  0  0  0  0  0  0  0  0  0  0
    7.1210   11.6430   16.8450 O   0  0  0  0  0  0  0  0  0  0  0  0
    8.0350   11.2720   16.9200 H   0  0  0  0  0  0  0  0  0  0  0  0
  1  2  2  0  0  0  0
  2  3  1  0  0  0  0
  3  4  1  0  0  0  0
  5  4  1  0  0  0  0
  6  5  2  0  0  0  0
  7  6  1  0  0  0  0
  7  3  2  0  0  0  0
  8  7  1  0  0  0  0
  9  8  2  0  0  0  0
  9  1  1  0  0  0  0
 10 13  1  0  0  0  0
 10  1  1  0  0  0  0
 11 10  1  0  0  0  0
 12 11  2  0  0  0  0
 14 11  1  0  0  0  0
 14 15  1  0  0  0  0
 16 15  1  0  0  0  0
 17 16  2  0  0  0  0
 18 17  1  0  0  0  0
 19 18  2  0  0  0  0
 19 21  1  0  0  0  0
 20 19  1  0  0  0  0
 21 22  2  0  0  0  0
 22 16  1  0  0  0  0
 23 24  1  0  0  0  0
 23  8  1  0  0  0  0
 25  4  1  6  0  0  0
 25 26  1  0  0  0  0
 25 29  1  0  0  0  0
 26 27  1  0  0  0  0
 27 28  1  0  0  0  0
 27 30  1  1  0  0  0
 28 33  1  1  0  0  0
 29 35  1  1  0  0  0
 29 28  1  0  0  0  0
 31 30  1  0  0  0  0
 32 31  1  0  0  0  0
 33 34  1  0  0  0  0
 35 36  1  0  0  0  0
M  END
>  <Pose>
1

>  <Score>
-8.699

$$$$
