/Users/jonathanwahrer/Desktop/Msc/3_Semester/Drug_Design_Praktikum/waehrer_HTS_screening/HTS_experiment/out/docking_results/vina_output/2jam/0454_docked.pdbqt
 OpenBabel03162217403D

 21 25  0  0  1  0  0  0  0  0999 V2000
   11.9260    4.2250   10.0030 C   0  0  0  0  0  2  0  0  0  0  0  0
   11.7690    2.7720    9.9290 C   0  0  0  0  0  0  0  0  0  0  0  0
   12.9200    1.9840   10.1000 C   0  0  0  0  0  0  0  0  0  0  0  0
   14.6240    2.7080   10.5840 Br  0  0  0  0  0  0  0  0  0  0  0  0
   12.7740    0.6260    9.8850 C   0  0  0  0  0  3  0  0  0  0  0  0
   11.5530    0.0900    9.5290 C   0  0  0  0  0  0  0  0  0  0  0  0
   10.4080    0.8310    9.3530 C   0  0  0  0  0  0  0  0  0  0  0  0
   11.2240   -1.2750    9.2670 O   0  0  0  0  0  0  0  0  0  0  0  0
   10.5600    2.1740    9.5660 C   0  0  0  0  0  3  0  0  0  0  0  0
    9.4350   -0.0870    8.9930 O   0  0  0  0  0  0  0  0  0  0  0  0
   10.1020   -1.2020    8.3380 C   0  0  0  0  0  2  0  0  0  0  0  0
   11.0760    4.9900   10.8160 N   0  0  2  0  0  4  0  0  0  0  0  0
   11.7300    6.3440   10.7100 C   0  0  0  0  0  2  0  0  0  0  0  0
   11.2890    7.2830   11.6520 N   0  0  2  0  0  0  0  0  0  0  0  0
   11.5050    6.7090   12.9690 C   0  0  0  0  0  2  0  0  0  0  0  0
    9.8720    7.5220   11.3560 C   0  0  0  0  0  2  0  0  0  0  0  0
   10.6490    5.5540   13.0770 N   0  0  2  0  0  0  0  0  0  0  0  0
   11.0690    4.5120   12.1970 C   0  0  0  0  0  2  0  0  0  0  0  0
    9.2350    5.8420   12.8090 C   0  0  0  0  0  2  0  0  0  0  0  0
    9.1460    6.2770   11.4240 N   0  0  2  0  0  0  0  0  0  0  0  0
    9.7080    5.2650   10.5040 C   0  0  0  0  0  2  0  0  0  0  0  0
  2  1  1  0  0  0  0
  2  3  1  0  0  0  0
  3  4  1  0  0  0  0
  5  3  2  0  0  0  0
  6  5  1  0  0  0  0
  7  6  2  0  0  0  0
  7  9  1  0  0  0  0
  8  6  1  0  0  0  0
  9  2  2  0  0  0  0
 10  7  1  0  0  0  0
 11 10  1  0  0  0  0
 11  8  1  0  0  0  0
 12  1  1  6  0  0  0
 12 18  1  0  0  0  0
 13 12  1  0  0  0  0
 14 13  1  6  0  0  0
 14 15  1  0  0  0  0
 15 17  1  0  0  0  0
 16 20  1  0  0  0  0
 16 14  1  0  0  0  0
 17 18  1  6  0  0  0
 19 17  1  0  0  0  0
 20 21  1  6  0  0  0
 20 19  1  0  0  0  0
 21 12  1  0  0  0  0
M  END
>  <Pose>
1

>  <Score>
-7.668

$$$$
