/Users/jonathanwahrer/Desktop/Msc/3_Semester/Drug_Design_Praktikum/waehrer_HTS_screening/HTS_experiment/out/docking_results/vina_output/2jam/0455_docked.pdbqt
 OpenBabel03162217403D

 26 29  0  0  0  0  0  0  0  0999 V2000
   12.2640    4.1880   11.2450 N   0  0  0  0  0  0  0  0  0  0  0  0
   12.9920    5.2770   11.9480 C   0  0  0  0  0  2  0  0  0  0  0  0
   11.9830    6.4220   11.9500 C   0  0  0  0  0  2  0  0  0  0  0  0
   10.8660    6.2060   11.1060 N   0  0  0  0  0  0  0  0  0  0  0  0
   11.2340    5.7700    9.7840 C   0  0  0  0  0  2  0  0  0  0  0  0
   12.2500    4.6680    9.8620 C   0  0  0  0  0  2  0  0  0  0  0  0
   13.0240    2.9580   11.3510 C   0  0  0  0  0  2  0  0  0  0  0  0
   12.5520    1.9690   10.3500 C   0  0  0  0  0  0  0  0  0  0  0  0
   13.4070    1.4750    9.3660 C   0  0  0  0  0  0  0  0  0  0  0  0
   15.1940    2.1480    9.3460 Br  0  0  0  0  0  0  0  0  0  0  0  0
   13.0020    0.5420    8.4380 C   0  0  0  0  0  3  0  0  0  0  0  0
   11.7210    0.0490    8.4400 C   0  0  0  0  0  0  0  0  0  0  0  0
   10.8580    0.5130    9.3920 C   0  0  0  0  0  0  0  0  0  0  0  0
   11.2750   -0.8930    7.5230 O   0  0  0  0  0  0  0  0  0  0  0  0
   11.2710    1.4580   10.3300 C   0  0  0  0  0  3  0  0  0  0  0  0
    9.5600    0.0270    9.4110 O   0  0  0  0  0  0  0  0  0  0  0  0
    8.9920   -0.7130    8.3620 C   0  0  0  0  0  2  0  0  0  0  0  0
   10.0230   -1.5190    7.6390 C   0  0  0  0  0  2  0  0  0  0  0  0
    9.7190    5.5950   11.6620 C   0  0  0  0  0  2  0  0  0  0  0  0
    8.5310    6.4210   11.7620 C   0  0  0  0  0  0  0  0  0  0  0  0
    7.4160    5.9960   11.3940 O   0  0  0  0  0  0  0  0  0  0  0  0
    8.6000    7.7350   12.2810 N   0  0  0  0  0  0  0  0  0  0  0  0
    9.5080    8.1670   12.6170 H   0  0  0  0  0  0  0  0  0  0  0  0
    7.4280    8.5940   12.3960 C   0  0  0  0  0  3  0  0  0  0  0  0
    7.1680    9.6440   11.3980 C   0  0  0  0  0  2  0  0  0  0  0  0
    7.7360   10.0520   12.7240 C   0  0  0  0  0  2  0  0  0  0  0  0
  1  7  1  0  0  0  0
  1  2  1  0  0  0  0
  2  3  1  0  0  0  0
  4 19  1  0  0  0  0
  4  3  1  0  0  0  0
  5  6  1  0  0  0  0
  5  4  1  0  0  0  0
  6  1  1  0  0  0  0
  8  7  1  0  0  0  0
  9  8  2  0  0  0  0
 10  9  1  0  0  0  0
 11 12  2  0  0  0  0
 11  9  1  0  0  0  0
 12 13  1  0  0  0  0
 13 16  1  0  0  0  0
 13 15  2  0  0  0  0
 14 18  1  0  0  0  0
 14 12  1  0  0  0  0
 15  8  1  0  0  0  0
 17 16  1  0  0  0  0
 18 17  1  0  0  0  0
 19 20  1  0  0  0  0
 20 22  1  0  0  0  0
 21 20  2  0  0  0  0
 22 24  1  0  0  0  0
 22 23  1  0  0  0  0
 24 26  1  0  0  0  0
 25 24  1  0  0  0  0
 25 26  1  0  0  0  0
M  END
>  <Pose>
1

>  <Score>
-8.039

$$$$
