/Users/jonathanwahrer/Desktop/Msc/3_Semester/Drug_Design_Praktikum/waehrer_HTS_screening/HTS_experiment/out/docking_results/vina_output/2jam/0469_docked.pdbqt
 OpenBabel03162217413D

 32 36  0  0  0  0  0  0  0  0999 V2000
   10.4420    6.7310   11.6140 N   0  0  0  0  0  0  0  0  0  0  0  0
   10.4260    8.0640   11.9890 C   0  0  0  0  0  2  0  0  0  0  0  0
    9.3600    8.5860   12.8740 C   0  0  0  0  0  2  0  0  0  0  0  0
    8.2510    7.6760   12.8550 N   0  0  0  0  0  0  0  0  0  0  0  0
    8.5990    6.3190   13.1950 C   0  0  0  0  0  2  0  0  0  0  0  0
    9.4820    5.8110   12.0850 C   0  0  0  0  0  2  0  0  0  0  0  0
   11.7440    6.1580   11.3610 C   0  0  0  0  0  2  0  0  0  0  0  0
   11.6480    4.9280   10.4850 C   0  0  0  0  0  0  0  0  0  0  0  0
   11.7350    3.6710   11.1180 N   0  0  0  0  0  0  0  0  0  0  0  0
   11.8620    3.6650   12.1780 H   0  0  0  0  0  0  0  0  0  0  0  0
   11.5000    5.1190    9.2670 O   0  0  0  0  0  0  0  0  0  0  0  0
   11.6680    2.4180   10.4630 C   0  0  0  0  0  0  0  0  0  0  0  0
   12.8750    1.7820   10.1370 C   0  0  0  0  0  0  0  0  0  0  0  0
   14.5050    2.6390   10.5950 Br  0  0  0  0  0  0  0  0  0  0  0  0
   12.8520    0.5640    9.4990 C   0  0  0  0  0  3  0  0  0  0  0  0
   11.6900   -0.0590    9.1660 C   0  0  0  0  0  0  0  0  0  0  0  0
   10.4880    0.5410    9.4740 C   0  0  0  0  0  0  0  0  0  0  0  0
   11.6210   -1.2860    8.5220 O   0  0  0  0  0  0  0  0  0  0  0  0
   10.4870    1.7810   10.1230 C   0  0  0  0  0  3  0  0  0  0  0  0
    9.3290   -0.1060    9.1290 O   0  0  0  0  0  0  0  0  0  0  0  0
    9.2300   -1.0540    8.0950 C   0  0  0  0  0  2  0  0  0  0  0  0
   10.5580   -1.5170    7.5870 C   0  0  0  0  0  2  0  0  0  0  0  0
    6.9170    7.9870   12.5440 C   0  0  0  0  0  0  0  0  0  0  0  0
    6.3980    7.9200   11.2920 N   0  0  0  0  0  0  0  0  0  0  0  0
    5.1150    8.2230   11.0250 C   0  0  0  0  0  3  0  0  0  0  0  0
    4.2760    8.6110   12.0010 N   0  0  0  0  0  0  0  0  0  0  0  0
    4.7040    8.7050   13.2760 C   0  0  0  0  0  0  0  0  0  0  0  0
    4.0960    9.0600   14.4370 N   0  0  0  0  0  0  0  0  0  0  0  0
    6.0160    8.3930   13.5330 C   0  0  0  0  0  0  0  0  0  0  0  0
    5.0170    8.9660   15.3790 N   0  0  0  0  0  0  0  0  0  0  0  0
    2.6960    9.4630   14.5810 C   0  0  0  0  0  1  0  0  0  0  0  0
    6.1930    8.5680   14.8870 C   0  0  0  0  0  3  0  0  0  0  0  0
  1  2  1  0  0  0  0
  1  6  1  0  0  0  0
  2  3  1  0  0  0  0
  4  3  1  0  0  0  0
  4  5  1  0  0  0  0
  6  5  1  0  0  0  0
  7  1  1  0  0  0  0
  8  9  1  0  0  0  0
  8  7  1  0  0  0  0
  9 10  1  0  0  0  0
 11  8  2  0  0  0  0
 12  9  1  0  0  0  0
 13 12  1  0  0  0  0
 13 14  1  0  0  0  0
 15 13  2  0  0  0  0
 16 17  2  0  0  0  0
 16 15  1  0  0  0  0
 17 19  1  0  0  0  0
 18 16  1  0  0  0  0
 19 12  2  0  0  0  0
 20 17  1  0  0  0  0
 21 20  1  0  0  0  0
 22 21  1  0  0  0  0
 22 18  1  0  0  0  0
 23  4  1  0  0  0  0
 23 29  1  0  0  0  0
 24 23  2  0  0  0  0
 25 24  1  0  0  0  0
 25 26  2  0  0  0  0
 26 27  1  0  0  0  0
 27 29  2  0  0  0  0
 27 28  1  0  0  0  0
 28 31  1  0  0  0  0
 28 30  1  0  0  0  0
 29 32  1  0  0  0  0
 32 30  2  0  0  0  0
M  END
>  <Pose>
1

>  <Score>
-9.998

$$$$
