/Users/jonathanwahrer/Desktop/Msc/3_Semester/Drug_Design_Praktikum/waehrer_HTS_screening/HTS_experiment/out/docking_results/vina_output/2jam/0471_docked.pdbqt
 OpenBabel03162217413D

 27 30  0  0  0  0  0  0  0  0999 V2000
   11.1920    3.1170   11.9390 C   0  0  0  0  0  0  0  0  0  0  0  0
   11.3090    2.6790   13.1200 O   0  0  0  0  0  0  0  0  0  0  0  0
   10.8290    4.4630   11.7350 N   0  0  0  0  0  0  0  0  0  0  0  0
   10.6010    5.3050   12.8820 C   0  0  0  0  0  2  0  0  0  0  0  0
   11.4400    6.5650   12.8620 C   0  0  0  0  0  2  0  0  0  0  0  0
   11.6600    6.9380   11.5150 N   0  0  0  0  0  0  0  0  0  0  0  0
   10.5830    6.6040   10.6690 C   0  0  0  0  0  2  0  0  0  0  0  0
   10.6630    5.0830   10.4420 C   0  0  0  0  0  2  0  0  0  0  0  0
   11.4430    2.1850   10.8330 C   0  0  0  0  0  0  0  0  0  0  0  0
   12.6970    2.1040   10.2750 C   0  0  0  0  0  3  0  0  0  0  0  0
   12.9790    1.2440    9.2350 C   0  0  0  0  0  0  0  0  0  0  0  0
   11.9700    0.4380    8.7400 C   0  0  0  0  0  0  0  0  0  0  0  0
   14.1460    1.1760    8.7240 O   0  0  0  0  0  0  0  0  0  0  0  0
   10.7320    0.5660    9.3410 C   0  0  0  0  0  0  0  0  0  0  0  0
   12.2220   -0.4280    7.7050 C   0  0  0  0  0  3  0  0  0  0  0  0
    9.7230   -0.2430    8.8410 C   0  0  0  0  0  3  0  0  0  0  0  0
   10.5220    1.4020   10.3280 O   0  0  0  0  0  0  0  0  0  0  0  0
    9.9490   -1.1260    7.7980 C   0  0  0  0  0  0  0  0  0  0  0  0
    8.5350   -2.2220    7.1380 Br  0  0  0  0  0  0  0  0  0  0  0  0
   11.2050   -1.2180    7.2280 C   0  0  0  0  0  3  0  0  0  0  0  0
   12.9650    6.7860   11.0090 C   0  0  0  0  0  2  0  0  0  0  0  0
   14.0420    6.9100   11.9860 C   0  0  0  0  0  0  0  0  0  0  0  0
   14.4680    8.0600   12.5350 N   0  0  0  0  0  0  0  0  0  0  0  0
   15.4240    7.7660   13.3420 O   0  0  0  0  0  0  0  0  0  0  0  0
   15.6560    6.4770   13.3600 N   0  0  0  0  0  0  0  0  0  0  0  0
   14.7920    5.8890   12.5030 C   0  0  0  0  0  0  0  0  0  0  0  0
   14.6860    4.4320   12.1940 C   0  0  0  0  0  1  0  0  0  0  0  0
  1  2  2  0  0  0  0
  3  1  1  0  0  0  0
  3  4  1  0  0  0  0
  5  4  1  0  0  0  0
  6  5  1  0  0  0  0
  7  6  1  0  0  0  0
  8  7  1  0  0  0  0
  8  3  1  0  0  0  0
  9  1  1  0  0  0  0
 10  9  2  0  0  0  0
 11 10  1  0  0  0  0
 12 11  1  0  0  0  0
 12 14  1  0  0  0  0
 13 11  2  0  0  0  0
 14 17  1  0  0  0  0
 15 12  2  0  0  0  0
 16 14  2  0  0  0  0
 17  9  1  0  0  0  0
 18 16  1  0  0  0  0
 19 18  1  0  0  0  0
 20 15  1  0  0  0  0
 20 18  2  0  0  0  0
 21  6  1  0  0  0  0
 21 22  1  0  0  0  0
 22 26  1  0  0  0  0
 22 23  2  0  0  0  0
 23 24  1  0  0  0  0
 24 25  1  0  0  0  0
 26 25  2  0  0  0  0
 27 26  1  0  0  0  0
M  END
>  <Pose>
1

>  <Score>
-8.786

$$$$
