/Users/jonathanwahrer/Desktop/Msc/3_Semester/Drug_Design_Praktikum/waehrer_HTS_screening/HTS_experiment/out/docking_results/vina_output/2jam/0473_docked.pdbqt
 OpenBabel03162217413D

 29 32  0  0  0  0  0  0  0  0999 V2000
   11.4570    7.1510   12.8650 C   0  0  0  0  0  2  0  0  0  0  0  0
   12.7090    6.4380   12.4400 C   0  0  0  0  0  2  0  0  0  0  0  0
   12.6880    6.2140   10.9730 C   0  0  0  0  0  2  0  0  0  0  0  0
   12.4450    4.8380   10.6000 N   0  0  0  0  0  0  0  0  0  0  0  0
   13.3910    3.8000   10.8080 C   0  0  0  0  0  0  0  0  0  0  0  0
   12.8190    2.5590   10.3160 C   0  0  0  0  0  0  0  0  0  0  0  0
   14.5490    3.8880   11.3290 O   0  0  0  0  0  0  0  0  0  0  0  0
   11.5620    2.8560    9.8280 C   0  0  0  0  0  0  0  0  0  0  0  0
   13.3010    1.2660   10.2740 C   0  0  0  0  0  3  0  0  0  0  0  0
   10.8160    1.8180    9.3000 C   0  0  0  0  0  3  0  0  0  0  0  0
   11.2990    4.2940    9.9940 C   0  0  0  0  0  0  0  0  0  0  0  0
   11.3080    0.5290    9.2620 C   0  0  0  0  0  0  0  0  0  0  0  0
   10.2230   -0.8530    8.5200 Br  0  0  0  0  0  0  0  0  0  0  0  0
   12.5620    0.2250    9.7490 C   0  0  0  0  0  3  0  0  0  0  0  0
   10.2420    4.8910    9.6510 O   0  0  0  0  0  0  0  0  0  0  0  0
   10.2260    6.3320   12.7740 C   0  0  0  0  0  0  0  0  0  0  0  0
   10.1120    5.1880   13.2860 O   0  0  0  0  0  0  0  0  0  0  0  0
    9.0690    6.8280   12.0730 N   0  0  0  0  0  0  0  0  0  0  0  0
    7.8630    6.0370   11.9800 C   0  0  0  0  0  2  0  0  0  0  0  0
    9.0540    8.1290   11.4320 C   0  0  0  0  0  2  0  0  0  0  0  0
    6.6160    6.8200   12.2250 C   0  0  0  0  0  2  0  0  0  0  0  0
    6.8370    8.2210   12.4970 N   0  0  0  0  0  0  0  0  0  0  0  0
    7.9460    8.9860   11.9930 C   0  0  0  0  0  2  0  0  0  0  0  0
    5.8850    8.8950   13.3250 C   0  0  0  0  0  0  0  0  0  0  0  0
    5.0120    8.2090   14.1120 N   0  0  0  0  0  0  0  0  0  0  0  0
    4.1110    8.7980   14.8970 C   0  0  0  0  0  3  0  0  0  0  0  0
    4.0500   10.1840   14.9210 C   0  0  0  0  0  3  0  0  0  0  0  0
    4.9050   10.8980   14.1500 N   0  0  0  0  0  0  0  0  0  0  0  0
    5.7990   10.2680   13.3710 C   0  0  0  0  0  3  0  0  0  0  0  0
  2  1  1  0  0  0  0
  3  2  1  0  0  0  0
  4  5  1  0  0  0  0
  4  3  1  0  0  0  0
  5  7  2  0  0  0  0
  6  5  1  0  0  0  0
  8 11  1  0  0  0  0
  8  6  2  0  0  0  0
  9  6  1  0  0  0  0
 10  8  1  0  0  0  0
 11  4  1  0  0  0  0
 12 10  2  0  0  0  0
 12 14  1  0  0  0  0
 13 12  1  0  0  0  0
 14  9  2  0  0  0  0
 15 11  2  0  0  0  0
 16  1  1  0  0  0  0
 16 17  2  0  0  0  0
 18 16  1  0  0  0  0
 19 18  1  0  0  0  0
 19 21  1  0  0  0  0
 20 23  1  0  0  0  0
 20 18  1  0  0  0  0
 21 22  1  0  0  0  0
 22 24  1  0  0  0  0
 23 22  1  0  0  0  0
 24 29  2  0  0  0  0
 24 25  1  0  0  0  0
 25 26  2  0  0  0  0
 26 27  1  0  0  0  0
 28 27  2  0  0  0  0
 29 28  1  0  0  0  0
M  END
>  <Pose>
1

>  <Score>
-8.832

$$$$
