/Users/jonathanwahrer/Desktop/Msc/3_Semester/Drug_Design_Praktikum/waehrer_HTS_screening/HTS_experiment/out/docking_results/vina_output/2jam/0485_docked.pdbqt
 OpenBabel03162217433D

 34 37  0  0  0  0  0  0  0  0999 V2000
   12.2250   -0.3950    7.5850 Br  0  0  0  0  0  0  0  0  0  0  0  0
   13.3270    0.7610    8.6540 C   0  0  0  0  0  0  0  0  0  0  0  0
   12.7790    1.6400    9.5600 C   0  0  0  0  0  3  0  0  0  0  0  0
   13.5330    2.4970   10.3540 C   0  0  0  0  0  0  0  0  0  0  0  0
   14.9250    2.4610   10.2240 C   0  0  0  0  0  0  0  0  0  0  0  0
   15.4750    1.5790    9.3160 C   0  0  0  0  0  3  0  0  0  0  0  0
   14.7000    0.7310    8.5310 C   0  0  0  0  0  3  0  0  0  0  0  0
   15.5250    3.4070   11.1200 N   0  0  0  0  0  0  0  0  0  0  0  0
   14.4600    4.0390   11.8180 C   0  0  0  0  0  0  0  0  0  0  0  0
   14.5920    4.9270   12.6890 O   0  0  0  0  0  0  0  0  0  0  0  0
   13.2000    3.4880   11.3590 C   0  0  0  0  0  0  0  0  0  0  0  0
   12.0190    3.8080   11.7560 N   0  0  0  0  0  0  0  0  0  0  0  0
   11.7780    4.7720   12.7260 N   0  0  0  0  0  0  0  0  0  0  0  0
   11.3480    6.0600   12.3440 C   0  0  0  0  0  0  0  0  0  0  0  0
   11.1720    6.3700   11.1150 O   0  0  0  0  0  0  0  0  0  0  0  0
   11.9140    4.5390   13.7200 H   0  0  0  0  0  0  0  0  0  0  0  0
   11.0660    7.1490   13.3130 C   0  0  0  0  0  2  0  0  0  0  0  0
    9.6690    7.2060   13.5940 O   0  0  0  0  0  0  0  0  0  0  0  0
    8.9240    8.2930   13.1710 C   0  0  0  0  0  0  0  0  0  0  0  0
    8.0180    8.1540   12.1410 C   0  0  0  0  0  0  0  0  0  0  0  0
    7.2730    9.2510   11.7210 C   0  0  0  0  0  3  0  0  0  0  0  0
    7.4340   10.4820   12.3270 C   0  0  0  0  0  3  0  0  0  0  0  0
    8.3340   10.6050   13.3440 C   0  0  0  0  0  3  0  0  0  0  0  0
    9.0750    9.5110   13.7620 C   0  0  0  0  0  3  0  0  0  0  0  0
    7.8340    6.9450   11.5180 O   0  0  0  0  0  0  0  0  0  0  0  0
    6.8080    6.0770   11.9290 C   0  0  0  0  0  1  0  0  0  0  0  0
   16.9540    3.6340   11.2530 C   0  0  0  0  0  2  0  0  0  0  0  0
   17.3290    4.9900   11.4390 N   0  0  0  0  0  0  0  0  0  0  0  0
   18.0720    5.2740   12.6190 C   0  0  0  0  0  2  0  0  0  0  0  0
   18.3600    6.7710   12.7680 C   0  0  0  0  0  2  0  0  0  0  0  0
   17.5200    7.4510   11.8250 N   0  0  0  0  0  0  0  0  0  0  0  0
   17.8640    7.1740   10.4650 C   0  0  0  0  0  2  0  0  0  0  0  0
   17.3220    8.8410   12.1190 C   0  0  0  0  0  1  0  0  0  0  0  0
   17.7870    5.6720   10.2630 C   0  0  0  0  0  2  0  0  0  0  0  0
  1  2  1  0  0  0  0
  2  3  1  0  0  0  0
  3  4  2  0  0  0  0
  4 11  1  0  0  0  0
  5  4  1  0  0  0  0
  5  8  1  0  0  0  0
  6  5  2  0  0  0  0
  7  2  2  0  0  0  0
  7  6  1  0  0  0  0
  8 27  1  0  0  0  0
  8  9  1  0  0  0  0
  9 10  2  0  0  0  0
 11 12  2  0  0  0  0
 11  9  1  0  0  0  0
 12 13  1  0  0  0  0
 13 16  1  0  0  0  0
 14 13  1  0  0  0  0
 14 17  1  0  0  0  0
 15 14  2  0  0  0  0
 17 18  1  0  0  0  0
 19 18  1  0  0  0  0
 19 24  1  0  0  0  0
 20 19  2  0  0  0  0
 21 20  1  0  0  0  0
 21 22  2  0  0  0  0
 22 23  1  0  0  0  0
 23 24  2  0  0  0  0
 25 26  1  0  0  0  0
 25 20  1  0  0  0  0
 27 28  1  0  0  0  0
 28 29  1  0  0  0  0
 29 30  1  0  0  0  0
 31 33  1  0  0  0  0
 31 30  1  0  0  0  0
 32 31  1  0  0  0  0
 34 32  1  0  0  0  0
 34 28  1  0  0  0  0
M  END
>  <Pose>
1

>  <Score>
-8.914

$$$$
