/Users/jonathanwahrer/Desktop/Msc/3_Semester/Drug_Design_Praktikum/waehrer_HTS_screening/HTS_experiment/out/docking_results/vina_output/2jam/0500_docked.pdbqt
 OpenBabel03162217433D

 32 35  0  0  1  0  0  0  0  0999 V2000
   11.6780   11.1340   17.6290 Br  0  0  0  0  0  0  0  0  0  0  0  0
   10.6910    9.8440   16.5960 C   0  0  0  0  0  0  0  0  0  0  0  0
    9.3270    9.7980   16.5540 C   0  0  0  0  0  3  0  0  0  0  0  0
    8.6610    8.8430   15.8290 C   0  0  0  0  0  0  0  0  0  0  0  0
    9.4190    7.9350   15.1450 C   0  0  0  0  0  0  0  0  0  0  0  0
   10.8190    7.9620   15.1690 C   0  0  0  0  0  3  0  0  0  0  0  0
   11.4780    8.9260   15.9030 C   0  0  0  0  0  3  0  0  0  0  0  0
    8.6070    6.9880   14.4780 N   0  0  0  0  0  0  0  0  0  0  0  0
    7.2800    7.3100   14.7540 C   0  0  0  0  0  0  0  0  0  0  0  0
    6.2970    6.6490   14.3260 O   0  0  0  0  0  0  0  0  0  0  0  0
    7.2340    8.5430   15.6220 C   0  0  2  0  0  0  0  0  0  0  0  0
    6.4640    9.5100   14.8550 C   0  0  0  0  0  0  0  0  0  0  0  0
    5.2470    9.9250   15.3000 C   0  0  0  0  0  0  0  0  0  0  0  0
    4.7750   10.8090   14.3770 N   0  0  0  0  0  0  0  0  0  0  0  0
    5.6490   10.9350   13.4120 N   0  0  0  0  0  0  0  0  0  0  0  0
    6.7320   10.1560   13.6370 C   0  0  0  0  0  0  0  0  0  0  0  0
    4.6730    9.4610   16.5010 O   0  0  0  0  0  0  0  0  0  0  0  0
    5.4090    8.5440   17.2260 C   0  0  0  0  0  0  0  0  0  0  0  0
    6.5780    8.1090   16.8470 C   0  0  0  0  0  0  0  0  0  0  0  0
    7.2770    7.1290   17.6840 C   0  0  0  0  0  0  0  0  0  0  0  0
    7.8330    6.3790   18.3470 N   0  0  0  0  0  0  0  0  0  0  0  0
    9.0810    5.8670   13.6400 C   0  0  0  0  0  1  0  0  0  0  0  0
    5.5680   11.5510   12.5510 H   0  0  0  0  0  0  0  0  0  0  0  0
    4.8220    8.0640   18.4600 N   0  0  0  0  0  0  0  0  0  0  0  0
    4.7080    8.6510   19.3050 H   0  0  0  0  0  0  0  0  0  0  0  0
    4.5010    7.0830   18.4880 H   0  0  0  0  0  0  0  0  0  0  0  0
    7.9220   10.0730   12.7520 C   0  0  0  0  0  2  0  0  0  0  0  0
    7.7200    9.0940   11.6620 C   0  0  0  0  0  0  0  0  0  0  0  0
    8.5960    8.3120   11.2130 O   0  0  0  0  0  0  0  0  0  0  0  0
    6.4670    9.0340   11.0920 O   0  0  0  0  0  0  0  0  0  0  0  0
    5.6160    7.9200   11.0720 C   0  0  0  0  0  2  0  0  0  0  0  0
    4.2100    8.3470   11.4260 C   0  0  0  0  0  1  0  0  0  0  0  0
  2  1  1  0  0  0  0
  3  2  1  0  0  0  0
  4  3  2  0  0  0  0
  5  6  2  0  0  0  0
  5  4  1  0  0  0  0
  6  7  1  0  0  0  0
  7  2  2  0  0  0  0
  8  9  1  0  0  0  0
  8  5  1  0  0  0  0
 10  9  2  0  0  0  0
 11  9  1  6  0  0  0
 11  4  1  0  0  0  0
 11 19  1  0  0  0  0
 12 13  1  0  0  0  0
 12 11  1  0  0  0  0
 13 17  1  0  0  0  0
 14 13  2  0  0  0  0
 15 16  1  0  0  0  0
 15 14  1  0  0  0  0
 16 12  2  0  0  0  0
 17 18  1  0  0  0  0
 18 24  1  0  0  0  0
 19 18  2  0  0  0  0
 19 20  1  0  0  0  0
 20 21  3  0  0  0  0
 22  8  1  0  0  0  0
 23 15  1  0  0  0  0
 24 26  1  0  0  0  0
 24 25  1  0  0  0  0
 27 16  1  0  0  0  0
 28 27  1  0  0  0  0
 29 28  2  0  0  0  0
 30 28  1  0  0  0  0
 31 30  1  0  0  0  0
 31 32  1  0  0  0  0
M  END
>  <Pose>
1

>  <Score>
-6.734

$$$$
