/Users/jonathanwahrer/Desktop/Msc/3_Semester/Drug_Design_Praktikum/waehrer_HTS_screening/HTS_experiment/out/docking_results/vina_output/2jam/0504_docked.pdbqt
 OpenBabel03162217433D

 29 32  0  0  1  0  0  0  0  0999 V2000
    9.4730    5.2320   10.8620 Br  0  0  0  0  0  0  0  0  0  0  0  0
    9.8010    6.7700   11.9280 C   0  0  0  0  0  0  0  0  0  0  0  0
    8.9330    7.2060   12.9000 C   0  0  0  0  0  3  0  0  0  0  0  0
    9.2470    8.3460   13.6410 C   0  0  0  0  0  0  0  0  0  0  0  0
   10.3800    9.0630   13.4540 C   0  0  0  0  0  0  0  0  0  0  0  0
   11.2620    8.6180   12.4660 C   0  0  0  0  0  3  0  0  0  0  0  0
   10.9690    7.4950   11.7250 C   0  0  0  0  0  3  0  0  0  0  0  0
   10.4620   10.1710   14.3300 N   0  0  0  0  0  0  0  0  0  0  0  0
    9.3040   10.1640   15.1310 C   0  0  0  0  0  0  0  0  0  0  0  0
    9.0180   10.9990   16.0340 O   0  0  0  0  0  0  0  0  0  0  0  0
    8.4630    8.9990   14.7380 C   0  0  1  0  0  0  0  0  0  0  0  0
    7.1540    9.4600   14.2100 C   0  0  0  0  0  0  0  0  0  0  0  0
    6.0340    9.0240   14.6600 C   0  0  0  0  0  0  0  0  0  0  0  0
    5.9440    8.0400   15.7280 N   0  0  0  0  0  0  0  0  0  0  0  0
    7.1830    7.5930   16.2390 C   0  0  0  0  0  0  0  0  0  0  0  0
    8.3320    8.0220   15.7960 C   0  0  0  0  0  0  0  0  0  0  0  0
    9.5280    7.4700   16.4220 C   0  0  0  0  0  0  0  0  0  0  0  0
   10.4900    7.0430   16.9060 N   0  0  0  0  0  0  0  0  0  0  0  0
    4.9230    9.6920   13.9130 C   0  0  0  0  0  0  0  0  0  0  0  0
    5.5420   10.5330   13.0120 O   0  0  0  0  0  0  0  0  0  0  0  0
    6.8970   10.4580   13.1210 C   0  0  0  0  0  0  0  0  0  0  0  0
    7.8040   11.0680   12.4770 O   0  0  0  0  0  0  0  0  0  0  0  0
    4.0060   10.4120   14.8820 C   0  0  0  0  0  1  0  0  0  0  0  0
    4.1170    8.6730   13.1280 C   0  0  0  0  0  1  0  0  0  0  0  0
   11.5380   11.1700   14.4200 C   0  0  0  0  0  1  0  0  0  0  0  0
    5.0150    7.7230   16.0520 H   0  0  0  0  0  0  0  0  0  0  0  0
    7.1550    6.6080   17.3080 N   0  0  0  0  0  0  0  0  0  0  0  0
    7.9130    5.8950   17.3100 H   0  0  0  0  0  0  0  0  0  0  0  0
    6.4190    6.6140   18.0280 H   0  0  0  0  0  0  0  0  0  0  0  0
  1  2  1  0  0  0  0
  2  3  1  0  0  0  0
  3  4  2  0  0  0  0
  5  4  1  0  0  0  0
  5  8  1  0  0  0  0
  6  5  2  0  0  0  0
  7  2  2  0  0  0  0
  7  6  1  0  0  0  0
  8 25  1  0  0  0  0
  8  9  1  0  0  0  0
  9 10  2  0  0  0  0
 11  4  1  6  0  0  0
 11  9  1  0  0  0  0
 11 16  1  0  0  0  0
 12 13  2  0  0  0  0
 12 11  1  0  0  0  0
 13 14  1  0  0  0  0
 14 26  1  0  0  0  0
 14 15  1  0  0  0  0
 15 27  1  0  0  0  0
 16 15  2  0  0  0  0
 16 17  1  0  0  0  0
 17 18  3  0  0  0  0
 19 13  1  0  0  0  0
 19 23  1  0  0  0  0
 20 21  1  0  0  0  0
 20 19  1  0  0  0  0
 21 12  1  0  0  0  0
 22 21  2  0  0  0  0
 24 19  1  0  0  0  0
 27 28  1  0  0  0  0
 27 29  1  0  0  0  0
M  END
>  <Pose>
1

>  <Score>
-7.129

$$$$
