/Users/jonathanwahrer/Desktop/Msc/3_Semester/Drug_Design_Praktikum/waehrer_HTS_screening/HTS_experiment/out/docking_results/vina_output/2jam/0505_docked.pdbqt
 OpenBabel03162217433D

 30 33  0  0  1  0  0  0  0  0999 V2000
   12.4410   12.6660   14.0070 Br  0  0  0  0  0  0  0  0  0  0  0  0
   11.7710   11.0170   14.6790 C   0  0  0  0  0  0  0  0  0  0  0  0
   10.9920   10.2150   13.8730 C   0  0  0  0  0  3  0  0  0  0  0  0
   10.4870    8.9980   14.3430 C   0  0  0  0  0  0  0  0  0  0  0  0
   10.7920    8.6380   15.6160 C   0  0  0  0  0  0  0  0  0  0  0  0
   11.5890    9.4610   16.4400 C   0  0  0  0  0  3  0  0  0  0  0  0
   12.0820   10.6560   15.9700 C   0  0  0  0  0  3  0  0  0  0  0  0
   10.1890    7.3820   15.8970 N   0  0  0  0  0  0  0  0  0  0  0  0
    9.4810    6.9320   14.7680 C   0  0  0  0  0  0  0  0  0  0  0  0
    8.8260    5.8670   14.6470 O   0  0  0  0  0  0  0  0  0  0  0  0
    9.6350    7.9580   13.6940 C   0  0  1  0  0  0  0  0  0  0  0  0
    8.3330    8.5080   13.3030 C   0  0  0  0  0  0  0  0  0  0  0  0
    7.9120    8.4960   12.0130 C   0  0  0  0  0  0  0  0  0  0  0  0
    8.7220    7.9490   11.0130 O   0  0  0  0  0  0  0  0  0  0  0  0
    9.9570    7.4170   11.3290 C   0  0  0  0  0  0  0  0  0  0  0  0
   10.3830    7.4160   12.5560 C   0  0  0  0  0  0  0  0  0  0  0  0
   11.7090    6.8300   12.8000 C   0  0  0  0  0  0  0  0  0  0  0  0
   12.7390    6.3830   12.9890 N   0  0  0  0  0  0  0  0  0  0  0  0
    6.6630    9.0330   11.6870 C   0  0  0  0  0  0  0  0  0  0  0  0
    6.2880    9.0150   10.4960 O   0  0  0  0  0  0  0  0  0  0  0  0
    5.8780    9.5670   12.6810 C   0  0  0  0  0  3  0  0  0  0  0  0
    6.3570    9.5520   13.9740 C   0  0  0  0  0  0  0  0  0  0  0  0
    7.5170    9.0440   14.2150 O   0  0  0  0  0  0  0  0  0  0  0  0
   10.3200    6.6990   17.1980 C   0  0  0  0  0  1  0  0  0  0  0  0
   10.7340    6.8730   10.2490 N   0  0  0  0  0  0  0  0  0  0  0  0
   11.7010    7.1730   10.1440 H   0  0  0  0  0  0  0  0  0  0  0  0
   10.2890    6.2040    9.6220 H   0  0  0  0  0  0  0  0  0  0  0  0
    5.5100   10.1340   15.0860 C   0  0  0  0  0  2  0  0  0  0  0  0
    4.7140   11.1550   14.5650 O   0  0  0  0  0  0  0  0  0  0  0  0
    4.6220   11.8810   15.2530 H   0  0  0  0  0  0  0  0  0  0  0  0
  1  2  1  0  0  0  0
  2  7  1  0  0  0  0
  3  4  1  0  0  0  0
  3  2  2  0  0  0  0
  4  5  2  0  0  0  0
  5  8  1  0  0  0  0
  5  6  1  0  0  0  0
  7  6  2  0  0  0  0
  8 24  1  0  0  0  0
  9  8  1  0  0  0  0
 10  9  2  0  0  0  0
 11 16  1  6  0  0  0
 11  4  1  0  0  0  0
 11  9  1  0  0  0  0
 12 11  1  0  0  0  0
 12 23  1  0  0  0  0
 13 12  2  0  0  0  0
 14 15  1  0  0  0  0
 14 13  1  0  0  0  0
 15 16  2  0  0  0  0
 16 17  1  0  0  0  0
 17 18  3  0  0  0  0
 19 13  1  0  0  0  0
 19 21  1  0  0  0  0
 20 19  2  0  0  0  0
 21 22  2  0  0  0  0
 22 23  1  0  0  0  0
 22 28  1  0  0  0  0
 25 15  1  0  0  0  0
 26 25  1  0  0  0  0
 27 25  1  0  0  0  0
 29 28  1  0  0  0  0
 29 30  1  0  0  0  0
M  END
>  <Pose>
1

>  <Score>
-7.053

$$$$
