/Users/jonathanwahrer/Desktop/Msc/3_Semester/Drug_Design_Praktikum/waehrer_HTS_screening/HTS_experiment/out/docking_results/vina_output/2jam/0513_docked.pdbqt
 OpenBabel03162217433D

 33 36  0  0  0  0  0  0  0  0999 V2000
   12.3200    3.9360   12.4350 N   0  0  0  0  0  0  0  0  0  0  0  0
   11.0480    4.5670   12.3810 C   0  0  0  0  0  0  0  0  0  0  0  0
   10.2040    4.0780   11.6130 O   0  0  0  0  0  0  0  0  0  0  0  0
   13.0310    4.3570   13.0700 H   0  0  0  0  0  0  0  0  0  0  0  0
   12.6520    2.8160   11.6950 N   0  0  0  0  0  0  0  0  0  0  0  0
   11.9820    2.0000   11.6510 H   0  0  0  0  0  0  0  0  0  0  0  0
   13.8450    2.6710   10.9740 C   0  0  0  0  0  3  0  0  0  0  0  0
   14.0030    1.9140    9.9100 C   0  0  0  0  0  0  0  0  0  0  0  0
   13.0250    1.0610    9.2260 C   0  0  0  0  0  0  0  0  0  0  0  0
   15.2480    1.7500    9.1430 C   0  0  0  0  0  0  0  0  0  0  0  0
   11.6940    0.7940    9.4620 C   0  0  0  0  0  3  0  0  0  0  0  0
   13.6030    0.4340    8.1470 C   0  0  0  0  0  0  0  0  0  0  0  0
   10.9360   -0.0640    8.6660 C   0  0  0  0  0  0  0  0  0  0  0  0
    9.0890   -0.3780    9.0590 Br  0  0  0  0  0  0  0  0  0  0  0  0
   11.5490   -0.6700    7.5990 C   0  0  0  0  0  3  0  0  0  0  0  0
   12.8710   -0.4350    7.3250 C   0  0  0  0  0  3  0  0  0  0  0  0
   14.9610    0.8490    8.0880 N   0  0  0  0  0  0  0  0  0  0  0  0
   15.6620    0.5410    7.3740 H   0  0  0  0  0  0  0  0  0  0  0  0
   16.3330    2.3200    9.4130 O   0  0  0  0  0  0  0  0  0  0  0  0
   10.6980    5.7560   13.1900 C   0  0  0  0  0  2  0  0  0  0  0  0
    9.8790    6.6420   12.5050 N   0  0  0  0  0  0  0  0  0  0  0  0
    8.6310    7.0540   12.7190 C   0  0  0  0  0  0  0  0  0  0  0  0
    8.2570    7.9090   11.6910 C   0  0  0  0  0  0  0  0  0  0  0  0
    7.7920    6.7620   13.7340 N   0  0  0  0  0  0  0  0  0  0  0  0
    9.3130    7.9980   10.8600 N   0  0  0  0  0  0  0  0  0  0  0  0
    7.0000    8.4800   11.6900 C   0  0  0  0  0  0  0  0  0  0  0  0
   10.2770    7.2480   11.3420 C   0  0  0  0  0  3  0  0  0  0  0  0
    6.6890    9.2480   10.7440 O   0  0  0  0  0  0  0  0  0  0  0  0
    6.1900    8.1790   12.6940 N   0  0  0  0  0  0  0  0  0  0  0  0
    6.5640    7.3510   13.6860 C   0  0  0  0  0  0  0  0  0  0  0  0
    4.8380    8.7580   12.7400 C   0  0  0  0  0  1  0  0  0  0  0  0
    5.7670    7.0930   14.6190 O   0  0  0  0  0  0  0  0  0  0  0  0
    8.1730    5.9120   14.8260 C   0  0  0  0  0  1  0  0  0  0  0  0
  1  4  1  0  0  0  0
  2  1  1  0  0  0  0
  2 20  1  0  0  0  0
  3  2  2  0  0  0  0
  5  1  1  0  0  0  0
  6  5  1  0  0  0  0
  7  5  1  0  0  0  0
  8  7  2  0  0  0  0
  9 11  1  0  0  0  0
  9  8  1  0  0  0  0
 10 19  2  0  0  0  0
 10  8  1  0  0  0  0
 12  9  2  0  0  0  0
 13 14  1  0  0  0  0
 13 11  2  0  0  0  0
 15 13  1  0  0  0  0
 16 15  2  0  0  0  0
 16 12  1  0  0  0  0
 17 12  1  0  0  0  0
 17 10  1  0  0  0  0
 18 17  1  0  0  0  0
 21 22  1  0  0  0  0
 21 20  1  0  0  0  0
 22 24  1  0  0  0  0
 23 22  2  0  0  0  0
 24 33  1  0  0  0  0
 25 27  2  0  0  0  0
 25 23  1  0  0  0  0
 26 23  1  0  0  0  0
 26 29  1  0  0  0  0
 27 21  1  0  0  0  0
 28 26  2  0  0  0  0
 29 31  1  0  0  0  0
 29 30  1  0  0  0  0
 30 24  1  0  0  0  0
 30 32  2  0  0  0  0
M  END
>  <Pose>
1

>  <Score>
-10.249

$$$$
