/Users/jonathanwahrer/Desktop/Msc/3_Semester/Drug_Design_Praktikum/waehrer_HTS_screening/HTS_experiment/out/docking_results/vina_output/2jam/0526_docked.pdbqt
 OpenBabel03162217443D

 31 34  0  0  0  0  0  0  0  0999 V2000
   10.4690    4.2400   11.0810 N   0  0  0  0  0  0  0  0  0  0  0  0
   10.1030    5.4300   10.4260 C   0  0  0  0  0  0  0  0  0  0  0  0
    9.9570    5.3980    9.1520 O   0  0  0  0  0  0  0  0  0  0  0  0
   10.6060    4.2530   12.1290 H   0  0  0  0  0  0  0  0  0  0  0  0
    9.8510    6.7400   11.0310 C   0  0  0  0  0  2  0  0  0  0  0  0
    8.7970    6.7990   12.0040 N   0  0  0  0  0  0  0  0  0  0  0  0
    7.8500    7.8610   12.0170 C   0  0  0  0  0  0  0  0  0  0  0  0
    8.0070    8.7620   11.1030 O   0  0  0  0  0  0  0  0  0  0  0  0
    8.6920    6.0870   12.7430 H   0  0  0  0  0  0  0  0  0  0  0  0
    6.7630    8.0210   12.9340 C   0  0  0  0  0  0  0  0  0  0  0  0
    5.8400    9.0560   12.9150 C   0  0  0  0  0  3  0  0  0  0  0  0
    4.8280    9.1440   13.8090 C   0  0  0  0  0  0  0  0  0  0  0  0
    4.6640    8.1920   14.7960 C   0  0  0  0  0  0  0  0  0  0  0  0
    3.7420   10.0700   14.0270 O   0  0  0  0  0  0  0  0  0  0  0  0
    5.5480    7.1610   14.8550 C   0  0  0  0  0  3  0  0  0  0  0  0
    3.5380    8.5350   15.5620 O   0  0  0  0  0  0  0  0  0  0  0  0
    6.6020    7.0520   13.9350 C   0  0  0  0  0  3  0  0  0  0  0  0
    2.6980    9.1950   14.5840 C   0  0  0  0  0  2  0  0  0  0  0  0
   10.6450    3.0990   10.3810 N   0  0  0  0  0  0  0  0  0  0  0  0
   11.4830    2.4420    9.8480 C   0  0  0  0  0  0  0  0  0  0  0  0
   11.4170    1.1730    9.1130 C   0  0  0  0  0  0  0  0  0  0  0  0
   12.9150    2.8650    9.8760 C   0  0  0  0  0  0  0  0  0  0  0  0
   10.3400    0.3700    8.8050 C   0  0  0  0  0  3  0  0  0  0  0  0
   12.6850    0.8660    8.7330 C   0  0  0  0  0  0  0  0  0  0  0  0
   10.4940   -0.7860    8.0940 C   0  0  0  0  0  0  0  0  0  0  0  0
    9.0210   -1.9010    7.6570 Br  0  0  0  0  0  0  0  0  0  0  0  0
   11.7830   -1.1200    7.6960 C   0  0  0  0  0  3  0  0  0  0  0  0
   12.8510   -0.3160    8.0050 C   0  0  0  0  0  3  0  0  0  0  0  0
   13.6120    1.8390    9.1640 N   0  0  0  0  0  0  0  0  0  0  0  0
   14.6480    1.8500    9.0050 H   0  0  0  0  0  0  0  0  0  0  0  0
   13.3250    3.8940   10.4170 O   0  0  0  0  0  0  0  0  0  0  0  0
  1  4  1  0  0  0  0
  2  5  1  0  0  0  0
  2  1  1  0  0  0  0
  3  2  2  0  0  0  0
  5  6  1  0  0  0  0
  6  7  1  0  0  0  0
  6  9  1  0  0  0  0
  7 10  1  0  0  0  0
  8  7  2  0  0  0  0
 10 17  1  0  0  0  0
 11 10  2  0  0  0  0
 11 12  1  0  0  0  0
 12 14  1  0  0  0  0
 12 13  2  0  0  0  0
 13 15  1  0  0  0  0
 13 16  1  0  0  0  0
 14 18  1  0  0  0  0
 17 15  2  0  0  0  0
 18 16  1  0  0  0  0
 19  1  1  0  0  0  0
 20 22  1  0  0  0  0
 20 19  2  0  0  0  0
 21 20  1  0  0  0  0
 22 31  2  0  0  0  0
 23 21  1  0  0  0  0
 24 21  2  0  0  0  0
 24 29  1  0  0  0  0
 25 23  2  0  0  0  0
 26 25  1  0  0  0  0
 27 28  2  0  0  0  0
 27 25  1  0  0  0  0
 28 24  1  0  0  0  0
 29 22  1  0  0  0  0
 30 29  1  0  0  0  0
M  END
>  <Pose>
1

>  <Score>
-9.928

$$$$
