/Users/jonathanwahrer/Desktop/Msc/3_Semester/Drug_Design_Praktikum/waehrer_HTS_screening/HTS_experiment/out/docking_results/vina_output/2jam/0556_docked.pdbqt
 OpenBabel03162217443D

 30 33  0  0  1  0  0  0  0  0999 V2000
    8.2710    5.9790   11.8600 Br  0  0  0  0  0  0  0  0  0  0  0  0
    8.3040    7.5520   12.9390 C   0  0  0  0  0  0  0  0  0  0  0  0
    7.3560    7.6550   13.9270 C   0  0  0  0  0  3  0  0  0  0  0  0
    7.3400    8.7890   14.7450 C   0  0  0  0  0  0  0  0  0  0  0  0
    8.2620    9.7640   14.5440 C   0  0  0  0  0  0  0  0  0  0  0  0
    9.2430    9.6780   13.5380 C   0  0  0  0  0  3  0  0  0  0  0  0
    9.2340    8.5520   12.7490 C   0  0  0  0  0  3  0  0  0  0  0  0
    8.0780   10.8250   15.4630 N   0  0  0  0  0  0  0  0  0  0  0  0
    6.9890   10.4970   16.2730 C   0  0  0  0  0  0  0  0  0  0  0  0
    6.4900   11.2040   17.2320 O   0  0  0  0  0  0  0  0  0  0  0  0
    6.4720    9.1610   15.8510 C   0  0  2  0  0  0  0  0  0  0  0  0
    6.5170    8.3280   17.0250 C   0  0  0  0  0  0  0  0  0  0  0  0
    5.3910    7.8890   17.6160 C   0  0  0  0  0  0  0  0  0  0  0  0
    5.7770    7.1300   18.6940 N   0  0  0  0  0  0  0  0  0  0  0  0
    7.0910    7.1160   18.7460 N   0  0  0  0  0  0  0  0  0  0  0  0
    7.6180    7.8310   17.7520 C   0  0  0  0  0  0  0  0  0  0  0  0
    9.0560    8.0770   17.4420 C   0  0  0  0  0  1  0  0  0  0  0  0
    4.1010    8.1980   17.1480 O   0  0  0  0  0  0  0  0  0  0  0  0
    4.0370    9.0010   16.0160 C   0  0  0  0  0  0  0  0  0  0  0  0
    5.0890    9.4540   15.4050 C   0  0  0  0  0  0  0  0  0  0  0  0
    8.6410   11.7190   15.5500 H   0  0  0  0  0  0  0  0  0  0  0  0
    5.1310    6.6470   19.3590 H   0  0  0  0  0  0  0  0  0  0  0  0
    4.9090   10.3090   14.1960 C   0  0  0  0  0  0  0  0  0  0  0  0
    4.6510   11.5130   14.3690 O   0  0  0  0  0  0  0  0  0  0  0  0
    5.0160    9.8320   12.9180 O   0  0  0  0  0  0  0  0  0  0  0  0
    4.2610    8.7680   12.3910 C   0  0  0  0  0  2  0  0  0  0  0  0
    4.9650    8.3000   11.1140 C   0  0  0  0  0  1  0  0  0  0  0  0
    2.7460    9.3620   15.4750 N   0  0  0  0  0  0  0  0  0  0  0  0
    2.6850    9.5740   14.4770 H   0  0  0  0  0  0  0  0  0  0  0  0
    1.9360    9.3960   16.0960 H   0  0  0  0  0  0  0  0  0  0  0  0
  1  2  1  0  0  0  0
  2  3  1  0  0  0  0
  3  4  2  0  0  0  0
  5  4  1  0  0  0  0
  5  8  1  0  0  0  0
  6  5  2  0  0  0  0
  7  2  2  0  0  0  0
  7  6  1  0  0  0  0
  8 21  1  0  0  0  0
  8  9  1  0  0  0  0
  9 10  2  0  0  0  0
 11  4  1  6  0  0  0
 11  9  1  0  0  0  0
 11 12  1  0  0  0  0
 12 13  2  0  0  0  0
 12 16  1  0  0  0  0
 13 14  1  0  0  0  0
 14 15  1  0  0  0  0
 14 22  1  0  0  0  0
 16 15  2  0  0  0  0
 17 16  1  0  0  0  0
 18 13  1  0  0  0  0
 19 18  1  0  0  0  0
 20 11  1  0  0  0  0
 20 19  2  0  0  0  0
 23 24  2  0  0  0  0
 23 20  1  0  0  0  0
 25 23  1  0  0  0  0
 26 25  1  0  0  0  0
 27 26  1  0  0  0  0
 28 19  1  0  0  0  0
 28 30  1  0  0  0  0
 29 28  1  0  0  0  0
M  END
>  <Pose>
1

>  <Score>
-7.219

$$$$
