/Users/jonathanwahrer/Desktop/Msc/3_Semester/Drug_Design_Praktikum/waehrer_HTS_screening/HTS_experiment/out/docking_results/vina_output/2jam/0558_docked.pdbqt
 OpenBabel03162217443D

 29 32  0  0  1  0  0  0  0  0999 V2000
   10.7930    6.7240   17.9330 Br  0  0  0  0  0  0  0  0  0  0  0  0
    9.6340    8.1790   17.5490 C   0  0  0  0  0  0  0  0  0  0  0  0
    8.4860    8.0270   16.7640 C   0  0  0  0  0  3  0  0  0  0  0  0
    7.6550    9.0810   16.4920 C   0  0  0  0  0  0  0  0  0  0  0  0
    7.9520   10.3130   16.9960 C   0  0  0  0  0  0  0  0  0  0  0  0
    9.0900   10.5170   17.7880 C   0  0  0  0  0  3  0  0  0  0  0  0
    9.9050    9.4400   18.0450 C   0  0  0  0  0  3  0  0  0  0  0  0
    6.9790   11.2670   16.6050 N   0  0  0  0  0  0  0  0  0  0  0  0
    6.0270   10.5970   15.8170 C   0  0  0  0  0  0  0  0  0  0  0  0
    4.9990   11.0760   15.2690 O   0  0  0  0  0  0  0  0  0  0  0  0
    6.4120    9.1730   15.7060 C   0  0  1  0  0  0  0  0  0  0  0  0
    6.6650    8.8350   14.2670 C   0  0  0  0  0  0  0  0  0  0  0  0
    6.0750    7.8800   13.5980 C   0  0  0  0  0  0  0  0  0  0  0  0
    5.1140    7.0870   14.2700 N   0  0  0  0  0  0  0  0  0  0  0  0
    4.8080    7.3330   15.6330 C   0  0  0  0  0  0  0  0  0  0  0  0
    5.3980    8.2900   16.3070 C   0  0  0  0  0  0  0  0  0  0  0  0
    5.0240    8.4780   17.7120 C   0  0  0  0  0  0  0  0  0  0  0  0
    4.7370    8.6450   18.8200 N   0  0  0  0  0  0  0  0  0  0  0  0
    6.6060    7.8780   12.2130 C   0  0  0  0  0  0  0  0  0  0  0  0
    7.5530    8.9110   12.1330 O   0  0  0  0  0  0  0  0  0  0  0  0
    7.6150    9.5180   13.3720 C   0  0  0  0  0  0  0  0  0  0  0  0
    8.3740   10.5030   13.6720 O   0  0  0  0  0  0  0  0  0  0  0  0
    5.5050    8.2270   11.2090 C   0  0  0  0  0  1  0  0  0  0  0  0
    7.2180    6.5290   11.8630 C   0  0  0  0  0  1  0  0  0  0  0  0
    6.9860   12.3010   16.8730 H   0  0  0  0  0  0  0  0  0  0  0  0
    4.6070    6.3040   13.7820 H   0  0  0  0  0  0  0  0  0  0  0  0
    3.8170    6.5060   16.3020 N   0  0  0  0  0  0  0  0  0  0  0  0
    2.9180    6.8710   16.6570 H   0  0  0  0  0  0  0  0  0  0  0  0
    4.0320    5.5030   16.4220 H   0  0  0  0  0  0  0  0  0  0  0  0
  2  1  1  0  0  0  0
  2  7  1  0  0  0  0
  3  2  2  0  0  0  0
  4  3  1  0  0  0  0
  4  5  2  0  0  0  0
  5  6  1  0  0  0  0
  6  7  2  0  0  0  0
  8 25  1  0  0  0  0
  8  5  1  0  0  0  0
  9  8  1  0  0  0  0
 10  9  2  0  0  0  0
 11 12  1  6  0  0  0
 11  9  1  0  0  0  0
 11 16  1  0  0  0  0
 11  4  1  0  0  0  0
 13 12  2  0  0  0  0
 13 14  1  0  0  0  0
 14 15  1  0  0  0  0
 15 27  1  0  0  0  0
 15 16  2  0  0  0  0
 16 17  1  0  0  0  0
 17 18  3  0  0  0  0
 19 13  1  0  0  0  0
 20 19  1  0  0  0  0
 20 21  1  0  0  0  0
 21 22  2  0  0  0  0
 21 12  1  0  0  0  0
 23 19  1  0  0  0  0
 24 19  1  0  0  0  0
 26 14  1  0  0  0  0
 27 29  1  0  0  0  0
 27 28  1  0  0  0  0
M  END
>  <Pose>
1

>  <Score>
-7.220

$$$$
