/Users/jonathanwahrer/Desktop/Msc/3_Semester/Drug_Design_Praktikum/waehrer_HTS_screening/HTS_experiment/out/docking_results/vina_output/2jam/0559_docked.pdbqt
 OpenBabel03162217443D

 32 35  0  0  1  0  0  0  0  0999 V2000
   11.9770   11.1480   14.2980 Br  0  0  0  0  0  0  0  0  0  0  0  0
   10.3230   10.5090   15.0330 C   0  0  0  0  0  0  0  0  0  0  0  0
    9.5720    9.5380   14.3980 C   0  0  0  0  0  3  0  0  0  0  0  0
    8.3820    9.0730   14.9180 C   0  0  0  0  0  0  0  0  0  0  0  0
    7.9760    9.6290   16.1130 C   0  0  0  0  0  0  0  0  0  0  0  0
    8.7290   10.6070   16.7560 C   0  0  0  0  0  3  0  0  0  0  0  0
    9.9000   11.0490   16.2210 C   0  0  0  0  0  3  0  0  0  0  0  0
    6.7250    9.0360   16.4980 N   0  0  0  0  0  0  0  0  0  0  0  0
    6.3420    8.0870   15.5180 C   0  0  0  0  0  0  0  0  0  0  0  0
    5.2890    7.4100   15.5680 O   0  0  0  0  0  0  0  0  0  0  0  0
    7.3910    8.0640   14.4770 C   0  0  1  0  0  0  0  0  0  0  0  0
    6.8410    8.3610   13.1810 N   0  0  0  0  0  0  0  0  0  0  0  0
    6.2660    7.1040   12.7510 C   0  0  2  0  0  3  0  0  0  0  0  0
    7.3000    6.0860   13.1510 C   0  0  2  0  0  3  0  0  0  0  0  0
    7.9470    6.6890   14.3740 C   0  0  1  0  0  3  0  0  0  0  0  0
    9.3940    6.6040   14.1320 C   0  0  0  0  0  0  0  0  0  0  0  0
   10.3110    6.8800   14.9460 O   0  0  0  0  0  0  0  0  0  0  0  0
    9.6360    6.1430   12.7830 N   0  0  0  0  0  0  0  0  0  0  0  0
    8.3820    5.9370   12.1530 C   0  0  0  0  0  0  0  0  0  0  0  0
    8.2420    5.6710   10.9350 O   0  0  0  0  0  0  0  0  0  0  0  0
    6.2170    9.2970   17.3710 H   0  0  0  0  0  0  0  0  0  0  0  0
    7.6110    8.6060   12.5380 H   0  0  0  0  0  0  0  0  0  0  0  0
    5.9850    7.1340   11.2730 C   0  0  0  0  0  2  0  0  0  0  0  0
    4.8190    7.9800   10.9730 C   0  0  0  0  0  0  0  0  0  0  0  0
    4.7380    8.5190    9.8350 O   0  0  0  0  0  0  0  0  0  0  0  0
    3.7580    8.2430   11.8780 N   0  0  0  0  0  0  0  0  0  0  0  0
    3.8710    8.5200   12.8630 H   0  0  0  0  0  0  0  0  0  0  0  0
    2.7780    8.1430   11.5030 H   0  0  0  0  0  0  0  0  0  0  0  0
   10.9190    5.9240   12.1640 C   0  0  0  0  0  0  0  0  0  0  0  0
   11.9960    6.7860   12.7770 C   0  0  0  0  0  1  0  0  0  0  0  0
   11.2950    4.4460   12.3160 C   0  0  0  0  0  1  0  0  0  0  0  0
   10.8690    6.2520   10.6880 C   0  0  0  0  0  1  0  0  0  0  0  0
  1  2  1  0  0  0  0
  2  7  1  0  0  0  0
  3  4  1  0  0  0  0
  3  2  2  0  0  0  0
  4  5  2  0  0  0  0
  5  8  1  0  0  0  0
  5  6  1  0  0  0  0
  7  6  2  0  0  0  0
  8 21  1  0  0  0  0
  9 10  2  0  0  0  0
  9  8  1  0  0  0  0
 11  4  1  1  0  0  0
 11  9  1  0  0  0  0
 12 11  1  0  0  0  0
 13 23  1  6  0  0  0
 13 14  1  0  0  0  0
 13 12  1  0  0  0  0
 14 19  1  6  0  0  0
 14 15  1  0  0  0  0
 15 16  1  6  0  0  0
 15 11  1  0  0  0  0
 16 17  2  0  0  0  0
 18 16  1  0  0  0  0
 19 18  1  0  0  0  0
 20 19  2  0  0  0  0
 22 12  1  0  0  0  0
 24 23  1  0  0  0  0
 24 26  1  0  0  0  0
 25 24  2  0  0  0  0
 26 27  1  0  0  0  0
 28 26  1  0  0  0  0
 29 31  1  0  0  0  0
 29 30  1  0  0  0  0
 29 18  1  0  0  0  0
 32 29  1  0  0  0  0
M  END
>  <Pose>
1

>  <Score>
-7.761

$$$$
