/Users/jonathanwahrer/Desktop/Msc/3_Semester/Drug_Design_Praktikum/waehrer_HTS_screening/HTS_experiment/out/docking_results/vina_output/2jam/0566_docked.pdbqt
 OpenBabel03162217443D

 30 33  0  0  1  0  0  0  0  0999 V2000
   12.0540    2.2570   11.7480 Br  0  0  0  0  0  0  0  0  0  0  0  0
   11.7620    4.1390   11.6370 C   0  0  0  0  0  0  0  0  0  0  0  0
   10.8900    4.7650   12.4920 C   0  0  0  0  0  3  0  0  0  0  0  0
   10.6660    6.1520   12.4180 C   0  0  0  0  0  0  0  0  0  0  0  0
   11.3110    6.9250   11.4930 C   0  0  0  0  0  0  0  0  0  0  0  0
   12.2020    6.2850   10.6210 C   0  0  0  0  0  3  0  0  0  0  0  0
   12.4060    4.9280   10.7090 C   0  0  0  0  0  3  0  0  0  0  0  0
   10.9260    8.2870   11.6130 N   0  0  0  0  0  0  0  0  0  0  0  0
    9.9900    8.3700   12.6690 C   0  0  0  0  0  0  0  0  0  0  0  0
    9.4580    9.4750   13.0190 O   0  0  0  0  0  0  0  0  0  0  0  0
    9.7890    7.0380   13.2150 C   0  0  2  0  0  0  0  0  0  0  0  0
   10.0690    6.9460   14.6350 N   0  0  0  0  0  0  0  0  0  0  0  0
    8.8160    7.2510   15.3030 C   0  0  1  0  0  3  0  0  0  0  0  0
    7.8210    6.5160   14.4520 C   0  0  2  0  0  3  0  0  0  0  0  0
    8.3360    6.6450   13.0580 C   0  0  1  0  0  3  0  0  0  0  0  0
    7.5210    7.6950   12.4270 C   0  0  0  0  0  0  0  0  0  0  0  0
    7.7510    8.3490   11.3570 O   0  0  0  0  0  0  0  0  0  0  0  0
    6.3520    7.9210   13.2050 N   0  0  0  0  0  0  0  0  0  0  0  0
    6.5060    7.1900   14.4040 C   0  0  0  0  0  0  0  0  0  0  0  0
    5.6560    7.0960   15.3410 O   0  0  0  0  0  0  0  0  0  0  0  0
   11.3020    9.0530   10.9980 H   0  0  0  0  0  0  0  0  0  0  0  0
   10.8470    7.5610   14.9330 H   0  0  0  0  0  0  0  0  0  0  0  0
    8.8750    6.7530   16.7130 C   0  0  1  0  0  3  0  0  0  0  0  0
    8.8850    7.9150   17.6750 C   0  0  0  0  0  1  0  0  0  0  0  0
    7.7050    6.0240   16.9580 O   0  0  0  0  0  0  0  0  0  0  0  0
    6.9010    6.5590   16.7330 H   0  0  0  0  0  0  0  0  0  0  0  0
    5.2140    8.7430   12.8430 C   0  0  0  0  0  2  0  0  0  0  0  0
    5.2450   10.0840   13.5020 C   0  0  0  0  0  2  0  0  0  0  0  0
    4.1200   10.0920   14.5440 C   0  0  0  0  0  2  0  0  0  0  0  0
    3.0020    9.1810   14.1170 C   0  0  0  0  0  1  0  0  0  0  0  0
  2  1  1  0  0  0  0
  2  3  1  0  0  0  0
  4  3  2  0  0  0  0
  5  8  1  0  0  0  0
  5  4  1  0  0  0  0
  6  7  1  0  0  0  0
  6  5  2  0  0  0  0
  7  2  2  0  0  0  0
  8  9  1  0  0  0  0
  9 10  2  0  0  0  0
  9 11  1  0  0  0  0
 11  4  1  6  0  0  0
 11 12  1  0  0  0  0
 12 22  1  0  0  0  0
 12 13  1  0  0  0  0
 13 23  1  1  0  0  0
 14 19  1  6  0  0  0
 14 13  1  0  0  0  0
 15 16  1  6  0  0  0
 15 11  1  0  0  0  0
 15 14  1  0  0  0  0
 16 18  1  0  0  0  0
 17 16  2  0  0  0  0
 18 19  1  0  0  0  0
 19 20  2  0  0  0  0
 21  8  1  0  0  0  0
 23 25  1  0  0  0  0
 23 24  1  1  0  0  0
 26 25  1  0  0  0  0
 27 18  1  0  0  0  0
 27 28  1  0  0  0  0
 28 29  1  0  0  0  0
 30 29  1  0  0  0  0
M  END
>  <Pose>
1

>  <Score>
-7.179

$$$$
