/Users/jonathanwahrer/Desktop/Msc/3_Semester/Drug_Design_Praktikum/waehrer_HTS_screening/HTS_experiment/out/docking_results/vina_output/2jam/0571_docked.pdbqt
 OpenBabel03162217453D

 34 38  0  0  1  0  0  0  0  0999 V2000
   11.9920   11.4490   14.1650 Br  0  0  0  0  0  0  0  0  0  0  0  0
   10.5870   10.5750   15.1170 C   0  0  0  0  0  0  0  0  0  0  0  0
    9.6030    9.8480   14.4840 C   0  0  0  0  0  3  0  0  0  0  0  0
    8.5690    9.2130   15.1870 C   0  0  0  0  0  0  0  0  0  0  0  0
    8.5680    9.3390   16.5550 C   0  0  0  0  0  0  0  0  0  0  0  0
    9.5560   10.0680   17.2000 C   0  0  0  0  0  3  0  0  0  0  0  0
   10.5660   10.6890   16.4980 C   0  0  0  0  0  3  0  0  0  0  0  0
    7.4640    8.6620   17.1250 N   0  0  0  0  0  0  0  0  0  0  0  0
    6.7320    8.0810   16.0690 C   0  0  0  0  0  0  0  0  0  0  0  0
    5.6810    7.4070   16.2600 O   0  0  0  0  0  0  0  0  0  0  0  0
    7.4090    8.4100   14.7970 C   0  0  1  0  0  0  0  0  0  0  0  0
    6.5130    9.1750   13.9240 N   0  0  0  0  0  0  0  0  0  0  0  0
    6.8650    8.7900   12.5750 C   0  0  1  0  0  3  0  0  0  0  0  0
    7.4570    7.4370   12.6220 C   0  0  2  0  0  3  0  0  0  0  0  0
    7.6860    7.1360   14.0920 C   0  0  1  0  0  3  0  0  0  0  0  0
    9.0350    6.5890   14.1750 C   0  0  0  0  0  0  0  0  0  0  0  0
    9.6700    6.3230   15.2250 O   0  0  0  0  0  0  0  0  0  0  0  0
    9.5700    6.3840   12.8490 N   0  0  0  0  0  0  0  0  0  0  0  0
    8.8020    7.2890   12.0300 C   0  0  0  0  0  0  0  0  0  0  0  0
    9.2210    7.8410   11.0010 O   0  0  0  0  0  0  0  0  0  0  0  0
    7.2340    8.6040   18.1550 H   0  0  0  0  0  0  0  0  0  0  0  0
    6.6260   10.2040   14.0680 H   0  0  0  0  0  0  0  0  0  0  0  0
    5.6610    8.8980   11.6700 C   0  0  2  0  0  3  0  0  0  0  0  0
    4.3600    8.8350   12.4330 C   0  0  0  0  0  1  0  0  0  0  0  0
    5.7340    7.9470   10.6710 O   0  0  0  0  0  0  0  0  0  0  0  0
    5.7570    7.0360   11.0210 H   0  0  0  0  0  0  0  0  0  0  0  0
   10.5900    5.4850   12.4140 C   0  0  0  0  0  3  0  0  0  0  0  0
   10.2400    4.6000   11.2530 C   0  0  0  0  0  3  0  0  0  0  0  0
   11.1890    3.5030   10.9970 C   0  0  0  0  0  0  0  0  0  0  0  0
   10.8770    2.5400   10.0450 C   0  0  0  0  0  3  0  0  0  0  0  0
   11.7530    1.5410    9.7820 C   0  0  0  0  0  3  0  0  0  0  0  0
   12.9550    1.4300   10.4190 C   0  0  0  0  0  3  0  0  0  0  0  0
   13.2570    2.3960   11.3660 C   0  0  0  0  0  3  0  0  0  0  0  0
   12.3900    3.4120   11.6490 C   0  0  0  0  0  3  0  0  0  0  0  0
  1  2  1  0  0  0  0
  2  7  1  0  0  0  0
  3  2  2  0  0  0  0
  3  4  1  0  0  0  0
  4  5  2  0  0  0  0
  5  8  1  0  0  0  0
  5  6  1  0  0  0  0
  7  6  2  0  0  0  0
  8 21  1  0  0  0  0
  9 10  2  0  0  0  0
  9  8  1  0  0  0  0
 11  4  1  1  0  0  0
 11  9  1  0  0  0  0
 12 22  1  0  0  0  0
 12 11  1  0  0  0  0
 13 23  1  6  0  0  0
 13 14  1  0  0  0  0
 13 12  1  0  0  0  0
 14 19  1  6  0  0  0
 14 15  1  0  0  0  0
 15 16  1  6  0  0  0
 15 11  1  0  0  0  0
 16 17  2  0  0  0  0
 18 16  1  0  0  0  0
 19 18  1  0  0  0  0
 20 19  2  0  0  0  0
 23 24  1  1  0  0  0
 25 26  1  0  0  0  0
 25 23  1  0  0  0  0
 27 18  1  0  0  0  0
 28 27  2  0  0  0  0
 29 28  1  0  0  0  0
 29 34  1  0  0  0  0
 30 29  2  0  0  0  0
 31 30  1  0  0  0  0
 31 32  2  0  0  0  0
 32 33  1  0  0  0  0
 33 34  2  0  0  0  0
M  END
>  <Pose>
1

>  <Score>
-8.180

$$$$
