/Users/jonathanwahrer/Desktop/Msc/3_Semester/Drug_Design_Praktikum/waehrer_HTS_screening/HTS_experiment/out/docking_results/vina_output/2jam/0578_docked.pdbqt
 OpenBabel03162217453D

 27 30  0  0  1  0  0  0  0  0999 V2000
   17.1190    4.1540   11.7110 Br  0  0  0  0  0  0  0  0  0  0  0  0
   15.8140    5.5430   11.5940 C   0  0  0  0  0  0  0  0  0  0  0  0
   14.4720    5.3040   11.7560 C   0  0  0  0  0  3  0  0  0  0  0  0
   13.4840    6.3010   11.6760 C   0  0  0  0  0  0  0  0  0  0  0  0
   13.9130    7.5690   11.4230 C   0  0  0  0  0  0  0  0  0  0  0  0
   15.2850    7.8340   11.2530 C   0  0  0  0  0  3  0  0  0  0  0  0
   16.2270    6.8360   11.3360 C   0  0  0  0  0  3  0  0  0  0  0  0
   12.8170    8.4730   11.3790 N   0  0  0  0  0  0  0  0  0  0  0  0
   11.6480    7.7240   11.6190 C   0  0  0  0  0  0  0  0  0  0  0  0
   10.4540    8.1970   11.6710 O   0  0  0  0  0  0  0  0  0  0  0  0
   12.0420    6.3150   11.7990 C   0  0  2  0  0  0  0  0  0  0  0  0
   11.6450    6.0220   13.1880 N   0  0  0  0  0  0  0  0  0  0  0  0
   10.4130    5.2960   13.1660 C   0  0  2  0  0  3  0  0  0  0  0  0
   10.4340    4.5720   11.8700 C   0  0  1  0  0  3  0  0  0  0  0  0
   11.2850    5.3810   10.9290 C   0  0  2  0  0  3  0  0  0  0  0  0
   12.0220    4.3820   10.1890 C   0  0  0  0  0  0  0  0  0  0  0  0
   12.6590    4.5940    9.1150 O   0  0  0  0  0  0  0  0  0  0  0  0
   11.9140    3.1330   10.8580 N   0  0  0  0  0  0  0  0  0  0  0  0
   11.1860    3.2920   12.0670 C   0  0  0  0  0  0  0  0  0  0  0  0
   11.2160    2.5030   13.0320 O   0  0  0  0  0  0  0  0  0  0  0  0
    9.1760    6.1420   13.3550 C   0  0  0  0  0  1  0  0  0  0  0  0
   12.8510    9.5190   11.2010 H   0  0  0  0  0  0  0  0  0  0  0  0
   12.3980    5.5000   13.6880 H   0  0  0  0  0  0  0  0  0  0  0  0
   12.4890    1.9030   10.3310 C   0  0  0  0  0  2  0  0  0  0  0  0
   13.9070    1.7090   10.7760 C   0  0  0  0  0  2  0  0  0  0  0  0
   14.9060    1.8760    9.6620 C   0  0  0  0  0  2  0  0  0  0  0  0
   14.1960    1.4440    8.3750 C   0  0  0  0  0  1  0  0  0  0  0  0
  2  1  1  0  0  0  0
  2  3  1  0  0  0  0
  4  3  2  0  0  0  0
  4 11  1  0  0  0  0
  5  4  1  0  0  0  0
  6  7  1  0  0  0  0
  6  5  2  0  0  0  0
  7  2  2  0  0  0  0
  8  5  1  0  0  0  0
  8  9  1  0  0  0  0
  9 10  2  0  0  0  0
 11  9  1  6  0  0  0
 11 12  1  0  0  0  0
 12 23  1  0  0  0  0
 13 12  1  0  0  0  0
 13 21  1  6  0  0  0
 14 19  1  1  0  0  0
 14 13  1  0  0  0  0
 15 16  1  1  0  0  0
 15 11  1  0  0  0  0
 15 14  1  0  0  0  0
 16 18  1  0  0  0  0
 17 16  2  0  0  0  0
 18 19  1  0  0  0  0
 19 20  2  0  0  0  0
 22  8  1  0  0  0  0
 24 25  1  0  0  0  0
 24 18  1  0  0  0  0
 26 25  1  0  0  0  0
 27 26  1  0  0  0  0
M  END
>  <Pose>
1

>  <Score>
-7.864

$$$$
