/Users/jonathanwahrer/Desktop/Msc/3_Semester/Drug_Design_Praktikum/waehrer_HTS_screening/HTS_experiment/out/docking_results/vina_output/2jam/0579_docked.pdbqt
 OpenBabel03162217453D

 32 35  0  0  1  0  0  0  0  0999 V2000
    3.9260    8.9020   17.9830 Br  0  0  0  0  0  0  0  0  0  0  0  0
    5.4910    9.3710   16.9990 C   0  0  0  0  0  0  0  0  0  0  0  0
    5.9310    8.6540   15.9090 C   0  0  0  0  0  3  0  0  0  0  0  0
    7.0760    9.0020   15.1940 C   0  0  0  0  0  0  0  0  0  0  0  0
    7.8010   10.1010   15.5830 C   0  0  0  0  0  0  0  0  0  0  0  0
    7.3820   10.8420   16.6760 C   0  0  0  0  0  3  0  0  0  0  0  0
    6.2290   10.4710   17.3770 C   0  0  0  0  0  3  0  0  0  0  0  0
    8.9240   10.2810   14.7160 N   0  0  0  0  0  0  0  0  0  0  0  0
    8.9030    9.2510   13.7420 C   0  0  0  0  0  0  0  0  0  0  0  0
    9.7530    9.1470   12.8370 O   0  0  0  0  0  0  0  0  0  0  0  0
    7.7540    8.4010   14.0090 C   0  0  2  0  0  0  0  0  0  0  0  0
    6.8860    8.4650   12.8330 N   0  0  0  0  0  0  0  0  0  0  0  0
    6.3670    7.1410   12.6620 C   0  0  2  0  0  3  0  0  0  0  0  0
    7.5030    6.2610   13.0410 C   0  0  2  0  0  3  0  0  0  0  0  0
    8.0650    6.9550   14.2590 C   0  0  1  0  0  3  0  0  0  0  0  0
    9.4770    6.6010   14.2670 C   0  0  0  0  0  0  0  0  0  0  0  0
   10.2520    6.6960   15.2430 O   0  0  0  0  0  0  0  0  0  0  0  0
    9.8150    6.1290   12.9680 N   0  0  0  0  0  0  0  0  0  0  0  0
    8.6590    6.2870   12.1110 C   0  0  0  0  0  0  0  0  0  0  0  0
    8.7500    6.4070   10.8790 O   0  0  0  0  0  0  0  0  0  0  0  0
    9.6340   11.0600   14.8120 H   0  0  0  0  0  0  0  0  0  0  0  0
    7.4460    8.7040   11.9800 H   0  0  0  0  0  0  0  0  0  0  0  0
    5.7860    6.8920   11.3120 C   0  0  0  0  0  2  0  0  0  0  0  0
    4.8290    7.9520   10.9780 C   0  0  0  0  0  0  0  0  0  0  0  0
    4.9270    8.5570    9.8740 O   0  0  0  0  0  0  0  0  0  0  0  0
    3.7870    8.3090   11.8840 N   0  0  0  0  0  0  0  0  0  0  0  0
    2.8830    8.6770   11.5250 H   0  0  0  0  0  0  0  0  0  0  0  0
    3.9380    8.1980   12.9080 H   0  0  0  0  0  0  0  0  0  0  0  0
   11.0950    5.5930   12.6090 C   0  0  0  0  0  2  0  0  0  0  0  0
   11.1390    4.1130   12.4190 C   0  0  0  0  0  2  0  0  0  0  0  0
   11.9500    3.7190   11.3680 O   0  0  0  0  0  0  0  0  0  0  0  0
   11.7700    4.5270   10.2480 C   0  0  0  0  0  1  0  0  0  0  0  0
  2  7  1  0  0  0  0
  2  1  1  0  0  0  0
  3  2  2  0  0  0  0
  4  5  2  0  0  0  0
  4  3  1  0  0  0  0
  5  6  1  0  0  0  0
  6  7  2  0  0  0  0
  8 21  1  0  0  0  0
  8  5  1  0  0  0  0
  9  8  1  0  0  0  0
 10  9  2  0  0  0  0
 11  9  1  6  0  0  0
 11 15  1  0  0  0  0
 11  4  1  0  0  0  0
 12 11  1  0  0  0  0
 13 23  1  6  0  0  0
 13 12  1  0  0  0  0
 13 14  1  0  0  0  0
 14 19  1  6  0  0  0
 14 15  1  0  0  0  0
 15 16  1  6  0  0  0
 16 17  2  0  0  0  0
 18 16  1  0  0  0  0
 19 18  1  0  0  0  0
 20 19  2  0  0  0  0
 22 12  1  0  0  0  0
 24 23  1  0  0  0  0
 24 26  1  0  0  0  0
 25 24  2  0  0  0  0
 26 28  1  0  0  0  0
 27 26  1  0  0  0  0
 29 18  1  0  0  0  0
 30 29  1  0  0  0  0
 31 30  1  0  0  0  0
 32 31  1  0  0  0  0
M  END
>  <Pose>
1

>  <Score>
-7.347

$$$$
