/Users/jonathanwahrer/Desktop/Msc/3_Semester/Drug_Design_Praktikum/waehrer_HTS_screening/HTS_experiment/out/docking_results/vina_output/2jam/0588_docked.pdbqt
 OpenBabel03162217453D

 24 27  0  0  1  0  0  0  0  0999 V2000
    5.8890   10.1220   18.5380 Br  0  0  0  0  0  0  0  0  0  0  0  0
    5.8030    9.5110   16.7350 C   0  0  0  0  0  0  0  0  0  0  0  0
    6.4740    8.3700   16.4050 C   0  0  0  0  0  3  0  0  0  0  0  0
    6.4300    7.9030   15.1020 C   0  0  0  0  0  0  0  0  0  0  0  0
    5.7060    8.5910   14.1360 C   0  0  0  0  0  0  0  0  0  0  0  0
    5.0220    9.7470   14.4540 C   0  0  0  0  0  3  0  0  0  0  0  0
    5.0950   10.1730   15.7610 C   0  0  0  0  0  3  0  0  0  0  0  0
    5.5880    8.2110   12.7800 N   0  0  0  0  0  0  0  0  0  0  0  0
    4.5600    8.6300   12.0320 N   0  0  0  0  0  0  0  0  0  0  0  0
    4.7420    8.1120   10.8480 N   0  0  0  0  0  0  0  0  0  0  0  0
    5.8470    7.3840   10.8270 N   0  0  0  0  0  0  0  0  0  0  0  0
    6.4000    7.4440   12.0730 C   0  0  0  0  0  0  0  0  0  0  0  0
    7.6780    6.7230   12.4060 C   0  0  2  0  0  0  0  0  0  0  0  0
    7.5870    6.0900   13.7190 N   0  0  0  0  0  0  0  0  0  0  0  0
    7.2140    6.6700   14.9630 C   0  0  0  0  0  0  0  0  0  0  0  0
    7.5790    6.0890   16.0230 O   0  0  0  0  0  0  0  0  0  0  0  0
    8.7360    7.7870   12.5250 C   0  0  0  0  0  2  0  0  0  0  0  0
   10.0880    7.1740   12.3590 C   0  0  0  0  0  0  0  0  0  0  0  0
   10.1490    6.6640   11.0890 O   0  0  0  0  0  0  0  0  0  0  0  0
    9.3120    5.6130   10.8320 C   0  0  0  0  0  3  0  0  0  0  0  0
    7.9480    5.6960   11.3690 C   0  0  0  0  0  3  0  0  0  0  0  0
   11.1550    8.2720   12.4480 C   0  0  0  0  0  1  0  0  0  0  0  0
   10.4280    6.1690   13.4270 C   0  0  0  0  0  1  0  0  0  0  0  0
    7.8300    5.0540   13.7730 H   0  0  0  0  0  0  0  0  0  0  0  0
  2  1  1  0  0  0  0
  3  2  1  0  0  0  0
  4  3  2  0  0  0  0
  5  6  2  0  0  0  0
  5  4  1  0  0  0  0
  6  7  1  0  0  0  0
  7  2  2  0  0  0  0
  8  5  1  0  0  0  0
  9  8  1  0  0  0  0
 10  9  2  0  0  0  0
 11 10  1  0  0  0  0
 11 12  2  0  0  0  0
 12 13  1  0  0  0  0
 12  8  1  0  0  0  0
 13 21  1  6  0  0  0
 13 17  1  0  0  0  0
 13 14  1  0  0  0  0
 14 24  1  0  0  0  0
 14 15  1  0  0  0  0
 15  4  1  0  0  0  0
 15 16  2  0  0  0  0
 18 22  1  0  0  0  0
 18 17  1  0  0  0  0
 18 23  1  0  0  0  0
 19 18  1  0  0  0  0
 20 19  1  0  0  0  0
 20 21  2  0  0  0  0
M  END
>  <Pose>
1

>  <Score>
-8.133

$$$$
