/Users/jonathanwahrer/Desktop/Msc/3_Semester/Drug_Design_Praktikum/waehrer_HTS_screening/HTS_experiment/out/docking_results/vina_output/2jam/0591_docked.pdbqt
 OpenBabel03162217453D

 23 26  0  0  0  0  0  0  0  0999 V2000
   11.2960    6.3440   12.3980 Br  0  0  0  0  0  0  0  0  0  0  0  0
    9.6920    7.2670   12.9120 C   0  0  0  0  0  0  0  0  0  0  0  0
    8.6990    6.6080   13.6050 C   0  0  0  0  0  3  0  0  0  0  0  0
    7.5500    7.2760   13.9720 C   0  0  0  0  0  0  0  0  0  0  0  0
    7.3310    8.6080   13.6760 C   0  0  0  0  0  0  0  0  0  0  0  0
    8.3440    9.2580   12.9750 C   0  0  0  0  0  3  0  0  0  0  0  0
    9.4970    8.5970   12.6060 C   0  0  0  0  0  3  0  0  0  0  0  0
    6.2270    9.4310   13.9730 N   0  0  0  0  0  0  0  0  0  0  0  0
    6.0240   10.6120   13.4120 N   0  0  0  0  0  0  0  0  0  0  0  0
    4.9060   11.1100   13.9150 N   0  0  0  0  0  0  0  0  0  0  0  0
    4.4160   10.2530   14.7790 N   0  0  0  0  0  0  0  0  0  0  0  0
    5.2290    9.1700   14.8440 C   0  0  0  0  0  0  0  0  0  0  0  0
    4.9160    8.0540   15.7380 C   0  0  0  0  0  0  0  0  0  0  0  0
    5.3870    6.7710   15.3480 N   0  0  0  0  0  0  0  0  0  0  0  0
    6.6020    6.4290   14.6990 C   0  0  0  0  0  0  0  0  0  0  0  0
    6.9760    5.2260   14.7170 O   0  0  0  0  0  0  0  0  0  0  0  0
    5.4550    8.3000   17.1560 C   0  0  0  0  0  2  0  0  0  0  0  0
    4.5070    7.6750   18.1480 C   0  0  0  0  0  2  0  0  0  0  0  0
    3.3670    8.5550   18.2740 N   0  0  0  0  0  0  0  0  0  0  0  0
    2.9020    8.9110   16.9590 C   0  0  0  0  0  2  0  0  0  0  0  0
    3.4000    7.9810   15.8810 C   0  0  0  0  0  2  0  0  0  0  0  0
    3.7960    9.7290   19.0320 C   0  0  0  0  0  1  0  0  0  0  0  0
    4.7530    5.9770   15.5700 H   0  0  0  0  0  0  0  0  0  0  0  0
  1  2  1  0  0  0  0
  2  3  1  0  0  0  0
  3  4  2  0  0  0  0
  4 15  1  0  0  0  0
  5  4  1  0  0  0  0
  5  8  1  0  0  0  0
  6  5  2  0  0  0  0
  7  2  2  0  0  0  0
  7  6  1  0  0  0  0
  8 12  1  0  0  0  0
  9 10  2  0  0  0  0
  9  8  1  0  0  0  0
 10 11  1  0  0  0  0
 11 12  2  0  0  0  0
 12 13  1  0  0  0  0
 13 21  1  0  0  0  0
 13 17  1  0  0  0  0
 14 23  1  0  0  0  0
 14 13  1  0  0  0  0
 15 16  2  0  0  0  0
 15 14  1  0  0  0  0
 17 18  1  0  0  0  0
 18 19  1  0  0  0  0
 19 22  1  0  0  0  0
 20 19  1  0  0  0  0
 21 20  1  0  0  0  0
M  END
>  <Pose>
1

>  <Score>
-7.668

$$$$
