/Users/jonathanwahrer/Desktop/Msc/3_Semester/Drug_Design_Praktikum/waehrer_HTS_screening/HTS_experiment/out/docking_results/vina_output/2jam/0592_docked.pdbqt
 OpenBabel03162217453D

 27 30  0  0  1  0  0  0  0  0999 V2000
    9.2320    9.9310   17.9640 Br  0  0  0  0  0  0  0  0  0  0  0  0
    8.8660    8.7780   16.5000 C   0  0  0  0  0  0  0  0  0  0  0  0
    7.9070    9.1410   15.5960 C   0  0  0  0  0  3  0  0  0  0  0  0
    7.6370    8.2900   14.5190 C   0  0  0  0  0  0  0  0  0  0  0  0
    8.3370    7.1350   14.4050 C   0  0  0  0  0  0  0  0  0  0  0  0
    9.3250    6.7640   15.3400 C   0  0  0  0  0  3  0  0  0  0  0  0
    9.5860    7.6020   16.3970 C   0  0  0  0  0  3  0  0  0  0  0  0
    8.1080    6.2600   13.3580 O   0  0  0  0  0  0  0  0  0  0  0  0
    7.1490    6.5870   12.4240 C   0  0  0  0  0  0  0  0  0  0  0  0
    6.4340    7.6860   12.4670 C   0  0  0  0  0  0  0  0  0  0  0  0
    6.6040    8.6660   13.5310 C   0  0  1  0  0  0  0  0  0  0  0  0
    5.3260    9.0230   14.1940 C   0  0  0  0  0  0  0  0  0  0  0  0
    5.0770   10.3490   13.9710 C   0  0  0  0  0  0  0  0  0  0  0  0
    3.9000   10.6740   14.5820 N   0  0  0  0  0  0  0  0  0  0  0  0
    3.4580    9.5690   15.1550 N   0  0  0  0  0  0  0  0  0  0  0  0
    4.2910    8.5420   14.9450 C   0  0  0  0  0  0  0  0  0  0  0  0
    4.0700    7.1580   15.4650 C   0  0  0  0  0  1  0  0  0  0  0  0
    6.0990   10.9370   13.1960 N   0  0  0  0  0  0  0  0  0  0  0  0
    7.0430    9.9360   12.9140 C   0  0  0  0  0  0  0  0  0  0  0  0
    8.1050   10.0600   12.2460 O   0  0  0  0  0  0  0  0  0  0  0  0
    5.4470    7.9590   11.4500 C   0  0  0  0  0  0  0  0  0  0  0  0
    4.6670    8.1910   10.6260 N   0  0  0  0  0  0  0  0  0  0  0  0
    2.5540    9.5540   15.6980 H   0  0  0  0  0  0  0  0  0  0  0  0
    6.1280   11.9670   12.8910 H   0  0  0  0  0  0  0  0  0  0  0  0
    6.9230    5.6690   11.3420 N   0  0  0  0  0  0  0  0  0  0  0  0
    6.1930    4.9300   11.4390 H   0  0  0  0  0  0  0  0  0  0  0  0
    7.4660    5.7100   10.4510 H   0  0  0  0  0  0  0  0  0  0  0  0
  2  1  1  0  0  0  0
  3  2  2  0  0  0  0
  4  3  1  0  0  0  0
  5  4  2  0  0  0  0
  5  6  1  0  0  0  0
  6  7  2  0  0  0  0
  7  2  1  0  0  0  0
  8  5  1  0  0  0  0
  9 10  2  0  0  0  0
  9  8  1  0  0  0  0
 11 10  1  6  0  0  0
 11 12  1  0  0  0  0
 11  4  1  0  0  0  0
 12 16  2  0  0  0  0
 13 12  1  0  0  0  0
 13 14  2  0  0  0  0
 14 15  1  0  0  0  0
 15 23  1  0  0  0  0
 16 15  1  0  0  0  0
 16 17  1  0  0  0  0
 18 13  1  0  0  0  0
 19 18  1  0  0  0  0
 19 11  1  0  0  0  0
 20 19  2  0  0  0  0
 21 10  1  0  0  0  0
 22 21  3  0  0  0  0
 24 18  1  0  0  0  0
 25 26  1  0  0  0  0
 25  9  1  0  0  0  0
 27 25  1  0  0  0  0
M  END
>  <Pose>
1

>  <Score>
-7.494

$$$$
