/Users/jonathanwahrer/Desktop/Msc/3_Semester/Drug_Design_Praktikum/waehrer_HTS_screening/HTS_experiment/out/docking_results/vina_output/2jam/0596_docked.pdbqt
 OpenBabel03162217453D

 29 32  0  0  0  0  0  0  0  0999 V2000
   14.3190    3.1420   11.3300 C   0  0  0  0  0  0  0  0  0  0  0  0
   13.3030    3.3420   12.2500 C   0  0  0  0  0  3  0  0  0  0  0  0
   12.0620    2.7720   12.0520 C   0  0  0  0  0  0  0  0  0  0  0  0
   11.1800    3.0040   12.9390 O   0  0  0  0  0  0  0  0  0  0  0  0
   11.8260    2.0400   11.0080 O   0  0  0  0  0  0  0  0  0  0  0  0
   12.7200    1.8150   10.1230 C   0  0  0  0  0  0  0  0  0  0  0  0
   14.0140    2.3580   10.2450 C   0  0  0  0  0  0  0  0  0  0  0  0
   14.9510    2.0910    9.2900 C   0  0  0  0  0  3  0  0  0  0  0  0
   14.5750    1.2800    8.2130 C   0  0  0  0  0  3  0  0  0  0  0  0
   13.2970    0.7670    8.1210 C   0  0  0  0  0  0  0  0  0  0  0  0
   12.3280    1.0140    9.0670 C   0  0  0  0  0  0  0  0  0  0  0  0
   13.0200   -0.0340    6.9920 O   0  0  0  0  0  1  0  0  0  0  0  0
   15.6210    3.7870   11.4930 C   0  0  0  0  0  0  0  0  0  0  0  0
   15.7450    5.1580   11.4180 C   0  0  0  0  0  0  0  0  0  0  0  0
   16.8960    5.7210   11.5320 O   0  0  0  0  0  0  0  0  0  0  0  0
   14.6630    5.7980   11.2350 O   0  0  0  0  0  0  0  0  0  0  0  0
   18.0270    5.0410   11.7260 C   0  0  0  0  0  0  0  0  0  0  0  0
   17.9710    3.6650   11.8120 C   0  0  0  0  0  0  0  0  0  0  0  0
   19.2290    5.7260   11.8360 C   0  0  0  0  0  3  0  0  0  0  0  0
   19.1580    2.9860   12.0140 C   0  0  0  0  0  3  0  0  0  0  0  0
   16.7570    3.0350   11.6920 C   0  0  0  0  0  3  0  0  0  0  0  0
   20.3850    3.6130   12.1310 C   0  0  0  0  0  0  0  0  0  0  0  0
   21.9770    2.6270   12.4230 Br  0  0  0  0  0  0  0  0  0  0  0  0
   20.3870    5.0120   12.0350 C   0  0  0  0  0  3  0  0  0  0  0  0
   10.9920    0.5270    8.8500 C   0  0  0  0  0  2  0  0  0  0  0  0
   10.6700   -0.8240    8.6350 N   0  0  0  0  0  4  0  0  0  0  0  0
   11.2130   -1.7920    9.5480 C   0  0  0  0  0  1  0  0  0  0  0  0
    9.2190   -1.0260    8.3870 C   0  0  0  0  0  1  0  0  0  0  0  0
   11.1020   -1.1000    7.7060 H   0  0  0  0  0  0  0  0  0  0  0  0
  1 13  1  0  0  0  0
  1  2  2  0  0  0  0
  3  2  1  0  0  0  0
  3  4  2  0  0  0  0
  5  3  1  0  0  0  0
  6  7  1  0  0  0  0
  6  5  1  0  0  0  0
  7  1  1  0  0  0  0
  8  7  2  0  0  0  0
  9  8  1  0  0  0  0
 10  9  2  0  0  0  0
 10 11  1  0  0  0  0
 11  6  2  0  0  0  0
 12 10  1  0  0  0  0
 13 21  2  0  0  0  0
 14 13  1  0  0  0  0
 14 15  1  0  0  0  0
 15 17  1  0  0  0  0
 16 14  2  0  0  0  0
 17 18  2  0  0  0  0
 17 19  1  0  0  0  0
 18 20  1  0  0  0  0
 19 24  2  0  0  0  0
 20 22  2  0  0  0  0
 21 18  1  0  0  0  0
 22 23  1  0  0  0  0
 24 22  1  0  0  0  0
 25 11  1  0  0  0  0
 26 25  1  0  0  0  0
 26 27  1  0  0  0  0
 28 26  1  0  0  0  0
 29 26  1  0  0  0  0
M  END
>  <Pose>
1

>  <Score>
-8.974

$$$$
