/Users/jonathanwahrer/Desktop/Msc/3_Semester/Drug_Design_Praktikum/waehrer_HTS_screening/HTS_experiment/out/docking_results/vina_output/2jam/0610_docked.pdbqt
 OpenBabel03162217463D

 32 35  0  0  0  0  0  0  0  0999 V2000
   16.6930    7.7340   16.8540 Br  0  0  0  0  0  0  0  0  0  0  0  0
   15.2650    7.6450   15.5910 C   0  0  0  0  0  0  0  0  0  0  0  0
   15.4250    6.9700   14.3840 C   0  0  0  0  0  3  0  0  0  0  0  0
   14.3870    6.9050   13.4650 C   0  0  0  0  0  0  0  0  0  0  0  0
   13.1820    7.5120   13.7420 C   0  0  0  0  0  0  0  0  0  0  0  0
   12.1650    7.4460   12.8470 N   0  0  0  0  0  0  0  0  0  0  0  0
   12.2930    6.7960   11.6760 C   0  0  0  0  0  0  0  0  0  0  0  0
   13.4710    6.2130   11.4230 N   0  0  0  0  0  0  0  0  0  0  0  0
   14.5210    6.2390   12.2640 C   0  0  0  0  0  0  0  0  0  0  0  0
   13.0470    8.1800   14.9530 C   0  0  0  0  0  3  0  0  0  0  0  0
   14.0640    8.2570   15.8790 C   0  0  0  0  0  3  0  0  0  0  0  0
   11.1960    6.7450   10.7560 N   0  0  0  0  0  4  0  0  0  0  0  0
    9.9980    6.3390   11.4390 C   0  0  0  0  0  2  0  0  0  0  0  0
    9.9390    4.8860   11.7680 C   0  0  0  0  0  2  0  0  0  0  0  0
   10.9430    4.1170   11.0680 N   0  0  0  0  0  0  0  0  0  0  0  0
   11.2320    4.5120    9.7070 C   0  0  0  0  0  2  0  0  0  0  0  0
   11.5710    3.0420   11.7420 C   0  0  0  0  0  0  0  0  0  0  0  0
   11.4790    5.9830    9.5790 C   0  0  0  0  0  2  0  0  0  0  0  0
   11.2680    2.7600   12.9220 O   0  0  0  0  0  0  0  0  0  0  0  0
   11.0370    7.7610   10.4800 H   0  0  0  0  0  0  0  0  0  0  0  0
   12.5980    2.2810   10.9730 C   0  0  0  0  0  2  0  0  0  0  0  0
   11.9910    1.1190   10.2460 C   0  0  0  0  0  2  0  0  0  0  0  0
   12.5300    0.9360    8.8900 C   0  0  0  0  0  0  0  0  0  0  0  0
   11.9140    0.2780    8.0260 O   0  0  0  0  0  0  0  0  0  0  0  0
   13.7440    1.5040    8.5620 O   0  0  0  0  0  1  0  0  0  0  0  0
   15.7590    5.5710   11.8940 C   0  0  0  0  0  0  0  0  0  0  0  0
   16.7900    6.2840   11.2960 C   0  0  0  0  0  0  0  0  0  0  0  0
   17.9820    5.6880   10.9440 C   0  0  0  0  0  3  0  0  0  0  0  0
   16.5380    8.0030   10.9880 Cl  0  0  0  0  0  0  0  0  0  0  0  0
   18.2010    4.3460   11.1740 C   0  0  0  0  0  3  0  0  0  0  0  0
   17.1690    3.6340   11.7730 C   0  0  0  0  0  3  0  0  0  0  0  0
   15.9800    4.2370   12.1210 C   0  0  0  0  0  3  0  0  0  0  0  0
  2 11  1  0  0  0  0
  2  1  1  0  0  0  0
  3  2  2  0  0  0  0
  4  5  2  0  0  0  0
  4  3  1  0  0  0  0
  5 10  1  0  0  0  0
  6  5  1  0  0  0  0
  7  6  2  0  0  0  0
  8  7  1  0  0  0  0
  8  9  2  0  0  0  0
  9  4  1  0  0  0  0
 10 11  2  0  0  0  0
 12 13  1  0  0  0  0
 12  7  1  0  0  0  0
 13 14  1  0  0  0  0
 15 17  1  0  0  0  0
 15 14  1  0  0  0  0
 16 15  1  0  0  0  0
 17 19  2  0  0  0  0
 18 16  1  0  0  0  0
 18 12  1  0  0  0  0
 20 12  1  0  0  0  0
 21 17  1  0  0  0  0
 22 21  1  0  0  0  0
 23 22  1  0  0  0  0
 24 23  2  0  0  0  0
 25 23  1  0  0  0  0
 26 32  1  0  0  0  0
 26  9  1  0  0  0  0
 27 26  2  0  0  0  0
 28 30  2  0  0  0  0
 28 27  1  0  0  0  0
 29 27  1  0  0  0  0
 30 31  1  0  0  0  0
 31 32  2  0  0  0  0
M  END
>  <Pose>
1

>  <Score>
-7.405

$$$$
