/Users/jonathanwahrer/Desktop/Msc/3_Semester/Drug_Design_Praktikum/waehrer_HTS_screening/HTS_experiment/out/docking_results/vina_output/2jam/0611_docked.pdbqt
 OpenBabel03162217463D

 33 36  0  0  0  0  0  0  0  0999 V2000
   18.3320    3.0160   11.4850 Br  0  0  0  0  0  0  0  0  0  0  0  0
   16.6130    3.8060   11.7650 C   0  0  0  0  0  0  0  0  0  0  0  0
   15.4870    3.3740   11.0870 C   0  0  0  0  0  3  0  0  0  0  0  0
   14.2360    3.9220   11.2670 C   0  0  0  0  0  0  0  0  0  0  0  0
   14.0660    4.9600   12.1640 C   0  0  0  0  0  0  0  0  0  0  0  0
   12.8440    5.5200   12.3500 N   0  0  0  0  0  0  0  0  0  0  0  0
   11.7530    5.1030   11.6850 C   0  0  0  0  0  0  0  0  0  0  0  0
   11.9170    4.0930   10.8130 N   0  0  0  0  0  0  0  0  0  0  0  0
   13.1140    3.5010   10.5910 C   0  0  0  0  0  0  0  0  0  0  0  0
   15.1810    5.3970   12.8440 C   0  0  0  0  0  3  0  0  0  0  0  0
   16.4410    4.8400   12.6590 C   0  0  0  0  0  3  0  0  0  0  0  0
   10.4860    5.7140   11.9070 N   0  0  0  0  0  4  0  0  0  0  0  0
   10.1190    5.6550   13.3040 C   0  0  0  0  0  2  0  0  0  0  0  0
    9.0500    6.6700   13.5580 C   0  0  0  0  0  2  0  0  0  0  0  0
    8.5020    7.0940   12.2850 N   0  0  0  0  0  0  0  0  0  0  0  0
    8.2120    6.0580   11.3090 C   0  0  0  0  0  2  0  0  0  0  0  0
    8.2810    8.4620   12.0590 C   0  0  0  0  0  0  0  0  0  0  0  0
    9.4160    5.1230   11.1470 C   0  0  0  0  0  2  0  0  0  0  0  0
    7.8090    8.8050   10.9470 O   0  0  0  0  0  0  0  0  0  0  0  0
   10.5710    6.7100   11.6140 H   0  0  0  0  0  0  0  0  0  0  0  0
    8.5810    9.4840   13.0640 C   0  0  0  0  0  2  0  0  0  0  0  0
    7.3910   10.3820   13.2500 C   0  0  0  0  0  2  0  0  0  0  0  0
    6.3170    9.7530   14.1090 C   0  0  0  0  0  2  0  0  0  0  0  0
    4.9690   10.2900   13.8370 C   0  0  0  0  0  0  0  0  0  0  0  0
    4.1840    9.5700   13.1740 O   0  0  0  0  0  0  0  0  0  0  0  0
    4.6110   11.5440   14.3070 O   0  0  0  0  0  1  0  0  0  0  0  0
   13.2350    2.4120    9.6330 C   0  0  0  0  0  0  0  0  0  0  0  0
   12.2500    1.4460    9.4940 C   0  0  0  0  0  0  0  0  0  0  0  0
   12.3620    0.3960    8.6010 C   0  0  0  0  0  3  0  0  0  0  0  0
   10.8030    1.5500   10.4850 Cl  0  0  0  0  0  0  0  0  0  0  0  0
   13.5240    0.3320    7.8220 C   0  0  0  0  0  3  0  0  0  0  0  0
   14.5220    1.2760    7.9360 C   0  0  0  0  0  3  0  0  0  0  0  0
   14.3690    2.2900    8.8270 C   0  0  0  0  0  3  0  0  0  0  0  0
  1  2  1  0  0  0  0
  2 11  1  0  0  0  0
  3  4  1  0  0  0  0
  3  2  2  0  0  0  0
  4  5  2  0  0  0  0
  5  6  1  0  0  0  0
  5 10  1  0  0  0  0
  7 12  1  0  0  0  0
  7  6  2  0  0  0  0
  8  7  1  0  0  0  0
  9  8  2  0  0  0  0
  9  4  1  0  0  0  0
 11 10  2  0  0  0  0
 12 13  1  0  0  0  0
 13 14  1  0  0  0  0
 15 14  1  0  0  0  0
 16 15  1  0  0  0  0
 17 15  1  0  0  0  0
 17 21  1  0  0  0  0
 18 16  1  0  0  0  0
 18 12  1  0  0  0  0
 19 17  2  0  0  0  0
 20 12  1  0  0  0  0
 21 22  1  0  0  0  0
 22 23  1  0  0  0  0
 24 23  1  0  0  0  0
 24 26  1  0  0  0  0
 25 24  2  0  0  0  0
 27  9  1  0  0  0  0
 28 27  1  0  0  0  0
 28 30  1  0  0  0  0
 29 28  2  0  0  0  0
 31 32  2  0  0  0  0
 31 29  1  0  0  0  0
 32 33  1  0  0  0  0
 33 27  2  0  0  0  0
M  END
>  <Pose>
1

>  <Score>
-9.851

$$$$
