/Users/jonathanwahrer/Desktop/Msc/3_Semester/Drug_Design_Praktikum/waehrer_HTS_screening/HTS_experiment/out/docking_results/vina_output/2jam/0616_docked.pdbqt
 OpenBabel03162217463D

 28 31  0  0  0  0  0  0  0  0999 V2000
   12.3950    3.5250   11.1750 C   0  0  0  0  0  0  0  0  0  0  0  0
   13.2590    3.3430   12.1150 O   0  0  0  0  0  0  0  0  0  0  0  0
   11.8670    4.8130   11.0800 N   0  0  0  0  0  0  0  0  0  0  0  0
   10.8820    5.2650   10.1340 C   0  0  0  0  0  2  0  0  0  0  0  0
   10.4920    6.7310   10.3610 C   0  0  0  0  0  2  0  0  0  0  0  0
   10.2120    6.9210   11.7760 N   0  0  0  0  0  0  0  0  0  0  0  0
   11.1000    6.3300   12.7790 C   0  0  0  0  0  2  0  0  0  0  0  0
   12.3440    5.8640   12.0180 C   0  0  0  0  0  2  0  0  0  0  0  0
    9.0930    7.6670   12.2070 C   0  0  0  0  0  0  0  0  0  0  0  0
    8.3530    8.1530   11.3190 O   0  0  0  0  0  0  0  0  0  0  0  0
   12.0570    2.4020   10.3230 C   0  0  0  0  0  0  0  0  0  0  0  0
   12.7790    1.6850    9.4570 N   0  0  0  0  0  0  0  0  0  0  0  0
   12.0180    0.7130    8.8640 C   0  0  0  0  0  0  0  0  0  0  0  0
   13.7760    1.7930    9.2230 H   0  0  0  0  0  0  0  0  0  0  0  0
   10.7470    0.7970    9.3630 C   0  0  0  0  0  0  0  0  0  0  0  0
   12.3080   -0.2560    7.9220 C   0  0  0  0  0  3  0  0  0  0  0  0
    9.7670   -0.0930    8.9150 C   0  0  0  0  0  3  0  0  0  0  0  0
   10.7620    1.8290   10.2580 C   0  0  0  0  0  3  0  0  0  0  0  0
   10.0450   -1.0560    7.9810 C   0  0  0  0  0  0  0  0  0  0  0  0
    8.7070   -2.2820    7.3580 Br  0  0  0  0  0  0  0  0  0  0  0  0
   11.3270   -1.1340    7.4830 C   0  0  0  0  0  3  0  0  0  0  0  0
    8.8510    7.8330   13.6310 C   0  0  0  0  0  2  0  0  0  0  0  0
    7.4600    7.9690   14.0040 N   0  0  0  0  0  0  0  0  0  0  0  0
    7.3820    8.4140   15.3970 C   0  0  0  0  0  2  0  0  0  0  0  0
    7.1710    7.2620   16.3170 C   0  0  0  0  0  2  0  0  0  0  0  0
    7.8500    6.1350   15.8610 O   0  0  0  0  0  0  0  0  0  0  0  0
    7.2640    5.6270   14.6990 C   0  0  0  0  0  2  0  0  0  0  0  0
    6.7070    6.7380   13.8380 C   0  0  0  0  0  2  0  0  0  0  0  0
  1  2  2  0  0  0  0
  3  1  1  0  0  0  0
  3  8  1  0  0  0  0
  4  5  1  0  0  0  0
  4  3  1  0  0  0  0
  5  6  1  0  0  0  0
  6  9  1  0  0  0  0
  6  7  1  0  0  0  0
  8  7  1  0  0  0  0
  9 22  1  0  0  0  0
 10  9  2  0  0  0  0
 11  1  1  0  0  0  0
 12 11  1  0  0  0  0
 13 15  1  0  0  0  0
 13 12  1  0  0  0  0
 14 12  1  0  0  0  0
 15 18  1  0  0  0  0
 16 13  2  0  0  0  0
 17 15  2  0  0  0  0
 18 11  2  0  0  0  0
 19 17  1  0  0  0  0
 20 19  1  0  0  0  0
 21 16  1  0  0  0  0
 21 19  2  0  0  0  0
 22 23  1  0  0  0  0
 23 24  1  0  0  0  0
 24 25  1  0  0  0  0
 26 25  1  0  0  0  0
 27 26  1  0  0  0  0
 28 23  1  0  0  0  0
 28 27  1  0  0  0  0
M  END
>  <Pose>
1

>  <Score>
-9.133

$$$$
