/Users/jonathanwahrer/Desktop/Msc/3_Semester/Drug_Design_Praktikum/waehrer_HTS_screening/HTS_experiment/out/docking_results/vina_output/2jam/0624_docked.pdbqt
 OpenBabel03162217463D

 22 25  0  0  0  0  0  0  0  0999 V2000
    9.4360   -1.6740    7.9620 Br  0  0  0  0  0  0  0  0  0  0  0  0
   10.8490   -0.4520    8.3330 C   0  0  0  0  0  0  0  0  0  0  0  0
   12.0630   -0.6240    7.7020 C   0  0  0  0  0  3  0  0  0  0  0  0
   13.1220    0.2580    7.9550 C   0  0  0  0  0  0  0  0  0  0  0  0
   12.9140    1.2740    8.8300 C   0  0  0  0  0  0  0  0  0  0  0  0
   11.7210    1.4870    9.4840 C   0  0  0  0  0  0  0  0  0  0  0  0
   10.7000    0.6110    9.2210 C   0  0  0  0  0  3  0  0  0  0  0  0
   11.6500    2.5520   10.3410 C   0  0  0  0  0  0  0  0  0  0  0  0
   10.5790    2.7560   10.9370 O   0  0  0  0  0  0  0  0  0  0  0  0
   12.7200    3.4050   10.5660 C   0  0  0  0  0  0  0  0  0  0  0  0
   13.8850    3.1370    9.8810 C   0  0  0  0  0  3  0  0  0  0  0  0
   13.9670    2.0720    9.0200 N   0  0  0  0  0  0  0  0  0  0  0  0
   15.0410    1.5720    8.1910 C   0  0  0  0  0  3  0  0  0  0  0  0
   14.5090    0.3640    7.4700 C   0  0  0  0  0  3  0  0  0  0  0  0
   12.6280    4.5370   11.4830 C   0  0  0  0  0  0  0  0  0  0  0  0
   13.1420    4.4440   12.6210 O   0  0  0  0  0  0  0  0  0  0  0  0
   11.9580    5.7440   11.0940 N   0  0  0  0  0  0  0  0  0  0  0  0
   11.8520    6.8800   11.9830 C   0  0  0  0  0  2  0  0  0  0  0  0
   11.3550    5.8740    9.7820 C   0  0  0  0  0  2  0  0  0  0  0  0
   10.3570    7.2190   12.0620 C   0  0  0  0  0  2  0  0  0  0  0  0
    9.8600    7.3780   10.7910 O   0  0  0  0  0  0  0  0  0  0  0  0
    9.8860    6.2300   10.0260 C   0  0  0  0  0  2  0  0  0  0  0  0
  1  2  1  0  0  0  0
  2  7  1  0  0  0  0
  3  4  1  0  0  0  0
  3  2  2  0  0  0  0
  4  5  2  0  0  0  0
  5 12  1  0  0  0  0
  5  6  1  0  0  0  0
  6  8  1  0  0  0  0
  7  6  2  0  0  0  0
  8 10  1  0  0  0  0
  8  9  2  0  0  0  0
 10 15  1  0  0  0  0
 11 10  2  0  0  0  0
 12 11  1  0  0  0  0
 13 12  1  0  0  0  0
 14  4  1  0  0  0  0
 14 13  2  0  0  0  0
 15 16  2  0  0  0  0
 17 15  1  0  0  0  0
 17 18  1  0  0  0  0
 18 20  1  0  0  0  0
 19 22  1  0  0  0  0
 19 17  1  0  0  0  0
 21 20  1  0  0  0  0
 22 21  1  0  0  0  0
M  END
>  <Pose>
1

>  <Score>
-8.204

$$$$
