/Users/jonathanwahrer/Desktop/Msc/3_Semester/Drug_Design_Praktikum/waehrer_HTS_screening/HTS_experiment/out/docking_results/vina_output/2jam/0631_docked.pdbqt
 OpenBabel03162217473D

 29 32  0  0  1  0  0  0  0  0999 V2000
   11.7590    5.1800   11.6440 N   0  0  0  0  0  0  0  0  0  0  0  0
   10.5460    5.1560   12.4920 C   0  0  0  0  0  2  0  0  0  0  0  0
    9.6220    6.1400   11.7930 C   0  0  2  0  0  3  0  0  0  0  0  0
   10.5870    7.1580   11.2240 C   0  0  0  0  0  2  0  0  0  0  0  0
   11.9330    6.5300   11.2210 C   0  0  0  0  0  0  0  0  0  0  0  0
   13.0110    7.0600   10.9160 O   0  0  0  0  0  0  0  0  0  0  0  0
    8.7340    6.6600   12.8440 C   0  0  0  0  0  0  0  0  0  0  0  0
    8.1500    5.8900   13.6410 O   0  0  0  0  0  0  0  0  0  0  0  0
    8.5570    8.0680   12.9350 N   0  0  0  0  0  0  0  0  0  0  0  0
    9.0540    8.6690   12.2490 H   0  0  0  0  0  0  0  0  0  0  0  0
    7.7090    8.6630   13.9440 C   0  0  0  0  0  2  0  0  0  0  0  0
    6.7880    9.7240   13.3800 C   0  0  0  0  0  2  0  0  0  0  0  0
    5.7860    9.1240   12.4780 C   0  0  0  0  0  0  0  0  0  0  0  0
    6.0510    8.7360   11.2200 N   0  0  0  0  0  0  0  0  0  0  0  0
    4.9530    8.2280   10.6570 C   0  0  0  0  0  3  0  0  0  0  0  0
    3.9530    8.2910   11.5760 N   0  0  0  0  0  0  0  0  0  0  0  0
    4.4710    8.8370   12.6800 C   0  0  0  0  0  3  0  0  0  0  0  0
    2.9840    7.9530   11.3740 H   0  0  0  0  0  0  0  0  0  0  0  0
   12.4900    4.0100   11.3710 C   0  0  0  0  0  0  0  0  0  0  0  0
   13.7470    3.6740   11.6910 N   0  0  0  0  0  0  0  0  0  0  0  0
   14.0480    2.4590   11.2400 N   0  0  0  0  0  0  0  0  0  0  0  0
   14.4250    4.2570   12.2200 H   0  0  0  0  0  0  0  0  0  0  0  0
   12.9870    1.9400   10.5970 C   0  0  0  0  0  0  0  0  0  0  0  0
   12.7770    0.7390    9.9600 C   0  0  0  0  0  3  0  0  0  0  0  0
   12.0050    2.8900   10.6660 C   0  0  0  0  0  0  0  0  0  0  0  0
   11.5240    0.5260    9.3890 C   0  0  0  0  0  0  0  0  0  0  0  0
   11.1240   -1.1110    8.4790 Br  0  0  0  0  0  0  0  0  0  0  0  0
   10.5390    1.5000    9.4690 C   0  0  0  0  0  3  0  0  0  0  0  0
   10.7730    2.6910   10.1090 C   0  0  0  0  0  3  0  0  0  0  0  0
  1  2  1  0  0  0  0
  3  2  1  0  0  0  0
  3  7  1  1  0  0  0
  4  3  1  0  0  0  0
  5  4  1  0  0  0  0
  5  1  1  0  0  0  0
  6  5  2  0  0  0  0
  7  9  1  0  0  0  0
  7  8  2  0  0  0  0
  9 11  1  0  0  0  0
 10  9  1  0  0  0  0
 12 11  1  0  0  0  0
 13 17  2  0  0  0  0
 13 12  1  0  0  0  0
 14 13  1  0  0  0  0
 15 14  2  0  0  0  0
 15 16  1  0  0  0  0
 16 17  1  0  0  0  0
 18 16  1  0  0  0  0
 19  1  1  0  0  0  0
 19 20  1  0  0  0  0
 20 22  1  0  0  0  0
 21 20  1  0  0  0  0
 23 25  1  0  0  0  0
 23 21  2  0  0  0  0
 24 23  1  0  0  0  0
 25 19  2  0  0  0  0
 26 28  1  0  0  0  0
 26 24  2  0  0  0  0
 27 26  1  0  0  0  0
 28 29  2  0  0  0  0
 29 25  1  0  0  0  0
M  END
>  <Pose>
1

>  <Score>
-8.539

$$$$
