/Users/jonathanwahrer/Desktop/Msc/3_Semester/Drug_Design_Praktikum/waehrer_HTS_screening/HTS_experiment/out/docking_results/vina_output/2jam/0648_docked.pdbqt
 OpenBabel03162217473D

 32 35  0  0  0  0  0  0  0  0999 V2000
   11.9720    3.4700   11.4040 C   0  0  0  0  0  0  0  0  0  0  0  0
   12.4300    3.2240   12.5780 O   0  0  0  0  0  0  0  0  0  0  0  0
   11.8510    4.7820   11.0320 N   0  0  0  0  0  0  0  0  0  0  0  0
   11.3490    5.2540    9.7790 C   0  0  0  0  0  2  0  0  0  0  0  0
   10.0030    5.8620    9.9990 C   0  0  0  0  0  2  0  0  0  0  0  0
    9.8630    6.3750   11.3550 N   0  0  0  0  0  0  0  0  0  0  0  0
   10.9720    6.7150   12.1830 C   0  0  0  0  0  2  0  0  0  0  0  0
   12.2280    5.8840   11.9410 C   0  0  0  0  0  2  0  0  0  0  0  0
    8.5010    6.4480   11.8030 C   0  0  0  0  0  0  0  0  0  0  0  0
    7.5950    5.9740   10.9980 O   0  0  0  0  0  0  0  0  0  0  0  0
    8.0800    6.9920   13.0470 C   0  0  0  0  0  0  0  0  0  0  0  0
    7.8110    8.3420   13.2320 N   0  0  0  0  0  0  0  0  0  0  0  0
    7.5100    8.5630   14.4690 N   0  0  0  0  0  0  0  0  0  0  0  0
    7.8530    9.3540   12.2030 C   0  0  0  0  0  1  0  0  0  0  0  0
    7.5500    7.4430   15.1850 C   0  0  0  0  0  0  0  0  0  0  0  0
    7.9180    6.4380   14.2680 C   0  0  0  0  0  3  0  0  0  0  0  0
    7.2650    7.2330   16.5930 C   0  0  0  0  0  0  0  0  0  0  0  0
    7.9660    6.3370   17.1870 O   0  0  0  0  0  0  0  0  0  0  0  0
    6.3090    7.9120   17.3320 N   0  0  0  0  0  0  0  0  0  0  0  0
    6.1760    7.5820   18.7550 C   0  0  0  0  0  2  0  0  0  0  0  0
    5.4220    8.9010   16.8070 C   0  0  0  0  0  2  0  0  0  0  0  0
    4.7120    7.2610   18.9680 C   0  0  0  0  0  2  0  0  0  0  0  0
    4.0300    8.4730   18.7540 O   0  0  0  0  0  0  0  0  0  0  0  0
    4.0340    8.7820   17.4230 C   0  0  0  0  0  2  0  0  0  0  0  0
   11.6360    2.3130   10.6140 C   0  0  0  0  0  0  0  0  0  0  0  0
   12.5140    1.4190    9.9930 C   0  0  0  0  0  0  0  0  0  0  0  0
   14.4310    1.5570   10.0710 Br  0  0  0  0  0  0  0  0  0  0  0  0
   11.7810    0.4630    9.3430 C   0  0  0  0  0  3  0  0  0  0  0  0
   10.4910    0.7470    9.5500 N   0  0  0  0  0  0  0  0  0  0  0  0
   10.4040    1.8220   10.2870 N   0  0  0  0  0  0  0  0  0  0  0  0
    9.4240   -0.0720    8.9890 C   0  0  0  0  0  2  0  0  0  0  0  0
    9.8820   -1.4560    8.6130 C   0  0  0  0  0  1  0  0  0  0  0  0
  1  2  2  0  0  0  0
  3  1  1  0  0  0  0
  3  8  1  0  0  0  0
  4  5  1  0  0  0  0
  4  3  1  0  0  0  0
  5  6  1  0  0  0  0
  6  9  1  0  0  0  0
  6  7  1  0  0  0  0
  8  7  1  0  0  0  0
  9 11  1  0  0  0  0
 10  9  2  0  0  0  0
 11 12  1  0  0  0  0
 11 16  2  0  0  0  0
 12 13  1  0  0  0  0
 13 15  2  0  0  0  0
 14 12  1  0  0  0  0
 15 17  1  0  0  0  0
 16 15  1  0  0  0  0
 17 18  2  0  0  0  0
 17 19  1  0  0  0  0
 19 20  1  0  0  0  0
 20 22  1  0  0  0  0
 21 19  1  0  0  0  0
 21 24  1  0  0  0  0
 23 22  1  0  0  0  0
 24 23  1  0  0  0  0
 25  1  1  0  0  0  0
 26 27  1  0  0  0  0
 26 25  1  0  0  0  0
 28 29  1  0  0  0  0
 28 26  2  0  0  0  0
 29 30  1  0  0  0  0
 30 25  2  0  0  0  0
 31 29  1  0  0  0  0
 32 31  1  0  0  0  0
M  END
>  <Pose>
1

>  <Score>
-8.830

$$$$
