/Users/jonathanwahrer/Desktop/Msc/3_Semester/Drug_Design_Praktikum/waehrer_HTS_screening/HTS_experiment/out/docking_results/vina_output/2jam/0653_docked.pdbqt
 OpenBabel03162217483D

 29 32  0  0  0  0  0  0  0  0999 V2000
   12.2270    2.9610   11.4600 C   0  0  0  0  0  0  0  0  0  0  0  0
   11.6110    2.1370   10.5530 C   0  0  0  0  0  0  0  0  0  0  0  0
   12.3410    1.4180    9.6240 C   0  0  0  0  0  0  0  0  0  0  0  0
   13.7140    1.5090    9.5790 C   0  0  0  0  0  0  0  0  0  0  0  0
   14.3600    2.3520   10.5030 C   0  0  0  0  0  0  0  0  0  0  0  0
   13.6370    3.0630   11.4240 C   0  0  0  0  0  0  0  0  0  0  0  0
   14.3210    3.9290   12.3870 C   0  0  0  0  0  2  0  0  0  0  0  0
   15.6860    4.3830   12.0500 C   0  0  0  0  0  2  0  0  0  0  0  0
   16.4660    3.4040   11.3030 N   0  0  0  0  0  0  0  0  0  0  0  0
   15.8090    2.5050   10.4200 C   0  0  0  0  0  0  0  0  0  0  0  0
   16.4990    1.8540    9.5780 O   0  0  0  0  0  0  0  0  0  0  0  0
   17.8970    3.4250   11.4990 C   0  0  0  0  0  1  0  0  0  0  0  0
   11.4280    0.6990    8.8790 O   0  0  0  0  0  0  0  0  0  0  0  0
   10.1420    0.8060    9.4350 C   0  0  0  0  0  2  0  0  0  0  0  0
   10.2330    1.8660   10.3840 O   0  0  0  0  0  0  0  0  0  0  0  0
   11.4720    3.7750   12.4360 C   0  0  0  0  0  2  0  0  0  0  0  0
   10.7100    4.8490   11.8250 N   0  0  0  0  0  0  0  0  0  0  0  0
   11.0550    6.1700   11.6420 C   0  0  0  0  0  0  0  0  0  0  0  0
   12.1790    6.6270   12.0280 O   0  0  0  0  0  0  0  0  0  0  0  0
    9.7530    4.5300   11.4730 H   0  0  0  0  0  0  0  0  0  0  0  0
   10.1210    7.1230   10.9830 C   0  0  0  0  0  2  0  0  0  0  0  0
    8.8110    6.9540   11.6400 N   0  0  0  0  0  0  0  0  0  0  0  0
    8.3130    7.6710   12.6420 C   0  0  0  0  0  3  0  0  0  0  0  0
    7.0640    7.1770   12.9420 C   0  0  0  0  0  0  0  0  0  0  0  0
    5.8600    7.7890   14.2920 Br  0  0  0  0  0  0  0  0  0  0  0  0
    6.8110    6.1280   12.0880 C   0  0  0  0  0  3  0  0  0  0  0  0
    7.9050    6.0350   11.3160 N   0  0  0  0  0  0  0  0  0  0  0  0
   14.4780    0.8040    8.6660 O   0  0  0  0  0  0  0  0  0  0  0  0
   14.3870    1.0650    7.2800 C   0  0  0  0  0  1  0  0  0  0  0  0
  1 16  1  0  0  0  0
  2  1  2  0  0  0  0
  3  2  1  0  0  0  0
  4  3  2  0  0  0  0
  4  5  1  0  0  0  0
  5  6  2  0  0  0  0
  6  1  1  0  0  0  0
  6  7  1  0  0  0  0
  8  7  1  0  0  0  0
  9 12  1  0  0  0  0
  9  8  1  0  0  0  0
 10  5  1  0  0  0  0
 10  9  1  0  0  0  0
 11 10  2  0  0  0  0
 13 14  1  0  0  0  0
 13  3  1  0  0  0  0
 14 15  1  0  0  0  0
 15  2  1  0  0  0  0
 17 16  1  0  0  0  0
 18 17  1  0  0  0  0
 18 19  2  0  0  0  0
 20 17  1  0  0  0  0
 21 22  1  0  0  0  0
 21 18  1  0  0  0  0
 22 23  1  0  0  0  0
 23 24  2  0  0  0  0
 24 25  1  0  0  0  0
 26 24  1  0  0  0  0
 27 22  1  0  0  0  0
 27 26  2  0  0  0  0
 28  4  1  0  0  0  0
 29 28  1  0  0  0  0
M  END
>  <Pose>
1

>  <Score>
-8.323

$$$$
