/Users/jonathanwahrer/Desktop/Msc/3_Semester/Drug_Design_Praktikum/waehrer_HTS_screening/HTS_experiment/out/docking_results/vina_output/2jam/0662_docked.pdbqt
 OpenBabel03162217483D

 25 29  0  0  0  0  0  0  0  0999 V2000
   11.1600    3.8350   10.6980 C   0  0  0  0  0  0  0  0  0  0  0  0
   10.4690    2.7730   10.2540 N   0  0  0  0  0  0  0  0  0  0  0  0
   11.2710    1.9570    9.5700 N   0  0  0  0  0  0  0  0  0  0  0  0
   12.5170    2.5110    9.5730 C   0  0  0  0  0  0  0  0  0  0  0  0
   12.4210    3.6600   10.2700 N   0  0  0  0  0  0  0  0  0  0  0  0
   13.5320    1.8450    8.9220 C   0  0  0  0  0  0  0  0  0  0  0  0
   13.3360    0.6410    8.2680 C   0  0  0  0  0  0  0  0  0  0  0  0
   14.4990    0.2360    7.7310 N   0  0  0  0  0  0  0  0  0  0  0  0
   15.4070    1.1500    8.0320 N   0  0  0  0  0  0  0  0  0  0  0  0
   14.8580    2.1470    8.7570 C   0  0  0  0  0  3  0  0  0  0  0  0
   12.0930    0.1340    8.2910 N   0  0  0  0  0  0  0  0  0  0  0  0
   11.1060    0.7860    8.9280 C   0  0  0  0  0  3  0  0  0  0  0  0
   14.6820   -0.6290    7.1780 H   0  0  0  0  0  0  0  0  0  0  0  0
   10.6280    4.9460   11.4860 C   0  0  0  0  0  0  0  0  0  0  0  0
   10.2180    6.1500   11.0530 N   0  0  0  0  0  0  0  0  0  0  0  0
    9.7990    6.9000   12.0570 N   0  0  0  0  0  0  0  0  0  0  0  0
    9.9190    6.2060   13.2010 C   0  0  0  0  0  3  0  0  0  0  0  0
   10.4440    4.9660   12.8520 C   0  0  0  0  0  3  0  0  0  0  0  0
    9.2860    8.2670   11.9370 C   0  0  0  0  0  2  0  0  0  0  0  0
    7.8470    8.3080   12.0910 N   0  0  0  0  0  0  0  0  0  0  0  0
    7.1670    8.9970   13.0220 C   0  0  0  0  0  3  0  0  0  0  0  0
    5.8190    8.7710   12.8290 C   0  0  0  0  0  0  0  0  0  0  0  0
    4.3960    9.4870   13.8480 Br  0  0  0  0  0  0  0  0  0  0  0  0
    5.7180    7.9230   11.7490 C   0  0  0  0  0  3  0  0  0  0  0  0
    6.9780    7.6670   11.3300 N   0  0  0  0  0  0  0  0  0  0  0  0
  1 14  1  0  0  0  0
  2  1  2  0  0  0  0
  3  4  1  0  0  0  0
  3  2  1  0  0  0  0
  4  5  2  0  0  0  0
  5  1  1  0  0  0  0
  6  4  1  0  0  0  0
  7 11  1  0  0  0  0
  7  6  2  0  0  0  0
  8  9  1  0  0  0  0
  8  7  1  0  0  0  0
  9 10  2  0  0  0  0
 10  6  1  0  0  0  0
 11 12  2  0  0  0  0
 12  3  1  0  0  0  0
 13  8  1  0  0  0  0
 14 18  1  0  0  0  0
 15 14  2  0  0  0  0
 15 16  1  0  0  0  0
 16 17  1  0  0  0  0
 18 17  2  0  0  0  0
 19 16  1  0  0  0  0
 19 20  1  0  0  0  0
 20 21  1  0  0  0  0
 22 21  2  0  0  0  0
 22 23  1  0  0  0  0
 24 22  1  0  0  0  0
 25 24  2  0  0  0  0
 25 20  1  0  0  0  0
M  END
>  <Pose>
1

>  <Score>
-8.420

$$$$
