/Users/jonathanwahrer/Desktop/Msc/3_Semester/Drug_Design_Praktikum/waehrer_HTS_screening/HTS_experiment/out/docking_results/vina_output/2jam/0663_docked.pdbqt
 OpenBabel03162217483D

 28 31  0  0  1  0  0  0  0  0999 V2000
    9.4510    8.1750   12.5050 C   0  0  0  0  0  0  0  0  0  0  0  0
   10.3680    8.8450   13.1280 O   0  0  0  0  0  0  0  0  0  0  0  0
    8.2080    8.7800   12.4350 N   0  0  0  0  0  0  0  0  0  0  0  0
    6.9870    8.3750   11.7930 C   0  0  0  0  0  2  0  0  0  0  0  0
    6.0920    7.7860   12.8670 C   0  0  0  0  0  2  0  0  0  0  0  0
    6.2380    8.5630   14.1590 C   0  0  1  0  0  0  0  0  0  0  0  0
    4.9220    8.6550   14.7530 N   0  0  0  0  0  0  0  0  0  0  0  0
    4.7010    7.4730   15.5080 C   0  0  0  0  0  0  0  0  0  0  0  0
    3.5900    6.9830   15.8930 O   0  0  0  0  0  0  0  0  0  0  0  0
    5.9950    6.9080   15.7730 N   0  0  0  0  0  0  0  0  0  0  0  0
    6.9750    7.7730   15.1620 C   0  0  0  0  0  0  0  0  0  0  0  0
    8.1860    7.7940   15.4730 O   0  0  0  0  0  0  0  0  0  0  0  0
    6.7680    9.9480   13.9670 C   0  0  0  0  0  2  0  0  0  0  0  0
    8.0330   10.0620   13.1860 C   0  0  0  0  0  2  0  0  0  0  0  0
    4.2300    9.4250   14.6700 H   0  0  0  0  0  0  0  0  0  0  0  0
    6.2380    6.0400   16.2990 H   0  0  0  0  0  0  0  0  0  0  0  0
    9.8950    6.9010   11.9860 C   0  0  0  0  0  0  0  0  0  0  0  0
   10.1370    6.7650   10.6040 C   0  0  0  0  0  3  0  0  0  0  0  0
   10.5950    5.6030   10.0430 C   0  0  0  0  0  3  0  0  0  0  0  0
   10.8530    4.4840   10.7970 C   0  0  0  0  0  0  0  0  0  0  0  0
   10.6280    4.5890   12.1430 C   0  0  0  0  0  3  0  0  0  0  0  0
   10.1590    5.7750   12.7300 C   0  0  0  0  0  3  0  0  0  0  0  0
   11.3280    3.2930   10.1880 N   0  0  0  0  0  0  0  0  0  0  0  0
   10.6360    2.1910    9.8470 C   0  0  0  0  0  3  0  0  0  0  0  0
   11.4920    1.2710    9.2810 C   0  0  0  0  0  0  0  0  0  0  0  0
   11.0480   -0.4790    8.6110 Br  0  0  0  0  0  0  0  0  0  0  0  0
   12.7330    1.8670    9.2970 C   0  0  0  0  0  3  0  0  0  0  0  0
   12.5800    3.0700    9.8480 N   0  0  0  0  0  0  0  0  0  0  0  0
  1  2  2  0  0  0  0
  3  1  1  0  0  0  0
  3 14  1  0  0  0  0
  4  3  1  0  0  0  0
  4  5  1  0  0  0  0
  6  5  1  6  0  0  0
  6  7  1  0  0  0  0
  6 11  1  0  0  0  0
  7  8  1  0  0  0  0
  8 10  1  0  0  0  0
  8  9  2  0  0  0  0
 10 16  1  0  0  0  0
 11 12  2  0  0  0  0
 11 10  1  0  0  0  0
 13  6  1  0  0  0  0
 14 13  1  0  0  0  0
 15  7  1  0  0  0  0
 17  1  1  0  0  0  0
 17 22  1  0  0  0  0
 18 17  2  0  0  0  0
 19 18  1  0  0  0  0
 19 20  2  0  0  0  0
 20 21  1  0  0  0  0
 21 22  2  0  0  0  0
 23 20  1  0  0  0  0
 24 23  1  0  0  0  0
 25 27  1  0  0  0  0
 25 24  2  0  0  0  0
 26 25  1  0  0  0  0
 27 28  2  0  0  0  0
 28 23  1  0  0  0  0
M  END
>  <Pose>
1

>  <Score>
-8.338

$$$$
