/Users/jonathanwahrer/Desktop/Msc/3_Semester/Drug_Design_Praktikum/waehrer_HTS_screening/HTS_experiment/out/docking_results/vina_output/2jam/0666_docked.pdbqt
 OpenBabel03162217483D

 28 31  0  0  0  0  0  0  0  0999 V2000
   12.8550    4.1220   11.7360 C   0  0  0  0  0  0  0  0  0  0  0  0
   11.6590    4.4230   11.3240 C   0  0  0  0  0  0  0  0  0  0  0  0
   11.2820    3.3970   10.3500 C   0  0  0  0  0  0  0  0  0  0  0  0
   10.1690    3.3770    9.7380 O   0  0  0  0  0  0  0  0  0  0  0  0
   12.3310    2.4320   10.1860 N   0  0  0  0  0  0  0  0  0  0  0  0
   13.3490    2.8900   11.0750 C   0  0  0  0  0  0  0  0  0  0  0  0
   14.4670    2.3420   11.2640 O   0  0  0  0  0  0  0  0  0  0  0  0
   13.6680    4.7970   12.6780 N   0  0  0  0  0  0  0  0  0  0  0  0
   13.5520    4.6360   13.6780 H   0  0  0  0  0  0  0  0  0  0  0  0
   14.6420    5.7000   12.1920 C   0  0  0  0  0  0  0  0  0  0  0  0
   15.9480    5.3380   12.0720 N   0  0  0  0  0  0  0  0  0  0  0  0
   16.9080    6.1580   11.6330 C   0  0  0  0  0  3  0  0  0  0  0  0
   16.6220    7.4480   11.2690 C   0  0  0  0  0  0  0  0  0  0  0  0
   17.9730    8.6500   10.6480 Br  0  0  0  0  0  0  0  0  0  0  0  0
   15.3200    7.8820   11.3640 C   0  0  0  0  0  3  0  0  0  0  0  0
   14.3590    7.0180   11.8150 C   0  0  0  0  0  3  0  0  0  0  0  0
   10.8290    5.5180   11.7170 N   0  0  0  0  0  0  0  0  0  0  0  0
   10.1080    5.4400   12.8500 C   0  0  0  0  0  2  0  0  0  0  0  0
    9.2750    6.4950   13.2620 C   0  0  0  0  0  3  0  0  0  0  0  0
    9.1870    7.6410   12.4940 C   0  0  0  0  0  3  0  0  0  0  0  0
    9.9350    7.6970   11.3380 C   0  0  0  0  0  3  0  0  0  0  0  0
   10.7360    6.6470   10.9730 C   0  0  0  0  0  3  0  0  0  0  0  0
   12.3420    1.3020    9.3290 C   0  0  0  0  0  0  0  0  0  0  0  0
   13.2820    1.1050    8.3500 C   0  0  0  0  0  3  0  0  0  0  0  0
   13.2710   -0.0400    7.5270 C   0  0  0  0  0  3  0  0  0  0  0  0
   12.3030   -1.0050    7.6870 C   0  0  0  0  0  3  0  0  0  0  0  0
   11.3610   -0.8130    8.6650 C   0  0  0  0  0  3  0  0  0  0  0  0
   11.3870    0.3260    9.4710 C   0  0  0  0  0  3  0  0  0  0  0  0
  1  8  1  0  0  0  0
  2 17  1  0  0  0  0
  2  1  2  0  0  0  0
  3  2  1  0  0  0  0
  4  3  2  0  0  0  0
  5  3  1  0  0  0  0
  5  6  1  0  0  0  0
  6  7  2  0  0  0  0
  6  1  1  0  0  0  0
  8  9  1  0  0  0  0
 10  8  1  0  0  0  0
 11 10  1  0  0  0  0
 12 11  2  0  0  0  0
 13 15  2  0  0  0  0
 13 12  1  0  0  0  0
 14 13  1  0  0  0  0
 15 16  1  0  0  0  0
 16 10  2  0  0  0  0
 17 18  1  0  0  0  0
 18 19  1  0  0  0  0
 20 19  2  0  0  0  0
 21 20  1  0  0  0  0
 22 21  2  0  0  0  0
 22 17  1  0  0  0  0
 23 28  1  0  0  0  0
 23  5  1  0  0  0  0
 24 23  2  0  0  0  0
 25 26  2  0  0  0  0
 25 24  1  0  0  0  0
 26 27  1  0  0  0  0
 27 28  2  0  0  0  0
M  END
>  <Pose>
1

>  <Score>
-8.455

$$$$
