/Users/jonathanwahrer/Desktop/Msc/3_Semester/Drug_Design_Praktikum/waehrer_HTS_screening/HTS_experiment/out/docking_results/vina_output/2jam/0670_docked.pdbqt
 OpenBabel03162217483D

 23 27  0  0  1  0  0  0  0  0999 V2000
   13.1380    3.5690   10.3400 C   0  0  0  0  0  2  0  0  0  0  0  0
   11.7650    4.1220   10.5620 C   0  0  1  0  0  3  0  0  0  0  0  0
   11.5610    4.8780   11.8590 C   0  0  2  0  0  3  0  0  0  0  0  0
   10.6420    5.6880   11.1120 N   0  0  0  0  0  0  0  0  0  0  0  0
   11.5340    5.5200   10.0000 C   0  0  2  0  0  3  0  0  0  0  0  0
    9.4310    6.3390   11.3680 C   0  0  0  0  0  0  0  0  0  0  0  0
    8.2450    5.7050   11.4940 N   0  0  0  0  0  0  0  0  0  0  0  0
    7.0860    6.3020   11.7380 C   0  0  0  0  0  3  0  0  0  0  0  0
    7.0450    7.6710   11.8810 C   0  0  0  0  0  0  0  0  0  0  0  0
    5.3880    8.5610   12.2320 Br  0  0  0  0  0  0  0  0  0  0  0  0
    8.2360    8.3540   11.7590 C   0  0  0  0  0  3  0  0  0  0  0  0
    9.3830    7.6970   11.5120 N   0  0  0  0  0  0  0  0  0  0  0  0
   13.0130    2.3830    9.5340 N   0  0  0  0  0  0  0  0  0  0  0  0
   11.8100    1.6780    9.4980 N   0  0  0  0  0  0  0  0  0  0  0  0
   11.6390    0.5030    8.7170 C   0  0  0  0  0  0  0  0  0  0  0  0
   11.0130    2.0600   10.0860 H   0  0  0  0  0  0  0  0  0  0  0  0
   10.4790   -0.1260    8.7190 C   0  0  0  0  0  0  0  0  0  0  0  0
   12.7340   -0.0100    7.9180 C   0  0  0  0  0  3  0  0  0  0  0  0
    9.0730   -0.3600    9.1020 C   0  0  0  0  0  2  0  0  0  0  0  0
    9.6900   -1.3020    8.1810 C   0  0  0  0  0  2  0  0  0  0  0  0
   13.8860    0.6420    7.9370 C   0  0  0  0  0  3  0  0  0  0  0  0
   14.0730    1.8660    8.7440 C   0  0  0  0  0  0  0  0  0  0  0  0
   15.1800    2.4680    8.7450 O   0  0  0  0  0  0  0  0  0  0  0  0
  2  1  1  1  0  0  0
  2  3  1  0  0  0  0
  3  4  1  6  0  0  0
  4  6  1  0  0  0  0
  5  2  1  0  0  0  0
  5  4  1  6  0  0  0
  5  3  1  0  0  0  0
  6  7  2  0  0  0  0
  6 12  1  0  0  0  0
  7  8  1  0  0  0  0
  8  9  2  0  0  0  0
  9 10  1  0  0  0  0
 11  9  1  0  0  0  0
 12 11  2  0  0  0  0
 13  1  1  0  0  0  0
 14 13  1  0  0  0  0
 14 16  1  0  0  0  0
 15 17  2  0  0  0  0
 15 14  1  0  0  0  0
 17 19  1  0  0  0  0
 18 21  2  0  0  0  0
 18 15  1  0  0  0  0
 20 17  1  0  0  0  0
 20 19  1  0  0  0  0
 21 22  1  0  0  0  0
 22 23  2  0  0  0  0
 22 13  1  0  0  0  0
M  END
>  <Pose>
1

>  <Score>
-8.419

$$$$
