/Users/jonathanwahrer/Desktop/Msc/3_Semester/Drug_Design_Praktikum/waehrer_HTS_screening/HTS_experiment/out/docking_results/vina_output/2jam/0680_docked.pdbqt
 OpenBabel03162217493D

 24 27  0  0  1  0  0  0  0  0999 V2000
   11.2490    3.0810   11.7730 C   0  0  0  0  0  0  0  0  0  0  0  0
   11.6940    2.5840   12.8720 O   0  0  0  0  0  0  0  0  0  0  0  0
   10.5820    4.3180   11.8470 N   0  0  0  0  0  0  0  0  0  0  0  0
    9.9150    5.2490   10.9910 C   0  0  0  0  0  2  0  0  0  0  0  0
    9.0910    5.6800   12.2180 C   0  0  1  0  0  3  0  0  0  0  0  0
   10.3050    5.2560   12.9540 C   0  0  0  0  0  2  0  0  0  0  0  0
    8.7870    7.0840   12.1910 N   0  0  0  0  0  0  0  0  0  0  0  0
    9.6570    8.1930   12.4830 C   0  0  0  0  0  0  0  0  0  0  0  0
   10.8960    8.1680   12.3840 O   0  0  0  0  0  0  0  0  0  0  0  0
    8.7500    9.3150   12.9080 C   0  0  1  0  0  3  0  0  0  0  0  0
    7.6080    9.1120   11.9410 C   0  0  2  0  0  3  0  0  0  0  0  0
    8.3940    9.0710   14.3340 C   0  0  0  0  0  2  0  0  0  0  0  0
    6.3470    9.7580   12.4420 C   0  0  0  0  0  2  0  0  0  0  0  0
    7.5200    7.6410   11.8570 C   0  0  0  0  0  0  0  0  0  0  0  0
    5.9820    9.1810   13.7640 C   0  0  0  0  0  3  0  0  0  0  0  0
    6.9600    8.8840   14.5940 C   0  0  0  0  0  3  0  0  0  0  0  0
    6.4700    7.0310   11.5370 O   0  0  0  0  0  0  0  0  0  0  0  0
   11.4990    2.2870   10.5930 C   0  0  0  0  0  0  0  0  0  0  0  0
   10.4430    1.6500    9.9290 C   0  0  0  0  0  3  0  0  0  0  0  0
   10.6230    0.8930    8.8420 N   0  0  0  0  0  0  0  0  0  0  0  0
   11.8600    0.7020    8.3170 C   0  0  0  0  0  3  0  0  0  0  0  0
   12.9540    1.2900    8.9060 C   0  0  0  0  0  0  0  0  0  0  0  0
   14.6790    1.0060    8.1540 Br  0  0  0  0  0  0  0  0  0  0  0  0
   12.7370    2.0690   10.0320 C   0  0  0  0  0  3  0  0  0  0  0  0
  1  3  1  0  0  0  0
  1  2  2  0  0  0  0
  3  6  1  0  0  0  0
  4  3  1  0  0  0  0
  5  4  1  6  0  0  0
  5  6  1  0  0  0  0
  7  5  1  0  0  0  0
  7  8  1  0  0  0  0
  8 10  1  0  0  0  0
  9  8  2  0  0  0  0
 10 12  1  1  0  0  0
 11 13  1  1  0  0  0
 11 10  1  0  0  0  0
 12 16  1  0  0  0  0
 13 15  1  0  0  0  0
 14 11  1  0  0  0  0
 14  7  1  0  0  0  0
 15 16  2  0  0  0  0
 17 14  2  0  0  0  0
 18  1  1  0  0  0  0
 19 18  2  0  0  0  0
 20 19  1  0  0  0  0
 21 20  2  0  0  0  0
 21 22  1  0  0  0  0
 22 24  2  0  0  0  0
 23 22  1  0  0  0  0
 24 18  1  0  0  0  0
M  END
>  <Pose>
1

>  <Score>
-8.491

$$$$
