/Users/jonathanwahrer/Desktop/Msc/3_Semester/Drug_Design_Praktikum/waehrer_HTS_screening/HTS_experiment/out/docking_results/vina_output/2jam/0681_docked.pdbqt
 OpenBabel03162217493D

 25 28  0  0  1  0  0  0  0  0999 V2000
   11.2150    3.0030   11.5590 C   0  0  0  0  0  0  0  0  0  0  0  0
   11.5280    2.6090   12.7250 O   0  0  0  0  0  0  0  0  0  0  0  0
   10.6460    4.2740   11.4120 N   0  0  0  0  0  0  0  0  0  0  0  0
   10.1510    5.1640   10.3950 C   0  0  0  0  0  2  0  0  0  0  0  0
   10.0040    6.3130   11.3810 C   0  0  2  0  0  3  0  0  0  0  0  0
   10.2890    5.2820   12.4300 C   0  0  0  0  0  2  0  0  0  0  0  0
    8.7580    6.9330   11.4470 O   0  0  0  0  0  0  0  0  0  0  0  0
    8.4420    8.0460   12.1990 C   0  0  2  0  0  3  0  0  0  0  0  0
    9.4060    8.7140   12.8260 C   0  0  0  0  0  3  0  0  0  0  0  0
    9.1370    9.8970   13.6340 C   0  0  0  0  0  0  0  0  0  0  0  0
   10.1190   10.5380   14.2430 C   0  0  0  0  0  1  0  0  0  0  0  0
    7.7860   10.3260   13.7390 N   0  0  0  0  0  0  0  0  0  0  0  0
    6.7670    9.5840   13.0520 C   0  0  0  0  0  0  0  0  0  0  0  0
    7.5830   11.1650   14.3100 H   0  0  0  0  0  0  0  0  0  0  0  0
    7.0810    8.5040   12.3240 N   0  0  0  0  0  0  0  0  0  0  0  0
    5.4430    9.7500   12.9770 N   0  0  0  0  0  0  0  0  0  0  0  0
    5.9590    7.9990   11.7980 N   0  0  0  0  0  0  0  0  0  0  0  0
    4.9500    8.7760   12.2070 C   0  0  0  0  0  3  0  0  0  0  0  0
   11.4660    2.1130   10.4530 C   0  0  0  0  0  0  0  0  0  0  0  0
   10.5360    1.3580    9.7840 C   0  0  0  0  0  3  0  0  0  0  0  0
   10.8560    0.5440    8.7360 N   0  0  0  0  0  0  0  0  0  0  0  0
   12.1080    0.4210    8.2800 C   0  0  0  0  0  3  0  0  0  0  0  0
   13.0850    1.1550    8.9110 C   0  0  0  0  0  0  0  0  0  0  0  0
   14.8960    1.0020    8.2830 Br  0  0  0  0  0  0  0  0  0  0  0  0
   12.7790    1.9770    9.9660 C   0  0  0  0  0  3  0  0  0  0  0  0
  1  2  2  0  0  0  0
  3  1  1  0  0  0  0
  3  6  1  0  0  0  0
  4  5  1  0  0  0  0
  4  3  1  0  0  0  0
  5  7  1  1  0  0  0
  5  6  1  0  0  0  0
  8  7  1  1  0  0  0
  8 15  1  0  0  0  0
  8  9  1  0  0  0  0
  9 10  2  0  0  0  0
 10 12  1  0  0  0  0
 10 11  1  0  0  0  0
 12 14  1  0  0  0  0
 13 12  1  0  0  0  0
 15 13  1  0  0  0  0
 16 13  2  0  0  0  0
 17 18  2  0  0  0  0
 17 15  1  0  0  0  0
 18 16  1  0  0  0  0
 19  1  1  0  0  0  0
 20 19  2  0  0  0  0
 21 20  1  0  0  0  0
 22 21  2  0  0  0  0
 22 23  1  0  0  0  0
 23 25  2  0  0  0  0
 24 23  1  0  0  0  0
 25 19  1  0  0  0  0
M  END
>  <Pose>
1

>  <Score>
-8.477

$$$$
