/Users/jonathanwahrer/Desktop/Msc/3_Semester/Drug_Design_Praktikum/waehrer_HTS_screening/HTS_experiment/out/docking_results/vina_output/2jam/0683_docked.pdbqt
 OpenBabel03162217493D

 10 10  0  0  0  0  0  0  0  0999 V2000
   13.4960    2.1500   10.9910 Br  0  0  0  0  0  0  0  0  0  0  0  0
   12.8310    1.0840    9.5800 C   0  0  0  0  0  0  0  0  0  0  0  0
   13.6520    0.7700    8.5090 C   0  0  0  0  0  3  0  0  0  0  0  0
   13.1340    0.0100    7.5330 N   0  0  0  0  0  0  0  0  0  0  0  0
   11.8770   -0.4600    7.5350 C   0  0  0  0  0  3  0  0  0  0  0  0
   11.0710   -0.1440    8.6000 C   0  0  0  0  0  0  0  0  0  0  0  0
   11.5290    0.6360    9.6490 C   0  0  0  0  0  3  0  0  0  0  0  0
    9.7020   -0.6350    8.6380 C   0  0  0  0  0  0  0  0  0  0  0  0
    8.8420   -0.0800    9.3780 O   0  0  0  0  0  1  0  0  0  0  0  0
    9.3030   -1.7170    7.8750 O   0  0  0  0  0  0  0  0  0  0  0  0
  2  7  1  0  0  0  0
  2  1  1  0  0  0  0
  3  2  2  0  0  0  0
  4  5  2  0  0  0  0
  4  3  1  0  0  0  0
  5  6  1  0  0  0  0
  6  8  1  0  0  0  0
  6  7  2  0  0  0  0
  8  9  1  0  0  0  0
 10  8  2  0  0  0  0
M  END
>  <Pose>
1

>  <Score>
-5.285

$$$$
