/Users/jonathanwahrer/Desktop/Msc/3_Semester/Drug_Design_Praktikum/waehrer_HTS_screening/HTS_experiment/out/docking_results/vina_output/2jam/0692_docked.pdbqt
 OpenBabel03162217493D

 29 32  0  0  0  0  0  0  0  0999 V2000
    8.3160    6.7320   16.6380 Br  0  0  0  0  0  0  0  0  0  0  0  0
    7.9630    7.2230   14.8370 C   0  0  0  0  0  0  0  0  0  0  0  0
    8.8480    6.8460   13.8440 C   0  0  0  0  0  0  0  0  0  0  0  0
    8.6480    7.1770   12.4950 C   0  0  0  0  0  0  0  0  0  0  0  0
    7.5350    7.9000   12.1440 C   0  0  0  0  0  3  0  0  0  0  0  0
    6.6470    8.2800   13.1310 C   0  0  0  0  0  0  0  0  0  0  0  0
    6.8430    7.9550   14.4560 C   0  0  0  0  0  3  0  0  0  0  0  0
    5.0940    9.2820   12.6790 Br  0  0  0  0  0  0  0  0  0  0  0  0
    9.6170    6.7690   11.4860 C   0  0  0  0  0  0  0  0  0  0  0  0
    9.6230    7.4490   10.4230 O   0  0  0  0  0  0  0  0  0  0  0  0
   10.5280    5.6470   11.6820 C   0  0  0  0  0  0  0  0  0  0  0  0
   10.3830    5.1430   13.1430 C   0  0  0  0  0  2  0  0  0  0  0  0
   10.0070    6.1180   14.0450 O   0  0  0  0  0  0  0  0  0  0  0  0
   10.3200    4.4500   10.8740 C   0  0  0  0  0  2  0  0  0  0  0  0
   11.2040    3.3920   10.7100 N   0  0  0  0  0  4  0  0  0  0  0  0
   12.3270    3.5030    9.8320 C   0  0  0  0  0  2  0  0  0  0  0  0
   13.3750    2.4820   10.3450 C   0  0  0  0  0  2  0  0  0  0  0  0
   12.8280    1.1260    9.9530 C   0  0  0  0  0  2  0  0  0  0  0  0
   11.3510    1.1870    9.6310 C   0  0  0  0  0  2  0  0  0  0  0  0
   10.5990    2.0730   10.6010 C   0  0  0  0  0  2  0  0  0  0  0  0
   11.6940    3.3250   11.6770 H   0  0  0  0  0  0  0  0  0  0  0  0
   11.9470    6.1600   11.4890 C   0  0  0  0  0  2  0  0  0  0  0  0
   12.6550    6.3380   12.7320 N   0  0  0  0  0  4  0  0  0  0  0  0
   12.9410    7.7580   12.8830 C   0  0  0  0  0  2  0  0  0  0  0  0
   13.6520    8.2440   11.6640 C   0  0  0  0  0  2  0  0  0  0  0  0
   14.8660    7.4760   11.2910 C   0  0  0  0  0  2  0  0  0  0  0  0
   14.8060    6.0120   11.5570 C   0  0  0  0  0  2  0  0  0  0  0  0
   13.9600    5.7030   12.7720 C   0  0  0  0  0  2  0  0  0  0  0  0
   12.1210    5.9610   13.5350 H   0  0  0  0  0  0  0  0  0  0  0  0
  2  1  1  0  0  0  0
  3 13  1  0  0  0  0
  3  2  2  0  0  0  0
  4  3  1  0  0  0  0
  5  4  2  0  0  0  0
  5  6  1  0  0  0  0
  6  7  2  0  0  0  0
  7  2  1  0  0  0  0
  8  6  1  0  0  0  0
  9 11  1  0  0  0  0
  9  4  1  0  0  0  0
 10  9  2  0  0  0  0
 11 12  1  0  0  0  0
 12 13  1  0  0  0  0
 14 11  1  0  0  0  0
 15 14  1  0  0  0  0
 15 21  1  0  0  0  0
 16 17  1  0  0  0  0
 16 15  1  0  0  0  0
 18 17  1  0  0  0  0
 19 18  1  0  0  0  0
 19 20  1  0  0  0  0
 20 15  1  0  0  0  0
 22 11  1  0  0  0  0
 22 23  1  0  0  0  0
 23 28  1  0  0  0  0
 23 24  1  0  0  0  0
 23 29  1  0  0  0  0
 25 24  1  0  0  0  0
 26 27  1  0  0  0  0
 26 25  1  0  0  0  0
 27 28  1  0  0  0  0
M  END
>  <Pose>
1

>  <Score>
-7.280

$$$$
