/Users/jonathanwahrer/Desktop/Msc/3_Semester/Drug_Design_Praktikum/waehrer_HTS_screening/HTS_experiment/out/docking_results/vina_output/2jam/0695_docked.pdbqt
 OpenBabel03162217493D

 22 25  0  0  0  0  0  0  0  0999 V2000
   10.9410    3.4680   11.1600 C   0  0  0  0  0  2  0  0  0  0  0  0
   11.4100    2.3730   10.2730 C   0  0  0  0  0  0  0  0  0  0  0  0
   10.5940    1.3720    9.8000 C   0  0  0  0  0  3  0  0  0  0  0  0
   11.0620    0.3520    8.9690 C   0  0  0  0  0  0  0  0  0  0  0  0
   12.3800    0.3160    8.5860 C   0  0  0  0  0  0  0  0  0  0  0  0
   10.4490   -0.7510    8.3710 O   0  0  0  0  0  0  0  0  0  0  0  0
   13.2070    1.3150    9.0550 C   0  0  0  0  0  0  0  0  0  0  0  0
   12.5540   -0.8050    7.7650 O   0  0  0  0  0  0  0  0  0  0  0  0
   15.0510    1.2630    8.5200 Br  0  0  0  0  0  0  0  0  0  0  0  0
   12.7500    2.3260    9.8770 C   0  0  0  0  0  3  0  0  0  0  0  0
   11.2560   -1.1230    7.2430 C   0  0  0  0  0  2  0  0  0  0  0  0
   10.7910    4.6780   10.3900 N   0  0  0  0  0  0  0  0  0  0  0  0
   10.8880    4.6880    9.3610 H   0  0  0  0  0  0  0  0  0  0  0  0
   10.4990    5.9020   11.0900 C   0  0  0  0  0  0  0  0  0  0  0  0
   11.4810    6.7240   11.4860 N   0  0  0  0  0  0  0  0  0  0  0  0
   11.1990    7.8650   12.1390 C   0  0  0  0  0  3  0  0  0  0  0  0
    9.8860    8.2300   12.4240 C   0  0  0  0  0  3  0  0  0  0  0  0
    8.9160    7.4080   12.0260 N   0  0  0  0  0  0  0  0  0  0  0  0
    9.1970    6.2540   11.3670 C   0  0  0  0  0  0  0  0  0  0  0  0
    7.5750    7.4460   12.1310 C   0  0  0  0  0  3  0  0  0  0  0  0
    8.0320    5.6430   11.0990 N   0  0  0  0  0  0  0  0  0  0  0  0
    7.0280    6.3680   11.5640 N   0  0  0  0  0  0  0  0  0  0  0  0
  2  1  1  0  0  0  0
  3  2  2  0  0  0  0
  4  3  1  0  0  0  0
  5  4  2  0  0  0  0
  5  7  1  0  0  0  0
  6  4  1  0  0  0  0
  7 10  2  0  0  0  0
  8  5  1  0  0  0  0
  9  7  1  0  0  0  0
 10  2  1  0  0  0  0
 11  8  1  0  0  0  0
 11  6  1  0  0  0  0
 12 14  1  0  0  0  0
 12  1  1  0  0  0  0
 13 12  1  0  0  0  0
 14 19  1  0  0  0  0
 14 15  2  0  0  0  0
 15 16  1  0  0  0  0
 16 17  2  0  0  0  0
 18 20  1  0  0  0  0
 18 17  1  0  0  0  0
 19 18  1  0  0  0  0
 21 19  2  0  0  0  0
 21 22  1  0  0  0  0
 22 20  2  0  0  0  0
M  END
>  <Pose>
1

>  <Score>
-7.736

$$$$
