/Users/jonathanwahrer/Desktop/Msc/3_Semester/Drug_Design_Praktikum/waehrer_HTS_screening/HTS_experiment/out/docking_results/vina_output/2jam/0696_docked.pdbqt
 OpenBabel03162217493D

 28 31  0  0  1  0  0  0  0  0999 V2000
    7.1540    5.6550   14.6990 Br  0  0  0  0  0  0  0  0  0  0  0  0
    7.9530    6.9050   13.5150 C   0  0  0  0  0  0  0  0  0  0  0  0
    9.0670    6.5160   12.7600 C   0  0  0  0  0  0  0  0  0  0  0  0
    9.6760    7.3650   11.8880 C   0  0  0  0  0  0  0  0  0  0  0  0
    9.1740    8.6480   11.7530 C   0  0  0  0  0  3  0  0  0  0  0  0
    8.0680    9.0420   12.4980 C   0  0  0  0  0  0  0  0  0  0  0  0
    7.4540    8.1810   13.3780 C   0  0  0  0  0  3  0  0  0  0  0  0
    7.4960   10.4140   12.3820 C   0  0  0  0  0  1  0  0  0  0  0  0
   10.8330    6.9160   11.0660 C   0  0  1  0  0  3  0  0  0  0  0  0
   11.7150    5.8800   11.6650 C   0  0  0  0  0  0  0  0  0  0  0  0
   11.0580    5.2430   12.9130 C   0  0  0  0  0  2  0  0  0  0  0  0
    9.6420    5.2550   12.8320 O   0  0  0  0  0  0  0  0  0  0  0  0
   13.0040    6.4520   12.2250 C   0  0  0  0  0  2  0  0  0  0  0  0
   14.2070    5.8030   11.7500 N   0  0  0  0  0  4  0  0  0  0  0  0
   14.7740    4.9830   12.8210 C   0  0  0  0  0  2  0  0  0  0  0  0
   16.2230    4.8180   12.5450 C   0  0  0  0  0  2  0  0  0  0  0  0
   16.4880    5.7590   11.4190 C   0  0  0  0  0  2  0  0  0  0  0  0
   15.3080    6.7300   11.5480 C   0  0  0  0  0  2  0  0  0  0  0  0
   14.1080    5.2670   10.8760 H   0  0  0  0  0  0  0  0  0  0  0  0
   11.9340    4.7270   10.7610 C   0  0  0  0  0  2  0  0  0  0  0  0
   11.6310    3.4020   10.9340 N   0  0  0  0  0  4  0  0  0  0  0  0
   10.6350    2.9700    9.9270 C   0  0  0  0  0  2  0  0  0  0  0  0
   10.9500    1.5630    9.5980 C   0  0  0  0  0  2  0  0  0  0  0  0
   12.3820    1.3620    9.9150 C   0  0  0  0  0  2  0  0  0  0  0  0
   12.6650    2.4520   10.9480 C   0  0  0  0  0  2  0  0  0  0  0  0
   11.0090    3.2480   11.8450 H   0  0  0  0  0  0  0  0  0  0  0  0
   10.2040    6.4980    9.8600 O   0  0  0  0  0  0  0  0  0  0  0  0
    9.2360    6.5740    9.9220 H   0  0  0  0  0  0  0  0  0  0  0  0
  2  1  1  0  0  0  0
  3 12  1  0  0  0  0
  3  2  2  0  0  0  0
  4  3  1  0  0  0  0
  5  4  2  0  0  0  0
  5  6  1  0  0  0  0
  6  7  2  0  0  0  0
  7  2  1  0  0  0  0
  8  6  1  0  0  0  0
  9 27  1  6  0  0  0
  9 10  1  0  0  0  0
  9  4  1  0  0  0  0
 10 13  1  0  0  0  0
 10 11  1  0  0  0  0
 12 11  1  0  0  0  0
 14 13  1  0  0  0  0
 14 15  1  0  0  0  0
 16 15  1  0  0  0  0
 17 18  1  0  0  0  0
 17 16  1  0  0  0  0
 18 14  1  0  0  0  0
 19 14  1  0  0  0  0
 20 21  1  0  0  0  0
 20 10  1  0  0  0  0
 21 25  1  0  0  0  0
 21 26  1  0  0  0  0
 22 21  1  0  0  0  0
 23 24  1  0  0  0  0
 23 22  1  0  0  0  0
 24 25  1  0  0  0  0
 27 28  1  0  0  0  0
M  END
>  <Pose>
1

>  <Score>
-7.037

$$$$
