/Users/jonathanwahrer/Desktop/Msc/3_Semester/Drug_Design_Praktikum/waehrer_HTS_screening/HTS_experiment/out/docking_results/vina_output/2jam/0706_docked.pdbqt
 OpenBabel03162217503D

 30 33  0  0  0  0  0  0  0  0999 V2000
   12.7630    3.3040   11.3240 C   0  0  0  0  0  3  0  0  0  0  0  0
   13.0820    2.3120   10.3550 N   0  0  0  0  0  0  0  0  0  0  0  0
   14.3310    2.1100    9.8950 C   0  0  0  0  0  0  0  0  0  0  0  0
   15.9290    3.0580   10.4130 Br  0  0  0  0  0  0  0  0  0  0  0  0
   14.2540    1.1120    8.9960 N   0  0  0  0  0  0  0  0  0  0  0  0
   12.9890    0.6880    8.8840 C   0  0  0  0  0  0  0  0  0  0  0  0
   12.2400    1.4560    9.7540 C   0  0  0  0  0  0  0  0  0  0  0  0
   12.3640   -0.2560    8.1500 N   0  0  0  0  0  0  0  0  0  0  0  0
   10.8870    1.1920    9.8020 C   0  0  0  0  0  0  0  0  0  0  0  0
   10.2740    0.2490    9.0660 N   0  0  0  0  0  0  0  0  0  0  0  0
   10.1920    1.8770   10.5800 O   0  0  0  0  0  0  0  0  0  0  0  0
   11.0340   -0.4810    8.2290 C   0  0  0  0  0  0  0  0  0  0  0  0
    8.8490   -0.0110    9.1320 C   0  0  0  0  0  1  0  0  0  0  0  0
   10.4860   -1.3780    7.5220 O   0  0  0  0  0  0  0  0  0  0  0  0
   13.1570   -1.0570    7.2410 C   0  0  0  0  0  1  0  0  0  0  0  0
   12.4250    4.6610   10.8240 C   0  0  0  0  0  3  0  0  0  0  0  0
   12.1370    5.6660   11.7910 N   0  0  0  0  0  0  0  0  0  0  0  0
   10.8970    6.0970   12.1350 C   0  0  0  0  0  0  0  0  0  0  0  0
   11.0050    7.0760   13.0910 C   0  0  0  0  0  0  0  0  0  0  0  0
    9.6110    5.7610   11.7330 C   0  0  0  0  0  0  0  0  0  0  0  0
   12.3240    7.2150   13.3050 N   0  0  0  0  0  0  0  0  0  0  0  0
    9.9300    7.7050   13.6370 N   0  0  0  0  0  0  0  0  0  0  0  0
   13.0070    6.3670   12.5230 C   0  0  0  0  0  0  0  0  0  0  0  0
   14.9200    6.1520   12.4230 Br  0  0  0  0  0  0  0  0  0  0  0  0
    8.7170    7.3240   13.1960 C   0  0  0  0  0  0  0  0  0  0  0  0
   10.0820    8.7400   14.6510 C   0  0  0  0  0  1  0  0  0  0  0  0
    7.7120    7.9000   13.6950 O   0  0  0  0  0  0  0  0  0  0  0  0
    8.5520    6.3710   12.2620 N   0  0  0  0  0  0  0  0  0  0  0  0
    7.2240    5.9970   11.8220 C   0  0  0  0  0  1  0  0  0  0  0  0
    9.5250    4.8610   10.8550 O   0  0  0  0  0  0  0  0  0  0  0  0
  2  1  1  0  0  0  0
  3  2  1  0  0  0  0
  3  4  1  0  0  0  0
  5  3  2  0  0  0  0
  6  5  1  0  0  0  0
  6  7  2  0  0  0  0
  7  9  1  0  0  0  0
  7  2  1  0  0  0  0
  8 12  1  0  0  0  0
  8  6  1  0  0  0  0
  9 11  2  0  0  0  0
 10 13  1  0  0  0  0
 10  9  1  0  0  0  0
 12 10  1  0  0  0  0
 14 12  2  0  0  0  0
 15  8  1  0  0  0  0
 16  1  2  0  0  0  0
 16 17  1  0  0  0  0
 17 18  1  0  0  0  0
 17 23  1  0  0  0  0
 18 19  2  0  0  0  0
 19 21  1  0  0  0  0
 19 22  1  0  0  0  0
 20 18  1  0  0  0  0
 20 28  1  0  0  0  0
 22 26  1  0  0  0  0
 23 21  2  0  0  0  0
 24 23  1  0  0  0  0
 25 22  1  0  0  0  0
 25 27  2  0  0  0  0
 28 25  1  0  0  0  0
 29 28  1  0  0  0  0
 30 20  2  0  0  0  0
M  END
>  <Pose>
1

>  <Score>
-8.328

$$$$
