/Users/jonathanwahrer/Desktop/Msc/3_Semester/Drug_Design_Praktikum/waehrer_HTS_screening/HTS_experiment/out/docking_results/vina_output/2jam/0708_docked.pdbqt
 OpenBabel03162217503D

 31 34  0  0  0  0  0  0  0  0999 V2000
    9.7380    7.8750   12.7420 C   0  0  0  0  0  2  0  0  0  0  0  0
   10.5590    7.6560   11.5040 C   0  0  0  0  0  2  0  0  0  0  0  0
   11.4150    6.4900   11.5670 N   0  0  0  0  0  0  0  0  0  0  0  0
   12.5760    6.4110   12.2860 C   0  0  0  0  0  0  0  0  0  0  0  0
   13.2320    7.8480   13.3490 Br  0  0  0  0  0  0  0  0  0  0  0  0
   13.1430    5.2060   12.1230 N   0  0  0  0  0  0  0  0  0  0  0  0
   12.3710    4.4690   11.2950 C   0  0  0  0  0  0  0  0  0  0  0  0
   11.3050    5.2900   10.9630 C   0  0  0  0  0  0  0  0  0  0  0  0
   12.5320    3.2160   10.8370 N   0  0  0  0  0  0  0  0  0  0  0  0
   10.3650    4.7880   10.1160 C   0  0  0  0  0  0  0  0  0  0  0  0
   10.5300    3.5180    9.6540 N   0  0  0  0  0  0  0  0  0  0  0  0
    9.3840    5.4840    9.7810 O   0  0  0  0  0  0  0  0  0  0  0  0
   11.5820    2.7540   10.0030 C   0  0  0  0  0  0  0  0  0  0  0  0
    9.7860    3.1750    9.0090 H   0  0  0  0  0  0  0  0  0  0  0  0
   11.6880    1.5690    9.5420 O   0  0  0  0  0  0  0  0  0  0  0  0
   13.6480    2.3650   11.1900 C   0  0  0  0  0  1  0  0  0  0  0  0
    8.6410    6.8710   12.9500 C   0  0  0  0  0  2  0  0  0  0  0  0
    7.6100    7.4310   13.8140 N   0  0  0  0  0  0  0  0  0  0  0  0
    6.3900    7.9020   13.4690 C   0  0  0  0  0  0  0  0  0  0  0  0
    5.7170    8.3430   14.5850 C   0  0  0  0  0  0  0  0  0  0  0  0
    5.7560    8.0020   12.2590 C   0  0  0  0  0  0  0  0  0  0  0  0
    6.5530    8.1330   15.6190 N   0  0  0  0  0  0  0  0  0  0  0  0
    4.4770    8.8660   14.5500 N   0  0  0  0  0  0  0  0  0  0  0  0
    7.6920    7.5830   15.1450 C   0  0  0  0  0  0  0  0  0  0  0  0
    9.2250    7.0730   16.1650 Br  0  0  0  0  0  0  0  0  0  0  0  0
    3.8890    8.9470   13.3310 C   0  0  0  0  0  0  0  0  0  0  0  0
    3.8010    9.3230   15.7620 C   0  0  0  0  0  1  0  0  0  0  0  0
    2.7200    9.4380   13.2940 O   0  0  0  0  0  0  0  0  0  0  0  0
    4.5140    8.5250   12.2120 N   0  0  0  0  0  0  0  0  0  0  0  0
    4.0130    8.6110   11.3050 H   0  0  0  0  0  0  0  0  0  0  0  0
    6.3650    7.6010   11.2370 O   0  0  0  0  0  0  0  0  0  0  0  0
  1 17  1  0  0  0  0
  2  3  1  0  0  0  0
  2  1  1  0  0  0  0
  3  4  1  0  0  0  0
  4  5  1  0  0  0  0
  6  4  2  0  0  0  0
  7  6  1  0  0  0  0
  8  7  2  0  0  0  0
  8  3  1  0  0  0  0
  9 16  1  0  0  0  0
  9  7  1  0  0  0  0
 10  8  1  0  0  0  0
 11 13  1  0  0  0  0
 11 10  1  0  0  0  0
 12 10  2  0  0  0  0
 13  9  1  0  0  0  0
 14 11  1  0  0  0  0
 15 13  2  0  0  0  0
 17 18  1  0  0  0  0
 18 24  1  0  0  0  0
 19 18  1  0  0  0  0
 19 20  2  0  0  0  0
 20 22  1  0  0  0  0
 21 19  1  0  0  0  0
 23 20  1  0  0  0  0
 23 27  1  0  0  0  0
 24 22  2  0  0  0  0
 24 25  1  0  0  0  0
 26 23  1  0  0  0  0
 28 26  2  0  0  0  0
 29 21  1  0  0  0  0
 29 26  1  0  0  0  0
 30 29  1  0  0  0  0
 31 21  2  0  0  0  0
M  END
>  <Pose>
1

>  <Score>
-8.276

$$$$
