/Users/jonathanwahrer/Desktop/Msc/3_Semester/Drug_Design_Praktikum/waehrer_HTS_screening/HTS_experiment/out/docking_results/vina_output/2jam/0708_docked.pdbqt
 OpenBabel03162210163D

 31 34  0  0  0  0  0  0  0  0999 V2000
    9.8640    7.7340   12.6230 C   0  0  0  0  0  2  0  0  0  0  0  0
    8.6440    6.8700   12.7570 C   0  0  0  0  0  2  0  0  0  0  0  0
    7.6300    7.4180   13.6340 N   0  0  0  0  0  0  0  0  0  0  0  0
    7.7510    7.5360   14.9910 C   0  0  0  0  0  0  0  0  0  0  0  0
    9.3150    7.0020   15.9380 Br  0  0  0  0  0  0  0  0  0  0  0  0
    6.6350    8.0650   15.5130 N   0  0  0  0  0  0  0  0  0  0  0  0
    5.7580    8.3060   14.5150 C   0  0  0  0  0  0  0  0  0  0  0  0
    6.3990    7.8950   13.3580 C   0  0  0  0  0  0  0  0  0  0  0  0
    4.5160    8.8200   14.5490 N   0  0  0  0  0  0  0  0  0  0  0  0
    5.7220    8.0200   12.1840 C   0  0  0  0  0  0  0  0  0  0  0  0
    4.4640    8.5410   12.2220 N   0  0  0  0  0  0  0  0  0  0  0  0
    6.2500    7.6620   11.1110 O   0  0  0  0  0  0  0  0  0  0  0  0
    3.8780    8.9290   13.3700 C   0  0  0  0  0  0  0  0  0  0  0  0
    3.9830    8.6190   11.3010 H   0  0  0  0  0  0  0  0  0  0  0  0
    2.6960    9.4120   13.3490 O   0  0  0  0  0  0  0  0  0  0  0  0
    3.8540    9.2480   15.7630 C   0  0  0  0  0  1  0  0  0  0  0  0
   10.6270    7.5450   11.3440 C   0  0  0  0  0  2  0  0  0  0  0  0
   11.5090    6.3910   11.4550 N   0  0  0  0  0  0  0  0  0  0  0  0
   11.3910    5.1830   10.8580 C   0  0  0  0  0  0  0  0  0  0  0  0
   12.4360    4.3670   11.2230 C   0  0  0  0  0  0  0  0  0  0  0  0
   10.4510    4.6750   10.0000 C   0  0  0  0  0  0  0  0  0  0  0  0
   13.1950    5.1020   12.0560 N   0  0  0  0  0  0  0  0  0  0  0  0
   12.5830    3.1030   10.7850 N   0  0  0  0  0  0  0  0  0  0  0  0
   12.6300    6.3210   12.1910 C   0  0  0  0  0  0  0  0  0  0  0  0
   13.2780    7.7710   13.2520 Br  0  0  0  0  0  0  0  0  0  0  0  0
   11.6300    2.6410    9.9380 C   0  0  0  0  0  0  0  0  0  0  0  0
   13.7110    2.2720   11.2000 C   0  0  0  0  0  1  0  0  0  0  0  0
   11.7670    1.4510    9.5210 O   0  0  0  0  0  0  0  0  0  0  0  0
   10.5890    3.4090    9.5550 N   0  0  0  0  0  0  0  0  0  0  0  0
    9.8900    3.0020    8.9020 H   0  0  0  0  0  0  0  0  0  0  0  0
    9.4950    5.4150    9.6630 O   0  0  0  0  0  0  0  0  0  0  0  0
  1  2  1  0  0  0  0
  2  3  1  0  0  0  0
  3  4  1  0  0  0  0
  4  6  2  0  0  0  0
  4  5  1  0  0  0  0
  7  9  1  0  0  0  0
  7  6  1  0  0  0  0
  8  3  1  0  0  0  0
  8  7  2  0  0  0  0
  9 16  1  0  0  0  0
 10 11  1  0  0  0  0
 10  8  1  0  0  0  0
 11 13  1  0  0  0  0
 12 10  2  0  0  0  0
 13  9  1  0  0  0  0
 14 11  1  0  0  0  0
 15 13  2  0  0  0  0
 17 18  1  0  0  0  0
 17  1  1  0  0  0  0
 18 24  1  0  0  0  0
 19 20  2  0  0  0  0
 19 18  1  0  0  0  0
 20 22  1  0  0  0  0
 21 19  1  0  0  0  0
 22 24  2  0  0  0  0
 23 27  1  0  0  0  0
 23 20  1  0  0  0  0
 24 25  1  0  0  0  0
 26 23  1  0  0  0  0
 28 26  2  0  0  0  0
 29 26  1  0  0  0  0
 29 21  1  0  0  0  0
 30 29  1  0  0  0  0
 31 21  2  0  0  0  0
M  END
>  <Pose>
1

>  <Score>
-8.250

$$$$
