/Users/jonathanwahrer/Desktop/Msc/3_Semester/Drug_Design_Praktikum/waehrer_HTS_screening/HTS_experiment/out/docking_results/vina_output/2jam/0716_docked.pdbqt
 OpenBabel03162217513D

 31 35  0  0  1  0  0  0  0  0999 V2000
   11.3250    3.8660   10.5640 C   0  0  1  0  0  0  0  0  0  0  0  0
    9.9090    4.3260   10.8250 C   0  0  0  0  0  2  0  0  0  0  0  0
    9.9360    5.6380   11.5530 C   0  0  2  0  0  0  0  0  0  0  0  0
   10.5370    6.6570   10.5750 C   0  0  0  0  0  2  0  0  0  0  0  0
   11.9180    6.1960   10.1850 C   0  0  2  0  0  3  0  0  0  0  0  0
   11.9250    4.8250    9.5590 C   0  0  0  0  0  2  0  0  0  0  0  0
   12.7880    6.2120   11.4020 C   0  0  0  0  0  2  0  0  0  0  0  0
   12.2150    5.2460   12.4150 C   0  0  2  0  0  3  0  0  0  0  0  0
   12.1760    3.8900   11.7950 C   0  0  0  0  0  2  0  0  0  0  0  0
   10.8010    5.6490   12.7700 C   0  0  0  0  0  2  0  0  0  0  0  0
    8.5760    6.0820   11.9240 C   0  0  0  0  0  0  0  0  0  0  0  0
    7.6280    5.7920   11.1500 O   0  0  0  0  0  0  0  0  0  0  0  0
    8.3450    6.8160   13.1240 N   0  0  0  0  0  0  0  0  0  0  0  0
    9.1790    7.0160   13.7080 H   0  0  0  0  0  0  0  0  0  0  0  0
    7.0780    7.2830   13.5610 C   0  0  0  0  0  0  0  0  0  0  0  0
    6.4270    8.3610   13.0320 C   0  0  0  0  0  0  0  0  0  0  0  0
    5.2590    8.4920   13.7040 N   0  0  0  0  0  0  0  0  0  0  0  0
    5.1830    7.5410   14.6110 N   0  0  0  0  0  0  0  0  0  0  0  0
    4.2250    9.4920   13.5040 C   0  0  0  0  0  1  0  0  0  0  0  0
    6.2770    6.7740   14.5620 C   0  0  0  0  0  3  0  0  0  0  0  0
    6.7960    9.2690   11.9640 C   0  0  0  0  0  0  0  0  0  0  0  0
    6.5450    9.0000   10.7630 O   0  0  0  0  0  0  0  0  0  0  0  0
    7.4580   10.5080   12.1850 N   0  0  0  0  0  0  0  0  0  0  0  0
    6.8710   11.3920   12.1630 H   0  0  0  0  0  0  0  0  0  0  0  0
    8.4740   10.6180   12.3640 H   0  0  0  0  0  0  0  0  0  0  0  0
   11.3000    2.4980   10.0480 N   0  0  0  0  0  0  0  0  0  0  0  0
   10.2380    1.7950    9.6770 N   0  0  0  0  0  0  0  0  0  0  0  0
   10.6010    0.5710    9.2540 C   0  0  0  0  0  0  0  0  0  0  0  0
    9.4640   -0.8340    8.6120 Br  0  0  0  0  0  0  0  0  0  0  0  0
   11.9480    0.5040    9.3640 N   0  0  0  0  0  0  0  0  0  0  0  0
   12.3550    1.6870    9.8490 C   0  0  0  0  0  3  0  0  0  0  0  0
  1  6  1  6  0  0  0
  1  2  1  0  0  0  0
  1  9  1  0  0  0  0
  2  3  1  0  0  0  0
  3 11  1  1  0  0  0
  3 10  1  0  0  0  0
  4  3  1  0  0  0  0
  5  6  1  1  0  0  0
  5  4  1  0  0  0  0
  5  7  1  0  0  0  0
  8  7  1  6  0  0  0
  8 10  1  0  0  0  0
  9  8  1  0  0  0  0
 11 13  1  0  0  0  0
 12 11  2  0  0  0  0
 13 15  1  0  0  0  0
 13 14  1  0  0  0  0
 15 20  1  0  0  0  0
 16 15  2  0  0  0  0
 16 17  1  0  0  0  0
 17 18  1  0  0  0  0
 19 17  1  0  0  0  0
 20 18  2  0  0  0  0
 21 23  1  0  0  0  0
 21 16  1  0  0  0  0
 22 21  2  0  0  0  0
 23 25  1  0  0  0  0
 24 23  1  0  0  0  0
 26  1  1  0  0  0  0
 27 26  1  0  0  0  0
 28 30  1  0  0  0  0
 28 27  2  0  0  0  0
 29 28  1  0  0  0  0
 30 31  2  0  0  0  0
 31 26  1  0  0  0  0
M  END
>  <Pose>
1

>  <Score>
-8.797

$$$$
