/Users/jonathanwahrer/Desktop/Msc/3_Semester/Drug_Design_Praktikum/waehrer_HTS_screening/HTS_experiment/out/docking_results/vina_output/2jam/0723_docked.pdbqt
 OpenBabel03162217513D

 23 26  0  0  1  0  0  0  0  0999 V2000
    4.9500    8.6910   14.7460 N   0  0  0  0  0  0  0  0  0  0  0  0
    5.4860    9.9150   15.2520 C   0  0  1  0  0  3  0  0  0  0  0  0
    5.5450    9.9660   16.7300 C   0  0  0  0  0  2  0  0  0  0  0  0
    4.9130    8.9650   17.4180 O   0  0  0  0  0  0  0  0  0  0  0  0
    3.7300    8.5530   16.8150 C   0  0  0  0  0  2  0  0  0  0  0  0
    3.9570    7.9540   15.4650 C   0  0  0  0  0  2  0  0  0  0  0  0
    5.3610    8.1450   13.4830 C   0  0  0  0  0  0  0  0  0  0  0  0
    4.7050    8.5450   12.3500 N   0  0  0  0  0  0  0  0  0  0  0  0
    5.0830    8.1070   11.1360 C   0  0  0  0  0  3  0  0  0  0  0  0
    6.1200    7.2610   11.0030 N   0  0  0  0  0  0  0  0  0  0  0  0
    6.8070    6.8260   12.0650 C   0  0  0  0  0  0  0  0  0  0  0  0
    7.8490    5.9820   12.1720 N   0  0  0  0  0  0  0  0  0  0  0  0
    6.4100    7.2840   13.3280 C   0  0  0  0  0  0  0  0  0  0  0  0
    8.1170    5.8930   13.4540 N   0  0  0  0  0  0  0  0  0  0  0  0
    8.5490    5.2970   11.1010 C   0  0  0  0  0  1  0  0  0  0  0  0
    7.2790    6.6570   14.1890 C   0  0  0  0  0  0  0  0  0  0  0  0
    7.2410    6.8330   16.0840 Br  0  0  0  0  0  0  0  0  0  0  0  0
    6.7660   10.2650   14.5950 C   0  0  0  0  0  0  0  0  0  0  0  0
    7.9850   10.0790   15.1040 N   0  0  0  0  0  0  0  0  0  0  0  0
    8.8650   10.5410   14.1700 C   0  0  0  0  0  0  0  0  0  0  0  0
    8.1280   10.9880   13.1380 N   0  0  0  0  0  0  0  0  0  0  0  0
   10.3430   10.5560   14.2610 C   0  0  0  0  0  1  0  0  0  0  0  0
    6.8690   10.8110   13.4180 O   0  0  0  0  0  0  0  0  0  0  0  0
  1  2  1  0  0  0  0
  1  6  1  0  0  0  0
  2 18  1  6  0  0  0
  2  3  1  0  0  0  0
  3  4  1  0  0  0  0
  5  4  1  0  0  0  0
  6  5  1  0  0  0  0
  7  1  1  0  0  0  0
  8  7  2  0  0  0  0
  9  8  1  0  0  0  0
 10  9  2  0  0  0  0
 10 11  1  0  0  0  0
 11 12  1  0  0  0  0
 11 13  2  0  0  0  0
 12 14  1  0  0  0  0
 13  7  1  0  0  0  0
 13 16  1  0  0  0  0
 14 16  2  0  0  0  0
 15 12  1  0  0  0  0
 16 17  1  0  0  0  0
 18 19  2  0  0  0  0
 20 22  1  0  0  0  0
 20 19  1  0  0  0  0
 21 23  1  0  0  0  0
 21 20  2  0  0  0  0
 23 18  1  0  0  0  0
M  END
>  <Pose>
1

>  <Score>
-6.742

$$$$
