/Users/jonathanwahrer/Desktop/Msc/3_Semester/Drug_Design_Praktikum/waehrer_HTS_screening/HTS_experiment/out/docking_results/vina_output/2jam/0729_docked.pdbqt
 OpenBabel03162217513D

 27 30  0  0  1  0  0  0  0  0999 V2000
    8.6750    7.2070   12.9940 N   0  0  0  0  0  0  0  0  0  0  0  0
    9.7750    8.0640   12.6530 C   0  0  0  0  0  2  0  0  0  0  0  0
   10.5050    7.3400   11.5180 C   0  0  0  0  0  2  0  0  0  0  0  0
   10.1680    5.9120   11.5080 N   0  0  0  0  0  0  0  0  0  0  0  0
   10.1790    5.3970   12.8800 C   0  0  0  0  0  2  0  0  0  0  0  0
    9.0130    5.9730   13.6610 C   0  0  0  0  0  2  0  0  0  0  0  0
    7.3550    7.5390   12.6690 C   0  0  0  0  0  0  0  0  0  0  0  0
    6.8560    7.3080   11.4310 N   0  0  0  0  0  0  0  0  0  0  0  0
    5.6190    7.6420   11.0820 C   0  0  0  0  0  3  0  0  0  0  0  0
    4.8250    8.2310   11.9800 N   0  0  0  0  0  0  0  0  0  0  0  0
    5.2290    8.5010   13.2330 C   0  0  0  0  0  0  0  0  0  0  0  0
    4.6230    9.0660   14.2950 N   0  0  0  0  0  0  0  0  0  0  0  0
    6.5250    8.1520   13.6010 C   0  0  0  0  0  0  0  0  0  0  0  0
    5.4830    9.0730   15.2780 N   0  0  0  0  0  0  0  0  0  0  0  0
    3.2510    9.5510   14.2560 C   0  0  0  0  0  1  0  0  0  0  0  0
    6.6590    8.5290   14.9170 C   0  0  0  0  0  0  0  0  0  0  0  0
    8.2160    8.2800   15.9710 Br  0  0  0  0  0  0  0  0  0  0  0  0
   11.2260    5.2460   10.7630 C   0  0  2  0  0  3  0  0  0  0  0  0
   11.6160    6.1940    9.5960 C   0  0  0  0  0  1  0  0  0  0  0  0
   10.7560    3.9720   10.1920 C   0  0  0  0  0  0  0  0  0  0  0  0
    9.7070    4.1020    9.4320 O   0  0  0  0  0  0  0  0  0  0  0  0
   11.2820    2.6820   10.3680 N   0  0  0  0  0  0  0  0  0  0  0  0
   12.3930    2.2730   11.1720 C   0  0  0  0  0  2  0  0  0  0  0  0
   10.6060    1.5810    9.6430 C   0  0  0  0  0  2  0  0  0  0  0  0
   13.3420    1.3140   10.4840 C   0  0  0  0  0  2  0  0  0  0  0  0
   12.6830    0.3520    9.5570 C   0  0  0  0  0  2  0  0  0  0  0  0
   11.6290    1.0120    8.6940 C   0  0  0  0  0  2  0  0  0  0  0  0
  1  6  1  0  0  0  0
  2  1  1  0  0  0  0
  3  2  1  0  0  0  0
  4  3  1  0  0  0  0
  4  5  1  0  0  0  0
  5  6  1  0  0  0  0
  7  1  1  0  0  0  0
  7 13  1  0  0  0  0
  8  7  2  0  0  0  0
  9  8  1  0  0  0  0
  9 10  2  0  0  0  0
 10 11  1  0  0  0  0
 11 13  2  0  0  0  0
 11 12  1  0  0  0  0
 12 14  1  0  0  0  0
 13 16  1  0  0  0  0
 15 12  1  0  0  0  0
 16 14  2  0  0  0  0
 16 17  1  0  0  0  0
 18 19  1  6  0  0  0
 18  4  1  0  0  0  0
 20 22  1  0  0  0  0
 20 18  1  0  0  0  0
 21 20  2  0  0  0  0
 22 23  1  0  0  0  0
 24 22  1  0  0  0  0
 25 23  1  0  0  0  0
 26 25  1  0  0  0  0
 27 26  1  0  0  0  0
 27 24  1  0  0  0  0
M  END
>  <Pose>
1

>  <Score>
-7.880

$$$$
