/Users/jonathanwahrer/Desktop/Msc/3_Semester/Drug_Design_Praktikum/waehrer_HTS_screening/HTS_experiment/out/docking_results/vina_output/2jam/0743_docked.pdbqt
 OpenBabel03162217513D

 30 33  0  0  1  0  0  0  0  0999 V2000
    9.8220    7.4730   12.4160 C   0  0  0  0  0  0  0  0  0  0  0  0
   10.8710    8.0110   11.9260 O   0  0  0  0  0  0  0  0  0  0  0  0
    8.8820    8.2570   13.1370 N   0  0  0  0  0  0  0  0  0  0  0  0
    9.1180    9.6640   13.3130 C   0  0  0  0  0  2  0  0  0  0  0  0
    7.8700   10.4920   13.3460 C   0  0  0  0  0  2  0  0  0  0  0  0
    6.6510    9.7250   13.7660 C   0  0  1  0  0  0  0  0  0  0  0  0
    5.7080   10.5850   14.4150 N   0  0  0  0  0  0  0  0  0  0  0  0
    4.5370    9.9270   14.8850 C   0  0  0  0  0  2  0  0  0  0  0  0
    3.9300    8.9440   13.9390 C   0  0  0  0  0  2  0  0  0  0  0  0
    4.6760    8.8280   12.6600 C   0  0  0  0  0  0  0  0  0  0  0  0
    4.3060    8.3930   11.4550 N   0  0  0  0  0  0  0  0  0  0  0  0
    5.3450    8.4830   10.6130 C   0  0  0  0  0  3  0  0  0  0  0  0
    6.3980    8.9800   11.2760 N   0  0  0  0  0  0  0  0  0  0  0  0
    5.9940    9.1950   12.5350 C   0  0  0  0  0  0  0  0  0  0  0  0
    7.0500    8.5300   14.6160 C   0  0  0  0  0  2  0  0  0  0  0  0
    7.7130    7.5590   13.6620 C   0  0  0  0  0  2  0  0  0  0  0  0
    6.1870   11.0370   15.2250 H   0  0  0  0  0  0  0  0  0  0  0  0
    7.3740    9.1710   10.8810 H   0  0  0  0  0  0  0  0  0  0  0  0
    9.6580    6.0280   12.1910 C   0  0  0  0  0  2  0  0  0  0  0  0
    9.6860    5.6510   10.7410 C   0  0  0  0  0  2  0  0  0  0  0  0
    9.8440    4.2470   10.5200 N   0  0  0  0  0  0  0  0  0  0  0  0
   10.9830    3.6990    9.8710 C   0  0  0  0  0  0  0  0  0  0  0  0
   11.8820    4.5020    9.4820 O   0  0  0  0  0  0  0  0  0  0  0  0
    9.1060    3.5920   10.8400 H   0  0  0  0  0  0  0  0  0  0  0  0
   11.1650    2.2890    9.6380 C   0  0  0  0  0  0  0  0  0  0  0  0
   10.2950    1.4650    9.1550 O   0  0  0  0  0  0  0  0  0  0  0  0
   10.7550    0.2530    9.0630 C   0  0  0  0  0  0  0  0  0  0  0  0
    9.8700   -1.3280    8.4160 Br  0  0  0  0  0  0  0  0  0  0  0  0
   12.0500    0.2750    9.5280 C   0  0  0  0  0  3  0  0  0  0  0  0
   12.3370    1.5700    9.9040 C   0  0  0  0  0  3  0  0  0  0  0  0
  1  3  1  0  0  0  0
  2  1  2  0  0  0  0
  3  4  1  0  0  0  0
  3 16  1  0  0  0  0
  4  5  1  0  0  0  0
  6  5  1  6  0  0  0
  6  7  1  0  0  0  0
  6 15  1  0  0  0  0
  7  8  1  0  0  0  0
  7 17  1  0  0  0  0
  9  8  1  0  0  0  0
 10  9  1  0  0  0  0
 11 10  1  0  0  0  0
 12 13  1  0  0  0  0
 12 11  2  0  0  0  0
 13 14  1  0  0  0  0
 14 10  2  0  0  0  0
 14  6  1  0  0  0  0
 16 15  1  0  0  0  0
 18 13  1  0  0  0  0
 19  1  1  0  0  0  0
 20 19  1  0  0  0  0
 21 20  1  0  0  0  0
 21 24  1  0  0  0  0
 22 21  1  0  0  0  0
 23 22  2  0  0  0  0
 25 22  1  0  0  0  0
 25 30  2  0  0  0  0
 26 25  1  0  0  0  0
 27 26  1  0  0  0  0
 27 29  2  0  0  0  0
 28 27  1  0  0  0  0
 29 30  1  0  0  0  0
M  END
>  <Pose>
1

>  <Score>
-9.017

$$$$
