/Users/jonathanwahrer/Desktop/Msc/3_Semester/Drug_Design_Praktikum/waehrer_HTS_screening/HTS_experiment/out/docking_results/vina_output/2jam/0746_docked.pdbqt
 OpenBabel03162217523D

 30 33  0  0  1  0  0  0  0  0999 V2000
   10.1100    6.0990   11.3070 C   0  0  0  0  0  0  0  0  0  0  0  0
    9.8240    6.3370   10.0820 O   0  0  0  0  0  0  0  0  0  0  0  0
    9.0420    6.0370   12.2080 N   0  0  0  0  0  0  0  0  0  0  0  0
    9.2190    5.7710   13.6210 C   0  0  0  0  0  2  0  0  0  0  0  0
    8.7250    6.9640   14.3800 C   0  0  0  0  0  2  0  0  0  0  0  0
    7.3390    7.3550   13.9770 C   0  0  1  0  0  0  0  0  0  0  0  0
    6.4990    7.3560   15.1610 N   0  0  0  0  0  0  0  0  0  0  0  0
    6.9740    8.4040   16.0450 C   0  0  0  0  0  2  0  0  0  0  0  0
    6.3690    9.7110   15.5190 C   0  0  0  0  0  2  0  0  0  0  0  0
    6.8190    9.8230   14.1110 C   0  0  0  0  0  0  0  0  0  0  0  0
    6.8780   10.9070   13.3140 N   0  0  0  0  0  0  0  0  0  0  0  0
    7.3550   10.5030   12.1260 C   0  0  0  0  0  3  0  0  0  0  0  0
    7.5860    9.1790   12.1960 N   0  0  0  0  0  0  0  0  0  0  0  0
    7.2640    8.7240   13.4180 C   0  0  0  0  0  0  0  0  0  0  0  0
    6.7830    6.3340   12.9850 C   0  0  0  0  0  2  0  0  0  0  0  0
    7.6660    6.2280   11.7850 C   0  0  0  0  0  2  0  0  0  0  0  0
    6.6000    6.4520   15.7020 H   0  0  0  0  0  0  0  0  0  0  0  0
    6.6160   11.9030   13.5250 H   0  0  0  0  0  0  0  0  0  0  0  0
   11.5410    5.9200   11.6090 C   0  0  2  0  0  3  0  0  0  0  0  0
   12.3860    7.1290   11.4300 C   0  0  0  0  0  1  0  0  0  0  0  0
   12.1260    4.8250   10.8630 N   0  0  0  0  0  0  0  0  0  0  0  0
   12.1330    3.4940   11.3190 C   0  0  0  0  0  0  0  0  0  0  0  0
   11.6160    3.2180   12.4210 O   0  0  0  0  0  0  0  0  0  0  0  0
   12.5590    5.0440    9.9430 H   0  0  0  0  0  0  0  0  0  0  0  0
   12.7370    2.4390   10.5210 C   0  0  0  0  0  0  0  0  0  0  0  0
   12.0750    1.6470    9.6760 O   0  0  0  0  0  0  0  0  0  0  0  0
   12.8920    0.7980    9.1080 C   0  0  0  0  0  0  0  0  0  0  0  0
   12.3980   -0.5410    7.8160 Br  0  0  0  0  0  0  0  0  0  0  0  0
   14.1760    1.0140    9.5830 C   0  0  0  0  0  3  0  0  0  0  0  0
   14.0580    2.0520   10.4720 C   0  0  0  0  0  3  0  0  0  0  0  0
  1 19  1  0  0  0  0
  1  3  1  0  0  0  0
  2  1  2  0  0  0  0
  3  4  1  0  0  0  0
  4  5  1  0  0  0  0
  6 15  1  6  0  0  0
  6  5  1  0  0  0  0
  6  7  1  0  0  0  0
  7 17  1  0  0  0  0
  7  8  1  0  0  0  0
  9  8  1  0  0  0  0
 10  9  1  0  0  0  0
 11 18  1  0  0  0  0
 11 10  1  0  0  0  0
 12 13  2  0  0  0  0
 12 11  1  0  0  0  0
 13 14  1  0  0  0  0
 14  6  1  0  0  0  0
 14 10  2  0  0  0  0
 16  3  1  0  0  0  0
 16 15  1  0  0  0  0
 19 20  1  6  0  0  0
 21 22  1  0  0  0  0
 21 19  1  0  0  0  0
 22 23  2  0  0  0  0
 24 21  1  0  0  0  0
 25 22  1  0  0  0  0
 26 25  1  0  0  0  0
 27 29  2  0  0  0  0
 27 26  1  0  0  0  0
 28 27  1  0  0  0  0
 29 30  1  0  0  0  0
 30 25  2  0  0  0  0
M  END
>  <Pose>
1

>  <Score>
-8.490

$$$$
