/Users/jonathanwahrer/Desktop/Msc/3_Semester/Drug_Design_Praktikum/waehrer_HTS_screening/HTS_experiment/out/docking_results/vina_output/2jam/0754_docked.pdbqt
 OpenBabel03162217523D

 27 30  0  0  0  0  0  0  0  0999 V2000
   13.9860    2.6510    9.8430 C   0  0  0  0  0  0  0  0  0  0  0  0
   13.9580    2.5410    8.6090 O   0  0  0  0  0  0  0  0  0  0  0  0
   12.8010    2.4580   10.5940 N   0  0  0  0  0  0  0  0  0  0  0  0
   11.5630    2.1320    9.9160 C   0  0  0  0  0  2  0  0  0  0  0  0
   10.4920    3.1680   10.1550 C   0  0  0  0  0  2  0  0  0  0  0  0
   10.7630    3.7490   11.4800 N   0  0  0  0  0  0  0  0  0  0  0  0
   11.2730    2.8550   12.4630 C   0  0  0  0  0  2  0  0  0  0  0  0
   12.7250    2.5660   12.0390 C   0  0  0  0  0  2  0  0  0  0  0  0
   10.4890    5.1290   11.6410 C   0  0  0  0  0  0  0  0  0  0  0  0
    9.2160    5.5910   11.7770 N   0  0  0  0  0  0  0  0  0  0  0  0
    8.9420    6.8960   11.9270 C   0  0  0  0  0  0  0  0  0  0  0  0
    9.9450    7.8010   11.9480 N   0  0  0  0  0  0  0  0  0  0  0  0
   11.2330    7.4370   11.8220 C   0  0  0  0  0  0  0  0  0  0  0  0
   11.4820    6.0650   11.6650 C   0  0  0  0  0  3  0  0  0  0  0  0
   12.3530    8.4160   11.8420 C   0  0  0  0  0  1  0  0  0  0  0  0
    7.5990    7.3270   12.0660 N   0  0  0  0  0  0  0  0  0  0  0  0
    7.2310    8.6050   12.6270 C   0  0  0  0  0  2  0  0  0  0  0  0
    6.3160    9.3340   11.6900 C   0  0  0  0  0  2  0  0  0  0  0  0
    5.8580    8.5370   10.6430 O   0  0  0  0  0  0  0  0  0  0  0  0
    5.3940    7.3140   11.1210 C   0  0  0  0  0  2  0  0  0  0  0  0
    6.5290    6.4570   11.6270 C   0  0  0  0  0  2  0  0  0  0  0  0
   15.2660    2.9810   10.4950 C   0  0  0  0  0  0  0  0  0  0  0  0
   15.5210    3.9450   11.3270 O   0  0  0  0  0  0  0  0  0  0  0  0
   16.7490    3.9440   11.7040 C   0  0  0  0  0  0  0  0  0  0  0  0
   17.6240    5.1620   12.9250 Br  0  0  0  0  0  0  0  0  0  0  0  0
   17.3890    2.9000   11.0840 C   0  0  0  0  0  3  0  0  0  0  0  0
   16.4380    2.2840   10.3110 C   0  0  0  0  0  3  0  0  0  0  0  0
  1 22  1  0  0  0  0
  1  3  1  0  0  0  0
  2  1  2  0  0  0  0
  3  8  1  0  0  0  0
  4  5  1  0  0  0  0
  4  3  1  0  0  0  0
  5  6  1  0  0  0  0
  6  9  1  0  0  0  0
  6  7  1  0  0  0  0
  8  7  1  0  0  0  0
  9 14  2  0  0  0  0
  9 10  1  0  0  0  0
 10 11  2  0  0  0  0
 11 12  1  0  0  0  0
 11 16  1  0  0  0  0
 13 15  1  0  0  0  0
 13 12  2  0  0  0  0
 14 13  1  0  0  0  0
 16 17  1  0  0  0  0
 18 17  1  0  0  0  0
 19 20  1  0  0  0  0
 19 18  1  0  0  0  0
 20 21  1  0  0  0  0
 21 16  1  0  0  0  0
 22 23  1  0  0  0  0
 23 24  1  0  0  0  0
 24 25  1  0  0  0  0
 26 24  2  0  0  0  0
 27 22  2  0  0  0  0
 27 26  1  0  0  0  0
M  END
>  <Pose>
1

>  <Score>
-7.875

$$$$
