/Users/jonathanwahrer/Desktop/Msc/3_Semester/Drug_Design_Praktikum/waehrer_HTS_screening/HTS_experiment/out/docking_results/vina_output/2jam/0755_docked.pdbqt
 OpenBabel03162217523D

 28 31  0  0  0  0  0  0  0  0999 V2000
   11.7640    4.6490   10.0250 C   0  0  0  0  0  0  0  0  0  0  0  0
   12.4200    5.1960    9.1250 O   0  0  0  0  0  0  0  0  0  0  0  0
   11.2110    5.4080   11.0900 N   0  0  0  0  0  0  0  0  0  0  0  0
   10.4410    4.7550   12.1460 C   0  0  0  0  0  2  0  0  0  0  0  0
    9.9070    5.8010   13.1230 C   0  0  0  0  0  2  0  0  0  0  0  0
    9.2630    6.8350   12.3370 N   0  0  0  0  0  0  0  0  0  0  0  0
   10.0330    7.5180   11.3340 C   0  0  0  0  0  2  0  0  0  0  0  0
   11.3740    6.8440   11.1880 C   0  0  0  0  0  2  0  0  0  0  0  0
    7.8880    7.1820   12.5430 C   0  0  0  0  0  0  0  0  0  0  0  0
    7.0850    7.5100   11.5210 N   0  0  0  0  0  0  0  0  0  0  0  0
    5.8050    7.8310   11.7440 C   0  0  0  0  0  0  0  0  0  0  0  0
    5.2820    7.8390   12.9860 N   0  0  0  0  0  0  0  0  0  0  0  0
    4.9240    8.1920   10.6060 C   0  0  0  0  0  1  0  0  0  0  0  0
    6.0330    7.5200   14.0550 C   0  0  0  0  0  0  0  0  0  0  0  0
    7.3490    7.1920   13.8040 C   0  0  0  0  0  3  0  0  0  0  0  0
    5.5290    7.5140   15.3780 N   0  0  0  0  0  0  0  0  0  0  0  0
    4.1040    7.6090   15.6200 C   0  0  0  0  0  2  0  0  0  0  0  0
    3.8710    7.2640   17.0760 C   0  0  0  0  0  2  0  0  0  0  0  0
    4.5610    8.2230   17.8940 N   0  0  0  0  0  0  0  0  0  0  0  0
    5.9160    8.4770   17.5160 C   0  0  0  0  0  2  0  0  0  0  0  0
    3.7530    9.4050   18.0580 C   0  0  0  0  0  1  0  0  0  0  0  0
    6.3850    7.4150   16.5450 C   0  0  0  0  0  2  0  0  0  0  0  0
   11.5540    3.1830    9.9920 C   0  0  0  0  0  0  0  0  0  0  0  0
   10.5000    2.5530    9.5360 O   0  0  0  0  0  0  0  0  0  0  0  0
   10.6130    1.2540    9.6430 C   0  0  0  0  0  0  0  0  0  0  0  0
    9.3080   -0.0320    9.1000 Br  0  0  0  0  0  0  0  0  0  0  0  0
   11.8380    0.9920   10.2170 C   0  0  0  0  0  3  0  0  0  0  0  0
   12.4220    2.2140   10.4320 C   0  0  0  0  0  3  0  0  0  0  0  0
  1  3  1  0  0  0  0
  2  1  2  0  0  0  0
  3  8  1  0  0  0  0
  3  4  1  0  0  0  0
  4  5  1  0  0  0  0
  6  9  1  0  0  0  0
  6  5  1  0  0  0  0
  7  6  1  0  0  0  0
  8  7  1  0  0  0  0
  9 15  2  0  0  0  0
 10 11  2  0  0  0  0
 10  9  1  0  0  0  0
 11 12  1  0  0  0  0
 12 14  2  0  0  0  0
 13 11  1  0  0  0  0
 14 16  1  0  0  0  0
 15 14  1  0  0  0  0
 16 17  1  0  0  0  0
 16 22  1  0  0  0  0
 17 18  1  0  0  0  0
 18 19  1  0  0  0  0
 19 21  1  0  0  0  0
 20 19  1  0  0  0  0
 22 20  1  0  0  0  0
 23  1  1  0  0  0  0
 23 28  2  0  0  0  0
 24 25  1  0  0  0  0
 24 23  1  0  0  0  0
 25 27  2  0  0  0  0
 26 25  1  0  0  0  0
 27 28  1  0  0  0  0
M  END
>  <Pose>
1

>  <Score>
-8.254

$$$$
