/Users/jonathanwahrer/Desktop/Msc/3_Semester/Drug_Design_Praktikum/waehrer_HTS_screening/HTS_experiment/out/docking_results/vina_output/2jam/0769_docked.pdbqt
 OpenBabel03162217523D

 26 29  0  0  0  0  0  0  0  0999 V2000
   10.0100    6.2670   12.5030 C   0  0  0  0  0  0  0  0  0  0  0  0
   10.4530    6.4230   13.7360 O   0  0  0  0  0  0  0  0  0  0  0  0
   10.7790    5.4490   11.6900 N   0  0  0  0  0  0  0  0  0  0  0  0
   12.0050    4.8280   12.2530 C   0  0  0  0  0  2  0  0  0  0  0  0
   11.9150    3.3310   12.0780 C   0  0  0  0  0  2  0  0  0  0  0  0
   11.7530    3.0220   10.7120 N   0  0  0  0  0  0  0  0  0  0  0  0
   11.6950    4.1870    9.8980 C   0  0  0  0  0  2  0  0  0  0  0  0
   10.5370    5.1140   10.3390 C   0  0  0  0  0  2  0  0  0  0  0  0
    8.7830    7.0050   12.2660 C   0  0  0  0  0  0  0  0  0  0  0  0
    8.6730    8.3610   12.4160 C   0  0  0  0  0  3  0  0  0  0  0  0
    7.4470    8.9830   12.1630 C   0  0  0  0  0  0  0  0  0  0  0  0
    7.2270   10.8450   12.3500 Br  0  0  0  0  0  0  0  0  0  0  0  0
    6.3820    8.2110   11.7690 C   0  0  0  0  0  0  0  0  0  0  0  0
    6.5210    6.9390   11.6370 O   0  0  0  0  0  0  0  0  0  0  0  0
    5.2580    8.7220   11.5280 O   0  0  0  0  0  0  0  0  0  0  0  0
    7.6360    6.3180   11.8600 C   0  0  0  0  0  3  0  0  0  0  0  0
   12.6290    2.0270   10.1810 C   0  0  0  0  0  2  0  0  0  0  0  0
   11.9920    1.0080    9.3260 C   0  0  0  0  0  0  0  0  0  0  0  0
   10.6770    0.6770    9.3640 C   0  0  0  0  0  3  0  0  0  0  0  0
   10.1760   -0.2900    8.5290 C   0  0  0  0  0  0  0  0  0  0  0  0
   11.0120   -0.9260    7.6510 C   0  0  0  0  0  0  0  0  0  0  0  0
    8.8990   -0.8410    8.3340 O   0  0  0  0  0  0  0  0  0  0  0  0
   12.3500   -0.6070    7.5950 C   0  0  0  0  0  3  0  0  0  0  0  0
   10.2940   -1.8550    6.9170 O   0  0  0  0  0  0  0  0  0  0  0  0
   12.8180    0.3530    8.4310 C   0  0  0  0  0  3  0  0  0  0  0  0
    9.0690   -2.0450    7.6120 C   0  0  0  0  0  2  0  0  0  0  0  0
  1  2  2  0  0  0  0
  3  4  1  0  0  0  0
  3  1  1  0  0  0  0
  5  4  1  0  0  0  0
  6  5  1  0  0  0  0
  7  8  1  0  0  0  0
  7  6  1  0  0  0  0
  8  3  1  0  0  0  0
  9 10  1  0  0  0  0
  9  1  1  0  0  0  0
 11 12  1  0  0  0  0
 11 10  2  0  0  0  0
 13 11  1  0  0  0  0
 14 13  1  0  0  0  0
 14 16  1  0  0  0  0
 15 13  2  0  0  0  0
 16  9  2  0  0  0  0
 17  6  1  0  0  0  0
 18 19  1  0  0  0  0
 18 17  1  0  0  0  0
 20 19  2  0  0  0  0
 21 20  1  0  0  0  0
 22 20  1  0  0  0  0
 23 21  2  0  0  0  0
 23 25  1  0  0  0  0
 24 26  1  0  0  0  0
 24 21  1  0  0  0  0
 25 18  2  0  0  0  0
 26 22  1  0  0  0  0
M  END
>  <Pose>
1

>  <Score>
-9.363

$$$$
