/Users/jonathanwahrer/Desktop/Msc/3_Semester/Drug_Design_Praktikum/waehrer_HTS_screening/HTS_experiment/out/docking_results/vina_output/2jam/0784_docked.pdbqt
 OpenBabel03162217543D

 39 42  0  0  1  0  0  0  0  0999 V2000
    5.3180    9.5800   16.0960 C   0  0  1  0  0  3  0  0  0  0  0  0
    5.1400    8.1290   15.6170 C   0  0  2  0  0  0  0  0  0  0  0  0
    5.7590    8.1260   14.2130 C   0  0  0  0  0  2  0  0  0  0  0  0
    5.1730    9.2260   13.3720 C   0  0  2  0  0  0  0  0  0  0  0  0
    4.1200    9.7970   14.0450 O   0  0  0  0  0  0  0  0  0  0  0  0
    4.4580   10.4200   15.2440 C   0  0  0  0  0  2  0  0  0  0  0  0
    4.5910    8.5520   12.1370 C   0  0  0  0  0  2  0  0  0  0  0  0
    5.6730    8.3620   11.1040 C   0  0  0  0  0  2  0  0  0  0  0  0
    6.9990    8.3770   11.7430 N   0  0  0  0  0  0  0  0  0  0  0  0
    7.4020    9.6380   12.2900 C   0  0  0  0  0  2  0  0  0  0  0  0
    6.1490   10.2500   12.9120 C   0  0  0  0  0  2  0  0  0  0  0  0
    7.7930    7.2350   11.8440 C   0  0  0  0  0  0  0  0  0  0  0  0
    7.3680    6.0910   11.4200 O   0  0  0  0  0  0  0  0  0  0  0  0
    3.6970    7.7350   15.5960 C   0  0  0  0  0  1  0  0  0  0  0  0
    5.8310    7.2340   16.4050 O   0  0  0  0  0  0  0  0  0  0  0  0
    6.5950    7.7000   16.8320 H   0  0  0  0  0  0  0  0  0  0  0  0
    5.2560    9.7050   17.4950 N   0  0  0  0  0  0  0  0  0  0  0  0
    4.2130    9.3760   18.2610 C   0  0  0  0  0  3  0  0  0  0  0  0
    4.2320    9.5300   19.6470 C   0  0  0  0  0  0  0  0  0  0  0  0
    2.6970    9.0320   20.6380 Br  0  0  0  0  0  0  0  0  0  0  0  0
    5.3540   10.0390   20.2620 C   0  0  0  0  0  0  0  0  0  0  0  0
    6.3970   10.3670   19.4780 N   0  0  0  0  0  0  0  0  0  0  0  0
    5.3980   10.1920   21.5260 O   0  0  0  0  0  0  0  0  0  0  0  0
    6.3500   10.2060   18.1450 C   0  0  0  0  0  0  0  0  0  0  0  0
    7.2790   10.7600   19.9010 H   0  0  0  0  0  0  0  0  0  0  0  0
    7.3610   10.5330   17.4670 O   0  0  0  0  0  0  0  0  0  0  0  0
    9.1290    7.2400   12.4210 C   0  0  1  0  0  3  0  0  0  0  0  0
    9.0910    6.8840   13.8190 N   0  0  0  0  0  0  0  0  0  0  0  0
    9.3970    7.6690   14.9240 C   0  0  0  0  0  0  0  0  0  0  0  0
    9.7850    8.8550   14.8880 O   0  0  0  0  0  0  0  0  0  0  0  0
    9.2750    7.1080   16.3290 C   0  0  0  0  0  1  0  0  0  0  0  0
    8.7870    5.8800   14.0080 H   0  0  0  0  0  0  0  0  0  0  0  0
   10.0790    6.2480   11.6790 C   0  0  0  0  0  2  0  0  0  0  0  0
   11.4110    6.8570   11.5150 C   0  0  0  0  0  0  0  0  0  0  0  0
   12.5380    6.3230   11.0710 N   0  0  0  0  0  0  0  0  0  0  0  0
   13.5540    7.2300   11.0730 C   0  0  0  0  0  3  0  0  0  0  0  0
   13.0290    8.3790   11.5410 N   0  0  0  0  0  0  0  0  0  0  0  0
   11.7240    8.1720   11.8160 C   0  0  0  0  0  3  0  0  0  0  0  0
   13.5860    9.2600   11.6550 H   0  0  0  0  0  0  0  0  0  0  0  0
  1  6  1  6  0  0  0
  1 17  1  0  0  0  0
  2 14  1  6  0  0  0
  2  1  1  0  0  0  0
  2 15  1  0  0  0  0
  3  2  1  0  0  0  0
  4  7  1  6  0  0  0
  4  5  1  0  0  0  0
  4  3  1  0  0  0  0
  5  6  1  0  0  0  0
  8  9  1  0  0  0  0
  8  7  1  0  0  0  0
  9 12  1  0  0  0  0
  9 10  1  0  0  0  0
 10 11  1  0  0  0  0
 11  4  1  0  0  0  0
 12 27  1  0  0  0  0
 13 12  2  0  0  0  0
 15 16  1  0  0  0  0
 17 24  1  0  0  0  0
 17 18  1  0  0  0  0
 18 19  2  0  0  0  0
 19 21  1  0  0  0  0
 19 20  1  0  0  0  0
 21 23  2  0  0  0  0
 22 25  1  0  0  0  0
 22 21  1  0  0  0  0
 24 22  1  0  0  0  0
 26 24  2  0  0  0  0
 27 33  1  6  0  0  0
 27 28  1  0  0  0  0
 28 32  1  0  0  0  0
 28 29  1  0  0  0  0
 29 31  1  0  0  0  0
 30 29  2  0  0  0  0
 34 33  1  0  0  0  0
 34 38  2  0  0  0  0
 35 36  2  0  0  0  0
 35 34  1  0  0  0  0
 36 37  1  0  0  0  0
 37 39  1  0  0  0  0
 37 38  1  0  0  0  0
M  END
>  <Pose>
1

>  <Score>
-8.273

$$$$
