/Users/jonathanwahrer/Desktop/Msc/3_Semester/Drug_Design_Praktikum/waehrer_HTS_screening/HTS_experiment/out/docking_results/vina_output/2jam/0786_docked.pdbqt
 OpenBabel03162217543D

 25 28  0  0  1  0  0  0  0  0999 V2000
   10.2610    5.9220   12.5140 N   0  0  0  0  0  0  0  0  0  0  0  0
    9.8240    7.1460   13.0450 C   0  0  0  0  0  0  0  0  0  0  0  0
   10.2450    8.2200   12.5680 O   0  0  0  0  0  0  0  0  0  0  0  0
    9.9040    5.0360   12.9180 H   0  0  0  0  0  0  0  0  0  0  0  0
   11.1990    5.9150   11.4140 C   0  0  0  0  0  2  0  0  0  0  0  0
   11.3470    4.5520   10.8430 C   0  0  0  0  0  0  0  0  0  0  0  0
   12.4890    3.9110   10.5310 N   0  0  0  0  0  0  0  0  0  0  0  0
   12.1990    2.6950   10.0360 C   0  0  0  0  0  0  0  0  0  0  0  0
   10.8610    2.5470   10.0280 N   0  0  0  0  0  0  0  0  0  0  0  0
   13.0260    1.6730    9.5790 C   0  0  0  0  0  3  0  0  0  0  0  0
   10.3360    1.3780    9.5620 C   0  0  0  0  0  3  0  0  0  0  0  0
   10.3280    3.6800   10.5200 C   0  0  0  0  0  3  0  0  0  0  0  0
   11.1270    0.3480    9.1030 C   0  0  0  0  0  0  0  0  0  0  0  0
   10.3850   -1.2920    8.4520 Br  0  0  0  0  0  0  0  0  0  0  0  0
   12.4980    0.4960    9.1100 C   0  0  0  0  0  3  0  0  0  0  0  0
    8.8660    7.1770   14.1660 C   0  0  1  0  0  3  0  0  0  0  0  0
    8.0550    8.4470   14.1330 C   0  0  0  0  0  2  0  0  0  0  0  0
    7.3390    8.4600   12.8720 N   0  0  0  0  0  0  0  0  0  0  0  0
    6.8650    7.3140   12.3560 C   0  0  0  0  0  0  0  0  0  0  0  0
    7.0130    9.4390   12.0280 C   0  0  0  0  0  0  0  0  0  0  0  0
    6.2550    7.6320   11.1950 N   0  0  0  0  0  0  0  0  0  0  0  0
    7.0100    5.9900   12.9800 C   0  0  0  0  0  2  0  0  0  0  0  0
    6.3430    8.9130   10.9950 N   0  0  0  0  0  0  0  0  0  0  0  0
    7.9810    5.9590   14.1060 C   0  0  0  0  0  2  0  0  0  0  0  0
    7.3070   10.9020   12.1380 C   0  0  0  0  0  1  0  0  0  0  0  0
  1  4  1  0  0  0  0
  1  2  1  0  0  0  0
  3  2  2  0  0  0  0
  5  1  1  0  0  0  0
  6  5  1  0  0  0  0
  7  6  1  0  0  0  0
  8  7  2  0  0  0  0
  9  8  1  0  0  0  0
  9 12  1  0  0  0  0
 10  8  1  0  0  0  0
 11  9  1  0  0  0  0
 12  6  2  0  0  0  0
 13 15  1  0  0  0  0
 13 11  2  0  0  0  0
 14 13  1  0  0  0  0
 15 10  2  0  0  0  0
 16  2  1  6  0  0  0
 17 16  1  0  0  0  0
 18 17  1  0  0  0  0
 19 18  1  0  0  0  0
 19 22  1  0  0  0  0
 20 25  1  0  0  0  0
 20 18  1  0  0  0  0
 21 19  2  0  0  0  0
 22 24  1  0  0  0  0
 23 21  1  0  0  0  0
 23 20  2  0  0  0  0
 24 16  1  0  0  0  0
M  END
>  <Pose>
1

>  <Score>
-8.350

$$$$
