/Users/jonathanwahrer/Desktop/Msc/3_Semester/Drug_Design_Praktikum/waehrer_HTS_screening/HTS_experiment/out/docking_results/vina_output/2jam/0800_docked.pdbqt
 OpenBabel03162217553D

 29 32  0  0  1  0  0  0  0  0999 V2000
    8.4240    7.5570   11.8540 C   0  0  0  0  0  0  0  0  0  0  0  0
    8.2920    8.6280   11.2070 O   0  0  0  0  0  0  0  0  0  0  0  0
    9.6780    7.2200   12.3040 O   0  0  0  0  0  0  0  0  0  0  0  0
    9.9480    6.0200   13.0040 C   0  0  0  0  0  2  0  0  0  0  0  0
   10.7590    5.1330   12.1330 C   0  0  0  0  0  0  0  0  0  0  0  0
   12.0750    4.9520   12.3400 N   0  0  0  0  0  0  0  0  0  0  0  0
   12.8240    4.1450   11.5510 C   0  0  1  0  0  3  0  0  0  0  0  0
   12.2700    3.4840   10.5140 N   0  0  0  0  0  0  0  0  0  0  0  0
   14.1730    3.9940   11.8060 C   0  0  0  0  0  3  0  0  0  0  0  0
   12.9950    2.6780    9.7200 C   0  0  0  0  0  3  0  0  0  0  0  0
   10.9500    3.6330   10.2660 C   0  0  0  0  0  0  0  0  0  0  0  0
   14.3410    2.5240    9.9690 C   0  0  0  0  0  0  0  0  0  0  0  0
   15.3680    1.3780    8.8370 Br  0  0  0  0  0  0  0  0  0  0  0  0
   14.9600    3.1810   11.0220 C   0  0  0  0  0  3  0  0  0  0  0  0
   10.1760    4.4660   11.0810 C   0  0  0  0  0  2  0  0  0  0  0  0
   10.4330    3.0270    9.3140 O   0  0  0  0  0  0  0  0  0  0  0  0
    7.2020    6.7420   12.0780 C   0  0  0  0  0  2  0  0  0  0  0  0
    6.0580    7.5430   12.3980 N   0  0  0  0  0  0  0  0  0  0  0  0
    5.0960    8.0560   11.4780 C   0  0  0  0  0  0  0  0  0  0  0  0
    5.1180    7.8710   10.2270 O   0  0  0  0  0  0  0  0  0  0  0  0
    4.1300    8.7950   12.2160 N   0  0  0  0  0  0  0  0  0  0  0  0
    4.5630    8.8890   13.5870 C   0  0  0  0  0  0  0  0  0  0  0  0
    3.2660    9.1880   11.8030 H   0  0  0  0  0  0  0  0  0  0  0  0
    5.0160   10.2740   13.9650 C   0  0  0  0  0  2  0  0  0  0  0  0
    3.4890    8.6040   14.5800 C   0  0  0  0  0  2  0  0  0  0  0  0
    5.6890    7.9650   13.7130 C   0  0  0  0  0  0  0  0  0  0  0  0
    4.9410   10.2640   15.4600 C   0  0  0  0  0  2  0  0  0  0  0  0
    4.1140    9.0820   15.8730 C   0  0  0  0  0  2  0  0  0  0  0  0
    6.2670    7.5770   14.7550 O   0  0  0  0  0  0  0  0  0  0  0  0
  1 17  1  0  0  0  0
  1  3  1  0  0  0  0
  2  1  2  0  0  0  0
  3  4  1  0  0  0  0
  5  6  2  0  0  0  0
  5  4  1  0  0  0  0
  7  9  1  6  0  0  0
  7  6  1  0  0  0  0
  8  7  1  0  0  0  0
 10 12  2  0  0  0  0
 10  8  1  0  0  0  0
 11  8  1  0  0  0  0
 11 15  1  0  0  0  0
 12 14  1  0  0  0  0
 13 12  1  0  0  0  0
 14  9  2  0  0  0  0
 15  5  1  0  0  0  0
 16 11  2  0  0  0  0
 17 18  1  0  0  0  0
 18 26  1  0  0  0  0
 19 21  1  0  0  0  0
 19 18  1  0  0  0  0
 20 19  2  0  0  0  0
 21 22  1  0  0  0  0
 22 26  1  0  0  0  0
 22 24  1  0  0  0  0
 22 25  1  0  0  0  0
 23 21  1  0  0  0  0
 24 27  1  0  0  0  0
 25 28  1  0  0  0  0
 26 29  2  0  0  0  0
 27 28  1  0  0  0  0
M  END
>  <Pose>
1

>  <Score>
-9.047

$$$$
