/Users/jonathanwahrer/Desktop/Msc/3_Semester/Drug_Design_Praktikum/waehrer_HTS_screening/HTS_experiment/out/docking_results/vina_output/2jam/0803_docked.pdbqt
 OpenBabel03162217553D

 31 34  0  0  0  0  0  0  0  0999 V2000
   13.8200    6.3550   12.2400 Br  0  0  0  0  0  0  0  0  0  0  0  0
   12.6720    5.0110   11.5430 C   0  0  0  0  0  0  0  0  0  0  0  0
   13.0920    4.0300   10.7150 C   0  0  0  0  0  2  0  0  0  0  0  0
   12.3090    3.0330   10.2910 N   0  0  0  0  0  0  0  0  0  0  0  0
   11.0440    3.0010   10.7070 C   0  0  0  0  0  0  0  0  0  0  0  0
   10.2250    1.9980   10.2810 N   0  0  0  0  0  0  0  0  0  0  0  0
   10.6240    1.0360    9.4620 C   0  0  0  0  0  0  0  0  0  0  0  0
   11.9270    1.0460    9.0190 C   0  0  0  0  0  0  0  0  0  0  0  0
   12.4010    0.0750    8.1590 C   0  0  0  0  0  3  0  0  0  0  0  0
   11.5930   -0.9640    7.6930 C   0  0  0  0  0  3  0  0  0  0  0  0
   10.2910   -0.9640    8.1430 C   0  0  0  0  0  3  0  0  0  0  0  0
    9.8120    0.0070    9.0050 C   0  0  0  0  0  3  0  0  0  0  0  0
   12.7460    2.0760    9.4650 C   0  0  0  0  0  0  0  0  0  0  0  0
   13.9330    2.0970    9.0690 O   0  0  0  0  0  0  0  0  0  0  0  0
   10.5980    3.9740   11.5360 N   0  0  0  0  0  0  0  0  0  0  0  0
   11.3100    4.9930   11.9960 C   0  0  0  0  0  0  0  0  0  0  0  0
    9.5680    3.8330   11.7940 H   0  0  0  0  0  0  0  0  0  0  0  0
   10.9060    6.0560   12.7400 N   0  0  0  0  0  0  0  0  0  0  0  0
   11.5290    6.9390   11.9030 H   0  0  0  0  0  0  0  0  0  0  0  0
   10.5080    7.1040   13.4730 C   0  0  0  0  0  0  0  0  0  0  0  0
    9.6470    8.0530   12.9070 C   0  0  0  0  0  0  0  0  0  0  0  0
    9.4150    9.2360   13.5290 C   0  0  0  0  0  3  0  0  0  0  0  0
   10.0180    9.5220   14.7300 C   0  0  0  0  0  3  0  0  0  0  0  0
   10.8690    8.6290   15.3410 C   0  0  0  0  0  3  0  0  0  0  0  0
   11.0900    7.4380   14.6900 C   0  0  0  0  0  3  0  0  0  0  0  0
    8.8500    7.7590   11.7100 C   0  0  0  0  0  0  0  0  0  0  0  0
    9.4210    7.8450   10.5940 O   0  0  0  0  0  0  0  0  0  0  0  0
    7.5320    7.4030   11.7030 O   0  0  0  0  0  0  0  0  0  0  0  0
    7.0530    6.2200   12.3120 C   0  0  0  0  0  2  0  0  0  0  0  0
    6.5400    6.5210   13.7230 C   0  0  0  0  0  2  0  0  0  0  0  0
    7.3040    5.6670   14.7070 C   0  0  0  0  0  1  0  0  0  0  0  0
  2 16  2  0  0  0  0
  2  1  1  0  0  0  0
  3  2  1  0  0  0  0
  4  5  1  0  0  0  0
  4  3  1  0  0  0  0
  5 15  1  0  0  0  0
  6  5  2  0  0  0  0
  7  6  1  0  0  0  0
  8  7  1  0  0  0  0
  8 13  1  0  0  0  0
  9  8  2  0  0  0  0
 10 11  2  0  0  0  0
 10  9  1  0  0  0  0
 11 12  1  0  0  0  0
 12  7  2  0  0  0  0
 13  4  1  0  0  0  0
 14 13  2  0  0  0  0
 15 17  1  0  0  0  0
 15 16  1  0  0  0  0
 16 18  1  0  0  0  0
 18 20  1  0  0  0  0
 19 18  1  0  0  0  0
 20 25  1  0  0  0  0
 21 20  2  0  0  0  0
 21 22  1  0  0  0  0
 22 23  2  0  0  0  0
 23 24  1  0  0  0  0
 25 24  2  0  0  0  0
 26 21  1  0  0  0  0
 27 26  2  0  0  0  0
 28 26  1  0  0  0  0
 28 29  1  0  0  0  0
 29 30  1  0  0  0  0
 30 31  1  0  0  0  0
M  END
>  <Pose>
1

>  <Score>
-8.569

$$$$
