/Users/jonathanwahrer/Desktop/Msc/3_Semester/Drug_Design_Praktikum/waehrer_HTS_screening/HTS_experiment/out/docking_results/vina_output/2jam/0814_docked.pdbqt
 OpenBabel03162217553D

 31 34  0  0  1  0  0  0  0  0999 V2000
   13.1790    2.7310   11.2470 N   0  0  0  0  0  0  0  0  0  0  0  0
   11.9830    3.1020   11.6460 N   0  0  0  0  0  0  0  0  0  0  0  0
   11.9970    4.3800   12.0520 C   0  0  0  0  0  0  0  0  0  0  0  0
   13.2540    4.8240   11.9010 N   0  0  0  0  0  0  0  0  0  0  0  0
   13.9860    3.7860   11.3980 C   0  0  2  0  0  3  0  0  0  0  0  0
   15.4110    3.8160   11.0740 C   0  0  0  0  0  2  0  0  0  0  0  0
   16.2790    4.1720   12.2580 C   0  0  0  0  0  2  0  0  0  0  0  0
   16.1570    5.6340   12.6290 C   0  0  0  0  0  2  0  0  0  0  0  0
   14.8390    5.9770   13.2520 C   0  0  0  0  0  2  0  0  0  0  0  0
   13.7390    6.1530   12.2150 C   0  0  0  0  0  2  0  0  0  0  0  0
   10.8740    5.1740   12.5690 C   0  0  0  0  0  2  0  0  0  0  0  0
   10.3250    6.0550   11.5850 N   0  0  0  0  0  0  0  0  0  0  0  0
   10.8430    6.2470   10.7150 H   0  0  0  0  0  0  0  0  0  0  0  0
    9.0660    6.7040   11.7410 C   0  0  0  0  0  0  0  0  0  0  0  0
    8.9470    8.0740   11.7940 C   0  0  0  0  0  3  0  0  0  0  0  0
    7.7300    8.6880   11.9390 C   0  0  0  0  0  3  0  0  0  0  0  0
    6.6040    7.9320   12.0350 C   0  0  0  0  0  0  0  0  0  0  0  0
    6.7190    6.5600   11.9830 C   0  0  0  0  0  3  0  0  0  0  0  0
    7.9380    5.9320   11.8360 C   0  0  0  0  0  3  0  0  0  0  0  0
    5.3700    8.5200   12.1830 O   0  0  0  0  0  0  0  0  0  0  0  0
    5.0770    9.4350   13.2090 C   0  0  0  0  0  1  0  0  0  0  0  0
   13.5560    1.4430   10.7460 C   0  0  0  0  0  2  0  0  0  0  0  0
   13.2300    1.2940    9.3020 C   0  0  0  0  0  0  0  0  0  0  0  0
   13.9400    1.9270    8.4770 O   0  0  0  0  0  0  0  0  0  0  0  0
   12.1490    0.4630    8.8180 C   0  0  0  0  0  0  0  0  0  0  0  0
   12.2960   -0.3640    7.7290 C   0  0  0  0  0  3  0  0  0  0  0  0
   11.2470   -1.1570    7.2740 C   0  0  0  0  0  3  0  0  0  0  0  0
   10.0230   -1.1260    7.9190 C   0  0  0  0  0  0  0  0  0  0  0  0
    8.5780   -2.2260    7.2830 Br  0  0  0  0  0  0  0  0  0  0  0  0
    9.8660   -0.3030    9.0090 C   0  0  0  0  0  3  0  0  0  0  0  0
   10.9180    0.4690    9.4360 C   0  0  0  0  0  3  0  0  0  0  0  0
  1  5  1  0  0  0  0
  1  2  1  0  0  0  0
  2  3  2  0  0  0  0
  3 11  1  0  0  0  0
  4  3  1  0  0  0  0
  4 10  1  0  0  0  0
  5  6  1  6  0  0  0
  5  4  1  0  0  0  0
  6  7  1  0  0  0  0
  7  8  1  0  0  0  0
  8  9  1  0  0  0  0
 10  9  1  0  0  0  0
 12 14  1  0  0  0  0
 12 11  1  0  0  0  0
 13 12  1  0  0  0  0
 14 15  2  0  0  0  0
 14 19  1  0  0  0  0
 15 16  1  0  0  0  0
 16 17  2  0  0  0  0
 17 20  1  0  0  0  0
 18 17  1  0  0  0  0
 19 18  2  0  0  0  0
 20 21  1  0  0  0  0
 22  1  1  0  0  0  0
 23 22  1  0  0  0  0
 24 23  2  0  0  0  0
 25 23  1  0  0  0  0
 25 31  1  0  0  0  0
 26 25  2  0  0  0  0
 27 26  1  0  0  0  0
 27 28  2  0  0  0  0
 28 30  1  0  0  0  0
 29 28  1  0  0  0  0
 30 31  2  0  0  0  0
M  END
>  <Pose>
1

>  <Score>
-8.991

$$$$
