/Users/jonathanwahrer/Desktop/Msc/3_Semester/Drug_Design_Praktikum/waehrer_HTS_screening/HTS_experiment/out/docking_results/vina_output/2jam/0827_docked.pdbqt
 OpenBabel03162217553D

 29 32  0  0  1  0  0  0  0  0999 V2000
   17.9070    5.6000   10.8370 C   0  0  2  0  0  0  0  0  0  0  0  0
   17.7530    4.1570   11.0030 N   0  0  0  0  0  4  0  0  0  0  0  0
   18.6640    3.6960   11.9220 C   0  0  0  0  0  0  0  0  0  0  0  0
   19.0930    2.4780   12.1410 C   0  0  0  0  0  3  0  0  0  0  0  0
   20.0600    1.8700   13.1000 C   0  0  0  0  0  2  0  0  0  0  0  0
   20.8380    2.8670   13.9010 C   0  0  0  0  0  2  0  0  0  0  0  0
   19.9290    3.7870   14.6800 C   0  0  0  0  0  2  0  0  0  0  0  0
   19.7150    5.0760   13.9110 C   0  0  0  0  0  2  0  0  0  0  0  0
   19.2180    4.8520   12.5920 N   0  0  0  0  0  0  0  0  0  0  0  0
   19.2320    5.9330   11.5960 C   0  0  0  0  0  2  0  0  0  0  0  0
   18.2470    3.8300   10.0300 H   0  0  0  0  0  0  0  0  0  0  0  0
   16.4860    3.6610   10.8390 C   0  0  0  0  0  0  0  0  0  0  0  0
   15.4790    3.7370   11.7530 C   0  0  0  0  0  3  0  0  0  0  0  0
   14.2560    3.0600   11.6020 C   0  0  0  0  0  3  0  0  0  0  0  0
   14.0200    2.2780   10.5020 C   0  0  0  0  0  0  0  0  0  0  0  0
   15.0400    2.1980    9.5660 C   0  0  0  0  0  3  0  0  0  0  0  0
   16.2380    2.8620    9.7190 C   0  0  0  0  0  3  0  0  0  0  0  0
   12.8260    1.5940   10.3410 O   0  0  0  0  0  0  0  0  0  0  0  0
   12.5130    0.7510    9.2610 C   0  0  0  0  0  2  0  0  0  0  0  0
   10.9830    0.8310    9.1040 C   0  0  0  0  0  1  0  0  0  0  0  0
   16.8880    6.3350   11.6390 C   0  0  0  0  0  0  0  0  0  0  0  0
   16.8670    6.3100   13.0140 C   0  0  0  0  0  3  0  0  0  0  0  0
   15.9100    7.0120   13.7150 C   0  0  0  0  0  3  0  0  0  0  0  0
   14.9550    7.7530   13.0440 C   0  0  0  0  0  0  0  0  0  0  0  0
   13.6460    8.6980   14.0330 Br  0  0  0  0  0  0  0  0  0  0  0  0
   14.9640    7.7870   11.6730 C   0  0  0  0  0  3  0  0  0  0  0  0
   15.9460    7.0670   10.9800 C   0  0  0  0  0  3  0  0  0  0  0  0
   18.0700    5.9800    9.5610 O   0  0  0  0  0  0  0  0  0  0  0  0
   17.5770    6.7310    9.2000 H   0  0  0  0  0  0  0  0  0  0  0  0
  1 28  1  6  0  0  0
  1  2  1  0  0  0  0
  1 10  1  0  0  0  0
  1 21  1  0  0  0  0
  2  3  1  0  0  0  0
  3  4  2  0  0  0  0
  3  9  1  0  0  0  0
  4  5  1  0  0  0  0
  5  6  1  0  0  0  0
  6  7  1  0  0  0  0
  8  7  1  0  0  0  0
  9  8  1  0  0  0  0
 10  9  1  0  0  0  0
 11  2  1  0  0  0  0
 12  2  1  0  0  0  0
 12 13  1  0  0  0  0
 14 13  2  0  0  0  0
 15 14  1  0  0  0  0
 16 17  1  0  0  0  0
 16 15  2  0  0  0  0
 17 12  2  0  0  0  0
 18 15  1  0  0  0  0
 19 18  1  0  0  0  0
 20 19  1  0  0  0  0
 21 22  1  0  0  0  0
 22 23  2  0  0  0  0
 24 23  1  0  0  0  0
 24 25  1  0  0  0  0
 26 24  2  0  0  0  0
 27 21  2  0  0  0  0
 27 26  1  0  0  0  0
 29 28  1  0  0  0  0
M  END
>  <Pose>
1

>  <Score>
-7.201

$$$$
