/Users/jonathanwahrer/Desktop/Msc/3_Semester/Drug_Design_Praktikum/waehrer_HTS_screening/HTS_experiment/out/docking_results/vina_output/2jam/0833_docked.pdbqt
 OpenBabel03162217563D

 28 31  0  0  1  0  0  0  0  0999 V2000
   13.2260    3.5320   11.9520 C   0  0  1  0  0  0  0  0  0  0  0  0
   12.4780    4.1370   10.8580 N   0  0  0  0  0  0  0  0  0  0  0  0
   12.8020    5.4530   10.3180 C   0  0  0  0  0  2  0  0  0  0  0  0
   11.7430    6.0000    9.4340 C   0  0  0  0  0  2  0  0  0  0  0  0
   10.3650    5.9850   10.0420 C   0  0  0  0  0  2  0  0  0  0  0  0
    9.6920    4.7280    9.5230 C   0  0  0  0  0  2  0  0  0  0  0  0
   10.2830    3.4890    9.9340 C   0  0  0  0  0  3  0  0  0  0  0  0
   11.4800    3.2310   10.5090 C   0  0  0  0  0  0  0  0  0  0  0  0
   11.8620    1.9110   10.8170 N   0  0  0  0  0  4  0  0  0  0  0  0
   13.0240    2.0910   11.6380 C   0  0  0  0  0  2  0  0  0  0  0  0
   11.1500    1.3690   11.3590 H   0  0  0  0  0  0  0  0  0  0  0  0
   14.6390    3.9590   11.9130 C   0  0  0  0  0  0  0  0  0  0  0  0
   15.4840    3.3650   10.9710 C   0  0  0  0  0  3  0  0  0  0  0  0
   16.8220    3.7610   10.9820 C   0  0  0  0  0  3  0  0  0  0  0  0
   17.2720    4.6930   11.8880 C   0  0  0  0  0  0  0  0  0  0  0  0
   19.1160    5.2080   11.8680 Br  0  0  0  0  0  0  0  0  0  0  0  0
   16.4050    5.2610   12.8060 C   0  0  0  0  0  3  0  0  0  0  0  0
   15.0730    4.8820   12.8110 C   0  0  0  0  0  3  0  0  0  0  0  0
   12.6420    3.9410   13.1230 O   0  0  0  0  0  0  0  0  0  0  0  0
   12.8840    3.4000   13.9040 H   0  0  0  0  0  0  0  0  0  0  0  0
   12.1670    1.2850    9.5700 C   0  0  0  0  0  0  0  0  0  0  0  0
   11.2780    0.4000    8.9850 C   0  0  0  0  0  0  0  0  0  0  0  0
   11.7020   -0.2130    7.8130 C   0  0  0  0  0  3  0  0  0  0  0  0
   12.9310    0.0100    7.2200 C   0  0  0  0  0  3  0  0  0  0  0  0
   13.8030    0.9210    7.8530 C   0  0  0  0  0  3  0  0  0  0  0  0
   13.3790    1.5100    8.9890 C   0  0  0  0  0  3  0  0  0  0  0  0
   10.0640    0.1740    9.5570 O   0  0  0  0  0  0  0  0  0  0  0  0
    9.0260   -0.4620    8.8580 C   0  0  0  0  0  1  0  0  0  0  0  0
  1 19  1  1  0  0  0
  2  1  1  0  0  0  0
  3  2  1  0  0  0  0
  4  5  1  0  0  0  0
  4  3  1  0  0  0  0
  6  7  1  0  0  0  0
  6  5  1  0  0  0  0
  7  8  2  0  0  0  0
  8  9  1  0  0  0  0
  8  2  1  0  0  0  0
  9 11  1  0  0  0  0
  9 10  1  0  0  0  0
 10  1  1  0  0  0  0
 12  1  1  0  0  0  0
 12 18  1  0  0  0  0
 13 14  1  0  0  0  0
 13 12  2  0  0  0  0
 14 15  2  0  0  0  0
 15 17  1  0  0  0  0
 16 15  1  0  0  0  0
 17 18  2  0  0  0  0
 19 20  1  0  0  0  0
 21  9  1  0  0  0  0
 22 27  1  0  0  0  0
 22 21  2  0  0  0  0
 23 22  1  0  0  0  0
 24 23  2  0  0  0  0
 24 25  1  0  0  0  0
 25 26  2  0  0  0  0
 26 21  1  0  0  0  0
 28 27  1  0  0  0  0
M  END
>  <Pose>
1

>  <Score>
-7.365

$$$$
