/Users/jonathanwahrer/Desktop/Msc/3_Semester/Drug_Design_Praktikum/waehrer_HTS_screening/HTS_experiment/out/docking_results/vina_output/2jam/0847_docked.pdbqt
 OpenBabel03162217563D

 31 34  0  0  1  0  0  0  0  0999 V2000
   12.6360    2.6860   11.3420 C   0  0  0  0  0  0  0  0  0  0  0  0
   12.8010    1.8010   10.3460 N   0  0  0  0  0  0  0  0  0  0  0  0
   14.0900    1.8410    9.9620 C   0  0  1  0  0  3  0  0  0  0  0  0
   14.7380    2.7730   10.7380 N   0  0  0  0  0  0  0  0  0  0  0  0
   13.8250    3.2610   11.5590 N   0  0  0  0  0  0  0  0  0  0  0  0
   14.8460    1.1090    8.9420 C   0  0  0  0  0  2  0  0  0  0  0  0
   14.0640    0.7500    7.7070 C   0  0  0  0  0  2  0  0  0  0  0  0
   12.8990   -0.1460    7.9730 C   0  0  0  0  0  2  0  0  0  0  0  0
   11.7410    0.7380    8.3750 C   0  0  0  0  0  2  0  0  0  0  0  0
   11.7240    1.0020    9.8610 C   0  0  0  0  0  2  0  0  0  0  0  0
   16.1010    3.1300   10.7380 C   0  0  0  0  0  3  0  0  0  0  0  0
   16.4880    4.3660   11.3660 C   0  0  0  0  0  0  0  0  0  0  0  0
   17.7960    4.6050   11.2590 O   0  0  0  0  0  1  0  0  0  0  0  0
   15.7860    5.3970   12.0770 C   0  0  0  0  0  0  0  0  0  0  0  0
   15.1510    6.4450   11.3780 C   0  0  0  0  0  3  0  0  0  0  0  0
   14.4730    7.4560   12.0060 C   0  0  0  0  0  3  0  0  0  0  0  0
   14.3800    7.4960   13.3750 C   0  0  0  0  0  0  0  0  0  0  0  0
   14.9820    6.4990   14.0910 C   0  0  0  0  0  3  0  0  0  0  0  0
   15.6750    5.4660   13.4320 C   0  0  0  0  0  3  0  0  0  0  0  0
   13.6900    8.5250   14.0130 O   0  0  0  0  0  0  0  0  0  0  0  0
   12.2850    8.5700   14.0710 C   0  0  0  0  0  1  0  0  0  0  0  0
   11.4040    3.0370   12.1200 C   0  0  0  0  0  2  0  0  0  0  0  0
   11.5250    4.3010   12.8160 N   0  0  0  0  0  0  0  0  0  0  0  0
   12.2650    4.4490   13.5370 H   0  0  0  0  0  0  0  0  0  0  0  0
   10.6530    5.4100   12.5660 C   0  0  0  0  0  0  0  0  0  0  0  0
   10.8740    6.2430   11.4900 C   0  0  0  0  0  3  0  0  0  0  0  0
   10.0360    7.2990   11.2520 C   0  0  0  0  0  3  0  0  0  0  0  0
    8.9550    7.5380   12.0960 C   0  0  0  0  0  0  0  0  0  0  0  0
    7.7900    9.0030   11.7650 Br  0  0  0  0  0  0  0  0  0  0  0  0
    8.7160    6.7140   13.1800 C   0  0  0  0  0  3  0  0  0  0  0  0
    9.5780    5.6620   13.3910 C   0  0  0  0  0  3  0  0  0  0  0  0
  1  5  2  0  0  0  0
  1 22  1  0  0  0  0
  2  1  1  0  0  0  0
  3  6  1  1  0  0  0
  3  2  1  0  0  0  0
  3  4  1  0  0  0  0
  4  5  1  0  0  0  0
  7  8  1  0  0  0  0
  7  6  1  0  0  0  0
  8  9  1  0  0  0  0
  9 10  1  0  0  0  0
 10  2  1  0  0  0  0
 11  4  1  0  0  0  0
 11 12  2  0  0  0  0
 12 14  1  0  0  0  0
 13 12  1  0  0  0  0
 14 19  1  0  0  0  0
 15 16  1  0  0  0  0
 15 14  2  0  0  0  0
 16 17  2  0  0  0  0
 17 20  1  0  0  0  0
 17 18  1  0  0  0  0
 19 18  2  0  0  0  0
 20 21  1  0  0  0  0
 22 23  1  0  0  0  0
 23 24  1  0  0  0  0
 25 23  1  0  0  0  0
 25 31  1  0  0  0  0
 26 25  2  0  0  0  0
 27 26  1  0  0  0  0
 27 28  2  0  0  0  0
 28 30  1  0  0  0  0
 29 28  1  0  0  0  0
 30 31  2  0  0  0  0
M  END
>  <Pose>
1

>  <Score>
-8.097

$$$$
