/Users/jonathanwahrer/Desktop/Msc/3_Semester/Drug_Design_Praktikum/waehrer_HTS_screening/HTS_experiment/out/docking_results/vina_output/2jam/0850_docked.pdbqt
 OpenBabel03162217573D

 29 32  0  0  1  0  0  0  0  0999 V2000
   12.8140    2.5210    9.8800 N   0  0  0  0  0  4  0  0  0  0  0  0
   13.5820    2.2000   11.0460 C   0  0  1  0  0  0  0  0  0  0  0  0
   12.5100    2.3740   12.1210 C   0  0  0  0  0  2  0  0  0  0  0  0
   11.7710    3.5590   11.6590 N   0  0  0  0  0  0  0  0  0  0  0  0
   10.9540    4.3040   12.5500 C   0  0  0  0  0  2  0  0  0  0  0  0
   10.3100    5.5190   11.9540 C   0  0  0  0  0  2  0  0  0  0  0  0
   11.3510    6.3340   11.2360 C   0  0  0  0  0  2  0  0  0  0  0  0
   11.1810    5.9800    9.7520 C   0  0  0  0  0  2  0  0  0  0  0  0
   11.8880    4.7110    9.4880 C   0  0  0  0  0  3  0  0  0  0  0  0
   12.1140    3.6870   10.2800 C   0  0  0  0  0  0  0  0  0  0  0  0
   13.5120    2.7080    9.0940 H   0  0  0  0  0  0  0  0  0  0  0  0
   14.2380    1.0110   11.0620 O   0  0  0  0  0  0  0  0  0  0  0  0
   13.7820    0.3200   11.5770 H   0  0  0  0  0  0  0  0  0  0  0  0
   14.6020    3.2460   11.3450 C   0  0  0  0  0  0  0  0  0  0  0  0
   14.4740    4.2190   12.2910 C   0  0  0  0  0  3  0  0  0  0  0  0
   15.4830    5.1760   12.5300 C   0  0  0  0  0  3  0  0  0  0  0  0
   16.6510    5.1630   11.8060 C   0  0  0  0  0  0  0  0  0  0  0  0
   16.7910    4.1870   10.8490 C   0  0  0  0  0  3  0  0  0  0  0  0
   15.8040    3.2560   10.6180 C   0  0  0  0  0  3  0  0  0  0  0  0
   17.6630    6.1080   12.0380 O   0  0  0  0  0  0  0  0  0  0  0  0
   18.4320    6.6400   10.9850 C   0  0  0  0  0  2  0  0  0  0  0  0
   17.7110    7.7150   10.2340 C   0  0  0  0  0  1  0  0  0  0  0  0
   11.9590    1.5600    9.3840 C   0  0  0  0  0  0  0  0  0  0  0  0
   12.4390    0.6250    8.4690 C   0  0  0  0  0  3  0  0  0  0  0  0
   11.6390   -0.3830    7.9510 C   0  0  0  0  0  3  0  0  0  0  0  0
   10.3200   -0.4970    8.3280 C   0  0  0  0  0  0  0  0  0  0  0  0
    9.2030   -1.8950    7.6400 Br  0  0  0  0  0  0  0  0  0  0  0  0
    9.8210    0.4020    9.2190 C   0  0  0  0  0  3  0  0  0  0  0  0
   10.6480    1.4030    9.7230 C   0  0  0  0  0  3  0  0  0  0  0  0
  1 10  1  0  0  0  0
  1  2  1  0  0  0  0
  2 12  1  6  0  0  0
  2 14  1  0  0  0  0
  2  3  1  0  0  0  0
  4  3  1  0  0  0  0
  4  5  1  0  0  0  0
  6  5  1  0  0  0  0
  7  6  1  0  0  0  0
  8  7  1  0  0  0  0
  9  8  1  0  0  0  0
  9 10  2  0  0  0  0
 10  4  1  0  0  0  0
 11  1  1  0  0  0  0
 12 13  1  0  0  0  0
 14 15  1  0  0  0  0
 15 16  2  0  0  0  0
 17 20  1  0  0  0  0
 17 16  1  0  0  0  0
 18 17  2  0  0  0  0
 19 18  1  0  0  0  0
 19 14  2  0  0  0  0
 21 20  1  0  0  0  0
 22 21  1  0  0  0  0
 23 29  1  0  0  0  0
 23  1  1  0  0  0  0
 24 23  2  0  0  0  0
 25 26  2  0  0  0  0
 25 24  1  0  0  0  0
 26 28  1  0  0  0  0
 27 26  1  0  0  0  0
 28 29  2  0  0  0  0
M  END
>  <Pose>
1

>  <Score>
-8.482

$$$$
