/Users/jonathanwahrer/Desktop/Msc/3_Semester/Drug_Design_Praktikum/waehrer_HTS_screening/HTS_experiment/out/docking_results/vina_output/2jam/0860_docked.pdbqt
 OpenBabel03162217573D

 29 32  0  0  1  0  0  0  0  0999 V2000
    5.6450    7.8530   11.5980 Br  0  0  0  0  0  0  0  0  0  0  0  0
    7.1950    6.8510   12.1120 C   0  0  0  0  0  0  0  0  0  0  0  0
    8.0740    6.3470   11.1740 C   0  0  0  0  0  3  0  0  0  0  0  0
    9.1870    5.6280   11.5480 C   0  0  0  0  0  0  0  0  0  0  0  0
    9.3770    5.4350   12.9010 C   0  0  0  0  0  0  0  0  0  0  0  0
    8.5010    5.9360   13.8430 C   0  0  0  0  0  3  0  0  0  0  0  0
    7.3890    6.6560   13.4640 C   0  0  0  0  0  0  0  0  0  0  0  0
    6.4490    7.1920   14.4900 C   0  0  0  0  0  1  0  0  0  0  0  0
   10.5100    4.7040   13.2540 O   0  0  0  0  0  0  0  0  0  0  0  0
   11.2450    3.9290   12.3680 C   0  0  0  0  0  2  0  0  0  0  0  0
   11.2950    4.4270   10.9640 C   0  0  2  0  0  0  0  0  0  0  0  0
   10.0700    5.1280   10.4900 C   0  0  2  0  0  3  0  0  0  0  0  0
   11.4430    3.2300   10.1290 N   0  0  0  0  0  4  0  0  0  0  0  0
   10.4700    2.2280   10.4030 C   0  0  0  0  0  2  0  0  0  0  0  0
   10.5270    1.2440    9.2240 C   0  0  0  0  0  2  0  0  0  0  0  0
   11.7830    0.6640    9.2630 O   0  0  0  0  0  0  0  0  0  0  0  0
   12.8170    1.5820    9.1170 C   0  0  0  0  0  2  0  0  0  0  0  0
   12.7520    2.6570   10.2120 C   0  0  0  0  0  2  0  0  0  0  0  0
   11.3040    3.5610    9.1480 H   0  0  0  0  0  0  0  0  0  0  0  0
   12.5100    5.2890   10.6920 C   0  0  0  0  0  2  0  0  0  0  0  0
   13.1890    5.7230   11.8740 N   0  0  0  0  0  4  0  0  0  0  0  0
   14.6230    5.5040   11.8110 C   0  0  0  0  0  2  0  0  0  0  0  0
   15.4020    6.7110   12.3100 C   0  0  0  0  0  2  0  0  0  0  0  0
   15.1960    7.8330   11.5240 O   0  0  0  0  0  0  0  0  0  0  0  0
   13.8950    7.8740   11.0310 C   0  0  0  0  0  2  0  0  0  0  0  0
   13.0180    7.1750   12.0490 C   0  0  0  0  0  2  0  0  0  0  0  0
   12.8590    5.3000   12.7550 H   0  0  0  0  0  0  0  0  0  0  0  0
   10.4070    6.2410    9.6820 O   0  0  0  0  0  0  0  0  0  0  0  0
   10.2150    6.0820    8.7350 H   0  0  0  0  0  0  0  0  0  0  0  0
  1  2  1  0  0  0  0
  2  7  1  0  0  0  0
  3  4  1  0  0  0  0
  3  2  2  0  0  0  0
  4  5  2  0  0  0  0
  5  9  1  0  0  0  0
  5  6  1  0  0  0  0
  7  6  2  0  0  0  0
  7  8  1  0  0  0  0
 10  9  1  0  0  0  0
 11 20  1  6  0  0  0
 11 10  1  0  0  0  0
 12 28  1  1  0  0  0
 12 11  1  0  0  0  0
 12  4  1  0  0  0  0
 13 18  1  0  0  0  0
 13 14  1  0  0  0  0
 13 11  1  0  0  0  0
 15 16  1  0  0  0  0
 15 14  1  0  0  0  0
 17 16  1  0  0  0  0
 17 18  1  0  0  0  0
 19 13  1  0  0  0  0
 20 21  1  0  0  0  0
 21 26  1  0  0  0  0
 21 27  1  0  0  0  0
 22 21  1  0  0  0  0
 22 23  1  0  0  0  0
 24 23  1  0  0  0  0
 25 24  1  0  0  0  0
 25 26  1  0  0  0  0
 29 28  1  0  0  0  0
M  END
>  <Pose>
1

>  <Score>
-6.917

$$$$
