/Users/jonathanwahrer/Desktop/Msc/3_Semester/Drug_Design_Praktikum/waehrer_HTS_screening/HTS_experiment/out/docking_results/vina_output/2jam/0872_docked.pdbqt
 OpenBabel03162217583D

 32 35  0  0  0  0  0  0  0  0999 V2000
   11.8870    6.3400   11.5340 N   0  0  0  0  0  0  0  0  0  0  0  0
   11.6890    7.6220   11.2850 N   0  0  0  0  0  0  0  0  0  0  0  0
   12.8880    8.1780   11.2720 N   0  0  0  0  0  0  0  0  0  0  0  0
   13.8510    7.2630   11.5110 C   0  0  0  0  0  0  0  0  0  0  0  0
   13.2020    6.0990   11.6760 C   0  0  0  0  0  0  0  0  0  0  0  0
   14.1950    5.1790   11.9190 C   0  0  0  0  0  0  0  0  0  0  0  0
   13.9990    3.9530   12.1310 O   0  0  0  0  0  0  0  0  0  0  0  0
   15.4180    5.7480   11.9070 N   0  0  0  0  0  0  0  0  0  0  0  0
   15.2100    7.0500   11.6520 C   0  0  0  0  0  0  0  0  0  0  0  0
   16.1120    7.9240   11.5590 O   0  0  0  0  0  0  0  0  0  0  0  0
   10.7650    8.1170   11.1250 H   0  0  0  0  0  0  0  0  0  0  0  0
   13.0330    9.2060   11.0940 H   0  0  0  0  0  0  0  0  0  0  0  0
   10.8150    5.3730   11.6260 C   0  0  0  0  0  2  0  0  0  0  0  0
   10.9910    4.3350   10.5360 C   0  0  0  0  0  0  0  0  0  0  0  0
   11.5200    3.0890   10.8610 N   0  0  0  0  0  0  0  0  0  0  0  0
   11.7720    2.9440   11.8980 H   0  0  0  0  0  0  0  0  0  0  0  0
   10.6480    4.6650    9.3970 O   0  0  0  0  0  0  0  0  0  0  0  0
   11.7370    2.0410    9.9530 C   0  0  0  0  0  0  0  0  0  0  0  0
   10.6540    1.2120    9.6170 C   0  0  0  0  0  0  0  0  0  0  0  0
    9.4510    1.4810   10.1970 F   0  0  0  0  0  0  0  0  0  0  0  0
   10.8230    0.1780    8.7340 C   0  0  0  0  0  3  0  0  0  0  0  0
   12.0530   -0.0700    8.1610 C   0  0  0  0  0  0  0  0  0  0  0  0
   13.1390    0.7180    8.4640 C   0  0  0  0  0  3  0  0  0  0  0  0
   12.1780   -1.1020    7.2940 F   0  0  0  0  0  0  0  0  0  0  0  0
   12.9390    1.7780    9.3750 C   0  0  0  0  0  3  0  0  0  0  0  0
   16.6640    5.0620   12.1260 C   0  0  0  0  0  0  0  0  0  0  0  0
   17.0640    4.0410   11.2860 C   0  0  0  0  0  3  0  0  0  0  0  0
   18.2490    3.3560   11.4580 C   0  0  0  0  0  3  0  0  0  0  0  0
   19.0450    3.7310   12.5230 C   0  0  0  0  0  0  0  0  0  0  0  0
   18.6950    4.7470   13.3970 C   0  0  0  0  0  3  0  0  0  0  0  0
   20.6900    2.7640   12.7430 Br  0  0  0  0  0  0  0  0  0  0  0  0
   17.4960    5.3920   13.1690 C   0  0  0  0  0  3  0  0  0  0  0  0
  1 13  1  0  0  0  0
  1  5  1  0  0  0  0
  2  1  1  0  0  0  0
  3  2  1  0  0  0  0
  3  4  1  0  0  0  0
  4  9  1  0  0  0  0
  4  5  2  0  0  0  0
  5  6  1  0  0  0  0
  6  7  2  0  0  0  0
  8  6  1  0  0  0  0
  8 26  1  0  0  0  0
  9  8  1  0  0  0  0
 10  9  2  0  0  0  0
 11  2  1  0  0  0  0
 12  3  1  0  0  0  0
 14 15  1  0  0  0  0
 14 13  1  0  0  0  0
 15 16  1  0  0  0  0
 17 14  2  0  0  0  0
 18 15  1  0  0  0  0
 19 18  1  0  0  0  0
 19 20  1  0  0  0  0
 21 19  2  0  0  0  0
 22 23  2  0  0  0  0
 22 21  1  0  0  0  0
 23 25  1  0  0  0  0
 24 22  1  0  0  0  0
 25 18  2  0  0  0  0
 26 32  1  0  0  0  0
 27 28  1  0  0  0  0
 27 26  2  0  0  0  0
 28 29  2  0  0  0  0
 29 31  1  0  0  0  0
 29 30  1  0  0  0  0
 32 30  2  0  0  0  0
M  END
>  <Pose>
1

>  <Score>
-9.295

$$$$
