/Users/jonathanwahrer/Desktop/Msc/3_Semester/Drug_Design_Praktikum/waehrer_HTS_screening/HTS_experiment/out/docking_results/vina_output/2jam/0874_docked.pdbqt
 OpenBabel03162217583D

 31 34  0  0  0  0  0  0  0  0999 V2000
   11.3220    5.7680   11.3950 N   0  0  0  0  0  0  0  0  0  0  0  0
   11.0870    7.0380   11.1430 N   0  0  0  0  0  0  0  0  0  0  0  0
   12.2240    7.7170   11.1020 N   0  0  0  0  0  0  0  0  0  0  0  0
   13.2370    6.8540   11.3370 C   0  0  0  0  0  0  0  0  0  0  0  0
   12.6740    5.6750   11.5130 C   0  0  0  0  0  0  0  0  0  0  0  0
   13.7110    4.7880   11.7550 C   0  0  0  0  0  0  0  0  0  0  0  0
   13.5550    3.5660   11.9690 O   0  0  0  0  0  0  0  0  0  0  0  0
   14.8990    5.4170   11.7270 N   0  0  0  0  0  0  0  0  0  0  0  0
   14.6050    6.7040   11.4670 C   0  0  0  0  0  0  0  0  0  0  0  0
   15.4330    7.6350   11.3560 O   0  0  0  0  0  0  0  0  0  0  0  0
   10.1200    7.4280   10.9980 H   0  0  0  0  0  0  0  0  0  0  0  0
   12.3250    8.7450   10.9190 H   0  0  0  0  0  0  0  0  0  0  0  0
   10.3750    4.6770   11.5270 C   0  0  0  0  0  2  0  0  0  0  0  0
   10.5760    3.7040   10.4170 C   0  0  0  0  0  0  0  0  0  0  0  0
   11.0930    2.4340   10.6530 N   0  0  0  0  0  0  0  0  0  0  0  0
   11.3310    2.2150   11.6770 H   0  0  0  0  0  0  0  0  0  0  0  0
   10.2560    4.0940    9.2830 O   0  0  0  0  0  0  0  0  0  0  0  0
   11.3420    1.3990    9.7080 C   0  0  0  0  0  0  0  0  0  0  0  0
   10.2900    0.5540    9.3180 C   0  0  0  0  0  0  0  0  0  0  0  0
    9.0580    0.7630    9.8670 F   0  0  0  0  0  0  0  0  0  0  0  0
   10.4630   -0.4610    8.4130 C   0  0  0  0  0  3  0  0  0  0  0  0
   11.6910   -0.6990    7.8410 C   0  0  0  0  0  3  0  0  0  0  0  0
   12.7160    0.1190    8.2160 C   0  0  0  0  0  3  0  0  0  0  0  0
   12.5600    1.1500    9.1290 C   0  0  0  0  0  3  0  0  0  0  0  0
   16.1830    4.8270   11.9320 C   0  0  0  0  0  0  0  0  0  0  0  0
   17.0110    5.2520   12.9520 C   0  0  0  0  0  3  0  0  0  0  0  0
   18.2550    4.6920   13.1640 C   0  0  0  0  0  3  0  0  0  0  0  0
   18.7250    3.6770   12.3570 C   0  0  0  0  0  0  0  0  0  0  0  0
   17.9150    3.2370   11.3310 C   0  0  0  0  0  3  0  0  0  0  0  0
   20.4430    2.8820   12.6280 Br  0  0  0  0  0  0  0  0  0  0  0  0
   16.6740    3.8100   11.1360 C   0  0  0  0  0  3  0  0  0  0  0  0
  1  5  1  0  0  0  0
  1 13  1  0  0  0  0
  2  1  1  0  0  0  0
  3  2  1  0  0  0  0
  3  4  1  0  0  0  0
  4  9  1  0  0  0  0
  4  5  2  0  0  0  0
  5  6  1  0  0  0  0
  6  7  2  0  0  0  0
  8  6  1  0  0  0  0
  8 25  1  0  0  0  0
  9  8  1  0  0  0  0
 10  9  2  0  0  0  0
 11  2  1  0  0  0  0
 12  3  1  0  0  0  0
 14 15  1  0  0  0  0
 14 13  1  0  0  0  0
 15 16  1  0  0  0  0
 17 14  2  0  0  0  0
 18 15  1  0  0  0  0
 19 18  1  0  0  0  0
 19 20  1  0  0  0  0
 21 19  2  0  0  0  0
 22 23  2  0  0  0  0
 22 21  1  0  0  0  0
 23 24  1  0  0  0  0
 24 18  2  0  0  0  0
 25 26  1  0  0  0  0
 26 27  2  0  0  0  0
 28 30  1  0  0  0  0
 28 27  1  0  0  0  0
 29 28  2  0  0  0  0
 31 29  1  0  0  0  0
 31 25  2  0  0  0  0
M  END
>  <Pose>
1

>  <Score>
-9.171

$$$$
