/Users/jonathanwahrer/Desktop/Msc/3_Semester/Drug_Design_Praktikum/waehrer_HTS_screening/HTS_experiment/out/docking_results/vina_output/2jam/0892_docked.pdbqt
 OpenBabel03162217593D

 27 30  0  0  1  0  0  0  0  0999 V2000
    4.6800    9.6750   14.4830 C   0  0  2  0  0  3  0  0  0  0  0  0
    4.8040    8.3430   13.9340 N   0  0  0  0  0  0  0  0  0  0  0  0
    6.0970    7.8450   13.5750 C   0  0  0  0  0  0  0  0  0  0  0  0
    6.7570    6.2430   13.4320 S   0  0  0  0  0  0  0  0  0  0  0  0
    8.3410    6.6360   12.9590 C   0  0  0  0  0  0  0  0  0  0  0  0
    8.3190    7.9870   12.9260 C   0  0  0  0  0  0  0  0  0  0  0  0
    7.1730    8.6140   13.2400 C   0  0  0  0  0  0  0  0  0  0  0  0
    6.8380   10.0660   13.2920 C   0  0  0  0  0  0  0  0  0  0  0  0
    7.6930   10.9390   13.0140 O   0  0  0  0  0  0  0  0  0  0  0  0
    5.5440   10.5010   13.6560 N   0  0  0  0  0  0  0  0  0  0  0  0
    9.6400    8.6300   12.5210 C   0  0  0  0  0  2  0  0  0  0  0  0
   10.4340    7.6230   11.7530 C   0  0  0  0  0  2  0  0  0  0  0  0
   10.6940    6.5240   12.6960 N   0  0  0  0  0  4  0  0  0  0  0  0
    9.4790    5.7380   12.6540 C   0  0  0  0  0  2  0  0  0  0  0  0
   11.8580    5.7640   12.3070 C   0  0  0  0  0  1  0  0  0  0  0  0
    3.9880    7.7110   13.7780 H   0  0  0  0  0  0  0  0  0  0  0  0
    5.1780   11.4340   13.3350 H   0  0  0  0  0  0  0  0  0  0  0  0
   10.7770    6.9190   13.6560 H   0  0  0  0  0  0  0  0  0  0  0  0
    5.1990    9.6090   15.8740 C   0  0  0  0  0  0  0  0  0  0  0  0
    4.6910    8.7820   16.8470 C   0  0  0  0  0  0  0  0  0  0  0  0
    5.2070    8.7660   18.1430 C   0  0  0  0  0  0  0  0  0  0  0  0
    3.6440    7.9410   16.5390 O   0  0  0  0  0  1  0  0  0  0  0  0
    4.3830    7.4760   19.5860 I   0  0  0  0  0  0  0  0  0  0  0  0
    6.2410    9.5750   18.4980 C   0  0  0  0  0  3  0  0  0  0  0  0
    6.7650   10.4110   17.5400 C   0  0  0  0  0  0  0  0  0  0  0  0
    6.2640   10.4330   16.2640 C   0  0  0  0  0  3  0  0  0  0  0  0
    8.2130   11.5450   18.0310 Br  0  0  0  0  0  0  0  0  0  0  0  0
  1 19  1  1  0  0  0
  2  1  1  0  0  0  0
  3  2  1  0  0  0  0
  4  3  1  0  0  0  0
  5  4  1  0  0  0  0
  6  5  2  0  0  0  0
  6  7  1  0  0  0  0
  7  8  1  0  0  0  0
  7  3  2  0  0  0  0
  8 10  1  0  0  0  0
  9  8  2  0  0  0  0
 10  1  1  0  0  0  0
 11  6  1  0  0  0  0
 12 11  1  0  0  0  0
 12 13  1  0  0  0  0
 13 18  1  0  0  0  0
 14 13  1  0  0  0  0
 14  5  1  0  0  0  0
 15 13  1  0  0  0  0
 16  2  1  0  0  0  0
 17 10  1  0  0  0  0
 19 26  2  0  0  0  0
 19 20  1  0  0  0  0
 20 21  2  0  0  0  0
 21 24  1  0  0  0  0
 21 23  1  0  0  0  0
 22 20  1  0  0  0  0
 25 27  1  0  0  0  0
 25 24  2  0  0  0  0
 26 25  1  0  0  0  0
M  END
>  <Pose>
1

>  <Score>
-7.229

$$$$
