/Users/jonathanwahrer/Desktop/Msc/3_Semester/Drug_Design_Praktikum/waehrer_HTS_screening/HTS_experiment/out/docking_results/vina_output/2jam/0895_docked.pdbqt
 OpenBabel03162217593D

 28 31  0  0  1  0  0  0  0  0999 V2000
   12.1630    6.5510   12.2140 C   0  0  2  0  0  3  0  0  0  0  0  0
   11.5530    6.3510   13.5280 N   0  0  0  0  0  0  0  0  0  0  0  0
   10.3020    6.9970   13.8750 C   0  0  0  0  0  0  0  0  0  0  0  0
    9.4870    7.2350   15.3700 S   0  0  0  0  0  0  0  0  0  0  0  0
    8.1270    8.0750   14.8010 C   0  0  0  0  0  0  0  0  0  0  0  0
    8.3400    8.1510   13.4510 C   0  0  0  0  0  0  0  0  0  0  0  0
    9.4730    7.5890   12.9770 C   0  0  0  0  0  0  0  0  0  0  0  0
    9.9330    7.5380   11.5600 C   0  0  0  0  0  0  0  0  0  0  0  0
    9.2520    8.0530   10.6220 O   0  0  0  0  0  0  0  0  0  0  0  0
   11.1530    6.9020   11.2540 N   0  0  0  0  0  0  0  0  0  0  0  0
    7.2090    8.8850   12.7400 C   0  0  0  0  0  2  0  0  0  0  0  0
    5.8900    8.2990   13.1700 C   0  0  0  0  0  2  0  0  0  0  0  0
    5.7830    8.0740   14.5720 N   0  0  0  0  0  4  0  0  0  0  0  0
    6.8610    8.7050   15.3260 C   0  0  0  0  0  2  0  0  0  0  0  0
    5.9490    6.6280   14.7930 C   0  0  0  0  0  1  0  0  0  0  0  0
   11.9890    5.7460   14.2480 H   0  0  0  0  0  0  0  0  0  0  0  0
   11.3580    6.6580   10.2500 H   0  0  0  0  0  0  0  0  0  0  0  0
    4.8540    8.3600   14.9800 H   0  0  0  0  0  0  0  0  0  0  0  0
   12.7120    5.2250   11.8160 C   0  0  0  0  0  0  0  0  0  0  0  0
   11.8170    4.1870   11.5910 C   0  0  0  0  0  3  0  0  0  0  0  0
   12.2020    2.9340   11.2220 C   0  0  0  0  0  0  0  0  0  0  0  0
   13.5670    2.6970   11.0690 C   0  0  0  0  0  0  0  0  0  0  0  0
   14.4790    3.7110   11.2850 C   0  0  0  0  0  0  0  0  0  0  0  0
   13.9980    1.4380   10.6960 O   0  0  0  0  0  1  0  0  0  0  0  0
   16.5400    3.3320   11.0460 I   0  0  0  0  0  0  0  0  0  0  0  0
   14.0470    4.9740   11.6590 C   0  0  0  0  0  3  0  0  0  0  0  0
   11.3320    1.8770   10.9910 O   0  0  0  0  0  0  0  0  0  0  0  0
   10.5920    1.8630    9.7840 C   0  0  0  0  0  1  0  0  0  0  0  0
  1 19  1  6  0  0  0
  1  2  1  0  0  0  0
  2  3  1  0  0  0  0
  2 16  1  0  0  0  0
  3  4  1  0  0  0  0
  5 14  1  0  0  0  0
  5  4  1  0  0  0  0
  6  5  2  0  0  0  0
  7  6  1  0  0  0  0
  7  3  2  0  0  0  0
  8  7  1  0  0  0  0
  9  8  2  0  0  0  0
 10  8  1  0  0  0  0
 10  1  1  0  0  0  0
 11 12  1  0  0  0  0
 11  6  1  0  0  0  0
 12 13  1  0  0  0  0
 13 15  1  0  0  0  0
 13 18  1  0  0  0  0
 13 14  1  0  0  0  0
 17 10  1  0  0  0  0
 20 19  2  0  0  0  0
 21 20  1  0  0  0  0
 22 21  2  0  0  0  0
 22 23  1  0  0  0  0
 23 26  2  0  0  0  0
 24 22  1  0  0  0  0
 25 23  1  0  0  0  0
 26 19  1  0  0  0  0
 27 21  1  0  0  0  0
 28 27  1  0  0  0  0
M  END
>  <Pose>
1

>  <Score>
-7.794

$$$$
