/Users/jonathanwahrer/Desktop/Msc/3_Semester/Drug_Design_Praktikum/waehrer_HTS_screening/HTS_experiment/out/docking_results/vina_output/2jam/0906_docked.pdbqt
 OpenBabel03162217593D

 27 30  0  0  1  0  0  0  0  0999 V2000
   11.9330    2.8900   10.5240 C   0  0  1  0  0  3  0  0  0  0  0  0
   10.7870    3.4540   10.1610 N   0  0  0  0  0  0  0  0  0  0  0  0
   10.4800    4.7560   10.2810 C   0  0  0  0  0  0  0  0  0  0  0  0
    9.4500    5.5680   10.0150 N   0  0  0  0  0  2  0  0  0  0  0  0
    9.7330    6.7910   10.3610 O   0  0  0  0  0  0  0  0  0  0  0  0
   10.9360    6.8340   10.8600 N   0  0  0  0  0  0  0  0  0  0  0  0
   11.4520    5.5960   10.8360 C   0  0  0  0  0  0  0  0  0  0  0  0
   12.6110    5.0890   11.2150 N   0  0  0  0  0  0  0  0  0  0  0  0
   12.8690    3.7860   11.0760 C   0  0  0  0  0  0  0  0  0  0  0  0
   14.0940    3.5930   11.5390 N   0  0  0  0  0  0  0  0  0  0  0  0
   14.5990    4.7640   11.9640 N   0  0  0  0  0  0  0  0  0  0  0  0
   13.6820    5.7240   11.7710 C   0  0  0  0  0  0  0  0  0  0  0  0
   12.2660    1.5250   10.4040 N   0  0  0  0  0  0  0  0  0  0  0  0
   12.9070    1.1020   11.1640 H   0  0  0  0  0  0  0  0  0  0  0  0
   11.8660    0.6160    9.4030 C   0  0  0  0  0  0  0  0  0  0  0  0
   12.7700    0.3140    8.3600 C   0  0  0  0  0  0  0  0  0  0  0  0
   14.6790    1.2150    8.3450 I   0  0  0  0  0  0  0  0  0  0  0  0
   12.4120   -0.5620    7.3640 C   0  0  0  0  0  3  0  0  0  0  0  0
   11.1520   -1.1550    7.3800 C   0  0  0  0  0  3  0  0  0  0  0  0
   10.2990   -0.8430    8.4010 C   0  0  0  0  0  3  0  0  0  0  0  0
   10.6280    0.0410    9.4320 C   0  0  0  0  0  3  0  0  0  0  0  0
   13.7600    7.1780   12.0700 C   0  0  0  0  0  2  0  0  0  0  0  0
   15.1510    7.6760   12.1910 C   0  0  0  0  0  0  0  0  0  0  0  0
   15.7170    7.8610   13.2890 O   0  0  0  0  0  0  0  0  0  0  0  0
   15.8510    7.9490   11.0490 O   0  0  0  0  0  0  0  0  0  0  0  0
   17.2050    7.7320   10.8680 C   0  0  0  0  0  2  0  0  0  0  0  0
   17.6190    6.3330   10.6130 C   0  0  0  0  0  1  0  0  0  0  0  0
  1 13  1  1  0  0  0
  1  9  1  0  0  0  0
  2  3  2  0  0  0  0
  2  1  1  0  0  0  0
  3  7  1  0  0  0  0
  4  3  1  0  0  0  0
  4  5  1  0  0  0  0
  5  6  1  0  0  0  0
  7  6  2  0  0  0  0
  7  8  1  0  0  0  0
  8 12  1  0  0  0  0
  9  8  1  0  0  0  0
  9 10  2  0  0  0  0
 10 11  1  0  0  0  0
 12 11  2  0  0  0  0
 12 22  1  0  0  0  0
 13 14  1  0  0  0  0
 15 21  1  0  0  0  0
 15 13  1  0  0  0  0
 16 15  2  0  0  0  0
 17 16  1  0  0  0  0
 18 19  2  0  0  0  0
 18 16  1  0  0  0  0
 19 20  1  0  0  0  0
 20 21  2  0  0  0  0
 22 23  1  0  0  0  0
 23 24  2  0  0  0  0
 25 23  1  0  0  0  0
 26 25  1  0  0  0  0
 27 26  1  0  0  0  0
M  END
>  <Pose>
1

>  <Score>
-7.961

$$$$
