/Users/jonathanwahrer/Desktop/Msc/3_Semester/Drug_Design_Praktikum/waehrer_HTS_screening/HTS_experiment/out/docking_results/vina_output/2jam/0910_docked.pdbqt
 OpenBabel03162217593D

 26 29  0  0  0  0  0  0  0  0999 V2000
    8.5140    6.6000   12.4380 C   0  0  0  0  0  0  0  0  0  0  0  0
    7.8640    7.8060   12.0880 C   0  0  0  0  0  0  0  0  0  0  0  0
    8.0030    8.6040   11.0360 N   0  0  0  0  0  0  0  0  0  0  0  0
    7.1820    9.6010   11.1680 O   0  0  0  0  0  0  0  0  0  0  0  0
    6.5150    9.4900   12.2600 N   0  0  0  0  0  0  0  0  0  0  0  0
    6.9140    8.3690   12.8750 C   0  0  0  0  0  0  0  0  0  0  0  0
    6.5550    7.7590   14.0570 C   0  0  0  0  0  0  0  0  0  0  0  0
    7.1660    6.5890   14.4260 C   0  0  0  0  0  3  0  0  0  0  0  0
    8.1360    6.0050   13.6340 C   0  0  0  0  0  3  0  0  0  0  0  0
    9.3950    6.1180   11.4920 N   0  0  0  0  0  0  0  0  0  0  0  0
   10.2460    5.6520   10.5790 C   0  0  0  0  0  0  0  0  0  0  0  0
   10.1380    5.8750    9.3040 O   0  0  0  0  0  0  0  0  0  0  0  0
    8.5570    6.5560   10.5120 H   0  0  0  0  0  0  0  0  0  0  0  0
   11.4440    4.8110   10.8460 C   0  0  0  0  0  0  0  0  0  0  0  0
   12.6540    5.2810   11.3080 C   0  0  0  0  0  0  0  0  0  0  0  0
   13.1570    7.3130   11.6950 I   0  0  0  0  0  0  0  0  0  0  0  0
   13.4810    4.1980   11.4770 C   0  0  0  0  0  3  0  0  0  0  0  0
   12.7690    3.1300   11.1250 N   0  0  0  0  0  0  0  0  0  0  0  0
   11.5470    3.4830   10.7460 N   0  0  0  0  0  0  0  0  0  0  0  0
   10.5140    2.5090   10.3470 C   0  0  0  0  0  1  0  0  0  0  0  0
    5.5730    8.3770   14.8460 N   0  0  0  0  0  0  0  0  0  0  0  0
    4.1890    7.9020   14.9020 C   0  0  0  0  0  2  0  0  0  0  0  0
    3.3700    9.0520   14.3530 C   0  0  0  0  0  2  0  0  0  0  0  0
    4.1250   10.1640   14.0180 O   0  0  0  0  0  0  0  0  0  0  0  0
    4.9480   10.6400   15.0160 C   0  0  0  0  0  2  0  0  0  0  0  0
    5.7370    9.5340   15.6950 C   0  0  0  0  0  2  0  0  0  0  0  0
  1  9  2  0  0  0  0
  2  1  1  0  0  0  0
  2  6  1  0  0  0  0
  3  4  1  0  0  0  0
  3  2  2  0  0  0  0
  4  5  1  0  0  0  0
  5  6  2  0  0  0  0
  6  7  1  0  0  0  0
  7  8  2  0  0  0  0
  7 21  1  0  0  0  0
  9  8  1  0  0  0  0
 10  1  1  0  0  0  0
 11 14  1  0  0  0  0
 11 10  1  0  0  0  0
 12 11  2  0  0  0  0
 13 10  1  0  0  0  0
 14 15  2  0  0  0  0
 15 17  1  0  0  0  0
 15 16  1  0  0  0  0
 18 17  2  0  0  0  0
 19 14  1  0  0  0  0
 19 18  1  0  0  0  0
 20 19  1  0  0  0  0
 21 22  1  0  0  0  0
 21 26  1  0  0  0  0
 23 22  1  0  0  0  0
 24 23  1  0  0  0  0
 24 25  1  0  0  0  0
 25 26  1  0  0  0  0
M  END
>  <Pose>
1

>  <Score>
-7.638

$$$$
