/Users/jonathanwahrer/Desktop/Msc/3_Semester/Drug_Design_Praktikum/waehrer_HTS_screening/HTS_experiment/out/docking_results/vina_output/2jam/0924_docked.pdbqt
 OpenBabel03162218003D

 29 32  0  0  0  0  0  0  0  0999 V2000
   10.8640    4.3900   10.1200 C   0  0  0  0  0  0  0  0  0  0  0  0
   12.0490    4.5970   10.7190 N   0  0  0  0  0  4  0  0  0  0  0  0
   12.9630    3.6220   10.8050 C   0  0  0  0  0  0  0  0  0  0  0  0
   12.6350    2.4360   10.2670 N   0  0  0  0  0  0  0  0  0  0  0  0
   11.4570    2.1900    9.6600 C   0  0  0  0  0  0  0  0  0  0  0  0
   10.5660    3.1960    9.5930 N   0  0  0  0  0  2  0  0  0  0  0  0
    9.8920    5.4600   10.0380 N   0  0  0  0  0  0  0  0  0  0  0  0
   10.1180    6.3260    9.5030 H   0  0  0  0  0  0  0  0  0  0  0  0
    8.7080    5.3310   10.6850 N   0  0  0  0  0  0  0  0  0  0  0  0
    8.4070    5.9430   11.7440 C   0  0  0  0  0  3  0  0  0  0  0  0
    9.2040    6.8800   12.4880 C   0  0  0  0  0  0  0  0  0  0  0  0
   10.2840    6.6110   13.2750 C   0  0  0  0  0  3  0  0  0  0  0  0
   10.9980    7.6040   13.9620 C   0  0  0  0  0  3  0  0  0  0  0  0
   10.6210    8.9070   13.8590 C   0  0  0  0  0  0  0  0  0  0  0  0
   11.6210   10.4580   14.8440 I   0  0  0  0  0  0  0  0  0  0  0  0
    9.5320    9.2070   13.0700 C   0  0  0  0  0  3  0  0  0  0  0  0
    8.8360    8.2310   12.3990 C   0  0  0  0  0  3  0  0  0  0  0  0
   14.2280    3.8190   11.4370 N   0  0  0  0  0  0  0  0  0  0  0  0
   14.4550    4.8020   12.4520 C   0  0  0  0  0  2  0  0  0  0  0  0
   15.9570    4.8290   12.7420 C   0  0  0  0  0  2  0  0  0  0  0  0
   16.7000    4.9170   11.5770 O   0  0  0  0  0  0  0  0  0  0  0  0
   16.5800    3.8140   10.7670 C   0  0  0  0  0  2  0  0  0  0  0  0
   15.3510    2.9850   11.0390 C   0  0  0  0  0  2  0  0  0  0  0  0
   11.1890    0.9040    9.1170 N   0  0  0  0  0  0  0  0  0  0  0  0
   12.2650    0.1360    8.5350 C   0  0  0  0  0  2  0  0  0  0  0  0
   11.6330   -0.6230    7.3600 C   0  0  0  0  0  2  0  0  0  0  0  0
   10.7370   -1.5180    7.8830 O   0  0  0  0  0  0  0  0  0  0  0  0
    9.6870   -0.9910    8.5820 C   0  0  0  0  0  3  0  0  0  0  0  0
    9.8700    0.3720    9.1440 C   0  0  0  0  0  3  0  0  0  0  0  0
  1  2  2  0  0  0  0
  2  3  2  0  0  0  0
  3 18  1  0  0  0  0
  4  3  1  0  0  0  0
  5  4  2  0  0  0  0
  6  5  1  0  0  0  0
  6  1  1  0  0  0  0
  7  1  1  0  0  0  0
  7  9  1  0  0  0  0
  8  7  1  0  0  0  0
  9 10  2  0  0  0  0
 10 11  1  0  0  0  0
 11 12  1  0  0  0  0
 12 13  2  0  0  0  0
 14 13  1  0  0  0  0
 14 15  1  0  0  0  0
 16 14  2  0  0  0  0
 17 11  2  0  0  0  0
 17 16  1  0  0  0  0
 18 19  1  0  0  0  0
 19 20  1  0  0  0  0
 21 20  1  0  0  0  0
 22 23  1  0  0  0  0
 22 21  1  0  0  0  0
 23 18  1  0  0  0  0
 24 29  1  0  0  0  0
 24  5  1  0  0  0  0
 25 24  1  0  0  0  0
 26 27  1  0  0  0  0
 26 25  1  0  0  0  0
 27 28  1  0  0  0  0
 28 29  2  0  0  0  0
M  END
>  <Pose>
1

>  <Score>
-7.888

$$$$
