/Users/jonathanwahrer/Desktop/Msc/3_Semester/Drug_Design_Praktikum/waehrer_HTS_screening/HTS_experiment/out/docking_results/vina_output/2jam/0935_docked.pdbqt
 OpenBabel03162218003D

 34 38  0  0  1  0  0  0  0  0999 V2000
   12.5030    4.4900   10.5220 N   0  0  0  0  0  0  0  0  0  0  0  0
   13.4930    4.5880   11.4260 C   0  0  0  0  0  0  0  0  0  0  0  0
   14.0060    5.8010   11.8320 C   0  0  2  0  0  3  0  0  0  0  0  0
   13.4400    6.9200   11.2540 C   0  0  0  0  0  0  0  0  0  0  0  0
   13.7980    8.1070   11.5200 O   0  0  0  0  0  0  0  0  0  0  0  0
   12.4310    6.8330   10.3320 N   0  0  0  0  0  0  0  0  0  0  0  0
   11.9890    5.6100    9.9900 C   0  0  0  0  0  0  0  0  0  0  0  0
   11.0650    5.4810    9.1480 O   0  0  0  0  0  0  0  0  0  0  0  0
   14.0270    3.4530   11.9790 O   0  0  0  0  0  0  0  0  0  0  0  0
   12.0090    7.6760    9.9010 H   0  0  0  0  0  0  0  0  0  0  0  0
   15.0820    5.9870   12.7890 C   0  0  1  0  0  3  0  0  0  0  0  0
   15.8510    4.8380   13.1470 N   0  0  0  0  0  4  0  0  0  0  0  0
   16.6060    4.2620   12.0690 C   0  0  0  0  0  2  0  0  0  0  0  0
   16.8730    5.3430   14.1020 C   0  0  0  0  0  1  0  0  0  0  0  0
   15.3750    4.1240   13.7230 H   0  0  0  0  0  0  0  0  0  0  0  0
   16.6300    5.1250   10.8250 C   0  0  0  0  0  2  0  0  0  0  0  0
   16.8870    6.5540   11.2430 C   0  0  0  0  0  0  0  0  0  0  0  0
   16.0910    6.9810   12.2760 C   0  0  0  0  0  0  0  0  0  0  0  0
   17.8330    7.3510   10.6880 C   0  0  0  0  0  3  0  0  0  0  0  0
   16.2340    8.2490   12.7860 C   0  0  0  0  0  0  0  0  0  0  0  0
   17.2030    9.0600   12.2150 C   0  0  0  0  0  0  0  0  0  0  0  0
   18.0100    8.6460   11.1750 C   0  0  0  0  0  0  0  0  0  0  0  0
   17.6050   10.3770   12.4870 O   0  0  0  0  0  0  0  0  0  0  0  0
   18.8640    9.6850   10.8400 O   0  0  0  0  0  0  0  0  0  0  0  0
   18.3620   10.9030   11.4130 C   0  0  0  0  0  2  0  0  0  0  0  0
   15.4380    8.6650   13.8160 O   0  0  0  0  0  0  0  0  0  0  0  0
   15.8030    8.8250   15.1500 C   0  0  0  0  0  1  0  0  0  0  0  0
   11.9910    3.2290   10.1180 C   0  0  0  0  0  0  0  0  0  0  0  0
   10.7240    2.7920   10.4700 C   0  0  0  0  0  3  0  0  0  0  0  0
   10.2300    1.5810   10.0820 C   0  0  0  0  0  3  0  0  0  0  0  0
   10.9990    0.7240    9.3020 C   0  0  0  0  0  0  0  0  0  0  0  0
   10.2270   -1.1360    8.7130 I   0  0  0  0  0  0  0  0  0  0  0  0
   12.2570    1.1550    8.9510 C   0  0  0  0  0  3  0  0  0  0  0  0
   12.7660    2.3770    9.3370 C   0  0  0  0  0  3  0  0  0  0  0  0
  1  2  1  0  0  0  0
  2  3  1  0  0  0  0
  2  9  2  0  0  0  0
  3  4  1  6  0  0  0
  3 11  1  0  0  0  0
  4  5  2  0  0  0  0
  6  4  1  0  0  0  0
  7  6  1  0  0  0  0
  7  1  1  0  0  0  0
  8  7  2  0  0  0  0
 10  6  1  0  0  0  0
 11 18  1  6  0  0  0
 11 12  1  0  0  0  0
 12 15  1  0  0  0  0
 12 14  1  0  0  0  0
 13 12  1  0  0  0  0
 16 17  1  0  0  0  0
 16 13  1  0  0  0  0
 17 18  1  0  0  0  0
 18 20  2  0  0  0  0
 19 22  1  0  0  0  0
 19 17  2  0  0  0  0
 20 26  1  0  0  0  0
 21 23  1  0  0  0  0
 21 20  1  0  0  0  0
 22 21  2  0  0  0  0
 24 22  1  0  0  0  0
 24 25  1  0  0  0  0
 25 23  1  0  0  0  0
 26 27  1  0  0  0  0
 28 29  1  0  0  0  0
 28  1  1  0  0  0  0
 30 29  2  0  0  0  0
 31 30  1  0  0  0  0
 32 31  1  0  0  0  0
 33 31  2  0  0  0  0
 33 34  1  0  0  0  0
 34 28  2  0  0  0  0
M  END
>  <Pose>
1

>  <Score>
-8.737

$$$$
