/Users/jonathanwahrer/Desktop/Msc/3_Semester/Drug_Design_Praktikum/waehrer_HTS_screening/HTS_experiment/out/docking_results/vina_output/2jam/0937_docked.pdbqt
 OpenBabel03162218003D

 26 29  0  0  1  0  0  0  0  0999 V2000
   10.4000    6.9940   11.3390 N   0  0  0  0  0  0  0  0  0  0  0  0
   10.6600    6.1590   10.2230 C   0  0  0  0  0  0  0  0  0  0  0  0
    9.8130    5.9070    9.3280 O   0  0  0  0  0  0  0  0  0  0  0  0
   12.0600    5.6540   10.2910 C   0  0  1  0  0  3  0  0  0  0  0  0
   12.7520    6.7820   11.0370 C   0  0  0  0  0  2  0  0  0  0  0  0
   11.6740    7.4350   11.8060 C   0  0  0  0  0  0  0  0  0  0  0  0
   11.8200    8.2680   12.7470 O   0  0  0  0  0  0  0  0  0  0  0  0
   12.0580    4.4330   10.9860 N   0  0  1  0  0  0  0  0  0  0  0  0
   10.8780    3.7180   11.1910 C   0  0  0  0  0  2  0  0  0  0  0  0
   11.2760    2.2280   11.3590 C   0  0  0  0  0  2  0  0  0  0  0  0
   12.1660    1.8750   10.2630 N   0  0  0  0  0  0  0  0  0  0  0  0
   13.3970    2.6190   10.1720 C   0  0  0  0  0  2  0  0  0  0  0  0
   13.2950    3.7850   11.1520 C   0  0  0  0  0  2  0  0  0  0  0  0
   11.8270    0.8630    9.3420 C   0  0  0  0  0  0  0  0  0  0  0  0
   10.5740    0.3310    9.3250 N   0  0  0  0  0  0  0  0  0  0  0  0
   10.1920   -0.6190    8.4740 C   0  0  0  0  0  3  0  0  0  0  0  0
   11.0890   -1.1210    7.5400 C   0  0  0  0  0  3  0  0  0  0  0  0
   12.3610   -0.5760    7.5630 C   0  0  0  0  0  3  0  0  0  0  0  0
   12.7030    0.3800    8.4370 N   0  0  0  0  0  0  0  0  0  0  0  0
    9.1260    7.3460   11.9120 C   0  0  0  0  0  0  0  0  0  0  0  0
    8.6400    8.6270   11.7540 C   0  0  0  0  0  3  0  0  0  0  0  0
    7.4260    9.0110   12.2860 C   0  0  0  0  0  3  0  0  0  0  0  0
    6.6520    8.1200   12.9990 C   0  0  0  0  0  0  0  0  0  0  0  0
    4.7870    8.6660   13.8290 I   0  0  0  0  0  0  0  0  0  0  0  0
    7.1220    6.8360   13.1670 C   0  0  0  0  0  3  0  0  0  0  0  0
    8.3400    6.4740   12.6260 C   0  0  0  0  0  3  0  0  0  0  0  0
  1  6  1  0  0  0  0
  1 20  1  0  0  0  0
  2  4  1  0  0  0  0
  2  1  1  0  0  0  0
  3  2  2  0  0  0  0
  4  8  1  0  0  0  0
  4  5  1  1  0  0  0
  5  6  1  0  0  0  0
  6  7  2  0  0  0  0
  8 13  1  6  0  0  0
  8  9  1  0  0  0  0
  9 10  1  0  0  0  0
 11 10  1  0  0  0  0
 12 11  1  0  0  0  0
 12 13  1  0  0  0  0
 14 11  1  0  0  0  0
 15 14  2  0  0  0  0
 16 15  1  0  0  0  0
 17 18  1  0  0  0  0
 17 16  2  0  0  0  0
 18 19  2  0  0  0  0
 19 14  1  0  0  0  0
 20 26  1  0  0  0  0
 21 20  2  0  0  0  0
 21 22  1  0  0  0  0
 22 23  2  0  0  0  0
 23 25  1  0  0  0  0
 23 24  1  0  0  0  0
 26 25  2  0  0  0  0
M  END
>  <Pose>
1

>  <Score>
-8.649

$$$$
