/Users/jonathanwahrer/Desktop/Msc/3_Semester/Drug_Design_Praktikum/waehrer_HTS_screening/HTS_experiment/out/docking_results/vina_output/2jam/0969_docked.pdbqt
 OpenBabel03162218013D

 31 34  0  0  1  0  0  0  0  0999 V2000
    8.2670   11.8720   19.4480 Br  0  0  0  0  0  0  0  0  0  0  0  0
    7.4360   10.7820   18.1310 C   0  0  0  0  0  0  0  0  0  0  0  0
    8.1030   10.2960   17.0100 C   0  0  0  0  0  0  0  0  0  0  0  0
    7.4520    9.5060   16.0770 C   0  0  0  0  0  0  0  0  0  0  0  0
    6.1200    9.1870   16.2500 C   0  0  0  0  0  2  0  0  0  0  0  0
    5.4580    9.6600   17.3490 C   0  0  0  0  0  0  0  0  0  0  0  0
    6.1100   10.4420   18.2680 C   0  0  0  0  0  0  0  0  0  0  0  0
    5.3620   10.8900   19.3730 O   0  0  0  0  0  1  0  0  0  0  0  0
    3.6090    9.1770   17.5300 Br  0  0  0  0  0  0  0  0  0  0  0  0
    8.0880    9.0120   14.9590 C   0  0  0  0  0  0  0  0  0  0  0  0
    9.4190    9.3350   14.7940 C   0  0  0  0  0  0  0  0  0  0  0  0
   10.0280   10.1780   15.8300 C   0  0  0  0  0  0  0  0  0  0  0  0
   11.3750   10.4960   15.6480 C   0  0  1  0  0  3  0  0  0  0  0  0
   12.0630   10.0320   14.5520 C   0  0  0  0  0  0  0  0  0  0  0  0
   13.2750   10.3440   14.4310 O   0  0  0  0  0  0  0  0  0  0  0  0
   11.4570    9.2350   13.5860 C   0  0  0  0  0  0  0  0  0  0  0  0
   10.1440    8.8850   13.7010 C   0  0  0  0  0  3  0  0  0  0  0  0
   12.4900    8.6330   12.0940 Br  0  0  0  0  0  0  0  0  0  0  0  0
   12.2360   11.5980   16.9660 Br  0  0  0  0  0  0  0  0  0  0  0  0
    9.3650   10.6160   16.8740 O   0  0  0  0  0  0  0  0  0  0  0  0
    7.3960    8.1840   13.9710 C   0  0  0  0  0  0  0  0  0  0  0  0
    7.4270    6.8040   14.0620 C   0  0  0  0  0  0  0  0  0  0  0  0
    6.7880    6.0020   13.1410 C   0  0  0  0  0  3  0  0  0  0  0  0
    8.3100    6.0580   15.3980 Cl  0  0  0  0  0  0  0  0  0  0  0  0
    6.1020    6.6040   12.1060 C   0  0  0  0  0  3  0  0  0  0  0  0
    6.0460    7.9580   11.9780 C   0  0  0  0  0  0  0  0  0  0  0  0
    6.6910    8.7440   12.9080 C   0  0  0  0  0  0  0  0  0  0  0  0
    5.1500    8.6400   10.6310 Cl  0  0  0  0  0  0  0  0  0  0  0  0
    6.6410   10.1800   12.7770 C   0  0  0  0  0  0  0  0  0  0  0  0
    7.5220   10.8320   12.1510 O   0  0  0  0  0  0  0  0  0  0  0  0
    5.5990   10.9040   13.3510 O   0  0  0  0  0  1  0  0  0  0  0  0
  2  7  1  0  0  0  0
  2  1  1  0  0  0  0
  3  2  2  0  0  0  0
  4  5  1  0  0  0  0
  4  3  1  0  0  0  0
  5  6  1  0  0  0  0
  6  9  1  0  0  0  0
  6  7  2  0  0  0  0
  7  8  1  0  0  0  0
 10  4  2  0  0  0  0
 11 10  1  0  0  0  0
 11 12  2  0  0  0  0
 12 20  1  0  0  0  0
 13 12  1  0  0  0  0
 13 19  1  6  0  0  0
 14 13  1  0  0  0  0
 15 14  2  0  0  0  0
 16 17  2  0  0  0  0
 16 14  1  0  0  0  0
 17 11  1  0  0  0  0
 18 16  1  0  0  0  0
 20  3  1  0  0  0  0
 21 22  1  0  0  0  0
 21 10  1  0  0  0  0
 22 24  1  0  0  0  0
 23 22  2  0  0  0  0
 25 23  1  0  0  0  0
 26 25  2  0  0  0  0
 26 27  1  0  0  0  0
 27 21  2  0  0  0  0
 28 26  1  0  0  0  0
 29 27  1  0  0  0  0
 29 31  1  0  0  0  0
 30 29  2  0  0  0  0
M  END
>  <Pose>
1

>  <Score>
-7.190

$$$$
