/Users/jonathanwahrer/Desktop/Msc/3_Semester/Drug_Design_Praktikum/waehrer_HTS_screening/HTS_experiment/out/docking_results/vina_output/2jam/0971_docked.pdbqt
 OpenBabel03162218013D

 29 33  0  0  1  0  0  0  0  0999 V2000
    3.1760    8.4730   16.3050 Br  0  0  0  0  0  0  0  0  0  0  0  0
    4.5880    8.2360   15.0450 C   0  0  0  0  0  0  0  0  0  0  0  0
    5.8820    7.8630   15.4540 C   0  0  0  0  0  0  0  0  0  0  0  0
    6.9180    7.6840   14.5860 C   0  0  0  0  0  0  0  0  0  0  0  0
    6.6620    7.8850   13.2280 C   0  0  0  0  0  3  0  0  0  0  0  0
    5.4090    8.2470   12.8310 C   0  0  0  0  0  0  0  0  0  0  0  0
    4.3570    8.4290   13.7050 C   0  0  0  0  0  0  0  0  0  0  0  0
    3.0900    8.8020   13.2250 O   0  0  0  0  0  1  0  0  0  0  0  0
    5.0520    8.5230   10.9780 Br  0  0  0  0  0  0  0  0  0  0  0  0
    8.2470    7.2960   15.0390 C   0  0  1  0  0  0  0  0  0  0  0  0
    8.5180    6.0200   14.4630 O   0  0  0  0  0  0  0  0  0  0  0  0
    9.6140    6.0480   13.6450 C   0  0  0  0  0  0  0  0  0  0  0  0
   10.0760    5.0710   13.0130 O   0  0  0  0  0  0  0  0  0  0  0  0
   10.1010    7.4130   13.6770 C   0  0  0  0  0  0  0  0  0  0  0  0
    9.3120    8.1870   14.4970 C   0  0  0  0  0  0  0  0  0  0  0  0
    9.6300    9.4980   14.6410 C   0  0  0  0  0  3  0  0  0  0  0  0
   10.7180   10.0200   13.9730 C   0  0  0  0  0  3  0  0  0  0  0  0
   11.5100    9.2480   13.1510 C   0  0  0  0  0  3  0  0  0  0  0  0
   11.2020    7.9220   12.9960 C   0  0  0  0  0  3  0  0  0  0  0  0
    8.3490    7.1260   16.4850 C   0  0  0  0  0  0  0  0  0  0  0  0
    7.2730    7.3210   17.3060 C   0  0  0  0  0  0  0  0  0  0  0  0
    7.3900    7.1520   18.7010 C   0  0  0  0  0  0  0  0  0  0  0  0
    8.6090    6.7860   19.2230 C   0  0  0  0  0  0  0  0  0  0  0  0
    9.7050    6.5870   18.3970 C   0  0  0  0  0  0  0  0  0  0  0  0
    9.5840    6.7530   17.0460 C   0  0  0  0  0  3  0  0  0  0  0  0
   11.3990    6.0800   19.1060 Br  0  0  0  0  0  0  0  0  0  0  0  0
    8.7100    6.6230   20.5970 O   0  0  0  0  0  1  0  0  0  0  0  0
    5.8620    7.4330   19.8160 Br  0  0  0  0  0  0  0  0  0  0  0  0
    6.0210    7.6890   16.8340 O   0  0  0  0  0  0  0  0  0  0  0  0
  2  3  1  0  0  0  0
  2  1  1  0  0  0  0
  3 29  1  0  0  0  0
  4 10  1  0  0  0  0
  4  3  2  0  0  0  0
  5  4  1  0  0  0  0
  6  5  2  0  0  0  0
  6  7  1  0  0  0  0
  7  2  2  0  0  0  0
  8  7  1  0  0  0  0
  9  6  1  0  0  0  0
 10 11  1  6  0  0  0
 10 20  1  0  0  0  0
 12 14  1  0  0  0  0
 12 11  1  0  0  0  0
 13 12  2  0  0  0  0
 14 15  1  0  0  0  0
 15 16  2  0  0  0  0
 15 10  1  0  0  0  0
 17 16  1  0  0  0  0
 18 17  2  0  0  0  0
 19 18  1  0  0  0  0
 19 14  2  0  0  0  0
 20 25  2  0  0  0  0
 20 21  1  0  0  0  0
 21 22  2  0  0  0  0
 22 23  1  0  0  0  0
 22 28  1  0  0  0  0
 23 27  1  0  0  0  0
 24 26  1  0  0  0  0
 24 23  2  0  0  0  0
 25 24  1  0  0  0  0
 29 21  1  0  0  0  0
M  END
>  <Pose>
1

>  <Score>
-7.669

$$$$
