/Users/jonathanwahrer/Desktop/Msc/3_Semester/Drug_Design_Praktikum/waehrer_HTS_screening/HTS_experiment/out/docking_results/vina_output/2jam/0979_docked.pdbqt
 OpenBabel03162218013D

 29 33  0  0  1  0  0  0  0  0999 V2000
   12.6970    8.0920   17.7660 I   0  0  0  0  0  0  0  0  0  0  0  0
   11.9340    7.8800   15.8010 C   0  0  0  0  0  0  0  0  0  0  0  0
   10.5350    7.8210   15.6820 C   0  0  0  0  0  0  0  0  0  0  0  0
   10.0200    7.6850   14.4310 C   0  0  0  0  0  0  0  0  0  0  0  0
   10.8940    7.6110   13.3320 C   0  0  0  0  0  3  0  0  0  0  0  0
   12.2580    7.6700   13.4510 C   0  0  0  0  0  0  0  0  0  0  0  0
   12.7800    7.8080   14.7180 C   0  0  0  0  0  0  0  0  0  0  0  0
   14.1570    7.8710   14.8750 O   0  0  0  0  0  1  0  0  0  0  0  0
   13.5180    7.5540   11.7500 I   0  0  0  0  0  0  0  0  0  0  0  0
    8.5720    7.6130   14.2030 C   0  0  2  0  0  0  0  0  0  0  0  0
    8.2160    6.4750   13.4430 O   0  0  0  0  0  0  0  0  0  0  0  0
    7.6090    6.8040   12.2590 C   0  0  0  0  0  0  0  0  0  0  0  0
    7.1710    6.0430   11.3560 O   0  0  0  0  0  0  0  0  0  0  0  0
    7.5440    8.2580   12.2020 C   0  0  0  0  0  0  0  0  0  0  0  0
    8.1080    8.7420   13.3380 C   0  0  0  0  0  0  0  0  0  0  0  0
    8.1620   10.1300   13.5130 C   0  0  0  0  0  3  0  0  0  0  0  0
    7.6530   10.9700   12.5490 C   0  0  0  0  0  3  0  0  0  0  0  0
    7.0810   10.4800   11.3940 C   0  0  0  0  0  3  0  0  0  0  0  0
    7.0220    9.1200   11.2120 C   0  0  0  0  0  3  0  0  0  0  0  0
    7.7820    7.7030   15.4430 C   0  0  0  0  0  0  0  0  0  0  0  0
    8.3550    7.8380   16.6600 C   0  0  0  0  0  0  0  0  0  0  0  0
    7.5450    7.9160   17.7890 C   0  0  0  0  0  0  0  0  0  0  0  0
    6.1850    7.8580   17.6780 C   0  0  0  0  0  0  0  0  0  0  0  0
    5.5680    7.7220   16.4560 C   0  0  0  0  0  0  0  0  0  0  0  0
    6.3850    7.6470   15.3610 C   0  0  0  0  0  3  0  0  0  0  0  0
    3.4620    7.6330   16.2900 I   0  0  0  0  0  0  0  0  0  0  0  0
    5.4000    7.9390   18.8210 O   0  0  0  0  0  1  0  0  0  0  0  0
    8.4550    8.1280   19.6990 I   0  0  0  0  0  0  0  0  0  0  0  0
    9.7470    7.9020   16.8320 O   0  0  0  0  0  0  0  0  0  0  0  0
  2  1  1  0  0  0  0
  3  2  1  0  0  0  0
  3 29  1  0  0  0  0
  4  3  2  0  0  0  0
  5  6  2  0  0  0  0
  5  4  1  0  0  0  0
  6  7  1  0  0  0  0
  7  8  1  0  0  0  0
  7  2  2  0  0  0  0
  9  6  1  0  0  0  0
 10 15  1  6  0  0  0
 10  4  1  0  0  0  0
 10 20  1  0  0  0  0
 11 10  1  0  0  0  0
 12 11  1  0  0  0  0
 13 12  2  0  0  0  0
 14 12  1  0  0  0  0
 14 15  1  0  0  0  0
 15 16  2  0  0  0  0
 17 16  1  0  0  0  0
 18 17  2  0  0  0  0
 19 18  1  0  0  0  0
 19 14  2  0  0  0  0
 20 21  1  0  0  0  0
 21 29  1  0  0  0  0
 21 22  2  0  0  0  0
 22 28  1  0  0  0  0
 23 22  1  0  0  0  0
 23 27  1  0  0  0  0
 24 23  2  0  0  0  0
 25 20  2  0  0  0  0
 25 24  1  0  0  0  0
 26 24  1  0  0  0  0
M  END
>  <Pose>
1

>  <Score>
-7.604

$$$$
