/Users/jonathanwahrer/Desktop/Msc/3_Semester/Drug_Design_Praktikum/waehrer_HTS_screening/HTS_experiment/out/docking_results/vina_output/2jam/0991_docked.pdbqt
 OpenBabel03162218023D

 34 39  0  0  1  0  0  0  0  0999 V2000
    9.0590    7.4430   12.4750 N   0  0  0  0  0  0  0  0  0  0  0  0
    9.7950    6.4570   11.9040 C   0  0  0  0  0  0  0  0  0  0  0  0
   11.1400    6.7510   11.9750 C   0  0  0  0  0  0  0  0  0  0  0  0
   11.2080    7.9430   12.6050 N   0  0  0  0  0  0  0  0  0  0  0  0
    9.9570    8.3500   12.8990 C   0  0  0  0  0  0  0  0  0  0  0  0
    9.4480    9.9650   13.7890 Br  0  0  0  0  0  0  0  0  0  0  0  0
   12.0590    5.8660   11.4470 C   0  0  0  0  0  0  0  0  0  0  0  0
   13.2820    6.1230   11.5060 O   0  0  0  0  0  0  0  0  0  0  0  0
   11.6870    4.7080   10.8550 N   0  0  0  0  0  0  0  0  0  0  0  0
   10.3700    4.4420   10.7960 C   0  0  0  0  0  0  0  0  0  0  0  0
   10.2650    3.2550   10.1720 N   0  0  0  0  0  0  0  0  0  0  0  0
   11.4700    2.7600    9.8340 C   0  0  0  0  0  0  0  0  0  0  0  0
   12.3850    3.6950   10.2720 C   0  0  0  0  0  3  0  0  0  0  0  0
    9.4470    5.3020   11.3120 N   0  0  0  0  0  0  0  0  0  0  0  0
    8.4250    5.0900   11.2640 H   0  0  0  0  0  0  0  0  0  0  0  0
    7.6060    7.5160   12.6050 C   0  0  2  0  0  3  0  0  0  0  0  0
    7.1450    8.8030   12.3410 O   0  0  0  0  0  0  0  0  0  0  0  0
    5.9550    8.9700   12.9940 C   0  0  1  0  0  3  0  0  0  0  0  0
    6.1370    8.1990   14.3030 C   0  0  1  0  0  3  0  0  0  0  0  0
    5.6610   10.3990   13.3810 C   0  0  0  0  0  2  0  0  0  0  0  0
    4.8800    7.7030   14.6350 O   0  0  0  0  0  0  0  0  0  0  0  0
    7.1250    7.1250   13.9590 C   0  0  1  0  0  3  0  0  0  0  0  0
    3.7740    8.9630   14.3570 P   0  0  1  0  0  0  0  0  0  0  0  0
    2.7370    9.0790   15.7460 S   0  0  0  0  0  1  0  0  0  0  0  0
    4.5590   10.4510   14.2030 O   0  0  0  0  0  0  0  0  0  0  0  0
    2.8840    8.7070   12.9440 O   0  0  0  0  0  0  0  0  0  0  0  0
    6.4990    5.8720   13.9340 O   0  0  0  0  0  0  0  0  0  0  0  0
    5.8160    5.7870   14.6300 H   0  0  0  0  0  0  0  0  0  0  0  0
   11.7570    1.4960    9.1440 C   0  0  0  0  0  0  0  0  0  0  0  0
   10.7810    0.5330    9.0240 C   0  0  0  0  0  3  0  0  0  0  0  0
   11.0220   -0.6720    8.3770 C   0  0  0  0  0  3  0  0  0  0  0  0
   12.2710   -0.8990    7.8450 C   0  0  0  0  0  3  0  0  0  0  0  0
   13.2820    0.0450    7.9430 C   0  0  0  0  0  3  0  0  0  0  0  0
   12.9860    1.2220    8.5960 C   0  0  0  0  0  3  0  0  0  0  0  0
  1  5  1  0  0  0  0
  2  3  2  0  0  0  0
  2  1  1  0  0  0  0
  3  4  1  0  0  0  0
  4  5  2  0  0  0  0
  5  6  1  0  0  0  0
  7  8  2  0  0  0  0
  7  3  1  0  0  0  0
  9  7  1  0  0  0  0
 10  9  1  0  0  0  0
 10 14  1  0  0  0  0
 11 10  2  0  0  0  0
 12 11  1  0  0  0  0
 12 13  2  0  0  0  0
 13  9  1  0  0  0  0
 14  2  1  0  0  0  0
 15 14  1  0  0  0  0
 16  1  1  1  0  0  0
 16 22  1  0  0  0  0
 17 16  1  0  0  0  0
 17 18  1  0  0  0  0
 18 20  1  1  0  0  0
 18 19  1  0  0  0  0
 19 21  1  6  0  0  0
 20 25  1  0  0  0  0
 22 27  1  6  0  0  0
 22 19  1  0  0  0  0
 23 26  2  6  0  0  0
 23 21  1  0  0  0  0
 23 24  1  0  0  0  0
 25 23  1  0  0  0  0
 27 28  1  0  0  0  0
 29 12  1  0  0  0  0
 30 29  1  0  0  0  0
 31 30  2  0  0  0  0
 32 33  2  0  0  0  0
 32 31  1  0  0  0  0
 33 34  1  0  0  0  0
 34 29  2  0  0  0  0
M  END
>  <Pose>
1

>  <Score>
-10.652

$$$$
