/Users/jonathanwahrer/Desktop/Msc/3_Semester/Drug_Design_Praktikum/waehrer_HTS_screening/HTS_experiment/out/docking_results/vina_output/2jam/1001_docked.pdbqt
 OpenBabel03162218033D

 26 29  0  0  1  0  0  0  0  0999 V2000
    9.2530    7.1960   11.7520 P   0  0  2  0  0  0  0  0  0  0  0  0
    8.7640    8.4740   11.0680 O   0  0  0  0  0  0  0  0  0  0  0  0
   10.9280    7.1730   11.6420 O   0  0  0  0  0  0  0  0  0  0  0  0
   11.3970    5.9530   11.2280 C   0  0  2  0  0  3  0  0  0  0  0  0
   10.4480    4.8980   11.8140 C   0  0  2  0  0  3  0  0  0  0  0  0
   11.1880    3.7630   11.9670 O   0  0  0  0  0  0  0  0  0  0  0  0
   12.5110    4.0810   12.1010 C   0  0  2  0  0  3  0  0  0  0  0  0
   12.6950    5.5410   11.8690 C   0  0  2  0  0  3  0  0  0  0  0  0
    9.3040    4.7920   10.8570 C   0  0  0  0  0  2  0  0  0  0  0  0
    8.5130    5.9080   10.9910 O   0  0  0  0  0  0  0  0  0  0  0  0
    8.7730    7.3350   13.3880 O   0  0  0  0  0  1  0  0  0  0  0  0
   13.2630    3.2610   11.1600 N   0  0  0  0  0  0  0  0  0  0  0  0
   12.7340    2.3850   10.2740 C   0  0  0  0  0  0  0  0  0  0  0  0
   11.4580    2.0460   10.0260 N   0  0  0  0  0  0  0  0  0  0  0  0
   13.7660    1.8070    9.5660 C   0  0  0  0  0  0  0  0  0  0  0  0
   11.1910    1.1330    9.0770 C   0  0  0  0  0  3  0  0  0  0  0  0
   12.2000    0.5700    8.3880 N   0  0  0  0  0  0  0  0  0  0  0  0
   13.4950    0.8600    8.5810 C   0  0  0  0  0  0  0  0  0  0  0  0
   14.9080    2.3220   10.0130 N   0  0  0  0  0  0  0  0  0  0  0  0
   14.5920    3.2030   10.9800 C   0  0  0  0  0  0  0  0  0  0  0  0
   15.8210    4.2740   12.0110 Br  0  0  0  0  0  0  0  0  0  0  0  0
   14.5680    0.2730    7.8590 N   0  0  0  0  0  0  0  0  0  0  0  0
   14.4450   -0.7240    7.5120 H   0  0  0  0  0  0  0  0  0  0  0  0
   15.4530    0.7440    7.6480 H   0  0  0  0  0  0  0  0  0  0  0  0
   12.9140    6.2670   13.0230 O   0  0  0  0  0  0  0  0  0  0  0  0
   13.0830    7.2100   12.8700 H   0  0  0  0  0  0  0  0  0  0  0  0
  1  2  2  6  0  0  0
  1 11  1  0  0  0  0
  3  1  1  0  0  0  0
  4  3  1  1  0  0  0
  4  5  1  0  0  0  0
  4  8  1  0  0  0  0
  5  9  1  6  0  0  0
  5  6  1  0  0  0  0
  6  7  1  0  0  0  0
  7 12  1  6  0  0  0
  8  7  1  0  0  0  0
  8 25  1  1  0  0  0
  9 10  1  0  0  0  0
 10  1  1  0  0  0  0
 13 12  1  0  0  0  0
 14 13  1  0  0  0  0
 15 19  1  0  0  0  0
 15 13  2  0  0  0  0
 16 14  2  0  0  0  0
 17 18  2  0  0  0  0
 17 16  1  0  0  0  0
 18 15  1  0  0  0  0
 19 20  2  0  0  0  0
 20 12  1  0  0  0  0
 20 21  1  0  0  0  0
 22 18  1  0  0  0  0
 23 22  1  0  0  0  0
 24 22  1  0  0  0  0
 26 25  1  0  0  0  0
M  END
>  <Pose>
1

>  <Score>
-7.860

$$$$
