/Users/jonathanwahrer/Desktop/Msc/3_Semester/Drug_Design_Praktikum/waehrer_HTS_screening/HTS_experiment/out/docking_results/vina_output/2jam/1028_docked.pdbqt
 OpenBabel03162218043D

 25 28  0  0  1  0  0  0  0  0999 V2000
   12.0750    3.8730    9.7940 N   0  0  0  0  0  0  0  0  0  0  0  0
   10.7070    3.8940   10.1680 C   0  0  0  0  0  2  0  0  0  0  0  0
   11.0100    4.7260   11.3530 C   0  0  1  0  0  3  0  0  0  0  0  0
   12.3860    4.8300   10.7950 C   0  0  0  0  0  2  0  0  0  0  0  0
   10.3380    6.0090   11.4320 N   0  0  0  0  0  0  0  0  0  0  0  0
    9.8110    6.7120   10.4630 N   0  0  0  0  0  0  0  0  0  0  0  0
    9.2830    7.8460   10.9440 N   0  0  0  0  0  0  0  0  0  0  0  0
    9.4760    7.8790   12.2740 C   0  0  0  0  0  0  0  0  0  0  0  0
   10.1490    6.7020   12.5670 C   0  0  0  0  0  3  0  0  0  0  0  0
    9.0580    8.9500   13.2400 C   0  0  0  0  0  2  0  0  0  0  0  0
    7.6080    9.0220   13.2220 N   0  0  0  0  0  0  0  0  0  0  0  0
    6.7140    7.9350   13.4830 C   0  0  0  0  0  2  0  0  0  0  0  0
    5.3290    8.5130   13.4250 C   0  0  0  0  0  2  0  0  0  0  0  0
    5.4410   10.0030   13.3810 C   0  0  0  0  0  2  0  0  0  0  0  0
    6.8640   10.2030   12.9370 C   0  0  0  0  0  0  0  0  0  0  0  0
    7.2750   11.2520   12.4090 O   0  0  0  0  0  0  0  0  0  0  0  0
   12.9410    2.4260    9.8800 S   0  0  0  0  0  0  0  0  0  0  0  0
   13.0870    2.0310   11.3210 O   0  0  0  0  0  0  0  0  0  0  0  0
   14.3410    2.5680    9.3320 O   0  0  0  0  0  0  0  0  0  0  0  0
   12.1520    1.0800    9.0610 C   0  0  0  0  0  0  0  0  0  0  0  0
   10.5310    0.5460    9.2340 S   0  0  0  0  0  0  0  0  0  0  0  0
   10.5550   -0.7630    8.1380 C   0  0  0  0  0  0  0  0  0  0  0  0
   11.8420   -0.7400    7.6670 C   0  0  0  0  0  3  0  0  0  0  0  0
    9.1450   -1.9850    7.6590 Br  0  0  0  0  0  0  0  0  0  0  0  0
   12.6540    0.2060    8.1430 C   0  0  0  0  0  3  0  0  0  0  0  0
  1 17  1  0  0  0  0
  1  2  1  0  0  0  0
  1  4  1  0  0  0  0
  3  2  1  6  0  0  0
  3  5  1  0  0  0  0
  4  3  1  0  0  0  0
  5  9  1  0  0  0  0
  6  7  2  0  0  0  0
  6  5  1  0  0  0  0
  7  8  1  0  0  0  0
  8  9  2  0  0  0  0
  8 10  1  0  0  0  0
 11 10  1  0  0  0  0
 11 12  1  0  0  0  0
 13 12  1  0  0  0  0
 14 13  1  0  0  0  0
 15 11  1  0  0  0  0
 15 14  1  0  0  0  0
 16 15  2  0  0  0  0
 17 18  2  0  0  0  0
 19 17  2  0  0  0  0
 20 21  1  0  0  0  0
 20 17  1  0  0  0  0
 22 21  1  0  0  0  0
 23 22  2  0  0  0  0
 23 25  1  0  0  0  0
 24 22  1  0  0  0  0
 25 20  2  0  0  0  0
M  END
>  <Pose>
1

>  <Score>
-8.342

$$$$
