/Users/jonathanwahrer/Desktop/Msc/3_Semester/Drug_Design_Praktikum/waehrer_HTS_screening/HTS_experiment/out/docking_results/vina_output/2jam/1037_docked.pdbqt
 OpenBabel03162218043D

 31 34  0  0  0  0  0  0  0  0999 V2000
    9.8910    7.0120   12.1930 N   0  0  0  0  0  0  0  0  0  0  0  0
   10.1820    6.0430   13.1940 C   0  0  0  0  0  3  0  0  0  0  0  0
   10.5840    4.7050   12.7770 C   0  0  0  0  0  3  0  0  0  0  0  0
   10.9780    4.5030   11.3960 N   0  0  0  0  0  0  0  0  0  0  0  0
   10.7200    5.5050   10.4080 C   0  0  0  0  0  2  0  0  0  0  0  0
   10.6690    6.9030   11.0130 C   0  0  0  0  0  2  0  0  0  0  0  0
   11.6370    3.3160   11.0720 C   0  0  0  0  0  0  0  0  0  0  0  0
   11.8920    2.5960   12.1850 O   0  0  0  0  0  0  0  0  0  0  0  0
    8.2540    7.3780   11.9560 S   0  0  0  0  0  0  0  0  0  0  0  0
    7.5840    6.2250   11.2610 O   0  0  0  0  0  0  0  0  0  0  0  0
    8.1060    8.5730   11.0300 O   0  0  0  0  0  0  0  0  0  0  0  0
    7.3530    7.6450   13.4340 C   0  0  0  0  0  0  0  0  0  0  0  0
    7.4930    8.8460   14.1290 C   0  0  0  0  0  3  0  0  0  0  0  0
    6.8220    9.1100   15.3030 C   0  0  0  0  0  0  0  0  0  0  0  0
    5.9670    8.1800   15.8510 C   0  0  0  0  0  0  0  0  0  0  0  0
    6.9910   10.3510   16.0090 N   0  0  0  0  0  0  0  0  0  0  0  0
    5.8240    6.9910   15.1700 C   0  0  0  0  0  3  0  0  0  0  0  0
    5.2790    8.4400   17.0520 O   0  0  0  0  0  0  0  0  0  0  0  0
    6.4980    6.7170   13.9850 C   0  0  0  0  0  3  0  0  0  0  0  0
    5.0090    9.8010   17.4330 C   0  0  0  0  0  2  0  0  0  0  0  0
    6.2800   10.5410   17.2190 C   0  0  0  0  0  0  0  0  0  0  0  0
    6.7490   11.3290   18.0710 O   0  0  0  0  0  0  0  0  0  0  0  0
    7.6320   11.0410   15.5910 H   0  0  0  0  0  0  0  0  0  0  0  0
   12.0840    2.7220    9.8450 C   0  0  0  0  0  2  0  0  0  0  0  0
   11.5430    1.4510    9.3710 C   0  0  0  0  0  0  0  0  0  0  0  0
   12.3320    0.5380    8.7140 C   0  0  0  0  0  0  0  0  0  0  0  0
   11.8050   -0.6750    8.2720 C   0  0  0  0  0  3  0  0  0  0  0  0
   14.1820    0.9160    8.3810 Br  0  0  0  0  0  0  0  0  0  0  0  0
   10.4900   -0.9580    8.4960 C   0  0  0  0  0  3  0  0  0  0  0  0
    9.6840   -0.0350    9.1650 C   0  0  0  0  0  3  0  0  0  0  0  0
   10.2000    1.1460    9.5940 C   0  0  0  0  0  3  0  0  0  0  0  0
  1  2  1  0  0  0  0
  3  2  2  0  0  0  0
  4  3  1  0  0  0  0
  5  6  1  0  0  0  0
  5  4  1  0  0  0  0
  6  1  1  0  0  0  0
  7  4  1  0  0  0  0
  7  8  2  0  0  0  0
  9  1  1  0  0  0  0
  9 12  1  0  0  0  0
 10  9  2  0  0  0  0
 11  9  2  0  0  0  0
 12 19  2  0  0  0  0
 12 13  1  0  0  0  0
 13 14  2  0  0  0  0
 14 15  1  0  0  0  0
 14 16  1  0  0  0  0
 15 18  1  0  0  0  0
 16 21  1  0  0  0  0
 17 15  2  0  0  0  0
 18 20  1  0  0  0  0
 19 17  1  0  0  0  0
 21 20  1  0  0  0  0
 21 22  2  0  0  0  0
 23 16  1  0  0  0  0
 24  7  1  0  0  0  0
 25 31  1  0  0  0  0
 25 24  1  0  0  0  0
 26 25  2  0  0  0  0
 27 29  2  0  0  0  0
 27 26  1  0  0  0  0
 28 26  1  0  0  0  0
 29 30  1  0  0  0  0
 30 31  2  0  0  0  0
M  END
>  <Pose>
1

>  <Score>
-9.893

$$$$
