/Users/jonathanwahrer/Desktop/Msc/3_Semester/Drug_Design_Praktikum/waehrer_HTS_screening/HTS_experiment/out/docking_results/vina_output/2jam/1040_docked.pdbqt
 OpenBabel03162218043D

 34 38  0  0  0  0  0  0  0  0999 V2000
    9.0960    7.8810   12.0390 S   0  0  0  0  0  0  0  0  0  0  0  0
    9.1990    8.2850   10.6190 O   0  0  0  0  0  0  0  0  0  0  0  0
   10.2250    8.6400   12.7460 O   0  0  0  0  0  0  0  0  0  0  0  0
    9.4540    6.2210   12.3160 N   0  0  0  0  0  0  0  0  0  0  0  0
   10.8280    5.9560   12.5720 C   0  0  0  0  0  2  0  0  0  0  0  0
   11.6610    5.7140   11.3200 C   0  0  0  0  0  2  0  0  0  0  0  0
   11.0210    4.7200   10.5260 N   0  0  0  0  0  0  0  0  0  0  0  0
    9.6440    5.1370   10.1070 C   0  0  0  0  0  2  0  0  0  0  0  0
   11.4410    3.4780   10.0930 C   0  0  0  0  0  0  0  0  0  0  0  0
    8.8670    5.3430   11.3630 C   0  0  0  0  0  2  0  0  0  0  0  0
   10.5620    2.8190    9.3650 O   0  0  0  0  0  0  0  0  0  0  0  0
   12.6710    2.7690   10.2950 C   0  0  0  0  0  2  0  0  0  0  0  0
   13.7190    3.3680   11.0380 N   0  0  0  0  0  0  0  0  0  0  0  0
   13.6450    3.9380   12.2400 N   0  0  0  0  0  0  0  0  0  0  0  0
   14.8490    4.3600   12.6440 C   0  0  0  0  0  3  0  0  0  0  0  0
   15.7220    4.0340   11.6350 C   0  0  0  0  0  0  0  0  0  0  0  0
   15.0180    3.4200   10.6430 C   0  0  0  0  0  3  0  0  0  0  0  0
   17.6140    4.3820   11.6200 Br  0  0  0  0  0  0  0  0  0  0  0  0
    7.6370    8.3790   12.8380 C   0  0  0  0  0  0  0  0  0  0  0  0
    6.3920    8.3640   12.1940 C   0  0  0  0  0  0  0  0  0  0  0  0
    5.2370    8.7640   12.8350 C   0  0  0  0  0  0  0  0  0  0  0  0
    6.0930    7.9760   10.8910 O   0  0  0  0  0  0  0  0  0  0  0  0
    5.2620    9.1970   14.1450 C   0  0  0  0  0  0  0  0  0  0  0  0
    4.1990    8.6310   11.9380 O   0  0  0  0  0  0  0  0  0  0  0  0
    6.4730    9.2170   14.7790 C   0  0  0  0  0  0  0  0  0  0  0  0
    7.6300    8.8100   14.1210 C   0  0  0  0  0  0  0  0  0  0  0  0
    6.6640    9.6510   16.1810 C   0  0  0  0  0  2  0  0  0  0  0  0
    8.8580    8.8970   14.9290 C   0  0  0  0  0  2  0  0  0  0  0  0
    8.6570    8.2600   16.2870 C   0  0  0  0  0  2  0  0  0  0  0  0
    7.4100    8.6260   16.8420 N   0  0  0  0  0  0  0  0  0  0  0  0
    6.6400    7.5890   17.4330 C   0  0  0  0  0  1  0  0  0  0  0  0
    4.7200    8.2750   10.6890 C   0  0  0  0  0  2  0  0  0  0  0  0
    4.0860    9.6080   14.8060 O   0  0  0  0  0  0  0  0  0  0  0  0
    3.1960    8.6010   15.3100 C   0  0  0  0  0  1  0  0  0  0  0  0
  1  4  1  0  0  0  0
  1  3  2  0  0  0  0
  1 19  1  0  0  0  0
  2  1  2  0  0  0  0
  4  5  1  0  0  0  0
  6  5  1  0  0  0  0
  7  6  1  0  0  0  0
  8  7  1  0  0  0  0
  8 10  1  0  0  0  0
  9 12  1  0  0  0  0
  9  7  1  0  0  0  0
 10  4  1  0  0  0  0
 11  9  2  0  0  0  0
 12 13  1  0  0  0  0
 13 14  1  0  0  0  0
 14 15  2  0  0  0  0
 16 15  1  0  0  0  0
 17 13  1  0  0  0  0
 17 16  2  0  0  0  0
 18 16  1  0  0  0  0
 19 26  1  0  0  0  0
 20 21  1  0  0  0  0
 20 19  2  0  0  0  0
 21 23  2  0  0  0  0
 22 20  1  0  0  0  0
 23 25  1  0  0  0  0
 23 33  1  0  0  0  0
 24 21  1  0  0  0  0
 25 27  1  0  0  0  0
 26 25  2  0  0  0  0
 26 28  1  0  0  0  0
 27 30  1  0  0  0  0
 28 29  1  0  0  0  0
 29 30  1  0  0  0  0
 30 31  1  0  0  0  0
 32 22  1  0  0  0  0
 32 24  1  0  0  0  0
 33 34  1  0  0  0  0
M  END
>  <Pose>
1

>  <Score>
-8.924

$$$$
