/Users/jonathanwahrer/Desktop/Msc/3_Semester/Drug_Design_Praktikum/waehrer_HTS_screening/HTS_experiment/out/docking_results/vina_output/2jam/1043_docked.pdbqt
 OpenBabel03162218053D

 31 34  0  0  0  0  0  0  0  0999 V2000
   10.6090    5.9490   11.7050 N   0  0  0  0  0  0  0  0  0  0  0  0
   11.6670    5.9590   12.6920 C   0  0  0  0  0  2  0  0  0  0  0  0
   11.5620    7.1650   13.5930 C   0  0  0  0  0  2  0  0  0  0  0  0
   10.1790    7.1940   14.1100 N   0  0  0  0  0  0  0  0  0  0  0  0
    9.1530    7.2080   13.1140 C   0  0  0  0  0  2  0  0  0  0  0  0
    9.8530    7.1520   11.7360 C   0  0  0  0  0  2  0  0  0  0  0  0
    9.9330    7.2010   15.4910 C   0  0  0  0  0  0  0  0  0  0  0  0
   11.0180    7.1710   16.2390 O   0  0  0  0  0  0  0  0  0  0  0  0
    8.7210    7.2340   16.2690 C   0  0  0  0  0  2  0  0  0  0  0  0
    7.4470    7.2780   15.6230 N   0  0  0  0  0  0  0  0  0  0  0  0
    6.7670    6.1960   14.9350 C   0  0  0  0  0  0  0  0  0  0  0  0
    7.2530    5.0340   14.8460 O   0  0  0  0  0  0  0  0  0  0  0  0
    5.5420    6.7040   14.4340 N   0  0  0  0  0  0  0  0  0  0  0  0
    5.6480    8.1240   14.4110 C   0  0  0  0  0  0  0  0  0  0  0  0
    4.7420    6.0750   14.1490 H   0  0  0  0  0  0  0  0  0  0  0  0
    6.1030    8.6700   13.0790 C   0  0  0  0  0  2  0  0  0  0  0  0
    4.3070    8.8160   14.5860 C   0  0  0  0  0  2  0  0  0  0  0  0
    6.5750    8.4210   15.5020 C   0  0  0  0  0  0  0  0  0  0  0  0
    5.8070   10.1490   13.2430 C   0  0  0  0  0  2  0  0  0  0  0  0
    4.6490   10.2370   14.2070 C   0  0  0  0  0  2  0  0  0  0  0  0
    6.6350    9.4540   16.2160 O   0  0  0  0  0  0  0  0  0  0  0  0
   11.1430    5.4850   10.1520 S   0  0  0  0  0  0  0  0  0  0  0  0
   12.4910    6.1460    9.9300 O   0  0  0  0  0  0  0  0  0  0  0  0
   10.2230    6.0740    9.1120 O   0  0  0  0  0  0  0  0  0  0  0  0
   11.2530    3.7530    9.9510 C   0  0  0  0  0  0  0  0  0  0  0  0
   12.4480    3.1180    9.6780 C   0  0  0  0  0  3  0  0  0  0  0  0
   12.5250    1.7390    9.5190 C   0  0  0  0  0  3  0  0  0  0  0  0
   11.4040    0.9580    9.6320 C   0  0  0  0  0  0  0  0  0  0  0  0
   10.2040    1.5790    9.9050 C   0  0  0  0  0  3  0  0  0  0  0  0
   11.5020   -0.9540    9.4150 Br  0  0  0  0  0  0  0  0  0  0  0  0
   10.1340    2.9550   10.0630 C   0  0  0  0  0  3  0  0  0  0  0  0
  1  6  1  0  0  0  0
  1  2  1  0  0  0  0
  2  3  1  0  0  0  0
  3  4  1  0  0  0  0
  4  7  1  0  0  0  0
  5  4  1  0  0  0  0
  6  5  1  0  0  0  0
  7  8  2  0  0  0  0
  7  9  1  0  0  0  0
 10  9  1  0  0  0  0
 11 10  1  0  0  0  0
 12 11  2  0  0  0  0
 13 11  1  0  0  0  0
 14 13  1  0  0  0  0
 14 17  1  0  0  0  0
 14 18  1  0  0  0  0
 15 13  1  0  0  0  0
 16 19  1  0  0  0  0
 16 14  1  0  0  0  0
 18 10  1  0  0  0  0
 18 21  2  0  0  0  0
 19 20  1  0  0  0  0
 20 17  1  0  0  0  0
 22  1  1  0  0  0  0
 23 22  2  0  0  0  0
 24 22  2  0  0  0  0
 25 31  1  0  0  0  0
 25 22  1  0  0  0  0
 26 25  2  0  0  0  0
 27 28  2  0  0  0  0
 27 26  1  0  0  0  0
 28 29  1  0  0  0  0
 29 31  2  0  0  0  0
 30 28  1  0  0  0  0
M  END
>  <Pose>
1

>  <Score>
-8.803

$$$$
