/Users/jonathanwahrer/Desktop/Msc/3_Semester/Drug_Design_Praktikum/waehrer_HTS_screening/HTS_experiment/out/docking_results/vina_output/2jam/1076_docked.pdbqt
 OpenBabel03162218063D

 29 32  0  0  0  0  0  0  0  0999 V2000
   10.6640    6.1300   12.3020 N   0  0  0  0  0  0  0  0  0  0  0  0
   10.2010    6.3320   10.9650 C   0  0  0  0  0  2  0  0  0  0  0  0
   11.0860    5.4410   10.0750 C   0  0  0  0  0  2  0  0  0  0  0  0
   12.3740    5.3020   10.6010 N   0  0  0  0  0  0  0  0  0  0  0  0
   12.8800    6.4210   11.3480 C   0  0  0  0  0  2  0  0  0  0  0  0
   11.9110    6.9090   12.4010 C   0  0  0  0  0  2  0  0  0  0  0  0
   12.8750    4.0470   10.9760 C   0  0  0  0  0  2  0  0  0  0  0  0
   12.3930    2.8880   10.2970 N   0  0  0  0  0  0  0  0  0  0  0  0
   11.0600    2.4370   10.4770 N   0  0  0  0  0  0  0  0  0  0  0  0
   10.9290    1.2850    9.6480 C   0  0  0  0  0  0  0  0  0  0  0  0
   10.3260    2.8600   11.0920 H   0  0  0  0  0  0  0  0  0  0  0  0
    9.8040    0.5860    9.5560 C   0  0  0  0  0  3  0  0  0  0  0  0
   12.1380    1.0080    8.9590 N   0  0  0  0  0  0  0  0  0  0  0  0
    9.3950   -0.6170    8.7970 C   0  0  0  0  0  2  0  0  0  0  0  0
   10.5840   -1.5000    8.5010 C   0  0  0  0  0  2  0  0  0  0  0  0
   11.3900   -0.7770    7.4360 C   0  0  0  0  0  2  0  0  0  0  0  0
   12.5290   -0.0060    8.0280 C   0  0  0  0  0  2  0  0  0  0  0  0
   13.0450    2.0230    9.3790 C   0  0  0  0  0  0  0  0  0  0  0  0
   14.2310    2.1020    8.9730 O   0  0  0  0  0  0  0  0  0  0  0  0
    9.6090    6.7380   13.5040 S   0  0  0  0  0  0  0  0  0  0  0  0
   10.3590    7.3170   14.6750 O   0  0  0  0  0  0  0  0  0  0  0  0
    8.8210    5.5660   14.0420 O   0  0  0  0  0  0  0  0  0  0  0  0
    8.4870    7.9070   12.9220 C   0  0  0  0  0  0  0  0  0  0  0  0
    7.3260    7.6460   12.2560 C   0  0  0  0  0  3  0  0  0  0  0  0
    6.4900    8.6670   11.8280 C   0  0  0  0  0  0  0  0  0  0  0  0
    6.7920    9.9760   12.0560 C   0  0  0  0  0  3  0  0  0  0  0  0
    4.8580    8.2750   10.8910 Br  0  0  0  0  0  0  0  0  0  0  0  0
    7.9660   10.2730   12.7310 C   0  0  0  0  0  3  0  0  0  0  0  0
    8.7860    9.2550   13.1480 C   0  0  0  0  0  3  0  0  0  0  0  0
  1  6  1  0  0  0  0
  1 20  1  0  0  0  0
  2  1  1  0  0  0  0
  3  4  1  0  0  0  0
  3  2  1  0  0  0  0
  4  7  1  0  0  0  0
  4  5  1  0  0  0  0
  5  6  1  0  0  0  0
  8  9  1  0  0  0  0
  8  7  1  0  0  0  0
  9 11  1  0  0  0  0
 10  9  1  0  0  0  0
 12 10  2  0  0  0  0
 13 18  1  0  0  0  0
 13 10  1  0  0  0  0
 14 12  1  0  0  0  0
 15 14  1  0  0  0  0
 16 17  1  0  0  0  0
 16 15  1  0  0  0  0
 17 13  1  0  0  0  0
 18  8  1  0  0  0  0
 19 18  2  0  0  0  0
 20 22  2  0  0  0  0
 20 21  2  0  0  0  0
 23 29  1  0  0  0  0
 23 20  1  0  0  0  0
 24 23  2  0  0  0  0
 25 26  2  0  0  0  0
 25 24  1  0  0  0  0
 26 28  1  0  0  0  0
 27 25  1  0  0  0  0
 28 29  2  0  0  0  0
M  END
>  <Pose>
1

>  <Score>
-9.332

$$$$
