/Users/jonathanwahrer/Desktop/Msc/3_Semester/Drug_Design_Praktikum/waehrer_HTS_screening/HTS_experiment/out/docking_results/vina_output/2jam/1081_docked.pdbqt
 OpenBabel03162218063D

 27 30  0  0  0  0  0  0  0  0999 V2000
    8.8330    6.4560   13.3960 N   0  0  0  0  0  0  0  0  0  0  0  0
    7.8000    5.6950   13.9870 C   0  0  0  0  0  2  0  0  0  0  0  0
    6.5830    6.4340   14.4330 C   0  0  0  0  0  2  0  0  0  0  0  0
    6.6230    7.8550   14.1910 N   0  0  0  0  0  0  0  0  0  0  0  0
    7.8660    8.5480   14.2930 C   0  0  0  0  0  3  0  0  0  0  0  0
    9.0620    7.7660   13.8770 C   0  0  0  0  0  3  0  0  0  0  0  0
    5.3850    8.5030   13.8640 C   0  0  0  0  0  0  0  0  0  0  0  0
    4.5170    9.0300   14.7450 N   0  0  0  0  0  0  0  0  0  0  0  0
    3.5100    9.5080   14.0040 N   0  0  0  0  0  0  0  0  0  0  0  0
    3.7490    9.2850   12.7310 N   0  0  0  0  0  0  0  0  0  0  0  0
    4.9030    8.6640   12.6030 N   0  0  0  0  0  0  0  0  0  0  0  0
    4.6540    9.0760   16.1580 C   0  0  0  0  0  0  0  0  0  0  0  0
    5.4180   10.0420   16.7710 C   0  0  0  0  0  3  0  0  0  0  0  0
    5.5330   10.0600   18.1610 C   0  0  0  0  0  3  0  0  0  0  0  0
    4.8930    9.1250   18.9440 C   0  0  0  0  0  3  0  0  0  0  0  0
    4.1160    8.1410   18.3200 C   0  0  0  0  0  3  0  0  0  0  0  0
    4.0130    8.1390   16.9280 C   0  0  0  0  0  3  0  0  0  0  0  0
    9.0990    6.2370   11.7310 S   0  0  0  0  0  0  0  0  0  0  0  0
    9.5020    7.4530   10.9970 O   0  0  0  0  0  0  0  0  0  0  0  0
    7.7870    5.7750   11.1090 O   0  0  0  0  0  0  0  0  0  0  0  0
   10.2560    4.9580   11.4800 C   0  0  0  0  0  0  0  0  0  0  0  0
   10.9820    4.3980   12.5000 C   0  0  0  0  0  3  0  0  0  0  0  0
   11.9040    3.3730   12.2860 C   0  0  0  0  0  3  0  0  0  0  0  0
   12.0820    2.9100   10.9780 C   0  0  0  0  0  0  0  0  0  0  0  0
   11.3590    3.4660    9.9460 C   0  0  0  0  0  3  0  0  0  0  0  0
   13.3270    1.5050   10.6110 Br  0  0  0  0  0  0  0  0  0  0  0  0
   10.4650    4.4690   10.1980 C   0  0  0  0  0  3  0  0  0  0  0  0
  1  6  1  0  0  0  0
  1  2  1  0  0  0  0
  2  3  1  0  0  0  0
  4  5  1  0  0  0  0
  4  3  1  0  0  0  0
  6  5  2  0  0  0  0
  7  4  1  0  0  0  0
  7  8  1  0  0  0  0
  8 12  1  0  0  0  0
  9  8  1  0  0  0  0
 10  9  2  0  0  0  0
 11 10  1  0  0  0  0
 11  7  2  0  0  0  0
 12 13  2  0  0  0  0
 12 17  1  0  0  0  0
 13 14  1  0  0  0  0
 14 15  2  0  0  0  0
 16 15  1  0  0  0  0
 17 16  2  0  0  0  0
 18  1  1  0  0  0  0
 19 18  2  0  0  0  0
 20 18  2  0  0  0  0
 21 18  1  0  0  0  0
 21 22  1  0  0  0  0
 23 22  2  0  0  0  0
 24 23  1  0  0  0  0
 25 27  1  0  0  0  0
 25 24  2  0  0  0  0
 26 24  1  0  0  0  0
 27 21  2  0  0  0  0
M  END
>  <Pose>
1

>  <Score>
-8.196

$$$$
