/Users/jonathanwahrer/Desktop/Msc/3_Semester/Drug_Design_Praktikum/waehrer_HTS_screening/HTS_experiment/out/docking_results/vina_output/2jam/1089_docked.pdbqt
 OpenBabel03162218073D

 25 28  0  0  0  0  0  0  0  0999 V2000
   10.1510    6.8040   12.9170 N   0  0  0  0  0  0  0  0  0  0  0  0
    9.6380    6.4420   14.1810 C   0  0  0  0  0  2  0  0  0  0  0  0
    8.4880    7.2740   14.6930 C   0  0  0  0  0  2  0  0  0  0  0  0
    8.1620    8.3650   13.8290 N   0  0  0  0  0  0  0  0  0  0  0  0
    9.1300    9.0160   12.9640 C   0  0  0  0  0  2  0  0  0  0  0  0
   10.3720    8.1910   12.7920 C   0  0  0  0  0  2  0  0  0  0  0  0
    6.8300    8.8610   13.7850 C   0  0  0  0  0  0  0  0  0  0  0  0
    6.3770    9.6630   14.7940 N   0  0  0  0  0  0  0  0  0  0  0  0
    5.1340   10.1450   14.7680 C   0  0  0  0  0  3  0  0  0  0  0  0
    4.2890    9.8750   13.7750 N   0  0  0  0  0  0  0  0  0  0  0  0
    4.7120    9.0950   12.7810 C   0  0  0  0  0  0  0  0  0  0  0  0
    4.0980    8.6590   11.6780 N   0  0  0  0  0  0  0  0  0  0  0  0
    5.9980    8.5540   12.7420 C   0  0  0  0  0  0  0  0  0  0  0  0
    4.9690    7.8770   10.9810 C   0  0  0  0  0  3  0  0  0  0  0  0
    6.1310    7.8130   11.6320 N   0  0  0  0  0  0  0  0  0  0  0  0
    6.9630    7.2810   11.3180 H   0  0  0  0  0  0  0  0  0  0  0  0
    9.6930    5.9310   11.5670 S   0  0  0  0  0  0  0  0  0  0  0  0
    9.9900    6.7650   10.3260 O   0  0  0  0  0  0  0  0  0  0  0  0
    8.2420    5.6180   11.5240 O   0  0  0  0  0  0  0  0  0  0  0  0
   10.5760    4.4200   11.3270 C   0  0  0  0  0  0  0  0  0  0  0  0
   10.7360    3.4750    9.9180 S   0  0  0  0  0  0  0  0  0  0  0  0
   11.7180    2.2250   10.5290 C   0  0  0  0  0  0  0  0  0  0  0  0
   11.8980    2.5890   11.8420 C   0  0  0  0  0  3  0  0  0  0  0  0
   12.4130    0.6890    9.6330 Br  0  0  0  0  0  0  0  0  0  0  0  0
   11.3070    3.7190   12.2450 C   0  0  0  0  0  3  0  0  0  0  0  0
  1  2  1  0  0  0  0
  2  3  1  0  0  0  0
  4  3  1  0  0  0  0
  5  4  1  0  0  0  0
  6  1  1  0  0  0  0
  6  5  1  0  0  0  0
  7  4  1  0  0  0  0
  7  8  1  0  0  0  0
  9  8  2  0  0  0  0
 10  9  1  0  0  0  0
 11 10  2  0  0  0  0
 12 11  1  0  0  0  0
 13 11  1  0  0  0  0
 13  7  2  0  0  0  0
 14 15  1  0  0  0  0
 14 12  2  0  0  0  0
 15 13  1  0  0  0  0
 16 15  1  0  0  0  0
 17  1  1  0  0  0  0
 18 17  2  0  0  0  0
 19 17  2  0  0  0  0
 20 17  1  0  0  0  0
 20 25  2  0  0  0  0
 21 22  1  0  0  0  0
 21 20  1  0  0  0  0
 22 23  2  0  0  0  0
 23 25  1  0  0  0  0
 24 22  1  0  0  0  0
M  END
>  <Pose>
1

>  <Score>
-7.628

$$$$
