/Users/jonathanwahrer/Desktop/Msc/3_Semester/Drug_Design_Praktikum/waehrer_HTS_screening/HTS_experiment/out/docking_results/vina_output/2jam/1100_docked.pdbqt
 OpenBabel03162218073D

 26 29  0  0  1  0  0  0  0  0999 V2000
    9.7370    5.2830   11.2810 N   0  0  0  0  0  0  0  0  0  0  0  0
   10.3720    5.5760   10.0400 C   0  0  0  0  0  2  0  0  0  0  0  0
   11.6920    4.8540    9.8680 C   0  0  0  0  0  2  0  0  0  0  0  0
   11.5630    3.5690   10.5060 N   0  0  2  0  0  0  0  0  0  0  0  0
   11.4130    3.5900   11.9390 C   0  0  0  0  0  2  0  0  0  0  0  0
   10.5590    4.7480   12.3140 C   0  0  0  0  0  2  0  0  0  0  0  0
   11.5790    2.3440    9.8000 C   0  0  1  0  0  3  0  0  0  0  0  0
   10.5020    1.5630    9.7070 C   0  0  0  0  0  3  0  0  0  0  0  0
   10.4780    0.3000    8.9910 C   0  0  0  0  0  0  0  0  0  0  0  0
    9.3800   -0.4350    8.9320 C   0  0  0  0  0  1  0  0  0  0  0  0
   11.6580   -0.1370    8.3510 N   0  0  0  0  0  0  0  0  0  0  0  0
   12.7960    0.7290    8.4700 C   0  0  0  0  0  0  0  0  0  0  0  0
   11.7440   -1.0140    7.8190 H   0  0  0  0  0  0  0  0  0  0  0  0
   12.7670    1.8890    9.1450 N   0  0  0  0  0  0  0  0  0  0  0  0
   14.0590    0.6170    7.9890 N   0  0  0  0  0  0  0  0  0  0  0  0
   13.9700    2.4640    9.0770 N   0  0  0  0  0  0  0  0  0  0  0  0
   14.7930    1.6820    8.3560 C   0  0  0  0  0  3  0  0  0  0  0  0
    8.8100    6.6090   11.7970 S   0  0  0  0  0  0  0  0  0  0  0  0
    7.3570    6.4920   11.4150 O   0  0  0  0  0  0  0  0  0  0  0  0
    9.3330    7.8470   11.0840 O   0  0  0  0  0  0  0  0  0  0  0  0
    8.9840    6.9270   13.5220 C   0  0  0  0  0  0  0  0  0  0  0  0
    8.0520    6.2620   14.7760 S   0  0  0  0  0  0  0  0  0  0  0  0
    8.7920    7.0210   16.1070 C   0  0  0  0  0  0  0  0  0  0  0  0
    9.7670    7.7890   15.5280 C   0  0  0  0  0  3  0  0  0  0  0  0
    8.3900    6.8670   17.9890 Br  0  0  0  0  0  0  0  0  0  0  0  0
    9.8650    7.7380   14.1780 C   0  0  0  0  0  3  0  0  0  0  0  0
  1 18  1  0  0  0  0
  1  6  1  0  0  0  0
  2  1  1  0  0  0  0
  3  2  1  0  0  0  0
  4  3  1  1  0  0  0
  4  5  1  0  0  0  0
  5  6  1  0  0  0  0
  7  8  1  6  0  0  0
  7  4  1  0  0  0  0
  9  8  2  0  0  0  0
 10  9  1  0  0  0  0
 11 12  1  0  0  0  0
 11  9  1  0  0  0  0
 12 14  1  0  0  0  0
 13 11  1  0  0  0  0
 14  7  1  0  0  0  0
 15 17  1  0  0  0  0
 15 12  2  0  0  0  0
 16 14  1  0  0  0  0
 17 16  2  0  0  0  0
 18 21  1  0  0  0  0
 19 18  2  0  0  0  0
 20 18  2  0  0  0  0
 21 26  2  0  0  0  0
 21 22  1  0  0  0  0
 22 23  1  0  0  0  0
 23 25  1  0  0  0  0
 24 23  2  0  0  0  0
 26 24  1  0  0  0  0
M  END
>  <Pose>
1

>  <Score>
-8.392

$$$$
