/Users/jonathanwahrer/Desktop/Msc/3_Semester/Drug_Design_Praktikum/waehrer_HTS_screening/HTS_experiment/out/docking_results/vina_output/2jam/1101_docked.pdbqt
 OpenBabel03162218073D

 26 29  0  0  0  0  0  0  0  0999 V2000
   12.1180    5.6140   11.0490 N   0  0  0  0  0  0  0  0  0  0  0  0
   11.1950    5.6860    9.9790 C   0  0  0  0  0  2  0  0  0  0  0  0
    9.8110    6.1010   10.3330 C   0  0  0  0  0  2  0  0  0  0  0  0
    9.8110    7.2030   11.3080 N   0  0  0  0  0  0  0  0  0  0  0  0
   11.1110    7.7910   11.5510 C   0  0  0  0  0  2  0  0  0  0  0  0
   12.0120    6.6650   12.0220 C   0  0  0  0  0  2  0  0  0  0  0  0
   12.3250    4.0730   11.7400 S   0  0  0  0  0  0  0  0  0  0  0  0
   11.2230    3.8870   12.7760 O   0  0  0  0  0  0  0  0  0  0  0  0
   13.6200    3.9970   12.4940 O   0  0  0  0  0  0  0  0  0  0  0  0
   12.1500    2.7700   10.5960 C   0  0  0  0  0  0  0  0  0  0  0  0
   10.9230    2.1640   10.3600 C   0  0  0  0  0  3  0  0  0  0  0  0
   10.7860    1.1350    9.4560 C   0  0  0  0  0  3  0  0  0  0  0  0
   11.9070    0.6990    8.7680 C   0  0  0  0  0  0  0  0  0  0  0  0
   13.1490    1.2700    8.9670 C   0  0  0  0  0  3  0  0  0  0  0  0
   11.6980   -0.7340    7.5140 Br  0  0  0  0  0  0  0  0  0  0  0  0
   13.2430    2.2950    9.8790 C   0  0  0  0  0  3  0  0  0  0  0  0
    8.6130    7.6200   11.9320 C   0  0  0  0  0  0  0  0  0  0  0  0
    8.4640    8.9620   12.2620 C   0  0  0  0  0  3  0  0  0  0  0  0
    7.2790    9.3610   12.8760 C   0  0  0  0  0  0  0  0  0  0  0  0
    6.3090    8.4980   13.1450 N   0  0  0  0  0  0  0  0  0  0  0  0
    6.9040   10.5850   13.2860 N   0  0  0  0  0  0  0  0  0  0  0  0
    5.3110    9.1800   13.7300 C   0  0  0  0  0  0  0  0  0  0  0  0
    6.4350    7.2360   12.8410 N   0  0  0  0  0  0  0  0  0  0  0  0
    5.6960   10.4680   13.8100 N   0  0  0  0  0  0  0  0  0  0  0  0
    4.0070    8.6190   14.2100 C   0  0  0  0  0  1  0  0  0  0  0  0
    7.5710    6.7940   12.2410 C   0  0  0  0  0  3  0  0  0  0  0  0
  1  7  1  0  0  0  0
  1  6  1  0  0  0  0
  2  3  1  0  0  0  0
  2  1  1  0  0  0  0
  3  4  1  0  0  0  0
  4  5  1  0  0  0  0
  4 17  1  0  0  0  0
  5  6  1  0  0  0  0
  7  9  2  0  0  0  0
  7  8  2  0  0  0  0
 10  7  1  0  0  0  0
 11 10  1  0  0  0  0
 12 11  2  0  0  0  0
 13 14  2  0  0  0  0
 13 12  1  0  0  0  0
 14 16  1  0  0  0  0
 15 13  1  0  0  0  0
 16 10  2  0  0  0  0
 17 26  1  0  0  0  0
 17 18  2  0  0  0  0
 18 19  1  0  0  0  0
 19 20  1  0  0  0  0
 19 21  2  0  0  0  0
 20 22  1  0  0  0  0
 21 24  1  0  0  0  0
 22 24  2  0  0  0  0
 22 25  1  0  0  0  0
 23 20  1  0  0  0  0
 26 23  2  0  0  0  0
M  END
>  <Pose>
1

>  <Score>
-8.660

$$$$
