/Users/jonathanwahrer/Desktop/Msc/3_Semester/Drug_Design_Praktikum/waehrer_HTS_screening/HTS_experiment/out/docking_results/vina_output/2jam/1105_docked.pdbqt
 OpenBabel03162218083D

 33 36  0  0  1  0  0  0  0  0999 V2000
   18.0560    5.5630   11.4110 N   0  0  0  0  0  0  0  0  0  0  0  0
   18.6330    6.5870   10.6060 C   0  0  0  0  0  2  0  0  0  0  0  0
   17.6700    7.6660   10.1680 C   0  0  0  0  0  2  0  0  0  0  0  0
   16.8350    8.1040   11.2890 N   0  0  0  0  0  0  0  0  0  0  0  0
   16.2780    7.0030   12.0430 C   0  0  0  0  0  0  0  0  0  0  0  0
   15.5840    7.1720   13.0490 O   0  0  0  0  0  0  0  0  0  0  0  0
   16.6450    5.6700   11.4600 C   0  0  2  0  0  3  0  0  0  0  0  0
   16.6440    9.0730   11.5420 H   0  0  0  0  0  0  0  0  0  0  0  0
   15.8900    4.5520   12.0610 C   0  0  0  0  0  2  0  0  0  0  0  0
   15.9860    3.3600   11.1850 C   0  0  0  0  0  0  0  0  0  0  0  0
   17.1440    2.9220   10.9520 O   0  0  0  0  0  0  0  0  0  0  0  0
   14.8270    2.7350   10.6290 N   0  0  0  0  0  0  0  0  0  0  0  0
   13.5110    3.2440   10.9020 C   0  0  0  0  0  2  0  0  0  0  0  0
   14.9950    1.5800    9.7870 C   0  0  0  0  0  2  0  0  0  0  0  0
   12.5230    3.0090    9.8020 C   0  0  0  0  0  2  0  0  0  0  0  0
   12.7620    1.7920    9.0450 N   0  0  0  0  0  0  0  0  0  0  0  0
   14.1230    1.6500    8.5510 C   0  0  0  0  0  2  0  0  0  0  0  0
   11.8050    0.8090    8.7620 C   0  0  0  0  0  0  0  0  0  0  0  0
   12.1150   -0.2040    7.8810 C   0  0  0  0  0  3  0  0  0  0  0  0
   11.1610   -1.1680    7.5930 C   0  0  0  0  0  3  0  0  0  0  0  0
    9.9060   -1.1610    8.1490 C   0  0  0  0  0  3  0  0  0  0  0  0
    9.6010   -0.1470    9.0280 C   0  0  0  0  0  3  0  0  0  0  0  0
   10.5500    0.8210    9.3210 C   0  0  0  0  0  3  0  0  0  0  0  0
   18.8520    5.4820   12.9100 S   0  0  0  0  0  0  0  0  0  0  0  0
   17.9390    5.3010   14.0810 O   0  0  0  0  0  0  0  0  0  0  0  0
   19.6300    6.7650   13.1770 O   0  0  0  0  0  0  0  0  0  0  0  0
   20.0440    4.1950   12.9420 C   0  0  0  0  0  0  0  0  0  0  0  0
   19.6920    2.8510   12.9060 C   0  0  0  0  0  3  0  0  0  0  0  0
   20.6020    1.8320   12.9340 C   0  0  0  0  0  3  0  0  0  0  0  0
   21.9420    2.1090   13.0000 C   0  0  0  0  0  0  0  0  0  0  0  0
   22.3360    3.4520   13.0370 C   0  0  0  0  0  3  0  0  0  0  0  0
   23.2570    0.7350   13.0400 Br  0  0  0  0  0  0  0  0  0  0  0  0
   21.3930    4.4520   13.0080 C   0  0  0  0  0  3  0  0  0  0  0  0
  1  7  1  0  0  0  0
  1 24  1  0  0  0  0
  2  1  1  0  0  0  0
  3  2  1  0  0  0  0
  3  4  1  0  0  0  0
  4  8  1  0  0  0  0
  4  5  1  0  0  0  0
  5  6  2  0  0  0  0
  7  5  1  0  0  0  0
  7  9  1  1  0  0  0
 10  9  1  0  0  0  0
 11 10  2  0  0  0  0
 12 13  1  0  0  0  0
 12 10  1  0  0  0  0
 14 12  1  0  0  0  0
 15 13  1  0  0  0  0
 16 15  1  0  0  0  0
 17 16  1  0  0  0  0
 17 14  1  0  0  0  0
 18 16  1  0  0  0  0
 18 23  1  0  0  0  0
 19 18  2  0  0  0  0
 20 19  1  0  0  0  0
 20 21  2  0  0  0  0
 21 22  1  0  0  0  0
 22 23  2  0  0  0  0
 24 27  1  0  0  0  0
 24 26  2  0  0  0  0
 24 25  2  0  0  0  0
 27 33  1  0  0  0  0
 28 29  1  0  0  0  0
 28 27  2  0  0  0  0
 29 30  2  0  0  0  0
 30 31  1  0  0  0  0
 30 32  1  0  0  0  0
 33 31  2  0  0  0  0
M  END
>  <Pose>
1

>  <Score>
-9.189

$$$$
