/Users/jonathanwahrer/Desktop/Msc/3_Semester/Drug_Design_Praktikum/waehrer_HTS_screening/HTS_experiment/out/docking_results/vina_output/2jam/1112_docked.pdbqt
 OpenBabel03162218083D

 32 35  0  0  0  0  0  0  0  0999 V2000
   12.8290    6.1240   10.7430 C   0  0  0  0  0  2  0  0  0  0  0  0
   11.3850    6.2370   11.0580 C   0  0  0  0  0  0  0  0  0  0  0  0
   10.4520    5.2820   10.7840 C   0  0  0  0  0  3  0  0  0  0  0  0
    9.1110    5.4650   11.1090 C   0  0  0  0  0  3  0  0  0  0  0  0
    8.6730    6.6070   11.7150 C   0  0  0  0  0  0  0  0  0  0  0  0
    9.6160    7.5780   11.9950 C   0  0  0  0  0  3  0  0  0  0  0  0
   10.9490    7.3980   11.6730 C   0  0  0  0  0  3  0  0  0  0  0  0
    6.9880    6.8730   12.1390 S   0  0  0  0  0  0  0  0  0  0  0  0
    6.0710    6.3400   11.0930 O   0  0  0  0  0  0  0  0  0  0  0  0
    6.7380    6.0740   13.4020 O   0  0  0  0  0  0  0  0  0  0  0  0
    6.6580    8.5100   12.4960 N   0  0  0  0  0  0  0  0  0  0  0  0
    6.4180    8.7490   13.8950 C   0  0  0  0  0  2  0  0  0  0  0  0
    5.6820   10.0890   13.9880 C   0  0  0  0  0  2  0  0  0  0  0  0
    4.3720    9.9510   13.5840 O   0  0  0  0  0  0  0  0  0  0  0  0
    4.2790    8.8570   12.7050 C   0  0  0  0  0  2  0  0  0  0  0  0
    5.4770    8.9440   11.7720 C   0  0  0  0  0  2  0  0  0  0  0  0
   13.5360    5.4090   11.7320 O   0  0  0  0  0  0  0  0  0  0  0  0
   14.8300    4.9640   11.6110 C   0  0  0  0  0  0  0  0  0  0  0  0
   15.7350    5.7840   11.3570 O   0  0  0  0  0  0  0  0  0  0  0  0
   15.1580    3.5500   11.7730 C   0  0  0  0  0  2  0  0  0  0  0  0
   14.4700    2.6890   10.8560 N   0  0  0  0  0  0  0  0  0  0  0  0
   13.1590    2.1670   11.1080 C   0  0  0  0  0  0  0  0  0  0  0  0
   12.4590    2.3900   12.1370 O   0  0  0  0  0  0  0  0  0  0  0  0
   12.7540    1.3330    9.9820 C   0  0  0  0  0  0  0  0  0  0  0  0
   13.7650    1.3260    9.0570 C   0  0  0  0  0  0  0  0  0  0  0  0
   11.6220    0.6030    9.7030 C   0  0  0  0  0  3  0  0  0  0  0  0
   13.6380    0.6050    7.8850 C   0  0  0  0  0  3  0  0  0  0  0  0
   14.8460    2.1720    9.5920 C   0  0  0  0  0  0  0  0  0  0  0  0
   12.4930   -0.1220    7.6180 C   0  0  0  0  0  3  0  0  0  0  0  0
   11.4680   -0.1240    8.5410 C   0  0  0  0  0  0  0  0  0  0  0  0
    9.8700   -1.1130    8.2180 Br  0  0  0  0  0  0  0  0  0  0  0  0
   15.9410    2.4160    9.0380 O   0  0  0  0  0  0  0  0  0  0  0  0
  1  2  1  0  0  0  0
  1 17  1  0  0  0  0
  2  7  1  0  0  0  0
  3  2  2  0  0  0  0
  3  4  1  0  0  0  0
  4  5  2  0  0  0  0
  5  6  1  0  0  0  0
  5  8  1  0  0  0  0
  7  6  2  0  0  0  0
  8 11  1  0  0  0  0
  8 10  2  0  0  0  0
  9  8  2  0  0  0  0
 11 12  1  0  0  0  0
 12 13  1  0  0  0  0
 14 13  1  0  0  0  0
 15 14  1  0  0  0  0
 16 11  1  0  0  0  0
 16 15  1  0  0  0  0
 18 17  1  0  0  0  0
 18 20  1  0  0  0  0
 19 18  2  0  0  0  0
 21 22  1  0  0  0  0
 21 20  1  0  0  0  0
 22 23  2  0  0  0  0
 24 22  1  0  0  0  0
 25 28  1  0  0  0  0
 25 24  2  0  0  0  0
 26 24  1  0  0  0  0
 27 25  1  0  0  0  0
 28 21  1  0  0  0  0
 29 27  2  0  0  0  0
 29 30  1  0  0  0  0
 30 26  2  0  0  0  0
 31 30  1  0  0  0  0
 32 28  2  0  0  0  0
M  END
>  <Pose>
1

>  <Score>
-9.413

$$$$
