/Users/jonathanwahrer/Desktop/Msc/3_Semester/Drug_Design_Praktikum/waehrer_HTS_screening/HTS_experiment/out/docking_results/vina_output/2jam/1113_docked.pdbqt
 OpenBabel03162218083D

 28 31  0  0  0  0  0  0  0  0999 V2000
    7.8860    7.5170   11.7200 C   0  0  0  0  0  0  0  0  0  0  0  0
    7.7840    6.1900   11.5380 N   0  0  0  0  0  0  0  0  0  0  0  0
    9.0300    5.6520   11.5230 C   0  0  0  0  0  3  0  0  0  0  0  0
    9.9360    6.6300   11.6960 N   0  0  0  0  0  0  0  0  0  0  0  0
    9.2590    7.7620   11.8170 C   0  0  0  0  0  3  0  0  0  0  0  0
   11.3700    6.4310   11.7360 C   0  0  0  0  0  2  0  0  0  0  0  0
   11.7870    5.2860   10.8920 C   0  0  0  0  0  0  0  0  0  0  0  0
   11.6820    5.2350    9.5380 N   0  0  0  0  0  0  0  0  0  0  0  0
   12.1430    4.0880    9.1410 O   0  0  0  0  0  0  0  0  0  0  0  0
   12.5540    3.3630   10.1500 C   0  0  0  0  0  0  0  0  0  0  0  0
   12.3280    4.1210   11.2530 N   0  0  0  0  0  0  0  0  0  0  0  0
   13.1480    1.9920   10.1270 C   0  0  0  0  0  2  0  0  0  0  0  0
   12.1230    1.0890    9.5340 C   0  0  0  0  0  0  0  0  0  0  0  0
   12.5420    0.1060    8.6510 C   0  0  0  0  0  3  0  0  0  0  0  0
   11.6700   -0.7680    8.0580 C   0  0  0  0  0  3  0  0  0  0  0  0
   10.3390   -0.6570    8.3570 C   0  0  0  0  0  0  0  0  0  0  0  0
    9.8770    0.2910    9.2160 C   0  0  0  0  0  3  0  0  0  0  0  0
    9.0940   -1.8560    7.5500 Br  0  0  0  0  0  0  0  0  0  0  0  0
   10.7860    1.1660    9.8040 C   0  0  0  0  0  3  0  0  0  0  0  0
    6.5940    8.6920   11.8180 S   0  0  0  0  0  0  0  0  0  0  0  0
    7.1990   10.0680   11.5650 O   0  0  0  0  0  0  0  0  0  0  0  0
    5.6260    8.4720   10.6730 O   0  0  0  0  0  0  0  0  0  0  0  0
    5.7980    8.7300   13.2920 N   0  0  0  0  0  0  0  0  0  0  0  0
    4.7280    9.6220   13.4530 C   0  0  0  0  0  2  0  0  0  0  0  0
    3.5660    8.9550   14.1270 C   0  0  0  0  0  2  0  0  0  0  0  0
    4.0130    8.4560   15.3380 O   0  0  0  0  0  0  0  0  0  0  0  0
    4.9220    7.4170   15.1840 C   0  0  0  0  0  2  0  0  0  0  0  0
    5.9960    7.6870   14.2020 C   0  0  0  0  0  2  0  0  0  0  0  0
  1  5  2  0  0  0  0
  1 20  1  0  0  0  0
  2  1  1  0  0  0  0
  3  2  2  0  0  0  0
  3  4  1  0  0  0  0
  4  6  1  0  0  0  0
  4  5  1  0  0  0  0
  7 11  1  0  0  0  0
  7  6  1  0  0  0  0
  8  7  2  0  0  0  0
  9  8  1  0  0  0  0
  9 10  1  0  0  0  0
 10 11  2  0  0  0  0
 12 10  1  0  0  0  0
 13 19  1  0  0  0  0
 13 12  1  0  0  0  0
 14 13  2  0  0  0  0
 15 16  2  0  0  0  0
 15 14  1  0  0  0  0
 16 17  1  0  0  0  0
 17 19  2  0  0  0  0
 18 16  1  0  0  0  0
 20 23  1  0  0  0  0
 21 20  2  0  0  0  0
 22 20  2  0  0  0  0
 23 24  1  0  0  0  0
 23 28  1  0  0  0  0
 24 25  1  0  0  0  0
 25 26  1  0  0  0  0
 27 26  1  0  0  0  0
 28 27  1  0  0  0  0
M  END
>  <Pose>
1

>  <Score>
-9.075

$$$$
