/Users/jonathanwahrer/Desktop/Msc/3_Semester/Drug_Design_Praktikum/waehrer_HTS_screening/HTS_experiment/out/docking_results/vina_output/2jam/1114_docked.pdbqt
 OpenBabel03162218093D

 27 30  0  0  0  0  0  0  0  0999 V2000
    8.4300    7.5280   11.7260 C   0  0  0  0  0  0  0  0  0  0  0  0
    8.1750    6.2080   11.6950 N   0  0  0  0  0  0  0  0  0  0  0  0
    9.3330    5.5530   11.4940 C   0  0  0  0  0  3  0  0  0  0  0  0
   10.3490    6.4220   11.3900 N   0  0  0  0  0  0  0  0  0  0  0  0
    9.7960    7.6380   11.5320 C   0  0  0  0  0  3  0  0  0  0  0  0
   11.7460    6.1040   11.1720 C   0  0  0  0  0  2  0  0  0  0  0  0
   11.9760    4.6560   10.9640 C   0  0  0  0  0  0  0  0  0  0  0  0
   12.4020    3.8040   11.9150 N   0  0  0  0  0  0  0  0  0  0  0  0
   12.4980    2.6180   11.3950 O   0  0  0  0  0  0  0  0  0  0  0  0
   12.1550    2.6310   10.1360 C   0  0  0  0  0  0  0  0  0  0  0  0
   11.8280    3.9040    9.8620 N   0  0  0  0  0  0  0  0  0  0  0  0
   12.1450    1.4680    9.2470 C   0  0  0  0  0  0  0  0  0  0  0  0
   11.0260    0.6780    9.0890 C   0  0  0  0  0  3  0  0  0  0  0  0
   11.0310   -0.4250    8.2400 C   0  0  0  0  0  0  0  0  0  0  0  0
   12.1580   -0.7650    7.5250 C   0  0  0  0  0  3  0  0  0  0  0  0
    9.4680   -1.5070    8.0360 Br  0  0  0  0  0  0  0  0  0  0  0  0
   13.2790    0.0220    7.6800 C   0  0  0  0  0  3  0  0  0  0  0  0
   13.2700    1.1280    8.5340 C   0  0  0  0  0  3  0  0  0  0  0  0
    7.2670    8.8390   11.9630 S   0  0  0  0  0  0  0  0  0  0  0  0
    7.9780    9.9320   12.7160 O   0  0  0  0  0  0  0  0  0  0  0  0
    6.8320    9.4100   10.6520 O   0  0  0  0  0  0  0  0  0  0  0  0
    5.9320    8.3170   12.8950 N   0  0  0  0  0  0  0  0  0  0  0  0
    4.7070    8.9490   12.5720 C   0  0  0  0  0  2  0  0  0  0  0  0
    3.7740    9.2230   13.7050 C   0  0  0  0  0  2  0  0  0  0  0  0
    3.9080    8.1550   14.6220 O   0  0  0  0  0  0  0  0  0  0  0  0
    5.1410    8.3830   15.2400 C   0  0  0  0  0  2  0  0  0  0  0  0
    6.2260    8.0990   14.2640 C   0  0  0  0  0  2  0  0  0  0  0  0
  1 19  1  0  0  0  0
  2  1  1  0  0  0  0
  3  2  2  0  0  0  0
  4  3  1  0  0  0  0
  4  5  1  0  0  0  0
  5  1  2  0  0  0  0
  6  4  1  0  0  0  0
  7  6  1  0  0  0  0
  7  8  2  0  0  0  0
  9  8  1  0  0  0  0
 10  9  1  0  0  0  0
 11 10  2  0  0  0  0
 11  7  1  0  0  0  0
 12 10  1  0  0  0  0
 13 12  1  0  0  0  0
 14 13  2  0  0  0  0
 15 17  2  0  0  0  0
 15 14  1  0  0  0  0
 16 14  1  0  0  0  0
 17 18  1  0  0  0  0
 18 12  2  0  0  0  0
 19 20  2  0  0  0  0
 19 22  1  0  0  0  0
 21 19  2  0  0  0  0
 22 27  1  0  0  0  0
 23 22  1  0  0  0  0
 23 24  1  0  0  0  0
 24 25  1  0  0  0  0
 25 26  1  0  0  0  0
 27 26  1  0  0  0  0
M  END
>  <Pose>
1

>  <Score>
-9.028

$$$$
