/Users/jonathanwahrer/Desktop/Msc/3_Semester/Drug_Design_Praktikum/waehrer_HTS_screening/HTS_experiment/out/docking_results/vina_output/2jam/1143_docked.pdbqt
 OpenBabel03162218103D

 33 37  0  0  1  0  0  0  0  0999 V2000
    7.1630    8.7390   13.4680 C   0  0  1  0  0  3  0  0  0  0  0  0
    6.3420    8.6680   12.2670 N   0  0  0  0  0  4  0  0  0  0  0  0
    6.1520    7.2830   11.8740 C   0  0  0  0  0  2  0  0  0  0  0  0
    7.0730    6.3140   12.5680 C   0  0  0  0  0  2  0  0  0  0  0  0
    8.4480    6.9280   12.6140 C   0  0  0  0  0  0  0  0  0  0  0  0
    8.4800    8.2620   13.0870 C   0  0  0  0  0  0  0  0  0  0  0  0
    9.6760    8.9220   13.1460 C   0  0  0  0  0  0  0  0  0  0  0  0
   10.8180    8.2370   12.7350 C   0  0  0  0  0  0  0  0  0  0  0  0
   10.7610    6.9400   12.2810 C   0  0  0  0  0  0  0  0  0  0  0  0
    9.5590    6.2600   12.2140 C   0  0  0  0  0  3  0  0  0  0  0  0
   12.0390    6.5370   11.9520 O   0  0  0  0  0  0  0  0  0  0  0  0
   12.8740    7.6680   11.9220 C   0  0  0  0  0  2  0  0  0  0  0  0
   12.1300    8.6220   12.6800 O   0  0  0  0  0  0  0  0  0  0  0  0
    6.8530    9.3880   11.1510 C   0  0  0  0  0  1  0  0  0  0  0  0
    5.4080    9.0520   12.5210 H   0  0  0  0  0  0  0  0  0  0  0  0
    6.9520    9.9600   14.2350 C   0  0  1  0  0  3  0  0  0  0  0  0
    5.4430   10.2570   14.0950 C   0  0  0  0  0  0  0  0  0  0  0  0
    4.6080    9.2730   14.6810 N   0  0  0  0  0  2  0  0  0  0  0  0
    5.0280   11.2670   13.5200 O   0  0  0  0  0  0  0  0  0  0  0  0
    4.8940    8.5700   15.7160 C   0  0  0  0  0  0  0  0  0  0  0  0
    3.7750    7.3490   16.3870 S   0  0  0  0  0  0  0  0  0  0  0  0
    6.1920    8.8320   16.2960 N   0  0  0  0  0  0  0  0  0  0  0  0
    7.0470    9.8070   15.7190 C   0  0  0  0  0  0  0  0  0  0  0  0
    7.7880   10.4440   16.4700 O   0  0  0  0  0  0  0  0  0  0  0  0
    6.6160    8.1330   17.4310 C   0  0  0  0  0  0  0  0  0  0  0  0
    7.6210    7.1730   17.2610 C   0  0  0  0  0  3  0  0  0  0  0  0
    8.0920    6.4440   18.3320 C   0  0  0  0  0  3  0  0  0  0  0  0
    7.5560    6.6700   19.5970 C   0  0  0  0  0  0  0  0  0  0  0  0
    6.5520    7.6330   19.7560 C   0  0  0  0  0  3  0  0  0  0  0  0
    8.1720    5.6940   21.0900 Br  0  0  0  0  0  0  0  0  0  0  0  0
    6.0960    8.3500   18.6760 C   0  0  0  0  0  3  0  0  0  0  0  0
    9.7650   10.2330   13.5920 O   0  0  0  0  0  0  0  0  0  0  0  0
   10.6350   10.5300   14.6790 C   0  0  0  0  0  1  0  0  0  0  0  0
  1  6  1  6  0  0  0
  1 16  1  0  0  0  0
  2 15  1  0  0  0  0
  2  1  1  0  0  0  0
  3  2  1  0  0  0  0
  3  4  1  0  0  0  0
  4  5  1  0  0  0  0
  5  6  1  0  0  0  0
  6  7  2  0  0  0  0
  7 32  1  0  0  0  0
  8  7  1  0  0  0  0
  9  8  2  0  0  0  0
 10  9  1  0  0  0  0
 10  5  2  0  0  0  0
 11  9  1  0  0  0  0
 12 11  1  0  0  0  0
 12 13  1  0  0  0  0
 13  8  1  0  0  0  0
 14  2  1  0  0  0  0
 16 17  1  1  0  0  0
 16 23  1  0  0  0  0
 17 18  1  0  0  0  0
 18 20  1  0  0  0  0
 19 17  2  0  0  0  0
 20 22  1  0  0  0  0
 20 21  2  0  0  0  0
 22 25  1  0  0  0  0
 23 22  1  0  0  0  0
 23 24  2  0  0  0  0
 25 31  1  0  0  0  0
 26 25  2  0  0  0  0
 26 27  1  0  0  0  0
 27 28  2  0  0  0  0
 28 29  1  0  0  0  0
 28 30  1  0  0  0  0
 31 29  2  0  0  0  0
 32 33  1  0  0  0  0
M  END
>  <Pose>
1

>  <Score>
-7.303

$$$$
