/Users/jonathanwahrer/Desktop/Msc/3_Semester/Drug_Design_Praktikum/waehrer_HTS_screening/HTS_experiment/out/docking_results/vina_output/2jam/1151_docked.pdbqt
 OpenBabel03162218103D

 24 27  0  0  1  0  0  0  0  0999 V2000
    3.9680    9.2750   13.9850 S   0  0  0  0  0  0  0  0  0  0  0  0
    3.6310   10.5470   14.7080 O   0  0  0  0  0  0  0  0  0  0  0  0
    3.0040    8.9980   12.8650 O   0  0  0  0  0  0  0  0  0  0  0  0
    5.6340    9.3060   13.3600 C   0  0  0  0  0  2  0  0  0  0  0  0
    6.0680    7.8580   13.2630 C   0  0  2  0  0  3  0  0  0  0  0  0
    6.2370    7.3320   14.6030 N   0  0  0  0  0  0  0  0  0  0  0  0
    5.3390    7.7270   15.6680 C   0  0  0  0  0  2  0  0  0  0  0  0
    3.9200    7.8790   15.1180 C   0  0  0  0  0  2  0  0  0  0  0  0
    7.3630    6.4680   14.5230 C   0  0  0  0  0  0  0  0  0  0  0  0
    7.7150    5.6100   15.4020 O   0  0  0  0  0  0  0  0  0  0  0  0
    8.0740    6.6790   13.3100 N   0  0  0  0  0  0  0  0  0  0  0  0
    7.3740    7.7000   12.6160 C   0  0  0  0  0  0  0  0  0  0  0  0
    7.7840    8.3650   11.6190 O   0  0  0  0  0  0  0  0  0  0  0  0
    9.2760    6.0030   12.8460 C   0  0  1  0  0  3  0  0  0  0  0  0
    9.2090    5.7260   11.3540 C   0  0  0  0  0  2  0  0  0  0  0  0
   10.4750    4.9340   11.0190 C   0  0  0  0  0  2  0  0  0  0  0  0
   11.5590    5.8250   11.2170 O   0  0  0  0  0  0  0  0  0  0  0  0
   11.5500    6.7290   12.2730 C   0  0  0  0  0  0  0  0  0  0  0  0
   10.4600    6.8480   13.0880 C   0  0  0  0  0  0  0  0  0  0  0  0
   12.6900    7.4970   12.4520 C   0  0  0  0  0  0  0  0  0  0  0  0
   10.4510    7.7370   14.1270 C   0  0  0  0  0  3  0  0  0  0  0  0
   11.5630    8.5170   14.3370 C   0  0  0  0  0  3  0  0  0  0  0  0
   12.6500    8.3860   13.5110 C   0  0  0  0  0  3  0  0  0  0  0  0
   14.2030    7.3260   11.3140 Br  0  0  0  0  0  0  0  0  0  0  0  0
  1  2  2  0  0  0  0
  1  8  1  0  0  0  0
  3  1  2  0  0  0  0
  4  1  1  0  0  0  0
  5  4  1  1  0  0  0
  5  6  1  0  0  0  0
  6  7  1  0  0  0  0
  8  7  1  0  0  0  0
  9  6  1  0  0  0  0
  9 10  2  0  0  0  0
 11  9  1  0  0  0  0
 12  5  1  0  0  0  0
 12 11  1  0  0  0  0
 13 12  2  0  0  0  0
 14 15  1  6  0  0  0
 14 19  1  0  0  0  0
 14 11  1  0  0  0  0
 16 17  1  0  0  0  0
 16 15  1  0  0  0  0
 17 18  1  0  0  0  0
 18 20  2  0  0  0  0
 18 19  1  0  0  0  0
 19 21  2  0  0  0  0
 20 23  1  0  0  0  0
 21 22  1  0  0  0  0
 23 22  2  0  0  0  0
 24 20  1  0  0  0  0
M  END
>  <Pose>
1

>  <Score>
-7.283

$$$$
