/Users/jonathanwahrer/Desktop/Msc/3_Semester/Drug_Design_Praktikum/waehrer_HTS_screening/HTS_experiment/out/docking_results/vina_output/2jam/1160_docked.pdbqt
 OpenBabel03162218103D

 25 28  0  0  1  0  0  0  0  0999 V2000
   11.6270    4.2630   11.7420 C   0  0  0  0  0  0  0  0  0  0  0  0
   10.3000    4.4790   11.8140 N   0  0  0  0  0  0  0  0  0  0  0  0
   10.0560    5.7300   12.2400 C   0  0  0  0  0  0  0  0  0  0  0  0
   11.2690    6.2760   12.4280 N   0  0  0  0  0  0  0  0  0  0  0  0
   12.1870    5.3850   12.1260 O   0  0  0  0  0  0  0  0  0  0  0  0
    8.7650    6.3810   12.4610 C   0  0  0  0  0  0  0  0  0  0  0  0
    8.3180    7.4870   11.8420 N   0  0  0  0  0  0  0  0  0  0  0  0
    7.0980    7.8020   12.2890 N   0  0  0  0  0  0  0  0  0  0  0  0
    6.7420    6.8840   13.2170 C   0  0  0  0  0  3  0  0  0  0  0  0
    7.7830    6.0240   13.3050 N   0  0  0  0  0  0  0  0  0  0  0  0
    6.2870    8.9290   11.8600 C   0  0  0  0  0  2  0  0  0  0  0  0
    5.0460    8.4100   11.2470 C   0  0  0  0  0  0  0  0  0  0  0  0
    5.0940    7.9660   10.0790 O   0  0  0  0  0  0  0  0  0  0  0  0
    3.8360    8.4210   11.9790 N   0  0  0  0  0  0  0  0  0  0  0  0
    3.1760    7.5950   11.9760 H   0  0  0  0  0  0  0  0  0  0  0  0
    3.5140    9.2300   12.5640 H   0  0  0  0  0  0  0  0  0  0  0  0
   12.3300    3.0030   11.3140 C   0  0  1  0  0  3  0  0  0  0  0  0
   12.7410    3.0100    9.8350 C   0  0  1  0  0  3  0  0  0  0  0  0
   13.7490    3.0700   10.8960 C   0  0  0  0  0  2  0  0  0  0  0  0
   12.5130    1.6700    9.1600 C   0  0  0  0  0  0  0  0  0  0  0  0
   11.3130    1.0460    9.2050 C   0  0  0  0  0  3  0  0  0  0  0  0
   11.2210   -0.1570    8.5560 C   0  0  0  0  0  0  0  0  0  0  0  0
   12.7780   -0.3820    7.9140 S   0  0  0  0  0  0  0  0  0  0  0  0
    9.6660   -1.2940    8.4270 Br  0  0  0  0  0  0  0  0  0  0  0  0
   13.5160    1.0450    8.4750 C   0  0  0  0  0  3  0  0  0  0  0  0
  1  2  2  0  0  0  0
  1  5  1  0  0  0  0
  2  3  1  0  0  0  0
  3  4  2  0  0  0  0
  3  6  1  0  0  0  0
  5  4  1  0  0  0  0
  6 10  1  0  0  0  0
  7  8  1  0  0  0  0
  7  6  2  0  0  0  0
  8  9  1  0  0  0  0
  9 10  2  0  0  0  0
 11  8  1  0  0  0  0
 12 11  1  0  0  0  0
 12 14  1  0  0  0  0
 13 12  2  0  0  0  0
 14 16  1  0  0  0  0
 15 14  1  0  0  0  0
 17  1  1  6  0  0  0
 18 20  1  1  0  0  0
 18 19  1  0  0  0  0
 18 17  1  0  0  0  0
 19 17  1  0  0  0  0
 20 21  1  0  0  0  0
 22 21  2  0  0  0  0
 23 25  1  0  0  0  0
 23 22  1  0  0  0  0
 24 22  1  0  0  0  0
 25 20  2  0  0  0  0
M  END
>  <Pose>
1

>  <Score>
-8.104

$$$$
