/Users/jonathanwahrer/Desktop/Msc/3_Semester/Drug_Design_Praktikum/waehrer_HTS_screening/HTS_experiment/out/docking_results/vina_output/2jam/1161_docked.pdbqt
 OpenBabel03162218103D

 29 32  0  0  0  0  0  0  0  0999 V2000
    8.4790    6.6880   12.3460 N   0  0  0  0  0  0  0  0  0  0  0  0
    8.8910    7.8840   12.8280 C   0  0  0  0  0  0  0  0  0  0  0  0
    7.8560    8.7690   12.8110 C   0  0  0  0  0  0  0  0  0  0  0  0
    8.0330   10.0650   13.2600 C   0  0  0  0  0  3  0  0  0  0  0  0
    9.2700   10.4480   13.7250 C   0  0  0  0  0  3  0  0  0  0  0  0
   10.3280    9.5760   13.7540 C   0  0  0  0  0  3  0  0  0  0  0  0
   10.1190    8.2940   13.2990 C   0  0  0  0  0  3  0  0  0  0  0  0
    6.8020    8.1140   12.3130 N   0  0  0  0  0  0  0  0  0  0  0  0
    7.1910    6.8380   12.0290 C   0  0  0  0  0  0  0  0  0  0  0  0
    9.3220    5.5240   12.2250 C   0  0  0  0  0  2  0  0  0  0  0  0
    9.9630    5.4400   10.8900 C   0  0  0  0  0  0  0  0  0  0  0  0
    9.7810    6.3330   10.0270 O   0  0  0  0  0  0  0  0  0  0  0  0
   10.8300    4.3170   10.5160 C   0  0  0  0  0  0  0  0  0  0  0  0
   12.5370    4.1880   10.5480 S   0  0  0  0  0  0  0  0  0  0  0  0
   12.7140    2.6040    9.9570 C   0  0  0  0  0  0  0  0  0  0  0  0
   11.4200    2.2130    9.7480 C   0  0  0  0  0  3  0  0  0  0  0  0
   14.3330    1.6380    9.6710 Br  0  0  0  0  0  0  0  0  0  0  0  0
   10.4540    3.0880   10.0340 C   0  0  0  0  0  3  0  0  0  0  0  0
    6.3560    6.0060   11.5250 N   0  0  0  0  0  0  0  0  0  0  0  0
    6.4670    5.0070   11.3620 H   0  0  0  0  0  0  0  0  0  0  0  0
    5.4770    8.6910   12.1330 C   0  0  0  0  0  2  0  0  0  0  0  0
    4.7000    8.5220   13.4480 C   0  0  0  0  0  2  0  0  0  0  0  0
    3.9270    9.6870   13.7680 N   0  0  0  0  0  4  0  0  0  0  0  0
    2.6970    9.4030   14.4790 C   0  0  0  0  0  2  0  0  0  0  0  0
    2.9310    8.5400   15.6860 C   0  0  0  0  0  2  0  0  0  0  0  0
    4.0550    9.0150   16.5440 C   0  0  0  0  0  2  0  0  0  0  0  0
    5.1220    9.7860   15.8520 C   0  0  0  0  0  2  0  0  0  0  0  0
    4.7120   10.5330   14.6340 C   0  0  0  0  0  2  0  0  0  0  0  0
    3.6430   10.1870   12.8970 H   0  0  0  0  0  0  0  0  0  0  0  0
  1  2  1  0  0  0  0
  2  7  1  0  0  0  0
  3  2  2  0  0  0  0
  3  4  1  0  0  0  0
  4  5  2  0  0  0  0
  5  6  1  0  0  0  0
  7  6  2  0  0  0  0
  8  3  1  0  0  0  0
  9  8  1  0  0  0  0
  9  1  1  0  0  0  0
 10  1  1  0  0  0  0
 11 10  1  0  0  0  0
 12 11  2  0  0  0  0
 13 14  1  0  0  0  0
 13 11  1  0  0  0  0
 15 14  1  0  0  0  0
 16 15  2  0  0  0  0
 16 18  1  0  0  0  0
 17 15  1  0  0  0  0
 18 13  2  0  0  0  0
 19  9  2  0  0  0  0
 20 19  1  0  0  0  0
 21  8  1  0  0  0  0
 21 22  1  0  0  0  0
 22 23  1  0  0  0  0
 23 24  1  0  0  0  0
 23 28  1  0  0  0  0
 24 25  1  0  0  0  0
 25 26  1  0  0  0  0
 27 26  1  0  0  0  0
 28 27  1  0  0  0  0
 29 23  1  0  0  0  0
M  END
>  <Pose>
1

>  <Score>
-7.782

$$$$
