/Users/jonathanwahrer/Desktop/Msc/3_Semester/Drug_Design_Praktikum/waehrer_HTS_screening/HTS_experiment/out/docking_results/vina_output/2jam/1178_docked.pdbqt
 OpenBabel03162218113D

 33 36  0  0  1  0  0  0  0  0999 V2000
   12.1010    7.4320   12.5830 C   0  0  1  0  0  3  0  0  0  0  0  0
   11.0290    6.3930   12.6960 C   0  0  1  0  0  3  0  0  0  0  0  0
    9.8540    7.1090   12.2750 N   0  0  0  0  0  0  0  0  0  0  0  0
   10.0340    8.4490   12.7530 C   0  0  0  0  0  0  0  0  0  0  0  0
    9.1320    9.2800   12.9600 O   0  0  0  0  0  0  0  0  0  0  0  0
   11.4570    8.6830   12.9600 C   0  0  0  0  0  0  0  0  0  0  0  0
   12.0760    9.7010   13.3730 O   0  0  0  0  0  0  0  0  0  0  0  0
    8.7530    6.5450   11.5530 C   0  0  0  0  0  2  0  0  0  0  0  0
    7.6740    5.9800   12.3790 C   0  0  0  0  0  2  0  0  0  0  0  0
    6.5160    6.7930   12.6460 C   0  0  0  0  0  2  0  0  0  0  0  0
    6.4350    8.1260   13.0130 N   0  0  0  0  0  4  0  0  0  0  0  0
    6.1460    8.2560   14.4900 C   0  0  0  0  0  2  0  0  0  0  0  0
    4.6870    8.0380   14.7220 C   0  0  0  0  0  2  0  0  0  0  0  0
    4.0130    9.1170   14.1620 O   0  0  0  0  0  0  0  0  0  0  0  0
    4.1390    8.9500   12.7650 C   0  0  0  0  0  2  0  0  0  0  0  0
    5.5790    9.0430   12.3440 C   0  0  0  0  0  2  0  0  0  0  0  0
    7.3880    8.5630   12.9790 H   0  0  0  0  0  0  0  0  0  0  0  0
   11.3680    5.1990   11.9080 C   0  0  0  0  0  0  0  0  0  0  0  0
   11.6410    5.1570   10.5680 C   0  0  0  0  0  3  0  0  0  0  0  0
   11.9500    4.0140    9.8660 C   0  0  0  0  0  3  0  0  0  0  0  0
   11.9920    2.8210   10.5420 C   0  0  0  0  0  0  0  0  0  0  0  0
   11.7260    2.7970   11.8860 C   0  0  0  0  0  3  0  0  0  0  0  0
   12.4240    1.2310    9.5610 Br  0  0  0  0  0  0  0  0  0  0  0  0
   11.4210    3.9580   12.5570 C   0  0  0  0  0  3  0  0  0  0  0  0
   13.3390    7.2010   12.2590 C   0  0  2  0  0  3  0  0  0  0  0  0
   13.7630    7.4470   10.9420 O   0  0  0  0  0  1  0  0  0  0  0  0
   14.2980    6.6840   13.2600 C   0  0  0  0  0  0  0  0  0  0  0  0
   14.7080    7.3160   14.7980 S   0  0  0  0  0  0  0  0  0  0  0  0
   15.8000    6.1050   15.2940 C   0  0  0  0  0  0  0  0  0  0  0  0
   15.7970    5.2810   14.2660 N   0  0  0  0  0  0  0  0  0  0  0  0
   16.5870    5.9720   16.5690 C   0  0  0  0  0  1  0  0  0  0  0  0
   15.0580    5.5390   13.2300 C   0  0  0  0  0  0  0  0  0  0  0  0
   14.9950    4.5850   12.0400 C   0  0  0  0  0  1  0  0  0  0  0  0
  1 25  1  1  0  0  0
  1  2  1  0  0  0  0
  1  6  1  0  0  0  0
  2 18  1  6  0  0  0
  3  2  1  0  0  0  0
  3  4  1  0  0  0  0
  4  5  2  0  0  0  0
  4  6  1  0  0  0  0
  6  7  2  0  0  0  0
  8  3  1  0  0  0  0
  8  9  1  0  0  0  0
  9 10  1  0  0  0  0
 10 11  1  0  0  0  0
 11 12  1  0  0  0  0
 12 13  1  0  0  0  0
 14 13  1  0  0  0  0
 15 14  1  0  0  0  0
 16 15  1  0  0  0  0
 16 11  1  0  0  0  0
 17 11  1  0  0  0  0
 18 24  1  0  0  0  0
 19 18  2  0  0  0  0
 20 21  2  0  0  0  0
 20 19  1  0  0  0  0
 21 22  1  0  0  0  0
 22 24  2  0  0  0  0
 23 21  1  0  0  0  0
 25 26  1  6  0  0  0
 25 27  1  0  0  0  0
 27 28  1  0  0  0  0
 28 29  1  0  0  0  0
 29 31  1  0  0  0  0
 30 29  2  0  0  0  0
 32 27  2  0  0  0  0
 32 30  1  0  0  0  0
 33 32  1  0  0  0  0
M  END
>  <Pose>
1

>  <Score>
-7.109

$$$$
