/Users/jonathanwahrer/Desktop/Msc/3_Semester/Drug_Design_Praktikum/waehrer_HTS_screening/HTS_experiment/out/docking_results/vina_output/2jam/1180_docked.pdbqt
 OpenBabel03162218123D

 32 35  0  0  1  0  0  0  0  0999 V2000
    6.9930    7.3740   12.8200 C   0  0  1  0  0  3  0  0  0  0  0  0
    6.9340    8.8510   13.0420 C   0  0  1  0  0  3  0  0  0  0  0  0
    5.5400    9.0700   13.0080 N   0  0  0  0  0  0  0  0  0  0  0  0
    5.1410    8.3240   11.7930 C   0  0  0  0  0  0  0  0  0  0  0  0
    4.1790    8.5870   11.0220 O   0  0  0  0  0  0  0  0  0  0  0  0
    6.0910    7.2220   11.6790 C   0  0  0  0  0  0  0  0  0  0  0  0
    6.1770    6.3000   10.8100 O   0  0  0  0  0  0  0  0  0  0  0  0
    7.7050    6.4640   13.4510 C   0  0  2  0  0  3  0  0  0  0  0  0
    7.1700    5.8010   14.5420 O   0  0  0  0  0  1  0  0  0  0  0  0
    9.0600    6.2050   12.9410 C   0  0  0  0  0  0  0  0  0  0  0  0
    9.5400    5.6490   11.3830 S   0  0  0  0  0  0  0  0  0  0  0  0
   11.2270    5.6770   11.6020 C   0  0  0  0  0  0  0  0  0  0  0  0
   11.3430    6.1060   12.8420 N   0  0  0  0  0  0  0  0  0  0  0  0
   12.3140    5.3040   10.6310 C   0  0  0  0  0  1  0  0  0  0  0  0
   10.2850    6.3800   13.5400 C   0  0  0  0  0  0  0  0  0  0  0  0
   10.3990    6.9190   14.9590 C   0  0  0  0  0  1  0  0  0  0  0  0
    7.8400    9.4130   13.9830 C   0  0  0  0  0  0  0  0  0  0  0  0
    9.0390    9.9640   13.5230 C   0  0  0  0  0  3  0  0  0  0  0  0
    9.9750   10.5100   14.3630 C   0  0  0  0  0  3  0  0  0  0  0  0
    9.7080   10.5100   15.7160 C   0  0  0  0  0  0  0  0  0  0  0  0
    8.5300    9.9710   16.1900 C   0  0  0  0  0  3  0  0  0  0  0  0
   10.9590   11.2530   16.9580 Br  0  0  0  0  0  0  0  0  0  0  0  0
    7.6060    9.4280   15.3270 C   0  0  0  0  0  3  0  0  0  0  0  0
    4.5160    9.7920   13.6840 C   0  0  0  0  0  2  0  0  0  0  0  0
    3.6490    9.1120   14.6540 C   0  0  0  0  0  2  0  0  0  0  0  0
    3.8870    9.1600   16.0390 N   0  0  0  0  0  4  0  0  0  0  0  0
    2.6960    9.1140   16.8610 C   0  0  0  0  0  2  0  0  0  0  0  0
    3.1630    9.3190   18.2990 C   0  0  0  0  0  2  0  0  0  0  0  0
    4.5370    9.1100   18.4120 O   0  0  0  0  0  0  0  0  0  0  0  0
    4.7740    7.8420   17.8440 C   0  0  0  0  0  2  0  0  0  0  0  0
    4.5580    7.8570   16.3580 C   0  0  0  0  0  2  0  0  0  0  0  0
    4.5640    9.8880   16.2910 H   0  0  0  0  0  0  0  0  0  0  0  0
  1  2  1  0  0  0  0
  1  8  1  6  0  0  0
  2 17  1  1  0  0  0
  3  2  1  0  0  0  0
  3 24  1  0  0  0  0
  4  3  1  0  0  0  0
  5  4  2  0  0  0  0
  6  4  1  0  0  0  0
  6  1  1  0  0  0  0
  7  6  2  0  0  0  0
  8  9  1  1  0  0  0
 10  8  1  0  0  0  0
 10 15  2  0  0  0  0
 11 12  1  0  0  0  0
 11 10  1  0  0  0  0
 12 13  2  0  0  0  0
 13 15  1  0  0  0  0
 14 12  1  0  0  0  0
 15 16  1  0  0  0  0
 17 23  1  0  0  0  0
 18 17  2  0  0  0  0
 18 19  1  0  0  0  0
 19 20  2  0  0  0  0
 20 21  1  0  0  0  0
 20 22  1  0  0  0  0
 23 21  2  0  0  0  0
 24 25  1  0  0  0  0
 25 26  1  0  0  0  0
 26 32  1  0  0  0  0
 26 31  1  0  0  0  0
 26 27  1  0  0  0  0
 27 28  1  0  0  0  0
 28 29  1  0  0  0  0
 30 29  1  0  0  0  0
 31 30  1  0  0  0  0
M  END
>  <Pose>
1

>  <Score>
-7.021

$$$$
