/Users/jonathanwahrer/Desktop/Msc/3_Semester/Drug_Design_Praktikum/waehrer_HTS_screening/HTS_experiment/out/docking_results/vina_output/2jam/1192_docked.pdbqt
 OpenBabel03162218123D

 27 30  0  0  1  0  0  0  0  0999 V2000
    7.2160    8.9030   12.0870 S   0  0  0  0  0  0  0  0  0  0  0  0
    6.2690    8.0630   13.2480 C   0  0  0  0  0  0  0  0  0  0  0  0
    7.0970    7.0390   13.6210 C   0  0  0  0  0  0  0  0  0  0  0  0
    8.3040    6.9740   13.0390 C   0  0  0  0  0  0  0  0  0  0  0  0
    8.6130    7.9380   12.1170 C   0  0  0  0  0  0  0  0  0  0  0  0
    9.9680    7.8480   11.4780 C   0  0  0  0  0  2  0  0  0  0  0  0
   10.9650    7.8060   12.5450 N   0  0  0  0  0  4  0  0  0  0  0  0
   10.7240    6.7730   13.5040 C   0  0  0  0  0  2  0  0  0  0  0  0
    9.4490    5.9880   13.2180 C   0  0  0  0  0  2  0  0  0  0  0  0
   10.8530    9.0880   13.2410 C   0  0  0  0  0  1  0  0  0  0  0  0
    6.5160    6.1240   14.6430 C   0  0  0  0  0  0  0  0  0  0  0  0
    7.1790    5.1350   15.0760 O   0  0  0  0  0  0  0  0  0  0  0  0
    5.2070    6.3810   15.1240 N   0  0  0  0  0  0  0  0  0  0  0  0
    4.5530    7.6560   15.0660 C   0  0  2  0  0  3  0  0  0  0  0  0
    4.9410    8.2500   13.7960 N   0  0  0  0  0  0  0  0  0  0  0  0
   11.9230    7.7890   12.1390 H   0  0  0  0  0  0  0  0  0  0  0  0
    4.6900    5.5610   15.5530 H   0  0  0  0  0  0  0  0  0  0  0  0
    4.2890    8.8310   13.2320 H   0  0  0  0  0  0  0  0  0  0  0  0
    4.9500    8.5560   16.1750 C   0  0  0  0  0  0  0  0  0  0  0  0
    6.0900    9.3300   16.1130 C   0  0  0  0  0  3  0  0  0  0  0  0
    6.4740   10.1730   17.1320 C   0  0  0  0  0  0  0  0  0  0  0  0
    5.7030   10.2630   18.2730 C   0  0  0  0  0  0  0  0  0  0  0  0
    8.0430   11.2320   17.0350 Br  0  0  0  0  0  0  0  0  0  0  0  0
    4.5620    9.5010   18.3580 C   0  0  0  0  0  0  0  0  0  0  0  0
    6.0840   11.1090   19.3050 O   0  0  0  0  0  1  0  0  0  0  0  0
    4.1840    8.6580   17.3300 C   0  0  0  0  0  3  0  0  0  0  0  0
    3.5200    9.6580   19.9640 Br  0  0  0  0  0  0  0  0  0  0  0  0
  1  5  1  0  0  0  0
  1  2  1  0  0  0  0
  2  3  2  0  0  0  0
  2 15  1  0  0  0  0
  3 11  1  0  0  0  0
  4  9  1  0  0  0  0
  4  3  1  0  0  0  0
  5  4  2  0  0  0  0
  6  5  1  0  0  0  0
  6  7  1  0  0  0  0
  7 10  1  0  0  0  0
  7  8  1  0  0  0  0
  9  8  1  0  0  0  0
 11 12  2  0  0  0  0
 11 13  1  0  0  0  0
 13 17  1  0  0  0  0
 14 13  1  0  0  0  0
 14 19  1  1  0  0  0
 15 14  1  0  0  0  0
 16  7  1  0  0  0  0
 18 15  1  0  0  0  0
 19 26  1  0  0  0  0
 20 19  2  0  0  0  0
 20 21  1  0  0  0  0
 21 22  2  0  0  0  0
 22 24  1  0  0  0  0
 22 25  1  0  0  0  0
 23 21  1  0  0  0  0
 24 27  1  0  0  0  0
 26 24  2  0  0  0  0
M  END
>  <Pose>
1

>  <Score>
-7.727

$$$$
