/Users/jonathanwahrer/Desktop/Msc/3_Semester/Drug_Design_Praktikum/waehrer_HTS_screening/HTS_experiment/out/docking_results/vina_output/2jam/1206_docked.pdbqt
 OpenBabel03162218123D

 25 28  0  0  1  0  0  0  0  0999 V2000
   13.6440    5.2000   12.1270 S   0  0  0  0  0  0  0  0  0  0  0  0
   13.5060    6.9550   12.5550 C   0  0  2  0  0  3  0  0  0  0  0  0
   12.0620    6.9900   12.9760 C   0  0  0  0  0  2  0  0  0  0  0  0
   11.2590    6.0690   12.2290 N   0  0  0  0  0  0  0  0  0  0  0  0
   11.9220    5.0450   11.6670 C   0  0  2  0  0  3  0  0  0  0  0  0
   11.0600    4.2840   10.9830 N   0  0  0  0  0  0  0  0  0  0  0  0
    9.8250    4.8190   11.1020 C   0  0  0  0  0  3  0  0  0  0  0  0
    9.9320    5.9430   11.8850 C   0  0  0  0  0  0  0  0  0  0  0  0
   13.6540    7.8320   11.3350 C   0  0  0  0  0  1  0  0  0  0  0  0
    8.8250    6.8000   12.2370 C   0  0  0  0  0  0  0  0  0  0  0  0
    8.8430    8.1230   11.7630 C   0  0  0  0  0  3  0  0  0  0  0  0
    7.8050    8.9790   12.0260 C   0  0  0  0  0  3  0  0  0  0  0  0
    6.7010    8.6120   12.7530 C   0  0  0  0  0  0  0  0  0  0  0  0
    6.6580    7.3220   13.2280 C   0  0  0  0  0  3  0  0  0  0  0  0
    7.7170    6.4470   12.9600 C   0  0  0  0  0  3  0  0  0  0  0  0
    5.6710    9.5550   12.9810 N   0  0  0  0  0  0  0  0  0  0  0  0
    4.4830    9.2290   12.8920 O   0  0  0  0  0  0  0  0  0  0  0  0
    6.0000   10.8370   13.3030 O   0  0  0  0  0  0  0  0  0  0  0  0
   11.3680    3.1060   10.2460 C   0  0  0  0  0  0  0  0  0  0  0  0
   10.4110    2.1660    9.9410 C   0  0  0  0  0  3  0  0  0  0  0  0
   10.6830    1.0170    9.2280 C   0  0  0  0  0  3  0  0  0  0  0  0
   11.9670    0.7760    8.7930 C   0  0  0  0  0  0  0  0  0  0  0  0
   12.9570    1.6990    9.0820 C   0  0  0  0  0  3  0  0  0  0  0  0
   12.3820   -0.8080    7.8030 Br  0  0  0  0  0  0  0  0  0  0  0  0
   12.6580    2.8420    9.7960 C   0  0  0  0  0  3  0  0  0  0  0  0
  1  2  1  0  0  0  0
  2  9  1  6  0  0  0
  2  3  1  0  0  0  0
  4  3  1  0  0  0  0
  5  1  1  1  0  0  0
  5  4  1  0  0  0  0
  6  7  1  0  0  0  0
  6  5  1  0  0  0  0
  7  8  2  0  0  0  0
  8  4  1  0  0  0  0
  8 10  1  0  0  0  0
 10 15  1  0  0  0  0
 11 12  1  0  0  0  0
 11 10  2  0  0  0  0
 12 13  2  0  0  0  0
 13 16  1  0  0  0  0
 13 14  1  0  0  0  0
 15 14  2  0  0  0  0
 16 18  2  0  0  0  0
 17 16  2  0  0  0  0
 19  6  1  0  0  0  0
 20 19  1  0  0  0  0
 21 20  2  0  0  0  0
 22 23  2  0  0  0  0
 22 21  1  0  0  0  0
 23 25  1  0  0  0  0
 24 22  1  0  0  0  0
 25 19  2  0  0  0  0
M  END
>  <Pose>
1

>  <Score>
-8.564

$$$$
