/Users/jonathanwahrer/Desktop/Msc/3_Semester/Drug_Design_Praktikum/waehrer_HTS_screening/HTS_experiment/out/docking_results/vina_output/2jam/1209_docked.pdbqt
 OpenBabel03162218123D

 24 27  0  0  1  0  0  0  0  0999 V2000
   15.2970    5.5470   11.9370 S   0  0  0  0  0  0  0  0  0  0  0  0
   16.8030    5.2030   12.8880 C   0  0  0  0  0  2  0  0  0  0  0  0
   17.2940    3.8290   12.4700 C   0  0  0  0  0  2  0  0  0  0  0  0
   17.2360    3.6900   10.9630 C   0  0  0  0  0  2  0  0  0  0  0  0
   15.8830    3.2700   10.6350 N   0  0  0  0  0  0  0  0  0  0  0  0
   14.8860    4.0610   11.0400 C   0  0  1  0  0  3  0  0  0  0  0  0
   13.6900    3.5020   10.6410 N   0  0  0  0  0  0  0  0  0  0  0  0
   13.9390    2.3760    9.9940 C   0  0  0  0  0  0  0  0  0  0  0  0
   15.3260    2.2450   10.0010 C   0  0  0  0  0  3  0  0  0  0  0  0
   13.0420    1.4120    9.3760 C   0  0  0  0  0  0  0  0  0  0  0  0
   13.4460    0.7550    8.2040 C   0  0  0  0  0  3  0  0  0  0  0  0
   12.6460   -0.1600    7.5780 C   0  0  0  0  0  3  0  0  0  0  0  0
   11.3970   -0.5030    8.0430 C   0  0  0  0  0  0  0  0  0  0  0  0
   10.9930    0.1350    9.1870 C   0  0  0  0  0  3  0  0  0  0  0  0
   11.7970    1.0760    9.8460 C   0  0  0  0  0  3  0  0  0  0  0  0
   10.6140   -1.4380    7.3790 O   0  0  0  0  0  0  0  0  0  0  0  0
    9.3100   -1.7350    7.8410 C   0  0  0  0  0  1  0  0  0  0  0  0
   12.4380    4.1210   10.9290 C   0  0  0  0  0  0  0  0  0  0  0  0
   11.7810    4.8720    9.9700 C   0  0  0  0  0  3  0  0  0  0  0  0
   10.5540    5.4590   10.2070 C   0  0  0  0  0  3  0  0  0  0  0  0
    9.9780    5.2790   11.4490 C   0  0  0  0  0  0  0  0  0  0  0  0
   10.6400    4.5290   12.3980 C   0  0  0  0  0  3  0  0  0  0  0  0
    8.2740    6.0570   11.8730 Br  0  0  0  0  0  0  0  0  0  0  0  0
   11.8650    3.9350   12.1830 C   0  0  0  0  0  3  0  0  0  0  0  0
  1  2  1  0  0  0  0
  3  2  1  0  0  0  0
  4  3  1  0  0  0  0
  5  4  1  0  0  0  0
  5  6  1  0  0  0  0
  6  1  1  1  0  0  0
  7 18  1  0  0  0  0
  7  6  1  0  0  0  0
  8  9  2  0  0  0  0
  8  7  1  0  0  0  0
  9  5  1  0  0  0  0
 10 15  1  0  0  0  0
 10  8  1  0  0  0  0
 11 10  2  0  0  0  0
 12 13  2  0  0  0  0
 12 11  1  0  0  0  0
 13 14  1  0  0  0  0
 14 15  2  0  0  0  0
 16 17  1  0  0  0  0
 16 13  1  0  0  0  0
 18 24  1  0  0  0  0
 19 20  1  0  0  0  0
 19 18  2  0  0  0  0
 20 21  2  0  0  0  0
 21 23  1  0  0  0  0
 21 22  1  0  0  0  0
 24 22  2  0  0  0  0
M  END
>  <Pose>
1

>  <Score>
-8.192

$$$$
