/Users/jonathanwahrer/Desktop/Msc/3_Semester/Drug_Design_Praktikum/waehrer_HTS_screening/HTS_experiment/out/docking_results/vina_output/2jam/1217_docked.pdbqt
 OpenBabel03162218123D

 28 31  0  0  1  0  0  0  0  0999 V2000
    5.1450    8.5810   12.7660 S   0  0  0  0  0  0  0  0  0  0  0  0
    3.4900    9.0240   13.2350 C   0  0  0  0  0  2  0  0  0  0  0  0
    3.4380    9.2830   14.7270 C   0  0  0  0  0  2  0  0  0  0  0  0
    3.8430    8.0230   15.4710 C   0  0  0  0  0  2  0  0  0  0  0  0
    5.2740    7.8360   15.3800 N   0  0  2  0  0  0  0  0  0  0  0  0
    6.2800    7.6810   16.3800 C   0  0  2  0  0  0  0  0  0  0  0  0
    7.2230    6.7400   15.6480 C   0  0  0  0  0  2  0  0  0  0  0  0
    7.1390    7.1950   14.2790 N   0  0  0  0  0  0  0  0  0  0  0  0
    5.9970    7.7730   14.1380 C   0  0  2  0  0  3  0  0  0  0  0  0
    8.1290    7.0790   13.2670 C   0  0  0  0  0  0  0  0  0  0  0  0
    8.9490    8.1790   13.0570 C   0  0  0  0  0  0  0  0  0  0  0  0
    9.9310    8.1510   12.0610 C   0  0  0  0  0  3  0  0  0  0  0  0
   10.0830    7.0180   11.2810 C   0  0  0  0  0  3  0  0  0  0  0  0
    9.2890    5.9110   11.4630 C   0  0  0  0  0  0  0  0  0  0  0  0
    8.3210    6.0030   12.4810 C   0  0  0  0  0  3  0  0  0  0  0  0
    8.7920    9.3070   13.8340 O   0  0  0  0  0  0  0  0  0  0  0  0
    8.3470   10.5590   13.3680 C   0  0  0  0  0  1  0  0  0  0  0  0
    9.3920    4.7490   10.7170 O   0  0  0  0  0  0  0  0  0  0  0  0
   10.5800    4.1550   10.2790 C   0  0  0  0  0  1  0  0  0  0  0  0
    5.7460    7.0730   17.5120 O   0  0  0  0  0  0  0  0  0  0  0  0
    4.7900    6.8850   17.3790 H   0  0  0  0  0  0  0  0  0  0  0  0
    7.0410    8.9000   16.7160 C   0  0  0  0  0  0  0  0  0  0  0  0
    6.5860   10.1790   16.6480 C   0  0  0  0  0  3  0  0  0  0  0  0
    7.4080   11.2640   16.9550 C   0  0  0  0  0  3  0  0  0  0  0  0
    8.7200   11.0810   17.3400 C   0  0  0  0  0  0  0  0  0  0  0  0
    9.1860    9.8040   17.4110 C   0  0  0  0  0  3  0  0  0  0  0  0
    9.8390   12.5820   17.7530 Br  0  0  0  0  0  0  0  0  0  0  0  0
    8.3810    8.7410   17.1100 C   0  0  0  0  0  3  0  0  0  0  0  0
  1  2  1  0  0  0  0
  2  3  1  0  0  0  0
  3  4  1  0  0  0  0
  5  4  1  1  0  0  0
  5  6  1  0  0  0  0
  6 22  1  0  0  0  0
  6 20  1  1  0  0  0
  7  6  1  0  0  0  0
  8  7  1  0  0  0  0
  9  1  1  1  0  0  0
  9  8  1  0  0  0  0
  9  5  1  0  0  0  0
 10  8  1  0  0  0  0
 11 10  1  0  0  0  0
 11 16  1  0  0  0  0
 12 11  2  0  0  0  0
 13 14  2  0  0  0  0
 13 12  1  0  0  0  0
 14 15  1  0  0  0  0
 15 10  2  0  0  0  0
 17 16  1  0  0  0  0
 18 14  1  0  0  0  0
 19 18  1  0  0  0  0
 21 20  1  0  0  0  0
 22 28  1  0  0  0  0
 23 22  2  0  0  0  0
 23 24  1  0  0  0  0
 24 25  2  0  0  0  0
 25 26  1  0  0  0  0
 25 27  1  0  0  0  0
 28 26  2  0  0  0  0
M  END
>  <Pose>
1

>  <Score>
-6.329

$$$$
