/Users/jonathanwahrer/Desktop/Msc/3_Semester/Drug_Design_Praktikum/waehrer_HTS_screening/HTS_experiment/out/docking_results/vina_output/2jam/1220_docked.pdbqt
 OpenBabel03162218133D

 27 30  0  0  1  0  0  0  0  0999 V2000
   13.0490    6.8330   12.3640 S   0  0  0  0  0  0  0  0  0  0  0  0
   13.1700    7.5120   14.0680 C   0  0  0  0  0  2  0  0  0  0  0  0
   11.9950    8.2990   14.4700 C   0  0  0  0  0  2  0  0  0  0  0  0
   10.9930    8.6800   13.4590 C   0  0  0  0  0  2  0  0  0  0  0  0
   10.4990    7.6850   12.5980 N   0  0  1  0  0  0  0  0  0  0  0  0
    9.2630    7.4870   11.9050 C   0  0  2  0  0  0  0  0  0  0  0  0
    9.1610    5.9780   11.9380 C   0  0  0  0  0  2  0  0  0  0  0  0
   10.5500    5.5870   11.8250 N   0  0  0  0  0  0  0  0  0  0  0  0
   11.2800    6.5290   12.1990 C   0  0  1  0  0  3  0  0  0  0  0  0
    9.4280    7.8420   10.5630 O   0  0  0  0  0  0  0  0  0  0  0  0
    9.4780    7.0340   10.0270 H   0  0  0  0  0  0  0  0  0  0  0  0
    8.0740    8.1310   12.4950 C   0  0  0  0  0  0  0  0  0  0  0  0
    7.5910    9.2750   11.8670 C   0  0  0  0  0  3  0  0  0  0  0  0
    6.4850    9.9440   12.3400 C   0  0  0  0  0  3  0  0  0  0  0  0
    5.7980    9.5130   13.4610 C   0  0  0  0  0  0  0  0  0  0  0  0
    6.2710    8.3750   14.0870 C   0  0  0  0  0  3  0  0  0  0  0  0
    7.3960    7.6980   13.6050 C   0  0  0  0  0  3  0  0  0  0  0  0
    4.6620   10.2170   13.9260 N   0  0  0  0  0  0  0  0  0  0  0  0
    4.7270   11.2640   14.5800 O   0  0  0  0  0  0  0  0  0  0  0  0
    3.4140    9.7260   13.6400 O   0  0  0  0  0  0  0  0  0  0  0  0
   11.0090    4.3200   11.3400 C   0  0  0  0  0  0  0  0  0  0  0  0
   10.5550    3.8810   10.1040 C   0  0  0  0  0  3  0  0  0  0  0  0
   10.9410    2.6500    9.5790 C   0  0  0  0  0  3  0  0  0  0  0  0
   11.7930    1.8250   10.2790 C   0  0  0  0  0  0  0  0  0  0  0  0
   12.2510    2.2460   11.5040 C   0  0  0  0  0  3  0  0  0  0  0  0
   12.3090    0.1190    9.5550 Br  0  0  0  0  0  0  0  0  0  0  0  0
   11.8440    3.4870   12.0080 C   0  0  0  0  0  3  0  0  0  0  0  0
  1  2  1  0  0  0  0
  2  3  1  0  0  0  0
  4  3  1  0  0  0  0
  5  4  1  6  0  0  0
  6 10  1  6  0  0  0
  6  7  1  0  0  0  0
  6 12  1  0  0  0  0
  6  5  1  0  0  0  0
  8  7  1  0  0  0  0
  8  9  1  0  0  0  0
  9  1  1  6  0  0  0
  9  5  1  0  0  0  0
 11 10  1  0  0  0  0
 12 17  1  0  0  0  0
 13 14  1  0  0  0  0
 13 12  2  0  0  0  0
 14 15  2  0  0  0  0
 15 18  1  0  0  0  0
 15 16  1  0  0  0  0
 17 16  2  0  0  0  0
 18 19  2  0  0  0  0
 20 18  2  0  0  0  0
 21  8  1  0  0  0  0
 21 27  1  0  0  0  0
 22 21  2  0  0  0  0
 23 22  1  0  0  0  0
 23 24  2  0  0  0  0
 24 25  1  0  0  0  0
 25 27  2  0  0  0  0
 26 24  1  0  0  0  0
M  END
>  <Pose>
1

>  <Score>
-8.156

$$$$
