/Users/jonathanwahrer/Desktop/Msc/3_Semester/Drug_Design_Praktikum/waehrer_HTS_screening/HTS_experiment/out/docking_results/vina_output/2jam/1222_docked.pdbqt
 OpenBabel03162218133D

 24 27  0  0  1  0  0  0  0  0999 V2000
   10.1520    5.3130   13.1370 S   0  0  0  0  0  0  0  0  0  0  0  0
    8.8430    6.6090   12.9790 C   0  0  0  0  0  2  0  0  0  0  0  0
    9.4210    7.8640   12.3770 C   0  0  0  0  0  2  0  0  0  0  0  0
   10.8940    8.0590   12.6670 C   0  0  0  0  0  2  0  0  0  0  0  0
   11.7440    7.1750   11.9710 N   0  0  1  0  0  0  0  0  0  0  0  0
   13.0550    7.1460   11.2990 C   0  0  1  0  0  0  0  0  0  0  0  0
   12.6860    6.2100   10.1720 C   0  0  0  0  0  2  0  0  0  0  0  0
   11.8910    5.2140   10.8750 N   0  0  0  0  0  0  0  0  0  0  0  0
   11.3140    5.7940   11.8180 C   0  0  1  0  0  3  0  0  0  0  0  0
   13.4350    8.3580   10.8120 O   0  0  0  0  0  0  0  0  0  0  0  0
   13.0720    8.6060    9.9250 H   0  0  0  0  0  0  0  0  0  0  0  0
   14.0840    6.4930   12.1750 C   0  0  0  0  0  0  0  0  0  0  0  0
   14.9380    5.5070   11.7210 C   0  0  0  0  0  3  0  0  0  0  0  0
   15.8670    4.9600   12.5970 C   0  0  0  0  0  3  0  0  0  0  0  0
   15.9810    5.3640   13.9210 C   0  0  0  0  0  3  0  0  0  0  0  0
   15.1380    6.3410   14.3770 C   0  0  0  0  0  3  0  0  0  0  0  0
   14.2020    6.8900   13.5010 C   0  0  0  0  0  3  0  0  0  0  0  0
   11.8480    3.8050   10.5610 C   0  0  0  0  0  0  0  0  0  0  0  0
   12.8840    2.9370   10.7050 C   0  0  0  0  0  3  0  0  0  0  0  0
   12.8140    1.5970   10.3470 C   0  0  0  0  0  3  0  0  0  0  0  0
   11.6520    1.0990    9.8190 C   0  0  0  0  0  0  0  0  0  0  0  0
   10.5960    1.9770    9.6720 C   0  0  0  0  0  3  0  0  0  0  0  0
   11.4640   -0.7380    9.2920 Br  0  0  0  0  0  0  0  0  0  0  0  0
   10.6670    3.2960   10.0250 C   0  0  0  0  0  3  0  0  0  0  0  0
  2  1  1  0  0  0  0
  3  4  1  0  0  0  0
  3  2  1  0  0  0  0
  5  4  1  1  0  0  0
  6 10  1  6  0  0  0
  6  5  1  0  0  0  0
  6 12  1  0  0  0  0
  7  8  1  0  0  0  0
  7  6  1  0  0  0  0
  8  9  1  0  0  0  0
  9  5  1  0  0  0  0
  9  1  1  1  0  0  0
 11 10  1  0  0  0  0
 12 17  1  0  0  0  0
 13 12  2  0  0  0  0
 13 14  1  0  0  0  0
 14 15  2  0  0  0  0
 15 16  1  0  0  0  0
 17 16  2  0  0  0  0
 18 19  1  0  0  0  0
 18  8  1  0  0  0  0
 20 19  2  0  0  0  0
 21 20  1  0  0  0  0
 22 21  2  0  0  0  0
 22 24  1  0  0  0  0
 23 21  1  0  0  0  0
 24 18  2  0  0  0  0
M  END
>  <Pose>
1

>  <Score>
-6.921

$$$$
