/Users/jonathanwahrer/Desktop/Msc/3_Semester/Drug_Design_Praktikum/waehrer_HTS_screening/HTS_experiment/out/docking_results/vina_output/2jam/1224_docked.pdbqt
 OpenBabel03162218133D

 26 29  0  0  1  0  0  0  0  0999 V2000
   10.0440    5.2460   13.0700 S   0  0  0  0  0  0  0  0  0  0  0  0
    8.8550    6.6420   13.2150 C   0  0  0  0  0  2  0  0  0  0  0  0
    9.7090    7.8620   13.5260 C   0  0  0  0  0  2  0  0  0  0  0  0
   10.5460    8.2740   12.3560 C   0  0  0  0  0  2  0  0  0  0  0  0
   11.5290    7.3160   11.9540 N   0  0  2  0  0  0  0  0  0  0  0  0
   12.9240    7.3700   11.5050 C   0  0  1  0  0  0  0  0  0  0  0  0
   12.7980    6.3200   10.3860 C   0  0  0  0  0  2  0  0  0  0  0  0
   11.9880    5.3050   11.0350 N   0  0  0  0  0  0  0  0  0  0  0  0
   11.2720    5.8870   11.9080 C   0  0  1  0  0  3  0  0  0  0  0  0
   13.2020    8.6150   10.9910 O   0  0  0  0  0  0  0  0  0  0  0  0
   12.5870    9.3140   11.3190 H   0  0  0  0  0  0  0  0  0  0  0  0
   13.8730    6.8990   12.5290 C   0  0  0  0  0  0  0  0  0  0  0  0
   14.8150    5.9090   12.3550 C   0  0  0  0  0  3  0  0  0  0  0  0
   15.6690    5.5450   13.3820 C   0  0  0  0  0  3  0  0  0  0  0  0
   15.5920    6.1670   14.5940 C   0  0  0  0  0  0  0  0  0  0  0  0
   14.6550    7.1590   14.7860 C   0  0  0  0  0  3  0  0  0  0  0  0
   16.7460    5.7080   16.0610 Br  0  0  0  0  0  0  0  0  0  0  0  0
   13.8150    7.5100   13.7600 C   0  0  0  0  0  3  0  0  0  0  0  0
   12.0590    3.9050   10.6780 C   0  0  0  0  0  0  0  0  0  0  0  0
   11.0320    3.3280    9.9370 C   0  0  0  0  0  3  0  0  0  0  0  0
   11.0690    1.9970    9.5840 C   0  0  0  0  0  3  0  0  0  0  0  0
   12.1100    1.1650    9.9380 C   0  0  0  0  0  0  0  0  0  0  0  0
   13.1280    1.7270   10.6700 C   0  0  0  0  0  3  0  0  0  0  0  0
   13.0860    3.0840   11.0280 C   0  0  0  0  0  3  0  0  0  0  0  0
   12.1140   -0.1740    9.5610 O   0  0  0  0  0  0  0  0  0  0  0  0
   12.1210   -0.6480    8.2450 C   0  0  0  0  0  1  0  0  0  0  0  0
  1  2  1  0  0  0  0
  2  3  1  0  0  0  0
  4  3  1  0  0  0  0
  5  4  1  6  0  0  0
  6 10  1  6  0  0  0
  6  5  1  0  0  0  0
  6 12  1  0  0  0  0
  7  8  1  0  0  0  0
  7  6  1  0  0  0  0
  8  9  1  0  0  0  0
  9  5  1  0  0  0  0
  9  1  1  1  0  0  0
 10 11  1  0  0  0  0
 12 18  1  0  0  0  0
 13 12  2  0  0  0  0
 13 14  1  0  0  0  0
 14 15  2  0  0  0  0
 15 16  1  0  0  0  0
 15 17  1  0  0  0  0
 18 16  2  0  0  0  0
 19 24  1  0  0  0  0
 19  8  1  0  0  0  0
 20 19  2  0  0  0  0
 21 20  1  0  0  0  0
 21 22  2  0  0  0  0
 22 23  1  0  0  0  0
 23 24  2  0  0  0  0
 25 22  1  0  0  0  0
 26 25  1  0  0  0  0
M  END
>  <Pose>
1

>  <Score>
-6.682

$$$$
