/Users/jonathanwahrer/Desktop/Msc/3_Semester/Drug_Design_Praktikum/waehrer_HTS_screening/HTS_experiment/out/docking_results/vina_output/2jam/1226_docked.pdbqt
 OpenBabel03162218133D

 24 27  0  0  1  0  0  0  0  0999 V2000
   13.7000    5.0410   11.9250 S   0  0  0  0  0  0  0  0  0  0  0  0
   14.5460    6.6330   12.1300 C   0  0  0  0  0  2  0  0  0  0  0  0
   13.7080    7.6620   11.3650 C   0  0  0  0  0  2  0  0  0  0  0  0
   12.3480    7.7800   12.0710 C   0  0  0  0  0  2  0  0  0  0  0  0
   11.4910    6.6990   11.5700 N   0  0  1  0  0  0  0  0  0  0  0  0
   10.1410    6.6390   11.1820 C   0  0  2  0  0  0  0  0  0  0  0  0
   10.0090    5.3150   10.4370 C   0  0  0  0  0  2  0  0  0  0  0  0
   11.2440    4.6410   10.6960 N   0  0  0  0  0  0  0  0  0  0  0  0
   12.0270    5.4030   11.3430 C   0  0  1  0  0  3  0  0  0  0  0  0
    9.8870    7.6390   10.2170 O   0  0  0  0  0  0  0  0  0  0  0  0
    9.3100    8.3120   10.6630 H   0  0  0  0  0  0  0  0  0  0  0  0
    9.1010    6.7100   12.2060 C   0  0  0  0  0  0  0  0  0  0  0  0
    8.1240    7.6890   12.0280 C   0  0  0  0  0  3  0  0  0  0  0  0
    7.0540    7.8690   12.8840 C   0  0  0  0  0  3  0  0  0  0  0  0
    6.9160    7.0620   13.9800 C   0  0  0  0  0  0  0  0  0  0  0  0
    7.8750    6.0840   14.1750 C   0  0  0  0  0  3  0  0  0  0  0  0
    5.4400    7.2520   15.2070 Br  0  0  0  0  0  0  0  0  0  0  0  0
    8.9470    5.9120   13.3030 C   0  0  0  0  0  3  0  0  0  0  0  0
   11.5060    3.3120   10.2150 C   0  0  0  0  0  0  0  0  0  0  0  0
   10.5340    2.3700   10.3150 C   0  0  0  0  0  3  0  0  0  0  0  0
   10.8020    1.1000    9.8150 C   0  0  0  0  0  3  0  0  0  0  0  0
   12.0020    0.7670    9.2270 C   0  0  0  0  0  3  0  0  0  0  0  0
   12.9600    1.7570    9.1500 C   0  0  0  0  0  3  0  0  0  0  0  0
   12.7280    3.0220    9.6340 C   0  0  0  0  0  3  0  0  0  0  0  0
  1  2  1  0  0  0  0
  3  4  1  0  0  0  0
  3  2  1  0  0  0  0
  5  4  1  6  0  0  0
  6 10  1  6  0  0  0
  6  5  1  0  0  0  0
  6 12  1  0  0  0  0
  7  8  1  0  0  0  0
  7  6  1  0  0  0  0
  8  9  1  0  0  0  0
  9  5  1  0  0  0  0
  9  1  1  6  0  0  0
 10 11  1  0  0  0  0
 12 18  1  0  0  0  0
 13 12  2  0  0  0  0
 13 14  1  0  0  0  0
 14 15  2  0  0  0  0
 15 16  1  0  0  0  0
 15 17  1  0  0  0  0
 18 16  2  0  0  0  0
 19 20  1  0  0  0  0
 19  8  1  0  0  0  0
 21 20  2  0  0  0  0
 22 21  1  0  0  0  0
 23 22  2  0  0  0  0
 23 24  1  0  0  0  0
 24 19  2  0  0  0  0
M  END
>  <Pose>
1

>  <Score>
-7.743

$$$$
