/Users/jonathanwahrer/Desktop/Msc/3_Semester/Drug_Design_Praktikum/waehrer_HTS_screening/HTS_experiment/out/docking_results/vina_output/2jam/1237_docked.pdbqt
 OpenBabel03162218143D

 30 34  0  0  1  0  0  0  0  0999 V2000
    5.7850    9.2740   16.5020 C   0  0  2  0  0  3  0  0  0  0  0  0
    4.9800    8.8870   15.3350 C   0  0  1  0  0  3  0  0  0  0  0  0
    4.3960    9.8390   14.4330 C   0  0  0  0  0  0  0  0  0  0  0  0
    5.1850   10.2250   13.2740 N   0  0  0  0  0  0  0  0  0  0  0  0
    3.2780   10.4090   14.4780 O   0  0  0  0  0  0  0  0  0  0  0  0
    6.0850    9.4260   12.7950 C   0  0  0  0  0  0  0  0  0  0  0  0
    7.2140    9.6040   11.3890 S   0  0  0  0  0  0  0  0  0  0  0  0
    6.4100    8.1720   13.3520 N   0  0  0  0  0  0  0  0  0  0  0  0
    8.3820    8.2990   11.9730 C   0  0  0  0  0  2  0  0  0  0  0  0
    7.4060    7.4190   12.6880 C   0  0  0  0  0  2  0  0  0  0  0  0
    5.6630    7.8020   14.5340 C   0  0  0  0  0  0  0  0  0  0  0  0
    5.5900    6.6080   14.8750 O   0  0  0  0  0  0  0  0  0  0  0  0
    7.2240    8.9910   16.5830 C   0  0  1  0  0  3  0  0  0  0  0  0
    7.9580   10.3270   16.4770 C   0  0  0  0  0  0  0  0  0  0  0  0
    8.1040   10.8700   15.3580 O   0  0  0  0  0  0  0  0  0  0  0  0
    8.4810   10.9640   17.6660 N   0  0  0  0  0  0  0  0  0  0  0  0
    8.8830   12.3200   17.8150 C   0  0  0  0  0  2  0  0  0  0  0  0
    8.6330   10.1520   18.8150 C   0  0  0  0  0  0  0  0  0  0  0  0
    8.6880   12.7990   19.2320 C   0  0  0  0  0  2  0  0  0  0  0  0
    9.2530   11.2480   20.0790 S   0  0  0  0  0  0  0  0  0  0  0  0
    8.3430    8.9120   18.8580 N   0  0  0  0  0  0  0  0  0  0  0  0
    7.8210    8.2530   17.6650 C   0  0  0  0  0  0  0  0  0  0  0  0
    7.9380    7.0150   17.6550 O   0  0  0  0  0  0  0  0  0  0  0  0
    5.0530    9.0510   17.8080 C   0  0  0  0  0  0  0  0  0  0  0  0
    4.4780    7.8370   18.0980 C   0  0  0  0  0  3  0  0  0  0  0  0
    3.8180    7.6750   19.2900 C   0  0  0  0  0  3  0  0  0  0  0  0
    3.7010    8.6670   20.2120 C   0  0  0  0  0  0  0  0  0  0  0  0
    4.2650    9.8910   19.9510 C   0  0  0  0  0  3  0  0  0  0  0  0
    2.7760    8.4310   21.8760 Br  0  0  0  0  0  0  0  0  0  0  0  0
    4.9360   10.0560   18.7390 C   0  0  0  0  0  3  0  0  0  0  0  0
  1 24  1  1  0  0  0
  2  1  1  1  0  0  0
  3  5  2  0  0  0  0
  3  2  1  0  0  0  0
  4  3  1  0  0  0  0
  6  4  2  0  0  0  0
  6  8  1  0  0  0  0
  7  9  1  0  0  0  0
  7  6  1  0  0  0  0
  8 11  1  0  0  0  0
  9 10  1  0  0  0  0
 10  8  1  0  0  0  0
 11 12  2  0  0  0  0
 11  2  1  0  0  0  0
 13  1  1  1  0  0  0
 13 22  1  0  0  0  0
 14 13  1  0  0  0  0
 14 16  1  0  0  0  0
 15 14  2  0  0  0  0
 16 17  1  0  0  0  0
 16 18  1  0  0  0  0
 17 19  1  0  0  0  0
 18 21  2  0  0  0  0
 18 20  1  0  0  0  0
 19 20  1  0  0  0  0
 22 21  1  0  0  0  0
 23 22  2  0  0  0  0
 24 25  2  0  0  0  0
 24 30  1  0  0  0  0
 25 26  1  0  0  0  0
 26 27  2  0  0  0  0
 27 29  1  0  0  0  0
 28 27  1  0  0  0  0
 30 28  2  0  0  0  0
M  END
>  <Pose>
1

>  <Score>
-7.010

$$$$
