/Users/jonathanwahrer/Desktop/Msc/3_Semester/Drug_Design_Praktikum/waehrer_HTS_screening/HTS_experiment/out/docking_results/vina_output/2jam/1248_docked.pdbqt
 OpenBabel03162218143D

 21 24  0  0  0  0  0  0  0  0999 V2000
   13.1920    1.5520   10.3640 S   0  0  0  0  0  0  0  0  0  0  0  0
   13.2890    3.0820   11.1380 C   0  0  0  0  0  0  0  0  0  0  0  0
   12.0340    3.5120   11.0210 N   0  0  0  0  0  0  0  0  0  0  0  0
   12.0460    4.7470   11.6290 C   0  0  0  0  0  0  0  0  0  0  0  0
   13.2730    5.0100   12.0760 N   0  0  0  0  0  0  0  0  0  0  0  0
   14.0710    4.0010   11.7910 N   0  0  0  0  0  0  0  0  0  0  0  0
   11.1790    2.7740   10.4380 N   0  0  0  0  0  0  0  0  0  0  0  0
   11.5180    1.5970    9.9500 C   0  0  0  0  0  0  0  0  0  0  0  0
   10.7090    0.5940    9.2490 C   0  0  0  0  0  0  0  0  0  0  0  0
    9.4040    0.3530    9.4250 N   0  0  0  0  0  0  0  0  0  0  0  0
    9.0240   -0.6380    8.6020 N   0  0  0  0  0  0  0  0  0  0  0  0
   10.0930   -1.0420    7.8880 C   0  0  0  0  0  3  0  0  0  0  0  0
    8.0520   -1.0190    8.5410 H   0  0  0  0  0  0  0  0  0  0  0  0
   11.1690   -0.2530    8.3030 C   0  0  0  0  0  0  0  0  0  0  0  0
   12.9160   -0.4130    7.6110 Br  0  0  0  0  0  0  0  0  0  0  0  0
   10.8910    5.6560   11.7730 C   0  0  0  0  0  0  0  0  0  0  0  0
   10.1310    5.6440   12.8830 N   0  0  0  0  0  0  0  0  0  0  0  0
    9.0760    6.4810   13.0020 C   0  0  0  0  0  3  0  0  0  0  0  0
    8.7670    7.3530   11.9950 C   0  0  0  0  0  3  0  0  0  0  0  0
    9.5310    7.3540   10.9010 N   0  0  0  0  0  0  0  0  0  0  0  0
   10.5900    6.5290   10.7550 C   0  0  0  0  0  3  0  0  0  0  0  0
  1  2  1  0  0  0  0
  2  6  2  0  0  0  0
  3  2  1  0  0  0  0
  3  4  1  0  0  0  0
  4 16  1  0  0  0  0
  4  5  2  0  0  0  0
  6  5  1  0  0  0  0
  7  3  1  0  0  0  0
  8  1  1  0  0  0  0
  8  7  2  0  0  0  0
  9 10  2  0  0  0  0
  9  8  1  0  0  0  0
 11 10  1  0  0  0  0
 12 14  2  0  0  0  0
 12 11  1  0  0  0  0
 13 11  1  0  0  0  0
 14  9  1  0  0  0  0
 15 14  1  0  0  0  0
 16 17  1  0  0  0  0
 17 18  2  0  0  0  0
 19 18  1  0  0  0  0
 20 19  2  0  0  0  0
 21 20  1  0  0  0  0
 21 16  2  0  0  0  0
M  END
>  <Pose>
1

>  <Score>
-7.242

$$$$
