/Users/jonathanwahrer/Desktop/Msc/3_Semester/Drug_Design_Praktikum/waehrer_HTS_screening/HTS_experiment/out/docking_results/vina_output/2jam/1255_docked.pdbqt
 OpenBabel03162218153D

 34 38  0  0  1  0  0  0  0  0999 V2000
    9.5600    7.4680   12.5700 C   0  0  1  0  0  3  0  0  0  0  0  0
   10.4140    8.6690   12.8620 C   0  0  2  0  0  3  0  0  0  0  0  0
   11.7430    8.1810   13.4350 C   0  0  0  0  0  0  0  0  0  0  0  0
   11.6800    7.5230   14.7210 N   0  0  0  0  0  0  0  0  0  0  0  0
   12.7650    8.3760   12.7790 O   0  0  0  0  0  0  0  0  0  0  0  0
   10.7500    7.8460   15.5600 C   0  0  0  0  0  0  0  0  0  0  0  0
   10.3910    7.2400   17.2010 S   0  0  0  0  0  0  0  0  0  0  0  0
    9.7780    8.8350   15.2950 N   0  0  0  0  0  0  0  0  0  0  0  0
    8.9830    8.3070   17.4720 C   0  0  0  0  0  0  0  0  0  0  0  0
    8.8670    9.0690   16.2890 N   0  0  0  0  0  0  0  0  0  0  0  0
    8.2300    8.3460   18.5670 C   0  0  0  0  0  2  0  0  0  0  0  0
    8.0780    9.8040   16.2200 H   0  0  0  0  0  0  0  0  0  0  0  0
    9.8800    9.4880   13.9960 C   0  0  0  0  0  0  0  0  0  0  0  0
    9.5270   10.6960   13.8720 O   0  0  0  0  0  0  0  0  0  0  0  0
    8.2840    7.6940   11.8630 C   0  0  2  0  0  3  0  0  0  0  0  0
    7.4320    8.7800   12.3230 C   0  0  0  0  0  0  0  0  0  0  0  0
    7.4010    9.8840   11.6800 O   0  0  0  0  0  0  0  0  0  0  0  0
    6.6000    8.6470   13.5050 N   0  0  0  0  0  0  0  0  0  0  0  0
    6.1150    9.6340   14.3030 N   0  0  0  0  0  0  0  0  0  0  0  0
    6.2590    7.3230   13.8470 C   0  0  0  0  0  0  0  0  0  0  0  0
    5.3120    9.2450   15.4030 C   0  0  0  0  0  0  0  0  0  0  0  0
    6.2920   10.6880   14.1610 H   0  0  0  0  0  0  0  0  0  0  0  0
    4.7220    9.9870   16.3150 C   0  0  0  0  0  2  0  0  0  0  0  0
    5.2510    7.4580   15.3120 S   0  0  0  0  0  0  0  0  0  0  0  0
    6.6380    6.2890   13.1850 N   0  0  0  0  0  0  0  0  0  0  0  0
    7.4630    6.4250   12.0160 C   0  0  0  0  0  0  0  0  0  0  0  0
    7.5510    5.5750   11.1180 O   0  0  0  0  0  0  0  0  0  0  0  0
   10.3410    6.3980   11.8860 C   0  0  0  0  0  0  0  0  0  0  0  0
   10.7810    6.5530   10.5910 C   0  0  0  0  0  3  0  0  0  0  0  0
   11.5020    5.5700    9.9550 C   0  0  0  0  0  3  0  0  0  0  0  0
   11.7930    4.4010   10.6220 C   0  0  0  0  0  0  0  0  0  0  0  0
   11.3650    4.2030   11.9370 C   0  0  0  0  0  3  0  0  0  0  0  0
   12.7930    3.0150    9.7650 Br  0  0  0  0  0  0  0  0  0  0  0  0
   10.6450    5.2140   12.5400 C   0  0  0  0  0  3  0  0  0  0  0  0
  1 28  1  6  0  0  0
  2  1  1  1  0  0  0
  2  3  1  0  0  0  0
  2 13  1  0  0  0  0
  3  4  1  0  0  0  0
  4  6  2  0  0  0  0
  5  3  2  0  0  0  0
  6  7  1  0  0  0  0
  7  9  1  0  0  0  0
  8  6  1  0  0  0  0
  8 10  1  0  0  0  0
  9 11  2  0  0  0  0
 10  9  1  0  0  0  0
 12 10  1  0  0  0  0
 13  8  1  0  0  0  0
 14 13  2  0  0  0  0
 15 26  1  0  0  0  0
 15 16  1  0  0  0  0
 15  1  1  1  0  0  0
 16 18  1  0  0  0  0
 17 16  2  0  0  0  0
 18 20  1  0  0  0  0
 18 19  1  0  0  0  0
 19 21  1  0  0  0  0
 20 24  1  0  0  0  0
 21 23  2  0  0  0  0
 22 19  1  0  0  0  0
 24 21  1  0  0  0  0
 25 20  2  0  0  0  0
 26 25  1  0  0  0  0
 27 26  2  0  0  0  0
 28 34  1  0  0  0  0
 29 28  2  0  0  0  0
 30 29  1  0  0  0  0
 30 31  2  0  0  0  0
 31 32  1  0  0  0  0
 32 34  2  0  0  0  0
 33 31  1  0  0  0  0
M  END
>  <Pose>
1

>  <Score>
-7.794

$$$$
