/Users/jonathanwahrer/Desktop/Msc/3_Semester/Drug_Design_Praktikum/waehrer_HTS_screening/HTS_experiment/out/docking_results/vina_output/2jam/1256_docked.pdbqt
 OpenBabel03162218153D

 30 33  0  0  0  0  0  0  0  0999 V2000
   13.5240    2.0420   10.2850 S   0  0  0  0  0  0  0  0  0  0  0  0
   13.4490    3.5980   10.9960 C   0  0  0  0  0  0  0  0  0  0  0  0
   14.3620    4.4130   11.6120 N   0  0  0  0  0  0  0  0  0  0  0  0
   14.0160    5.6320   12.0560 C   0  0  0  0  0  0  0  0  0  0  0  0
   14.7760    6.4390   12.6240 O   0  0  0  0  0  0  0  0  0  0  0  0
   12.7020    5.9790   11.8450 C   0  0  0  0  0  3  0  0  0  0  0  0
   11.7870    5.1740   11.2330 C   0  0  0  0  0  0  0  0  0  0  0  0
   12.1720    3.9330   10.7880 N   0  0  0  0  0  0  0  0  0  0  0  0
   11.4280    3.0940   10.1790 N   0  0  0  0  0  0  0  0  0  0  0  0
   11.8790    1.9440    9.7660 C   0  0  0  0  0  0  0  0  0  0  0  0
   10.4290    5.6880   11.0700 C   0  0  0  0  0  0  0  0  0  0  0  0
   10.0550    6.1210    9.9180 O   0  0  0  0  0  0  0  0  0  0  0  0
    9.4670    5.7580   12.0980 N   0  0  0  0  0  0  0  0  0  0  0  0
    9.6850    5.4520   13.0650 H   0  0  0  0  0  0  0  0  0  0  0  0
    8.1360    6.2790   11.8100 C   0  0  0  0  0  2  0  0  0  0  0  0
    8.0360    7.7070   12.2010 C   0  0  0  0  0  0  0  0  0  0  0  0
    6.9870    8.4690   11.7100 C   0  0  0  0  0  0  0  0  0  0  0  0
    6.9080    9.8010   12.0320 C   0  0  0  0  0  3  0  0  0  0  0  0
    7.8390   10.4160   12.8280 C   0  0  0  0  0  3  0  0  0  0  0  0
    8.8880    9.6630   13.3220 C   0  0  0  0  0  0  0  0  0  0  0  0
    8.9630    8.3180   12.9960 C   0  0  0  0  0  3  0  0  0  0  0  0
   10.2230   10.4400   14.4430 Br  0  0  0  0  0  0  0  0  0  0  0  0
    6.0580    7.8410   10.9100 O   0  0  0  0  0  0  0  0  0  0  0  0
    4.7350    8.3740   10.8650 C   0  0  0  0  0  1  0  0  0  0  0  0
   11.2100    0.8800    9.0490 N   0  0  0  0  0  0  0  0  0  0  0  0
    9.8840    0.5170    9.3740 C   0  0  0  0  0  2  0  0  0  0  0  0
    9.4490   -0.6730    8.5520 C   0  0  0  0  0  2  0  0  0  0  0  0
   10.5090   -1.5770    8.4400 O   0  0  0  0  0  0  0  0  0  0  0  0
   11.4860   -1.0720    7.5730 C   0  0  0  0  0  2  0  0  0  0  0  0
   11.9890    0.2630    8.0290 C   0  0  0  0  0  2  0  0  0  0  0  0
  1  2  1  0  0  0  0
  2  3  2  0  0  0  0
  3  4  1  0  0  0  0
  4  5  2  0  0  0  0
  6  4  1  0  0  0  0
  7  6  2  0  0  0  0
  8  2  1  0  0  0  0
  8  7  1  0  0  0  0
  9  8  1  0  0  0  0
 10  9  2  0  0  0  0
 10  1  1  0  0  0  0
 11  7  1  0  0  0  0
 11 13  1  0  0  0  0
 12 11  2  0  0  0  0
 13 14  1  0  0  0  0
 15 13  1  0  0  0  0
 15 16  1  0  0  0  0
 16 21  1  0  0  0  0
 17 18  1  0  0  0  0
 17 16  2  0  0  0  0
 18 19  2  0  0  0  0
 19 20  1  0  0  0  0
 20 22  1  0  0  0  0
 21 20  2  0  0  0  0
 23 17  1  0  0  0  0
 24 23  1  0  0  0  0
 25 26  1  0  0  0  0
 25 10  1  0  0  0  0
 27 26  1  0  0  0  0
 28 27  1  0  0  0  0
 29 30  1  0  0  0  0
 29 28  1  0  0  0  0
 30 25  1  0  0  0  0
M  END
>  <Pose>
1

>  <Score>
-8.773

$$$$
