/Users/jonathanwahrer/Desktop/Msc/3_Semester/Drug_Design_Praktikum/waehrer_HTS_screening/HTS_experiment/out/docking_results/vina_output/2jam/1265_docked.pdbqt
 OpenBabel03162218153D

 24 27  0  0  1  0  0  0  0  0999 V2000
   10.3770    6.9610   14.3000 S   0  0  0  0  0  0  0  0  0  0  0  0
    9.7400    6.1510   12.8390 C   0  0  1  0  0  3  0  0  0  0  0  0
   10.0830    5.3580   11.8760 N   0  0  0  0  0  0  0  0  0  0  0  0
    9.0040    5.1080   10.9960 C   0  0  0  0  0  3  0  0  0  0  0  0
    7.8650    5.8900   11.5630 C   0  0  0  0  0  3  0  0  0  0  0  0
    8.3940    6.5550   12.7770 N   0  0  0  0  0  0  0  0  0  0  0  0
    7.9550    7.4100   13.7950 C   0  0  0  0  0  0  0  0  0  0  0  0
    8.8310    7.7590   14.7090 C   0  0  0  0  0  3  0  0  0  0  0  0
   11.4480    4.8110   11.7820 C   0  0  0  0  0  2  0  0  0  0  0  0
   11.3500    3.3620   12.0490 C   0  0  0  0  0  0  0  0  0  0  0  0
   11.0540    2.9290   13.1810 O   0  0  0  0  0  0  0  0  0  0  0  0
   11.6000    2.4040   10.9810 C   0  0  0  0  0  0  0  0  0  0  0  0
   10.5580    1.9260   10.1850 C   0  0  0  0  0  3  0  0  0  0  0  0
   10.7660    1.0110    9.1700 C   0  0  0  0  0  3  0  0  0  0  0  0
   12.0480    0.5760    8.9610 C   0  0  0  0  0  0  0  0  0  0  0  0
   13.1140    1.0200    9.7210 C   0  0  0  0  0  3  0  0  0  0  0  0
   12.3270   -0.6930    7.5500 Br  0  0  0  0  0  0  0  0  0  0  0  0
   12.8780    1.9450   10.7400 C   0  0  0  0  0  3  0  0  0  0  0  0
    6.5560    7.9380   13.9140 C   0  0  0  0  0  0  0  0  0  0  0  0
    5.6990    7.4880   14.8930 C   0  0  0  0  0  3  0  0  0  0  0  0
    4.4040    7.9360   15.0450 C   0  0  0  0  0  3  0  0  0  0  0  0
    3.9000    8.8870   14.1880 C   0  0  0  0  0  3  0  0  0  0  0  0
    4.7310    9.3490   13.2070 C   0  0  0  0  0  3  0  0  0  0  0  0
    6.0520    8.8850   13.0610 C   0  0  0  0  0  3  0  0  0  0  0  0
  1  8  1  0  0  0  0
  2  1  1  1  0  0  0
  3  2  1  0  0  0  0
  4  5  2  0  0  0  0
  4  3  1  0  0  0  0
  5  6  1  0  0  0  0
  6  2  1  0  0  0  0
  6  7  1  0  0  0  0
  7 19  1  0  0  0  0
  7  8  2  0  0  0  0
  9  3  1  0  0  0  0
  9 10  1  0  0  0  0
 10 11  2  0  0  0  0
 12 10  1  0  0  0  0
 13 12  2  0  0  0  0
 14 13  1  0  0  0  0
 15 14  2  0  0  0  0
 15 16  1  0  0  0  0
 16 18  2  0  0  0  0
 17 15  1  0  0  0  0
 18 12  1  0  0  0  0
 19 20  1  0  0  0  0
 20 21  2  0  0  0  0
 22 21  1  0  0  0  0
 23 22  2  0  0  0  0
 24 23  1  0  0  0  0
 24 19  2  0  0  0  0
M  END
>  <Pose>
1

>  <Score>
-7.988

$$$$
