/Users/jonathanwahrer/Desktop/Msc/3_Semester/Drug_Design_Praktikum/waehrer_HTS_screening/HTS_experiment/out/docking_results/vina_output/2jam/1266_docked.pdbqt
 OpenBabel03162218153D

 28 31  0  0  1  0  0  0  0  0999 V2000
   12.9870    2.4400    9.9380 C   0  0  2  0  0  3  0  0  0  0  0  0
   13.2280    2.0560   11.3230 N   0  0  0  0  0  0  0  0  0  0  0  0
   13.0280    2.9860   12.3320 C   0  0  0  0  0  2  0  0  0  0  0  0
   12.0550    4.1250   12.1110 C   0  0  0  0  0  2  0  0  0  0  0  0
   11.9040    4.4820   10.7680 N   0  0  0  0  0  0  0  0  0  0  0  0
   12.7670    3.8760    9.8000 C   0  0  0  0  0  2  0  0  0  0  0  0
   10.9610    5.4040   10.2450 C   0  0  0  0  0  0  0  0  0  0  0  0
   11.1660    5.6440    8.9710 O   0  0  0  0  0  0  0  0  0  0  0  0
   12.8000    1.1290   11.5220 H   0  0  0  0  0  0  0  0  0  0  0  0
    9.8600    6.0970   10.8100 C   0  0  0  0  0  0  0  0  0  0  0  0
    8.6610    5.3670   10.9930 C   0  0  0  0  0  3  0  0  0  0  0  0
    7.6220    5.8980   11.6370 N   0  0  0  0  0  0  0  0  0  0  0  0
    7.6600    7.1350   12.1360 C   0  0  0  0  0  0  0  0  0  0  0  0
    8.7920    7.8890   11.9900 C   0  0  0  0  0  0  0  0  0  0  0  0
    6.5570    7.6770   12.8060 O   0  0  0  0  0  0  0  0  0  0  0  0
    9.9000    7.3710   11.3230 C   0  0  0  0  0  3  0  0  0  0  0  0
    8.8570    9.2040   12.5510 N   0  0  0  0  0  0  0  0  0  0  0  0
    7.7200    9.6990   13.2600 C   0  0  0  0  0  0  0  0  0  0  0  0
    9.6990    9.7920   12.4620 H   0  0  0  0  0  0  0  0  0  0  0  0
    7.7670   10.5890   14.1340 O   0  0  0  0  0  0  0  0  0  0  0  0
    6.3930    9.1000   12.9200 C   0  0  0  0  0  2  0  0  0  0  0  0
   11.8170    1.5940    9.5120 C   0  0  0  0  0  0  0  0  0  0  0  0
   12.0660    0.5480    8.6090 C   0  0  0  0  0  0  0  0  0  0  0  0
   13.7050    0.4320    7.9370 Cl  0  0  0  0  0  0  0  0  0  0  0  0
   11.1060   -0.3660    8.2310 C   0  0  0  0  0  3  0  0  0  0  0  0
    9.8250   -0.2600    8.7630 C   0  0  0  0  0  3  0  0  0  0  0  0
    9.5820    0.7710    9.6540 C   0  0  0  0  0  3  0  0  0  0  0  0
   10.5560    1.6820   10.0250 C   0  0  0  0  0  3  0  0  0  0  0  0
  1 22  1  1  0  0  0
  1  2  1  0  0  0  0
  2  9  1  0  0  0  0
  2  3  1  0  0  0  0
  4  3  1  0  0  0  0
  5  4  1  0  0  0  0
  6  1  1  0  0  0  0
  6  5  1  0  0  0  0
  7  5  1  0  0  0  0
  7 10  1  0  0  0  0
  8  7  2  0  0  0  0
 10 11  2  0  0  0  0
 10 16  1  0  0  0  0
 11 12  1  0  0  0  0
 12 13  2  0  0  0  0
 13 15  1  0  0  0  0
 14 13  1  0  0  0  0
 14 17  1  0  0  0  0
 15 21  1  0  0  0  0
 16 14  2  0  0  0  0
 17 18  1  0  0  0  0
 18 20  2  0  0  0  0
 19 17  1  0  0  0  0
 21 18  1  0  0  0  0
 22 28  1  0  0  0  0
 23 22  2  0  0  0  0
 24 23  1  0  0  0  0
 25 23  1  0  0  0  0
 25 26  2  0  0  0  0
 26 27  1  0  0  0  0
 27 28  2  0  0  0  0
M  END
>  <Pose>
1

>  <Score>
-9.360

$$$$
