/Users/jonathanwahrer/Desktop/Msc/3_Semester/Drug_Design_Praktikum/waehrer_HTS_screening/HTS_experiment/out/docking_results/vina_output/2jam/1271_docked.pdbqt
 OpenBabel03162218163D

 35 38  0  0  0  0  0  0  0  0999 V2000
    8.9540    6.1520   11.0440 C   0  0  0  0  0  0  0  0  0  0  0  0
    7.6720    5.7720   11.1330 N   0  0  0  0  0  0  0  0  0  0  0  0
    7.0560    6.6950   11.8250 N   0  0  0  0  0  0  0  0  0  0  0  0
    7.9050    7.6550   12.1830 N   0  0  0  0  0  0  0  0  0  0  0  0
    9.1130    7.3710   11.7220 C   0  0  0  0  0  0  0  0  0  0  0  0
    9.9790    5.4050   10.3400 C   0  0  0  0  0  0  0  0  0  0  0  0
   11.0170    4.7160   11.0110 N   0  0  0  0  0  0  0  0  0  0  0  0
   11.1060    4.7150   12.0620 H   0  0  0  0  0  0  0  0  0  0  0  0
    9.9360    5.3690    9.0890 O   0  0  0  0  0  0  0  0  0  0  0  0
   11.9930    3.9950   10.3230 N   0  0  0  0  0  0  0  0  0  0  0  0
   12.5700    4.3580    9.5460 H   0  0  0  0  0  0  0  0  0  0  0  0
   12.2310    2.6270   10.7200 C   0  0  0  0  0  0  0  0  0  0  0  0
   12.4710    2.3750   11.9820 C   0  0  0  0  0  2  0  0  0  0  0  0
   12.2090    1.5970    9.7010 C   0  0  0  0  0  0  0  0  0  0  0  0
   11.0700    0.8120    9.5260 C   0  0  0  0  0  3  0  0  0  0  0  0
   11.0290   -0.1570    8.5540 C   0  0  0  0  0  0  0  0  0  0  0  0
    9.4830   -1.2370    8.3070 Br  0  0  0  0  0  0  0  0  0  0  0  0
   12.1070   -0.3900    7.7170 C   0  0  0  0  0  3  0  0  0  0  0  0
   13.2240    0.3700    7.8770 C   0  0  0  0  0  3  0  0  0  0  0  0
   13.2600    1.3540    8.8660 C   0  0  0  0  0  3  0  0  0  0  0  0
   10.3950    8.0270   11.8450 C   0  0  0  0  0  2  0  0  0  0  0  0
   11.3290    7.4430   12.7870 N   0  0  0  0  0  0  0  0  0  0  0  0
   12.3520    8.4120   13.1700 C   0  0  0  0  0  2  0  0  0  0  0  0
   11.7510    9.7490   13.5410 C   0  0  0  0  0  2  0  0  0  0  0  0
   10.7450    9.5710   14.6650 C   0  0  0  0  0  2  0  0  0  0  0  0
   10.6670    8.1330   15.0930 C   0  0  0  0  0  2  0  0  0  0  0  0
   10.6280    7.1150   14.0250 C   0  0  0  0  0  2  0  0  0  0  0  0
    7.5370    8.7770   12.9620 C   0  0  0  0  0  0  0  0  0  0  0  0
    7.6040   10.0560   12.4980 N   0  0  0  0  0  0  0  0  0  0  0  0
    7.2040   10.8380   13.4510 O   0  0  0  0  0  0  0  0  0  0  0  0
    6.8840   10.1740   14.5020 N   0  0  0  0  0  0  0  0  0  0  0  0
    7.0760    8.8740   14.2420 C   0  0  0  0  0  0  0  0  0  0  0  0
    6.8550    7.7900   15.1040 N   0  0  0  0  0  0  0  0  0  0  0  0
    7.0710    6.7890   14.9010 H   0  0  0  0  0  0  0  0  0  0  0  0
    6.4360    7.9740   16.0410 H   0  0  0  0  0  0  0  0  0  0  0  0
  1  2  1  0  0  0  0
  1  5  2  0  0  0  0
  2  3  2  0  0  0  0
  3  4  1  0  0  0  0
  4 28  1  0  0  0  0
  5 21  1  0  0  0  0
  5  4  1  0  0  0  0
  6  7  1  0  0  0  0
  6  1  1  0  0  0  0
  7  8  1  0  0  0  0
  9  6  2  0  0  0  0
 10 12  1  0  0  0  0
 10  7  1  0  0  0  0
 11 10  1  0  0  0  0
 12 13  2  0  0  0  0
 14 12  1  0  0  0  0
 15 14  1  0  0  0  0
 16 15  2  0  0  0  0
 17 16  1  0  0  0  0
 18 19  2  0  0  0  0
 18 16  1  0  0  0  0
 19 20  1  0  0  0  0
 20 14  2  0  0  0  0
 21 22  1  0  0  0  0
 22 23  1  0  0  0  0
 22 27  1  0  0  0  0
 23 24  1  0  0  0  0
 24 25  1  0  0  0  0
 25 26  1  0  0  0  0
 27 26  1  0  0  0  0
 28 32  1  0  0  0  0
 29 28  2  0  0  0  0
 29 30  1  0  0  0  0
 30 31  1  0  0  0  0
 32 31  2  0  0  0  0
 32 33  1  0  0  0  0
 33 35  1  0  0  0  0
 34 33  1  0  0  0  0
M  END
>  <Pose>
1

>  <Score>
-8.727

$$$$
