/Users/jonathanwahrer/Desktop/Msc/3_Semester/Drug_Design_Praktikum/waehrer_HTS_screening/HTS_experiment/out/docking_results/vina_output/2jam/1285_docked.pdbqt
 OpenBabel03162218173D

 34 37  0  0  1  0  0  0  0  0999 V2000
   10.7620    5.1800   12.4570 C   0  0  1  0  0  3  0  0  0  0  0  0
    9.7520    5.8510   11.6640 N   0  0  0  0  0  0  0  0  0  0  0  0
   10.2060    5.8760   10.2940 C   0  0  0  0  0  0  0  0  0  0  0  0
    9.8810    6.6660    9.4000 O   0  0  0  0  0  0  0  0  0  0  0  0
   11.1390    4.7570   10.1950 C   0  0  0  0  0  0  0  0  0  0  0  0
   11.8040    4.3710    9.1880 O   0  0  0  0  0  0  0  0  0  0  0  0
   11.2060    4.1080   11.4940 C   0  0  0  0  0  0  0  0  0  0  0  0
   11.6060    2.8810   11.7840 C   0  0  0  0  0  0  0  0  0  0  0  0
   11.6360    2.5050   13.1570 O   0  0  0  0  0  1  0  0  0  0  0  0
   11.8990    6.0250   12.8450 C   0  0  0  0  0  0  0  0  0  0  0  0
   13.1820    5.5920   12.4970 C   0  0  0  0  0  3  0  0  0  0  0  0
   14.2760    6.3300   12.8250 C   0  0  0  0  0  0  0  0  0  0  0  0
   16.0200    5.7200   12.3400 Br  0  0  0  0  0  0  0  0  0  0  0  0
   14.1500    7.5180   13.5050 C   0  0  0  0  0  3  0  0  0  0  0  0
   12.9020    7.9720   13.8610 C   0  0  0  0  0  3  0  0  0  0  0  0
   11.7840    7.2180   13.5260 C   0  0  0  0  0  3  0  0  0  0  0  0
   11.9910    1.9450   10.7580 C   0  0  0  0  0  0  0  0  0  0  0  0
   11.2010    1.1350   10.0220 N   0  0  0  0  0  0  0  0  0  0  0  0
   11.9810    0.4490    9.1510 C   0  0  0  0  0  0  0  0  0  0  0  0
    9.8810    0.8820   10.0000 C   0  0  0  0  0  3  0  0  0  0  0  0
   13.2810    0.8180    9.3250 N   0  0  0  0  0  0  0  0  0  0  0  0
   11.5170   -0.4770    8.2530 C   0  0  0  0  0  0  0  0  0  0  0  0
   13.2740    1.7380   10.3170 C   0  0  0  0  0  0  0  0  0  0  0  0
   14.4960    2.4130   10.8360 C   0  0  0  0  0  1  0  0  0  0  0  0
   10.1630   -0.7280    8.2370 C   0  0  0  0  0  3  0  0  0  0  0  0
   12.4220   -1.2010    7.3140 C   0  0  0  0  0  1  0  0  0  0  0  0
    9.3640   -0.0340    9.1240 C   0  0  0  0  0  3  0  0  0  0  0  0
    8.5010    6.4130   12.1450 C   0  0  0  0  0  2  0  0  0  0  0  0
    8.5240    7.8910   12.3330 C   0  0  0  0  0  2  0  0  0  0  0  0
    7.3730    8.6290   11.6960 C   0  0  0  0  0  2  0  0  0  0  0  0
    6.1300    7.9750   12.0310 N   0  0  0  0  0  4  0  0  0  0  0  0
    5.5980    8.5000   13.2750 C   0  0  0  0  0  1  0  0  0  0  0  0
    5.1570    8.2860   11.0020 C   0  0  0  0  0  1  0  0  0  0  0  0
    6.2150    6.9350   12.0470 H   0  0  0  0  0  0  0  0  0  0  0  0
  1 10  1  6  0  0  0
  2 28  1  0  0  0  0
  2  1  1  0  0  0  0
  3  2  1  0  0  0  0
  4  3  2  0  0  0  0
  5  3  1  0  0  0  0
  5  7  1  0  0  0  0
  6  5  2  0  0  0  0
  7  8  2  0  0  0  0
  7  1  1  0  0  0  0
  8  9  1  0  0  0  0
 10 16  1  0  0  0  0
 11 12  1  0  0  0  0
 11 10  2  0  0  0  0
 12 14  2  0  0  0  0
 13 12  1  0  0  0  0
 14 15  1  0  0  0  0
 16 15  2  0  0  0  0
 17  8  1  0  0  0  0
 18 17  1  0  0  0  0
 19 21  2  0  0  0  0
 19 18  1  0  0  0  0
 20 18  1  0  0  0  0
 21 23  1  0  0  0  0
 22 19  1  0  0  0  0
 23 17  2  0  0  0  0
 23 24  1  0  0  0  0
 25 22  2  0  0  0  0
 25 27  1  0  0  0  0
 26 22  1  0  0  0  0
 27 20  2  0  0  0  0
 28 29  1  0  0  0  0
 30 31  1  0  0  0  0
 30 29  1  0  0  0  0
 31 34  1  0  0  0  0
 31 32  1  0  0  0  0
 33 31  1  0  0  0  0
M  END
>  <Pose>
1

>  <Score>
-8.748

$$$$
