/Users/jonathanwahrer/Desktop/Msc/3_Semester/Drug_Design_Praktikum/waehrer_HTS_screening/HTS_experiment/out/docking_results/vina_output/2jam/1295_docked.pdbqt
 OpenBabel03162218173D

 26 29  0  0  1  0  0  0  0  0999 V2000
   13.1790    3.1340   11.3120 C   0  0  0  0  0  0  0  0  0  0  0  0
   12.8960    2.1640   10.2760 C   0  0  0  0  0  0  0  0  0  0  0  0
   13.8740    1.7300    9.4260 C   0  0  1  0  0  3  0  0  0  0  0  0
   15.2290    2.1870    9.5260 N   0  0  0  0  0  0  0  0  0  0  0  0
   15.4940    3.1200   10.5660 C   0  0  0  0  0  0  0  0  0  0  0  0
   14.5790    3.5480   11.3910 C   0  0  0  0  0  0  0  0  0  0  0  0
   15.2150    4.4840   12.3680 C   0  0  0  0  0  0  0  0  0  0  0  0
   14.5660    5.0580   13.2940 O   0  0  0  0  0  0  0  0  0  0  0  0
   16.5270    4.5440   12.0300 O   0  0  0  0  0  0  0  0  0  0  0  0
   16.8180    3.7770   10.9120 C   0  0  0  0  0  2  0  0  0  0  0  0
   13.5640    0.8180    8.4500 N   0  0  0  0  0  0  0  0  0  0  0  0
   12.3160    0.3530    8.3240 C   0  0  0  0  0  0  0  0  0  0  0  0
   12.0520   -0.4860    7.4170 O   0  0  0  0  0  0  0  0  0  0  0  0
   11.3610    0.7860    9.1640 N   0  0  0  0  0  0  0  0  0  0  0  0
   11.5800    1.6680   10.1370 C   0  0  0  0  0  0  0  0  0  0  0  0
   10.6940    2.0770   10.9280 O   0  0  0  0  0  0  0  0  0  0  0  0
   10.0110    0.2490    8.9880 C   0  0  0  0  0  1  0  0  0  0  0  0
   14.6490    0.3960    7.5760 C   0  0  0  0  0  1  0  0  0  0  0  0
   15.9400    1.8350    8.8610 H   0  0  0  0  0  0  0  0  0  0  0  0
   12.2460    4.2530   11.4060 C   0  0  0  0  0  0  0  0  0  0  0  0
   12.1160    5.1800   10.4160 C   0  0  0  0  0  3  0  0  0  0  0  0
   11.2130    6.2500   10.5370 C   0  0  0  0  0  3  0  0  0  0  0  0
   10.4480    6.3630   11.6700 C   0  0  0  0  0  0  0  0  0  0  0  0
    9.1980    7.8090   11.8810 Br  0  0  0  0  0  0  0  0  0  0  0  0
   10.5680    5.4400   12.6680 C   0  0  0  0  0  3  0  0  0  0  0  0
   11.4760    4.3750   12.5350 C   0  0  0  0  0  3  0  0  0  0  0  0
  1  6  1  0  0  0  0
  1 20  1  0  0  0  0
  2  1  2  0  0  0  0
  3  4  1  0  0  0  0
  3  2  1  1  0  0  0
  4  5  1  0  0  0  0
  5 10  1  0  0  0  0
  5  6  2  0  0  0  0
  6  7  1  0  0  0  0
  7  8  2  0  0  0  0
  9  7  1  0  0  0  0
 10  9  1  0  0  0  0
 11  3  1  0  0  0  0
 12 11  1  0  0  0  0
 12 14  1  0  0  0  0
 13 12  2  0  0  0  0
 14 15  1  0  0  0  0
 15  2  1  0  0  0  0
 15 16  2  0  0  0  0
 17 14  1  0  0  0  0
 18 11  1  0  0  0  0
 19  4  1  0  0  0  0
 20 26  1  0  0  0  0
 21 22  1  0  0  0  0
 21 20  2  0  0  0  0
 22 23  2  0  0  0  0
 23 24  1  0  0  0  0
 23 25  1  0  0  0  0
 26 25  2  0  0  0  0
M  END
>  <Pose>
1

>  <Score>
-8.838

$$$$
