/Users/jonathanwahrer/Desktop/Msc/3_Semester/Drug_Design_Praktikum/waehrer_HTS_screening/HTS_experiment/out/docking_results/vina_output/2jam/1299_docked.pdbqt
 OpenBabel03162218183D

 36 39  0  0  0  0  0  0  0  0999 V2000
    9.3560    8.3690   12.5950 C   0  0  0  0  0  0  0  0  0  0  0  0
    8.1050    8.9260   12.5110 N   0  0  0  0  0  0  0  0  0  0  0  0
    8.1340    9.9790   13.3000 N   0  0  0  0  0  0  0  0  0  0  0  0
    9.2870   10.1270   13.8650 N   0  0  0  0  0  0  0  0  0  0  0  0
   10.1120    9.1240   13.4510 C   0  0  0  0  0  0  0  0  0  0  0  0
    9.6830    7.1670   11.8370 C   0  0  0  0  0  0  0  0  0  0  0  0
    9.8760    5.8660   12.3540 N   0  0  0  0  0  0  0  0  0  0  0  0
    9.8090    5.5880   13.3570 H   0  0  0  0  0  0  0  0  0  0  0  0
    9.8220    7.2450   10.5570 O   0  0  0  0  0  0  0  0  0  0  0  0
   10.1930    4.8410   11.4010 N   0  0  0  0  0  0  0  0  0  0  0  0
   11.0350    3.9200   11.6640 C   0  0  0  0  0  3  0  0  0  0  0  0
   11.3590    2.8690   10.6870 C   0  0  0  0  0  0  0  0  0  0  0  0
   12.5810    2.8100   10.0950 C   0  0  0  0  0  3  0  0  0  0  0  0
   12.8850    1.8220    9.1770 C   0  0  0  0  0  0  0  0  0  0  0  0
   11.9610    0.8670    8.8320 C   0  0  0  0  0  0  0  0  0  0  0  0
   14.6170    1.7490    8.3470 Br  0  0  0  0  0  0  0  0  0  0  0  0
   10.7190    0.9230    9.4310 C   0  0  0  0  0  0  0  0  0  0  0  0
    9.4260   -0.4000    8.9580 Br  0  0  0  0  0  0  0  0  0  0  0  0
   10.4260    1.9140   10.3460 C   0  0  0  0  0  3  0  0  0  0  0  0
   12.3020   -0.1100    7.9070 O   0  0  0  0  0  0  0  0  0  0  0  0
   13.1060   -0.0460    7.3080 H   0  0  0  0  0  0  0  0  0  0  0  0
    7.0170    8.4630   11.7390 C   0  0  0  0  0  0  0  0  0  0  0  0
    6.4530    8.9990   10.6280 N   0  0  0  0  0  0  0  0  0  0  0  0
    5.4820    8.2490   10.2480 O   0  0  0  0  0  0  0  0  0  0  0  0
    5.3240    7.2190   11.0180 N   0  0  0  0  0  0  0  0  0  0  0  0
    6.2800    7.3180   11.9800 C   0  0  0  0  0  0  0  0  0  0  0  0
    6.4560    6.3810   13.0300 N   0  0  0  0  0  0  0  0  0  0  0  0
    7.2650    6.5080   13.6660 H   0  0  0  0  0  0  0  0  0  0  0  0
    5.8230    5.5790   13.2020 H   0  0  0  0  0  0  0  0  0  0  0  0
   11.5020    8.8790   13.8330 C   0  0  0  0  0  2  0  0  0  0  0  0
   11.8960    9.5160   15.0800 N   0  0  0  0  0  0  0  0  0  0  0  0
   11.8820    8.5450   16.1670 C   0  0  0  0  0  2  0  0  0  0  0  0
   13.2200    7.8850   16.3440 C   0  0  0  0  0  2  0  0  0  0  0  0
   14.0210    7.9200   15.2180 O   0  0  0  0  0  0  0  0  0  0  0  0
   14.3000    9.1940   14.7480 C   0  0  0  0  0  2  0  0  0  0  0  0
   13.1810   10.1660   15.0060 C   0  0  0  0  0  2  0  0  0  0  0  0
  1  5  2  0  0  0  0
  2  1  1  0  0  0  0
  2  3  1  0  0  0  0
  3  4  2  0  0  0  0
  5 30  1  0  0  0  0
  5  4  1  0  0  0  0
  6  7  1  0  0  0  0
  6  1  1  0  0  0  0
  7  8  1  0  0  0  0
  9  6  2  0  0  0  0
 10 11  2  0  0  0  0
 10  7  1  0  0  0  0
 12 11  1  0  0  0  0
 13 12  2  0  0  0  0
 14 13  1  0  0  0  0
 15 14  2  0  0  0  0
 15 17  1  0  0  0  0
 16 14  1  0  0  0  0
 17 19  2  0  0  0  0
 18 17  1  0  0  0  0
 19 12  1  0  0  0  0
 20 15  1  0  0  0  0
 21 20  1  0  0  0  0
 22 26  1  0  0  0  0
 22  2  1  0  0  0  0
 23 22  2  0  0  0  0
 24 23  1  0  0  0  0
 24 25  1  0  0  0  0
 25 26  2  0  0  0  0
 26 27  1  0  0  0  0
 27 29  1  0  0  0  0
 27 28  1  0  0  0  0
 30 31  1  0  0  0  0
 31 32  1  0  0  0  0
 32 33  1  0  0  0  0
 34 33  1  0  0  0  0
 35 36  1  0  0  0  0
 35 34  1  0  0  0  0
 36 31  1  0  0  0  0
M  END
>  <Pose>
1

>  <Score>
-8.649

$$$$
