/Users/jonathanwahrer/Desktop/Msc/3_Semester/Drug_Design_Praktikum/waehrer_HTS_screening/HTS_experiment/out/docking_results/vina_output/2jam/1301_docked.pdbqt
 OpenBabel03162218183D

 24 27  0  0  1  0  0  0  0  0999 V2000
    8.2150    8.4540   12.5260 N   0  0  0  0  0  0  0  0  0  0  0  0
    7.3820    9.2740   11.7150 C   0  0  0  0  0  0  0  0  0  0  0  0
    7.6120    9.6810   10.5560 O   0  0  0  0  0  0  0  0  0  0  0  0
    6.1300    9.6020   12.4630 C   0  0  1  0  0  3  0  0  0  0  0  0
    5.0770    8.5610   12.2800 C   0  0  1  0  0  0  0  0  0  0  0  0
    5.4950    7.5270   13.1540 O   0  0  0  0  0  0  0  0  0  0  0  0
    5.5330    8.3220   14.3270 C   0  0  1  0  0  0  0  0  0  0  0  0
    6.5200    9.3670   13.9200 C   0  0  1  0  0  3  0  0  0  0  0  0
    7.8860    8.7960   13.8660 C   0  0  0  0  0  0  0  0  0  0  0  0
    8.6350    8.6400   14.8530 O   0  0  0  0  0  0  0  0  0  0  0  0
    4.1420    8.8660   14.2900 C   0  0  0  0  0  2  0  0  0  0  0  0
    3.8460    9.0060   12.9860 C   0  0  0  0  0  2  0  0  0  0  0  0
    5.8630    7.5570   15.5370 C   0  0  0  0  0  1  0  0  0  0  0  0
    9.1540    7.5040   12.0400 C   0  0  0  0  0  0  0  0  0  0  0  0
    8.7950    6.2280   11.6550 C   0  0  0  0  0  3  0  0  0  0  0  0
    9.7210    5.2950   11.1760 C   0  0  0  0  0  3  0  0  0  0  0  0
   11.0530    5.6190   11.0690 C   0  0  0  0  0  0  0  0  0  0  0  0
   11.4270    6.8870   11.4500 C   0  0  0  0  0  0  0  0  0  0  0  0
   12.0380    4.6200   10.5610 C   0  0  0  0  0  1  0  0  0  0  0  0
   13.2620    7.3730   11.3170 Br  0  0  0  0  0  0  0  0  0  0  0  0
   10.4980    7.8150   11.9260 C   0  0  0  0  0  3  0  0  0  0  0  0
    4.8580    8.1040   10.8970 C   0  0  0  0  0  2  0  0  0  0  0  0
    3.6360    7.4510   10.7490 O   0  0  0  0  0  0  0  0  0  0  0  0
    2.8600    8.0780   10.7150 H   0  0  0  0  0  0  0  0  0  0  0  0
  1  9  1  0  0  0  0
  2  1  1  0  0  0  0
  3  2  2  0  0  0  0
  4  2  1  6  0  0  0
  4  8  1  0  0  0  0
  5 22  1  6  0  0  0
  5  4  1  0  0  0  0
  5 12  1  0  0  0  0
  5  6  1  0  0  0  0
  6  7  1  0  0  0  0
  7 13  1  1  0  0  0
  8  9  1  6  0  0  0
  8  7  1  0  0  0  0
  9 10  2  0  0  0  0
 11  7  1  0  0  0  0
 12 11  1  0  0  0  0
 14  1  1  0  0  0  0
 15 14  2  0  0  0  0
 16 15  1  0  0  0  0
 17 16  2  0  0  0  0
 17 18  1  0  0  0  0
 18 21  2  0  0  0  0
 19 17  1  0  0  0  0
 20 18  1  0  0  0  0
 21 14  1  0  0  0  0
 23 22  1  0  0  0  0
 24 23  1  0  0  0  0
M  END
>  <Pose>
1

>  <Score>
-7.867

$$$$
