/Users/jonathanwahrer/Desktop/Msc/3_Semester/Drug_Design_Praktikum/waehrer_HTS_screening/HTS_experiment/out/docking_results/vina_output/2jam/1314_docked.pdbqt
 OpenBabel03162218193D

 32 35  0  0  0  0  0  0  0  0999 V2000
    9.2180    5.7390   11.2320 C   0  0  0  0  0  0  0  0  0  0  0  0
    7.9470    5.6240   10.9950 N   0  0  0  0  0  0  0  0  0  0  0  0
    7.3170    6.6100   11.5350 N   0  0  0  0  0  0  0  0  0  0  0  0
    8.1730    7.4810   12.1960 N   0  0  0  0  0  0  0  0  0  0  0  0
    9.3720    6.9690   12.0230 C   0  0  0  0  0  0  0  0  0  0  0  0
   10.2790    4.8280   11.0850 C   0  0  0  0  0  0  0  0  0  0  0  0
   11.0290    4.6570    9.7440 N   0  0  0  0  0  0  0  0  0  0  0  0
   10.7160    5.2840    9.0080 H   0  0  0  0  0  0  0  0  0  0  0  0
   10.7040    4.0870   11.9650 O   0  0  0  0  0  0  0  0  0  0  0  0
   11.8460    3.6820    9.9680 N   0  0  0  0  0  2  0  0  0  0  0  0
   12.7720    2.8860    9.7360 C   0  0  0  0  0  2  0  0  0  0  0  0
   12.1740    1.5160    9.3290 C   0  0  0  0  0  0  0  0  0  0  0  0
   12.9020    0.7770    8.4280 C   0  0  0  0  0  0  0  0  0  0  0  0
   14.6780    1.2730    8.0240 Br  0  0  0  0  0  0  0  0  0  0  0  0
   12.2620   -0.2900    7.7890 C   0  0  0  0  0  3  0  0  0  0  0  0
   10.9310   -0.6020    8.0850 C   0  0  0  0  0  3  0  0  0  0  0  0
   10.2480    0.1280    8.9980 C   0  0  0  0  0  3  0  0  0  0  0  0
   10.9050    1.2310    9.6270 C   0  0  0  0  0  3  0  0  0  0  0  0
   10.7520    7.3830   12.2590 C   0  0  0  0  0  2  0  0  0  0  0  0
   11.4790    7.4370   13.3800 N   0  0  0  0  0  0  0  0  0  0  0  0
   12.8660    7.7510   13.0650 C   0  0  0  0  0  2  0  0  0  0  0  0
   11.2350    7.8570   14.6570 C   0  0  0  0  0  2  0  0  0  0  0  0
   13.2990    8.8210   14.0220 C   0  0  0  0  0  2  0  0  0  0  0  0
   12.0700    9.1440   14.8650 C   0  0  0  0  0  2  0  0  0  0  0  0
    7.5930    8.5550   12.8690 C   0  0  0  0  0  0  0  0  0  0  0  0
    8.2890    9.7450   13.0800 N   0  0  0  0  0  0  0  0  0  0  0  0
    7.5740   10.5040   13.8110 O   0  0  0  0  0  0  0  0  0  0  0  0
    6.4640    9.9600   14.1140 N   0  0  0  0  0  0  0  0  0  0  0  0
    6.4500    8.7270   13.5340 C   0  0  0  0  0  0  0  0  0  0  0  0
    5.3270    7.8550   13.7120 N   0  0  0  0  0  0  0  0  0  0  0  0
    5.2920    7.0100   13.1240 H   0  0  0  0  0  0  0  0  0  0  0  0
    4.5710    8.1000   14.3480 H   0  0  0  0  0  0  0  0  0  0  0  0
  1  5  2  0  0  0  0
  2  1  1  0  0  0  0
  2  3  2  0  0  0  0
  3  4  1  0  0  0  0
  4 25  1  0  0  0  0
  5  4  1  0  0  0  0
  5 19  1  0  0  0  0
  6  1  1  0  0  0  0
  6  9  2  0  0  0  0
  7 10  1  0  0  0  0
  7  6  1  0  0  0  0
  8  7  1  0  0  0  0
 11 10  1  0  0  0  0
 12 18  1  0  0  0  0
 12 11  1  0  0  0  0
 13 12  2  0  0  0  0
 14 13  1  0  0  0  0
 15 16  2  0  0  0  0
 15 13  1  0  0  0  0
 16 17  1  0  0  0  0
 17 18  2  0  0  0  0
 19 20  1  0  0  0  0
 20 22  1  0  0  0  0
 21 20  1  0  0  0  0
 21 23  1  0  0  0  0
 22 24  1  0  0  0  0
 23 24  1  0  0  0  0
 25 26  2  0  0  0  0
 25 29  1  0  0  0  0
 26 27  1  0  0  0  0
 27 28  1  0  0  0  0
 29 30  1  0  0  0  0
 29 28  2  0  0  0  0
 30 32  1  0  0  0  0
 31 30  1  0  0  0  0
M  END
>  <Pose>
1

>  <Score>
-8.600

$$$$
