/Users/jonathanwahrer/Desktop/Msc/3_Semester/Drug_Design_Praktikum/waehrer_HTS_screening/HTS_experiment/out/docking_results/vina_output/2jam/1315_docked.pdbqt
 OpenBabel03162218193D

 30 33  0  0  1  0  0  0  0  0999 V2000
   12.6410    4.0260   11.4330 N   0  0  0  0  0  0  0  0  0  0  0  0
   13.4510    5.1230   11.5830 C   0  0  0  0  0  0  0  0  0  0  0  0
   12.6920    6.2110   11.2630 C   0  0  0  0  0  0  0  0  0  0  0  0
   13.2610    7.4870   11.3200 C   0  0  0  0  0  3  0  0  0  0  0  0
   14.5800    7.6250   11.6980 C   0  0  0  0  0  3  0  0  0  0  0  0
   15.3490    6.5290   12.0230 C   0  0  0  0  0  3  0  0  0  0  0  0
   14.7690    5.2590   11.9620 C   0  0  0  0  0  3  0  0  0  0  0  0
   11.4570    5.7710   10.9350 N   0  0  0  0  0  0  0  0  0  0  0  0
   11.4090    4.4410   11.0350 C   0  0  2  0  0  3  0  0  0  0  0  0
   13.0470    2.6700   11.7330 C   0  0  0  0  0  2  0  0  0  0  0  0
   13.5770    1.9370   10.5770 C   0  0  1  0  0  3  0  0  0  0  0  0
   14.8760    2.0210   10.3970 O   0  0  0  0  0  1  0  0  0  0  0  0
   12.9090    1.1270    9.5910 C   0  0  0  0  0  0  0  0  0  0  0  0
   11.6160    0.6920    9.6570 C   0  0  0  0  0  3  0  0  0  0  0  0
   11.0450   -0.0620    8.6730 C   0  0  0  0  0  0  0  0  0  0  0  0
    9.2050   -0.6470    8.8080 Br  0  0  0  0  0  0  0  0  0  0  0  0
   11.7840   -0.4080    7.5640 C   0  0  0  0  0  3  0  0  0  0  0  0
   13.0910   -0.0000    7.4400 C   0  0  0  0  0  3  0  0  0  0  0  0
   13.6290    0.7550    8.4460 C   0  0  0  0  0  3  0  0  0  0  0  0
   10.3380    3.6950   10.8770 N   0  0  0  0  0  0  0  0  0  0  0  0
    9.4480    4.0570   10.5450 H   0  0  0  0  0  0  0  0  0  0  0  0
   10.3950    2.6990   11.1310 H   0  0  0  0  0  0  0  0  0  0  0  0
   10.3870    6.6870   10.5820 C   0  0  0  0  0  2  0  0  0  0  0  0
    9.5630    7.1800   11.7000 C   0  0  0  0  0  2  0  0  0  0  0  0
    8.9040    6.2500   12.5440 N   0  0  0  0  0  0  0  0  0  0  0  0
    7.4930    6.0680   12.1140 C   0  0  0  0  0  2  0  0  0  0  0  0
    6.7490    7.3620   12.0680 C   0  0  0  0  0  2  0  0  0  0  0  0
    6.6230    7.8070   13.3850 O   0  0  0  0  0  0  0  0  0  0  0  0
    7.8450    7.9600   13.9910 C   0  0  0  0  0  2  0  0  0  0  0  0
    8.7480    6.7580   13.9170 C   0  0  0  0  0  2  0  0  0  0  0  0
  1  2  1  0  0  0  0
  1 10  1  0  0  0  0
  2  7  1  0  0  0  0
  3  4  1  0  0  0  0
  3  2  2  0  0  0  0
  4  5  2  0  0  0  0
  5  6  1  0  0  0  0
  7  6  2  0  0  0  0
  8  9  1  0  0  0  0
  8  3  1  0  0  0  0
  9 20  1  1  0  0  0
  9  1  1  0  0  0  0
 11 12  1  1  0  0  0
 11 10  1  0  0  0  0
 13 14  1  0  0  0  0
 13 11  1  0  0  0  0
 15 16  1  0  0  0  0
 15 14  2  0  0  0  0
 17 15  1  0  0  0  0
 18 17  2  0  0  0  0
 18 19  1  0  0  0  0
 19 13  2  0  0  0  0
 20 22  1  0  0  0  0
 21 20  1  0  0  0  0
 23  8  1  0  0  0  0
 23 24  1  0  0  0  0
 24 25  1  0  0  0  0
 25 30  1  0  0  0  0
 26 25  1  0  0  0  0
 27 26  1  0  0  0  0
 27 28  1  0  0  0  0
 28 29  1  0  0  0  0
 30 29  1  0  0  0  0
M  END
>  <Pose>
1

>  <Score>
-8.165

$$$$
