/Users/jonathanwahrer/Desktop/Msc/3_Semester/Drug_Design_Praktikum/waehrer_HTS_screening/HTS_experiment/out/docking_results/vina_output/2jam/1325_docked.pdbqt
 OpenBabel03162218193D

 31 34  0  0  1  0  0  0  0  0999 V2000
   12.5490    5.6140   10.8000 C   0  0  1  0  0  3  0  0  0  0  0  0
   12.3330    4.1990   10.7470 N   0  0  0  0  0  0  0  0  0  0  0  0
   11.0150    4.0780   10.1340 C   0  0  0  0  0  0  0  0  0  0  0  0
   10.5890    3.0970    9.4860 O   0  0  0  0  0  0  0  0  0  0  0  0
   10.2890    5.3030   10.4160 C   0  0  0  0  0  0  0  0  0  0  0  0
    9.1140    5.6310   10.0760 O   0  0  0  0  0  0  0  0  0  0  0  0
   11.2100    6.1310   11.2020 C   0  0  0  0  0  0  0  0  0  0  0  0
   10.8730    7.1010   12.0060 C   0  0  0  0  0  0  0  0  0  0  0  0
   11.8910    7.8280   12.6360 O   0  0  0  0  0  1  0  0  0  0  0  0
   13.6560    6.1230   11.5700 C   0  0  0  0  0  0  0  0  0  0  0  0
   14.3670    7.2210   11.0530 C   0  0  0  0  0  3  0  0  0  0  0  0
   15.4250    7.8010   11.7050 C   0  0  0  0  0  3  0  0  0  0  0  0
   15.8460    7.3210   12.9210 C   0  0  0  0  0  0  0  0  0  0  0  0
   17.3200    8.1050   13.8590 Br  0  0  0  0  0  0  0  0  0  0  0  0
   15.1560    6.2460   13.4320 C   0  0  0  0  0  3  0  0  0  0  0  0
   14.0900    5.6630   12.7750 C   0  0  0  0  0  3  0  0  0  0  0  0
    9.4590    7.4370   12.2670 C   0  0  0  0  0  0  0  0  0  0  0  0
    8.6980    8.2110   11.5020 O   0  0  0  0  0  0  0  0  0  0  0  0
    7.4900    8.3280   11.9880 C   0  0  0  0  0  0  0  0  0  0  0  0
    7.3880    7.6030   13.1570 C   0  0  0  0  0  0  0  0  0  0  0  0
    6.3460    9.0150   11.5680 C   0  0  0  0  0  3  0  0  0  0  0  0
    8.6480    7.0510   13.3070 C   0  0  0  0  0  3  0  0  0  0  0  0
    6.2050    7.5690   13.8600 C   0  0  0  0  0  3  0  0  0  0  0  0
    5.0730    8.2410   13.4550 C   0  0  0  0  0  3  0  0  0  0  0  0
    5.1710    8.9710   12.2840 C   0  0  0  0  0  3  0  0  0  0  0  0
   13.1480    3.0570   11.0970 C   0  0  0  0  0  2  0  0  0  0  0  0
   14.1120    2.5590   10.1040 C   0  0  0  0  0  2  0  0  0  0  0  0
   13.5940    1.7610    9.0230 N   0  0  0  0  0  4  0  0  0  0  0  0
   14.5730    1.5110    8.0030 C   0  0  0  0  0  1  0  0  0  0  0  0
   12.8390    0.6100    9.4290 C   0  0  0  0  0  1  0  0  0  0  0  0
   12.8780    2.4120    8.5490 H   0  0  0  0  0  0  0  0  0  0  0  0
  1  7  1  0  0  0  0
  1 10  1  1  0  0  0
  2  1  1  0  0  0  0
  2 26  1  0  0  0  0
  3  5  1  0  0  0  0
  3  2  1  0  0  0  0
  4  3  2  0  0  0  0
  5  7  1  0  0  0  0
  6  5  2  0  0  0  0
  7  8  2  0  0  0  0
  8 17  1  0  0  0  0
  8  9  1  0  0  0  0
 10 16  1  0  0  0  0
 11 10  2  0  0  0  0
 11 12  1  0  0  0  0
 12 13  2  0  0  0  0
 13 15  1  0  0  0  0
 13 14  1  0  0  0  0
 16 15  2  0  0  0  0
 17 22  2  0  0  0  0
 18 19  1  0  0  0  0
 18 17  1  0  0  0  0
 19 20  1  0  0  0  0
 20 22  1  0  0  0  0
 20 23  2  0  0  0  0
 21 19  2  0  0  0  0
 21 25  1  0  0  0  0
 24 23  1  0  0  0  0
 25 24  2  0  0  0  0
 27 26  1  0  0  0  0
 28 30  1  0  0  0  0
 28 27  1  0  0  0  0
 29 28  1  0  0  0  0
 31 28  1  0  0  0  0
M  END
>  <Pose>
1

>  <Score>
-7.905

$$$$
