/Users/jonathanwahrer/Desktop/Msc/3_Semester/Drug_Design_Praktikum/waehrer_HTS_screening/HTS_experiment/out/docking_results/vina_output/2jam/1341_docked.pdbqt
 OpenBabel03162218203D

 28 31  0  0  0  0  0  0  0  0999 V2000
   12.0730    1.6450    9.8780 C   0  0  0  0  0  0  0  0  0  0  0  0
   13.4190    1.7940    9.8660 N   0  0  0  0  0  0  0  0  0  0  0  0
   13.7400    2.8570   10.6320 C   0  0  0  0  0  0  0  0  0  0  0  0
   12.6250    3.4150   11.1510 N   0  0  0  0  0  0  0  0  0  0  0  0
   11.6050    2.6610   10.6810 C   0  0  0  0  0  3  0  0  0  0  0  0
   15.2140    3.0430   10.6380 C   0  0  0  0  0  3  0  0  0  0  0  0
   15.7660    2.0190    9.7070 C   0  0  0  0  0  3  0  0  0  0  0  0
   14.6050    1.1890    9.3020 C   0  0  0  0  0  3  0  0  0  0  0  0
   12.5160    4.5660   12.0230 C   0  0  0  0  0  2  0  0  0  0  0  0
   11.3280    5.3810   11.6410 C   0  0  0  0  0  0  0  0  0  0  0  0
   11.2910    5.8470   10.5000 O   0  0  0  0  0  0  0  0  0  0  0  0
   10.3280    5.5670   12.5970 N   0  0  0  0  0  0  0  0  0  0  0  0
   10.4140    5.1370   13.5780 H   0  0  0  0  0  0  0  0  0  0  0  0
    9.1350    6.3070   12.3880 C   0  0  0  0  0  0  0  0  0  0  0  0
    9.1680    7.6990   12.5470 C   0  0  0  0  0  3  0  0  0  0  0  0
    8.0410    8.4360   12.3730 C   0  0  0  0  0  3  0  0  0  0  0  0
    6.8370    7.8400   12.0350 C   0  0  0  0  0  0  0  0  0  0  0  0
    6.8150    6.4830   11.8830 C   0  0  0  0  0  3  0  0  0  0  0  0
    7.9600    5.6960   12.0560 C   0  0  0  0  0  3  0  0  0  0  0  0
    5.6180    8.6670   11.8490 C   0  0  0  0  0  2  0  0  0  0  0  0
    4.9690    8.2650   10.5210 C   0  0  0  0  0  1  0  0  0  0  0  0
   11.2350    0.6510    9.2100 C   0  0  0  0  0  0  0  0  0  0  0  0
    9.8900    0.5420    9.5070 C   0  0  0  0  0  3  0  0  0  0  0  0
    9.0750   -0.3910    8.8920 C   0  0  0  0  0  3  0  0  0  0  0  0
    9.5730   -1.2600    7.9450 C   0  0  0  0  0  0  0  0  0  0  0  0
    8.5420   -2.4480    7.1570 Cl  0  0  0  0  0  0  0  0  0  0  0  0
   10.9140   -1.1640    7.6390 C   0  0  0  0  0  3  0  0  0  0  0  0
   11.7360   -0.2190    8.2640 C   0  0  0  0  0  3  0  0  0  0  0  0
  1  5  2  0  0  0  0
  2  1  1  0  0  0  0
  2  3  1  0  0  0  0
  3  6  2  0  0  0  0
  3  4  1  0  0  0  0
  4  9  1  0  0  0  0
  5  4  1  0  0  0  0
  7  6  1  0  0  0  0
  8  7  2  0  0  0  0
  8  2  1  0  0  0  0
 10  9  1  0  0  0  0
 10 12  1  0  0  0  0
 11 10  2  0  0  0  0
 12 13  1  0  0  0  0
 14 15  1  0  0  0  0
 14 12  1  0  0  0  0
 16 15  2  0  0  0  0
 17 16  1  0  0  0  0
 18 17  2  0  0  0  0
 18 19  1  0  0  0  0
 19 14  2  0  0  0  0
 20 17  1  0  0  0  0
 21 20  1  0  0  0  0
 22 23  1  0  0  0  0
 22  1  1  0  0  0  0
 24 23  2  0  0  0  0
 25 24  1  0  0  0  0
 26 25  1  0  0  0  0
 27 25  2  0  0  0  0
 27 28  1  0  0  0  0
 28 22  2  0  0  0  0
M  END
>  <Pose>
1

>  <Score>
-9.425

$$$$
