/Users/jonathanwahrer/Desktop/Msc/3_Semester/Drug_Design_Praktikum/waehrer_HTS_screening/HTS_experiment/out/docking_results/vina_output/2jam/1355_docked.pdbqt
 OpenBabel03162218213D

 27 30  0  0  1  0  0  0  0  0999 V2000
    8.9480    5.7580   11.1830 N   0  0  0  0  0  0  0  0  0  0  0  0
    8.6850    5.9710   12.5480 C   0  0  0  0  0  0  0  0  0  0  0  0
    9.6370    6.0300   13.3570 O   0  0  0  0  0  0  0  0  0  0  0  0
    8.1530    5.7110   10.5160 H   0  0  0  0  0  0  0  0  0  0  0  0
   10.3040    5.6030   10.6910 C   0  0  0  0  0  2  0  0  0  0  0  0
   10.6860    4.1450   10.6640 C   0  0  0  0  0  0  0  0  0  0  0  0
   11.2640    3.4480   11.6090 O   0  0  0  0  0  0  0  0  0  0  0  0
   11.4340    2.2050   11.2090 N   0  0  0  0  0  0  0  0  0  0  0  0
   10.9560    2.0700    9.9610 C   0  0  0  0  0  0  0  0  0  0  0  0
   10.4920    3.2900    9.6360 N   0  0  0  0  0  0  0  0  0  0  0  0
   10.9440    0.8640    9.1400 C   0  0  0  0  0  0  0  0  0  0  0  0
   12.0470    0.4440    8.4280 C   0  0  0  0  0  0  0  0  0  0  0  0
   13.4970    1.4120    8.5300 Cl  0  0  0  0  0  0  0  0  0  0  0  0
   12.0400   -0.7050    7.6440 C   0  0  0  0  0  3  0  0  0  0  0  0
   10.9060   -1.4720    7.5570 C   0  0  0  0  0  3  0  0  0  0  0  0
    9.7750   -1.0630    8.2740 C   0  0  0  0  0  3  0  0  0  0  0  0
    9.8190    0.0800    9.0390 C   0  0  0  0  0  3  0  0  0  0  0  0
    7.3020    6.1240   13.0250 C   0  0  1  0  0  3  0  0  0  0  0  0
    7.2430    6.5390   14.4830 C   0  0  0  0  0  2  0  0  0  0  0  0
    5.8490    6.8740   14.8980 C   0  0  0  0  0  2  0  0  0  0  0  0
    5.4750    8.3130   14.7550 C   0  0  0  0  0  2  0  0  0  0  0  0
    6.2460    9.0010   13.6320 C   0  0  0  0  0  2  0  0  0  0  0  0
    6.0300    8.2320   12.4280 N   0  0  0  0  0  0  0  0  0  0  0  0
    5.3390    8.6660   11.4070 N   0  0  0  0  0  0  0  0  0  0  0  0
    6.4840    6.9990   12.1710 C   0  0  0  0  0  0  0  0  0  0  0  0
    5.3310    7.7380   10.4820 N   0  0  0  0  0  0  0  0  0  0  0  0
    6.0270    6.7160   10.9380 N   0  0  0  0  0  0  0  0  0  0  0  0
  1  2  1  0  0  0  0
  2  3  2  0  0  0  0
  4  1  1  0  0  0  0
  5  1  1  0  0  0  0
  6  5  1  0  0  0  0
  6  7  1  0  0  0  0
  8  7  1  0  0  0  0
  9  8  2  0  0  0  0
 10  9  1  0  0  0  0
 10  6  2  0  0  0  0
 11  9  1  0  0  0  0
 12 13  1  0  0  0  0
 12 11  2  0  0  0  0
 14 12  1  0  0  0  0
 15 14  2  0  0  0  0
 15 16  1  0  0  0  0
 16 17  2  0  0  0  0
 17 11  1  0  0  0  0
 18  2  1  6  0  0  0
 18 19  1  0  0  0  0
 19 20  1  0  0  0  0
 21 20  1  0  0  0  0
 22 21  1  0  0  0  0
 23 22  1  0  0  0  0
 24 23  1  0  0  0  0
 25 23  1  0  0  0  0
 25 18  1  0  0  0  0
 26 27  1  0  0  0  0
 26 24  2  0  0  0  0
 27 25  2  0  0  0  0
M  END
>  <Pose>
1

>  <Score>
-9.745

$$$$
