/Users/jonathanwahrer/Desktop/Msc/3_Semester/Drug_Design_Praktikum/waehrer_HTS_screening/HTS_experiment/out/docking_results/vina_output/2jam/1360_docked.pdbqt
 OpenBabel03162218213D

 34 37  0  0  1  0  0  0  0  0999 V2000
    7.3110    9.2990   14.9010 C   0  0  1  0  0  3  0  0  0  0  0  0
    8.4090    8.6410   14.2410 N   0  0  0  0  0  0  0  0  0  0  0  0
    7.6980    7.6140   13.4460 C   0  0  2  0  0  3  0  0  0  0  0  0
    8.6630    7.0060   12.6150 N   0  0  0  0  0  0  0  0  0  0  0  0
    9.9430    7.5340   12.9740 C   0  0  0  0  0  0  0  0  0  0  0  0
    9.7640    8.5130   13.9530 C   0  0  0  0  0  0  0  0  0  0  0  0
   10.8730    9.1610   14.4540 C   0  0  0  0  0  0  0  0  0  0  0  0
   10.6870   10.0390   15.3350 O   0  0  0  0  0  0  0  0  0  0  0  0
   12.0890    8.8410   13.9960 N   0  0  0  0  0  0  0  0  0  0  0  0
   12.2300    7.9100   13.0680 C   0  0  0  0  0  0  0  0  0  0  0  0
   13.3930    7.6380   12.6630 O   0  0  0  0  0  0  0  0  0  0  0  0
   11.1680    7.2320   12.5330 N   0  0  0  0  0  0  0  0  0  0  0  0
   11.4570    6.2350   11.5270 C   0  0  0  0  0  1  0  0  0  0  0  0
   13.2420    9.5550   14.5550 C   0  0  0  0  0  1  0  0  0  0  0  0
    8.4630    6.0040   11.6000 C   0  0  0  0  0  1  0  0  0  0  0  0
    6.5370    8.3200   12.8840 C   0  0  1  0  0  3  0  0  0  0  0  0
    6.4830    9.6480   13.6530 C   0  0  1  0  0  3  0  0  0  0  0  0
    6.5560    8.3940   15.7360 C   0  0  2  0  0  3  0  0  0  0  0  0
    6.7530    7.1370   15.4560 O   0  0  0  0  0  1  0  0  0  0  0  0
    5.6280    8.6490   16.8150 C   0  0  0  0  0  0  0  0  0  0  0  0
    4.5270    7.8630   17.0580 C   0  0  0  0  0  3  0  0  0  0  0  0
    3.6760    8.1900   18.0850 C   0  0  0  0  0  3  0  0  0  0  0  0
    3.8970    9.2980   18.8900 C   0  0  0  0  0  0  0  0  0  0  0  0
    2.6990    9.7280   20.3080 Br  0  0  0  0  0  0  0  0  0  0  0  0
    5.0070   10.0850   18.6410 C   0  0  0  0  0  3  0  0  0  0  0  0
    5.8660    9.7690   17.6160 C   0  0  0  0  0  3  0  0  0  0  0  0
    5.1130   10.0420   13.9640 C   0  0  0  0  0  0  0  0  0  0  0  0
    4.8720   11.2190   14.3940 O   0  0  0  0  0  0  0  0  0  0  0  0
    4.0570    9.1860   13.8120 O   0  0  0  0  0  0  0  0  0  0  0  0
    2.7510    9.4590   14.3250 C   0  0  0  0  0  1  0  0  0  0  0  0
    6.4720    8.5420   11.4460 C   0  0  0  0  0  0  0  0  0  0  0  0
    7.2520    9.3670   10.9030 O   0  0  0  0  0  0  0  0  0  0  0  0
    5.5740    7.8700   10.6450 O   0  0  0  0  0  0  0  0  0  0  0  0
    4.2070    8.2150   10.6220 C   0  0  0  0  0  1  0  0  0  0  0  0
  1 18  1  1  0  0  0
  2  1  1  0  0  0  0
  3  4  1  6  0  0  0
  3  2  1  0  0  0  0
  4  5  1  0  0  0  0
  5  6  2  0  0  0  0
  6  2  1  0  0  0  0
  6  7  1  0  0  0  0
  7  8  2  0  0  0  0
  9  7  1  0  0  0  0
  9 14  1  0  0  0  0
 10  9  1  0  0  0  0
 11 10  2  0  0  0  0
 12  5  1  0  0  0  0
 12 10  1  0  0  0  0
 13 12  1  0  0  0  0
 15  4  1  0  0  0  0
 16 31  1  6  0  0  0
 16  3  1  0  0  0  0
 16 17  1  0  0  0  0
 17 27  1  1  0  0  0
 17  1  1  0  0  0  0
 18 19  1  6  0  0  0
 18 20  1  0  0  0  0
 20 21  2  0  0  0  0
 20 26  1  0  0  0  0
 21 22  1  0  0  0  0
 22 23  2  0  0  0  0
 23 24  1  0  0  0  0
 25 23  1  0  0  0  0
 26 25  2  0  0  0  0
 27 28  2  0  0  0  0
 29 27  1  0  0  0  0
 29 30  1  0  0  0  0
 32 31  2  0  0  0  0
 33 31  1  0  0  0  0
 34 33  1  0  0  0  0
M  END
>  <Pose>
1

>  <Score>
-7.551

$$$$
