/Users/jonathanwahrer/Desktop/Msc/3_Semester/Drug_Design_Praktikum/waehrer_HTS_screening/HTS_experiment/out/docking_results/vina_output/2jam/1372_docked.pdbqt
 OpenBabel03162218213D

 31 34  0  0  1  0  0  0  0  0999 V2000
    8.7890    7.6700   11.8640 C   0  0  0  0  0  0  0  0  0  0  0  0
    9.3010    7.6660   10.7260 O   0  0  0  0  0  0  0  0  0  0  0  0
    8.4690    8.8820   12.4860 N   0  0  0  0  0  0  0  0  0  0  0  0
    8.3040   10.1880   11.9420 C   0  0  0  0  0  2  0  0  0  0  0  0
    7.2620   10.8500   12.8560 C   0  0  0  0  0  2  0  0  0  0  0  0
    6.3030    9.8440   13.4430 C   0  0  1  0  0  0  0  0  0  0  0  0
    5.3390   10.4780   14.3010 N   0  0  0  0  0  0  0  0  0  0  0  0
    4.5130    9.4200   14.8990 C   0  0  0  0  0  2  0  0  0  0  0  0
    3.6650    8.7310   13.8750 C   0  0  0  0  0  2  0  0  0  0  0  0
    4.3170    8.6530   12.5490 C   0  0  0  0  0  0  0  0  0  0  0  0
    3.8890    8.1120   11.4040 N   0  0  0  0  0  0  0  0  0  0  0  0
    4.8410    8.2860   10.4650 C   0  0  0  0  0  3  0  0  0  0  0  0
    5.8570    8.9390   11.0450 N   0  0  0  0  0  0  0  0  0  0  0  0
    5.5920    9.1950   12.3350 C   0  0  0  0  0  0  0  0  0  0  0  0
    7.0070    8.8200   14.3480 C   0  0  0  0  0  2  0  0  0  0  0  0
    8.4270    8.9170   13.9860 C   0  0  0  0  0  2  0  0  0  0  0  0
    5.8370   10.9310   15.1040 H   0  0  0  0  0  0  0  0  0  0  0  0
    2.9930    7.6230   11.1870 H   0  0  0  0  0  0  0  0  0  0  0  0
    8.5260    6.3490   12.5140 C   0  0  1  0  0  3  0  0  0  0  0  0
    7.1020    5.9210   12.0730 C   0  0  0  0  0  1  0  0  0  0  0  0
    9.3630    5.2810   12.0240 N   0  0  0  0  0  0  0  0  0  0  0  0
   10.7340    5.1880   12.4950 C   0  0  0  0  0  0  0  0  0  0  0  0
   11.1860    5.9720   13.3380 O   0  0  0  0  0  0  0  0  0  0  0  0
    8.9980    4.5980   11.3620 H   0  0  0  0  0  0  0  0  0  0  0  0
   11.5470    4.1150   11.8970 C   0  0  0  0  0  0  0  0  0  0  0  0
   10.8960    3.1850   11.0700 C   0  0  0  0  0  3  0  0  0  0  0  0
   11.5420    2.1340   10.4690 C   0  0  0  0  0  0  0  0  0  0  0  0
   10.5610    0.9140    9.3400 Br  0  0  0  0  0  0  0  0  0  0  0  0
   12.8910    1.9820   10.6890 C   0  0  0  0  0  3  0  0  0  0  0  0
   13.5490    2.8870   11.5050 C   0  0  0  0  0  3  0  0  0  0  0  0
   12.8820    3.9480   12.1080 C   0  0  0  0  0  3  0  0  0  0  0  0
  1  3  1  0  0  0  0
  1 19  1  0  0  0  0
  2  1  2  0  0  0  0
  3 16  1  0  0  0  0
  4  3  1  0  0  0  0
  4  5  1  0  0  0  0
  6  5  1  6  0  0  0
  6  7  1  0  0  0  0
  6 15  1  0  0  0  0
  7  8  1  0  0  0  0
  7 17  1  0  0  0  0
  9  8  1  0  0  0  0
 10  9  1  0  0  0  0
 11 10  1  0  0  0  0
 12 13  2  0  0  0  0
 12 11  1  0  0  0  0
 13 14  1  0  0  0  0
 14 10  2  0  0  0  0
 14  6  1  0  0  0  0
 16 15  1  0  0  0  0
 18 11  1  0  0  0  0
 19 20  1  6  0  0  0
 21 22  1  0  0  0  0
 21 19  1  0  0  0  0
 22 23  2  0  0  0  0
 24 21  1  0  0  0  0
 25 31  1  0  0  0  0
 25 22  1  0  0  0  0
 26 25  2  0  0  0  0
 27 29  2  0  0  0  0
 27 26  1  0  0  0  0
 28 27  1  0  0  0  0
 29 30  1  0  0  0  0
 30 31  2  0  0  0  0
M  END
>  <Pose>
1

>  <Score>
-9.306

$$$$
