/Users/jonathanwahrer/Desktop/Msc/3_Semester/Drug_Design_Praktikum/waehrer_HTS_screening/HTS_experiment/out/docking_results/vina_output/2jam/1381_docked.pdbqt
 OpenBabel03162218223D

 31 34  0  0  0  0  0  0  0  0999 V2000
   11.3690    2.9830   11.6730 C   0  0  0  0  0  0  0  0  0  0  0  0
   11.3170    2.8320   12.8870 O   0  0  0  0  0  0  0  0  0  0  0  0
   10.8110    4.2310   11.2840 O   0  0  0  0  0  0  0  0  0  0  0  0
   11.1560    5.3630   12.0350 C   0  0  0  0  0  2  0  0  0  0  0  0
    9.9170    6.1280   12.2770 C   0  0  0  0  0  0  0  0  0  0  0  0
    9.0950    5.7710   13.2780 N   0  0  0  0  0  0  0  0  0  0  0  0
    7.9560    6.4300   13.5440 C   0  0  0  0  0  0  0  0  0  0  0  0
    7.5930    7.4850   12.8070 N   0  0  0  0  0  0  0  0  0  0  0  0
    7.1440    6.0340   14.5730 C   0  0  0  0  0  3  0  0  0  0  0  0
    6.4440    8.1540   13.0720 C   0  0  0  0  0  3  0  0  0  0  0  0
    8.3610    7.9120   11.7830 C   0  0  0  0  0  0  0  0  0  0  0  0
    5.6110    7.7690   14.1070 C   0  0  0  0  0  0  0  0  0  0  0  0
    3.9840    8.7340   14.4640 Br  0  0  0  0  0  0  0  0  0  0  0  0
    5.9670    6.6880   14.8740 C   0  0  0  0  0  3  0  0  0  0  0  0
    9.5470    7.2110   11.5200 C   0  0  0  0  0  3  0  0  0  0  0  0
    8.0510    8.8990   11.0710 O   0  0  0  0  0  0  0  0  0  0  0  0
   11.8960    2.1050   10.6470 C   0  0  0  0  0  0  0  0  0  0  0  0
   11.0690    1.2450    9.9790 N   0  0  0  0  0  0  0  0  0  0  0  0
   11.5240    0.4350    9.0400 N   0  0  0  0  0  0  0  0  0  0  0  0
   12.8230    0.4180    8.6970 C   0  0  0  0  0  0  0  0  0  0  0  0
   13.2510   -0.3700    7.7880 O   0  0  0  0  0  0  0  0  0  0  0  0
   13.7210    1.2520    9.3210 C   0  0  0  0  0  0  0  0  0  0  0  0
   13.2140    2.0990   10.3100 C   0  0  0  0  0  0  0  0  0  0  0  0
   15.0400    1.2180    8.9560 C   0  0  0  0  0  3  0  0  0  0  0  0
   14.1450    2.9140   10.9060 C   0  0  0  0  0  3  0  0  0  0  0  0
   15.4870    2.8890   10.5440 C   0  0  0  0  0  3  0  0  0  0  0  0
   15.9520    2.0420    9.5660 C   0  0  0  0  0  3  0  0  0  0  0  0
   10.6380   -0.4720    8.3400 C   0  0  0  0  0  2  0  0  0  0  0  0
    9.2390   -0.4560    8.8980 C   0  0  0  0  0  2  0  0  0  0  0  0
    8.2810   -0.7520    7.9460 O   0  0  0  0  0  0  0  0  0  0  0  0
    8.1050   -1.7210    7.9930 H   0  0  0  0  0  0  0  0  0  0  0  0
  1  2  2  0  0  0  0
  3  1  1  0  0  0  0
  3  4  1  0  0  0  0
  4  5  1  0  0  0  0
  5  6  1  0  0  0  0
  6  7  2  0  0  0  0
  7  9  1  0  0  0  0
  8 10  1  0  0  0  0
  8  7  1  0  0  0  0
  9 14  2  0  0  0  0
 10 12  2  0  0  0  0
 11  8  1  0  0  0  0
 12 13  1  0  0  0  0
 12 14  1  0  0  0  0
 15 11  1  0  0  0  0
 15  5  2  0  0  0  0
 16 11  2  0  0  0  0
 17  1  1  0  0  0  0
 18 17  2  0  0  0  0
 19 18  1  0  0  0  0
 20 19  1  0  0  0  0
 20 22  1  0  0  0  0
 21 20  2  0  0  0  0
 22 23  1  0  0  0  0
 23 17  1  0  0  0  0
 23 25  2  0  0  0  0
 24 22  2  0  0  0  0
 24 27  1  0  0  0  0
 26 25  1  0  0  0  0
 27 26  2  0  0  0  0
 28 29  1  0  0  0  0
 28 19  1  0  0  0  0
 30 31  1  0  0  0  0
 30 29  1  0  0  0  0
M  END
>  <Pose>
1

>  <Score>
-9.542

$$$$
