/Users/jonathanwahrer/Desktop/Msc/3_Semester/Drug_Design_Praktikum/waehrer_HTS_screening/HTS_experiment/out/docking_results/vina_output/2jam/1386_docked.pdbqt
 OpenBabel03162218223D

 33 36  0  0  1  0  0  0  0  0999 V2000
   10.5000    5.0960   10.3560 C   0  0  0  0  0  0  0  0  0  0  0  0
    9.8280    5.1940    9.3040 O   0  0  0  0  0  0  0  0  0  0  0  0
    9.9180    5.5450   11.5990 N   0  0  0  0  0  0  0  0  0  0  0  0
    8.5870    6.0890   11.5870 C   0  0  0  0  0  2  0  0  0  0  0  0
    8.7030    7.5620   11.9190 C   0  0  2  0  0  3  0  0  0  0  0  0
    9.8230    7.8790   12.8430 C   0  0  2  0  0  0  0  0  0  0  0  0
   10.3390    6.7380   13.6400 C   0  0  0  0  0  2  0  0  0  0  0  0
   10.5880    5.4840   12.8680 C   0  0  0  0  0  2  0  0  0  0  0  0
    9.3120    8.9350   13.8320 C   0  0  0  0  0  1  0  0  0  0  0  0
   11.8590    4.5420   10.3750 C   0  0  0  0  0  2  0  0  0  0  0  0
   12.0410    3.1780   10.8890 C   0  0  0  0  0  2  0  0  0  0  0  0
   11.6350    2.0590   10.0000 C   0  0  0  0  0  0  0  0  0  0  0  0
   10.3830    1.4810   10.0010 N   0  0  0  0  0  0  0  0  0  0  0  0
   10.3640    0.4630    9.1280 C   0  0  0  0  0  0  0  0  0  0  0  0
    9.3910   -0.4410    8.7340 C   0  0  0  0  0  3  0  0  0  0  0  0
   11.6070    0.3650    8.5460 C   0  0  0  0  0  0  0  0  0  0  0  0
    9.6590   -1.4050    7.7910 C   0  0  0  0  0  0  0  0  0  0  0  0
    8.3800   -2.5360    7.3230 Cl  0  0  0  0  0  0  0  0  0  0  0  0
   10.9130   -1.4890    7.2170 C   0  0  0  0  0  3  0  0  0  0  0  0
   11.8860   -0.5980    7.5990 C   0  0  0  0  0  3  0  0  0  0  0  0
   12.3430    1.3630    9.1170 N   0  0  0  0  0  0  0  0  0  0  0  0
   13.7420    1.5360    8.7720 C   0  0  0  0  0  1  0  0  0  0  0  0
    7.4160    8.0100   12.3930 N   0  0  0  0  0  0  0  0  0  0  0  0
    6.8720    7.4640   13.4980 C   0  0  0  0  0  3  0  0  0  0  0  0
    5.6470    7.8600   13.9860 C   0  0  0  0  0  3  0  0  0  0  0  0
    4.9640    8.8480   13.3150 C   0  0  0  0  0  0  0  0  0  0  0  0
    3.8250    9.2590   13.7160 O   0  0  0  0  0  0  0  0  0  0  0  0
    5.5290    9.3730   12.2170 N   0  0  0  0  0  0  0  0  0  0  0  0
    6.7180    8.9710   11.7650 C   0  0  0  0  0  0  0  0  0  0  0  0
    5.0340   10.1380   11.6670 H   0  0  0  0  0  0  0  0  0  0  0  0
    7.2060    9.4990   10.7240 O   0  0  0  0  0  0  0  0  0  0  0  0
   10.9120    8.4800   12.1920 O   0  0  0  0  0  0  0  0  0  0  0  0
   11.2640    9.2090   12.7920 H   0  0  0  0  0  0  0  0  0  0  0  0
  1 10  1  0  0  0  0
  1  3  1  0  0  0  0
  2  1  2  0  0  0  0
  3  8  1  0  0  0  0
  4  3  1  0  0  0  0
  5  4  1  1  0  0  0
  5 23  1  0  0  0  0
  5  6  1  0  0  0  0
  6  7  1  0  0  0  0
  6  9  1  1  0  0  0
  8  7  1  0  0  0  0
 10 11  1  0  0  0  0
 12 13  2  0  0  0  0
 12 11  1  0  0  0  0
 14 13  1  0  0  0  0
 15 14  1  0  0  0  0
 16 21  1  0  0  0  0
 16 14  2  0  0  0  0
 17 15  2  0  0  0  0
 18 17  1  0  0  0  0
 19 20  2  0  0  0  0
 19 17  1  0  0  0  0
 20 16  1  0  0  0  0
 21 12  1  0  0  0  0
 22 21  1  0  0  0  0
 23 24  1  0  0  0  0
 24 25  2  0  0  0  0
 26 27  2  0  0  0  0
 26 25  1  0  0  0  0
 28 26  1  0  0  0  0
 29 28  1  0  0  0  0
 29 23  1  0  0  0  0
 30 28  1  0  0  0  0
 31 29  2  0  0  0  0
 32 33  1  0  0  0  0
 32  6  1  0  0  0  0
M  END
>  <Pose>
1

>  <Score>
-10.224

$$$$
