/Users/jonathanwahrer/Desktop/Msc/3_Semester/Drug_Design_Praktikum/waehrer_HTS_screening/HTS_experiment/out/docking_results/vina_output/2jam/1388_docked.pdbqt
 OpenBabel03162218223D

 30 33  0  0  1  0  0  0  0  0999 V2000
   10.0990    5.7580   11.1420 C   0  0  0  0  0  0  0  0  0  0  0  0
   10.2630    6.0480    9.9320 O   0  0  0  0  0  0  0  0  0  0  0  0
    9.3680    6.6300   11.9650 N   0  0  0  0  0  0  0  0  0  0  0  0
    9.1390    6.3650   13.3630 C   0  0  0  0  0  2  0  0  0  0  0  0
    7.6460    6.1820   13.5360 C   0  0  0  0  0  2  0  0  0  0  0  0
    6.9150    7.3410   12.9010 C   0  0  1  0  0  0  0  0  0  0  0  0
    6.1010    6.8190   11.8230 N   0  0  0  0  0  0  0  0  0  0  0  0
    5.2500    7.7720   11.2010 C   0  0  0  0  0  2  0  0  0  0  0  0
    4.5860    8.7650   12.0820 C   0  0  0  0  0  2  0  0  0  0  0  0
    4.8270    8.5670   13.5270 C   0  0  0  0  0  0  0  0  0  0  0  0
    4.1260    8.9440   14.6400 N   0  0  0  0  0  0  0  0  0  0  0  0
    4.8160    8.4960   15.6970 C   0  0  0  0  0  3  0  0  0  0  0  0
    5.9150    7.8550   15.2670 N   0  0  0  0  0  0  0  0  0  0  0  0
    5.9560    7.8800   13.9110 C   0  0  0  0  0  0  0  0  0  0  0  0
    7.8040    8.4370   12.4090 C   0  0  0  0  0  2  0  0  0  0  0  0
    8.8140    7.8430   11.4220 C   0  0  0  0  0  2  0  0  0  0  0  0
    6.7440    6.4250   11.0870 H   0  0  0  0  0  0  0  0  0  0  0  0
    3.2150    9.4890   14.6170 H   0  0  0  0  0  0  0  0  0  0  0  0
   10.7050    4.4870   11.6190 C   0  0  0  0  0  2  0  0  0  0  0  0
   10.8060    3.5120   10.5540 N   0  0  0  0  0  0  0  0  0  0  0  0
   11.6310    2.3690   10.6620 C   0  0  0  0  0  0  0  0  0  0  0  0
   12.2850    2.2240   11.7260 O   0  0  0  0  0  0  0  0  0  0  0  0
   10.2560    3.6530    9.6840 H   0  0  0  0  0  0  0  0  0  0  0  0
   11.7510    1.3740    9.6060 C   0  0  0  0  0  0  0  0  0  0  0  0
   10.7370    0.4950    9.2730 C   0  0  0  0  0  3  0  0  0  0  0  0
   10.8790   -0.4410    8.2650 C   0  0  0  0  0  0  0  0  0  0  0  0
    9.4380   -1.6050    7.8750 Br  0  0  0  0  0  0  0  0  0  0  0  0
   12.0730   -0.5210    7.5460 C   0  0  0  0  0  3  0  0  0  0  0  0
   13.0720    0.3620    7.8910 C   0  0  0  0  0  3  0  0  0  0  0  0
   12.9380    1.2940    8.8920 C   0  0  0  0  0  3  0  0  0  0  0  0
  1 19  1  0  0  0  0
  1  3  1  0  0  0  0
  2  1  2  0  0  0  0
  3  4  1  0  0  0  0
  4  5  1  0  0  0  0
  6 15  1  6  0  0  0
  6  5  1  0  0  0  0
  6 14  1  0  0  0  0
  7  6  1  0  0  0  0
  8  7  1  0  0  0  0
  8  9  1  0  0  0  0
  9 10  1  0  0  0  0
 10 14  2  0  0  0  0
 10 11  1  0  0  0  0
 11 12  1  0  0  0  0
 13 12  2  0  0  0  0
 14 13  1  0  0  0  0
 16  3  1  0  0  0  0
 16 15  1  0  0  0  0
 17  7  1  0  0  0  0
 18 11  1  0  0  0  0
 20 21  1  0  0  0  0
 20 19  1  0  0  0  0
 21 22  2  0  0  0  0
 23 20  1  0  0  0  0
 24 21  1  0  0  0  0
 25 24  1  0  0  0  0
 26 25  2  0  0  0  0
 27 26  1  0  0  0  0
 28 29  2  0  0  0  0
 28 26  1  0  0  0  0
 29 30  1  0  0  0  0
 30 24  2  0  0  0  0
M  END
>  <Pose>
1

>  <Score>
-9.813

$$$$
