/Users/jonathanwahrer/Desktop/Msc/3_Semester/Drug_Design_Praktikum/waehrer_HTS_screening/HTS_experiment/out/docking_results/vina_output/2jam/1405_docked.pdbqt
 OpenBabel03162218223D

 27 30  0  0  1  0  0  0  0  0999 V2000
   12.3480   11.5770   14.7500 Br  0  0  0  0  0  0  0  0  0  0  0  0
   11.1360   10.1660   14.2460 C   0  0  0  0  0  0  0  0  0  0  0  0
    9.9120   10.0370   14.8470 C   0  0  0  0  0  3  0  0  0  0  0  0
    9.0610    9.0200   14.4690 C   0  0  0  0  0  0  0  0  0  0  0  0
    9.4880    8.1660   13.4890 C   0  0  0  0  0  0  0  0  0  0  0  0
   10.7480    8.3000   12.8710 C   0  0  0  0  0  3  0  0  0  0  0  0
   11.5800    9.3160   13.2580 C   0  0  0  0  0  3  0  0  0  0  0  0
    8.5050    7.1740   13.2090 N   0  0  0  0  0  0  0  0  0  0  0  0
    7.4080    7.4070   14.0480 C   0  0  0  0  0  0  0  0  0  0  0  0
    6.3460    6.7130   14.0710 O   0  0  0  0  0  0  0  0  0  0  0  0
    7.7040    8.6080   14.9060 C   0  0  2  0  0  0  0  0  0  0  0  0
    6.6760    9.5910   14.5850 C   0  0  0  0  0  0  0  0  0  0  0  0
    5.7840   10.0100   15.5220 C   0  0  0  0  0  0  0  0  0  0  0  0
    4.9700   10.9180   14.9060 N   0  0  0  0  0  0  0  0  0  0  0  0
    5.3260   11.0680   13.6470 N   0  0  0  0  0  0  0  0  0  0  0  0
    6.3660   10.2740   13.4050 C   0  0  0  0  0  0  0  0  0  0  0  0
    7.1330   10.0800   12.1350 C   0  0  0  0  0  1  0  0  0  0  0  0
    5.7880    9.5370   16.8380 O   0  0  0  0  0  0  0  0  0  0  0  0
    6.7700    8.5990   17.1400 C   0  0  0  0  0  0  0  0  0  0  0  0
    7.6540    8.1570   16.2840 C   0  0  0  0  0  0  0  0  0  0  0  0
    8.6220    7.1630   16.7800 C   0  0  0  0  0  0  0  0  0  0  0  0
    9.3980    6.3740   17.1520 N   0  0  0  0  0  0  0  0  0  0  0  0
    8.6100    6.0900   12.2200 C   0  0  0  0  0  1  0  0  0  0  0  0
    4.8970   11.6910   12.9150 H   0  0  0  0  0  0  0  0  0  0  0  0
    6.8250    8.0700   18.4950 N   0  0  0  0  0  0  0  0  0  0  0  0
    6.0930    8.4380   19.1350 H   0  0  0  0  0  0  0  0  0  0  0  0
    7.5190    7.3930   18.8060 H   0  0  0  0  0  0  0  0  0  0  0  0
  2  1  1  0  0  0  0
  2  3  1  0  0  0  0
  4  3  2  0  0  0  0
  4 11  1  0  0  0  0
  5  4  1  0  0  0  0
  6  7  1  0  0  0  0
  6  5  2  0  0  0  0
  7  2  2  0  0  0  0
  8  5  1  0  0  0  0
  8  9  1  0  0  0  0
  9 10  2  0  0  0  0
 11  9  1  6  0  0  0
 11 20  1  0  0  0  0
 12 11  1  0  0  0  0
 12 13  1  0  0  0  0
 13 18  1  0  0  0  0
 14 13  2  0  0  0  0
 15 14  1  0  0  0  0
 16 15  1  0  0  0  0
 16 12  2  0  0  0  0
 17 16  1  0  0  0  0
 18 19  1  0  0  0  0
 19 25  1  0  0  0  0
 20 21  1  0  0  0  0
 20 19  2  0  0  0  0
 21 22  3  0  0  0  0
 23  8  1  0  0  0  0
 24 15  1  0  0  0  0
 25 27  1  0  0  0  0
 25 26  1  0  0  0  0
M  END
>  <Pose>
1

>  <Score>
-6.609

$$$$
