/Users/jonathanwahrer/Desktop/Msc/3_Semester/Drug_Design_Praktikum/waehrer_HTS_screening/HTS_experiment/out/docking_results/vina_output/2jam/1413_docked.pdbqt
 OpenBabel03162218223D

 24 27  0  0  0  0  0  0  0  0999 V2000
   11.4810    5.1180   11.6600 C   0  0  0  0  0  2  0  0  0  0  0  0
   10.3020    5.9490   11.8400 N   0  0  0  0  0  0  0  0  0  0  0  0
    9.0850    5.6060   11.3850 C   0  0  0  0  0  2  0  0  0  0  0  0
    7.9840    6.4330   11.5800 C   0  0  0  0  0  0  0  0  0  0  0  0
    8.1070    7.6320   12.2460 C   0  0  0  0  0  0  0  0  0  0  0  0
    6.6690    6.3600   11.2470 N   0  0  0  0  0  0  0  0  0  0  0  0
    9.3310    7.9820   12.7060 C   0  0  0  0  0  0  0  0  0  0  0  0
    6.9140    8.2550   12.3110 N   0  0  0  0  0  0  0  0  0  0  0  0
    9.5260    9.6270   13.6240 Br  0  0  0  0  0  0  0  0  0  0  0  0
   10.4110    7.1270   12.4910 C   0  0  0  0  0  3  0  0  0  0  0  0
    6.0750    7.4340   11.6870 N   0  0  0  0  0  0  0  0  0  0  0  0
    6.5300    9.4900   12.8820 C   0  0  0  0  0  1  0  0  0  0  0  0
   11.6690    4.6290   10.2970 C   0  0  0  0  0  0  0  0  0  0  0  0
   11.7550    5.5120    9.3900 O   0  0  0  0  0  0  0  0  0  0  0  0
   11.7660    3.2330    9.8830 C   0  0  0  0  0  0  0  0  0  0  0  0
   10.6300    2.4760    9.8340 C   0  0  0  0  0  3  0  0  0  0  0  0
   10.6910    1.1600    9.4550 C   0  0  0  0  0  0  0  0  0  0  0  0
   11.8850    0.5520    9.1120 C   0  0  0  0  0  0  0  0  0  0  0  0
    9.5270    0.4140    9.4120 C   0  0  0  0  0  3  0  0  0  0  0  0
   13.0240    1.3500    9.1740 C   0  0  0  0  0  3  0  0  0  0  0  0
   11.9720   -0.7700    8.7270 C   0  0  0  0  0  3  0  0  0  0  0  0
   12.9670    2.6640    9.5510 C   0  0  0  0  0  3  0  0  0  0  0  0
   10.8040   -1.5020    8.6890 C   0  0  0  0  0  3  0  0  0  0  0  0
    9.6080   -0.9050    9.0290 C   0  0  0  0  0  3  0  0  0  0  0  0
  1  2  1  0  0  0  0
  2 10  1  0  0  0  0
  3  4  1  0  0  0  0
  3  2  1  0  0  0  0
  4  5  2  0  0  0  0
  5  8  1  0  0  0  0
  5  7  1  0  0  0  0
  6  4  1  0  0  0  0
  6 11  2  0  0  0  0
  7  9  1  0  0  0  0
  8 12  1  0  0  0  0
 10  7  2  0  0  0  0
 11  8  1  0  0  0  0
 13  1  1  0  0  0  0
 14 13  2  0  0  0  0
 15 13  1  0  0  0  0
 16 15  1  0  0  0  0
 17 16  2  0  0  0  0
 18 20  2  0  0  0  0
 18 17  1  0  0  0  0
 19 17  1  0  0  0  0
 20 22  1  0  0  0  0
 21 18  1  0  0  0  0
 22 15  2  0  0  0  0
 23 21  2  0  0  0  0
 23 24  1  0  0  0  0
 24 19  2  0  0  0  0
M  END
>  <Pose>
1

>  <Score>
-9.338

$$$$
