/Users/jonathanwahrer/Desktop/Msc/3_Semester/Drug_Design_Praktikum/waehrer_HTS_screening/HTS_experiment/out/docking_results/vina_output/2jam/1428_docked.pdbqt
 OpenBabel03162218233D

 37 40  0  0  1  0  0  0  0  0999 V2000
   16.2860    4.1080   11.6060 Cl  0  0  0  0  0  0  0  0  0  0  0  0
   15.1810    5.4740   11.7260 C   0  0  0  0  0  0  0  0  0  0  0  0
   13.8250    5.3060   11.8100 C   0  0  0  0  0  3  0  0  0  0  0  0
   13.0060    6.4090   11.9030 C   0  0  0  0  0  0  0  0  0  0  0  0
   13.5860    7.6500   11.9070 C   0  0  0  0  0  0  0  0  0  0  0  0
   14.9710    7.8180   11.8210 C   0  0  0  0  0  3  0  0  0  0  0  0
   15.7730    6.7180   11.7300 C   0  0  0  0  0  3  0  0  0  0  0  0
   12.6270    8.6950   12.0200 N   0  0  0  0  0  0  0  0  0  0  0  0
   11.3760    8.0690   12.0920 C   0  0  0  0  0  0  0  0  0  0  0  0
   10.2970    8.7360   12.2150 O   0  0  0  0  0  0  0  0  0  0  0  0
   11.5410    6.6120   12.0030 C   0  0  2  0  0  0  0  0  0  0  0  0
   10.9920    6.0340   13.1980 N   0  0  0  0  0  0  0  0  0  0  0  0
    9.8150    5.2970   12.8580 C   0  0  2  0  0  3  0  0  0  0  0  0
    9.4400    5.6740   11.4610 C   0  0  0  0  0  2  0  0  0  0  0  0
   10.7630    6.0840   10.8760 C   0  0  2  0  0  3  0  0  0  0  0  0
   12.8140    9.7330   12.0470 H   0  0  0  0  0  0  0  0  0  0  0  0
   11.7090    5.4790   13.7120 H   0  0  0  0  0  0  0  0  0  0  0  0
   11.4020    5.0040   10.0820 C   0  0  0  0  0  0  0  0  0  0  0  0
   11.9470    5.3590    9.0090 O   0  0  0  0  0  0  0  0  0  0  0  0
   11.4160    3.6580   10.4680 N   0  0  0  0  0  0  0  0  0  0  0  0
   10.9360    3.4650   11.4000 H   0  0  0  0  0  0  0  0  0  0  0  0
   11.9750    2.5630    9.8080 C   0  0  0  0  0  0  0  0  0  0  0  0
   11.1750    1.4690    9.5120 C   0  0  0  0  0  0  0  0  0  0  0  0
   11.6600    0.3530    8.8600 C   0  0  0  0  0  3  0  0  0  0  0  0
   12.9740    0.2730    8.4720 C   0  0  0  0  0  3  0  0  0  0  0  0
   13.7860    1.3340    8.7500 C   0  0  0  0  0  0  0  0  0  0  0  0
   13.2830    2.4550    9.4080 C   0  0  0  0  0  3  0  0  0  0  0  0
    9.8380    1.4740    9.8720 O   0  0  0  0  0  0  0  0  0  0  0  0
    9.0130    0.3500    9.8360 C   0  0  0  0  0  1  0  0  0  0  0  0
   15.1160    1.2940    8.3750 O   0  0  0  0  0  0  0  0  0  0  0  0
   16.1610    1.7620    9.2080 C   0  0  0  0  0  1  0  0  0  0  0  0
    8.6850    5.5560   13.8420 C   0  0  0  0  0  2  0  0  0  0  0  0
    8.8800    6.8070   14.5880 C   0  0  0  0  0  0  0  0  0  0  0  0
    9.6420    6.8400   15.5680 O   0  0  0  0  0  0  0  0  0  0  0  0
    8.1990    7.9720   14.1900 N   0  0  0  0  0  0  0  0  0  0  0  0
    8.7440    8.8570   14.1050 H   0  0  0  0  0  0  0  0  0  0  0  0
    7.1740    8.0150   13.9700 H   0  0  0  0  0  0  0  0  0  0  0  0
  1  2  1  0  0  0  0
  2  7  2  0  0  0  0
  2  3  1  0  0  0  0
  3  4  2  0  0  0  0
  4  5  1  0  0  0  0
  5  8  1  0  0  0  0
  6  5  2  0  0  0  0
  7  6  1  0  0  0  0
  8 16  1  0  0  0  0
  8  9  1  0  0  0  0
  9 10  2  0  0  0  0
 11  4  1  6  0  0  0
 11  9  1  0  0  0  0
 11 12  1  0  0  0  0
 12 17  1  0  0  0  0
 13 12  1  0  0  0  0
 13 32  1  1  0  0  0
 14 13  1  0  0  0  0
 15 18  1  1  0  0  0
 15 14  1  0  0  0  0
 15 11  1  0  0  0  0
 18 20  1  0  0  0  0
 19 18  2  0  0  0  0
 20 21  1  0  0  0  0
 22 20  1  0  0  0  0
 23 22  1  0  0  0  0
 23 28  1  0  0  0  0
 24 23  2  0  0  0  0
 25 26  2  0  0  0  0
 25 24  1  0  0  0  0
 26 27  1  0  0  0  0
 27 22  2  0  0  0  0
 29 28  1  0  0  0  0
 30 26  1  0  0  0  0
 30 31  1  0  0  0  0
 32 33  1  0  0  0  0
 33 34  2  0  0  0  0
 35 33  1  0  0  0  0
 36 35  1  0  0  0  0
 37 35  1  0  0  0  0
M  END
>  <Pose>
1

>  <Score>
-8.056

$$$$
