/Users/jonathanwahrer/Desktop/Msc/3_Semester/Drug_Design_Praktikum/waehrer_HTS_screening/HTS_experiment/out/docking_results/vina_output/2jam/1432_docked.pdbqt
 OpenBabel03162218233D

 21 24  0  0  0  0  0  0  0  0999 V2000
   10.0960    6.2480   11.2810 C   0  0  0  0  0  0  0  0  0  0  0  0
    9.8730    5.7200   12.4960 N   0  0  0  0  0  0  0  0  0  0  0  0
    8.7350    6.2060   13.0210 N   0  0  0  0  0  0  0  0  0  0  0  0
    8.2210    7.0610   12.1190 C   0  0  0  0  0  0  0  0  0  0  0  0
    9.0560    7.0810   11.0640 N   0  0  0  0  0  0  0  0  0  0  0  0
    7.0350    7.6940   12.4380 C   0  0  0  0  0  0  0  0  0  0  0  0
    6.3810    7.4720   13.6360 C   0  0  0  0  0  0  0  0  0  0  0  0
    5.2520    8.2120   13.6960 N   0  0  0  0  0  0  0  0  0  0  0  0
    5.1990    8.8820   12.5610 N   0  0  0  0  0  0  0  0  0  0  0  0
    6.2510    8.6050   11.7700 C   0  0  0  0  0  3  0  0  0  0  0  0
    4.3030    8.2390   14.8070 C   0  0  0  0  0  1  0  0  0  0  0  0
    6.9520    6.6040   14.4880 N   0  0  0  0  0  0  0  0  0  0  0  0
    8.1050    5.9830   14.1890 C   0  0  0  0  0  3  0  0  0  0  0  0
   11.2300    5.9930   10.3510 C   0  0  0  0  0  2  0  0  0  0  0  0
   11.4720    4.5700   10.1750 N   0  0  0  0  0  0  0  0  0  0  0  0
   12.6390    3.9210   10.3560 C   0  0  0  0  0  3  0  0  0  0  0  0
   12.4370    2.5700   10.0820 C   0  0  0  0  0  0  0  0  0  0  0  0
   13.7070    1.1510   10.1610 Br  0  0  0  0  0  0  0  0  0  0  0  0
   11.1090    2.4470    9.7330 C   0  0  0  0  0  0  0  0  0  0  0  0
   10.5570    3.6750    9.8000 N   0  0  0  0  0  0  0  0  0  0  0  0
   10.4740    1.1610    9.3630 C   0  0  0  0  0  1  0  0  0  0  0  0
  1  2  2  0  0  0  0
  2  3  1  0  0  0  0
  3 13  1  0  0  0  0
  4  6  1  0  0  0  0
  4  3  1  0  0  0  0
  5  1  1  0  0  0  0
  5  4  2  0  0  0  0
  6  7  2  0  0  0  0
  7  8  1  0  0  0  0
  7 12  1  0  0  0  0
  8 11  1  0  0  0  0
  9  8  1  0  0  0  0
 10  6  1  0  0  0  0
 10  9  2  0  0  0  0
 13 12  2  0  0  0  0
 14  1  1  0  0  0  0
 15 14  1  0  0  0  0
 15 16  1  0  0  0  0
 17 18  1  0  0  0  0
 17 16  2  0  0  0  0
 19 20  2  0  0  0  0
 19 17  1  0  0  0  0
 20 15  1  0  0  0  0
 21 19  1  0  0  0  0
M  END
>  <Pose>
1

>  <Score>
-7.341

$$$$
