/Users/jonathanwahrer/Desktop/Msc/3_Semester/Drug_Design_Praktikum/waehrer_HTS_screening/HTS_experiment/out/docking_results/vina_output/2jam/1434_docked.pdbqt
 OpenBabel03162218233D

 28 31  0  0  1  0  0  0  0  0999 V2000
   11.6500    4.5410   11.6230 C   0  0  0  0  0  0  0  0  0  0  0  0
   12.7420    5.1180   12.1140 O   0  0  0  0  0  0  0  0  0  0  0  0
   10.7350    5.4240   11.0720 N   0  0  0  0  0  0  0  0  0  0  0  0
    9.4820    5.1280   10.4750 C   0  0  0  0  0  2  0  0  0  0  0  0
    8.3480    5.5900   11.3920 C   0  0  0  0  0  2  0  0  0  0  0  0
    8.7830    6.8290   12.1550 C   0  0  1  0  0  0  0  0  0  0  0  0
    7.5860    7.6400   12.3000 N   0  0  0  0  0  0  0  0  0  0  0  0
    6.9560    7.2180   13.5270 C   0  0  0  0  0  0  0  0  0  0  0  0
    5.7620    7.4310   13.8540 O   0  0  0  0  0  0  0  0  0  0  0  0
    7.9500    6.5130   14.2950 N   0  0  0  0  0  0  0  0  0  0  0  0
    9.1600    6.5070   13.5480 C   0  0  0  0  0  0  0  0  0  0  0  0
   10.2980    6.2710   14.0160 O   0  0  0  0  0  0  0  0  0  0  0  0
    9.8120    7.6290   11.4210 C   0  0  0  0  0  2  0  0  0  0  0  0
   11.0570    6.8720   11.0930 C   0  0  0  0  0  2  0  0  0  0  0  0
    7.2400    8.3810   11.6550 H   0  0  0  0  0  0  0  0  0  0  0  0
    7.8030    6.0900   15.2220 H   0  0  0  0  0  0  0  0  0  0  0  0
   11.6820    3.1020   11.7890 C   0  0  0  0  0  2  0  0  0  0  0  0
   12.0880    2.2720   10.7090 N   0  0  0  0  0  0  0  0  0  0  0  0
   13.3920    2.1260   10.3280 C   0  0  0  0  0  0  0  0  0  0  0  0
   13.4550    1.2480    9.2770 C   0  0  0  0  0  0  0  0  0  0  0  0
   14.5670    2.6980   10.8140 C   0  0  0  0  0  3  0  0  0  0  0  0
   12.1680    0.8510    9.0130 C   0  0  0  0  0  0  0  0  0  0  0  0
   14.6830    0.9370    8.7110 C   0  0  0  0  0  3  0  0  0  0  0  0
   11.7210   -0.3840    7.6240 Br  0  0  0  0  0  0  0  0  0  0  0  0
   11.3420    1.4850    9.8980 C   0  0  0  0  0  0  0  0  0  0  0  0
    9.8700    1.3420    9.9700 C   0  0  0  0  0  1  0  0  0  0  0  0
   15.8370    1.5060    9.1970 C   0  0  0  0  0  3  0  0  0  0  0  0
   15.7940    2.3840   10.2440 C   0  0  0  0  0  3  0  0  0  0  0  0
  1 17  1  0  0  0  0
  1  2  2  0  0  0  0
  3 14  1  0  0  0  0
  3  1  1  0  0  0  0
  4  3  1  0  0  0  0
  4  5  1  0  0  0  0
  6  5  1  6  0  0  0
  6  7  1  0  0  0  0
  6 11  1  0  0  0  0
  7  8  1  0  0  0  0
  8  9  2  0  0  0  0
  8 10  1  0  0  0  0
 10 16  1  0  0  0  0
 11 12  2  0  0  0  0
 11 10  1  0  0  0  0
 13  6  1  0  0  0  0
 14 13  1  0  0  0  0
 15  7  1  0  0  0  0
 18 17  1  0  0  0  0
 19 18  1  0  0  0  0
 19 21  1  0  0  0  0
 20 19  2  0  0  0  0
 22 20  1  0  0  0  0
 22 25  2  0  0  0  0
 23 27  2  0  0  0  0
 23 20  1  0  0  0  0
 24 22  1  0  0  0  0
 25 26  1  0  0  0  0
 25 18  1  0  0  0  0
 27 28  1  0  0  0  0
 28 21  2  0  0  0  0
M  END
>  <Pose>
1

>  <Score>
-9.305

$$$$
