/Users/jonathanwahrer/Desktop/Msc/3_Semester/Drug_Design_Praktikum/waehrer_HTS_screening/HTS_experiment/out/docking_results/vina_output/2jam/1435_docked.pdbqt
 OpenBabel03162218243D

 32 35  0  0  0  0  0  0  0  0999 V2000
    9.6770    5.8360   12.2080 C   0  0  0  0  0  2  0  0  0  0  0  0
    9.2130    7.0780   11.4600 C   0  0  0  0  0  2  0  0  0  0  0  0
    8.5290    7.9970   12.3380 N   0  0  0  0  0  0  0  0  0  0  0  0
    9.0550    8.8730   13.2280 C   0  0  0  0  0  0  0  0  0  0  0  0
   10.9320    9.0730   13.5130 Br  0  0  0  0  0  0  0  0  0  0  0  0
    8.0750    9.5510   13.8550 N   0  0  0  0  0  0  0  0  0  0  0  0
    6.8820    9.1240   13.3780 C   0  0  0  0  0  0  0  0  0  0  0  0
    7.1910    8.1610   12.4400 C   0  0  0  0  0  0  0  0  0  0  0  0
    5.6100    9.4770   13.6690 N   0  0  0  0  0  0  0  0  0  0  0  0
    6.1440    7.5430   11.7770 C   0  0  0  0  0  0  0  0  0  0  0  0
    4.8850    7.8980   12.0730 N   0  0  0  0  0  0  0  0  0  0  0  0
    6.4400    6.6720   10.9290 O   0  0  0  0  0  0  0  0  0  0  0  0
    4.6190    8.8530   13.0060 C   0  0  0  0  0  0  0  0  0  0  0  0
    4.0870    7.4350   11.5770 H   0  0  0  0  0  0  0  0  0  0  0  0
    3.4100    9.1290   13.2230 O   0  0  0  0  0  0  0  0  0  0  0  0
    5.3030   10.4920   14.6590 C   0  0  0  0  0  1  0  0  0  0  0  0
   10.3050    4.8410   11.2670 C   0  0  0  0  0  2  0  0  0  0  0  0
   11.0200    3.7060   11.9380 C   0  0  0  0  0  2  0  0  0  0  0  0
   12.0050    3.1540   11.0690 N   0  0  0  0  0  0  0  0  0  0  0  0
   11.9120    2.2110   10.1340 C   0  0  0  0  0  0  0  0  0  0  0  0
   13.1550    2.0540    9.5310 C   0  0  0  0  0  0  0  0  0  0  0  0
   10.8950    1.4100    9.6840 C   0  0  0  0  0  0  0  0  0  0  0  0
   13.9620    2.9210   10.1370 N   0  0  0  0  0  0  0  0  0  0  0  0
   13.3350    1.1590    8.5560 N   0  0  0  0  0  0  0  0  0  0  0  0
   13.2880    3.5950   11.0700 C   0  0  0  0  0  0  0  0  0  0  0  0
   14.0560    4.9400   12.1830 Br  0  0  0  0  0  0  0  0  0  0  0  0
   12.3180    0.3840    8.1300 C   0  0  0  0  0  0  0  0  0  0  0  0
   14.6280    0.9750    7.9060 C   0  0  0  0  0  1  0  0  0  0  0  0
   12.4950   -0.4550    7.2120 O   0  0  0  0  0  0  0  0  0  0  0  0
   11.1180    0.5240    8.7020 N   0  0  0  0  0  0  0  0  0  0  0  0
   10.2920   -0.0660    8.3970 H   0  0  0  0  0  0  0  0  0  0  0  0
    9.7690    1.5250   10.2070 O   0  0  0  0  0  0  0  0  0  0  0  0
  2  1  1  0  0  0  0
  2  3  1  0  0  0  0
  3  8  1  0  0  0  0
  3  4  1  0  0  0  0
  4  5  1  0  0  0  0
  4  6  2  0  0  0  0
  7  9  1  0  0  0  0
  7  6  1  0  0  0  0
  8  7  2  0  0  0  0
  9 16  1  0  0  0  0
 10 11  1  0  0  0  0
 10  8  1  0  0  0  0
 11 13  1  0  0  0  0
 12 10  2  0  0  0  0
 13 15  2  0  0  0  0
 13  9  1  0  0  0  0
 14 11  1  0  0  0  0
 17 18  1  0  0  0  0
 17  1  1  0  0  0  0
 19 25  1  0  0  0  0
 19 18  1  0  0  0  0
 20 19  1  0  0  0  0
 21 20  2  0  0  0  0
 21 23  1  0  0  0  0
 22 20  1  0  0  0  0
 22 32  2  0  0  0  0
 23 25  2  0  0  0  0
 24 21  1  0  0  0  0
 25 26  1  0  0  0  0
 27 24  1  0  0  0  0
 27 30  1  0  0  0  0
 28 24  1  0  0  0  0
 29 27  2  0  0  0  0
 30 22  1  0  0  0  0
 31 30  1  0  0  0  0
M  END
>  <Pose>
1

>  <Score>
-8.815

$$$$
