/Users/jonathanwahrer/Desktop/Msc/3_Semester/Drug_Design_Praktikum/waehrer_HTS_screening/HTS_experiment/out/docking_results/vina_output/2jam/1444_docked.pdbqt
 OpenBabel03162218253D

 33 36  0  0  0  0  0  0  0  0999 V2000
    9.2740    5.2980   13.0220 N   0  0  0  0  0  0  0  0  0  0  0  0
    8.6610    6.0680   13.9580 C   0  0  0  0  0  0  0  0  0  0  0  0
    7.9540    5.2300   14.7880 O   0  0  0  0  0  0  0  0  0  0  0  0
    9.0640    4.2040   13.1740 H   0  0  0  0  0  0  0  0  0  0  0  0
    8.4930    7.4470   14.3870 C   0  0  0  0  0  2  0  0  0  0  0  0
    7.9930    8.5020   13.6160 N   0  0  0  0  0  0  0  0  0  0  0  0
    8.8080    9.6920   13.2520 C   0  0  0  0  0  2  0  0  0  0  0  0
    7.7990   10.7040   12.7510 C   0  0  0  0  0  2  0  0  0  0  0  0
    7.1590   10.1670   11.4990 C   0  0  0  0  0  2  0  0  0  0  0  0
    6.2880    8.9790   11.8500 C   0  0  0  0  0  2  0  0  0  0  0  0
    6.6130    8.5010   13.2260 C   0  0  0  0  0  0  0  0  0  0  0  0
    5.6340    8.1860   14.0760 C   0  0  0  0  0  0  0  0  0  0  0  0
    4.2570    8.1790   13.6620 N   0  0  0  0  0  0  0  0  0  0  0  0
    5.6250    7.8870   15.4350 N   0  0  0  0  0  0  0  0  0  0  0  0
    3.4400    7.8770   14.7660 N   0  0  0  0  0  0  0  0  0  0  0  0
    3.8160    8.3470   12.7370 H   0  0  0  0  0  0  0  0  0  0  0  0
    4.2740    7.6890   15.8880 C   0  0  0  0  0  0  0  0  0  0  0  0
    2.3930    7.7960   14.7910 H   0  0  0  0  0  0  0  0  0  0  0  0
    3.9690    7.4060   17.0690 O   0  0  0  0  0  0  0  0  0  0  0  0
    6.4530    7.8350   16.0510 H   0  0  0  0  0  0  0  0  0  0  0  0
   10.0220    5.4700   11.8630 C   0  0  0  0  0  0  0  0  0  0  0  0
   10.8440    4.5490   11.2750 N   0  0  0  0  0  0  0  0  0  0  0  0
   11.3290    5.0710   10.1560 N   0  0  0  0  0  0  0  0  0  0  0  0
   10.8760    6.2980    9.9610 C   0  0  0  0  0  3  0  0  0  0  0  0
   10.0320    6.5770   11.0460 C   0  0  0  0  0  3  0  0  0  0  0  0
   11.1200    3.2560   11.7960 C   0  0  0  0  0  2  0  0  0  0  0  0
   11.4000    2.2320   10.7720 C   0  0  0  0  0  0  0  0  0  0  0  0
   12.6540    1.8140   10.4400 C   0  0  0  0  0  0  0  0  0  0  0  0
   14.0440    2.5020   11.2480 Cl  0  0  0  0  0  0  0  0  0  0  0  0
   12.8550    0.8540    9.4740 C   0  0  0  0  0  3  0  0  0  0  0  0
   11.7930    0.2840    8.8100 C   0  0  0  0  0  3  0  0  0  0  0  0
   10.5200    0.7000    9.1380 C   0  0  0  0  0  3  0  0  0  0  0  0
   10.3420    1.6570   10.1040 C   0  0  0  0  0  3  0  0  0  0  0  0
  1  4  1  0  0  0  0
  1  2  1  0  0  0  0
  2  5  1  0  0  0  0
  2  3  2  0  0  0  0
  6  5  1  0  0  0  0
  7  6  1  0  0  0  0
  8  7  1  0  0  0  0
  9 10  1  0  0  0  0
  9  8  1  0  0  0  0
 10 11  1  0  0  0  0
 11  6  1  0  0  0  0
 11 12  2  0  0  0  0
 12 14  1  0  0  0  0
 13 12  1  0  0  0  0
 13 15  1  0  0  0  0
 14 17  1  0  0  0  0
 14 20  1  0  0  0  0
 15 18  1  0  0  0  0
 15 17  1  0  0  0  0
 16 13  1  0  0  0  0
 17 19  2  0  0  0  0
 21  1  1  0  0  0  0
 22 26  1  0  0  0  0
 22 21  1  0  0  0  0
 23 22  1  0  0  0  0
 24 23  2  0  0  0  0
 24 25  1  0  0  0  0
 25 21  2  0  0  0  0
 27 26  1  0  0  0  0
 28 27  1  0  0  0  0
 28 29  1  0  0  0  0
 30 28  2  0  0  0  0
 31 32  2  0  0  0  0
 31 30  1  0  0  0  0
 32 33  1  0  0  0  0
 33 27  2  0  0  0  0
M  END
>  <Pose>
1

>  <Score>
-8.907

$$$$
