/Users/jonathanwahrer/Desktop/Msc/3_Semester/Drug_Design_Praktikum/waehrer_HTS_screening/HTS_experiment/out/docking_results/vina_output/2jam/1466_docked.pdbqt
 OpenBabel03162218253D

 29 32  0  0  0  0  0  0  0  0999 V2000
   12.0830    5.9410   10.9580 N   0  0  0  0  0  0  0  0  0  0  0  0
   11.5580    5.7570    9.7590 N   0  0  0  0  0  0  0  0  0  0  0  0
   10.2500    5.9760    9.7850 N   0  0  0  0  0  0  0  0  0  0  0  0
    9.8840    6.3160   11.0310 C   0  0  0  0  0  0  0  0  0  0  0  0
   11.0460    6.2910   11.7650 C   0  0  0  0  0  3  0  0  0  0  0  0
   13.4860    5.8020   11.3660 C   0  0  0  0  0  2  0  0  0  0  0  0
   13.6560    4.3630   11.7990 C   0  0  0  0  0  2  0  0  0  0  0  0
   13.5240    3.4640   10.6630 N   0  0  0  0  0  0  0  0  0  0  0  0
   12.6010    2.3890   10.7660 C   0  0  0  0  0  0  0  0  0  0  0  0
   11.9200    2.2410   11.8340 O   0  0  0  0  0  0  0  0  0  0  0  0
   14.0850    3.5980    9.7990 H   0  0  0  0  0  0  0  0  0  0  0  0
   12.3880    1.4310    9.6910 C   0  0  0  0  0  0  0  0  0  0  0  0
   13.3600    1.2330    8.7530 C   0  0  0  0  0  3  0  0  0  0  0  0
   13.2600    0.3720    7.7230 N   0  0  0  0  0  0  0  0  0  0  0  0
   12.1250   -0.3540    7.5960 C   0  0  0  0  0  3  0  0  0  0  0  0
   11.1050   -0.2020    8.5080 C   0  0  0  0  0  0  0  0  0  0  0  0
    9.5210   -1.2470    8.2900 Br  0  0  0  0  0  0  0  0  0  0  0  0
   11.2260    0.6950    9.5700 C   0  0  0  0  0  3  0  0  0  0  0  0
    8.5510    6.6410   11.5060 C   0  0  0  0  0  0  0  0  0  0  0  0
    8.1930    7.6860   12.2740 N   0  0  0  0  0  0  0  0  0  0  0  0
    6.8700    7.6390   12.5000 C   0  0  0  0  0  0  0  0  0  0  0  0
    6.4290    6.5480   11.8550 N   0  0  0  0  0  0  0  0  0  0  0  0
    7.4450    5.9810   11.2800 O   0  0  0  0  0  0  0  0  0  0  0  0
    6.0660    8.5930   13.2940 C   0  0  0  0  0  0  0  0  0  0  0  0
    6.0750    9.9300   12.9720 C   0  0  0  0  0  3  0  0  0  0  0  0
    5.3460   10.8070   13.6880 N   0  0  0  0  0  0  0  0  0  0  0  0
    4.5810   10.4430   14.7370 C   0  0  0  0  0  3  0  0  0  0  0  0
    4.5780    9.0980   15.0520 C   0  0  0  0  0  3  0  0  0  0  0  0
    5.3050    8.1720   14.3500 C   0  0  0  0  0  3  0  0  0  0  0  0
  1  6  1  0  0  0  0
  1  5  1  0  0  0  0
  2  3  2  0  0  0  0
  2  1  1  0  0  0  0
  3  4  1  0  0  0  0
  4 19  1  0  0  0  0
  4  5  2  0  0  0  0
  6  7  1  0  0  0  0
  8  9  1  0  0  0  0
  8  7  1  0  0  0  0
  9 10  2  0  0  0  0
 11  8  1  0  0  0  0
 12  9  1  0  0  0  0
 13 12  2  0  0  0  0
 14 13  1  0  0  0  0
 15 14  2  0  0  0  0
 15 16  1  0  0  0  0
 16 18  2  0  0  0  0
 17 16  1  0  0  0  0
 18 12  1  0  0  0  0
 19 20  2  0  0  0  0
 20 21  1  0  0  0  0
 21 24  1  0  0  0  0
 22 21  2  0  0  0  0
 23 19  1  0  0  0  0
 23 22  1  0  0  0  0
 24 29  1  0  0  0  0
 25 24  2  0  0  0  0
 25 26  1  0  0  0  0
 26 27  2  0  0  0  0
 27 28  1  0  0  0  0
 29 28  2  0  0  0  0
M  END
>  <Pose>
1

>  <Score>
-8.757

$$$$
