/Users/jonathanwahrer/Desktop/Msc/3_Semester/Drug_Design_Praktikum/waehrer_HTS_screening/HTS_experiment/out/docking_results/vina_output/2jam/1477_docked.pdbqt
 OpenBabel03162218263D

 35 39  0  0  1  0  0  0  0  0999 V2000
    7.6390    8.0350   14.1020 C   0  0  2  0  0  3  0  0  0  0  0  0
    7.9530    6.9030   13.3480 N   0  0  0  0  0  0  0  0  0  0  0  0
    7.1650    6.9740   12.1210 C   0  0  0  0  0  0  0  0  0  0  0  0
    7.2470    6.2300   11.1120 O   0  0  0  0  0  0  0  0  0  0  0  0
    6.2150    8.0720   12.2140 C   0  0  0  0  0  0  0  0  0  0  0  0
    5.3760    8.4250   11.3190 O   0  0  0  0  0  0  0  0  0  0  0  0
    6.4210    8.6730   13.5040 C   0  0  2  0  0  3  0  0  0  0  0  0
    5.6920    9.6400   14.0230 C   0  0  2  0  0  3  0  0  0  0  0  0
    5.9450   10.9300   13.5000 O   0  0  0  0  0  1  0  0  0  0  0  0
    4.6870    9.4970   15.0590 C   0  0  0  0  0  0  0  0  0  0  0  0
    4.7410    9.5770   16.3970 N   0  0  0  0  0  0  0  0  0  0  0  0
    3.5580    9.3280   16.9780 C   0  0  0  0  0  0  0  0  0  0  0  0
    5.8120    9.8840   17.1780 C   0  0  0  0  0  3  0  0  0  0  0  0
    2.6970    9.0750   15.9680 N   0  0  0  0  0  0  0  0  0  0  0  0
    3.3820    9.3720   18.3480 C   0  0  0  0  0  3  0  0  0  0  0  0
    3.3380    9.1680   14.8000 C   0  0  0  0  0  0  0  0  0  0  0  0
    2.7680    8.9680   13.4610 C   0  0  0  0  0  1  0  0  0  0  0  0
    4.4530    9.6780   19.1430 C   0  0  0  0  0  3  0  0  0  0  0  0
    5.6720    9.9360   18.5450 C   0  0  0  0  0  3  0  0  0  0  0  0
    8.6230    9.0180   14.5100 C   0  0  0  0  0  0  0  0  0  0  0  0
    8.7740    9.3530   15.8630 C   0  0  0  0  0  3  0  0  0  0  0  0
    9.7420   10.2460   16.2670 C   0  0  0  0  0  0  0  0  0  0  0  0
    9.9440   10.6920   18.1000 Br  0  0  0  0  0  0  0  0  0  0  0  0
   10.5910   10.8390   15.3550 C   0  0  0  0  0  3  0  0  0  0  0  0
   10.4720   10.5340   14.0110 C   0  0  0  0  0  3  0  0  0  0  0  0
    9.5010    9.6440   13.6540 C   0  0  0  0  0  3  0  0  0  0  0  0
    8.7780    5.7990   13.6790 C   0  0  0  0  0  2  0  0  0  0  0  0
   10.1100    5.6380   13.1010 C   0  0  0  0  0  2  0  0  0  0  0  0
   10.2740    5.2360   11.7350 N   0  0  0  0  0  4  0  0  0  0  0  0
   10.8350    6.3840   11.0240 C   0  0  0  0  0  2  0  0  0  0  0  0
   12.3300    6.4050   11.0450 C   0  0  0  0  0  2  0  0  0  0  0  0
   12.8330    5.4800   11.9710 O   0  0  0  0  0  0  0  0  0  0  0  0
   12.4800    4.2420   11.4810 C   0  0  0  0  0  2  0  0  0  0  0  0
   11.0150    4.0300   11.5750 C   0  0  0  0  0  2  0  0  0  0  0  0
    9.3370    5.1020   11.2510 H   0  0  0  0  0  0  0  0  0  0  0  0
  1 20  1  6  0  0  0
  2 27  1  0  0  0  0
  2  1  1  0  0  0  0
  3  5  1  0  0  0  0
  3  2  1  0  0  0  0
  4  3  2  0  0  0  0
  5  7  1  0  0  0  0
  6  5  2  0  0  0  0
  7  8  1  6  0  0  0
  7  1  1  0  0  0  0
  8  9  1  1  0  0  0
  8 10  1  0  0  0  0
 10 11  1  0  0  0  0
 11 12  1  0  0  0  0
 11 13  1  0  0  0  0
 12 15  1  0  0  0  0
 13 19  2  0  0  0  0
 14 12  2  0  0  0  0
 15 18  2  0  0  0  0
 16 10  2  0  0  0  0
 16 14  1  0  0  0  0
 17 16  1  0  0  0  0
 19 18  1  0  0  0  0
 20 21  1  0  0  0  0
 21 22  2  0  0  0  0
 22 23  1  0  0  0  0
 24 22  1  0  0  0  0
 25 24  2  0  0  0  0
 26 25  1  0  0  0  0
 26 20  2  0  0  0  0
 28 27  1  0  0  0  0
 29 28  1  0  0  0  0
 30 31  1  0  0  0  0
 30 29  1  0  0  0  0
 31 32  1  0  0  0  0
 33 34  1  0  0  0  0
 33 32  1  0  0  0  0
 34 29  1  0  0  0  0
 35 29  1  0  0  0  0
M  END
>  <Pose>
1

>  <Score>
-8.037

$$$$
