/Users/jonathanwahrer/Desktop/Msc/3_Semester/Drug_Design_Praktikum/waehrer_HTS_screening/HTS_experiment/out/docking_results/vina_output/2jam/1487_docked.pdbqt
 OpenBabel03162218273D

 29 32  0  0  1  0  0  0  0  0999 V2000
    5.3290    7.2750   14.6230 N   0  0  0  0  0  4  0  0  0  0  0  0
    6.1260    6.1510   14.1980 C   0  0  0  0  0  2  0  0  0  0  0  0
    6.7440    6.3920   12.8850 C   0  0  2  0  0  0  0  0  0  0  0  0
    6.2540    7.6900   12.5170 N   0  0  0  0  0  0  0  0  0  0  0  0
    6.1080    8.3500   11.2410 C   0  0  0  0  0  3  0  0  0  0  0  0
    6.8820    9.6200   11.0920 C   0  0  0  0  0  3  0  0  0  0  0  0
    7.4920   10.1430   12.3460 C   0  0  0  0  0  2  0  0  0  0  0  0
    6.3650   10.7650   13.2000 C   0  0  0  0  0  2  0  0  0  0  0  0
    5.8680    9.6080   14.0490 C   0  0  0  0  0  3  0  0  0  0  0  0
    5.8230    8.3300   13.7490 C   0  0  0  0  0  0  0  0  0  0  0  0
    4.3270    7.2240   14.4720 H   0  0  0  0  0  0  0  0  0  0  0  0
    6.2070    5.4790   11.9350 O   0  0  0  0  0  0  0  0  0  0  0  0
    5.4540    5.0030   12.4180 H   0  0  0  0  0  0  0  0  0  0  0  0
    8.1750    6.2430   12.7860 C   0  0  0  0  0  0  0  0  0  0  0  0
    8.8300    5.8780   11.6100 C   0  0  0  0  0  3  0  0  0  0  0  0
   10.2100    5.7590   11.5150 C   0  0  0  0  0  0  0  0  0  0  0  0
   10.9820    6.0190   12.6470 C   0  0  0  0  0  3  0  0  0  0  0  0
   10.3800    6.3780   13.8190 C   0  0  0  0  0  3  0  0  0  0  0  0
    8.9820    6.4870   13.8750 C   0  0  0  0  0  3  0  0  0  0  0  0
   10.8060    5.3840   10.2890 N   0  0  0  0  0  0  0  0  0  0  0  0
   10.1830    5.5890    9.2000 O   0  0  0  0  0  0  0  0  0  0  0  0
   12.0160    4.8060   10.1980 O   0  0  0  0  0  0  0  0  0  0  0  0
    5.5840    7.7410   15.9400 C   0  0  0  0  0  0  0  0  0  0  0  0
    4.6160    8.3130   16.7270 C   0  0  0  0  0  3  0  0  0  0  0  0
    4.8970    8.8680   17.9740 C   0  0  0  0  0  0  0  0  0  0  0  0
    3.6120    9.5570   18.9550 Cl  0  0  0  0  0  0  0  0  0  0  0  0
    6.1890    8.8540   18.4600 C   0  0  0  0  0  3  0  0  0  0  0  0
    7.1840    8.2960   17.7030 C   0  0  0  0  0  3  0  0  0  0  0  0
    6.8830    7.7480   16.4610 C   0  0  0  0  0  3  0  0  0  0  0  0
  1 23  1  0  0  0  0
  2  1  1  0  0  0  0
  3 12  1  6  0  0  0
  3  2  1  0  0  0  0
  4  3  1  0  0  0  0
  4 10  1  0  0  0  0
  5  4  1  0  0  0  0
  6  5  2  0  0  0  0
  6  7  1  0  0  0  0
  7  8  1  0  0  0  0
  8  9  1  0  0  0  0
 10  9  2  0  0  0  0
 10  1  1  0  0  0  0
 11  1  1  0  0  0  0
 12 13  1  0  0  0  0
 14  3  1  0  0  0  0
 14 19  1  0  0  0  0
 15 14  2  0  0  0  0
 16 15  1  0  0  0  0
 16 17  2  0  0  0  0
 17 18  1  0  0  0  0
 18 19  2  0  0  0  0
 20 16  1  0  0  0  0
 21 20  2  0  0  0  0
 22 20  2  0  0  0  0
 23 29  2  0  0  0  0
 23 24  1  0  0  0  0
 24 25  2  0  0  0  0
 25 27  1  0  0  0  0
 25 26  1  0  0  0  0
 28 27  2  0  0  0  0
 29 28  1  0  0  0  0
M  END
>  <Pose>
1

>  <Score>
-7.820

$$$$
