/Users/jonathanwahrer/Desktop/Msc/3_Semester/Drug_Design_Praktikum/waehrer_HTS_screening/HTS_experiment/out/docking_results/vina_output/2jam/1507_docked.pdbqt
 OpenBabel03162218283D

 32 35  0  0  1  0  0  0  0  0999 V2000
   11.5360    7.4480   13.0030 C   0  0  0  0  0  0  0  0  0  0  0  0
   11.4700    6.9870   11.7710 C   0  0  0  0  0  0  0  0  0  0  0  0
   12.5450    6.3900   10.9140 C   0  0  2  0  0  3  0  0  0  0  0  0
   11.8650    5.3110   10.2950 N   0  0  0  0  0  0  0  0  0  0  0  0
   10.5810    5.8910    9.9110 C   0  0  0  0  0  0  0  0  0  0  0  0
    9.8350    5.5440    8.9590 O   0  0  0  0  0  0  0  0  0  0  0  0
   10.3250    6.9680   10.8610 C   0  0  0  0  0  0  0  0  0  0  0  0
    9.3360    7.7690   10.9470 O   0  0  0  0  0  0  0  0  0  0  0  0
   12.7160    7.4460   13.7260 O   0  0  0  0  0  1  0  0  0  0  0  0
   10.3590    7.9920   13.6700 C   0  0  0  0  0  0  0  0  0  0  0  0
    9.4370    7.1770   14.3000 C   0  0  0  0  0  3  0  0  0  0  0  0
    8.3440    7.7600   14.8790 C   0  0  0  0  0  3  0  0  0  0  0  0
    8.1020    9.1150   14.8750 C   0  0  0  0  0  0  0  0  0  0  0  0
    6.5400    9.8590   15.7130 Br  0  0  0  0  0  0  0  0  0  0  0  0
    9.0190    9.9330   14.2480 C   0  0  0  0  0  3  0  0  0  0  0  0
   10.1410    9.3500   13.6520 C   0  0  0  0  0  3  0  0  0  0  0  0
   13.8060    6.2470   11.5620 C   0  0  0  0  0  0  0  0  0  0  0  0
   14.0580    5.1150   12.2970 C   0  0  0  0  0  3  0  0  0  0  0  0
   15.2550    4.8970   12.9360 C   0  0  0  0  0  3  0  0  0  0  0  0
   16.2740    5.8340   12.8590 C   0  0  0  0  0  0  0  0  0  0  0  0
   16.0020    6.9660   12.1150 C   0  0  0  0  0  3  0  0  0  0  0  0
   17.8000    5.5700   13.6660 Cl  0  0  0  0  0  0  0  0  0  0  0  0
   14.8000    7.1760   11.4780 C   0  0  0  0  0  3  0  0  0  0  0  0
   12.2130    3.9410    9.9710 C   0  0  0  0  0  2  0  0  0  0  0  0
   11.3000    2.8760   10.4400 C   0  0  0  0  0  2  0  0  0  0  0  0
   11.9090    1.5420   10.4850 N   0  0  0  0  0  4  0  0  0  0  0  0
   13.2580    1.5990   10.0350 C   0  0  0  0  0  2  0  0  0  0  0  0
   13.5750    0.8650    8.7790 C   0  0  0  0  0  2  0  0  0  0  0  0
   12.7720   -0.2260    8.5050 O   0  0  0  0  0  0  0  0  0  0  0  0
   11.4670    0.3040    8.3850 C   0  0  0  0  0  2  0  0  0  0  0  0
   11.0400    0.6560    9.7670 C   0  0  0  0  0  2  0  0  0  0  0  0
   11.8740    1.2710   11.5150 H   0  0  0  0  0  0  0  0  0  0  0  0
  1 10  1  0  0  0  0
  1  9  1  0  0  0  0
  2  1  2  0  0  0  0
  3 17  1  1  0  0  0
  3  2  1  0  0  0  0
  4  3  1  0  0  0  0
  5  4  1  0  0  0  0
  5  7  1  0  0  0  0
  6  5  2  0  0  0  0
  7  8  2  0  0  0  0
  7  2  1  0  0  0  0
 10 11  1  0  0  0  0
 11 12  2  0  0  0  0
 13 12  1  0  0  0  0
 13 14  1  0  0  0  0
 15 13  2  0  0  0  0
 16 10  2  0  0  0  0
 16 15  1  0  0  0  0
 17 18  1  0  0  0  0
 18 19  2  0  0  0  0
 20 19  1  0  0  0  0
 20 22  1  0  0  0  0
 21 20  2  0  0  0  0
 23 17  2  0  0  0  0
 23 21  1  0  0  0  0
 24  4  1  0  0  0  0
 24 25  1  0  0  0  0
 25 26  1  0  0  0  0
 26 32  1  0  0  0  0
 27 26  1  0  0  0  0
 28 27  1  0  0  0  0
 29 28  1  0  0  0  0
 30 29  1  0  0  0  0
 30 31  1  0  0  0  0
 31 26  1  0  0  0  0
M  END
>  <Pose>
1

>  <Score>
-8.396

$$$$
