/Users/jonathanwahrer/Desktop/Msc/3_Semester/Drug_Design_Praktikum/waehrer_HTS_screening/HTS_experiment/out/docking_results/vina_output/2jam/1516_docked.pdbqt
 OpenBabel03162218283D

 30 33  0  0  1  0  0  0  0  0999 V2000
   10.5350    4.9400   11.8650 C   0  0  0  0  0  0  0  0  0  0  0  0
   10.9180    4.1870   12.8700 O   0  0  0  0  0  0  0  0  0  0  0  0
    9.6100    5.9150   12.2090 N   0  0  0  0  0  0  0  0  0  0  0  0
    9.0710    6.8740   11.3010 C   0  0  0  0  0  2  0  0  0  0  0  0
    8.3540    7.9640   12.1300 C   0  0  0  0  0  2  0  0  0  0  0  0
    7.1350    7.3010   12.7430 C   0  0  2  0  0  0  0  0  0  0  0  0
    6.2970    6.8330   11.7180 N   0  0  0  0  0  0  0  0  0  0  0  0
    5.3580    7.6800   11.1170 C   0  0  0  0  0  2  0  0  0  0  0  0
    4.6720    8.6710   11.9800 C   0  0  0  0  0  2  0  0  0  0  0  0
    5.3480    8.9020   13.2730 C   0  0  0  0  0  0  0  0  0  0  0  0
    4.9750    9.7310   14.2680 N   0  0  0  0  0  0  0  0  0  0  0  0
    5.8730    9.6280   15.2520 C   0  0  0  0  0  3  0  0  0  0  0  0
    6.8130    8.7330   14.8740 N   0  0  0  0  0  0  0  0  0  0  0  0
    6.5020    8.2730   13.6480 C   0  0  0  0  0  0  0  0  0  0  0  0
    7.6250    6.0760   13.5350 C   0  0  0  0  0  2  0  0  0  0  0  0
    9.1250    6.0060   13.5950 C   0  0  0  0  0  2  0  0  0  0  0  0
    6.4850    5.9320   11.2950 H   0  0  0  0  0  0  0  0  0  0  0  0
    7.6350    8.4540   15.4410 H   0  0  0  0  0  0  0  0  0  0  0  0
   11.1660    4.5990   10.5910 C   0  0  0  0  0  2  0  0  0  0  0  0
   11.7330    3.3590   10.4650 N   0  0  0  0  0  0  0  0  0  0  0  0
   12.2960    2.1320   10.3410 C   0  0  0  0  0  0  0  0  0  0  0  0
   13.4260    1.7650   10.7550 O   0  0  0  0  0  0  0  0  0  0  0  0
   12.8700    3.8440   11.0710 H   0  0  0  0  0  0  0  0  0  0  0  0
   11.5070    1.0700    9.6360 C   0  0  0  0  0  0  0  0  0  0  0  0
   10.1490    1.0680    9.7590 C   0  0  0  0  0  3  0  0  0  0  0  0
    9.4010    0.0830    9.1070 C   0  0  0  0  0  3  0  0  0  0  0  0
   10.0580   -0.8560    8.3620 C   0  0  0  0  0  0  0  0  0  0  0  0
    9.1150   -2.0960    7.5480 Cl  0  0  0  0  0  0  0  0  0  0  0  0
   11.4170   -0.8540    8.2390 C   0  0  0  0  0  3  0  0  0  0  0  0
   12.1630    0.1430    8.8990 C   0  0  0  0  0  3  0  0  0  0  0  0
  1  3  1  0  0  0  0
  1  2  2  0  0  0  0
  3 16  1  0  0  0  0
  4  5  1  0  0  0  0
  4  3  1  0  0  0  0
  6  5  1  6  0  0  0
  6 15  1  0  0  0  0
  6 14  1  0  0  0  0
  7  6  1  0  0  0  0
  8  7  1  0  0  0  0
  8  9  1  0  0  0  0
  9 10  1  0  0  0  0
 10 14  2  0  0  0  0
 10 11  1  0  0  0  0
 11 12  2  0  0  0  0
 13 12  1  0  0  0  0
 13 18  1  0  0  0  0
 14 13  1  0  0  0  0
 15 16  1  0  0  0  0
 17  7  1  0  0  0  0
 19  1  1  0  0  0  0
 20 19  1  0  0  0  0
 20 23  1  0  0  0  0
 21 20  1  0  0  0  0
 21 22  2  0  0  0  0
 24 25  1  0  0  0  0
 24 21  1  0  0  0  0
 26 25  2  0  0  0  0
 27 26  1  0  0  0  0
 28 27  1  0  0  0  0
 29 27  2  0  0  0  0
 29 30  1  0  0  0  0
 30 24  2  0  0  0  0
M  END
>  <Pose>
1

>  <Score>
-9.467

$$$$
