/Users/jonathanwahrer/Desktop/Msc/3_Semester/Drug_Design_Praktikum/waehrer_HTS_screening/HTS_experiment/out/docking_results/vina_output/2jam/1518_docked.pdbqt
 OpenBabel03162218283D

 31 34  0  0  1  0  0  0  0  0999 V2000
   10.7890    5.1140   11.8320 C   0  0  0  0  0  0  0  0  0  0  0  0
   11.1680    4.1710   12.5680 O   0  0  0  0  0  0  0  0  0  0  0  0
    9.6600    5.8890   12.1860 N   0  0  0  0  0  0  0  0  0  0  0  0
    9.1730    6.9880   11.3780 C   0  0  0  0  0  2  0  0  0  0  0  0
    8.5830    8.0280   12.3200 C   0  0  0  0  0  2  0  0  0  0  0  0
    7.3750    7.4520   13.0570 C   0  0  1  0  0  0  0  0  0  0  0  0
    7.3730    8.0360   14.3670 N   0  0  0  0  0  0  0  0  0  0  0  0
    6.0690    7.9670   14.9910 C   0  0  0  0  0  2  0  0  0  0  0  0
    5.1380    8.9450   14.2780 C   0  0  0  0  0  2  0  0  0  0  0  0
    5.0760    8.5000   12.8560 C   0  0  0  0  0  0  0  0  0  0  0  0
    4.1120    8.6480   11.8990 N   0  0  0  0  0  0  0  0  0  0  0  0
    4.5540    8.0580   10.7740 C   0  0  0  0  0  3  0  0  0  0  0  0
    5.7730    7.5500   11.0250 N   0  0  0  0  0  0  0  0  0  0  0  0
    6.1350    7.8060   12.3170 C   0  0  0  0  0  0  0  0  0  0  0  0
    7.4920    5.9480   13.1840 C   0  0  0  0  0  2  0  0  0  0  0  0
    8.9340    5.5990   13.4070 C   0  0  0  0  0  2  0  0  0  0  0  0
    8.0890    7.6030   14.9830 H   0  0  0  0  0  0  0  0  0  0  0  0
    3.2150    9.1480   12.0930 H   0  0  0  0  0  0  0  0  0  0  0  0
   11.5530    5.3830   10.5930 C   0  0  0  0  0  2  0  0  0  0  0  0
   12.4340    4.2420   10.1950 C   0  0  0  0  0  2  0  0  0  0  0  0
   11.6280    3.1800    9.6250 N   0  0  0  0  0  0  0  0  0  0  0  0
   11.8990    1.8220    9.7900 C   0  0  0  0  0  0  0  0  0  0  0  0
   12.8930    1.4550   10.4670 O   0  0  0  0  0  0  0  0  0  0  0  0
   10.8020    3.5020    9.0660 H   0  0  0  0  0  0  0  0  0  0  0  0
   11.0650    0.7780    9.2000 C   0  0  0  0  0  0  0  0  0  0  0  0
    9.7420    0.6110    9.5450 C   0  0  0  0  0  3  0  0  0  0  0  0
    9.0010   -0.3990    8.9500 C   0  0  0  0  0  3  0  0  0  0  0  0
    9.5590   -1.2540    8.0100 C   0  0  0  0  0  0  0  0  0  0  0  0
    8.5510   -2.5040    7.3090 Cl  0  0  0  0  0  0  0  0  0  0  0  0
   10.8830   -1.0970    7.6570 C   0  0  0  0  0  3  0  0  0  0  0  0
   11.5990   -0.0950    8.2530 C   0  0  0  0  0  3  0  0  0  0  0  0
  1  3  1  0  0  0  0
  1  2  2  0  0  0  0
  3 16  1  0  0  0  0
  4  3  1  0  0  0  0
  4  5  1  0  0  0  0
  6  5  1  6  0  0  0
  6 15  1  0  0  0  0
  6  7  1  0  0  0  0
  7 17  1  0  0  0  0
  7  8  1  0  0  0  0
  9  8  1  0  0  0  0
 10  9  1  0  0  0  0
 11 18  1  0  0  0  0
 11 10  1  0  0  0  0
 12 13  2  0  0  0  0
 12 11  1  0  0  0  0
 13 14  1  0  0  0  0
 14 10  2  0  0  0  0
 14  6  1  0  0  0  0
 15 16  1  0  0  0  0
 19  1  1  0  0  0  0
 20 19  1  0  0  0  0
 21 22  1  0  0  0  0
 21 20  1  0  0  0  0
 22 23  2  0  0  0  0
 24 21  1  0  0  0  0
 25 26  1  0  0  0  0
 25 22  1  0  0  0  0
 27 26  2  0  0  0  0
 28 27  1  0  0  0  0
 29 28  1  0  0  0  0
 30 28  2  0  0  0  0
 30 31  1  0  0  0  0
 31 25  2  0  0  0  0
M  END
>  <Pose>
1

>  <Score>
-9.865

$$$$
