/Users/jonathanwahrer/Desktop/Msc/3_Semester/Drug_Design_Praktikum/waehrer_HTS_screening/HTS_experiment/out/docking_results/vina_output/2jam/1521_docked.pdbqt
 OpenBabel03162218283D

 24 27  0  0  1  0  0  0  0  0999 V2000
   12.4890   -1.0120    7.2520 Cl  0  0  0  0  0  0  0  0  0  0  0  0
   11.5960   -0.0990    8.4500 C   0  0  0  0  0  0  0  0  0  0  0  0
   12.2700    0.7560    9.2870 C   0  0  0  0  0  0  0  0  0  0  0  0
   13.5570    1.1080    9.4400 N   0  0  0  0  0  0  0  0  0  0  0  0
   13.7100    2.0100   10.4280 C   0  0  0  0  0  0  0  0  0  0  0  0
   12.4420    2.2340   10.9210 C   0  0  0  0  0  0  0  0  0  0  0  0
   11.5360    1.4640   10.2250 C   0  0  0  0  0  0  0  0  0  0  0  0
   10.1690    1.2890   10.2870 C   0  0  0  0  0  3  0  0  0  0  0  0
    9.4720    0.4410    9.4620 C   0  0  0  0  0  3  0  0  0  0  0  0
   10.2130   -0.2690    8.5220 C   0  0  0  0  0  3  0  0  0  0  0  0
   12.3490    3.2100   12.0350 C   0  0  0  0  0  2  0  0  0  0  0  0
   13.0610    4.3770   11.5630 N   0  0  0  0  0  0  0  0  0  0  0  0
   14.4500    4.1980   11.4000 C   0  0  0  0  0  2  0  0  0  0  0  0
   14.8030    2.7640   11.0770 C   0  0  0  0  0  2  0  0  0  0  0  0
   14.3810    0.7490    8.8790 H   0  0  0  0  0  0  0  0  0  0  0  0
   12.5860    5.5990   12.0570 C   0  0  0  0  0  2  0  0  0  0  0  0
   11.5060    6.1990   11.2090 C   0  0  1  0  0  0  0  0  0  0  0  0
   11.4720    5.6620    9.8200 C   0  0  0  0  0  2  0  0  0  0  0  0
   10.1870    5.1280    9.5250 N   0  0  0  0  0  0  0  0  0  0  0  0
    9.3610    5.2250   10.6840 C   0  0  0  0  0  3  0  0  0  0  0  0
    9.7390    5.5440    8.6750 H   0  0  0  0  0  0  0  0  0  0  0  0
   10.1720    5.8130   11.7890 C   0  0  0  0  0  3  0  0  0  0  0  0
   11.5660    7.5980   11.2330 O   0  0  0  0  0  0  0  0  0  0  0  0
   10.6420    7.9060   11.4290 H   0  0  0  0  0  0  0  0  0  0  0  0
  1  2  1  0  0  0  0
  2 10  2  0  0  0  0
  2  3  1  0  0  0  0
  3  4  1  0  0  0  0
  3  7  2  0  0  0  0
  4  5  1  0  0  0  0
  5  6  2  0  0  0  0
  5 14  1  0  0  0  0
  6 11  1  0  0  0  0
  7  8  1  0  0  0  0
  7  6  1  0  0  0  0
  9  8  2  0  0  0  0
 10  9  1  0  0  0  0
 12 11  1  0  0  0  0
 12 16  1  0  0  0  0
 13 12  1  0  0  0  0
 14 13  1  0  0  0  0
 15  4  1  0  0  0  0
 17 23  1  0  0  0  0
 17 22  1  0  0  0  0
 17 16  1  1  0  0  0
 18 17  1  0  0  0  0
 19 18  1  0  0  0  0
 19 20  1  0  0  0  0
 20 22  2  0  0  0  0
 21 19  1  0  0  0  0
 23 24  1  0  0  0  0
M  END
>  <Pose>
1

>  <Score>
-7.983

$$$$
