/Users/jonathanwahrer/Desktop/Msc/3_Semester/Drug_Design_Praktikum/waehrer_HTS_screening/HTS_experiment/out/docking_results/vina_output/2jam/1523_docked.pdbqt
 OpenBabel03162218293D

 25 28  0  0  0  0  0  0  0  0999 V2000
   10.4750    7.1890   12.1900 C   0  0  0  0  0  0  0  0  0  0  0  0
   11.1210    8.2320   11.8210 O   0  0  0  0  0  0  0  0  0  0  0  0
    9.8150    7.1620   13.4190 N   0  0  0  0  0  0  0  0  0  0  0  0
    9.8650    8.3120   14.2800 C   0  0  0  0  0  2  0  0  0  0  0  0
    8.4820    8.8940   14.3770 C   0  0  0  0  0  2  0  0  0  0  0  0
    7.5320    7.8370   14.5780 N   0  0  0  0  0  0  0  0  0  0  0  0
    8.1000    6.5450   15.0090 C   0  0  0  0  0  2  0  0  0  0  0  0
    9.0550    6.0440   13.9340 C   0  0  0  0  0  2  0  0  0  0  0  0
    6.1480    7.8870   14.4090 C   0  0  0  0  0  0  0  0  0  0  0  0
    5.5220    6.7880   14.6990 O   0  0  0  0  0  0  0  0  0  0  0  0
   10.4960    6.0640   11.2270 C   0  0  0  0  0  0  0  0  0  0  0  0
    9.8810    5.9930   10.0380 N   0  0  0  0  0  0  0  0  0  0  0  0
   10.1430    4.8310    9.4830 N   0  0  0  0  0  0  0  0  0  0  0  0
   10.9320    4.1000   10.2780 N   0  0  0  0  0  0  0  0  0  0  0  0
   11.1530    4.8630   11.3610 C   0  0  0  0  0  3  0  0  0  0  0  0
   11.4160    2.7970   10.0030 C   0  0  0  0  0  0  0  0  0  0  0  0
   10.5540    1.7970    9.6220 C   0  0  0  0  0  3  0  0  0  0  0  0
   11.0530    0.5140    9.3540 C   0  0  0  0  0  0  0  0  0  0  0  0
    9.8710   -0.8860    8.8260 Br  0  0  0  0  0  0  0  0  0  0  0  0
   12.3910    0.2440    9.4660 C   0  0  0  0  0  3  0  0  0  0  0  0
   13.2610    1.2370    9.8450 C   0  0  0  0  0  3  0  0  0  0  0  0
   12.7530    2.5150   10.1100 C   0  0  0  0  0  3  0  0  0  0  0  0
    5.2890    8.9750   13.9600 C   0  0  0  0  0  3  0  0  0  0  0  0
    4.5870    8.9990   12.6760 C   0  0  0  0  0  2  0  0  0  0  0  0
    3.8060    8.9380   13.9860 C   0  0  0  0  0  2  0  0  0  0  0  0
  1  3  1  0  0  0  0
  2  1  2  0  0  0  0
  3  8  1  0  0  0  0
  3  4  1  0  0  0  0
  4  5  1  0  0  0  0
  5  6  1  0  0  0  0
  6  7  1  0  0  0  0
  8  7  1  0  0  0  0
  9  6  1  0  0  0  0
  9 10  2  0  0  0  0
 11 15  2  0  0  0  0
 11  1  1  0  0  0  0
 12 11  1  0  0  0  0
 13 12  2  0  0  0  0
 13 14  1  0  0  0  0
 14 15  1  0  0  0  0
 16 22  1  0  0  0  0
 16 14  1  0  0  0  0
 17 16  2  0  0  0  0
 18 20  2  0  0  0  0
 18 17  1  0  0  0  0
 19 18  1  0  0  0  0
 20 21  1  0  0  0  0
 21 22  2  0  0  0  0
 23 25  1  0  0  0  0
 23  9  1  0  0  0  0
 24 23  1  0  0  0  0
 24 25  1  0  0  0  0
M  END
>  <Pose>
1

>  <Score>
-8.499

$$$$
