/Users/jonathanwahrer/Desktop/Msc/3_Semester/Drug_Design_Praktikum/waehrer_HTS_screening/HTS_experiment/out/docking_results/vina_output/2jam/1525_docked.pdbqt
 OpenBabel03162218293D

 26 29  0  0  1  0  0  0  0  0999 V2000
   11.8420    4.5210   11.0580 N   0  0  0  0  0  0  0  0  0  0  0  0
   10.9770    4.3130   12.1680 C   0  0  0  0  0  0  0  0  0  0  0  0
   11.0770    3.3350   12.9480 O   0  0  0  0  0  0  0  0  0  0  0  0
   10.0270    5.4190   12.1760 C   0  0  2  0  0  3  0  0  0  0  0  0
    9.9120    5.7830   10.7110 C   0  0  0  0  0  2  0  0  0  0  0  0
   11.1890    5.3640   10.1010 C   0  0  0  0  0  0  0  0  0  0  0  0
   11.6360    5.6730    8.9650 O   0  0  0  0  0  0  0  0  0  0  0  0
   10.3450    6.5190   12.9940 N   0  0  2  0  0  0  0  0  0  0  0  0
    9.9810    6.4630   14.3520 C   0  0  0  0  0  2  0  0  0  0  0  0
    8.6510    7.2090   14.5330 C   0  0  0  0  0  2  0  0  0  0  0  0
    8.4030    8.0580   13.3800 N   0  0  0  0  0  0  0  0  0  0  0  0
    9.4760    8.7350   12.6790 C   0  0  0  0  0  2  0  0  0  0  0  0
   10.6140    7.7710   12.4410 C   0  0  0  0  0  2  0  0  0  0  0  0
    7.0740    8.2450   12.8740 C   0  0  0  0  0  0  0  0  0  0  0  0
    6.7350    7.8220   11.6380 N   0  0  0  0  0  0  0  0  0  0  0  0
    5.4800    7.9860   11.1750 C   0  0  0  0  0  3  0  0  0  0  0  0
    4.4940    8.5900   11.9470 C   0  0  0  0  0  3  0  0  0  0  0  0
    4.8490    9.0200   13.2130 C   0  0  0  0  0  3  0  0  0  0  0  0
    6.1170    8.8280   13.6180 N   0  0  0  0  0  0  0  0  0  0  0  0
   13.1540    3.9680   10.9500 C   0  0  0  0  0  0  0  0  0  0  0  0
   13.4720    2.9360   10.0920 C   0  0  0  0  0  3  0  0  0  0  0  0
   14.7680    2.4330   10.0200 C   0  0  0  0  0  0  0  0  0  0  0  0
   15.2170    1.0090    8.8400 Br  0  0  0  0  0  0  0  0  0  0  0  0
   15.7700    2.9580   10.8090 C   0  0  0  0  0  3  0  0  0  0  0  0
   15.4740    3.9860   11.6700 C   0  0  0  0  0  3  0  0  0  0  0  0
   14.1950    4.4670   11.7260 C   0  0  0  0  0  3  0  0  0  0  0  0
  1  2  1  0  0  0  0
  2  4  1  0  0  0  0
  2  3  2  0  0  0  0
  4  5  1  6  0  0  0
  4  8  1  0  0  0  0
  6  5  1  0  0  0  0
  6  1  1  0  0  0  0
  7  6  2  0  0  0  0
  8 13  1  6  0  0  0
  8  9  1  0  0  0  0
  9 10  1  0  0  0  0
 11 10  1  0  0  0  0
 12 11  1  0  0  0  0
 13 12  1  0  0  0  0
 14 11  1  0  0  0  0
 14 19  1  0  0  0  0
 15 14  2  0  0  0  0
 16 15  1  0  0  0  0
 16 17  2  0  0  0  0
 17 18  1  0  0  0  0
 18 19  2  0  0  0  0
 20  1  1  0  0  0  0
 20 26  1  0  0  0  0
 21 20  2  0  0  0  0
 22 21  1  0  0  0  0
 22 24  2  0  0  0  0
 23 22  1  0  0  0  0
 24 25  1  0  0  0  0
 25 26  2  0  0  0  0
M  END
>  <Pose>
1

>  <Score>
-8.382

$$$$
