/Users/jonathanwahrer/Desktop/Msc/3_Semester/Drug_Design_Praktikum/waehrer_HTS_screening/HTS_experiment/out/docking_results/vina_output/2jam/1531_docked.pdbqt
 OpenBabel03162218293D

 27 30  0  0  0  0  0  0  0  0999 V2000
   14.0730    5.1020   12.1500 N   0  0  0  0  0  0  0  0  0  0  0  0
   15.1650    4.4120   11.6920 C   0  0  0  0  0  0  0  0  0  0  0  0
   14.6900    3.3550   11.0280 N   0  0  0  0  0  0  0  0  0  0  0  0
   13.3470    3.3170   11.0290 C   0  0  0  0  0  0  0  0  0  0  0  0
   12.9580    4.4330   11.7460 C   0  0  0  0  0  3  0  0  0  0  0  0
   15.7890    2.5530   10.5000 C   0  0  0  0  0  3  0  0  0  0  0  0
   17.0380    3.2020   11.0210 C   0  0  0  0  0  3  0  0  0  0  0  0
   16.6470    4.4680   11.6970 C   0  0  0  0  0  3  0  0  0  0  0  0
   14.0970    6.3260   12.8750 C   0  0  0  0  0  3  0  0  0  0  0  0
   12.8960    7.0970   13.0970 C   0  0  0  0  0  0  0  0  0  0  0  0
   13.0800    8.1990   13.7980 O   0  0  0  0  0  1  0  0  0  0  0  0
   11.5320    6.8840   12.6940 C   0  0  0  0  0  0  0  0  0  0  0  0
   11.0250    7.0020   11.4350 C   0  0  0  0  0  3  0  0  0  0  0  0
    9.6820    6.7780   11.1000 C   0  0  0  0  0  3  0  0  0  0  0  0
    8.7900    6.4150   12.0800 C   0  0  0  0  0  0  0  0  0  0  0  0
    9.2620    6.2840   13.3660 C   0  0  0  0  0  0  0  0  0  0  0  0
    7.1140    6.1350   11.6680 Cl  0  0  0  0  0  0  0  0  0  0  0  0
    8.1450    5.8230   14.6220 Cl  0  0  0  0  0  0  0  0  0  0  0  0
   10.5660    6.5070   13.6600 C   0  0  0  0  0  3  0  0  0  0  0  0
   12.4470    2.3370   10.4230 C   0  0  0  0  0  0  0  0  0  0  0  0
   12.8430    1.1400    9.8820 C   0  0  0  0  0  3  0  0  0  0  0  0
   11.9180    0.2500    9.3190 C   0  0  0  0  0  3  0  0  0  0  0  0
   10.5700    0.5290    9.2800 C   0  0  0  0  0  0  0  0  0  0  0  0
   10.1620    1.7290    9.8200 C   0  0  0  0  0  3  0  0  0  0  0  0
   11.0740    2.6030   10.3740 C   0  0  0  0  0  3  0  0  0  0  0  0
    9.6430   -0.3420    8.7260 O   0  0  0  0  0  0  0  0  0  0  0  0
   10.0690   -1.4330    7.9290 C   0  0  0  0  0  1  0  0  0  0  0  0
  1  9  1  0  0  0  0
  2  8  2  0  0  0  0
  2  1  1  0  0  0  0
  3  4  1  0  0  0  0
  3  2  1  0  0  0  0
  4  5  2  0  0  0  0
  5  1  1  0  0  0  0
  6  7  2  0  0  0  0
  6  3  1  0  0  0  0
  7  8  1  0  0  0  0
  9 10  2  0  0  0  0
 10 11  1  0  0  0  0
 12 10  1  0  0  0  0
 12 19  1  0  0  0  0
 13 12  2  0  0  0  0
 14 13  1  0  0  0  0
 14 15  2  0  0  0  0
 15 16  1  0  0  0  0
 16 19  2  0  0  0  0
 16 18  1  0  0  0  0
 17 15  1  0  0  0  0
 20  4  1  0  0  0  0
 21 20  2  0  0  0  0
 22 21  1  0  0  0  0
 23 22  2  0  0  0  0
 23 24  1  0  0  0  0
 24 25  2  0  0  0  0
 25 20  1  0  0  0  0
 26 23  1  0  0  0  0
 27 26  1  0  0  0  0
M  END
>  <Pose>
1

>  <Score>
-8.346

$$$$
