/Users/jonathanwahrer/Desktop/Msc/3_Semester/Drug_Design_Praktikum/waehrer_HTS_screening/HTS_experiment/out/docking_results/vina_output/2jam/1533_docked.pdbqt
 OpenBabel03162218293D

 28 31  0  0  1  0  0  0  0  0999 V2000
   11.2640    5.0070   12.1030 C   0  0  0  0  0  0  0  0  0  0  0  0
   11.7800    6.2530   11.9370 N   0  0  0  0  0  0  0  0  0  0  0  0
   11.3330    7.0510   12.9120 C   0  0  2  0  0  3  0  0  0  0  0  0
   10.5110    6.3490   13.7500 N   0  0  0  0  0  0  0  0  0  0  0  0
   10.4790    5.1050   13.2430 C   0  0  0  0  0  3  0  0  0  0  0  0
   11.8650    8.4240   12.7590 C   0  0  0  0  0  2  0  0  0  0  0  0
   13.0830    8.1840   11.9120 C   0  0  0  0  0  2  0  0  0  0  0  0
   12.6670    7.0110   11.0550 C   0  0  0  0  0  2  0  0  0  0  0  0
    9.8010    6.8600   14.8870 C   0  0  0  0  0  3  0  0  0  0  0  0
    8.7490    7.8320   14.7690 C   0  0  0  0  0  0  0  0  0  0  0  0
    8.2130    8.1650   15.9400 O   0  0  0  0  0  1  0  0  0  0  0  0
    8.1450    8.5290   13.6620 C   0  0  0  0  0  0  0  0  0  0  0  0
    7.2650    7.8400   12.7970 C   0  0  0  0  0  3  0  0  0  0  0  0
    6.6420    8.4170   11.7210 C   0  0  0  0  0  0  0  0  0  0  0  0
    6.9110    9.7510   11.4930 C   0  0  0  0  0  3  0  0  0  0  0  0
    7.7650   10.4450   12.3210 C   0  0  0  0  0  3  0  0  0  0  0  0
    8.3960    9.8520   13.4160 C   0  0  0  0  0  3  0  0  0  0  0  0
    5.7640    7.7080   10.8660 N   0  0  0  0  0  0  0  0  0  0  0  0
    5.8310    6.4760   10.8180 O   0  0  0  0  0  0  0  0  0  0  0  0
    4.8420    8.3480   10.0910 O   0  0  0  0  0  0  0  0  0  0  0  0
   11.4490    3.7930   11.3090 C   0  0  0  0  0  0  0  0  0  0  0  0
   10.3860    3.3190   10.5740 C   0  0  0  0  0  3  0  0  0  0  0  0
   10.4980    2.1740    9.7810 C   0  0  0  0  0  3  0  0  0  0  0  0
   11.7010    1.5070    9.7370 C   0  0  0  0  0  0  0  0  0  0  0  0
   12.7580    1.9710   10.4640 C   0  0  0  0  0  0  0  0  0  0  0  0
   11.8220    0.0640    8.7300 Cl  0  0  0  0  0  0  0  0  0  0  0  0
   14.2730    1.0970   10.3850 Cl  0  0  0  0  0  0  0  0  0  0  0  0
   12.6300    3.1120   11.2480 C   0  0  0  0  0  3  0  0  0  0  0  0
  1  5  2  0  0  0  0
  2  1  1  0  0  0  0
  2  3  1  0  0  0  0
  3  6  1  6  0  0  0
  3  4  1  0  0  0  0
  4  9  1  0  0  0  0
  5  4  1  0  0  0  0
  7  6  1  0  0  0  0
  8  7  1  0  0  0  0
  8  2  1  0  0  0  0
 10  9  2  0  0  0  0
 10 11  1  0  0  0  0
 12 10  1  0  0  0  0
 13 12  2  0  0  0  0
 14 13  1  0  0  0  0
 15 14  2  0  0  0  0
 15 16  1  0  0  0  0
 16 17  2  0  0  0  0
 17 12  1  0  0  0  0
 18 14  1  0  0  0  0
 19 18  2  0  0  0  0
 20 18  2  0  0  0  0
 21  1  1  0  0  0  0
 22 21  2  0  0  0  0
 23 22  1  0  0  0  0
 24 23  2  0  0  0  0
 24 25  1  0  0  0  0
 25 28  2  0  0  0  0
 26 24  1  0  0  0  0
 27 25  1  0  0  0  0
 28 21  1  0  0  0  0
M  END
>  <Pose>
1

>  <Score>
-8.415

$$$$
