/Users/jonathanwahrer/Desktop/Msc/3_Semester/Drug_Design_Praktikum/waehrer_HTS_screening/HTS_experiment/out/docking_results/vina_output/2jam/1535_docked.pdbqt
 OpenBabel03162218293D

 28 31  0  0  1  0  0  0  0  0999 V2000
   10.4200    6.0640   11.9530 C   0  0  0  0  0  0  0  0  0  0  0  0
   11.6570    6.5850   11.9310 N   0  0  0  0  0  0  0  0  0  0  0  0
   12.5660    5.5870   11.9510 C   0  0  2  0  0  3  0  0  0  0  0  0
   11.9000    4.4190   11.9840 N   0  0  0  0  0  0  0  0  0  0  0  0
   10.5590    4.6680   11.9860 C   0  0  0  0  0  3  0  0  0  0  0  0
   13.9360    6.1490   11.9390 C   0  0  0  0  0  2  0  0  0  0  0  0
   13.6780    7.4280   11.1840 C   0  0  0  0  0  2  0  0  0  0  0  0
   12.3770    7.8630   11.8800 C   0  0  0  0  0  2  0  0  0  0  0  0
   12.4810    3.1300   12.0520 C   0  0  0  0  0  2  0  0  0  0  0  0
   13.2360    2.5450   10.9810 C   0  0  2  0  0  3  0  0  0  0  0  0
   14.5080    2.8830   11.0360 O   0  0  0  0  0  1  0  0  0  0  0  0
   12.8740    1.6810    9.8820 C   0  0  0  0  0  0  0  0  0  0  0  0
   11.6820    1.0190    9.7600 C   0  0  0  0  0  3  0  0  0  0  0  0
   11.4010    0.1980    8.6640 C   0  0  0  0  0  0  0  0  0  0  0  0
   12.3220    0.0360    7.6790 C   0  0  0  0  0  3  0  0  0  0  0  0
   13.5300    0.6900    7.7760 C   0  0  0  0  0  3  0  0  0  0  0  0
   13.8160    1.4960    8.8440 C   0  0  0  0  0  3  0  0  0  0  0  0
   10.1370   -0.4650    8.5970 N   0  0  0  0  0  0  0  0  0  0  0  0
   10.0390   -1.5320    7.9670 O   0  0  0  0  0  0  0  0  0  0  0  0
    9.0300    0.0370    9.2020 O   0  0  0  0  0  0  0  0  0  0  0  0
    9.1100    6.7180   11.9450 C   0  0  0  0  0  0  0  0  0  0  0  0
    7.9420    5.9570   11.8420 C   0  0  0  0  0  3  0  0  0  0  0  0
    6.6910    6.5150   11.8480 C   0  0  0  0  0  3  0  0  0  0  0  0
    6.5320    7.8760   11.9580 C   0  0  0  0  0  0  0  0  0  0  0  0
    7.6550    8.6510   12.0610 C   0  0  0  0  0  0  0  0  0  0  0  0
    4.9290    8.5780   11.9640 Cl  0  0  0  0  0  0  0  0  0  0  0  0
    7.5320   10.3760   12.2040 Cl  0  0  0  0  0  0  0  0  0  0  0  0
    8.9330    8.0580   12.0540 C   0  0  0  0  0  3  0  0  0  0  0  0
  1  5  2  0  0  0  0
  2  3  1  0  0  0  0
  2  1  1  0  0  0  0
  3  6  1  1  0  0  0
  3  4  1  0  0  0  0
  4  5  1  0  0  0  0
  4  9  1  0  0  0  0
  7  8  1  0  0  0  0
  7  6  1  0  0  0  0
  8  2  1  0  0  0  0
 10 11  1  6  0  0  0
 10  9  1  0  0  0  0
 12 10  1  0  0  0  0
 13 12  1  0  0  0  0
 14 13  2  0  0  0  0
 15 16  2  0  0  0  0
 15 14  1  0  0  0  0
 16 17  1  0  0  0  0
 17 12  2  0  0  0  0
 18 14  1  0  0  0  0
 18 20  2  0  0  0  0
 19 18  2  0  0  0  0
 21  1  1  0  0  0  0
 21 28  1  0  0  0  0
 22 23  1  0  0  0  0
 22 21  2  0  0  0  0
 23 24  2  0  0  0  0
 24 26  1  0  0  0  0
 24 25  1  0  0  0  0
 25 27  1  0  0  0  0
 28 25  2  0  0  0  0
M  END
>  <Pose>
1

>  <Score>
-9.421

$$$$
