/Users/jonathanwahrer/Desktop/Msc/3_Semester/Drug_Design_Praktikum/waehrer_HTS_screening/HTS_experiment/out/docking_results/vina_output/2jam/1536_docked.pdbqt
 OpenBabel03162218303D

 31 34  0  0  1  0  0  0  0  0999 V2000
    9.8160    5.9390   11.1940 S   0  0  0  0  0  0  0  0  0  0  0  0
    8.7300    4.8930   10.9230 O   0  0  0  0  0  0  0  0  0  0  0  0
   10.2550    6.3550    9.7890 O   0  0  0  0  0  0  0  0  0  0  0  0
   11.0700    5.1960   11.9740 N   0  0  0  0  0  0  0  0  0  0  0  0
   12.3940    5.2380   11.5520 C   0  0  0  0  0  2  0  0  0  0  0  0
   12.8510    4.1270   10.6620 C   0  0  0  0  0  2  0  0  0  0  0  0
   11.9390    2.9190   10.8650 C   0  0  2  0  0  3  0  0  0  0  0  0
   11.7310    2.8780   12.3880 C   0  0  0  0  0  2  0  0  0  0  0  0
   10.7120    3.9700   12.6760 C   0  0  0  0  0  2  0  0  0  0  0  0
   12.5300    1.6900   10.3650 C   0  0  0  0  0  0  0  0  0  0  0  0
   13.7070    1.3880   10.6950 O   0  0  0  0  0  0  0  0  0  0  0  0
   11.8230    0.8260    9.5230 N   0  0  0  0  0  0  0  0  0  0  0  0
   12.3770   -0.4410    9.0310 C   0  0  0  0  0  2  0  0  0  0  0  0
   10.5010    1.1480    9.0660 C   0  0  0  0  0  2  0  0  0  0  0  0
   11.3970   -0.9630    8.0010 C   0  0  0  0  0  2  0  0  0  0  0  0
   10.1110   -1.2290    8.6180 N   0  0  0  0  0  0  0  0  0  0  0  0
    9.5510   -0.0280    9.2130 C   0  0  0  0  0  2  0  0  0  0  0  0
    9.1880   -1.8070    7.6650 C   0  0  0  0  0  1  0  0  0  0  0  0
    9.0030    7.2600   11.9820 C   0  0  0  0  0  0  0  0  0  0  0  0
    7.6060    7.2120   12.1330 C   0  0  0  0  0  3  0  0  0  0  0  0
    6.8910    8.2360   12.6970 C   0  0  0  0  0  0  0  0  0  0  0  0
    7.5390    9.3500   13.1350 C   0  0  0  0  0  0  0  0  0  0  0  0
    5.4990    8.1530   12.8310 O   0  0  0  0  0  0  0  0  0  0  0  0
    8.9010    9.4520   13.0150 C   0  0  0  0  0  3  0  0  0  0  0  0
    6.7700   10.4160   13.7190 N   0  0  0  0  0  0  0  0  0  0  0  0
    9.6070    8.3950   12.4380 C   0  0  0  0  0  0  0  0  0  0  0  0
   11.3550    8.5460   12.3810 Cl  0  0  0  0  0  0  0  0  0  0  0  0
    5.3630   10.2850   13.8260 C   0  0  0  0  0  0  0  0  0  0  0  0
    7.2570   11.2690   14.0570 H   0  0  0  0  0  0  0  0  0  0  0  0
    4.7010   10.9670   14.6350 O   0  0  0  0  0  0  0  0  0  0  0  0
    4.6970    9.2990   12.9350 C   0  0  0  0  0  2  0  0  0  0  0  0
  1  4  1  0  0  0  0
  1 19  1  0  0  0  0
  2  1  2  0  0  0  0
  3  1  2  0  0  0  0
  4  9  1  0  0  0  0
  5  4  1  0  0  0  0
  6  7  1  0  0  0  0
  6  5  1  0  0  0  0
  7 10  1  1  0  0  0
  7  8  1  0  0  0  0
  8  9  1  0  0  0  0
 10 11  2  0  0  0  0
 12 10  1  0  0  0  0
 13 12  1  0  0  0  0
 14 17  1  0  0  0  0
 14 12  1  0  0  0  0
 15 16  1  0  0  0  0
 15 13  1  0  0  0  0
 16 17  1  0  0  0  0
 18 16  1  0  0  0  0
 19 20  2  0  0  0  0
 19 26  1  0  0  0  0
 20 21  1  0  0  0  0
 21 23  1  0  0  0  0
 21 22  2  0  0  0  0
 22 25  1  0  0  0  0
 23 31  1  0  0  0  0
 24 22  1  0  0  0  0
 25 28  1  0  0  0  0
 25 29  1  0  0  0  0
 26 24  2  0  0  0  0
 27 26  1  0  0  0  0
 28 30  2  0  0  0  0
 31 28  1  0  0  0  0
M  END
>  <Pose>
1

>  <Score>
-10.143

$$$$
