/Users/jonathanwahrer/Desktop/Msc/3_Semester/Drug_Design_Praktikum/waehrer_HTS_screening/HTS_experiment/out/docking_results/vina_output/2jam/1539_docked.pdbqt
 OpenBabel03162218303D

 34 37  0  0  1  0  0  0  0  0999 V2000
    9.1350    7.1900   11.3880 C   0  0  2  0  0  3  0  0  0  0  0  0
    8.0480    6.7580   12.2750 N   0  0  0  0  0  0  0  0  0  0  0  0
    8.6590    5.8670   13.1960 C   0  0  0  0  0  0  0  0  0  0  0  0
    8.2910    5.6290   14.3590 O   0  0  0  0  0  0  0  0  0  0  0  0
    9.8040    5.2850   12.5030 C   0  0  0  0  0  0  0  0  0  0  0  0
   10.6620    4.4420   12.8980 O   0  0  0  0  0  0  0  0  0  0  0  0
    9.8140    5.8820   11.1590 C   0  0  0  0  0  0  0  0  0  0  0  0
   10.3360    5.3570   10.0680 C   0  0  0  0  0  0  0  0  0  0  0  0
   10.2840    6.0980    8.8840 O   0  0  0  0  0  1  0  0  0  0  0  0
    9.9860    8.0940   12.2000 C   0  0  0  0  0  0  0  0  0  0  0  0
   11.3610    8.0680   12.1080 C   0  0  0  0  0  3  0  0  0  0  0  0
   12.1750    8.8960   12.8510 C   0  0  0  0  0  3  0  0  0  0  0  0
   11.6290    9.8060   13.7380 C   0  0  0  0  0  0  0  0  0  0  0  0
   12.6520   10.8730   14.6980 Cl  0  0  0  0  0  0  0  0  0  0  0  0
   10.2610    9.8480   13.8470 C   0  0  0  0  0  3  0  0  0  0  0  0
    9.4510    9.0210   13.1030 C   0  0  0  0  0  3  0  0  0  0  0  0
   10.9560    4.0400   10.0400 C   0  0  0  0  0  0  0  0  0  0  0  0
   12.3280    3.8690   10.1220 C   0  0  0  0  0  3  0  0  0  0  0  0
   12.9140    2.6210   10.0690 C   0  0  0  0  0  0  0  0  0  0  0  0
   12.1380    1.4790    9.9290 C   0  0  0  0  0  0  0  0  0  0  0  0
   14.3850    2.4870   10.1600 C   0  0  0  0  0  1  0  0  0  0  0  0
   10.7740    1.6360    9.8460 C   0  0  0  0  0  3  0  0  0  0  0  0
   10.1910    2.9060    9.9010 C   0  0  0  0  0  3  0  0  0  0  0  0
   12.7140    0.2120    9.8750 O   0  0  0  0  0  0  0  0  0  0  0  0
   12.0850   -0.7890    9.1250 C   0  0  0  0  0  1  0  0  0  0  0  0
    6.6440    7.1690   12.2150 C   0  0  0  0  0  2  0  0  0  0  0  0
    6.4440    8.1770   13.3230 C   0  0  0  0  0  2  0  0  0  0  0  0
    5.7380    9.3500   12.8810 N   0  0  0  0  0  4  0  0  0  0  0  0
    5.8250   10.3950   13.8480 C   0  0  0  0  0  2  0  0  0  0  0  0
    4.6730   10.5170   14.7880 C   0  0  0  0  0  2  0  0  0  0  0  0
    3.4550   10.1670   14.2690 O   0  0  0  0  0  0  0  0  0  0  0  0
    3.4500    8.9080   13.6830 C   0  0  0  0  0  2  0  0  0  0  0  0
    4.4020    8.9680   12.5170 C   0  0  0  0  0  2  0  0  0  0  0  0
    6.2510    9.6780   12.0130 H   0  0  0  0  0  0  0  0  0  0  0  0
  1 10  1  1  0  0  0
  1  2  1  0  0  0  0
  2  3  1  0  0  0  0
  3  4  2  0  0  0  0
  5  6  2  0  0  0  0
  5  3  1  0  0  0  0
  7  1  1  0  0  0  0
  7  5  1  0  0  0  0
  8  7  2  0  0  0  0
  9  8  1  0  0  0  0
 10 16  1  0  0  0  0
 11 10  2  0  0  0  0
 11 12  1  0  0  0  0
 12 13  2  0  0  0  0
 13 15  1  0  0  0  0
 13 14  1  0  0  0  0
 16 15  2  0  0  0  0
 17  8  1  0  0  0  0
 17 18  1  0  0  0  0
 19 18  2  0  0  0  0
 19 21  1  0  0  0  0
 20 19  1  0  0  0  0
 22 23  1  0  0  0  0
 22 20  2  0  0  0  0
 23 17  2  0  0  0  0
 24 20  1  0  0  0  0
 25 24  1  0  0  0  0
 26  2  1  0  0  0  0
 26 27  1  0  0  0  0
 28 27  1  0  0  0  0
 28 29  1  0  0  0  0
 29 30  1  0  0  0  0
 31 30  1  0  0  0  0
 32 31  1  0  0  0  0
 33 28  1  0  0  0  0
 33 32  1  0  0  0  0
 34 28  1  0  0  0  0
M  END
>  <Pose>
1

>  <Score>
-8.943

$$$$
