/Users/jonathanwahrer/Desktop/Msc/3_Semester/Drug_Design_Praktikum/waehrer_HTS_screening/HTS_experiment/out/docking_results/vina_output/2jam/1548_docked.pdbqt
 OpenBabel03162218303D

 24 27  0  0  1  0  0  0  0  0999 V2000
   11.8510    1.1940    9.0580 Cl  0  0  0  0  0  0  0  0  0  0  0  0
   11.4900    2.4140   10.2710 C   0  0  0  0  0  0  0  0  0  0  0  0
   10.9260    3.6280    9.9460 C   0  0  0  0  0  2  0  0  0  0  0  0
   10.6470    4.5730   10.8900 N   0  0  0  0  0  0  0  0  0  0  0  0
   10.9110    4.3630   12.1930 C   0  0  0  0  0  0  0  0  0  0  0  0
   10.6360    5.3010   13.1330 N   0  0  0  0  0  0  0  0  0  0  0  0
   10.0820    6.4880   12.8070 C   0  0  0  0  0  0  0  0  0  0  0  0
    9.8000    6.7350   11.4950 C   0  0  2  0  0  3  0  0  0  0  0  0
    9.1840    8.0360   11.0770 C   0  0  0  0  0  2  0  0  0  0  0  0
    8.4270    8.4900   12.2560 N   0  0  0  0  0  0  0  0  0  0  0  0
    9.2400    8.7310   13.4130 C   0  0  0  0  0  2  0  0  0  0  0  0
    9.8280    7.4290   13.9290 C   0  0  0  0  0  2  0  0  0  0  0  0
    7.0480    8.6310   12.1260 C   0  0  0  0  0  0  0  0  0  0  0  0
    6.5100    8.3680   10.9940 O   0  0  0  0  0  0  0  0  0  0  0  0
   10.0950    5.7540   10.5580 C   0  0  0  0  0  0  0  0  0  0  0  0
    9.8410    5.9700    9.3560 O   0  0  0  0  0  0  0  0  0  0  0  0
   11.4800    3.1440   12.5290 C   0  0  0  0  0  3  0  0  0  0  0  0
   11.7730    2.1710   11.5980 C   0  0  0  0  0  3  0  0  0  0  0  0
    6.1260    9.0620   13.1820 C   0  0  0  0  0  0  0  0  0  0  0  0
    5.6000    8.2090   14.0660 N   0  0  0  0  0  0  0  0  0  0  0  0
    4.7610    8.6100   15.0260 C   0  0  0  0  0  3  0  0  0  0  0  0
    4.3870    9.9320   15.1580 C   0  0  0  0  0  3  0  0  0  0  0  0
    4.9260   10.7760   14.2610 N   0  0  0  0  0  0  0  0  0  0  0  0
    5.7640   10.4010   13.2950 C   0  0  0  0  0  3  0  0  0  0  0  0
  1  2  1  0  0  0  0
  2 18  2  0  0  0  0
  3  2  1  0  0  0  0
  3  4  1  0  0  0  0
  4  5  1  0  0  0  0
  5 17  2  0  0  0  0
  5  6  1  0  0  0  0
  7  6  2  0  0  0  0
  7 12  1  0  0  0  0
  8  9  1  1  0  0  0
  8  7  1  0  0  0  0
  9 10  1  0  0  0  0
 10 11  1  0  0  0  0
 11 12  1  0  0  0  0
 13 10  1  0  0  0  0
 13 19  1  0  0  0  0
 14 13  2  0  0  0  0
 15  4  1  0  0  0  0
 15  8  1  0  0  0  0
 16 15  2  0  0  0  0
 18 17  1  0  0  0  0
 19 24  2  0  0  0  0
 19 20  1  0  0  0  0
 20 21  2  0  0  0  0
 21 22  1  0  0  0  0
 23 22  2  0  0  0  0
 24 23  1  0  0  0  0
M  END
>  <Pose>
1

>  <Score>
-8.533

$$$$
