/Users/jonathanwahrer/Desktop/Msc/3_Semester/Drug_Design_Praktikum/waehrer_HTS_screening/HTS_experiment/out/docking_results/vina_output/2jam/1571_docked.pdbqt
 OpenBabel03162218303D

 28 31  0  0  1  0  0  0  0  0999 V2000
   11.0600    5.6610   11.7240 O   0  0  0  0  0  0  0  0  0  0  0  0
    9.9740    6.2510   11.0660 C   0  0  0  0  0  2  0  0  0  0  0  0
    8.8460    6.5570   11.9770 C   0  0  0  0  0  0  0  0  0  0  0  0
    7.8980    7.4720   11.6950 N   0  0  0  0  0  0  0  0  0  0  0  0
    6.8920    7.7290   12.5340 C   0  0  0  0  0  0  0  0  0  0  0  0
    6.7410    7.0980   13.7270 N   0  0  0  0  0  0  0  0  0  0  0  0
    5.9510    8.6890   12.1690 C   0  0  0  0  0  3  0  0  0  0  0  0
    5.7120    7.3910   14.5340 C   0  0  0  0  0  3  0  0  0  0  0  0
    7.6810    6.1700   14.0410 C   0  0  0  0  0  0  0  0  0  0  0  0
    4.7650    8.3330   14.2080 C   0  0  0  0  0  0  0  0  0  0  0  0
    3.3010    8.7220   15.4000 Br  0  0  0  0  0  0  0  0  0  0  0  0
    4.8980    8.9830   13.0080 C   0  0  0  0  0  3  0  0  0  0  0  0
    8.7260    5.8950   13.1820 C   0  0  0  0  0  3  0  0  0  0  0  0
    7.5330    5.5870   15.1520 O   0  0  0  0  0  0  0  0  0  0  0  0
   11.5960    4.4280   11.4350 C   0  0  0  0  0  0  0  0  0  0  0  0
   11.5690    3.5800   12.3720 O   0  0  0  0  0  0  0  0  0  0  0  0
   12.1780    4.0930   10.1070 C   0  0  0  0  0  2  0  0  0  0  0  0
   12.4630    2.6620    9.9910 N   0  0  0  0  0  0  0  0  0  0  0  0
   11.5570    1.6270    9.6180 C   0  0  0  0  0  0  0  0  0  0  0  0
   10.4020    1.7840    9.1490 O   0  0  0  0  0  0  0  0  0  0  0  0
   12.2200    0.3290    9.8790 C   0  0  2  0  0  3  0  0  0  0  0  0
   13.6630    0.7030    9.6320 C   0  0  1  0  0  3  0  0  0  0  0  0
   11.7200   -0.7970    9.0690 C   0  0  0  0  0  2  0  0  0  0  0  0
   13.9950    0.8290    8.1580 C   0  0  0  0  0  2  0  0  0  0  0  0
   13.7150    2.0500   10.2470 C   0  0  0  0  0  0  0  0  0  0  0  0
   12.8740    0.3790    7.2590 C   0  0  0  0  0  2  0  0  0  0  0  0
   12.3120   -0.9390    7.7120 C   0  0  0  0  0  2  0  0  0  0  0  0
   14.6810    2.5750   10.8840 O   0  0  0  0  0  0  0  0  0  0  0  0
  2  1  1  0  0  0  0
  2  3  1  0  0  0  0
  3 13  2  0  0  0  0
  4  3  1  0  0  0  0
  4  5  2  0  0  0  0
  5  6  1  0  0  0  0
  6  9  1  0  0  0  0
  6  8  1  0  0  0  0
  7  5  1  0  0  0  0
  7 12  2  0  0  0  0
  9 14  2  0  0  0  0
 10  8  2  0  0  0  0
 10 11  1  0  0  0  0
 12 10  1  0  0  0  0
 13  9  1  0  0  0  0
 15  1  1  0  0  0  0
 15 16  2  0  0  0  0
 17 15  1  0  0  0  0
 18 17  1  0  0  0  0
 18 25  1  0  0  0  0
 19 21  1  0  0  0  0
 19 18  1  0  0  0  0
 20 19  2  0  0  0  0
 21 23  1  6  0  0  0
 22 24  1  6  0  0  0
 22 21  1  0  0  0  0
 22 25  1  0  0  0  0
 25 28  2  0  0  0  0
 26 27  1  0  0  0  0
 26 24  1  0  0  0  0
 27 23  1  0  0  0  0
M  END
>  <Pose>
1

>  <Score>
-9.052

$$$$
