/Users/jonathanwahrer/Desktop/Msc/3_Semester/Drug_Design_Praktikum/waehrer_HTS_screening/HTS_experiment/out/docking_results/vina_output/2jam/1591_docked.pdbqt
 OpenBabel03162218313D

 26 29  0  0  0  0  0  0  0  0999 V2000
   13.7170    4.7710   12.5070 Cl  0  0  0  0  0  0  0  0  0  0  0  0
   12.4280    4.1320   11.5130 C   0  0  0  0  0  0  0  0  0  0  0  0
   11.2140    4.7580   11.4720 C   0  0  0  0  0  0  0  0  0  0  0  0
   10.2560    4.1490   10.6560 C   0  0  0  0  0  3  0  0  0  0  0  0
   10.5450    3.0300    9.9740 N   0  0  0  0  0  0  0  0  0  0  0  0
   11.7040    2.4120    9.9990 N   0  0  0  0  0  0  0  0  0  0  0  0
   12.6540    2.9610   10.7690 C   0  0  0  0  0  0  0  0  0  0  0  0
   13.7970    2.4440   10.8580 O   0  0  0  0  0  0  0  0  0  0  0  0
   10.9260    5.9500   12.1770 N   0  0  0  0  0  0  0  0  0  0  0  0
   10.4910    5.9610   13.5640 C   0  0  0  0  0  2  0  0  0  0  0  0
    9.1020    6.5260   13.7070 C   0  0  0  0  0  2  0  0  0  0  0  0
    9.0170    7.6530   12.8110 N   0  0  0  0  0  0  0  0  0  0  0  0
   10.2430    8.2990   12.4200 C   0  0  0  0  0  2  0  0  0  0  0  0
   11.0160    7.2710   11.5640 C   0  0  0  0  0  2  0  0  0  0  0  0
    7.7690    8.1160   12.3280 C   0  0  0  0  0  0  0  0  0  0  0  0
    7.5060    8.6710   11.1110 N   0  0  0  0  0  0  0  0  0  0  0  0
    6.2250    8.9720   11.0360 N   0  0  0  0  0  0  0  0  0  0  0  0
    5.6590    8.6210   12.1840 C   0  0  0  0  0  0  0  0  0  0  0  0
    6.5980    8.1130   12.9380 O   0  0  0  0  0  0  0  0  0  0  0  0
    4.2260    8.7510   12.6060 C   0  0  0  0  0  1  0  0  0  0  0  0
   11.9270    1.2260    9.2440 C   0  0  0  0  0  0  0  0  0  0  0  0
   12.9660    1.1000    8.3430 C   0  0  0  0  0  3  0  0  0  0  0  0
   13.1730   -0.0540    7.6170 C   0  0  0  0  0  3  0  0  0  0  0  0
   12.3340   -1.1390    7.7680 C   0  0  0  0  0  3  0  0  0  0  0  0
   11.2940   -1.0190    8.6670 C   0  0  0  0  0  3  0  0  0  0  0  0
   11.0910    0.1390    9.3920 C   0  0  0  0  0  3  0  0  0  0  0  0
  2  1  1  0  0  0  0
  3  2  2  0  0  0  0
  3  9  1  0  0  0  0
  4  3  1  0  0  0  0
  5  6  1  0  0  0  0
  5  4  2  0  0  0  0
  6  7  1  0  0  0  0
  7  8  2  0  0  0  0
  7  2  1  0  0  0  0
  9 10  1  0  0  0  0
 10 11  1  0  0  0  0
 12 11  1  0  0  0  0
 13 12  1  0  0  0  0
 14  9  1  0  0  0  0
 14 13  1  0  0  0  0
 15 12  1  0  0  0  0
 15 19  1  0  0  0  0
 16 15  2  0  0  0  0
 17 16  1  0  0  0  0
 17 18  2  0  0  0  0
 18 20  1  0  0  0  0
 18 19  1  0  0  0  0
 21 26  1  0  0  0  0
 21  6  1  0  0  0  0
 22 21  2  0  0  0  0
 23 24  2  0  0  0  0
 23 22  1  0  0  0  0
 24 25  1  0  0  0  0
 25 26  2  0  0  0  0
M  END
>  <Pose>
1

>  <Score>
-8.783

$$$$
