/Users/jonathanwahrer/Desktop/Msc/3_Semester/Drug_Design_Praktikum/waehrer_HTS_screening/HTS_experiment/out/docking_results/vina_output/2jam/1609_docked.pdbqt
 OpenBabel03162218323D

 26 29  0  0  1  0  0  0  0  0999 V2000
   12.5400    3.5910   11.1650 N   0  0  0  0  0  0  0  0  0  0  0  0
   11.3980    4.1550   10.4950 C   0  0  2  0  0  3  0  0  0  0  0  0
   11.8980    5.5480   10.1680 C   0  0  2  0  0  3  0  0  0  0  0  0
   12.5440    5.8900   11.3870 O   0  0  0  0  0  0  0  0  0  0  0  0
   13.2090    4.7010   11.7520 C   0  0  0  0  0  0  0  0  0  0  0  0
   14.2420    4.6830   12.4940 O   0  0  0  0  0  0  0  0  0  0  0  0
   10.5990    6.2320    9.9480 C   0  0  0  0  0  2  0  0  0  0  0  0
    9.8680    5.8500   11.1780 N   0  0  0  0  0  0  0  0  0  0  0  0
   10.2970    4.5260   11.5050 C   0  0  0  0  0  2  0  0  0  0  0  0
    8.9680    6.7350   11.7790 C   0  0  0  0  0  0  0  0  0  0  0  0
    8.7740    7.9090   11.2580 O   0  0  0  0  0  0  0  0  0  0  0  0
   12.9980    2.2260   11.2820 C   0  0  0  0  0  2  0  0  0  0  0  0
   13.7340    1.7290   10.0680 C   0  0  0  0  0  2  0  0  0  0  0  0
   12.8850    0.8690    9.2120 C   0  0  0  0  0  0  0  0  0  0  0  0
   11.5340    0.6810    9.5050 C   0  0  0  0  0  3  0  0  0  0  0  0
   10.7340   -0.1130    8.7180 C   0  0  0  0  0  0  0  0  0  0  0  0
    9.0290   -0.3200    9.1300 Cl  0  0  0  0  0  0  0  0  0  0  0  0
   11.2210   -0.7630    7.6040 C   0  0  0  0  0  3  0  0  0  0  0  0
   12.5560   -0.5810    7.3100 C   0  0  0  0  0  3  0  0  0  0  0  0
   13.3680    0.2160    8.0960 C   0  0  0  0  0  3  0  0  0  0  0  0
    8.1870    6.4870   12.9760 C   0  0  0  0  0  0  0  0  0  0  0  0
    8.6300    6.5130   14.2620 N   0  0  0  0  0  0  0  0  0  0  0  0
    7.6070    6.2370   15.0690 C   0  0  0  0  0  3  0  0  0  0  0  0
    9.9840    6.7930   14.6600 C   0  0  0  0  0  1  0  0  0  0  0  0
    6.5150    6.0350   14.3300 N   0  0  0  0  0  0  0  0  0  0  0  0
    6.8580    6.1860   13.0310 C   0  0  0  0  0  3  0  0  0  0  0  0
  1 12  1  0  0  0  0
  1  5  1  0  0  0  0
  2  1  1  0  0  0  0
  2  9  1  1  0  0  0
  3  7  1  1  0  0  0
  3  2  1  0  0  0  0
  3  4  1  0  0  0  0
  4  5  1  0  0  0  0
  5  6  2  0  0  0  0
  7  8  1  0  0  0  0
  8  9  1  0  0  0  0
  8 10  1  0  0  0  0
 10 21  1  0  0  0  0
 11 10  2  0  0  0  0
 13 12  1  0  0  0  0
 14 15  1  0  0  0  0
 14 13  1  0  0  0  0
 16 17  1  0  0  0  0
 16 15  2  0  0  0  0
 18 16  1  0  0  0  0
 19 18  2  0  0  0  0
 19 20  1  0  0  0  0
 20 14  2  0  0  0  0
 21 26  2  0  0  0  0
 21 22  1  0  0  0  0
 22 24  1  0  0  0  0
 22 23  1  0  0  0  0
 25 23  2  0  0  0  0
 26 25  1  0  0  0  0
M  END
>  <Pose>
1

>  <Score>
-8.871

$$$$
