/Users/jonathanwahrer/Desktop/Msc/3_Semester/Drug_Design_Praktikum/waehrer_HTS_screening/HTS_experiment/out/docking_results/vina_output/2jam/1622_docked.pdbqt
 OpenBabel03162218323D

 28 31  0  0  1  0  0  0  0  0999 V2000
   11.3540    5.4990   10.2700 C   0  0  0  0  0  0  0  0  0  0  0  0
   11.2470    5.9800    9.1130 O   0  0  0  0  0  0  0  0  0  0  0  0
   10.9940    6.2300   11.4340 N   0  0  0  0  0  0  0  0  0  0  0  0
   10.4850    7.5750   11.2790 C   0  0  0  0  0  2  0  0  0  0  0  0
    9.5990    7.8520   12.4800 C   0  0  0  0  0  2  0  0  0  0  0  0
    8.8480    6.6170   12.9260 C   0  0  1  0  0  0  0  0  0  0  0  0
    7.8830    7.0400   13.9150 N   0  0  0  0  0  0  0  0  0  0  0  0
    6.7030    7.4480   13.2400 C   0  0  0  0  0  0  0  0  0  0  0  0
    5.7690    8.1910   13.6770 O   0  0  0  0  0  0  0  0  0  0  0  0
    6.7660    6.8480   11.9430 N   0  0  0  0  0  0  0  0  0  0  0  0
    7.9730    6.0900   11.8480 C   0  0  0  0  0  0  0  0  0  0  0  0
    8.2040    5.1770   11.0110 O   0  0  0  0  0  0  0  0  0  0  0  0
    5.7870    6.9590   10.8600 C   0  0  0  0  0  1  0  0  0  0  0  0
    9.7670    5.5470   13.4370 C   0  0  0  0  0  2  0  0  0  0  0  0
   11.1030    5.7140   12.7790 C   0  0  0  0  0  2  0  0  0  0  0  0
    8.0490    7.0370   14.9390 H   0  0  0  0  0  0  0  0  0  0  0  0
   11.8770    4.1320   10.3530 C   0  0  0  0  0  0  0  0  0  0  0  0
   13.1310    3.8930   10.8710 C   0  0  0  0  0  0  0  0  0  0  0  0
   14.0930    5.2680   11.4320 Cl  0  0  0  0  0  0  0  0  0  0  0  0
   13.6500    2.6170   10.9600 C   0  0  0  0  0  3  0  0  0  0  0  0
   12.8610    1.5850   10.5100 C   0  0  0  0  0  3  0  0  0  0  0  0
   11.5940    1.7770    9.9820 C   0  0  0  0  0  0  0  0  0  0  0  0
   11.1180    3.0690    9.9120 C   0  0  0  0  0  3  0  0  0  0  0  0
   10.8280    0.6610    9.5320 N   0  0  0  0  0  0  0  0  0  0  0  0
    9.5390    0.5920    9.3070 N   0  0  0  0  0  0  0  0  0  0  0  0
    9.2130   -0.6650    8.8860 C   0  0  0  0  0  3  0  0  0  0  0  0
   10.3690   -1.4130    8.8480 C   0  0  0  0  0  3  0  0  0  0  0  0
   11.3750   -0.5370    9.2660 C   0  0  0  0  0  3  0  0  0  0  0  0
  1 17  1  0  0  0  0
  1  3  1  0  0  0  0
  2  1  2  0  0  0  0
  3 15  1  0  0  0  0
  4  3  1  0  0  0  0
  4  5  1  0  0  0  0
  6  5  1  6  0  0  0
  6 14  1  0  0  0  0
  6  7  1  0  0  0  0
  7 16  1  0  0  0  0
  8  9  2  0  0  0  0
  8  7  1  0  0  0  0
 10  8  1  0  0  0  0
 11 10  1  0  0  0  0
 11  6  1  0  0  0  0
 12 11  2  0  0  0  0
 13 10  1  0  0  0  0
 15 14  1  0  0  0  0
 17 18  1  0  0  0  0
 18 20  2  0  0  0  0
 18 19  1  0  0  0  0
 21 20  1  0  0  0  0
 22 21  2  0  0  0  0
 23 22  1  0  0  0  0
 23 17  2  0  0  0  0
 24 22  1  0  0  0  0
 25 24  1  0  0  0  0
 26 25  2  0  0  0  0
 27 26  1  0  0  0  0
 27 28  2  0  0  0  0
 28 24  1  0  0  0  0
M  END
>  <Pose>
1

>  <Score>
-9.374

$$$$
