/Users/jonathanwahrer/Desktop/Msc/3_Semester/Drug_Design_Praktikum/waehrer_HTS_screening/HTS_experiment/out/docking_results/vina_output/2jam/1624_docked.pdbqt
 OpenBabel03162218333D

 32 35  0  0  1  0  0  0  0  0999 V2000
   11.7310    5.1070   12.3950 C   0  0  1  0  0  3  0  0  0  0  0  0
   10.5610    5.9920   12.2500 N   0  0  0  0  0  0  0  0  0  0  0  0
   10.1220    5.9300   10.8990 C   0  0  0  0  0  0  0  0  0  0  0  0
    9.4300    6.7540   10.2980 O   0  0  0  0  0  0  0  0  0  0  0  0
   10.6490    4.6760   10.3260 C   0  0  0  0  0  0  0  0  0  0  0  0
   10.4960    4.2320    9.1430 O   0  0  0  0  0  0  0  0  0  0  0  0
   11.3930    4.0380   11.3990 C   0  0  0  0  0  0  0  0  0  0  0  0
   11.7090    2.7670   11.4210 C   0  0  0  0  0  0  0  0  0  0  0  0
   12.4660    2.3010   12.4920 O   0  0  0  0  0  1  0  0  0  0  0  0
   10.0360    6.7340   13.3670 C   0  0  0  0  0  2  0  0  0  0  0  0
    8.5680    6.6760   13.5510 C   0  0  0  0  0  2  0  0  0  0  0  0
    7.7550    7.6190   12.8760 N   0  0  0  0  0  4  0  0  0  0  0  0
    7.1600    8.6130   13.7440 C   0  0  0  0  0  2  0  0  0  0  0  0
    5.6550    8.6840   13.6420 C   0  0  0  0  0  2  0  0  0  0  0  0
    5.1670    8.7480   12.3630 O   0  0  0  0  0  0  0  0  0  0  0  0
    5.7350    7.8250   11.5050 C   0  0  0  0  0  2  0  0  0  0  0  0
    6.6100    6.8930   12.2880 C   0  0  0  0  0  2  0  0  0  0  0  0
    8.2160    8.0530   12.0600 H   0  0  0  0  0  0  0  0  0  0  0  0
   12.9460    5.8380   12.0570 C   0  0  0  0  0  0  0  0  0  0  0  0
   12.9400    7.1200   11.6100 C   0  0  0  0  0  3  0  0  0  0  0  0
   14.0940    7.8220   11.2940 C   0  0  0  0  0  3  0  0  0  0  0  0
   15.3050    7.2110   11.4330 C   0  0  0  0  0  0  0  0  0  0  0  0
   16.7920    8.0360   11.0550 Cl  0  0  0  0  0  0  0  0  0  0  0  0
   15.3450    5.8920   11.8910 C   0  0  0  0  0  3  0  0  0  0  0  0
   14.1860    5.2160   12.1970 C   0  0  0  0  0  3  0  0  0  0  0  0
   11.3370    1.7750   10.4180 C   0  0  0  0  0  0  0  0  0  0  0  0
   12.3740    1.2660    9.6450 C   0  0  0  0  0  3  0  0  0  0  0  0
   12.1030    0.3130    8.7030 C   0  0  0  0  0  3  0  0  0  0  0  0
   10.8180   -0.1530    8.5030 C   0  0  0  0  0  0  0  0  0  0  0  0
    9.7940    0.3550    9.2730 C   0  0  0  0  0  3  0  0  0  0  0  0
   10.5230   -1.3610    7.2960 Cl  0  0  0  0  0  0  0  0  0  0  0  0
   10.0800    1.3160   10.2220 C   0  0  0  0  0  3  0  0  0  0  0  0
  1 19  1  6  0  0  0
  2  1  1  0  0  0  0
  2 10  1  0  0  0  0
  3  2  1  0  0  0  0
  4  3  2  0  0  0  0
  5  3  1  0  0  0  0
  5  7  1  0  0  0  0
  6  5  2  0  0  0  0
  7  8  2  0  0  0  0
  7  1  1  0  0  0  0
  8  9  1  0  0  0  0
 10 11  1  0  0  0  0
 12 11  1  0  0  0  0
 12 13  1  0  0  0  0
 14 13  1  0  0  0  0
 15 14  1  0  0  0  0
 16 17  1  0  0  0  0
 16 15  1  0  0  0  0
 17 12  1  0  0  0  0
 18 12  1  0  0  0  0
 19 25  1  0  0  0  0
 20 19  2  0  0  0  0
 21 22  2  0  0  0  0
 21 20  1  0  0  0  0
 22 24  1  0  0  0  0
 23 22  1  0  0  0  0
 24 25  2  0  0  0  0
 26  8  1  0  0  0  0
 27 26  2  0  0  0  0
 28 27  1  0  0  0  0
 29 28  2  0  0  0  0
 29 30  1  0  0  0  0
 30 32  2  0  0  0  0
 31 29  1  0  0  0  0
 32 26  1  0  0  0  0
M  END
>  <Pose>
1

>  <Score>
-9.112

$$$$
