/Users/jonathanwahrer/Desktop/Msc/3_Semester/Drug_Design_Praktikum/waehrer_HTS_screening/HTS_experiment/out/docking_results/vina_output/2jam/1630_docked.pdbqt
 OpenBabel03162218333D

 39 43  0  0  1  0  0  0  0  0999 V2000
   13.5170   11.6730   16.3180 Cl  0  0  0  0  0  0  0  0  0  0  0  0
   12.1660   10.7140   15.6920 C   0  0  0  0  0  0  0  0  0  0  0  0
   11.2510   10.1670   16.5580 C   0  0  0  0  0  0  0  0  0  0  0  0
   10.1910    9.4160   16.0700 C   0  0  0  0  0  0  0  0  0  0  0  0
    9.9920    9.1760   14.7370 C   0  0  0  0  0  0  0  0  0  0  0  0
   10.9420    9.7470   13.8760 C   0  0  0  0  0  3  0  0  0  0  0  0
   11.9970   10.4950   14.3490 C   0  0  0  0  0  3  0  0  0  0  0  0
    8.8020    8.3590   14.5630 C   0  0  1  0  0  0  0  0  0  0  0  0
    7.8320    9.1390   13.7990 N   0  0  0  0  0  0  0  0  0  0  0  0
    7.9090    8.5590   12.4860 C   0  0  1  0  0  3  0  0  0  0  0  0
    7.9370    7.0800   12.7990 C   0  0  2  0  0  3  0  0  0  0  0  0
    8.9970    7.0520   13.8780 C   0  0  1  0  0  3  0  0  0  0  0  0
   10.2420    6.8520   13.1640 C   0  0  0  0  0  0  0  0  0  0  0  0
   11.3970    7.0360   13.6050 O   0  0  0  0  0  0  0  0  0  0  0  0
    9.9540    6.4030   11.8470 N   0  0  0  0  0  0  0  0  0  0  0  0
    8.5380    6.2980   11.6890 C   0  0  0  0  0  0  0  0  0  0  0  0
    7.8710    5.6890   10.8180 O   0  0  0  0  0  0  0  0  0  0  0  0
    8.2870    8.1320   15.9340 C   0  0  0  0  0  0  0  0  0  0  0  0
    7.2600    7.4770   16.2800 O   0  0  0  0  0  0  0  0  0  0  0  0
    9.1620    8.7880   16.8250 N   0  0  0  0  0  0  0  0  0  0  0  0
   11.4240   10.3990   18.0190 C   0  0  0  0  0  1  0  0  0  0  0  0
    8.0820   10.1500   13.8430 H   0  0  0  0  0  0  0  0  0  0  0  0
    9.0540    8.7990   17.8750 H   0  0  0  0  0  0  0  0  0  0  0  0
    6.7130    8.9390   11.6420 C   0  0  0  0  0  2  0  0  0  0  0  0
    5.5290    8.1740   12.1930 C   0  0  0  0  0  2  0  0  0  0  0  0
    4.5290    9.0790   12.8130 C   0  0  0  0  0  0  0  0  0  0  0  0
    4.9140   10.1640   13.3350 O   0  0  0  0  0  0  0  0  0  0  0  0
    3.1700    8.6670   12.7840 N   0  0  0  0  0  0  0  0  0  0  0  0
    2.8270    8.1720   11.9440 H   0  0  0  0  0  0  0  0  0  0  0  0
    2.5840    8.8930   13.6280 H   0  0  0  0  0  0  0  0  0  0  0  0
   10.8770    6.0770   10.7750 C   0  0  0  0  0  2  0  0  0  0  0  0
   11.4820    4.7440   10.9480 C   0  0  0  0  0  0  0  0  0  0  0  0
   12.8030    4.6820   11.3390 C   0  0  0  0  0  0  0  0  0  0  0  0
   13.3670    3.4240   11.4990 C   0  0  0  0  0  3  0  0  0  0  0  0
   12.6470    2.2830   11.2800 C   0  0  0  0  0  3  0  0  0  0  0  0
   11.3320    2.3880   10.8920 C   0  0  0  0  0  3  0  0  0  0  0  0
   10.7150    3.6060   10.7150 C   0  0  0  0  0  3  0  0  0  0  0  0
   13.5090    5.8460   11.5540 O   0  0  0  0  0  0  0  0  0  0  0  0
   14.8180    5.9100   12.0270 C   0  0  0  0  0  1  0  0  0  0  0  0
  2  1  1  0  0  0  0
  2  3  1  0  0  0  0
  3 21  1  0  0  0  0
  4  3  2  0  0  0  0
  4 20  1  0  0  0  0
  5  4  1  0  0  0  0
  6  7  1  0  0  0  0
  6  5  2  0  0  0  0
  7  2  2  0  0  0  0
  8  5  1  1  0  0  0
  8 18  1  0  0  0  0
  9 22  1  0  0  0  0
  9  8  1  0  0  0  0
 10 24  1  6  0  0  0
 10 11  1  0  0  0  0
 10  9  1  0  0  0  0
 11 16  1  6  0  0  0
 11 12  1  0  0  0  0
 12 13  1  6  0  0  0
 12  8  1  0  0  0  0
 13 14  2  0  0  0  0
 15 13  1  0  0  0  0
 16 15  1  0  0  0  0
 17 16  2  0  0  0  0
 18 19  2  0  0  0  0
 18 20  1  0  0  0  0
 20 23  1  0  0  0  0
 24 25  1  0  0  0  0
 25 26  1  0  0  0  0
 26 27  2  0  0  0  0
 28 26  1  0  0  0  0
 28 30  1  0  0  0  0
 29 28  1  0  0  0  0
 31 32  1  0  0  0  0
 31 15  1  0  0  0  0
 32 33  1  0  0  0  0
 33 34  2  0  0  0  0
 33 38  1  0  0  0  0
 35 34  1  0  0  0  0
 36 35  2  0  0  0  0
 37 36  1  0  0  0  0
 37 32  2  0  0  0  0
 38 39  1  0  0  0  0
M  END
>  <Pose>
1

>  <Score>
-8.208

$$$$
