/Users/jonathanwahrer/Desktop/Msc/3_Semester/Drug_Design_Praktikum/waehrer_HTS_screening/HTS_experiment/out/docking_results/vina_output/2jam/1631_docked.pdbqt
 OpenBabel03162218333D

 29 32  0  0  1  0  0  0  0  0999 V2000
   11.7670    4.5110   12.2720 C   0  0  1  0  0  3  0  0  0  0  0  0
   10.4750    5.1350   12.3030 N   0  0  0  0  0  0  0  0  0  0  0  0
    9.8220    5.0010   11.0450 C   0  0  0  0  0  0  0  0  0  0  0  0
    8.8180    5.6480   10.6270 O   0  0  0  0  0  0  0  0  0  0  0  0
   10.5320    3.9510   10.2840 C   0  0  0  0  0  0  0  0  0  0  0  0
   10.2310    3.5720    9.1290 O   0  0  0  0  0  0  0  0  0  0  0  0
   11.6020    3.5050   11.1660 C   0  0  0  0  0  0  0  0  0  0  0  0
   12.3090    2.4130   10.9670 C   0  0  0  0  0  0  0  0  0  0  0  0
   13.3450    2.1460   11.8850 O   0  0  0  0  0  1  0  0  0  0  0  0
   12.8810    5.4530   11.9990 C   0  0  0  0  0  0  0  0  0  0  0  0
   14.1770    5.1940   12.4260 C   0  0  0  0  0  3  0  0  0  0  0  0
   15.2370    6.0380   12.1940 C   0  0  0  0  0  0  0  0  0  0  0  0
   16.8580    5.6770   12.7460 Cl  0  0  0  0  0  0  0  0  0  0  0  0
   14.9910    7.2020   11.4990 C   0  0  0  0  0  3  0  0  0  0  0  0
   13.7210    7.5030   11.0540 C   0  0  0  0  0  3  0  0  0  0  0  0
   12.6780    6.6390   11.3010 C   0  0  0  0  0  3  0  0  0  0  0  0
   12.0850    1.4740    9.8760 C   0  0  0  0  0  0  0  0  0  0  0  0
   13.0490    1.3450    8.8660 C   0  0  0  0  0  3  0  0  0  0  0  0
   12.8780    0.4450    7.8380 C   0  0  0  0  0  3  0  0  0  0  0  0
   11.7680   -0.3680    7.7480 C   0  0  0  0  0  3  0  0  0  0  0  0
   10.8100   -0.2580    8.7300 C   0  0  0  0  0  3  0  0  0  0  0  0
   10.9850    0.6550    9.7700 C   0  0  0  0  0  3  0  0  0  0  0  0
    9.9140    5.7980   13.4160 C   0  0  1  0  0  3  0  0  0  0  0  0
    8.6000    5.5480   13.6570 N   0  0  0  0  0  0  0  0  0  0  0  0
    7.9540    6.1110   14.6780 C   0  0  0  0  0  3  0  0  0  0  0  0
    8.0530    4.8920   13.0340 H   0  0  0  0  0  0  0  0  0  0  0  0
    8.6570    6.9630   15.4990 C   0  0  0  0  0  3  0  0  0  0  0  0
    9.9890    7.2010   15.2360 C   0  0  0  0  0  3  0  0  0  0  0  0
   10.6330    6.6300   14.2020 N   0  0  0  0  0  0  0  0  0  0  0  0
  1 10  1  6  0  0  0
  1  2  1  0  0  0  0
  3  2  1  0  0  0  0
  4  3  2  0  0  0  0
  5  3  1  0  0  0  0
  5  7  1  0  0  0  0
  6  5  2  0  0  0  0
  7  1  1  0  0  0  0
  8  7  2  0  0  0  0
  8  9  1  0  0  0  0
 10 11  1  0  0  0  0
 12 11  2  0  0  0  0
 12 13  1  0  0  0  0
 14 12  1  0  0  0  0
 15 16  1  0  0  0  0
 15 14  2  0  0  0  0
 16 10  2  0  0  0  0
 17  8  1  0  0  0  0
 18 17  2  0  0  0  0
 19 18  1  0  0  0  0
 20 19  2  0  0  0  0
 20 21  1  0  0  0  0
 21 22  2  0  0  0  0
 22 17  1  0  0  0  0
 23  2  1  1  0  0  0
 23 24  1  0  0  0  0
 23 29  1  0  0  0  0
 24 25  1  0  0  0  0
 25 27  2  0  0  0  0
 26 24  1  0  0  0  0
 28 27  1  0  0  0  0
 29 28  2  0  0  0  0
M  END
>  <Pose>
1

>  <Score>
-9.108

$$$$
