/Users/jonathanwahrer/Desktop/Msc/3_Semester/Drug_Design_Praktikum/waehrer_HTS_screening/HTS_experiment/out/docking_results/vina_output/2jam/1657_docked.pdbqt
 OpenBabel03162218343D

 33 36  0  0  1  0  0  0  0  0999 V2000
   15.0710    0.6840    8.1950 Cl  0  0  0  0  0  0  0  0  0  0  0  0
   14.0750    1.7130    9.2310 C   0  0  0  0  0  0  0  0  0  0  0  0
   14.6660    2.5550   10.1480 C   0  0  0  0  0  3  0  0  0  0  0  0
   13.8980    3.3450   10.9400 C   0  0  0  0  0  0  0  0  0  0  0  0
   12.5010    3.3110   10.8350 C   0  0  0  0  0  0  0  0  0  0  0  0
   11.9330    2.4640    9.9140 C   0  0  0  0  0  3  0  0  0  0  0  0
   12.7040    1.6500    9.0950 C   0  0  0  0  0  3  0  0  0  0  0  0
   11.6890    4.1380   11.6620 N   0  0  0  0  0  0  0  0  0  0  0  0
   12.2440    5.3800   12.1770 C   0  0  2  0  0  0  0  0  0  0  0  0
   13.5410    5.0520   12.7210 N   0  0  0  0  0  0  0  0  0  0  0  0
   14.4290    4.2680   11.9410 C   0  0  0  0  0  0  0  0  0  0  0  0
   15.6800    4.3220   12.0610 O   0  0  0  0  0  0  0  0  0  0  0  0
   11.3460    5.8890   13.2540 C   0  0  0  0  0  2  0  0  0  0  0  0
   10.2140    6.7460   12.7370 C   0  0  0  0  0  2  0  0  0  0  0  0
    9.5380    6.1330   11.6130 N   0  0  0  0  0  0  0  0  0  0  0  0
   10.2050    5.8260   10.3630 C   0  0  0  0  0  0  0  0  0  0  0  0
    9.5230    5.1700    9.5420 O   0  0  0  0  0  0  0  0  0  0  0  0
   11.5630    6.1640    9.9060 C   0  0  0  0  0  2  0  0  0  0  0  0
   12.4940    6.3760   11.0620 C   0  0  0  0  0  2  0  0  0  0  0  0
   10.7220    3.8050   11.8590 H   0  0  0  0  0  0  0  0  0  0  0  0
   13.8600    5.3620   13.6600 H   0  0  0  0  0  0  0  0  0  0  0  0
    8.1800    5.7770   11.6870 C   0  0  0  0  0  2  0  0  0  0  0  0
    7.1250    6.7630   11.7480 C   0  0  0  0  0  0  0  0  0  0  0  0
    5.9260    6.1800   11.7790 O   0  0  0  0  0  0  0  0  0  0  0  0
    7.1710    8.1380   11.7820 N   0  0  0  0  0  0  0  0  0  0  0  0
    5.8910    8.8890   11.8430 C   0  0  0  0  0  2  0  0  0  0  0  0
    8.3190    8.9570   11.7860 C   0  0  0  0  0  2  0  0  0  0  0  0
    6.1370    9.9570   12.9200 C   0  0  0  0  0  2  0  0  0  0  0  0
    7.2000    9.5820   13.7920 N   0  0  0  0  0  0  0  0  0  0  0  0
    8.5080    9.5580   13.2080 C   0  0  0  0  0  2  0  0  0  0  0  0
    7.1450   10.1100   15.1120 C   0  0  0  0  0  3  0  0  0  0  0  0
    5.7540   10.1070   15.7140 C   0  0  0  0  0  1  0  0  0  0  0  0
    8.0970    9.4440   16.0680 C   0  0  0  0  0  1  0  0  0  0  0  0
  1  2  1  0  0  0  0
  2  3  1  0  0  0  0
  3  4  2  0  0  0  0
  4 11  1  0  0  0  0
  5  4  1  0  0  0  0
  5  8  1  0  0  0  0
  6  5  2  0  0  0  0
  7  2  2  0  0  0  0
  7  6  1  0  0  0  0
  8 20  1  0  0  0  0
  8  9  1  0  0  0  0
  9 19  1  6  0  0  0
  9 10  1  0  0  0  0
  9 13  1  0  0  0  0
 10 21  1  0  0  0  0
 11 12  2  0  0  0  0
 11 10  1  0  0  0  0
 14 13  1  0  0  0  0
 15 22  1  0  0  0  0
 15 14  1  0  0  0  0
 16 15  1  0  0  0  0
 17 16  2  0  0  0  0
 18 16  1  0  0  0  0
 18 19  1  0  0  0  0
 22 23  1  0  0  0  0
 23 24  2  0  0  0  0
 23 25  1  0  0  0  0
 25 27  1  0  0  0  0
 25 26  1  0  0  0  0
 26 28  1  0  0  0  0
 27 30  1  0  0  0  0
 28 29  1  0  0  0  0
 29 31  1  0  0  0  0
 30 29  1  0  0  0  0
 31 32  1  0  0  0  0
 31 33  1  0  0  0  0
M  END
>  <Pose>
1

>  <Score>
-9.143

$$$$
