/Users/jonathanwahrer/Desktop/Msc/3_Semester/Drug_Design_Praktikum/waehrer_HTS_screening/HTS_experiment/out/docking_results/vina_output/2jam/1660_docked.pdbqt
 OpenBabel03162218343D

 31 34  0  0  0  0  0  0  0  0999 V2000
   11.9180    1.6700   10.1070 N   0  0  0  0  0  0  0  0  0  0  0  0
   13.1630    1.6530   10.5000 N   0  0  0  0  0  0  0  0  0  0  0  0
   13.5010    2.7500   11.1870 C   0  0  0  0  0  3  0  0  0  0  0  0
   12.3680    3.5500   11.2430 C   0  0  0  0  0  0  0  0  0  0  0  0
   11.3950    2.8360   10.5510 C   0  0  0  0  0  0  0  0  0  0  0  0
   10.1930    3.4110   10.4590 N   0  0  0  0  0  0  0  0  0  0  0  0
    9.9400    4.6190   11.0090 C   0  0  0  0  0  3  0  0  0  0  0  0
   10.8580    5.3310   11.6810 N   0  0  0  0  0  0  0  0  0  0  0  0
   12.0940    4.7790   11.7950 C   0  0  0  0  0  0  0  0  0  0  0  0
   12.9860    5.4100   12.4150 O   0  0  0  0  0  0  0  0  0  0  0  0
   10.5840    6.6360   12.2920 C   0  0  0  0  0  2  0  0  0  0  0  0
    9.3280    7.2260   11.7970 C   0  0  0  0  0  0  0  0  0  0  0  0
    9.4300    7.8320   10.6730 O   0  0  0  0  0  0  0  0  0  0  0  0
    8.0810    7.1880   12.4160 N   0  0  0  0  0  0  0  0  0  0  0  0
    6.9220    7.8800   11.8310 C   0  0  0  0  0  2  0  0  0  0  0  0
    7.8250    6.4560   13.6360 C   0  0  0  0  0  2  0  0  0  0  0  0
    6.5820    8.9720   12.8540 C   0  0  0  0  0  2  0  0  0  0  0  0
    6.4400    8.4010   14.1670 N   0  0  0  0  0  0  0  0  0  0  0  0
    6.5630    6.9600   14.2870 C   0  0  0  0  0  2  0  0  0  0  0  0
    6.2170    9.2110   15.3020 C   0  0  0  0  0  0  0  0  0  0  0  0
    6.1780   10.4850   15.1220 O   0  0  0  0  0  0  0  0  0  0  0  0
    6.0320    8.7710   16.5930 O   0  0  0  0  0  0  0  0  0  0  0  0
    5.2560    9.5410   17.5320 C   0  0  0  0  0  2  0  0  0  0  0  0
    3.8420    8.9940   17.4610 C   0  0  0  0  0  1  0  0  0  0  0  0
   11.2320    0.6660    9.3770 C   0  0  0  0  0  0  0  0  0  0  0  0
   11.8040   -0.1720    8.4550 C   0  0  0  0  0  3  0  0  0  0  0  0
   11.0330   -1.0950    7.7760 C   0  0  0  0  0  3  0  0  0  0  0  0
    9.6780   -1.2340    7.9730 C   0  0  0  0  0  0  0  0  0  0  0  0
    8.6880   -2.3810    7.1300 Cl  0  0  0  0  0  0  0  0  0  0  0  0
    9.0820   -0.3980    8.8990 C   0  0  0  0  0  3  0  0  0  0  0  0
    9.8680    0.5170    9.5660 C   0  0  0  0  0  3  0  0  0  0  0  0
  1  2  1  0  0  0  0
  1  5  1  0  0  0  0
  2  3  2  0  0  0  0
  3  4  1  0  0  0  0
  4  9  1  0  0  0  0
  5  4  2  0  0  0  0
  6  5  1  0  0  0  0
  6  7  2  0  0  0  0
  7  8  1  0  0  0  0
  8  9  1  0  0  0  0
  8 11  1  0  0  0  0
  9 10  2  0  0  0  0
 12 11  1  0  0  0  0
 12 14  1  0  0  0  0
 13 12  2  0  0  0  0
 14 16  1  0  0  0  0
 15 14  1  0  0  0  0
 15 17  1  0  0  0  0
 16 19  1  0  0  0  0
 17 18  1  0  0  0  0
 18 19  1  0  0  0  0
 18 20  1  0  0  0  0
 20 22  1  0  0  0  0
 21 20  2  0  0  0  0
 22 23  1  0  0  0  0
 24 23  1  0  0  0  0
 25 31  1  0  0  0  0
 25  1  1  0  0  0  0
 26 25  2  0  0  0  0
 27 28  2  0  0  0  0
 27 26  1  0  0  0  0
 28 30  1  0  0  0  0
 29 28  1  0  0  0  0
 30 31  2  0  0  0  0
M  END
>  <Pose>
1

>  <Score>
-9.350

$$$$
