/Users/jonathanwahrer/Desktop/Msc/3_Semester/Drug_Design_Praktikum/waehrer_HTS_screening/HTS_experiment/out/docking_results/vina_output/2jam/1666_docked.pdbqt
 OpenBabel03162218353D

 30 34  0  0  1  0  0  0  0  0999 V2000
    4.7450    8.6000   13.6660 N   0  0  0  0  0  0  0  0  0  0  0  0
    4.9640    8.8470   12.2650 C   0  0  0  0  0  2  0  0  0  0  0  0
    6.2630    8.2370   11.7880 C   0  0  0  0  0  2  0  0  0  0  0  0
    7.3880    8.7160   12.6310 N   0  0  0  0  0  0  0  0  0  0  0  0
    7.1660    8.2150   13.9800 C   0  0  0  0  0  2  0  0  0  0  0  0
    5.7450    7.7340   14.2120 C   0  0  0  0  0  2  0  0  0  0  0  0
    8.5460    8.0650   12.0580 C   0  0  0  0  0  2  0  0  0  0  0  0
    8.4020    6.6740   11.6080 C   0  0  0  0  0  2  0  0  0  0  0  0
    9.5570    5.8580   11.4440 N   0  0  0  0  0  0  0  0  0  0  0  0
   10.2680    5.4790   10.2720 C   0  0  0  0  0  0  0  0  0  0  0  0
    9.7890    5.4190    9.1300 O   0  0  0  0  0  0  0  0  0  0  0  0
   11.6700    5.1680   10.6430 C   0  0  1  0  0  3  0  0  0  0  0  0
   11.4700    4.6680   12.0920 C   0  0  2  0  0  3  0  0  0  0  0  0
   12.1110    3.9110    9.9830 C   0  0  2  0  0  3  0  0  0  0  0  0
   11.4630    3.1880   12.0040 C   0  0  1  0  0  3  0  0  0  0  0  0
   10.2500    5.2940   12.5800 C   0  0  0  0  0  0  0  0  0  0  0  0
   11.0460    2.9520   10.5430 C   0  0  0  0  0  2  0  0  0  0  0  0
   12.9090    2.7650   11.8470 C   0  0  0  0  0  2  0  0  0  0  0  0
   13.3010    3.4140   10.7510 C   0  0  0  0  0  2  0  0  0  0  0  0
    9.8920    5.3200   13.7840 O   0  0  0  0  0  0  0  0  0  0  0  0
    4.2480    9.9070   14.5950 S   0  0  0  0  0  0  0  0  0  0  0  0
    4.9140   11.1580   14.0360 O   0  0  0  0  0  0  0  0  0  0  0  0
    2.7610   10.1330   14.3190 O   0  0  0  0  0  0  0  0  0  0  0  0
    4.4380    9.7870   16.2970 C   0  0  0  0  0  0  0  0  0  0  0  0
    5.6110   10.1670   16.9030 C   0  0  0  0  0  3  0  0  0  0  0  0
    5.7240   10.0660   18.2780 C   0  0  0  0  0  3  0  0  0  0  0  0
    4.6980    9.5930   19.0750 C   0  0  0  0  0  0  0  0  0  0  0  0
    3.5230    9.2130   18.4630 C   0  0  0  0  0  3  0  0  0  0  0  0
    4.8530    9.4510   20.9700 Br  0  0  0  0  0  0  0  0  0  0  0  0
    3.4100    9.3150   17.0810 C   0  0  0  0  0  3  0  0  0  0  0  0
  1  6  1  0  0  0  0
  1 21  1  0  0  0  0
  2  1  1  0  0  0  0
  3  2  1  0  0  0  0
  3  4  1  0  0  0  0
  4  5  1  0  0  0  0
  5  6  1  0  0  0  0
  7  4  1  0  0  0  0
  8  7  1  0  0  0  0
  9  8  1  0  0  0  0
  9 16  1  0  0  0  0
 10  9  1  0  0  0  0
 11 10  2  0  0  0  0
 12 10  1  6  0  0  0
 12 13  1  0  0  0  0
 13 16  1  6  0  0  0
 14 17  1  1  0  0  0
 14 12  1  0  0  0  0
 14 19  1  0  0  0  0
 15 17  1  6  0  0  0
 15 13  1  0  0  0  0
 16 20  2  0  0  0  0
 18 15  1  0  0  0  0
 19 18  1  0  0  0  0
 21 24  1  0  0  0  0
 22 21  2  0  0  0  0
 23 21  2  0  0  0  0
 24 25  2  0  0  0  0
 24 30  1  0  0  0  0
 25 26  1  0  0  0  0
 26 27  2  0  0  0  0
 27 29  1  0  0  0  0
 28 27  1  0  0  0  0
 30 28  2  0  0  0  0
M  END
>  <Pose>
1

>  <Score>
-9.146

$$$$
