/Users/jonathanwahrer/Desktop/Msc/3_Semester/Drug_Design_Praktikum/waehrer_HTS_screening/HTS_experiment/out/docking_results/vina_output/2jam/1673_docked.pdbqt
 OpenBabel03162218353D

 35 38  0  0  1  0  0  0  0  0999 V2000
   11.9750    5.6020   10.4630 C   0  0  2  0  0  3  0  0  0  0  0  0
   12.4280    6.6550   11.4380 C   0  0  1  0  0  3  0  0  0  0  0  0
   11.2980    7.0820   12.1350 N   0  0  0  0  0  0  0  0  0  0  0  0
   10.2770    7.1210   11.0600 C   0  0  0  0  0  0  0  0  0  0  0  0
    9.3070    7.9200   10.9610 O   0  0  0  0  0  0  0  0  0  0  0  0
   10.6050    6.0510   10.1310 C   0  0  0  0  0  0  0  0  0  0  0  0
    9.8470    5.6080    9.2220 O   0  0  0  0  0  0  0  0  0  0  0  0
   13.7560    6.4900   11.9720 C   0  0  0  0  0  0  0  0  0  0  0  0
   14.0590    6.0990   13.2390 C   0  0  0  0  0  3  0  0  0  0  0  0
   15.3740    5.9500   13.6500 C   0  0  0  0  0  0  0  0  0  0  0  0
   16.4090    6.2120   12.7400 C   0  0  0  0  0  0  0  0  0  0  0  0
   16.1030    6.6050   11.4680 C   0  0  0  0  0  3  0  0  0  0  0  0
   14.8120    6.7490   11.0650 C   0  0  0  0  0  3  0  0  0  0  0  0
   17.7360    6.0810   13.0980 O   0  0  0  0  0  1  0  0  0  0  0  0
   11.9730    4.2360   10.9870 C   0  0  0  0  0  0  0  0  0  0  0  0
   11.8180    4.0440   12.2430 O   0  0  0  0  0  0  0  0  0  0  0  0
   12.1330    3.0200   10.2030 C   0  0  0  0  0  0  0  0  0  0  0  0
   13.3620    2.6090    9.7370 C   0  0  0  0  0  3  0  0  0  0  0  0
   13.4220    1.4520    8.9680 C   0  0  0  0  0  3  0  0  0  0  0  0
   12.3250    0.6960    8.6480 C   0  0  0  0  0  0  0  0  0  0  0  0
   12.4850   -0.8990    7.5760 Br  0  0  0  0  0  0  0  0  0  0  0  0
   11.0920    1.1030    9.1120 C   0  0  0  0  0  3  0  0  0  0  0  0
   11.0310    2.2470    9.8720 C   0  0  0  0  0  3  0  0  0  0  0  0
   10.8810    7.5730   13.4110 C   0  0  0  0  0  2  0  0  0  0  0  0
    9.6690    6.9680   14.0100 C   0  0  0  0  0  2  0  0  0  0  0  0
    8.3990    7.5430   13.8800 N   0  0  0  0  0  4  0  0  0  0  0  0
    7.3540    6.5590   13.5680 C   0  0  0  0  0  2  0  0  0  0  0  0
    7.1620    5.5560   14.6560 C   0  0  0  0  0  2  0  0  0  0  0  0
    7.8910    5.9240   15.7630 O   0  0  0  0  0  0  0  0  0  0  0  0
    7.5030    7.2270   16.1160 C   0  0  0  0  0  2  0  0  0  0  0  0
    8.0380    8.2410   15.1270 C   0  0  0  0  0  2  0  0  0  0  0  0
    8.3570    8.2470   13.1470 H   0  0  0  0  0  0  0  0  0  0  0  0
   15.7090    5.5590   14.9070 O   0  0  0  0  0  0  0  0  0  0  0  0
   15.6470    6.3810   16.0260 C   0  0  0  0  0  2  0  0  0  0  0  0
   15.9340    5.6600   17.3310 C   0  0  0  0  0  1  0  0  0  0  0  0
  1 15  1  1  0  0  0
  1  2  1  0  0  0  0
  2  8  1  1  0  0  0
  2  3  1  0  0  0  0
  3 24  1  0  0  0  0
  4  3  1  0  0  0  0
  5  4  2  0  0  0  0
  6  1  1  0  0  0  0
  6  4  1  0  0  0  0
  7  6  2  0  0  0  0
  8  9  1  0  0  0  0
  9 10  2  0  0  0  0
 10 33  1  0  0  0  0
 11 14  1  0  0  0  0
 11 10  1  0  0  0  0
 12 11  2  0  0  0  0
 13 12  1  0  0  0  0
 13  8  2  0  0  0  0
 15 16  2  0  0  0  0
 17 15  1  0  0  0  0
 18 17  2  0  0  0  0
 19 18  1  0  0  0  0
 20 19  2  0  0  0  0
 20 22  1  0  0  0  0
 21 20  1  0  0  0  0
 22 23  2  0  0  0  0
 23 17  1  0  0  0  0
 24 25  1  0  0  0  0
 26 25  1  0  0  0  0
 26 31  1  0  0  0  0
 27 26  1  0  0  0  0
 27 28  1  0  0  0  0
 28 29  1  0  0  0  0
 29 30  1  0  0  0  0
 31 30  1  0  0  0  0
 32 26  1  0  0  0  0
 33 34  1  0  0  0  0
 34 35  1  0  0  0  0
M  END
>  <Pose>
1

>  <Score>
-8.480

$$$$
