/Users/jonathanwahrer/Desktop/Msc/3_Semester/Drug_Design_Praktikum/waehrer_HTS_screening/HTS_experiment/out/docking_results/vina_output/2jam/1676_docked.pdbqt
 OpenBabel03162218353D

 25 28  0  0  0  0  0  0  0  0999 V2000
   12.2110    3.5580   10.2350 C   0  0  0  0  0  0  0  0  0  0  0  0
   12.9140    3.7490   11.2460 O   0  0  0  0  0  0  0  0  0  0  0  0
   11.3410    4.5900    9.8020 N   0  0  0  0  0  0  0  0  0  0  0  0
   10.7520    4.4440    8.9660 H   0  0  0  0  0  0  0  0  0  0  0  0
   12.3150    2.2770    9.5440 C   0  0  0  0  0  0  0  0  0  0  0  0
   13.5400    1.9190    9.0070 C   0  0  0  0  0  0  0  0  0  0  0  0
   13.6630    0.7190    8.3510 C   0  0  0  0  0  0  0  0  0  0  0  0
   14.7530    2.5330    8.9770 N   0  0  0  0  0  0  0  0  0  0  0  0
   12.5680   -0.1050    8.2390 C   0  0  0  0  0  3  0  0  0  0  0  0
   14.9520    0.6380    7.9400 N   0  0  0  0  0  0  0  0  0  0  0  0
   11.3450    0.2460    8.7700 C   0  0  0  0  0  0  0  0  0  0  0  0
    9.8390   -0.9190    8.5990 Br  0  0  0  0  0  0  0  0  0  0  0  0
   11.2140    1.4420    9.4270 C   0  0  0  0  0  3  0  0  0  0  0  0
   15.5630    1.7390    8.3350 N   0  0  0  0  0  0  0  0  0  0  0  0
   14.9000    3.4650    9.4170 H   0  0  0  0  0  0  0  0  0  0  0  0
   11.2580    5.8460   10.5060 C   0  0  0  0  0  2  0  0  0  0  0  0
    9.8580    6.0200   11.0290 C   0  0  0  0  0  0  0  0  0  0  0  0
    9.4740    6.7570   12.0830 N   0  0  0  0  0  0  0  0  0  0  0  0
    8.1380    6.6790   12.2580 C   0  0  0  0  0  0  0  0  0  0  0  0
   10.1990    7.5830   13.0230 C   0  0  0  0  0  2  0  0  0  0  0  0
    7.6860    5.8740   11.2890 N   0  0  0  0  0  0  0  0  0  0  0  0
    7.5750    7.4530   13.3980 C   0  0  0  0  0  2  0  0  0  0  0  0
    8.7270    5.4730   10.5430 N   0  0  0  0  0  0  0  0  0  0  0  0
    8.0790    8.8870   13.1820 C   0  0  0  0  0  2  0  0  0  0  0  0
    9.5640    8.9570   13.0370 C   0  0  0  0  0  2  0  0  0  0  0  0
  1  2  2  0  0  0  0
  3  1  1  0  0  0  0
  3 16  1  0  0  0  0
  4  3  1  0  0  0  0
  5  1  1  0  0  0  0
  6  5  2  0  0  0  0
  7  6  1  0  0  0  0
  8  6  1  0  0  0  0
  8 15  1  0  0  0  0
  9  7  2  0  0  0  0
  9 11  1  0  0  0  0
 10 14  2  0  0  0  0
 10  7  1  0  0  0  0
 11 13  2  0  0  0  0
 12 11  1  0  0  0  0
 13  5  1  0  0  0  0
 14  8  1  0  0  0  0
 16 17  1  0  0  0  0
 17 18  1  0  0  0  0
 18 19  1  0  0  0  0
 18 20  1  0  0  0  0
 19 22  1  0  0  0  0
 20 25  1  0  0  0  0
 21 19  2  0  0  0  0
 23 17  2  0  0  0  0
 23 21  1  0  0  0  0
 24 22  1  0  0  0  0
 25 24  1  0  0  0  0
M  END
>  <Pose>
1

>  <Score>
-8.625

$$$$
