/Users/jonathanwahrer/Desktop/Msc/3_Semester/Drug_Design_Praktikum/waehrer_HTS_screening/HTS_experiment/out/docking_results/vina_output/2jam/1689_docked.pdbqt
 OpenBabel03162218363D

 32 35  0  0  1  0  0  0  0  0999 V2000
   14.9230    5.1730   12.0230 C   0  0  0  0  0  0  0  0  0  0  0  0
   15.9440    5.6720   12.5560 O   0  0  0  0  0  0  0  0  0  0  0  0
   13.9840    6.0410   11.4270 N   0  0  0  0  0  0  0  0  0  0  0  0
   12.7310    5.7620   10.7570 C   0  0  0  0  0  2  0  0  0  0  0  0
   11.8520    6.8370   11.2190 C   0  0  2  0  0  3  0  0  0  0  0  0
   12.7320    7.8720   11.9220 C   0  0  1  0  0  3  0  0  0  0  0  0
   14.1160    7.4740   11.3670 C   0  0  0  0  0  2  0  0  0  0  0  0
   14.7640    3.7040   12.0540 C   0  0  0  0  0  2  0  0  0  0  0  0
   15.3280    3.0910   10.8080 C   0  0  0  0  0  2  0  0  0  0  0  0
   14.3290    2.2490   10.1220 C   0  0  0  0  0  0  0  0  0  0  0  0
   13.0290    2.0980   10.4980 N   0  0  0  0  0  0  0  0  0  0  0  0
   12.3800    1.2570    9.6770 C   0  0  0  0  0  0  0  0  0  0  0  0
   12.5450    2.5530   11.3110 H   0  0  0  0  0  0  0  0  0  0  0  0
   11.0860    0.7700    9.6060 C   0  0  0  0  0  3  0  0  0  0  0  0
   13.2980    0.8540    8.7380 C   0  0  0  0  0  0  0  0  0  0  0  0
   10.7140   -0.1140    8.6030 C   0  0  0  0  0  0  0  0  0  0  0  0
    9.0770   -0.7190    8.5330 Cl  0  0  0  0  0  0  0  0  0  0  0  0
   11.6310   -0.5220    7.6580 C   0  0  0  0  0  3  0  0  0  0  0  0
   12.9240   -0.0240    7.7440 C   0  0  0  0  0  3  0  0  0  0  0  0
   14.4580    1.4590    9.0230 N   0  0  0  0  0  0  0  0  0  0  0  0
   10.6790    6.5700   11.9570 N   0  0  0  0  0  0  0  0  0  0  0  0
   10.7230    6.7790   13.3010 C   0  0  0  0  0  3  0  0  0  0  0  0
    9.6310    6.5500   14.1080 C   0  0  0  0  0  0  0  0  0  0  0  0
    8.4510    6.0990   13.5650 C   0  0  0  0  0  0  0  0  0  0  0  0
    9.6940    6.7870   15.5870 C   0  0  0  0  0  1  0  0  0  0  0  0
    7.4300    5.8810   14.2850 O   0  0  0  0  0  0  0  0  0  0  0  0
    8.4080    5.8930   12.2400 N   0  0  0  0  0  0  0  0  0  0  0  0
    9.4980    6.1320   11.5080 C   0  0  0  0  0  0  0  0  0  0  0  0
    7.5050    5.5410   11.7940 H   0  0  0  0  0  0  0  0  0  0  0  0
    9.4010    5.9260   10.2810 O   0  0  0  0  0  0  0  0  0  0  0  0
   12.4220    9.1650   11.5810 O   0  0  0  0  0  0  0  0  0  0  0  0
   12.5940    9.2800   10.6130 H   0  0  0  0  0  0  0  0  0  0  0  0
  1  8  1  0  0  0  0
  1  2  2  0  0  0  0
  3  1  1  0  0  0  0
  4  3  1  0  0  0  0
  5  4  1  1  0  0  0
  5  6  1  0  0  0  0
  5 21  1  0  0  0  0
  6 31  1  6  0  0  0
  7  3  1  0  0  0  0
  7  6  1  0  0  0  0
  9  8  1  0  0  0  0
 10 11  1  0  0  0  0
 10  9  1  0  0  0  0
 11 13  1  0  0  0  0
 12 11  1  0  0  0  0
 14 12  1  0  0  0  0
 15 20  1  0  0  0  0
 15 12  2  0  0  0  0
 16 14  2  0  0  0  0
 17 16  1  0  0  0  0
 18 19  2  0  0  0  0
 18 16  1  0  0  0  0
 19 15  1  0  0  0  0
 20 10  2  0  0  0  0
 21 22  1  0  0  0  0
 22 23  2  0  0  0  0
 23 25  1  0  0  0  0
 24 23  1  0  0  0  0
 24 26  2  0  0  0  0
 27 24  1  0  0  0  0
 28 21  1  0  0  0  0
 28 27  1  0  0  0  0
 29 27  1  0  0  0  0
 30 28  2  0  0  0  0
 32 31  1  0  0  0  0
M  END
>  <Pose>
1

>  <Score>
-8.803

$$$$
