/Users/jonathanwahrer/Desktop/Msc/3_Semester/Drug_Design_Praktikum/waehrer_HTS_screening/HTS_experiment/out/docking_results/vina_output/2jam/1690_docked.pdbqt
 OpenBabel03162218363D

 34 37  0  0  1  0  0  0  0  0999 V2000
   10.7690    5.1380   11.3790 C   0  0  0  0  0  0  0  0  0  0  0  0
   10.5290    5.0430   10.1480 O   0  0  0  0  0  0  0  0  0  0  0  0
   10.4500    6.3290   12.0980 N   0  0  0  0  0  0  0  0  0  0  0  0
   10.6980    6.5090   13.5110 C   0  0  0  0  0  2  0  0  0  0  0  0
    9.5610    7.3220   14.1540 C   0  0  2  0  0  0  0  0  0  0  0  0
    8.3510    7.0880   13.3150 C   0  0  2  0  0  3  0  0  0  0  0  0
    8.5100    7.8140   11.9980 C   0  0  0  0  0  2  0  0  0  0  0  0
    9.8420    7.4320   11.3850 C   0  0  0  0  0  2  0  0  0  0  0  0
   10.0280    8.7410   14.2260 C   0  0  0  0  0  1  0  0  0  0  0  0
   11.3890    4.0210   12.1120 C   0  0  0  0  0  2  0  0  0  0  0  0
   12.6170    3.5610   11.3810 C   0  0  0  0  0  2  0  0  0  0  0  0
   12.2450    2.4540   10.4670 C   0  0  0  0  0  0  0  0  0  0  0  0
   11.0170    1.8690   10.4170 N   0  0  0  0  0  0  0  0  0  0  0  0
   10.9970    0.8930    9.5010 C   0  0  0  0  0  0  0  0  0  0  0  0
   10.2120    2.1700   11.0320 H   0  0  0  0  0  0  0  0  0  0  0  0
   10.0270    0.0190    9.0720 C   0  0  0  0  0  3  0  0  0  0  0  0
   12.2550    0.8570    8.9510 C   0  0  0  0  0  0  0  0  0  0  0  0
   10.2710   -0.9190    8.0840 C   0  0  0  0  0  0  0  0  0  0  0  0
    9.0440   -2.0350    7.5300 Cl  0  0  0  0  0  0  0  0  0  0  0  0
   11.5400   -0.9500    7.5350 C   0  0  0  0  0  3  0  0  0  0  0  0
   12.5230   -0.0680    7.9660 C   0  0  0  0  0  3  0  0  0  0  0  0
   12.9660    1.8090    9.5620 N   0  0  0  0  0  0  0  0  0  0  0  0
    9.4240    6.7990   15.4480 O   0  0  0  0  0  0  0  0  0  0  0  0
   10.3430    6.6150   15.8240 H   0  0  0  0  0  0  0  0  0  0  0  0
    7.0990    7.3240   13.9430 N   0  0  0  0  0  0  0  0  0  0  0  0
    6.4580    8.5010   13.9070 C   0  0  0  0  0  3  0  0  0  0  0  0
    5.2330    8.6950   14.5340 C   0  0  0  0  0  0  0  0  0  0  0  0
    4.6580    7.6480   15.2140 C   0  0  0  0  0  0  0  0  0  0  0  0
    4.5610   10.0380   14.4570 C   0  0  0  0  0  1  0  0  0  0  0  0
    3.5380    7.8200   15.7890 O   0  0  0  0  0  0  0  0  0  0  0  0
    5.3020    6.4720   15.2500 N   0  0  0  0  0  0  0  0  0  0  0  0
    6.4840    6.3350   14.6260 C   0  0  0  0  0  0  0  0  0  0  0  0
    4.8760    5.6710   15.7610 H   0  0  0  0  0  0  0  0  0  0  0  0
    7.0960    5.2100   14.6630 O   0  0  0  0  0  0  0  0  0  0  0  0
  1  3  1  0  0  0  0
  1 10  1  0  0  0  0
  2  1  2  0  0  0  0
  3  4  1  0  0  0  0
  4  5  1  0  0  0  0
  5  9  1  1  0  0  0
  5 23  1  0  0  0  0
  6  7  1  6  0  0  0
  6 25  1  0  0  0  0
  6  5  1  0  0  0  0
  8  7  1  0  0  0  0
  8  3  1  0  0  0  0
 11 10  1  0  0  0  0
 12 11  1  0  0  0  0
 13 12  1  0  0  0  0
 13 15  1  0  0  0  0
 14 13  1  0  0  0  0
 16 14  1  0  0  0  0
 17 14  2  0  0  0  0
 17 22  1  0  0  0  0
 18 16  2  0  0  0  0
 19 18  1  0  0  0  0
 20 21  2  0  0  0  0
 20 18  1  0  0  0  0
 21 17  1  0  0  0  0
 22 12  2  0  0  0  0
 23 24  1  0  0  0  0
 25 32  1  0  0  0  0
 26 25  1  0  0  0  0
 26 27  2  0  0  0  0
 27 28  1  0  0  0  0
 28 31  1  0  0  0  0
 28 30  2  0  0  0  0
 29 27  1  0  0  0  0
 31 33  1  0  0  0  0
 32 34  2  0  0  0  0
 32 31  1  0  0  0  0
M  END
>  <Pose>
1

>  <Score>
-9.929

$$$$
