/Users/jonathanwahrer/Desktop/Msc/3_Semester/Drug_Design_Praktikum/waehrer_HTS_screening/HTS_experiment/out/docking_results/vina_output/2jam/1699_docked.pdbqt
 OpenBabel03162218373D

 31 34  0  0  1  0  0  0  0  0999 V2000
   11.4210    2.1400   11.1510 Cl  0  0  0  0  0  0  0  0  0  0  0  0
   11.0640    3.8360   11.1130 C   0  0  0  0  0  0  0  0  0  0  0  0
   10.7030    4.5140   12.2680 C   0  0  0  0  0  3  0  0  0  0  0  0
   10.4160    5.8640   12.2540 C   0  0  0  0  0  0  0  0  0  0  0  0
   10.4970    6.5240   11.0600 C   0  0  0  0  0  0  0  0  0  0  0  0
   10.8590    5.8770    9.8740 C   0  0  0  0  0  3  0  0  0  0  0  0
   11.1390    4.5300    9.9250 C   0  0  0  0  0  3  0  0  0  0  0  0
   10.1480    7.8900   11.2420 N   0  0  0  0  0  0  0  0  0  0  0  0
    9.8330    8.0860   12.6120 C   0  0  0  0  0  0  0  0  0  0  0  0
    9.4510    9.2200   13.0470 O   0  0  0  0  0  0  0  0  0  0  0  0
   10.0350    6.8150   13.2960 C   0  0  2  0  0  0  0  0  0  0  0  0
   11.0540    6.9110   14.3450 N   0  0  0  0  0  0  0  0  0  0  0  0
   10.3210    7.5990   15.3830 C   0  0  1  0  0  3  0  0  0  0  0  0
    8.9400    7.0260   15.3730 C   0  0  2  0  0  3  0  0  0  0  0  0
    8.8750    6.2920   14.0670 C   0  0  1  0  0  3  0  0  0  0  0  0
    7.5500    6.5670   13.4580 C   0  0  0  0  0  0  0  0  0  0  0  0
    7.1760    5.9740   12.4130 O   0  0  0  0  0  0  0  0  0  0  0  0
    6.9020    7.5430   14.2580 N   0  0  0  0  0  0  0  0  0  0  0  0
    7.8790    8.0640   15.1670 C   0  0  0  0  0  0  0  0  0  0  0  0
    7.8900    9.1700   15.7170 O   0  0  0  0  0  0  0  0  0  0  0  0
   10.1280    8.6400   10.4890 H   0  0  0  0  0  0  0  0  0  0  0  0
   11.2110    5.9290   14.6660 H   0  0  0  0  0  0  0  0  0  0  0  0
   10.9930    7.4960   16.7280 C   0  0  2  0  0  3  0  0  0  0  0  0
   10.9320    8.7850   17.5060 C   0  0  0  0  0  1  0  0  0  0  0  0
   12.3150    7.1280   16.5130 O   0  0  0  0  0  0  0  0  0  0  0  0
   12.9180    7.9090   16.4150 H   0  0  0  0  0  0  0  0  0  0  0  0
    5.5450    7.9310   14.1840 C   0  0  0  0  0  3  0  0  0  0  0  0
    5.0890    8.7470   13.0390 C   0  0  0  0  0  3  0  0  0  0  0  0
    6.1190    9.3720   12.1800 C   0  0  0  0  0  2  0  0  0  0  0  0
    6.2400    8.8570   10.8980 O   0  0  0  0  0  0  0  0  0  0  0  0
    5.0090    8.2360   10.5760 C   0  0  0  0  0  1  0  0  0  0  0  0
  2  1  1  0  0  0  0
  2  3  1  0  0  0  0
  4  3  2  0  0  0  0
  5  8  1  0  0  0  0
  5  4  1  0  0  0  0
  6  7  1  0  0  0  0
  6  5  2  0  0  0  0
  7  2  2  0  0  0  0
  8  9  1  0  0  0  0
  9 10  2  0  0  0  0
  9 11  1  0  0  0  0
 11  4  1  6  0  0  0
 11 15  1  0  0  0  0
 11 12  1  0  0  0  0
 12 22  1  0  0  0  0
 12 13  1  0  0  0  0
 13 23  1  1  0  0  0
 14 19  1  6  0  0  0
 14 13  1  0  0  0  0
 15 16  1  6  0  0  0
 15 14  1  0  0  0  0
 16 18  1  0  0  0  0
 17 16  2  0  0  0  0
 18 19  1  0  0  0  0
 19 20  2  0  0  0  0
 21  8  1  0  0  0  0
 23 24  1  6  0  0  0
 25 23  1  0  0  0  0
 26 25  1  0  0  0  0
 27 18  1  0  0  0  0
 28 27  2  0  0  0  0
 29 28  1  0  0  0  0
 30 29  1  0  0  0  0
 31 30  1  0  0  0  0
M  END
>  <Pose>
1

>  <Score>
-7.065

$$$$
