/Users/jonathanwahrer/Desktop/Msc/3_Semester/Drug_Design_Praktikum/waehrer_HTS_screening/HTS_experiment/out/docking_results/vina_output/2jam/1706_docked.pdbqt
 OpenBabel03162218373D

 25 28  0  0  1  0  0  0  0  0999 V2000
   12.4860   -1.4070    9.0510 F   0  0  0  0  0  0  0  0  0  0  0  0
   11.7300   -0.2910    9.3230 C   0  0  0  0  0  0  0  0  0  0  0  0
   12.3780    0.8600    9.7880 C   0  0  0  0  0  0  0  0  0  0  0  0
   11.6470    1.9760   10.0630 C   0  0  0  0  0  0  0  0  0  0  0  0
   10.2570    1.9730    9.8830 C   0  0  0  0  0  3  0  0  0  0  0  0
    9.6500    0.8350    9.4280 C   0  0  0  0  0  3  0  0  0  0  0  0
   10.3680   -0.3020    9.1440 C   0  0  0  0  0  0  0  0  0  0  0  0
    9.5770   -1.7710    8.5560 Cl  0  0  0  0  0  0  0  0  0  0  0  0
   12.5700    3.0430   10.5340 C   0  0  2  0  0  0  0  0  0  0  0  0
   12.1850    3.4550   11.8470 N   0  0  0  0  0  0  0  0  0  0  0  0
   11.2160    4.4620   12.0390 C   0  0  0  0  0  0  0  0  0  0  0  0
   10.5930    4.6440   13.2330 N   0  0  0  0  0  0  0  0  0  0  0  0
    9.6690    5.5820   13.4680 C   0  0  0  0  0  3  0  0  0  0  0  0
    9.3030    6.4440   12.4400 C   0  0  0  0  0  3  0  0  0  0  0  0
    9.8820    6.3270   11.2080 C   0  0  0  0  0  3  0  0  0  0  0  0
   10.8270    5.3390   11.0360 C   0  0  0  0  0  0  0  0  0  0  0  0
   11.5060    5.1310    9.7540 C   0  0  0  0  0  0  0  0  0  0  0  0
   11.1790    5.9170    8.8000 O   0  0  0  0  0  0  0  0  0  0  0  0
   12.4720    4.1250    9.5700 N   0  0  0  0  0  0  0  0  0  0  0  0
   13.8980    2.4200   10.5010 C   0  0  0  0  0  0  0  0  0  0  0  0
   15.0180    2.9630   10.8260 O   0  0  0  0  0  0  0  0  0  0  0  0
   13.7680    1.0980   10.0460 N   0  0  0  0  0  0  0  0  0  0  0  0
   12.6120    3.0210   12.7020 H   0  0  0  0  0  0  0  0  0  0  0  0
   13.0910    4.1990    8.7300 H   0  0  0  0  0  0  0  0  0  0  0  0
   14.5130    0.3670    9.9000 H   0  0  0  0  0  0  0  0  0  0  0  0
  1  2  1  0  0  0  0
  2  3  1  0  0  0  0
  3 22  1  0  0  0  0
  3  4  2  0  0  0  0
  5  4  1  0  0  0  0
  6  5  2  0  0  0  0
  7  2  2  0  0  0  0
  7  6  1  0  0  0  0
  8  7  1  0  0  0  0
  9  4  1  6  0  0  0
  9 10  1  0  0  0  0
 10 11  1  0  0  0  0
 10 23  1  0  0  0  0
 11 12  1  0  0  0  0
 12 13  2  0  0  0  0
 14 13  1  0  0  0  0
 15 14  2  0  0  0  0
 16 15  1  0  0  0  0
 16 11  2  0  0  0  0
 17 16  1  0  0  0  0
 18 17  2  0  0  0  0
 19 17  1  0  0  0  0
 19  9  1  0  0  0  0
 20  9  1  0  0  0  0
 20 21  2  0  0  0  0
 22 20  1  0  0  0  0
 24 19  1  0  0  0  0
 25 22  1  0  0  0  0
M  END
>  <Pose>
1

>  <Score>
-8.078

$$$$
