/Users/jonathanwahrer/Desktop/Msc/3_Semester/Drug_Design_Praktikum/waehrer_HTS_screening/HTS_experiment/out/docking_results/vina_output/2jam/1718_docked.pdbqt
 OpenBabel03162218373D

 34 38  0  0  1  0  0  0  0  0999 V2000
   10.9940   -0.9180    8.5360 Cl  0  0  0  0  0  0  0  0  0  0  0  0
   12.3000    0.2450    8.5680 C   0  0  0  0  0  0  0  0  0  0  0  0
   12.2590    1.2220    9.5640 C   0  0  0  0  0  0  0  0  0  0  0  0
   13.2690    2.1560    9.6220 C   0  0  0  0  0  0  0  0  0  0  0  0
   14.2900    2.0780    8.6730 C   0  0  0  0  0  3  0  0  0  0  0  0
   14.3210    1.1100    7.6920 C   0  0  0  0  0  3  0  0  0  0  0  0
   13.3100    0.1750    7.6350 C   0  0  0  0  0  3  0  0  0  0  0  0
   13.0500    3.0900   10.7260 C   0  0  1  0  0  0  0  0  0  0  0  0
   14.1590    3.1320   11.6600 N   0  0  0  0  0  0  0  0  0  0  0  0
   14.0340    4.4120   12.3440 C   0  0  2  0  0  3  0  0  0  0  0  0
   13.4630    5.3730   11.3380 C   0  0  1  0  0  3  0  0  0  0  0  0
   12.8430    4.5150   10.2630 C   0  0  2  0  0  3  0  0  0  0  0  0
   11.4030    4.8780   10.2340 C   0  0  0  0  0  0  0  0  0  0  0  0
   10.5740    4.2380    9.5280 O   0  0  0  0  0  0  0  0  0  0  0  0
   11.1770    5.9890   11.0850 N   0  0  0  0  0  0  0  0  0  0  0  0
   12.2900    6.0790   11.9610 C   0  0  0  0  0  0  0  0  0  0  0  0
   12.3580    6.6420   13.0900 O   0  0  0  0  0  0  0  0  0  0  0  0
   11.8000    2.6350   11.3560 C   0  0  0  0  0  0  0  0  0  0  0  0
   11.2100    3.1450   12.3770 O   0  0  0  0  0  0  0  0  0  0  0  0
   11.3550    1.5070   10.6230 N   0  0  0  0  0  0  0  0  0  0  0  0
   15.0810    3.0450   11.1770 H   0  0  0  0  0  0  0  0  0  0  0  0
   10.4800    0.9510   10.8240 H   0  0  0  0  0  0  0  0  0  0  0  0
   15.3860    4.8360   12.8360 C   0  0  0  0  0  2  0  0  0  0  0  0
   16.2040    5.1830   11.6300 C   0  0  0  0  0  0  0  0  0  0  0  0
   16.6300    4.2200   10.9430 O   0  0  0  0  0  0  0  0  0  0  0  0
   16.4950    6.5220   11.2640 N   0  0  0  0  0  0  0  0  0  0  0  0
   15.7320    7.0920   10.8490 H   0  0  0  0  0  0  0  0  0  0  0  0
   17.4250    6.9700   11.3840 H   0  0  0  0  0  0  0  0  0  0  0  0
   10.0520    6.8510   11.0610 C   0  0  0  0  0  2  0  0  0  0  0  0
    8.8270    6.3880   11.7460 C   0  0  2  0  0  3  0  0  0  0  0  0
    7.6690    7.0750   11.4170 O   0  0  0  0  0  0  0  0  0  0  0  0
    6.7140    6.3420   12.1220 C   0  0  0  0  0  2  0  0  0  0  0  0
    7.3330    6.1270   13.5090 C   0  0  0  0  0  2  0  0  0  0  0  0
    8.8180    6.4130   13.2300 C   0  0  0  0  0  2  0  0  0  0  0  0
  1  2  1  0  0  0  0
  2  3  1  0  0  0  0
  3  4  2  0  0  0  0
  3 20  1  0  0  0  0
  5  4  1  0  0  0  0
  6  5  2  0  0  0  0
  7  6  1  0  0  0  0
  7  2  2  0  0  0  0
  8  4  1  6  0  0  0
  8 18  1  0  0  0  0
  8  9  1  0  0  0  0
  9 10  1  0  0  0  0
 10 23  1  6  0  0  0
 11 16  1  1  0  0  0
 11 10  1  0  0  0  0
 12 13  1  1  0  0  0
 12  8  1  0  0  0  0
 12 11  1  0  0  0  0
 13 15  1  0  0  0  0
 14 13  2  0  0  0  0
 15 16  1  0  0  0  0
 16 17  2  0  0  0  0
 18 19  2  0  0  0  0
 20 22  1  0  0  0  0
 20 18  1  0  0  0  0
 21  9  1  0  0  0  0
 24 23  1  0  0  0  0
 25 24  2  0  0  0  0
 26 28  1  0  0  0  0
 26 24  1  0  0  0  0
 27 26  1  0  0  0  0
 29 15  1  0  0  0  0
 30 29  1  6  0  0  0
 30 34  1  0  0  0  0
 31 30  1  0  0  0  0
 31 32  1  0  0  0  0
 32 33  1  0  0  0  0
 34 33  1  0  0  0  0
M  END
>  <Pose>
1

>  <Score>
-9.479

$$$$
