/Users/jonathanwahrer/Desktop/Msc/3_Semester/Drug_Design_Praktikum/waehrer_HTS_screening/HTS_experiment/out/docking_results/vina_output/2jam/1721_docked.pdbqt
 OpenBabel03162218373D

 28 31  0  0  1  0  0  0  0  0999 V2000
   10.5160    3.1300   10.4040 C   0  0  0  0  0  2  0  0  0  0  0  0
   11.5740    2.2220   10.6470 N   0  0  0  0  0  0  0  0  0  0  0  0
   12.0260    2.1700   11.5640 H   0  0  0  0  0  0  0  0  0  0  0  0
   12.0300    1.3620    9.5760 C   0  0  0  0  0  0  0  0  0  0  0  0
   13.3360    1.5160    9.1750 C   0  0  1  0  0  3  0  0  0  0  0  0
   13.8140    0.7090    8.1460 C   0  0  0  0  0  0  0  0  0  0  0  0
   14.3740    2.2900    9.5220 N   0  0  0  0  0  0  0  0  0  0  0  0
   12.9460   -0.1650    7.6240 N   0  0  0  0  0  4  0  0  0  0  0  0
   15.0990    1.0320    7.9270 N   0  0  0  0  0  0  0  0  0  0  0  0
   11.6860   -0.3210    8.0040 C   0  0  0  0  0  0  0  0  0  0  0  0
   10.6390   -1.4950    7.2500 Cl  0  0  0  0  0  0  0  0  0  0  0  0
   11.2200    0.4620    9.0030 N   0  0  0  0  0  0  0  0  0  0  0  0
   15.4580    2.0120    8.7740 C   0  0  0  0  0  3  0  0  0  0  0  0
   14.2940    3.0080   10.2900 H   0  0  0  0  0  0  0  0  0  0  0  0
   10.8490    4.5430   10.4920 C   0  0  0  0  0  0  0  0  0  0  0  0
   11.2590    5.0480    9.3080 O   0  0  0  0  0  0  0  0  0  0  0  0
   10.8230    5.4290   11.5340 N   0  0  0  0  0  0  0  0  0  0  0  0
   10.5470    5.1730   12.9060 C   0  0  0  0  0  2  0  0  0  0  0  0
   11.1030    6.8710   11.1760 C   0  0  0  0  0  2  0  0  0  0  0  0
    9.2760    5.8810   13.3700 C   0  0  0  0  0  2  0  0  0  0  0  0
    9.1960    7.0780   12.5830 N   0  0  0  0  0  0  0  0  0  0  0  0
   10.4220    7.7370   12.2420 C   0  0  0  0  0  2  0  0  0  0  0  0
    7.9730    7.6180   12.1460 C   0  0  0  0  0  0  0  0  0  0  0  0
    6.9450    6.8260   11.7260 N   0  0  0  0  0  0  0  0  0  0  0  0
    5.7740    7.2690   11.3020 C   0  0  0  0  0  3  0  0  0  0  0  0
    5.4910    8.6040   11.2480 C   0  0  0  0  0  3  0  0  0  0  0  0
    6.4950    9.4680   11.6610 C   0  0  0  0  0  3  0  0  0  0  0  0
    7.7150    8.9800   12.1020 C   0  0  0  0  0  3  0  0  0  0  0  0
  1 15  1  0  0  0  0
  1  2  1  0  0  0  0
  2  3  1  0  0  0  0
  4  2  1  0  0  0  0
  5  6  1  6  0  0  0
  5  7  1  0  0  0  0
  5  4  1  0  0  0  0
  7 14  1  0  0  0  0
  8 10  2  0  0  0  0
  8  6  2  0  0  0  0
  9  6  1  0  0  0  0
  9 13  2  0  0  0  0
 10 12  1  0  0  0  0
 11 10  1  0  0  0  0
 12  4  2  0  0  0  0
 13  7  1  0  0  0  0
 15 17  1  0  0  0  0
 16 15  2  0  0  0  0
 17 18  1  0  0  0  0
 18 20  1  0  0  0  0
 19 17  1  0  0  0  0
 19 22  1  0  0  0  0
 21 20  1  0  0  0  0
 22 21  1  0  0  0  0
 23 21  1  0  0  0  0
 24 23  2  0  0  0  0
 25 24  1  0  0  0  0
 26 25  2  0  0  0  0
 26 27  1  0  0  0  0
 27 28  2  0  0  0  0
 28 23  1  0  0  0  0
M  END
>  <Pose>
1

>  <Score>
-8.829

$$$$
