/Users/jonathanwahrer/Desktop/Msc/3_Semester/Drug_Design_Praktikum/waehrer_HTS_screening/HTS_experiment/out/docking_results/vina_output/2jam/1726_docked.pdbqt
 OpenBabel03162218383D

 30 33  0  0  1  0  0  0  0  0999 V2000
   12.5320    4.6080   10.7300 N   0  0  0  0  0  4  0  0  0  0  0  0
   11.7430    4.0360   11.7700 C   0  0  0  0  0  2  0  0  0  0  0  0
   11.6210    2.5450   11.7340 C   0  0  1  0  0  3  0  0  0  0  0  0
   10.7460    2.0230   10.6510 C   0  0  0  0  0  2  0  0  0  0  0  0
   11.4240    1.2720    9.6320 N   0  0  0  0  0  0  0  0  0  0  0  0
   12.7360    1.3790    9.3490 C   0  0  0  0  0  0  0  0  0  0  0  0
   13.3810    0.6660    8.3800 C   0  0  0  0  0  3  0  0  0  0  0  0
   12.6550   -0.2340    7.6270 C   0  0  0  0  0  3  0  0  0  0  0  0
   11.3150   -0.3490    7.9090 C   0  0  0  0  0  3  0  0  0  0  0  0
   10.6970    0.3860    8.8930 C   0  0  0  0  0  0  0  0  0  0  0  0
    9.4670    0.2530    9.1230 O   0  0  0  0  0  0  0  0  0  0  0  0
   13.4730    2.3820   10.2080 C   0  0  1  0  0  3  0  0  0  0  0  0
   13.0540    3.7250    9.7590 C   0  0  0  0  0  2  0  0  0  0  0  0
   13.0590    2.0280   11.6160 C   0  0  0  0  0  2  0  0  0  0  0  0
   13.3550    5.1010   11.1930 H   0  0  0  0  0  0  0  0  0  0  0  0
   11.7470    5.6700   10.1320 C   0  0  0  0  0  2  0  0  0  0  0  0
   10.3630    5.7870   10.6860 C   0  0  1  0  0  3  0  0  0  0  0  0
   10.2120    7.2220   11.1890 C   0  0  0  0  0  2  0  0  0  0  0  0
    9.4940    7.1530   12.3870 O   0  0  0  0  0  0  0  0  0  0  0  0
    8.5170    7.9840   12.8200 C   0  0  0  0  0  0  0  0  0  0  0  0
    7.1920    7.6450   12.6560 C   0  0  0  0  0  0  0  0  0  0  0  0
    6.7780    5.9890   11.8120 Br  0  0  0  0  0  0  0  0  0  0  0  0
    6.1590    8.4740   13.0870 C   0  0  0  0  0  3  0  0  0  0  0  0
    6.4550    9.6600   13.6910 C   0  0  0  0  0  0  0  0  0  0  0  0
    7.7740   10.0290   13.8710 C   0  0  0  0  0  3  0  0  0  0  0  0
    5.3400   10.5450   14.1520 C   0  0  0  0  0  1  0  0  0  0  0  0
    8.7990    9.1850   13.4320 C   0  0  0  0  0  0  0  0  0  0  0  0
   10.6200    9.6830   13.6740 Br  0  0  0  0  0  0  0  0  0  0  0  0
    9.4300    5.4970    9.6920 O   0  0  0  0  0  0  0  0  0  0  0  0
    8.7120    4.9640   10.1380 H   0  0  0  0  0  0  0  0  0  0  0  0
  1 15  1  0  0  0  0
  1  2  1  0  0  0  0
  3  4  1  6  0  0  0
  3  2  1  0  0  0  0
  5  4  1  0  0  0  0
  6  5  1  0  0  0  0
  6 12  1  0  0  0  0
  7  6  2  0  0  0  0
  8  9  2  0  0  0  0
  8  7  1  0  0  0  0
  9 10  1  0  0  0  0
 10 11  2  0  0  0  0
 10  5  1  0  0  0  0
 12 13  1  6  0  0  0
 12 14  1  0  0  0  0
 13  1  1  0  0  0  0
 14  3  1  0  0  0  0
 16  1  1  0  0  0  0
 17 16  1  6  0  0  0
 17 18  1  0  0  0  0
 18 19  1  0  0  0  0
 19 20  1  0  0  0  0
 20 27  1  0  0  0  0
 21 20  2  0  0  0  0
 21 23  1  0  0  0  0
 22 21  1  0  0  0  0
 23 24  2  0  0  0  0
 24 25  1  0  0  0  0
 24 26  1  0  0  0  0
 27 28  1  0  0  0  0
 27 25  2  0  0  0  0
 29 30  1  0  0  0  0
 29 17  1  0  0  0  0
M  END
>  <Pose>
1

>  <Score>
-8.732

$$$$
