/Users/jonathanwahrer/Desktop/Msc/3_Semester/Drug_Design_Praktikum/waehrer_HTS_screening/HTS_experiment/out/docking_results/vina_output/2jam/1732_docked.pdbqt
 OpenBabel03162218383D

 28 31  0  0  0  0  0  0  0  0999 V2000
   11.6710    4.4240   10.8450 N   0  0  0  0  0  0  0  0  0  0  0  0
   11.8640    3.6440   11.8960 N   0  0  0  0  0  2  0  0  0  0  0  0
   11.8330    2.3690   11.5250 N   0  0  0  0  0  0  0  0  0  0  0  0
   11.6120    2.3240   10.1950 C   0  0  0  0  0  0  0  0  0  0  0  0
   11.5190    3.6090    9.8140 N   0  0  0  0  0  2  0  0  0  0  0  0
   11.6350    5.8950   10.8230 C   0  0  0  0  0  2  0  0  0  0  0  0
   10.2370    6.3860   10.9410 C   0  0  0  0  0  0  0  0  0  0  0  0
    9.8640    7.2980   11.9290 N   0  0  0  0  0  0  0  0  0  0  0  0
   10.6440    7.6120   12.5820 H   0  0  0  0  0  0  0  0  0  0  0  0
    9.4160    5.9430   10.1170 O   0  0  0  0  0  0  0  0  0  0  0  0
    8.5950    7.8600   12.1810 C   0  0  0  0  0  0  0  0  0  0  0  0
    7.7890    7.3630   13.2060 C   0  0  0  0  0  0  0  0  0  0  0  0
    8.4490    5.9200   14.2380 Br  0  0  0  0  0  0  0  0  0  0  0  0
    6.5450    7.8600   13.5090 C   0  0  0  0  0  3  0  0  0  0  0  0
    6.0420    8.9090   12.7730 C   0  0  0  0  0  3  0  0  0  0  0  0
    6.7870    9.4410   11.7520 C   0  0  0  0  0  3  0  0  0  0  0  0
    8.0500    8.9130   11.4700 C   0  0  0  0  0  3  0  0  0  0  0  0
   11.5020    1.1340    9.3640 C   0  0  0  0  0  0  0  0  0  0  0  0
   12.6480    0.6390    8.7860 C   0  0  0  0  0  0  0  0  0  0  0  0
   12.5410   -0.4930    7.9960 C   0  0  0  0  0  3  0  0  0  0  0  0
   11.3420   -1.1220    7.7780 C   0  0  0  0  0  3  0  0  0  0  0  0
   10.1900   -0.6270    8.3560 C   0  0  0  0  0  3  0  0  0  0  0  0
   10.2990    0.5040    9.1460 C   0  0  0  0  0  3  0  0  0  0  0  0
   13.9300    1.2380    8.9670 N   0  0  0  0  0  0  0  0  0  0  0  0
   14.6320    1.1670   10.0900 N   0  0  0  0  0  0  0  0  0  0  0  0
   15.7610    1.8200    9.9270 N   0  0  0  0  0  0  0  0  0  0  0  0
   15.7770    2.3100    8.6890 N   0  0  0  0  0  0  0  0  0  0  0  0
   14.6260    1.9450    8.0870 C   0  0  0  0  0  3  0  0  0  0  0  0
  1  2  1  0  0  0  0
  3  2  1  0  0  0  0
  4  3  2  0  0  0  0
  5  4  1  0  0  0  0
  5  1  1  0  0  0  0
  6  1  1  0  0  0  0
  6  7  1  0  0  0  0
  7  8  1  0  0  0  0
  8 11  1  0  0  0  0
  8  9  1  0  0  0  0
 10  7  2  0  0  0  0
 11 12  1  0  0  0  0
 12 14  2  0  0  0  0
 12 13  1  0  0  0  0
 15 14  1  0  0  0  0
 16 15  2  0  0  0  0
 17 16  1  0  0  0  0
 17 11  2  0  0  0  0
 18  4  1  0  0  0  0
 19 24  1  0  0  0  0
 19 18  2  0  0  0  0
 20 19  1  0  0  0  0
 21 20  2  0  0  0  0
 21 22  1  0  0  0  0
 22 23  2  0  0  0  0
 23 18  1  0  0  0  0
 24 25  1  0  0  0  0
 26 25  2  0  0  0  0
 27 26  1  0  0  0  0
 28 27  2  0  0  0  0
 28 24  1  0  0  0  0
M  END
>  <Pose>
1

>  <Score>
-9.130

$$$$
