/Users/jonathanwahrer/Desktop/Msc/3_Semester/Drug_Design_Praktikum/waehrer_HTS_screening/HTS_experiment/out/docking_results/vina_output/2jam/1736_docked.pdbqt
 OpenBabel03162218383D

 35 39  0  0  1  0  0  0  0  0999 V2000
   12.1560   12.0120   14.3510 Cl  0  0  0  0  0  0  0  0  0  0  0  0
   11.3280   10.7340   15.2560 C   0  0  0  0  0  0  0  0  0  0  0  0
   10.4730    9.8640   14.6270 C   0  0  0  0  0  3  0  0  0  0  0  0
    9.8380    8.8790   15.3340 C   0  0  0  0  0  0  0  0  0  0  0  0
   10.0620    8.7690   16.6840 C   0  0  0  0  0  0  0  0  0  0  0  0
   10.9240    9.6390   17.3510 C   0  0  0  0  0  3  0  0  0  0  0  0
   11.5480   10.6180   16.6110 C   0  0  0  0  0  3  0  0  0  0  0  0
    9.3190    7.7010   17.2400 N   0  0  0  0  0  0  0  0  0  0  0  0
    8.5910    7.1140   16.1720 C   0  0  0  0  0  0  0  0  0  0  0  0
    7.8130    6.1410   16.2690 O   0  0  0  0  0  0  0  0  0  0  0  0
    8.8860    7.8250   14.9130 C   0  0  1  0  0  0  0  0  0  0  0  0
    7.7030    8.3700   14.2940 N   0  0  0  0  0  0  0  0  0  0  0  0
    7.8560    8.2480   12.8780 C   0  0  1  0  0  3  0  0  0  0  0  0
    8.6620    6.9950   12.6300 C   0  0  2  0  0  3  0  0  0  0  0  0
    9.4450    6.8800   13.9130 C   0  0  1  0  0  3  0  0  0  0  0  0
   10.8650    7.1250   13.5630 C   0  0  0  0  0  0  0  0  0  0  0  0
   11.8160    7.4720   14.3080 O   0  0  0  0  0  0  0  0  0  0  0  0
   10.9670    6.8810   12.1450 N   0  0  0  0  0  0  0  0  0  0  0  0
    9.6780    7.1550   11.5590 C   0  0  0  0  0  0  0  0  0  0  0  0
    9.4360    7.4720   10.3650 O   0  0  0  0  0  0  0  0  0  0  0  0
    9.2810    7.3680   18.2480 H   0  0  0  0  0  0  0  0  0  0  0  0
    7.5570    9.3390   14.5940 H   0  0  0  0  0  0  0  0  0  0  0  0
    6.5200    8.2030   12.1690 C   0  0  1  0  0  3  0  0  0  0  0  0
    5.5710    9.0850   12.9750 C   0  0  0  0  0  1  0  0  0  0  0  0
    6.6790    8.8260   10.9340 O   0  0  0  0  0  0  0  0  0  0  0  0
    5.8180    8.8370   10.4570 H   0  0  0  0  0  0  0  0  0  0  0  0
   12.1410    6.4400   11.4210 C   0  0  0  0  0  2  0  0  0  0  0  0
   12.1070    4.9570   11.2450 C   0  0  0  0  0  0  0  0  0  0  0  0
   13.0600    4.1540   11.8360 C   0  0  0  0  0  0  0  0  0  0  0  0
   13.0060    2.7820   11.6580 C   0  0  0  0  0  3  0  0  0  0  0  0
   12.0200    2.1800   10.9020 C   0  0  0  0  0  3  0  0  0  0  0  0
   11.0630    2.9730   10.3070 C   0  0  0  0  0  3  0  0  0  0  0  0
   11.1270    4.3350   10.4920 C   0  0  0  0  0  3  0  0  0  0  0  0
   14.0580    4.7650   12.6010 O   0  0  0  0  0  0  0  0  0  0  0  0
   15.4190    4.3940   12.3620 C   0  0  0  0  0  1  0  0  0  0  0  0
  1  2  1  0  0  0  0
  2  7  1  0  0  0  0
  3  2  2  0  0  0  0
  3  4  1  0  0  0  0
  4  5  2  0  0  0  0
  5  8  1  0  0  0  0
  5  6  1  0  0  0  0
  7  6  2  0  0  0  0
  8 21  1  0  0  0  0
  9 10  2  0  0  0  0
  9  8  1  0  0  0  0
 11  4  1  1  0  0  0
 11  9  1  0  0  0  0
 12 22  1  0  0  0  0
 12 11  1  0  0  0  0
 13 23  1  6  0  0  0
 13 12  1  0  0  0  0
 14 19  1  6  0  0  0
 14 13  1  0  0  0  0
 14 15  1  0  0  0  0
 15 16  1  6  0  0  0
 15 11  1  0  0  0  0
 16 17  2  0  0  0  0
 18 16  1  0  0  0  0
 19 18  1  0  0  0  0
 20 19  2  0  0  0  0
 23 24  1  1  0  0  0
 25 23  1  0  0  0  0
 26 25  1  0  0  0  0
 27 18  1  0  0  0  0
 28 27  1  0  0  0  0
 28 29  1  0  0  0  0
 29 34  1  0  0  0  0
 30 29  2  0  0  0  0
 31 30  1  0  0  0  0
 32 33  1  0  0  0  0
 32 31  2  0  0  0  0
 33 28  2  0  0  0  0
 35 34  1  0  0  0  0
M  END
>  <Pose>
1

>  <Score>
-7.557

$$$$
