/Users/jonathanwahrer/Desktop/Msc/3_Semester/Drug_Design_Praktikum/waehrer_HTS_screening/HTS_experiment/out/docking_results/vina_output/2jam/1741_docked.pdbqt
 OpenBabel03162218393D

 28 31  0  0  0  0  0  0  0  0999 V2000
   10.4600    4.7780   10.5180 C   0  0  0  0  0  0  0  0  0  0  0  0
   10.4530    5.0100    9.2940 O   0  0  0  0  0  0  0  0  0  0  0  0
   10.3530    5.8300   11.4400 N   0  0  0  0  0  0  0  0  0  0  0  0
   10.2250    7.2170   11.0530 C   0  0  0  0  0  2  0  0  0  0  0  0
    9.0130    7.7700   11.7830 C   0  0  0  0  0  2  0  0  0  0  0  0
    8.3080    6.7610   12.4580 N   0  0  0  0  0  0  0  0  0  0  0  0
    8.9650    5.9520   13.4000 C   0  0  0  0  0  2  0  0  0  0  0  0
   10.3590    5.6010   12.8930 C   0  0  0  0  0  2  0  0  0  0  0  0
   10.5840    3.3540   10.9810 C   0  0  0  0  0  2  0  0  0  0  0  0
   11.7720    2.7190   10.4500 N   0  0  0  0  0  0  0  0  0  0  0  0
   13.0520    3.0110   10.8180 C   0  0  0  0  0  0  0  0  0  0  0  0
   13.9410    2.2280   10.1190 C   0  0  0  0  0  0  0  0  0  0  0  0
   13.5250    3.9220   11.7330 C   0  0  0  0  0  3  0  0  0  0  0  0
   15.3160    2.3260   10.3060 C   0  0  0  0  0  3  0  0  0  0  0  0
   13.1920    1.4220    9.2880 C   0  0  0  0  0  3  0  0  0  0  0  0
   15.8030    3.2500   11.2340 C   0  0  0  0  0  0  0  0  0  0  0  0
   17.6930    3.4100   11.5170 Br  0  0  0  0  0  0  0  0  0  0  0  0
   14.8990    4.0260   11.9260 C   0  0  0  0  0  3  0  0  0  0  0  0
   11.8740    1.7570    9.5250 C   0  0  0  0  0  3  0  0  0  0  0  0
    6.9960    6.4480   12.0680 C   0  0  0  0  0  2  0  0  0  0  0  0
    6.0700    7.6110   12.0390 C   0  0  0  0  0  0  0  0  0  0  0  0
    5.8320    8.1110   10.9110 O   0  0  0  0  0  0  0  0  0  0  0  0
    5.4670    8.1590   13.1810 N   0  0  0  0  0  0  0  0  0  0  0  0
    4.5820    9.3010   13.0660 C   0  0  0  0  0  2  0  0  0  0  0  0
    5.6690    7.6540   14.5250 C   0  0  0  0  0  2  0  0  0  0  0  0
    3.2800    8.9250   13.7420 C   0  0  0  0  0  2  0  0  0  0  0  0
    3.5940    8.7710   15.1000 O   0  0  0  0  0  0  0  0  0  0  0  0
    4.4070    7.6840   15.3140 C   0  0  0  0  0  2  0  0  0  0  0  0
  1  9  1  0  0  0  0
  1  3  1  0  0  0  0
  2  1  2  0  0  0  0
  3  8  1  0  0  0  0
  4  3  1  0  0  0  0
  4  5  1  0  0  0  0
  5  6  1  0  0  0  0
  6  7  1  0  0  0  0
  8  7  1  0  0  0  0
 10 11  1  0  0  0  0
 10  9  1  0  0  0  0
 11 13  1  0  0  0  0
 12 14  1  0  0  0  0
 12 11  2  0  0  0  0
 13 18  2  0  0  0  0
 14 16  2  0  0  0  0
 15 19  2  0  0  0  0
 15 12  1  0  0  0  0
 16 17  1  0  0  0  0
 16 18  1  0  0  0  0
 19 10  1  0  0  0  0
 20  6  1  0  0  0  0
 21 20  1  0  0  0  0
 21 23  1  0  0  0  0
 22 21  2  0  0  0  0
 23 25  1  0  0  0  0
 24 23  1  0  0  0  0
 24 26  1  0  0  0  0
 25 28  1  0  0  0  0
 26 27  1  0  0  0  0
 27 28  1  0  0  0  0
M  END
>  <Pose>
1

>  <Score>
-9.167

$$$$
