/Users/jonathanwahrer/Desktop/Msc/3_Semester/Drug_Design_Praktikum/waehrer_HTS_screening/HTS_experiment/out/docking_results/vina_output/2jam/1744_docked.pdbqt
 OpenBabel03162218393D

 34 37  0  0  1  0  0  0  0  0999 V2000
   12.1990    3.0420   10.3830 N   0  0  0  0  0  0  0  0  0  0  0  0
   13.3950    2.7490   11.1040 C   0  0  0  0  0  0  0  0  0  0  0  0
   13.8500    1.5890   11.2550 O   0  0  0  0  0  0  0  0  0  0  0  0
   14.1160    3.8350   11.6830 N   0  0  0  0  0  0  0  0  0  0  0  0
   13.6210    5.1730   11.5250 C   0  0  0  0  0  0  0  0  0  0  0  0
   14.4270    6.1060   11.8550 O   0  0  0  0  0  0  0  0  0  0  0  0
   12.2680    5.4660   11.0160 C   0  0  1  0  0  3  0  0  0  0  0  0
   11.6950    4.3590   10.2110 C   0  0  0  0  0  0  0  0  0  0  0  0
   10.7740    4.6280    9.4010 O   0  0  0  0  0  0  0  0  0  0  0  0
   15.0050    3.6910   12.2270 H   0  0  0  0  0  0  0  0  0  0  0  0
   11.3370    5.8120   12.1530 C   0  0  1  0  0  3  0  0  0  0  0  0
   10.4480    4.9780   12.6620 C   0  0  0  0  0  2  0  0  0  0  0  0
    9.7710    5.7380   13.7360 C   0  0  1  0  0  3  0  0  0  0  0  0
   10.8080    6.6690   14.1430 N   0  0  0  0  0  0  0  0  0  0  0  0
   11.2830    7.0480   12.8630 N   0  0  0  0  0  0  0  0  0  0  0  0
   10.4910    7.4530   14.7200 H   0  0  0  0  0  0  0  0  0  0  0  0
   11.5450    7.9510   12.4670 H   0  0  0  0  0  0  0  0  0  0  0  0
    8.5890    6.4690   13.2000 C   0  0  0  0  0  0  0  0  0  0  0  0
    7.7210    5.9780   12.2660 C   0  0  0  0  0  3  0  0  0  0  0  0
    6.6150    6.6820   11.8300 C   0  0  0  0  0  0  0  0  0  0  0  0
    6.3450    7.9400   12.3370 C   0  0  0  0  0  0  0  0  0  0  0  0
    7.2410    8.4390   13.2960 C   0  0  0  0  0  3  0  0  0  0  0  0
    8.3370    7.7240   13.7180 C   0  0  0  0  0  3  0  0  0  0  0  0
    5.7530    6.1320   10.8660 O   0  0  0  0  0  0  0  0  0  0  0  0
    5.2890    6.7660   10.2240 H   0  0  0  0  0  0  0  0  0  0  0  0
    5.2520    8.6670   11.9310 O   0  0  0  0  0  0  0  0  0  0  0  0
    4.1890    8.9710   12.8100 C   0  0  0  0  0  1  0  0  0  0  0  0
   11.4870    1.9410    9.8290 C   0  0  0  0  0  0  0  0  0  0  0  0
   12.0760    1.0940    8.9060 C   0  0  0  0  0  3  0  0  0  0  0  0
   11.4230    0.0150    8.3630 C   0  0  0  0  0  0  0  0  0  0  0  0
   12.2040   -1.0210    7.1990 Cl  0  0  0  0  0  0  0  0  0  0  0  0
   10.1210   -0.2160    8.7690 C   0  0  0  0  0  3  0  0  0  0  0  0
    9.4980    0.6060    9.6860 C   0  0  0  0  0  3  0  0  0  0  0  0
   10.2040    1.6860   10.2060 C   0  0  0  0  0  3  0  0  0  0  0  0
  1  2  1  0  0  0  0
  2  3  2  0  0  0  0
  2  4  1  0  0  0  0
  4 10  1  0  0  0  0
  5  4  1  0  0  0  0
  5  6  2  0  0  0  0
  7  8  1  1  0  0  0
  7  5  1  0  0  0  0
  7 11  1  0  0  0  0
  8  1  1  0  0  0  0
  9  8  2  0  0  0  0
 11 12  1  1  0  0  0
 11 15  1  0  0  0  0
 12 13  1  0  0  0  0
 13 18  1  6  0  0  0
 13 14  1  0  0  0  0
 14 16  1  0  0  0  0
 15 14  1  0  0  0  0
 17 15  1  0  0  0  0
 18 23  1  0  0  0  0
 19 18  2  0  0  0  0
 20 19  1  0  0  0  0
 20 21  2  0  0  0  0
 21 22  1  0  0  0  0
 22 23  2  0  0  0  0
 24 20  1  0  0  0  0
 25 24  1  0  0  0  0
 26 21  1  0  0  0  0
 26 27  1  0  0  0  0
 28 34  1  0  0  0  0
 28  1  1  0  0  0  0
 29 28  2  0  0  0  0
 30 32  2  0  0  0  0
 30 29  1  0  0  0  0
 31 30  1  0  0  0  0
 32 33  1  0  0  0  0
 33 34  2  0  0  0  0
M  END
>  <Pose>
1

>  <Score>
-9.723

$$$$
