/Users/jonathanwahrer/Desktop/Msc/3_Semester/Drug_Design_Praktikum/waehrer_HTS_screening/HTS_experiment/out/docking_results/vina_output/2jam/1745_docked.pdbqt
 OpenBabel03162218393D

 34 37  0  0  1  0  0  0  0  0999 V2000
   10.8550    4.6440   10.7250 N   0  0  0  0  0  0  0  0  0  0  0  0
   10.2360    5.6960   10.0030 C   0  0  0  0  0  0  0  0  0  0  0  0
    9.9620    5.5810    8.8010 O   0  0  0  0  0  0  0  0  0  0  0  0
    9.9170    6.9280   10.6650 N   0  0  0  0  0  0  0  0  0  0  0  0
   10.2090    7.1150   12.0490 C   0  0  0  0  0  0  0  0  0  0  0  0
    9.6010    7.9400   12.7510 O   0  0  0  0  0  0  0  0  0  0  0  0
   11.2970    6.2760   12.6660 C   0  0  1  0  0  3  0  0  0  0  0  0
   11.1240    4.9140   12.1180 C   0  0  0  0  0  0  0  0  0  0  0  0
   11.2080    3.8820   12.8760 O   0  0  0  0  0  0  0  0  0  0  0  0
    9.4690    7.6780   10.1230 H   0  0  0  0  0  0  0  0  0  0  0  0
   12.6250    6.8770   12.3390 C   0  0  2  0  0  3  0  0  0  0  0  0
   13.5850    7.2630   13.1540 C   0  0  0  0  0  2  0  0  0  0  0  0
   14.7120    7.7970   12.3410 C   0  0  2  0  0  3  0  0  0  0  0  0
   13.9940    8.1850   11.1000 N   0  0  0  0  0  0  0  0  0  0  0  0
   13.0510    7.1550   10.9980 N   0  0  0  0  0  0  0  0  0  0  0  0
   13.5580    9.1190   11.2250 H   0  0  0  0  0  0  0  0  0  0  0  0
   12.7180    6.6850   10.1620 H   0  0  0  0  0  0  0  0  0  0  0  0
   15.6030    6.6710   11.9500 C   0  0  0  0  0  0  0  0  0  0  0  0
   16.6670    6.8550   11.0410 C   0  0  0  0  0  3  0  0  0  0  0  0
   17.5280    5.8650   10.6810 C   0  0  0  0  0  0  0  0  0  0  0  0
   17.3750    4.6010   11.2190 C   0  0  0  0  0  0  0  0  0  0  0  0
   16.3470    4.3850   12.1090 C   0  0  0  0  0  3  0  0  0  0  0  0
   15.4830    5.3970   12.4650 C   0  0  0  0  0  3  0  0  0  0  0  0
   18.5670    6.1010    9.7690 O   0  0  0  0  0  0  0  0  0  0  0  0
   19.7750    6.6680   10.2270 C   0  0  0  0  0  1  0  0  0  0  0  0
   18.2470    3.5770   10.8630 O   0  0  0  0  0  0  0  0  0  0  0  0
   19.2430    3.7370   10.9290 H   0  0  0  0  0  0  0  0  0  0  0  0
   11.1830    3.3730   10.1800 C   0  0  0  0  0  0  0  0  0  0  0  0
   12.5000    3.1700    9.7510 C   0  0  0  0  0  3  0  0  0  0  0  0
   12.9130    1.9790    9.1950 C   0  0  0  0  0  0  0  0  0  0  0  0
   14.5720    1.8190    8.6850 Cl  0  0  0  0  0  0  0  0  0  0  0  0
   12.0470    0.9300    9.0350 C   0  0  0  0  0  3  0  0  0  0  0  0
   10.7300    1.1230    9.4620 C   0  0  0  0  0  3  0  0  0  0  0  0
   10.3240    2.3180   10.0160 C   0  0  0  0  0  3  0  0  0  0  0  0
  1  8  1  0  0  0  0
  2  4  1  0  0  0  0
  2  1  1  0  0  0  0
  3  2  2  0  0  0  0
  4  5  1  0  0  0  0
  5  6  2  0  0  0  0
  7  5  1  6  0  0  0
  8  7  1  0  0  0  0
  8  9  2  0  0  0  0
 10  4  1  0  0  0  0
 11  7  1  0  0  0  0
 11 12  1  1  0  0  0
 13 18  1  6  0  0  0
 13 12  1  0  0  0  0
 14 16  1  0  0  0  0
 14 13  1  0  0  0  0
 15 14  1  0  0  0  0
 15 11  1  0  0  0  0
 17 15  1  0  0  0  0
 18 23  1  0  0  0  0
 19 18  2  0  0  0  0
 20 19  1  0  0  0  0
 20 21  2  0  0  0  0
 21 22  1  0  0  0  0
 22 23  2  0  0  0  0
 24 25  1  0  0  0  0
 24 20  1  0  0  0  0
 26 27  1  0  0  0  0
 26 21  1  0  0  0  0
 28  1  1  0  0  0  0
 29 28  2  0  0  0  0
 30 29  1  0  0  0  0
 31 30  1  0  0  0  0
 32 30  2  0  0  0  0
 32 33  1  0  0  0  0
 33 34  2  0  0  0  0
 34 28  1  0  0  0  0
M  END
>  <Pose>
1

>  <Score>
-9.162

$$$$
