/Users/jonathanwahrer/Desktop/Msc/3_Semester/Drug_Design_Praktikum/waehrer_HTS_screening/HTS_experiment/out/docking_results/vina_output/2jam/1750_docked.pdbqt
 OpenBabel03162218393D

 27 30  0  0  0  0  0  0  0  0999 V2000
   10.1310    7.0210   11.6900 N   0  0  0  0  0  0  0  0  0  0  0  0
   10.4260    6.7400   10.3180 C   0  0  0  0  0  2  0  0  0  0  0  0
   10.9880    5.3460   10.1160 C   0  0  0  0  0  2  0  0  0  0  0  0
   12.0370    5.1210   11.0740 N   0  0  0  0  0  0  0  0  0  0  0  0
   12.4420    6.2290   11.9160 C   0  0  0  0  0  2  0  0  0  0  0  0
   11.1960    6.7550   12.5960 C   0  0  0  0  0  2  0  0  0  0  0  0
   12.6880    3.8630   11.2270 C   0  0  0  0  0  0  0  0  0  0  0  0
   13.5990    3.6930   12.0700 O   0  0  0  0  0  0  0  0  0  0  0  0
   12.3080    2.7210   10.3930 C   0  0  0  0  0  0  0  0  0  0  0  0
   13.0840    2.1130    9.4540 N   0  0  0  0  0  0  0  0  0  0  0  0
   12.3900    1.1070    8.9000 C   0  0  0  0  0  0  0  0  0  0  0  0
   11.1930    1.0850    9.4850 N   0  0  0  0  0  0  0  0  0  0  0  0
   12.6890    0.1790    7.9150 C   0  0  0  0  0  3  0  0  0  0  0  0
   11.1170    2.0610   10.4000 C   0  0  0  0  0  3  0  0  0  0  0  0
   10.2990    0.1540    9.0980 C   0  0  0  0  0  3  0  0  0  0  0  0
   10.5410   -0.7850    8.1330 C   0  0  0  0  0  0  0  0  0  0  0  0
   11.7840   -0.7780    7.5120 C   0  0  0  0  0  3  0  0  0  0  0  0
    9.3480   -1.9880    7.6530 Cl  0  0  0  0  0  0  0  0  0  0  0  0
    8.6000    6.5410   12.2210 S   0  0  0  0  0  0  0  0  0  0  0  0
    7.9330    5.7090   11.1750 O   0  0  0  0  0  0  0  0  0  0  0  0
    8.7620    5.7050   13.4600 O   0  0  0  0  0  0  0  0  0  0  0  0
    7.5600    7.8490   12.6190 N   0  0  0  0  0  0  0  0  0  0  0  0
    6.1610    7.5230   12.4150 C   0  0  0  0  0  2  0  0  0  0  0  0
    5.4220    8.8260   12.2240 C   0  0  0  0  0  2  0  0  0  0  0  0
    5.9820    9.8510   12.9790 O   0  0  0  0  0  0  0  0  0  0  0  0
    7.2520   10.2130   12.5350 C   0  0  0  0  0  2  0  0  0  0  0  0
    7.8310    9.0180   11.8040 C   0  0  0  0  0  2  0  0  0  0  0  0
  1 19  1  0  0  0  0
  1  6  1  0  0  0  0
  2  1  1  0  0  0  0
  3  2  1  0  0  0  0
  3  4  1  0  0  0  0
  4  7  1  0  0  0  0
  4  5  1  0  0  0  0
  5  6  1  0  0  0  0
  7  8  2  0  0  0  0
  9 14  2  0  0  0  0
  9  7  1  0  0  0  0
 10  9  1  0  0  0  0
 11 10  2  0  0  0  0
 11 12  1  0  0  0  0
 12 14  1  0  0  0  0
 13 11  1  0  0  0  0
 15 12  1  0  0  0  0
 16 15  2  0  0  0  0
 17 13  2  0  0  0  0
 17 16  1  0  0  0  0
 18 16  1  0  0  0  0
 19 22  1  0  0  0  0
 19 21  2  0  0  0  0
 20 19  2  0  0  0  0
 23 22  1  0  0  0  0
 24 23  1  0  0  0  0
 24 25  1  0  0  0  0
 26 25  1  0  0  0  0
 27 26  1  0  0  0  0
 27 22  1  0  0  0  0
M  END
>  <Pose>
1

>  <Score>
-9.151

$$$$
