/Users/jonathanwahrer/Desktop/Msc/3_Semester/Drug_Design_Praktikum/waehrer_HTS_screening/HTS_experiment/out/docking_results/vina_output/2jam/1758_docked.pdbqt
 OpenBabel03162218393D

 28 32  0  0  1  0  0  0  0  0999 V2000
   10.6760    4.6520   11.4170 N   0  0  0  0  0  0  0  0  0  0  0  0
   10.8390    4.8340   12.7150 N   0  0  0  0  0  0  0  0  0  0  0  0
   10.2670    5.9800   13.1360 C   0  0  0  0  0  0  0  0  0  0  0  0
   10.2230    6.4900   14.3430 C   0  0  0  0  0  1  0  0  0  0  0  0
    9.7010    6.5650   12.0200 C   0  0  0  0  0  0  0  0  0  0  0  0
    9.9750    5.7100   10.9750 C   0  0  0  0  0  0  0  0  0  0  0  0
    9.6270    5.8880    9.7800 O   0  0  0  0  0  0  0  0  0  0  0  0
   11.3470    4.1820   13.3580 H   0  0  0  0  0  0  0  0  0  0  0  0
    9.0260    7.7250   11.9900 C   0  0  0  0  0  2  0  0  0  0  0  0
    7.6190    7.6330   11.8090 N   0  0  0  0  0  0  0  0  0  0  0  0
    7.1650    7.1520   11.0080 H   0  0  0  0  0  0  0  0  0  0  0  0
    6.7480    8.2470   12.7980 C   0  0  2  0  0  0  0  0  0  0  0  0
    6.5430    7.2980   13.9690 C   0  0  0  0  0  2  0  0  0  0  0  0
    5.7300    7.9440   14.9620 N   0  0  2  0  0  0  0  0  0  0  0  0
    4.4460    8.2510   14.3400 C   0  0  0  0  0  2  0  0  0  0  0  0
    6.4010    9.1480   15.3940 C   0  0  0  0  0  2  0  0  0  0  0  0
    4.5940    9.1810   13.2560 N   0  0  1  0  0  0  0  0  0  0  0  0
    5.2600   10.3840   13.7040 C   0  0  0  0  0  2  0  0  0  0  0  0
    5.3970    8.5650   12.2300 C   0  0  0  0  0  2  0  0  0  0  0  0
    6.5380   10.1060   14.3010 N   0  0  2  0  0  0  0  0  0  0  0  0
    7.4040    9.5110   13.3090 C   0  0  0  0  0  2  0  0  0  0  0  0
   11.1540    3.5390   10.6360 C   0  0  0  0  0  0  0  0  0  0  0  0
   12.4390    3.4190   10.2130 C   0  0  0  0  0  3  0  0  0  0  0  0
   12.8050    2.3020    9.4600 C   0  0  0  0  0  3  0  0  0  0  0  0
   11.8970    1.3160    9.1330 C   0  0  0  0  0  0  0  0  0  0  0  0
   12.4540   -0.3670    7.9970 I   0  0  0  0  0  0  0  0  0  0  0  0
   10.5940    1.4340    9.5600 C   0  0  0  0  0  3  0  0  0  0  0  0
   10.2530    2.5440   10.3020 C   0  0  0  0  0  3  0  0  0  0  0  0
  1  2  1  0  0  0  0
  2  3  1  0  0  0  0
  2  8  1  0  0  0  0
  3  4  1  0  0  0  0
  5  3  2  0  0  0  0
  6  1  1  0  0  0  0
  6  5  1  0  0  0  0
  7  6  2  0  0  0  0
  9  5  1  0  0  0  0
 10  9  1  0  0  0  0
 11 10  1  0  0  0  0
 12 10  1  6  0  0  0
 12 21  1  0  0  0  0
 12 13  1  0  0  0  0
 14 13  1  6  0  0  0
 14 16  1  0  0  0  0
 15 14  1  0  0  0  0
 17 19  1  6  0  0  0
 17 18  1  0  0  0  0
 17 15  1  0  0  0  0
 18 20  1  0  0  0  0
 19 12  1  0  0  0  0
 20 21  1  6  0  0  0
 20 16  1  0  0  0  0
 22  1  1  0  0  0  0
 23 22  2  0  0  0  0
 24 23  1  0  0  0  0
 25 24  2  0  0  0  0
 25 27  1  0  0  0  0
 26 25  1  0  0  0  0
 27 28  2  0  0  0  0
 28 22  1  0  0  0  0
M  END
>  <Pose>
1

>  <Score>
-8.144

$$$$
