/Users/jonathanwahrer/Desktop/Msc/3_Semester/Drug_Design_Praktikum/waehrer_HTS_screening/HTS_experiment/out/docking_results/vina_output/2jam/1789_docked.pdbqt
 OpenBabel03162218403D

 29 32  0  0  0  0  0  0  0  0999 V2000
   12.4650    1.3120    9.7730 N   0  0  0  0  0  0  0  0  0  0  0  0
   13.7490    1.1130    9.9530 N   0  0  0  0  0  0  0  0  0  0  0  0
   14.2070    2.1620   10.6290 N   0  0  0  0  0  0  0  0  0  0  0  0
   13.2160    3.0370   10.8850 C   0  0  0  0  0  0  0  0  0  0  0  0
   12.1270    2.4840   10.3400 C   0  0  0  0  0  0  0  0  0  0  0  0
   11.1030    3.3840   10.6010 C   0  0  0  0  0  0  0  0  0  0  0  0
    9.9160    3.2130   10.2420 O   0  0  0  0  0  0  0  0  0  0  0  0
   11.5390    4.4530   11.2830 N   0  0  0  0  0  0  0  0  0  0  0  0
   12.8560    4.2380   11.4610 C   0  0  0  0  0  0  0  0  0  0  0  0
   13.6470    5.0210   12.0670 O   0  0  0  0  0  0  0  0  0  0  0  0
   14.3200    0.2780    9.6250 H   0  0  0  0  0  0  0  0  0  0  0  0
   15.2110    2.2640   10.9100 H   0  0  0  0  0  0  0  0  0  0  0  0
   10.8090    5.5880   11.7410 C   0  0  0  0  0  0  0  0  0  0  0  0
   10.1780    5.6300   12.9680 C   0  0  0  0  0  3  0  0  0  0  0  0
    9.4740    6.7330   13.4040 C   0  0  0  0  0  0  0  0  0  0  0  0
    9.3660    7.8610   12.6180 C   0  0  0  0  0  0  0  0  0  0  0  0
    9.9910    7.8340   11.3890 C   0  0  0  0  0  3  0  0  0  0  0  0
   10.6960    6.7230   10.9610 C   0  0  0  0  0  3  0  0  0  0  0  0
    8.8370    6.7750   14.6410 O   0  0  0  0  0  0  0  0  0  0  0  0
    7.6530    6.0130   14.7890 C   0  0  0  0  0  1  0  0  0  0  0  0
    8.6520    8.9700   13.0670 O   0  0  0  0  0  0  0  0  0  0  0  0
    7.4150    9.3550   12.5510 C   0  0  0  0  0  1  0  0  0  0  0  0
   11.5880    0.4360    9.0980 C   0  0  0  0  0  0  0  0  0  0  0  0
   12.0400   -0.3100    8.0140 C   0  0  0  0  0  3  0  0  0  0  0  0
   11.1270   -1.1450    7.4040 C   0  0  0  0  0  3  0  0  0  0  0  0
    9.8250   -1.2800    7.7940 C   0  0  0  0  0  0  0  0  0  0  0  0
    8.6940   -2.3630    6.9800 Cl  0  0  0  0  0  0  0  0  0  0  0  0
    9.3890   -0.5410    8.8660 C   0  0  0  0  0  3  0  0  0  0  0  0
   10.2540    0.3020    9.5050 C   0  0  0  0  0  3  0  0  0  0  0  0
  1  2  1  0  0  0  0
  1  5  1  0  0  0  0
  2  3  1  0  0  0  0
  3  4  1  0  0  0  0
  3 12  1  0  0  0  0
  4  9  1  0  0  0  0
  5  6  1  0  0  0  0
  5  4  2  0  0  0  0
  6  8  1  0  0  0  0
  7  6  2  0  0  0  0
  8  9  1  0  0  0  0
  8 13  1  0  0  0  0
  9 10  2  0  0  0  0
 11  2  1  0  0  0  0
 13 14  1  0  0  0  0
 14 15  2  0  0  0  0
 15 19  1  0  0  0  0
 16 21  1  0  0  0  0
 16 15  1  0  0  0  0
 17 16  2  0  0  0  0
 18 17  1  0  0  0  0
 18 13  2  0  0  0  0
 19 20  1  0  0  0  0
 22 21  1  0  0  0  0
 23 29  1  0  0  0  0
 23  1  1  0  0  0  0
 24 23  2  0  0  0  0
 25 26  2  0  0  0  0
 25 24  1  0  0  0  0
 26 28  1  0  0  0  0
 27 26  1  0  0  0  0
 28 29  2  0  0  0  0
M  END
>  <Pose>
1

>  <Score>
-8.493

$$$$
