/Users/jonathanwahrer/Desktop/Msc/3_Semester/Drug_Design_Praktikum/waehrer_HTS_screening/HTS_experiment/out/docking_results/vina_output/2jam/1790_docked.pdbqt
 OpenBabel03162218413D

 29 32  0  0  0  0  0  0  0  0999 V2000
   10.2640    6.6480   12.6180 N   0  0  0  0  0  0  0  0  0  0  0  0
   11.2040    7.1670   13.3830 N   0  0  0  0  0  0  0  0  0  0  0  0
   12.2680    6.3880   13.2320 N   0  0  0  0  0  0  0  0  0  0  0  0
   12.0220    5.3780   12.3810 C   0  0  0  0  0  0  0  0  0  0  0  0
   10.7470    5.5530   11.9980 C   0  0  0  0  0  0  0  0  0  0  0  0
   10.4960    4.5130   11.1230 C   0  0  0  0  0  0  0  0  0  0  0  0
    9.3740    4.3590   10.5560 O   0  0  0  0  0  0  0  0  0  0  0  0
   11.5700    3.7210   10.9650 N   0  0  0  0  0  0  0  0  0  0  0  0
   12.5210    4.2580   11.7480 C   0  0  0  0  0  0  0  0  0  0  0  0
   13.6910    3.7880   11.8690 O   0  0  0  0  0  0  0  0  0  0  0  0
   11.1070    8.0220   13.9810 H   0  0  0  0  0  0  0  0  0  0  0  0
   13.1820    6.5380   13.7120 H   0  0  0  0  0  0  0  0  0  0  0  0
   11.6300    2.5670   10.1290 C   0  0  0  0  0  0  0  0  0  0  0  0
   12.7860    2.1910    9.4760 C   0  0  0  0  0  3  0  0  0  0  0  0
   12.8690    1.0790    8.6630 C   0  0  0  0  0  0  0  0  0  0  0  0
   11.7390    0.3070    8.4940 C   0  0  0  0  0  3  0  0  0  0  0  0
   10.5560    0.6360    9.1220 C   0  0  0  0  0  0  0  0  0  0  0  0
   10.5210    1.7670    9.9320 C   0  0  0  0  0  3  0  0  0  0  0  0
   14.0740    0.7380    8.0180 O   0  0  0  0  0  0  0  0  0  0  0  0
   15.2950    1.1270    8.6030 C   0  0  0  0  0  1  0  0  0  0  0  0
    9.4390   -0.1660    8.9280 O   0  0  0  0  0  0  0  0  0  0  0  0
    9.5260   -1.4250    8.3190 C   0  0  0  0  0  1  0  0  0  0  0  0
    8.9480    7.1530   12.4650 C   0  0  0  0  0  0  0  0  0  0  0  0
    8.6900    8.3960   11.9080 C   0  0  0  0  0  3  0  0  0  0  0  0
    7.4050    8.8530   11.7750 C   0  0  0  0  0  3  0  0  0  0  0  0
    6.3200    8.1050   12.1850 C   0  0  0  0  0  0  0  0  0  0  0  0
    4.6830    8.7450   11.9890 Cl  0  0  0  0  0  0  0  0  0  0  0  0
    6.5520    6.8730   12.7380 C   0  0  0  0  0  3  0  0  0  0  0  0
    7.8470    6.4170   12.8700 C   0  0  0  0  0  3  0  0  0  0  0  0
  1  2  1  0  0  0  0
  2 11  1  0  0  0  0
  3  2  1  0  0  0  0
  3 12  1  0  0  0  0
  4  3  1  0  0  0  0
  5  4  2  0  0  0  0
  5  1  1  0  0  0  0
  6  5  1  0  0  0  0
  7  6  2  0  0  0  0
  8  6  1  0  0  0  0
  8  9  1  0  0  0  0
  9 10  2  0  0  0  0
  9  4  1  0  0  0  0
 13  8  1  0  0  0  0
 14 13  2  0  0  0  0
 15 14  1  0  0  0  0
 16 15  2  0  0  0  0
 16 17  1  0  0  0  0
 17 18  2  0  0  0  0
 18 13  1  0  0  0  0
 19 20  1  0  0  0  0
 19 15  1  0  0  0  0
 21 17  1  0  0  0  0
 22 21  1  0  0  0  0
 23  1  1  0  0  0  0
 23 29  1  0  0  0  0
 24 23  2  0  0  0  0
 25 24  1  0  0  0  0
 25 26  2  0  0  0  0
 26 28  1  0  0  0  0
 27 26  1  0  0  0  0
 28 29  2  0  0  0  0
M  END
>  <Pose>
1

>  <Score>
-8.532

$$$$
