/Users/jonathanwahrer/Desktop/Msc/3_Semester/Drug_Design_Praktikum/waehrer_HTS_screening/HTS_experiment/out/docking_results/vina_output/2jam/1801_docked.pdbqt
 OpenBabel03162218413D

 26 29  0  0  0  0  0  0  0  0999 V2000
   19.6300    3.0420   11.7090 Cl  0  0  0  0  0  0  0  0  0  0  0  0
   17.9500    3.5750   11.7310 C   0  0  0  0  0  0  0  0  0  0  0  0
   17.0020    2.9330   10.9540 C   0  0  0  0  0  3  0  0  0  0  0  0
   15.6950    3.3370   10.9620 C   0  0  0  0  0  0  0  0  0  0  0  0
   15.3770    4.4010   11.7720 C   0  0  0  0  0  0  0  0  0  0  0  0
   16.2950    5.0540   12.5520 C   0  0  0  0  0  3  0  0  0  0  0  0
   17.6150    4.6340   12.5340 C   0  0  0  0  0  3  0  0  0  0  0  0
   13.9760    4.8650   11.8070 C   0  0  0  0  0  0  0  0  0  0  0  0
   13.3800    5.8090   12.4460 N   0  0  0  0  0  0  0  0  0  0  0  0
   11.9790    5.8690   12.1430 C   0  0  0  0  0  3  0  0  0  0  0  0
   11.7520    4.7660   11.1620 C   0  0  0  0  0  3  0  0  0  0  0  0
   13.0540    4.1650   10.9880 N   0  0  0  0  0  0  0  0  0  0  0  0
   13.4410    3.0590   10.1600 C   0  0  0  0  0  0  0  0  0  0  0  0
   12.7570    2.2660    9.3230 N   0  0  0  0  0  0  0  0  0  0  0  0
   13.5650    1.3740    8.7800 N   0  0  0  0  0  0  0  0  0  0  0  0
   14.7810    1.6250    9.2960 C   0  0  0  0  0  0  0  0  0  0  0  0
   15.8120    0.9700    9.0100 O   0  0  0  0  0  0  0  0  0  0  0  0
   14.7300    2.6730   10.1610 N   0  0  0  0  0  0  0  0  0  0  0  0
   13.2370    0.3260    7.8180 C   0  0  0  0  0  2  0  0  0  0  0  0
   12.0840   -0.4510    8.3320 C   0  0  0  0  0  0  0  0  0  0  0  0
   12.1480   -0.9340    9.4980 O   0  0  0  0  0  0  0  0  0  0  0  0
   10.9090   -0.6770    7.5690 N   0  0  0  0  0  0  0  0  0  0  0  0
   10.8730   -0.2720    6.6120 H   0  0  0  0  0  0  0  0  0  0  0  0
    9.8100   -1.4430    8.1130 C   0  0  0  0  0  3  0  0  0  0  0  0
    8.8640   -0.5360    8.9060 C   0  0  0  0  0  1  0  0  0  0  0  0
    9.0010   -1.9480    6.9270 C   0  0  0  0  0  1  0  0  0  0  0  0
  1  2  1  0  0  0  0
  2  7  1  0  0  0  0
  3  4  1  0  0  0  0
  3  2  2  0  0  0  0
  4  5  2  0  0  0  0
  5  8  1  0  0  0  0
  5  6  1  0  0  0  0
  7  6  2  0  0  0  0
  8  9  2  0  0  0  0
 10  9  1  0  0  0  0
 11 10  2  0  0  0  0
 12 11  1  0  0  0  0
 12  8  1  0  0  0  0
 13 18  1  0  0  0  0
 13 12  1  0  0  0  0
 14 13  2  0  0  0  0
 15 16  1  0  0  0  0
 15 14  1  0  0  0  0
 16 18  1  0  0  0  0
 17 16  2  0  0  0  0
 18  4  1  0  0  0  0
 19 20  1  0  0  0  0
 19 15  1  0  0  0  0
 20 21  2  0  0  0  0
 22 24  1  0  0  0  0
 22 20  1  0  0  0  0
 23 22  1  0  0  0  0
 24 25  1  0  0  0  0
 26 24  1  0  0  0  0
M  END
>  <Pose>
1

>  <Score>
-8.526

$$$$
