/Users/jonathanwahrer/Desktop/Msc/3_Semester/Drug_Design_Praktikum/waehrer_HTS_screening/HTS_experiment/out/docking_results/vina_output/2jam/1802_docked.pdbqt
 OpenBabel03162218413D

 27 30  0  0  0  0  0  0  0  0999 V2000
   17.7220    3.7750   11.1440 Cl  0  0  0  0  0  0  0  0  0  0  0  0
   16.2180    2.9830   10.6640 C   0  0  0  0  0  0  0  0  0  0  0  0
   15.0120    3.5340   11.1040 C   0  0  0  0  0  3  0  0  0  0  0  0
   13.8000    2.9720   10.7590 C   0  0  0  0  0  0  0  0  0  0  0  0
   13.8450    1.8440    9.9640 C   0  0  0  0  0  0  0  0  0  0  0  0
   14.9920    1.2770    9.5150 C   0  0  0  0  0  3  0  0  0  0  0  0
   16.2190    1.8580    9.8710 C   0  0  0  0  0  3  0  0  0  0  0  0
   12.5310    1.2550    9.5990 C   0  0  0  0  0  0  0  0  0  0  0  0
   12.2260    0.2170    8.8810 N   0  0  0  0  0  0  0  0  0  0  0  0
   10.7920    0.0490    8.8170 C   0  0  0  0  0  3  0  0  0  0  0  0
   10.1840    1.1770    9.6130 C   0  0  0  0  0  3  0  0  0  0  0  0
   11.3690    1.8760   10.0830 N   0  0  0  0  0  0  0  0  0  0  0  0
   11.4070    3.0430   10.9020 C   0  0  0  0  0  0  0  0  0  0  0  0
   10.4280    3.7880   11.4560 N   0  0  0  0  0  0  0  0  0  0  0  0
   10.9780    4.7940   12.1330 N   0  0  0  0  0  0  0  0  0  0  0  0
   12.2920    4.6450   11.9800 C   0  0  0  0  0  0  0  0  0  0  0  0
   13.1680    5.4080   12.4740 O   0  0  0  0  0  0  0  0  0  0  0  0
   12.5920    3.5580   11.2170 N   0  0  0  0  0  0  0  0  0  0  0  0
   10.2650    5.8420   12.8700 C   0  0  0  0  0  2  0  0  0  0  0  0
    9.3900    6.5030   11.7600 C   0  0  0  0  0  0  0  0  0  0  0  0
   10.1790    7.0450   10.9090 O   0  0  0  0  0  0  0  0  0  0  0  0
    8.0520    6.4430   11.8160 N   0  0  0  0  0  0  0  0  0  0  0  0
    7.9730    7.0590   10.6080 H   0  0  0  0  0  0  0  0  0  0  0  0
    6.6770    6.3830   11.8720 C   0  0  0  0  0  2  0  0  0  0  0  0
    6.0290    7.7720   11.8960 C   0  0  0  0  0  2  0  0  0  0  0  0
    6.6640    8.6390   11.0390 O   0  0  0  0  0  0  0  0  0  0  0  0
    7.2080    9.7470   11.6210 C   0  0  0  0  0  1  0  0  0  0  0  0
  2  3  1  0  0  0  0
  2  1  1  0  0  0  0
  4  3  2  0  0  0  0
  4 18  1  0  0  0  0
  5  4  1  0  0  0  0
  6  7  1  0  0  0  0
  6  5  2  0  0  0  0
  7  2  2  0  0  0  0
  8  5  1  0  0  0  0
  8 12  1  0  0  0  0
  9  8  2  0  0  0  0
 10  9  1  0  0  0  0
 10 11  2  0  0  0  0
 11 12  1  0  0  0  0
 12 13  1  0  0  0  0
 13 18  1  0  0  0  0
 13 14  2  0  0  0  0
 14 15  1  0  0  0  0
 15 19  1  0  0  0  0
 16 15  1  0  0  0  0
 16 17  2  0  0  0  0
 18 16  1  0  0  0  0
 20 22  1  0  0  0  0
 20 19  1  0  0  0  0
 21 20  2  0  0  0  0
 22 24  1  0  0  0  0
 23 22  1  0  0  0  0
 24 25  1  0  0  0  0
 26 27  1  0  0  0  0
 26 25  1  0  0  0  0
M  END
>  <Pose>
1

>  <Score>
-7.960

$$$$
