/Users/jonathanwahrer/Desktop/Msc/3_Semester/Drug_Design_Praktikum/waehrer_HTS_screening/HTS_experiment/out/docking_results/vina_output/2jam/1804_docked.pdbqt
 OpenBabel03162218413D

 26 30  0  0  0  0  0  0  0  0999 V2000
    9.5250    0.1910    9.1110 Cl  0  0  0  0  0  0  0  0  0  0  0  0
   10.7850    1.2440    9.7160 C   0  0  0  0  0  0  0  0  0  0  0  0
   10.5690    2.5760   10.0290 C   0  0  0  0  0  3  0  0  0  0  0  0
   11.5680    3.3920   10.5050 C   0  0  0  0  0  0  0  0  0  0  0  0
   12.8090    2.8230   10.6590 C   0  0  0  0  0  0  0  0  0  0  0  0
   13.0800    1.5070   10.3640 C   0  0  0  0  0  3  0  0  0  0  0  0
   12.0430    0.7040    9.8830 C   0  0  0  0  0  3  0  0  0  0  0  0
   13.9060    3.6690   11.1660 C   0  0  0  0  0  0  0  0  0  0  0  0
   15.1400    3.4100   11.4040 N   0  0  0  0  0  0  0  0  0  0  0  0
   15.8490    4.5600   11.8990 C   0  0  0  0  0  3  0  0  0  0  0  0
   14.8180    5.6430   11.9390 C   0  0  0  0  0  3  0  0  0  0  0  0
   13.6120    5.0180   11.4640 N   0  0  0  0  0  0  0  0  0  0  0  0
   12.2880    5.5620   11.2820 C   0  0  0  0  0  0  0  0  0  0  0  0
   11.7790    6.7910   11.4920 N   0  0  0  0  0  0  0  0  0  0  0  0
   10.4960    6.7950   11.1720 N   0  0  0  0  0  0  0  0  0  0  0  0
   10.2250    5.5450   10.7600 C   0  0  0  0  0  0  0  0  0  0  0  0
    9.0760    5.1870   10.3730 O   0  0  0  0  0  0  0  0  0  0  0  0
   11.3190    4.7560   10.8170 N   0  0  0  0  0  0  0  0  0  0  0  0
    9.5550    7.9220   11.2460 C   0  0  0  0  0  2  0  0  0  0  0  0
    8.6970    7.7300   12.4450 C   0  0  0  0  0  0  0  0  0  0  0  0
    9.1950    7.0730   13.3940 O   0  0  0  0  0  0  0  0  0  0  0  0
    7.3800    8.2560   12.5220 N   0  0  0  0  0  0  0  0  0  0  0  0
    6.4970    8.1000   13.6620 C   0  0  0  0  0  2  0  0  0  0  0  0
    6.6930    9.0250   11.5110 C   0  0  0  0  0  2  0  0  0  0  0  0
    5.1570    8.6380   13.2380 C   0  0  0  0  0  2  0  0  0  0  0  0
    5.2500    8.5580   11.7280 C   0  0  0  0  0  2  0  0  0  0  0  0
  1  2  1  0  0  0  0
  2  7  2  0  0  0  0
  2  3  1  0  0  0  0
  3  4  2  0  0  0  0
  4  5  1  0  0  0  0
  4 18  1  0  0  0  0
  5  8  1  0  0  0  0
  6  5  2  0  0  0  0
  7  6  1  0  0  0  0
  8  9  2  0  0  0  0
  8 12  1  0  0  0  0
  9 10  1  0  0  0  0
 10 11  2  0  0  0  0
 12 11  1  0  0  0  0
 13 12  1  0  0  0  0
 13 14  2  0  0  0  0
 15 19  1  0  0  0  0
 15 14  1  0  0  0  0
 16 18  1  0  0  0  0
 16 15  1  0  0  0  0
 17 16  2  0  0  0  0
 18 13  1  0  0  0  0
 19 20  1  0  0  0  0
 20 22  1  0  0  0  0
 20 21  2  0  0  0  0
 22 23  1  0  0  0  0
 24 26  1  0  0  0  0
 24 22  1  0  0  0  0
 25 23  1  0  0  0  0
 26 25  1  0  0  0  0
M  END
>  <Pose>
1

>  <Score>
-8.894

$$$$
