/Users/jonathanwahrer/Desktop/Msc/3_Semester/Drug_Design_Praktikum/waehrer_HTS_screening/HTS_experiment/out/docking_results/vina_output/2jam/1806_docked.pdbqt
 OpenBabel03162218413D

 32 35  0  0  0  0  0  0  0  0999 V2000
   11.4800    4.6950   11.4680 N   0  0  0  0  0  0  0  0  0  0  0  0
   10.3070    4.6110   10.6220 C   0  0  0  0  0  2  0  0  0  0  0  0
   10.2710    3.1900   10.0360 C   0  0  0  0  0  2  0  0  0  0  0  0
   11.4510    2.4550   10.3410 N   0  0  0  0  0  0  0  0  0  0  0  0
   11.6720    2.2360   11.7700 C   0  0  0  0  0  2  0  0  0  0  0  0
   11.7170    3.6080   12.3980 C   0  0  0  0  0  2  0  0  0  0  0  0
   12.3810    5.7940   11.4490 C   0  0  0  0  0  3  0  0  0  0  0  0
   13.6920    5.7400   11.4480 C   0  0  0  0  0  0  0  0  0  0  0  0
   14.4090    4.5220   11.4680 N   0  0  0  0  0  0  0  0  0  0  0  0
   14.4530    6.9690   11.4270 N   0  0  0  0  0  0  0  0  0  0  0  0
   15.8550    4.5080   11.4660 C   0  0  0  0  0  0  0  0  0  0  0  0
   13.9020    3.6200   11.4830 H   0  0  0  0  0  0  0  0  0  0  0  0
   16.5960    5.6620   11.4470 C   0  0  0  0  0  0  0  0  0  0  0  0
   16.5110    3.3040   11.4870 C   0  0  0  0  0  3  0  0  0  0  0  0
   17.9760    5.6110   11.4460 C   0  0  0  0  0  3  0  0  0  0  0  0
   15.8680    6.9230   11.4270 C   0  0  0  0  0  0  0  0  0  0  0  0
   18.6260    4.4160   11.4660 C   0  0  0  0  0  0  0  0  0  0  0  0
   20.3840    4.2890   11.4670 Cl  0  0  0  0  0  0  0  0  0  0  0  0
   17.8940    3.2500   11.4860 C   0  0  0  0  0  3  0  0  0  0  0  0
   16.5630    7.9960   11.4080 O   0  0  0  0  0  0  0  0  0  0  0  0
   13.9590    7.8830   11.4120 H   0  0  0  0  0  0  0  0  0  0  0  0
   12.4330    1.9330    9.4640 C   0  0  0  0  0  0  0  0  0  0  0  0
   13.6070    2.6470    9.3010 N   0  0  0  0  0  0  0  0  0  0  0  0
   14.6000    2.2720    8.4970 C   0  0  0  0  0  3  0  0  0  0  0  0
   14.4530    1.1120    7.7890 C   0  0  0  0  0  3  0  0  0  0  0  0
   13.3080    0.3790    7.9250 C   0  0  0  0  0  3  0  0  0  0  0  0
   12.2540    0.7700    8.7750 C   0  0  0  0  0  0  0  0  0  0  0  0
   11.0810   -0.0370    8.9170 C   0  0  0  0  0  0  0  0  0  0  0  0
    9.9360    0.3040    8.6310 O   0  0  0  0  0  0  0  0  0  0  0  0
   11.2250   -1.3550    9.4320 N   0  0  0  0  0  0  0  0  0  0  0  0
   11.7130   -2.0950    8.8780 H   0  0  0  0  0  0  0  0  0  0  0  0
   10.8630   -1.6530   10.3640 H   0  0  0  0  0  0  0  0  0  0  0  0
  1  6  1  0  0  0  0
  2  1  1  0  0  0  0
  3  4  1  0  0  0  0
  3  2  1  0  0  0  0
  4  5  1  0  0  0  0
  5  6  1  0  0  0  0
  7  1  1  0  0  0  0
  8  7  2  0  0  0  0
  8  9  1  0  0  0  0
  9 12  1  0  0  0  0
 10 16  1  0  0  0  0
 10  8  1  0  0  0  0
 11  9  1  0  0  0  0
 11 14  1  0  0  0  0
 13 11  2  0  0  0  0
 15 13  1  0  0  0  0
 15 17  2  0  0  0  0
 16 13  1  0  0  0  0
 17 18  1  0  0  0  0
 17 19  1  0  0  0  0
 19 14  2  0  0  0  0
 20 16  2  0  0  0  0
 21 10  1  0  0  0  0
 22  4  1  0  0  0  0
 23 22  1  0  0  0  0
 24 23  2  0  0  0  0
 25 26  2  0  0  0  0
 25 24  1  0  0  0  0
 26 27  1  0  0  0  0
 27 28  1  0  0  0  0
 27 22  2  0  0  0  0
 28 30  1  0  0  0  0
 29 28  2  0  0  0  0
 30 32  1  0  0  0  0
 31 30  1  0  0  0  0
M  END
>  <Pose>
1

>  <Score>
-8.897

$$$$
