/Users/jonathanwahrer/Desktop/Msc/3_Semester/Drug_Design_Praktikum/waehrer_HTS_screening/HTS_experiment/out/docking_results/vina_output/2jam/1808_docked.pdbqt
 OpenBabel03142216403D

 24 28  0  0  1  0  0  0  0  0999 V2000
   10.6690    6.0060   11.2100 N   0  0  0  0  0  0  0  0  0  0  0  0
   10.8750    5.4040    9.9410 C   0  0  0  0  0  0  0  0  0  0  0  0
   10.1430    5.6010    8.9410 O   0  0  0  0  0  0  0  0  0  0  0  0
   12.0750    4.5280   10.0080 C   0  0  2  0  0  3  0  0  0  0  0  0
   11.7200    3.1040   10.3030 C   0  0  1  0  0  0  0  0  0  0  0  0
   12.8650    2.7000   11.0250 O   0  0  0  0  0  0  0  0  0  0  0  0
   12.7470    3.6460   12.0740 C   0  0  1  0  0  3  0  0  0  0  0  0
   12.7720    4.9250   11.3100 C   0  0  2  0  0  3  0  0  0  0  0  0
   11.8840    5.9300   11.9550 C   0  0  0  0  0  0  0  0  0  0  0  0
   12.1720    6.5780   12.9650 O   0  0  0  0  0  0  0  0  0  0  0  0
   11.3470    3.3730   12.4900 C   0  0  0  0  0  2  0  0  0  0  0  0
   10.6990    3.0960   11.3620 C   0  0  0  0  0  2  0  0  0  0  0  0
    9.4140    6.5740   11.6060 C   0  0  0  0  0  0  0  0  0  0  0  0
    8.3160    5.7870   11.8710 C   0  0  0  0  0  3  0  0  0  0  0  0
    7.1040    6.3210   12.2500 C   0  0  0  0  0  3  0  0  0  0  0  0
    7.0010    7.6870   12.3620 C   0  0  0  0  0  0  0  0  0  0  0  0
    5.3480    8.4600   12.8800 Br  0  0  0  0  0  0  0  0  0  0  0  0
    8.0810    8.4920   12.1010 C   0  0  0  0  0  3  0  0  0  0  0  0
    9.3110    7.9540   11.7180 C   0  0  0  0  0  3  0  0  0  0  0  0
   11.4550    2.2590    9.1320 C   0  0  0  0  0  3  0  0  0  0  0  0
   10.2210    1.6680    9.1380 O   0  0  0  0  0  0  0  0  0  0  0  0
   10.3790    0.3180    9.3280 C   0  0  0  0  0  2  0  0  0  0  0  0
   11.8480    0.0760    9.4370 C   0  0  0  0  0  2  0  0  0  0  0  0
   12.4070    1.2660    8.9860 O   0  0  0  0  0  0  0  0  0  0  0  0
  1 13  1  0  0  0  0
  1  9  1  0  0  0  0
  2  1  1  0  0  0  0
  3  2  2  0  0  0  0
  4  2  1  1  0  0  0
  4  5  1  0  0  0  0
  4  8  1  0  0  0  0
  5 20  1  6  0  0  0
  5  6  1  0  0  0  0
  5 12  1  0  0  0  0
  6  7  1  0  0  0  0
  7 11  1  6  0  0  0
  8  9  1  1  0  0  0
  8  7  1  0  0  0  0
  9 10  2  0  0  0  0
 12 11  1  0  0  0  0
 13 19  2  0  0  0  0
 13 14  1  0  0  0  0
 14 15  2  0  0  0  0
 15 16  1  0  0  0  0
 16 17  1  0  0  0  0
 18 16  2  0  0  0  0
 19 18  1  0  0  0  0
 20 21  1  0  0  0  0
 21 22  1  0  0  0  0
 22 23  1  0  0  0  0
 24 20  1  0  0  0  0
 24 23  1  0  0  0  0
M  END
>  <Pose>
1

>  <Score>
-8.210

$$$$
