/Users/jonathanwahrer/Desktop/Msc/3_Semester/Drug_Design_Praktikum/waehrer_HTS_screening/HTS_experiment/out/docking_results/vina_output/2jam/1816_docked.pdbqt
 OpenBabel03162218423D

 36 39  0  0  0  0  0  0  0  0999 V2000
   11.2410    7.1590   11.8240 C   0  0  0  0  0  0  0  0  0  0  0  0
   10.5380    7.8300   10.9920 O   0  0  0  0  0  0  0  0  0  0  0  0
   12.1180    6.2200   11.3130 N   0  0  0  0  0  0  0  0  0  0  0  0
   12.2710    5.9670    9.9140 C   0  0  0  0  0  2  0  0  0  0  0  0
   11.9280    4.4970    9.6620 C   0  0  0  0  0  2  0  0  0  0  0  0
   12.7380    3.6720   10.4920 N   0  0  0  0  0  0  0  0  0  0  0  0
   13.6720    4.3660   11.4040 C   0  0  0  0  0  2  0  0  0  0  0  0
   12.9440    5.4300   12.1970 C   0  0  0  0  0  2  0  0  0  0  0  0
   12.7180    2.2620   10.5210 C   0  0  0  0  0  0  0  0  0  0  0  0
   13.5850    1.7390   11.3820 O   0  0  0  0  0  0  0  0  0  0  0  0
   11.0500    7.4520   13.2720 C   0  0  0  0  0  2  0  0  0  0  0  0
    9.6160    7.4360   13.6410 C   0  0  0  0  0  0  0  0  0  0  0  0
    8.9630    6.2220   13.8510 C   0  0  0  0  0  0  0  0  0  0  0  0
    7.6970    6.1480   14.1810 O   0  0  0  0  0  0  0  0  0  0  0  0
    9.6680    5.1680   13.7070 O   0  0  0  0  0  0  0  0  0  0  0  0
    6.9400    7.2060   14.3390 C   0  0  0  0  0  0  0  0  0  0  0  0
    7.4860    8.4560   14.1550 C   0  0  0  0  0  0  0  0  0  0  0  0
    5.5880    7.0950   14.6910 C   0  0  0  0  0  3  0  0  0  0  0  0
    6.6800    9.5560   14.3250 C   0  0  0  0  0  3  0  0  0  0  0  0
    8.8350    8.5580   13.8040 C   0  0  0  0  0  0  0  0  0  0  0  0
    5.3380    9.4410   14.6740 C   0  0  0  0  0  0  0  0  0  0  0  0
    4.3100   10.8390   14.8880 Cl  0  0  0  0  0  0  0  0  0  0  0  0
    4.7820    8.1960   14.8600 C   0  0  0  0  0  0  0  0  0  0  0  0
    9.4060    9.8880   13.6150 C   0  0  0  0  0  1  0  0  0  0  0  0
    3.4250    8.0740   15.2120 O   0  0  0  0  0  0  0  0  0  0  0  0
    3.0200    7.8100   16.5330 C   0  0  0  0  0  1  0  0  0  0  0  0
   11.9410    1.3010    9.7970 C   0  0  0  0  0  0  0  0  0  0  0  0
   12.5720    0.4900    8.8210 C   0  0  0  0  0  3  0  0  0  0  0  0
   11.8630   -0.4370    8.1040 C   0  0  0  0  0  0  0  0  0  0  0  0
   12.4480   -1.1450    7.2420 O   0  0  0  0  0  0  0  0  0  0  0  0
   10.5490   -0.6320    8.2750 N   0  0  0  0  0  0  0  0  0  0  0  0
    9.9550    0.1310    9.1930 C   0  0  0  0  0  0  0  0  0  0  0  0
    9.8180   -1.6130    7.5070 C   0  0  0  0  0  1  0  0  0  0  0  0
    8.7050   -0.0160    9.3940 O   0  0  0  0  0  0  0  0  0  0  0  0
   10.6390    1.0720    9.9320 N   0  0  0  0  0  0  0  0  0  0  0  0
   10.0840    1.6120   10.6250 H   0  0  0  0  0  0  0  0  0  0  0  0
  1 11  1  0  0  0  0
  2  1  2  0  0  0  0
  3  1  1  0  0  0  0
  3  8  1  0  0  0  0
  4  3  1  0  0  0  0
  5  4  1  0  0  0  0
  5  6  1  0  0  0  0
  6  9  1  0  0  0  0
  6  7  1  0  0  0  0
  7  8  1  0  0  0  0
  9 10  2  0  0  0  0
 11 12  1  0  0  0  0
 12 20  2  0  0  0  0
 12 13  1  0  0  0  0
 13 14  1  0  0  0  0
 14 16  1  0  0  0  0
 15 13  2  0  0  0  0
 16 18  1  0  0  0  0
 17 19  1  0  0  0  0
 17 16  2  0  0  0  0
 18 23  2  0  0  0  0
 19 21  2  0  0  0  0
 20 17  1  0  0  0  0
 21 23  1  0  0  0  0
 21 22  1  0  0  0  0
 23 25  1  0  0  0  0
 24 20  1  0  0  0  0
 25 26  1  0  0  0  0
 27 35  1  0  0  0  0
 27  9  1  0  0  0  0
 28 27  2  0  0  0  0
 29 31  1  0  0  0  0
 29 28  1  0  0  0  0
 30 29  2  0  0  0  0
 31 32  1  0  0  0  0
 32 34  2  0  0  0  0
 32 35  1  0  0  0  0
 33 31  1  0  0  0  0
 35 36  1  0  0  0  0
M  END
>  <Pose>
1

>  <Score>
-9.190

$$$$
