/Users/jonathanwahrer/Desktop/Msc/3_Semester/Drug_Design_Praktikum/waehrer_HTS_screening/HTS_experiment/out/docking_results/vina_output/2jam/1835_docked.pdbqt
 OpenBabel03162218433D

 36 39  0  0  1  0  0  0  0  0999 V2000
   10.5590    5.4330   12.4040 C   0  0  0  0  0  0  0  0  0  0  0  0
   10.8210    6.7440   12.5300 N   0  0  0  0  0  0  0  0  0  0  0  0
    9.6430    7.3740   12.3800 C   0  0  0  0  0  0  0  0  0  0  0  0
    9.2870    8.6810   12.4060 N   0  0  0  0  0  0  0  0  0  0  0  0
    8.0110    9.0730   12.2260 C   0  0  0  0  0  3  0  0  0  0  0  0
    7.0440    8.1550   12.0130 N   0  0  0  0  0  0  0  0  0  0  0  0
    7.3190    6.8380   11.9730 C   0  0  0  0  0  0  0  0  0  0  0  0
    8.6340    6.4610   12.1610 C   0  0  0  0  0  0  0  0  0  0  0  0
    9.2360    5.2490   12.1800 N   0  0  0  0  0  0  0  0  0  0  0  0
   11.5150    4.3870   12.4910 N   0  0  0  0  0  0  0  0  0  0  0  0
   11.7450    3.9370   13.4090 H   0  0  0  0  0  0  0  0  0  0  0  0
   12.1980    3.9060   11.3720 N   0  0  0  0  0  0  0  0  0  0  0  0
   12.6970    2.7260   11.4180 C   0  0  0  0  0  3  0  0  0  0  0  0
   13.4300    2.1420   10.2900 C   0  0  0  0  0  0  0  0  0  0  0  0
   14.7800    2.3600   10.1230 C   0  0  0  0  0  0  0  0  0  0  0  0
   15.6060    3.3580   11.2980 Cl  0  0  0  0  0  0  0  0  0  0  0  0
   15.4570    1.7930    9.0410 C   0  0  0  0  0  3  0  0  0  0  0  0
   14.8100    1.0070    8.1120 C   0  0  0  0  0  3  0  0  0  0  0  0
   13.4580    0.7930    8.2870 C   0  0  0  0  0  3  0  0  0  0  0  0
   12.7830    1.3560    9.3620 C   0  0  0  0  0  0  0  0  0  0  0  0
   11.0580    1.0740    9.5700 Cl  0  0  0  0  0  0  0  0  0  0  0  0
   12.0620    7.4200   12.7720 C   0  0  1  0  0  3  0  0  0  0  0  0
   12.9050    6.7080   13.6210 O   0  0  0  0  0  0  0  0  0  0  0  0
   14.1150    7.3750   13.4300 C   0  0  2  0  0  3  0  0  0  0  0  0
   14.2550    7.2880   11.9180 C   0  0  1  0  0  3  0  0  0  0  0  0
   12.8410    7.6170   11.4840 C   0  0  2  0  0  3  0  0  0  0  0  0
   15.2630    6.7090   14.1380 C   0  0  0  0  0  2  0  0  0  0  0  0
   15.1690    5.3400   14.1490 O   0  0  0  0  0  0  0  0  0  0  0  0
   15.9570    4.9180   14.5570 H   0  0  0  0  0  0  0  0  0  0  0  0
   15.1740    8.2070   11.4310 O   0  0  0  0  0  0  0  0  0  0  0  0
   14.7500    9.1060   11.4800 H   0  0  0  0  0  0  0  0  0  0  0  0
   12.8370    8.9560   11.0850 O   0  0  0  0  0  0  0  0  0  0  0  0
   11.9310    9.3150   11.0090 H   0  0  0  0  0  0  0  0  0  0  0  0
    6.2850    5.9000   11.7470 N   0  0  0  0  0  0  0  0  0  0  0  0
    5.8570    5.3610   12.5200 H   0  0  0  0  0  0  0  0  0  0  0  0
    5.9470    5.7470   10.7810 H   0  0  0  0  0  0  0  0  0  0  0  0
  1 10  1  0  0  0  0
  1  2  1  0  0  0  0
  3  4  1  0  0  0  0
  3  2  1  0  0  0  0
  5  4  2  0  0  0  0
  6  5  1  0  0  0  0
  7  6  2  0  0  0  0
  7  8  1  0  0  0  0
  8  9  1  0  0  0  0
  8  3  2  0  0  0  0
  9  1  2  0  0  0  0
 10 11  1  0  0  0  0
 12 13  2  0  0  0  0
 12 10  1  0  0  0  0
 14 13  1  0  0  0  0
 15 14  1  0  0  0  0
 15 16  1  0  0  0  0
 17 15  2  0  0  0  0
 18 19  2  0  0  0  0
 18 17  1  0  0  0  0
 19 20  1  0  0  0  0
 20 21  1  0  0  0  0
 20 14  2  0  0  0  0
 22  2  1  6  0  0  0
 22 23  1  0  0  0  0
 24 23  1  0  0  0  0
 24 27  1  1  0  0  0
 25 30  1  6  0  0  0
 25 24  1  0  0  0  0
 26 32  1  1  0  0  0
 26 25  1  0  0  0  0
 26 22  1  0  0  0  0
 27 28  1  0  0  0  0
 28 29  1  0  0  0  0
 30 31  1  0  0  0  0
 33 32  1  0  0  0  0
 34  7  1  0  0  0  0
 34 35  1  0  0  0  0
 36 34  1  0  0  0  0
M  END
>  <Pose>
1

>  <Score>
-8.335

$$$$
