/Users/jonathanwahrer/Desktop/Msc/3_Semester/Drug_Design_Praktikum/waehrer_HTS_screening/HTS_experiment/out/docking_results/vina_output/2jam/1837_docked.pdbqt
 OpenBabel03162218433D

 29 32  0  0  0  0  0  0  0  0999 V2000
   11.9930    5.1740   11.7800 N   0  0  0  0  0  0  0  0  0  0  0  0
   12.7380    6.4410   11.9380 C   0  0  0  0  0  2  0  0  0  0  0  0
   11.6370    7.4070   12.4220 C   0  0  0  0  0  2  0  0  0  0  0  0
   10.4520    6.9570   11.6770 N   0  0  0  0  0  0  0  0  0  0  0  0
   10.7020    6.5660   10.3250 C   0  0  0  0  0  2  0  0  0  0  0  0
   11.4480    5.2240   10.4020 C   0  0  0  0  0  2  0  0  0  0  0  0
   12.8900    4.0380   11.8840 C   0  0  0  0  0  2  0  0  0  0  0  0
   12.0960    2.8270   11.4510 C   0  0  0  0  0  0  0  0  0  0  0  0
   12.2090    2.2890   10.1660 N   0  0  0  0  0  0  0  0  0  0  0  0
   12.8600    2.8070    9.4960 H   0  0  0  0  0  0  0  0  0  0  0  0
   11.3130    2.3030   12.2840 O   0  0  0  0  0  0  0  0  0  0  0  0
   11.5470    1.1670    9.6270 C   0  0  0  0  0  0  0  0  0  0  0  0
   10.1450    1.1280    9.5780 C   0  0  0  0  0  3  0  0  0  0  0  0
    9.4520    0.0670    9.0550 C   0  0  0  0  0  3  0  0  0  0  0  0
   10.1330   -1.0300    8.5470 C   0  0  0  0  0  0  0  0  0  0  0  0
    9.2790   -2.4010    7.8710 Cl  0  0  0  0  0  0  0  0  0  0  0  0
   11.5050   -1.0070    8.5870 C   0  0  0  0  0  3  0  0  0  0  0  0
   12.1950    0.0760    9.1180 C   0  0  0  0  0  3  0  0  0  0  0  0
    9.2130    6.9290   12.3330 C   0  0  0  0  0  0  0  0  0  0  0  0
    8.9930    6.0500   13.3580 N   0  0  0  0  0  0  0  0  0  0  0  0
    7.8410    5.9550   14.0200 C   0  0  0  0  0  3  0  0  0  0  0  0
    6.8210    6.7530   13.6850 N   0  0  0  0  0  0  0  0  0  0  0  0
    6.9130    7.6480   12.7070 C   0  0  0  0  0  0  0  0  0  0  0  0
    6.0630    8.5490   12.1750 N   0  0  0  0  0  0  0  0  0  0  0  0
    8.1280    7.7370   12.0190 C   0  0  0  0  0  0  0  0  0  0  0  0
    6.7150    9.1590   11.2190 N   0  0  0  0  0  0  0  0  0  0  0  0
    7.9470    8.6830   11.1170 N   0  0  0  0  0  0  0  0  0  0  0  0
    4.6890    8.8260   12.5490 C   0  0  0  0  0  2  0  0  0  0  0  0
    4.6190    9.6850   13.7930 C   0  0  0  0  0  1  0  0  0  0  0  0
  1  7  1  0  0  0  0
  1  2  1  0  0  0  0
  2  3  1  0  0  0  0
  4 19  1  0  0  0  0
  4  3  1  0  0  0  0
  5  6  1  0  0  0  0
  5  4  1  0  0  0  0
  6  1  1  0  0  0  0
  8  7  1  0  0  0  0
  8 11  2  0  0  0  0
  9  8  1  0  0  0  0
 10  9  1  0  0  0  0
 12  9  1  0  0  0  0
 13 12  1  0  0  0  0
 14 13  2  0  0  0  0
 15 17  2  0  0  0  0
 15 14  1  0  0  0  0
 16 15  1  0  0  0  0
 17 18  1  0  0  0  0
 18 12  2  0  0  0  0
 19 20  1  0  0  0  0
 20 21  2  0  0  0  0
 22 21  1  0  0  0  0
 23 22  2  0  0  0  0
 24 28  1  0  0  0  0
 24 23  1  0  0  0  0
 25 19  2  0  0  0  0
 25 23  1  0  0  0  0
 26 24  1  0  0  0  0
 27 26  2  0  0  0  0
 27 25  1  0  0  0  0
 28 29  1  0  0  0  0
M  END
>  <Pose>
1

>  <Score>
-8.632

$$$$
