/Users/jonathanwahrer/Desktop/Msc/3_Semester/Drug_Design_Praktikum/waehrer_HTS_screening/HTS_experiment/out/docking_results/vina_output/2jam/1852_docked.pdbqt
 OpenBabel03162218443D

 26 29  0  0  1  0  0  0  0  0999 V2000
   10.7030    5.3340   11.9970 N   0  0  0  0  0  0  0  0  0  0  0  0
    9.3280    5.5450   11.6700 C   0  0  0  0  0  2  0  0  0  0  0  0
    8.8550    6.7680   12.4360 C   0  0  1  0  0  3  0  0  0  0  0  0
   10.1440    7.5480   12.5950 C   0  0  0  0  0  2  0  0  0  0  0  0
   11.1420    6.4080   12.8310 C   0  0  0  0  0  2  0  0  0  0  0  0
   11.6890    5.1120   10.6040 S   0  0  0  0  0  0  0  0  0  0  0  0
   13.0390    5.7020   10.8320 O   0  0  0  0  0  0  0  0  0  0  0  0
   11.0290    5.8390    9.4610 O   0  0  0  0  0  0  0  0  0  0  0  0
   11.8430    3.4230   10.1820 C   0  0  0  0  0  0  0  0  0  0  0  0
   10.7400    2.7010    9.7730 C   0  0  0  0  0  3  0  0  0  0  0  0
   10.8080    1.3610    9.4290 C   0  0  0  0  0  0  0  0  0  0  0  0
   12.0200    0.6980    9.4880 C   0  0  0  0  0  0  0  0  0  0  0  0
    9.7160    0.6320    9.0190 O   0  0  0  0  0  0  0  0  0  0  0  0
   13.1110    1.4220    9.8950 C   0  0  0  0  0  3  0  0  0  0  0  0
   12.0440   -0.6420    9.1330 O   0  0  0  0  0  0  0  0  0  0  0  0
   13.0470    2.7550   10.2380 C   0  0  0  0  0  3  0  0  0  0  0  0
   10.9120   -1.4900    9.2110 C   0  0  0  0  0  2  0  0  0  0  0  0
    9.6110   -0.7620    9.0040 C   0  0  0  0  0  2  0  0  0  0  0  0
    7.9940    7.5030   11.5830 O   0  0  0  0  0  0  0  0  0  0  0  0
    6.7320    7.9090   11.9860 C   0  0  0  0  0  0  0  0  0  0  0  0
    6.5480    8.0350   13.3330 N   0  0  0  0  0  0  0  0  0  0  0  0
    5.3350    8.4280   13.7530 C   0  0  0  0  0  3  0  0  0  0  0  0
    4.2990    8.6990   12.8820 C   0  0  0  0  0  0  0  0  0  0  0  0
    4.5420    8.5530   11.5300 C   0  0  0  0  0  2  0  0  0  0  0  0
    2.7210    9.2090   13.4450 Cl  0  0  0  0  0  0  0  0  0  0  0  0
    5.7630    8.1590   11.1070 N   0  0  0  0  0  0  0  0  0  0  0  0
  1  5  1  0  0  0  0
  2  1  1  0  0  0  0
  2  3  1  0  0  0  0
  3 19  1  6  0  0  0
  3  4  1  0  0  0  0
  4  5  1  0  0  0  0
  6  7  2  0  0  0  0
  6  1  1  0  0  0  0
  8  6  2  0  0  0  0
  9 16  1  0  0  0  0
  9  6  1  0  0  0  0
 10  9  2  0  0  0  0
 11 12  2  0  0  0  0
 11 10  1  0  0  0  0
 12 14  1  0  0  0  0
 13 11  1  0  0  0  0
 14 16  2  0  0  0  0
 15 17  1  0  0  0  0
 15 12  1  0  0  0  0
 18 13  1  0  0  0  0
 18 17  1  0  0  0  0
 19 20  1  0  0  0  0
 20 21  2  0  0  0  0
 21 22  1  0  0  0  0
 23 25  1  0  0  0  0
 23 22  2  0  0  0  0
 24 23  1  0  0  0  0
 26 24  1  0  0  0  0
 26 20  2  0  0  0  0
M  END
>  <Pose>
1

>  <Score>
-9.011

$$$$
