/Users/jonathanwahrer/Desktop/Msc/3_Semester/Drug_Design_Praktikum/waehrer_HTS_screening/HTS_experiment/out/docking_results/vina_output/2jam/1863_docked.pdbqt
 OpenBabel03162218443D

 33 36  0  0  0  0  0  0  0  0999 V2000
   14.5890    4.1750   11.4870 N   0  0  0  0  0  0  0  0  0  0  0  0
   15.8270    4.7360   11.5680 C   0  0  0  0  0  0  0  0  0  0  0  0
   15.6700    6.0960   11.5280 C   0  0  0  0  0  0  0  0  0  0  0  0
   14.3590    6.3130   11.4250 N   0  0  0  0  0  0  0  0  0  0  0  0
   13.6710    5.1410   11.3970 C   0  0  0  0  0  0  0  0  0  0  0  0
   16.7680    6.8690   11.5780 N   0  0  0  0  0  0  0  0  0  0  0  0
   18.0150    6.3330   11.6640 C   0  0  0  0  0  0  0  0  0  0  0  0
   19.0600    7.0570   11.7120 O   0  0  0  0  0  0  0  0  0  0  0  0
   18.2010    5.0030   11.7040 N   0  0  0  0  0  0  0  0  0  0  0  0
   17.1170    4.2170   11.6560 C   0  0  0  0  0  0  0  0  0  0  0  0
   17.3240    2.9830   11.6930 O   0  0  0  0  0  0  0  0  0  0  0  0
   16.6550    8.3040   11.5340 C   0  0  0  0  0  1  0  0  0  0  0  0
   19.1790    4.5880   11.7720 H   0  0  0  0  0  0  0  0  0  0  0  0
   12.2390    5.0400   11.2480 N   0  0  0  0  0  0  0  0  0  0  0  0
   11.4770    5.2700   12.4530 C   0  0  0  0  0  2  0  0  0  0  0  0
    9.9840    5.2420   12.2410 C   0  0  0  0  0  2  0  0  0  0  0  0
    9.6910    6.0270   11.0980 N   0  0  0  0  0  0  0  0  0  0  0  0
   10.2390    5.4700    9.9060 C   0  0  0  0  0  2  0  0  0  0  0  0
   11.5400    4.7370   10.0460 C   0  0  0  0  0  2  0  0  0  0  0  0
   10.0280    7.3980   11.3190 C   0  0  0  0  0  2  0  0  0  0  0  0
    8.9020    8.2240   11.8450 C   0  0  0  0  0  0  0  0  0  0  0  0
    7.8030    8.3470   11.2810 O   0  0  0  0  0  0  0  0  0  0  0  0
    9.1690    8.8930   13.0850 N   0  0  0  0  0  0  0  0  0  0  0  0
    9.6840    9.8020   13.1190 H   0  0  0  0  0  0  0  0  0  0  0  0
    8.8460    8.4650   13.9500 H   0  0  0  0  0  0  0  0  0  0  0  0
   14.3640    2.7690   11.5280 C   0  0  0  0  0  2  0  0  0  0  0  0
   14.1830    2.1070   10.2090 C   0  0  0  0  0  0  0  0  0  0  0  0
   13.0350    1.3240   10.0170 C   0  0  0  0  0  3  0  0  0  0  0  0
   12.7680    0.6640    8.8510 C   0  0  0  0  0  0  0  0  0  0  0  0
   11.3260   -0.3140    8.5970 Cl  0  0  0  0  0  0  0  0  0  0  0  0
   13.6600    0.7610    7.8050 C   0  0  0  0  0  3  0  0  0  0  0  0
   14.7930    1.5300    7.9840 C   0  0  0  0  0  3  0  0  0  0  0  0
   15.0580    2.1980    9.1700 C   0  0  0  0  0  3  0  0  0  0  0  0
  1 26  1  0  0  0  0
  1  2  1  0  0  0  0
  2 10  1  0  0  0  0
  3  2  2  0  0  0  0
  3  6  1  0  0  0  0
  4  3  1  0  0  0  0
  5  4  2  0  0  0  0
  5  1  1  0  0  0  0
  6  7  1  0  0  0  0
  7  9  1  0  0  0  0
  7  8  2  0  0  0  0
  9 13  1  0  0  0  0
 10 11  2  0  0  0  0
 10  9  1  0  0  0  0
 12  6  1  0  0  0  0
 14  5  1  0  0  0  0
 14 15  1  0  0  0  0
 16 15  1  0  0  0  0
 17 20  1  0  0  0  0
 17 16  1  0  0  0  0
 18 19  1  0  0  0  0
 18 17  1  0  0  0  0
 19 14  1  0  0  0  0
 20 21  1  0  0  0  0
 21 23  1  0  0  0  0
 22 21  2  0  0  0  0
 23 24  1  0  0  0  0
 23 25  1  0  0  0  0
 27 26  1  0  0  0  0
 28 27  1  0  0  0  0
 29 28  2  0  0  0  0
 30 29  1  0  0  0  0
 31 32  2  0  0  0  0
 31 29  1  0  0  0  0
 32 33  1  0  0  0  0
 33 27  2  0  0  0  0
M  END
>  <Pose>
1

>  <Score>
-8.136

$$$$
