/Users/jonathanwahrer/Desktop/Msc/3_Semester/Drug_Design_Praktikum/waehrer_HTS_screening/HTS_experiment/out/docking_results/vina_output/2jam/1865_docked.pdbqt
 OpenBabel03162218443D

 29 32  0  0  1  0  0  0  0  0999 V2000
    9.4230    6.1960   11.6290 N   0  0  0  0  0  0  0  0  0  0  0  0
    9.9170    7.5130   11.3430 C   0  0  0  0  0  0  0  0  0  0  0  0
    9.1860    8.5150   11.0480 O   0  0  0  0  0  0  0  0  0  0  0  0
   11.3380    7.5080   11.4460 N   0  0  0  0  0  0  0  0  0  0  0  0
   11.7350    6.1260   11.2930 C   0  0  1  0  0  0  0  0  0  0  0  0
   11.7000    5.8180    9.8080 C   0  0  0  0  0  2  0  0  0  0  0  0
   11.6790    4.2980    9.6930 C   0  0  0  0  0  2  0  0  0  0  0  0
   12.7070    3.7220   10.5380 N   0  0  0  0  0  0  0  0  0  0  0  0
   13.6400    4.5830   11.2150 C   0  0  0  0  0  2  0  0  0  0  0  0
   13.0430    5.7860   11.8680 C   0  0  0  0  0  2  0  0  0  0  0  0
   12.7890    2.3130   10.6880 C   0  0  0  0  0  0  0  0  0  0  0  0
   13.6910    1.8130   11.4340 O   0  0  0  0  0  0  0  0  0  0  0  0
   10.5830    5.4160   11.9020 C   0  0  0  0  0  0  0  0  0  0  0  0
   10.5520    4.3330   12.5480 O   0  0  0  0  0  0  0  0  0  0  0  0
   11.9620    8.3230   11.5970 H   0  0  0  0  0  0  0  0  0  0  0  0
    8.0520    5.7400   11.6430 C   0  0  0  0  0  2  0  0  0  0  0  0
    7.2500    6.3680   12.7140 C   0  0  0  0  0  0  0  0  0  0  0  0
    6.3280    7.3510   12.4370 C   0  0  0  0  0  3  0  0  0  0  0  0
    5.5620    7.9620   13.4080 C   0  0  0  0  0  0  0  0  0  0  0  0
    4.3890    9.2130   13.0480 Cl  0  0  0  0  0  0  0  0  0  0  0  0
    5.7530    7.5440   14.7100 C   0  0  0  0  0  3  0  0  0  0  0  0
    6.6740    6.5590   15.0020 C   0  0  0  0  0  3  0  0  0  0  0  0
    7.4340    5.9580   14.0140 C   0  0  0  0  0  3  0  0  0  0  0  0
   11.8900    1.3820   10.0270 C   0  0  0  0  0  0  0  0  0  0  0  0
   10.5500    1.4650   10.1340 N   0  0  0  0  0  0  0  0  0  0  0  0
    9.7770    0.5700    9.4950 C   0  0  0  0  0  3  0  0  0  0  0  0
   10.3040   -0.4440    8.7240 C   0  0  0  0  0  3  0  0  0  0  0  0
   11.6380   -0.5310    8.6140 N   0  0  0  0  0  0  0  0  0  0  0  0
   12.4240    0.3740    9.2590 C   0  0  0  0  0  3  0  0  0  0  0  0
  1 16  1  0  0  0  0
  1 13  1  0  0  0  0
  2  4  1  0  0  0  0
  2  1  1  0  0  0  0
  3  2  2  0  0  0  0
  4 15  1  0  0  0  0
  5  6  1  6  0  0  0
  5  4  1  0  0  0  0
  5 10  1  0  0  0  0
  5 13  1  0  0  0  0
  7  6  1  0  0  0  0
  7  8  1  0  0  0  0
  8 11  1  0  0  0  0
  8  9  1  0  0  0  0
  9 10  1  0  0  0  0
 11 12  2  0  0  0  0
 13 14  2  0  0  0  0
 16 17  1  0  0  0  0
 17 23  1  0  0  0  0
 18 17  2  0  0  0  0
 18 19  1  0  0  0  0
 19 21  2  0  0  0  0
 20 19  1  0  0  0  0
 21 22  1  0  0  0  0
 23 22  2  0  0  0  0
 24 25  1  0  0  0  0
 24 11  1  0  0  0  0
 26 25  2  0  0  0  0
 27 26  1  0  0  0  0
 28 27  2  0  0  0  0
 28 29  1  0  0  0  0
 29 24  2  0  0  0  0
M  END
>  <Pose>
1

>  <Score>
-8.770

$$$$
