/Users/jonathanwahrer/Desktop/Msc/3_Semester/Drug_Design_Praktikum/waehrer_HTS_screening/HTS_experiment/out/docking_results/vina_output/2jam/1871_docked.pdbqt
 OpenBabel03162218453D

 28 31  0  0  1  0  0  0  0  0999 V2000
   12.0450    5.6760   10.4080 C   0  0  2  0  0  0  0  0  0  0  0  0
   12.8210    4.4990   10.3970 N   0  0  0  0  0  4  0  0  0  0  0  0
   13.8940    4.6060   11.2920 C   0  0  0  0  0  0  0  0  0  0  0  0
   14.9740    3.9720   11.6790 C   0  0  0  0  0  3  0  0  0  0  0  0
   15.8500    4.5100   12.7250 C   0  0  0  0  0  3  0  0  0  0  0  0
   15.3790    5.5710   13.6060 C   0  0  0  0  0  3  0  0  0  0  0  0
   14.0220    6.1370   13.2700 C   0  0  0  0  0  2  0  0  0  0  0  0
   13.6900    5.9080   11.9090 N   0  0  0  0  0  0  0  0  0  0  0  0
   13.1330    6.6860   10.8090 C   0  0  2  0  0  3  0  0  0  0  0  0
   12.6510    7.9950   11.2780 C   0  0  0  0  0  1  0  0  0  0  0  0
   13.3730    4.6110    9.4310 H   0  0  0  0  0  0  0  0  0  0  0  0
   10.9240    5.7730   11.3410 C   0  0  0  0  0  0  0  0  0  0  0  0
    9.7440    6.3350   10.9320 C   0  0  0  0  0  3  0  0  0  0  0  0
    8.6520    6.4680   11.7880 C   0  0  0  0  0  3  0  0  0  0  0  0
    8.7800    6.0130   13.0930 C   0  0  0  0  0  0  0  0  0  0  0  0
    7.4660    6.1370   14.2480 Cl  0  0  0  0  0  0  0  0  0  0  0  0
    9.9760    5.4480   13.4900 C   0  0  0  0  0  3  0  0  0  0  0  0
   11.0560    5.3170   12.6410 C   0  0  0  0  0  3  0  0  0  0  0  0
   11.6870    6.0160    9.1230 O   0  0  0  0  0  0  0  0  0  0  0  0
   11.4600    5.2860    8.5190 H   0  0  0  0  0  0  0  0  0  0  0  0
   12.1730    3.2910   10.1560 C   0  0  0  0  0  0  0  0  0  0  0  0
   12.8990    2.3020    9.5120 C   0  0  0  0  0  3  0  0  0  0  0  0
   12.3730    1.0710    9.2060 C   0  0  0  0  0  3  0  0  0  0  0  0
   11.0550    0.7300    9.5280 C   0  0  0  0  0  0  0  0  0  0  0  0
   10.3590    1.7280   10.1640 C   0  0  0  0  0  3  0  0  0  0  0  0
   10.8920    2.9570   10.4670 C   0  0  0  0  0  3  0  0  0  0  0  0
   10.5380   -0.5130    9.2190 O   0  0  0  0  0  0  0  0  0  0  0  0
    9.1970   -0.6260    8.8140 C   0  0  0  0  0  1  0  0  0  0  0  0
  1 19  1  6  0  0  0
  1  9  1  0  0  0  0
  1 12  1  0  0  0  0
  2  1  1  0  0  0  0
  2  3  1  0  0  0  0
  3  4  2  0  0  0  0
  3  8  1  0  0  0  0
  4  5  1  0  0  0  0
  5  6  2  0  0  0  0
  7  6  1  0  0  0  0
  8  7  1  0  0  0  0
  9 10  1  1  0  0  0
  9  8  1  0  0  0  0
 11  2  1  0  0  0  0
 12 18  1  0  0  0  0
 13 12  2  0  0  0  0
 13 14  1  0  0  0  0
 14 15  2  0  0  0  0
 15 17  1  0  0  0  0
 15 16  1  0  0  0  0
 18 17  2  0  0  0  0
 20 19  1  0  0  0  0
 21  2  1  0  0  0  0
 21 26  1  0  0  0  0
 22 21  2  0  0  0  0
 23 22  1  0  0  0  0
 23 24  2  0  0  0  0
 24 25  1  0  0  0  0
 25 26  2  0  0  0  0
 27 24  1  0  0  0  0
 28 27  1  0  0  0  0
M  END
>  <Pose>
1

>  <Score>
-7.754

$$$$
