/Users/jonathanwahrer/Desktop/Msc/3_Semester/Drug_Design_Praktikum/waehrer_HTS_screening/HTS_experiment/out/docking_results/vina_output/2jam/1893_docked.pdbqt
 OpenBabel03162218453D

 28 31  0  0  0  0  0  0  0  0999 V2000
   10.9210    3.5380   10.9460 N   0  0  0  0  0  0  0  0  0  0  0  0
   10.3870    4.7280   10.5840 C   0  0  0  0  0  0  0  0  0  0  0  0
   10.1200    5.0470    9.3950 O   0  0  0  0  0  0  0  0  0  0  0  0
   10.1790    5.5350   11.6900 C   0  0  0  0  0  0  0  0  0  0  0  0
   10.5890    4.8340   12.7350 C   0  0  0  0  0  0  0  0  0  0  0  0
   10.3850    5.6230   13.8110 N   0  0  0  0  0  0  0  0  0  0  0  0
    9.8590    6.7850   13.4010 N   0  0  0  0  0  0  0  0  0  0  0  0
    9.7270    6.7390   12.0850 N   0  0  0  0  0  0  0  0  0  0  0  0
   11.0430    3.6120   12.2820 C   0  0  0  0  0  0  0  0  0  0  0  0
   11.4970    2.7210   13.0330 O   0  0  0  0  0  0  0  0  0  0  0  0
   10.6050    5.3650   14.7900 H   0  0  0  0  0  0  0  0  0  0  0  0
    9.5850    7.6080   13.9790 H   0  0  0  0  0  0  0  0  0  0  0  0
    9.1970    7.7790   11.2290 C   0  0  0  0  0  2  0  0  0  0  0  0
    8.1360    8.5850   11.8820 C   0  0  0  0  0  0  0  0  0  0  0  0
    6.7930    8.2900   11.8210 C   0  0  0  0  0  3  0  0  0  0  0  0
    5.8090    9.0420   12.4310 C   0  0  0  0  0  0  0  0  0  0  0  0
    6.1770   10.1560   13.1460 C   0  0  0  0  0  3  0  0  0  0  0  0
    7.5090   10.4890   13.2340 C   0  0  0  0  0  3  0  0  0  0  0  0
    8.4750    9.7160   12.6110 C   0  0  0  0  0  3  0  0  0  0  0  0
    4.4700    8.6530   12.3060 O   0  0  0  0  0  0  0  0  0  0  0  0
    3.4990    9.0280   13.2610 C   0  0  0  0  0  1  0  0  0  0  0  0
   11.2660    2.4690   10.0910 C   0  0  0  0  0  0  0  0  0  0  0  0
   12.5460    2.3170    9.6020 C   0  0  0  0  0  3  0  0  0  0  0  0
   12.9090    1.2790    8.7630 C   0  0  0  0  0  3  0  0  0  0  0  0
   11.9440    0.3610    8.4060 C   0  0  0  0  0  0  0  0  0  0  0  0
   12.3320   -0.9930    7.3380 Cl  0  0  0  0  0  0  0  0  0  0  0  0
   10.6490    0.4690    8.8690 C   0  0  0  0  0  3  0  0  0  0  0  0
   10.3280    1.5300    9.7110 C   0  0  0  0  0  3  0  0  0  0  0  0
  1  9  1  0  0  0  0
  2  1  1  0  0  0  0
  2  4  1  0  0  0  0
  3  2  2  0  0  0  0
  4  8  1  0  0  0  0
  4  5  2  0  0  0  0
  5  6  1  0  0  0  0
  6 11  1  0  0  0  0
  7  6  1  0  0  0  0
  7 12  1  0  0  0  0
  8  7  1  0  0  0  0
  9  5  1  0  0  0  0
  9 10  2  0  0  0  0
 13 14  1  0  0  0  0
 13  8  1  0  0  0  0
 14 19  1  0  0  0  0
 15 14  2  0  0  0  0
 15 16  1  0  0  0  0
 16 17  2  0  0  0  0
 17 18  1  0  0  0  0
 19 18  2  0  0  0  0
 20 16  1  0  0  0  0
 20 21  1  0  0  0  0
 22  1  1  0  0  0  0
 23 22  2  0  0  0  0
 24 23  1  0  0  0  0
 25 24  2  0  0  0  0
 25 27  1  0  0  0  0
 26 25  1  0  0  0  0
 27 28  2  0  0  0  0
 28 22  1  0  0  0  0
M  END
>  <Pose>
1

>  <Score>
-9.047

$$$$
