/Users/jonathanwahrer/Desktop/Msc/3_Semester/Drug_Design_Praktikum/waehrer_HTS_screening/HTS_experiment/out/docking_results/vina_output/2jam/1894_docked.pdbqt
 OpenBabel03162218453D

 26 29  0  0  0  0  0  0  0  0999 V2000
   10.8480    3.6930   10.9890 N   0  0  0  0  0  0  0  0  0  0  0  0
   10.2630    4.8600   10.6370 C   0  0  0  0  0  0  0  0  0  0  0  0
    9.8960    5.1370    9.4750 O   0  0  0  0  0  0  0  0  0  0  0  0
   10.1300    5.6980   11.7310 C   0  0  0  0  0  0  0  0  0  0  0  0
   10.6450    5.0250   12.7710 C   0  0  0  0  0  0  0  0  0  0  0  0
   10.5090    5.8460   13.8270 N   0  0  0  0  0  0  0  0  0  0  0  0
    9.9350    6.9720   13.4430 N   0  0  0  0  0  0  0  0  0  0  0  0
    9.6950    6.8970   12.1520 N   0  0  0  0  0  0  0  0  0  0  0  0
   11.0780    3.8030   12.3030 C   0  0  0  0  0  0  0  0  0  0  0  0
   11.6180    2.9130   13.0160 O   0  0  0  0  0  0  0  0  0  0  0  0
   10.7980    5.6570   14.8090 H   0  0  0  0  0  0  0  0  0  0  0  0
    9.7030    7.8030   14.0640 H   0  0  0  0  0  0  0  0  0  0  0  0
   11.1520    2.5850   10.1440 C   0  0  0  0  0  0  0  0  0  0  0  0
   10.1940    1.6520    9.8100 C   0  0  0  0  0  3  0  0  0  0  0  0
   10.4800    0.5750    8.9920 C   0  0  0  0  0  3  0  0  0  0  0  0
   11.7440    0.3880    8.4730 C   0  0  0  0  0  0  0  0  0  0  0  0
   12.1060   -0.9850    7.4300 Cl  0  0  0  0  0  0  0  0  0  0  0  0
   12.7120    1.3150    8.8010 C   0  0  0  0  0  3  0  0  0  0  0  0
   12.4170    2.3880    9.6200 C   0  0  0  0  0  3  0  0  0  0  0  0
    9.0840    7.9070   11.3190 C   0  0  0  0  0  2  0  0  0  0  0  0
    7.8770    8.5190   11.9150 C   0  0  0  0  0  0  0  0  0  0  0  0
    6.7310    7.7740   12.0470 C   0  0  0  0  0  3  0  0  0  0  0  0
    5.6180    8.3650   12.6000 C   0  0  0  0  0  3  0  0  0  0  0  0
    5.6340    9.6820   13.0220 C   0  0  0  0  0  3  0  0  0  0  0  0
    6.7820   10.4300   12.8900 C   0  0  0  0  0  3  0  0  0  0  0  0
    7.8790    9.8280   12.3380 C   0  0  0  0  0  3  0  0  0  0  0  0
  1  9  1  0  0  0  0
  2  1  1  0  0  0  0
  2  4  1  0  0  0  0
  3  2  2  0  0  0  0
  4  8  1  0  0  0  0
  4  5  2  0  0  0  0
  5  6  1  0  0  0  0
  6 11  1  0  0  0  0
  7  6  1  0  0  0  0
  7 12  1  0  0  0  0
  8  7  1  0  0  0  0
  9  5  1  0  0  0  0
  9 10  2  0  0  0  0
 13  1  1  0  0  0  0
 14 13  1  0  0  0  0
 15 14  2  0  0  0  0
 16 18  2  0  0  0  0
 16 15  1  0  0  0  0
 17 16  1  0  0  0  0
 18 19  1  0  0  0  0
 19 13  2  0  0  0  0
 20 21  1  0  0  0  0
 20  8  1  0  0  0  0
 21 22  2  0  0  0  0
 21 26  1  0  0  0  0
 22 23  1  0  0  0  0
 23 24  2  0  0  0  0
 25 24  1  0  0  0  0
 26 25  2  0  0  0  0
M  END
>  <Pose>
1

>  <Score>
-8.815

$$$$
