/Users/jonathanwahrer/Desktop/Msc/3_Semester/Drug_Design_Praktikum/waehrer_HTS_screening/HTS_experiment/out/docking_results/vina_output/2jam/1895_docked.pdbqt
 OpenBabel03162218453D

 32 35  0  0  1  0  0  0  0  0999 V2000
    7.5080    8.4830   11.7390 N   0  0  0  0  0  0  0  0  0  0  0  0
    8.4770    7.4660   11.6130 C   0  0  0  0  0  2  0  0  0  0  0  0
    9.8600    8.1490   11.5850 C   0  0  0  0  0  2  0  0  0  0  0  0
   10.0130    8.6450   12.9290 N   0  0  0  0  0  0  0  0  0  0  0  0
    9.0450    9.7180   13.2430 C   0  0  0  0  0  2  0  0  0  0  0  0
    7.6990    9.5010   12.6850 C   0  0  0  0  0  2  0  0  0  0  0  0
   10.9140    8.2570   13.9190 C   0  0  0  0  0  0  0  0  0  0  0  0
   10.7590    8.9280   15.0450 O   0  0  0  0  0  0  0  0  0  0  0  0
   11.9760    7.2890   14.0000 C   0  0  0  0  0  2  0  0  0  0  0  0
   12.2690    6.5000   12.8420 N   0  0  0  0  0  0  0  0  0  0  0  0
   13.2640    6.7990   11.8610 C   0  0  0  0  0  0  0  0  0  0  0  0
   14.0060    7.8380   11.9010 O   0  0  0  0  0  0  0  0  0  0  0  0
   13.2550    5.7680   10.8960 N   0  0  0  0  0  0  0  0  0  0  0  0
   12.5500    4.6260   11.4590 C   0  0  1  0  0  0  0  0  0  0  0  0
   13.6680    5.7940    9.9520 H   0  0  0  0  0  0  0  0  0  0  0  0
   11.7210    3.8750   10.4770 C   0  0  1  0  0  3  0  0  0  0  0  0
   13.5890    3.7580   12.1310 C   0  0  0  0  0  2  0  0  0  0  0  0
   11.6500    5.2690   12.4620 C   0  0  0  0  0  0  0  0  0  0  0  0
   11.7410    2.3990   10.8890 C   0  0  0  0  0  2  0  0  0  0  0  0
   10.2670    4.2850   10.4550 C   0  0  0  0  0  1  0  0  0  0  0  0
   13.1220    1.8840   10.5320 C   0  0  0  0  0  2  0  0  0  0  0  0
   14.1600    2.8470   11.0530 C   0  0  0  0  0  2  0  0  0  0  0  0
   10.5680    4.8230   12.8900 O   0  0  0  0  0  0  0  0  0  0  0  0
    5.8940    7.9650   11.5350 S   0  0  0  0  0  0  0  0  0  0  0  0
    5.1900    8.5870   10.3950 O   0  0  0  0  0  0  0  0  0  0  0  0
    5.9050    6.4680   11.3380 O   0  0  0  0  0  0  0  0  0  0  0  0
    5.0330    8.3230   13.0420 C   0  0  0  0  0  0  0  0  0  0  0  0
    5.4000    7.8710   14.6430 S   0  0  0  0  0  0  0  0  0  0  0  0
    4.0930    8.6120   15.4430 C   0  0  0  0  0  0  0  0  0  0  0  0
    3.3940    9.2010   14.4230 C   0  0  0  0  0  3  0  0  0  0  0  0
    3.7240    8.6190   17.1750 Cl  0  0  0  0  0  0  0  0  0  0  0  0
    3.8860    9.0480   13.1810 C   0  0  0  0  0  3  0  0  0  0  0  0
  1  6  1  0  0  0  0
  2  1  1  0  0  0  0
  3  2  1  0  0  0  0
  3  4  1  0  0  0  0
  4  5  1  0  0  0  0
  4  7  1  0  0  0  0
  6  5  1  0  0  0  0
  7  9  1  0  0  0  0
  7  8  2  0  0  0  0
 10  9  1  0  0  0  0
 11 12  2  0  0  0  0
 11 10  1  0  0  0  0
 13 14  1  0  0  0  0
 13 11  1  0  0  0  0
 14 17  1  1  0  0  0
 14 18  1  0  0  0  0
 15 13  1  0  0  0  0
 16 20  1  1  0  0  0
 16 19  1  0  0  0  0
 16 14  1  0  0  0  0
 18 10  1  0  0  0  0
 18 23  2  0  0  0  0
 21 19  1  0  0  0  0
 21 22  1  0  0  0  0
 22 17  1  0  0  0  0
 24  1  1  0  0  0  0
 24 27  1  0  0  0  0
 25 24  2  0  0  0  0
 26 24  2  0  0  0  0
 27 32  2  0  0  0  0
 27 28  1  0  0  0  0
 28 29  1  0  0  0  0
 29 31  1  0  0  0  0
 30 29  2  0  0  0  0
 32 30  1  0  0  0  0
M  END
>  <Pose>
1

>  <Score>
-8.545

$$$$
