/Users/jonathanwahrer/Desktop/Msc/3_Semester/Drug_Design_Praktikum/waehrer_HTS_screening/HTS_experiment/out/docking_results/vina_output/2jam/1906_docked.pdbqt
 OpenBabel03162218463D

 33 36  0  0  1  0  0  0  0  0999 V2000
   12.3320    4.4070   11.6480 C   0  0  1  0  0  0  0  0  0  0  0  0
   12.5010    4.9740   10.3760 O   0  0  0  0  0  0  0  0  0  0  0  0
   11.4530    4.7740    9.5200 C   0  0  0  0  0  2  0  0  0  0  0  0
   10.2030    5.5510    9.8790 C   0  0  0  0  0  2  0  0  0  0  0  0
   10.1550    5.4820   11.3620 N   0  0  0  0  0  0  0  0  0  0  0  0
   10.8170    4.3660   11.9200 C   0  0  0  0  0  2  0  0  0  0  0  0
    9.4890    6.4820   12.0390 C   0  0  0  0  0  0  0  0  0  0  0  0
    8.9220    7.4510   11.3830 O   0  0  0  0  0  0  0  0  0  0  0  0
   12.7610    2.9740   11.5170 C   0  0  0  0  0  2  0  0  0  0  0  0
   12.1120    2.1360   10.7400 O   0  0  0  0  0  0  0  0  0  0  0  0
   12.0620    1.2940    9.7500 C   0  0  0  0  0  0  0  0  0  0  0  0
   11.0050    0.4680    9.4650 C   0  0  0  0  0  3  0  0  0  0  0  0
   11.0550   -0.3860    8.3970 C   0  0  0  0  0  0  0  0  0  0  0  0
    9.6770   -1.4340    8.0590 Cl  0  0  0  0  0  0  0  0  0  0  0  0
   12.1600   -0.4500    7.5680 C   0  0  0  0  0  3  0  0  0  0  0  0
   13.2170    0.3760    7.8490 C   0  0  0  0  0  3  0  0  0  0  0  0
   13.1850    1.2280    8.9030 C   0  0  0  0  0  3  0  0  0  0  0  0
   13.0520    5.2270   12.6180 C   0  0  0  0  0  2  0  0  0  0  0  0
   13.6200    6.5020   12.1740 C   0  0  0  0  0  0  0  0  0  0  0  0
   12.9140    7.5260   12.0950 O   0  0  0  0  0  0  0  0  0  0  0  0
   14.9930    6.6180   11.8170 N   0  0  0  0  0  0  0  0  0  0  0  0
   15.8950    5.4730   11.8760 C   0  0  0  0  0  2  0  0  0  0  0  0
   15.5610    7.8750   11.3760 C   0  0  0  0  0  2  0  0  0  0  0  0
   17.1480    5.9310   12.5930 C   0  0  0  0  0  2  0  0  0  0  0  0
   17.6950    7.0140   11.8980 O   0  0  0  0  0  0  0  0  0  0  0  0
   16.8610    8.1180   12.0710 C   0  0  0  0  0  2  0  0  0  0  0  0
    9.3530    6.5640   13.4610 C   0  0  0  0  0  0  0  0  0  0  0  0
   10.2510    7.1400   14.2600 N   0  0  0  0  0  0  0  0  0  0  0  0
   10.1290    7.2210   15.6000 C   0  0  0  0  0  3  0  0  0  0  0  0
    9.0110    6.6800   16.2140 C   0  0  0  0  0  0  0  0  0  0  0  0
    8.0980    6.1000   15.4530 N   0  0  0  0  0  0  0  0  0  0  0  0
    8.9290    6.7970   17.6910 C   0  0  0  0  0  1  0  0  0  0  0  0
    8.2390    6.0300   14.1190 C   0  0  0  0  0  3  0  0  0  0  0  0
  1  9  1  1  0  0  0
  1  6  1  0  0  0  0
  1 18  1  0  0  0  0
  2  1  1  0  0  0  0
  3  4  1  0  0  0  0
  3  2  1  0  0  0  0
  4  5  1  0  0  0  0
  5  6  1  0  0  0  0
  5  7  1  0  0  0  0
  7 27  1  0  0  0  0
  8  7  2  0  0  0  0
 10  9  1  0  0  0  0
 11 10  1  0  0  0  0
 12 11  1  0  0  0  0
 13 12  2  0  0  0  0
 14 13  1  0  0  0  0
 15 16  2  0  0  0  0
 15 13  1  0  0  0  0
 16 17  1  0  0  0  0
 17 11  2  0  0  0  0
 19 18  1  0  0  0  0
 20 19  2  0  0  0  0
 21 22  1  0  0  0  0
 21 19  1  0  0  0  0
 22 24  1  0  0  0  0
 23 21  1  0  0  0  0
 23 26  1  0  0  0  0
 25 26  1  0  0  0  0
 25 24  1  0  0  0  0
 27 33  2  0  0  0  0
 27 28  1  0  0  0  0
 28 29  2  0  0  0  0
 29 30  1  0  0  0  0
 30 32  1  0  0  0  0
 31 30  2  0  0  0  0
 33 31  1  0  0  0  0
M  END
>  <Pose>
1

>  <Score>
-8.064

$$$$
