/Users/jonathanwahrer/Desktop/Msc/3_Semester/Drug_Design_Praktikum/waehrer_HTS_screening/HTS_experiment/out/docking_results/vina_output/2jam/1927_docked.pdbqt
 OpenBabel03162218463D

 36 39  0  0  1  0  0  0  0  0999 V2000
    9.4410    6.5640   12.2550 C   0  0  0  0  0  2  0  0  0  0  0  0
    8.2340    7.4020   12.1890 C   0  0  0  0  0  0  0  0  0  0  0  0
    7.1180    7.4680   13.0120 N   0  0  0  0  0  0  0  0  0  0  0  0
    6.7720    6.5470   14.0360 C   0  0  0  0  0  2  0  0  0  0  0  0
    6.1890    8.6150   12.8320 C   0  0  0  0  0  2  0  0  0  0  0  0
    6.6620    7.2580   15.3690 C   0  0  0  0  0  2  0  0  0  0  0  0
    5.4290    8.1440   15.2080 C   0  0  2  0  0  0  0  0  0  0  0  0
    5.6000    9.1200   14.1050 C   0  0  0  0  0  2  0  0  0  0  0  0
    8.2360    8.2120   11.1610 O   0  0  0  0  0  0  0  0  0  0  0  0
    5.0170    8.6770   16.4950 C   0  0  0  0  0  0  0  0  0  0  0  0
    3.6500    8.6490   16.7980 C   0  0  0  0  0  3  0  0  0  0  0  0
    3.1450    9.1670   17.9910 C   0  0  0  0  0  3  0  0  0  0  0  0
    3.9820    9.7280   18.9250 C   0  0  0  0  0  0  0  0  0  0  0  0
    3.3400   10.4000   20.4470 Cl  0  0  0  0  0  0  0  0  0  0  0  0
    5.3370    9.7610   18.6380 C   0  0  0  0  0  3  0  0  0  0  0  0
    5.8220    9.2460   17.4520 C   0  0  0  0  0  3  0  0  0  0  0  0
    4.4190    7.2220   14.7880 O   0  0  0  0  0  0  0  0  0  0  0  0
    3.5520    7.6210   15.0490 H   0  0  0  0  0  0  0  0  0  0  0  0
    9.4320    5.3480   11.5680 N   0  0  0  0  0  0  0  0  0  0  0  0
   10.5850    4.5510   11.2950 C   0  0  0  0  0  0  0  0  0  0  0  0
   11.6740    5.0340   11.7050 O   0  0  0  0  0  0  0  0  0  0  0  0
    8.5280    4.8960   11.2630 H   0  0  0  0  0  0  0  0  0  0  0  0
   10.4770    3.2930   10.6070 C   0  0  0  0  0  3  0  0  0  0  0  0
   11.3510    2.6060    9.9500 C   0  0  0  0  0  0  0  0  0  0  0  0
   12.7050    3.0240    9.7690 N   0  0  0  0  0  0  0  0  0  0  0  0
   10.9950    1.2940    9.3510 C   0  0  0  0  0  0  0  0  0  0  0  0
   13.6450    2.2420    9.0660 N   0  0  0  0  0  0  0  0  0  0  0  0
   13.0430    3.9370   10.1590 H   0  0  0  0  0  0  0  0  0  0  0  0
   13.2820    1.0000    8.5060 C   0  0  0  0  0  0  0  0  0  0  0  0
   14.6310    2.5740    8.9550 H   0  0  0  0  0  0  0  0  0  0  0  0
   14.1570    0.3290    7.8850 O   0  0  0  0  0  0  0  0  0  0  0  0
   11.9180    0.5370    8.6660 C   0  0  0  0  0  0  0  0  0  0  0  0
   11.6190   -0.6970    8.1240 C   0  0  0  0  0  3  0  0  0  0  0  0
   10.3240   -1.1830    8.2850 C   0  0  0  0  0  3  0  0  0  0  0  0
    9.3710   -0.4690    8.9570 C   0  0  0  0  0  3  0  0  0  0  0  0
    9.7390    0.7760    9.4820 C   0  0  0  0  0  3  0  0  0  0  0  0
  2  1  1  0  0  0  0
  2  3  1  0  0  0  0
  3  4  1  0  0  0  0
  4  6  1  0  0  0  0
  5  3  1  0  0  0  0
  5  8  1  0  0  0  0
  7 17  1  6  0  0  0
  7  6  1  0  0  0  0
  7 10  1  0  0  0  0
  8  7  1  0  0  0  0
  9  2  2  0  0  0  0
 10 11  2  0  0  0  0
 10 16  1  0  0  0  0
 11 12  1  0  0  0  0
 12 13  2  0  0  0  0
 13 14  1  0  0  0  0
 15 13  1  0  0  0  0
 16 15  2  0  0  0  0
 17 18  1  0  0  0  0
 19  1  1  0  0  0  0
 20 19  1  0  0  0  0
 20 21  2  0  0  0  0
 22 19  1  0  0  0  0
 23 20  1  0  0  0  0
 24 23  2  0  0  0  0
 25 24  1  0  0  0  0
 25 28  1  0  0  0  0
 26 36  1  0  0  0  0
 26 24  1  0  0  0  0
 27 25  1  0  0  0  0
 29 32  1  0  0  0  0
 29 27  1  0  0  0  0
 30 27  1  0  0  0  0
 31 29  2  0  0  0  0
 32 26  2  0  0  0  0
 33 34  2  0  0  0  0
 33 32  1  0  0  0  0
 34 35  1  0  0  0  0
 35 36  2  0  0  0  0
M  END
>  <Pose>
1

>  <Score>
-10.360

$$$$
