/Users/jonathanwahrer/Desktop/Msc/3_Semester/Drug_Design_Praktikum/waehrer_HTS_screening/HTS_experiment/out/docking_results/vina_output/2jam/1936_docked.pdbqt
 OpenBabel03162218473D

 25 28  0  0  0  0  0  0  0  0999 V2000
   10.1980    6.0190   12.1850 N   0  0  0  0  0  0  0  0  0  0  0  0
    9.2080    6.8860   11.6870 C   0  0  0  0  0  0  0  0  0  0  0  0
    9.4530    7.4990   10.6340 O   0  0  0  0  0  0  0  0  0  0  0  0
   10.0130    5.4940   13.0710 H   0  0  0  0  0  0  0  0  0  0  0  0
   11.4740    5.8210   11.5220 C   0  0  0  0  0  2  0  0  0  0  0  0
   11.5240    4.4490   10.9090 C   0  0  0  0  0  0  0  0  0  0  0  0
   10.4780    3.6510   10.6210 N   0  0  0  0  0  0  0  0  0  0  0  0
   10.8980    2.4940   10.0800 C   0  0  0  0  0  0  0  0  0  0  0  0
   10.2970    1.3470    9.6070 C   0  0  0  0  0  3  0  0  0  0  0  0
   12.2930    2.5590   10.0200 C   0  0  0  0  0  0  0  0  0  0  0  0
   10.9910    0.2700    9.0830 C   0  0  0  0  0  0  0  0  0  0  0  0
   10.1720   -1.1730    8.4910 Cl  0  0  0  0  0  0  0  0  0  0  0  0
   12.3790    0.3630    9.0360 C   0  0  0  0  0  3  0  0  0  0  0  0
   12.9950    1.4960    9.5020 C   0  0  0  0  0  3  0  0  0  0  0  0
   12.6160    3.7630   10.5330 N   0  0  0  0  0  0  0  0  0  0  0  0
   13.5930    4.1210   10.6300 H   0  0  0  0  0  0  0  0  0  0  0  0
    7.9130    7.0920   12.3590 C   0  0  0  0  0  0  0  0  0  0  0  0
    6.7490    6.4030   11.7600 C   0  0  0  0  0  2  0  0  0  0  0  0
    7.2990    5.7960   12.9910 C   0  0  0  0  0  2  0  0  0  0  0  0
    7.7290    8.2220   13.2190 N   0  0  0  0  0  0  0  0  0  0  0  0
    6.6700    9.0930   12.8940 C   0  0  0  0  0  2  0  0  0  0  0  0
    7.2540   10.2610   12.1090 C   0  0  0  0  0  2  0  0  0  0  0  0
    8.0370   11.0370   12.9300 O   0  0  0  0  0  0  0  0  0  0  0  0
    8.6570   10.3600   13.9500 C   0  0  0  0  0  2  0  0  0  0  0  0
    8.8920    8.8990   13.6260 C   0  0  0  0  0  2  0  0  0  0  0  0
  1  4  1  0  0  0  0
  2  1  1  0  0  0  0
  2 17  1  0  0  0  0
  3  2  2  0  0  0  0
  5  1  1  0  0  0  0
  6  5  1  0  0  0  0
  7  6  2  0  0  0  0
  8  7  1  0  0  0  0
  9  8  2  0  0  0  0
 10  8  1  0  0  0  0
 10 15  1  0  0  0  0
 11  9  1  0  0  0  0
 12 11  1  0  0  0  0
 13 11  2  0  0  0  0
 13 14  1  0  0  0  0
 14 10  2  0  0  0  0
 15 16  1  0  0  0  0
 15  6  1  0  0  0  0
 17 19  1  0  0  0  0
 17 20  1  0  0  0  0
 18 17  1  0  0  0  0
 18 19  1  0  0  0  0
 20 25  1  0  0  0  0
 21 20  1  0  0  0  0
 22 21  1  0  0  0  0
 22 23  1  0  0  0  0
 23 24  1  0  0  0  0
 25 24  1  0  0  0  0
M  END
>  <Pose>
1

>  <Score>
-7.648

$$$$
