/Users/jonathanwahrer/Desktop/Msc/3_Semester/Drug_Design_Praktikum/waehrer_HTS_screening/HTS_experiment/out/docking_results/vina_output/2jam/1939_docked.pdbqt
 OpenBabel03162218473D

 28 31  0  0  0  0  0  0  0  0999 V2000
   11.4640    5.9140   11.3310 N   0  0  0  0  0  0  0  0  0  0  0  0
   10.3200    6.2160   12.0180 C   0  0  0  0  0  0  0  0  0  0  0  0
   10.6350    6.7380   13.2420 C   0  0  0  0  0  0  0  0  0  0  0  0
   11.9610    6.7390   13.2700 N   0  0  0  0  0  0  0  0  0  0  0  0
   12.4970    6.2390   12.1100 C   0  0  0  0  0  0  0  0  0  0  0  0
    9.6840    7.1110   14.1180 N   0  0  0  0  0  0  0  0  0  0  0  0
    8.3730    6.9700   13.7900 C   0  0  0  0  0  0  0  0  0  0  0  0
    7.5240    7.3310   14.6350 O   0  0  0  0  0  0  0  0  0  0  0  0
    8.0130    6.4620   12.5990 N   0  0  0  0  0  0  0  0  0  0  0  0
    8.9700    6.0930   11.7340 C   0  0  0  0  0  0  0  0  0  0  0  0
    8.5840    5.6250   10.6400 O   0  0  0  0  0  0  0  0  0  0  0  0
   10.1080    7.6560   15.3960 C   0  0  0  0  0  1  0  0  0  0  0  0
    6.9960    6.3750   12.3960 H   0  0  0  0  0  0  0  0  0  0  0  0
   11.4480    5.3460   10.0090 C   0  0  0  0  0  2  0  0  0  0  0  0
   11.5870    3.8950    9.9110 C   0  0  0  0  0  0  0  0  0  0  0  0
   12.7440    3.2490    9.6250 C   0  0  0  0  0  3  0  0  0  0  0  0
   12.8170    1.8600    9.4910 C   0  0  0  0  0  3  0  0  0  0  0  0
   11.7020    1.0920    9.6450 C   0  0  0  0  0  0  0  0  0  0  0  0
   11.8440   -0.6430    9.4660 Cl  0  0  0  0  0  0  0  0  0  0  0  0
   10.5060    1.7080    9.9350 C   0  0  0  0  0  3  0  0  0  0  0  0
   10.4570    3.0760   10.0630 C   0  0  0  0  0  3  0  0  0  0  0  0
   13.8900    6.1270   11.9040 N   0  0  0  0  0  0  0  0  0  0  0  0
   14.5970    7.3000   11.4070 C   0  0  0  0  0  2  0  0  0  0  0  0
   15.9570    7.2270   12.1250 C   0  0  0  0  0  2  0  0  0  0  0  0
   15.8310    6.6530   13.4460 N   0  0  0  0  0  0  0  0  0  0  0  0
   15.4480    5.2570   13.4470 C   0  0  0  0  0  2  0  0  0  0  0  0
   16.7610    6.7220   13.8910 H   0  0  0  0  0  0  0  0  0  0  0  0
   14.7360    5.0130   12.1240 C   0  0  0  0  0  2  0  0  0  0  0  0
  1  2  1  0  0  0  0
  1  5  1  0  0  0  0
  2  3  2  0  0  0  0
  3  4  1  0  0  0  0
  3  6  1  0  0  0  0
  5  4  2  0  0  0  0
  6 12  1  0  0  0  0
  7  6  1  0  0  0  0
  7  8  2  0  0  0  0
  9  7  1  0  0  0  0
 10  2  1  0  0  0  0
 10  9  1  0  0  0  0
 11 10  2  0  0  0  0
 13  9  1  0  0  0  0
 14  1  1  0  0  0  0
 15 14  1  0  0  0  0
 15 21  1  0  0  0  0
 16 15  2  0  0  0  0
 17 16  1  0  0  0  0
 17 18  2  0  0  0  0
 18 20  1  0  0  0  0
 19 18  1  0  0  0  0
 20 21  2  0  0  0  0
 22  5  1  0  0  0  0
 22 28  1  0  0  0  0
 23 22  1  0  0  0  0
 23 24  1  0  0  0  0
 24 25  1  0  0  0  0
 25 26  1  0  0  0  0
 25 27  1  0  0  0  0
 28 26  1  0  0  0  0
M  END
>  <Pose>
1

>  <Score>
-7.375

$$$$
