/Users/jonathanwahrer/Desktop/Msc/3_Semester/Drug_Design_Praktikum/waehrer_HTS_screening/HTS_experiment/out/docking_results/vina_output/2jam/1940_docked.pdbqt
 OpenBabel03162218483D

 30 33  0  0  1  0  0  0  0  0999 V2000
   11.2310    5.2810   12.7730 C   0  0  1  0  0  3  0  0  0  0  0  0
   10.0420    6.0630   12.4090 N   0  0  0  0  0  0  0  0  0  0  0  0
   10.0530    6.1300   10.9950 C   0  0  0  0  0  0  0  0  0  0  0  0
    9.5750    7.0460   10.2850 O   0  0  0  0  0  0  0  0  0  0  0  0
   10.7350    4.9130   10.5140 C   0  0  0  0  0  0  0  0  0  0  0  0
   10.9600    4.5770    9.3290 O   0  0  0  0  0  0  0  0  0  0  0  0
   11.0920    4.1890   11.7260 C   0  0  0  0  0  0  0  0  0  0  0  0
   11.2400    2.9170   11.8610 C   0  0  0  0  0  0  0  0  0  0  0  0
   11.5720    2.3580   13.0940 O   0  0  0  0  0  1  0  0  0  0  0  0
    9.0790    6.6440   13.3350 C   0  0  0  0  0  2  0  0  0  0  0  0
    8.7180    8.0660   13.0350 C   0  0  0  0  0  2  0  0  0  0  0  0
    7.4760    8.2720   12.3730 N   0  0  0  0  0  4  0  0  0  0  0  0
    6.3140    8.3630   13.1980 C   0  0  0  0  0  2  0  0  0  0  0  0
    6.3200    9.5520   14.1300 C   0  0  0  0  0  2  0  0  0  0  0  0
    6.4620   10.7390   13.4190 O   0  0  0  0  0  0  0  0  0  0  0  0
    7.5410   10.6970   12.5410 C   0  0  0  0  0  2  0  0  0  0  0  0
    7.4920    9.5270   11.5940 C   0  0  0  0  0  2  0  0  0  0  0  0
    7.3270    7.4870   11.7020 H   0  0  0  0  0  0  0  0  0  0  0  0
   12.4680    6.0130   12.4050 C   0  0  0  0  0  0  0  0  0  0  0  0
   12.5280    7.3830   12.3700 C   0  0  0  0  0  3  0  0  0  0  0  0
   13.6780    8.0730   12.0400 C   0  0  0  0  0  3  0  0  0  0  0  0
   14.8240    7.3730   11.7300 C   0  0  0  0  0  0  0  0  0  0  0  0
   16.3200    8.1640   11.3040 Cl  0  0  0  0  0  0  0  0  0  0  0  0
   14.7880    6.0020   11.7590 C   0  0  0  0  0  3  0  0  0  0  0  0
   13.6370    5.3200   12.0890 C   0  0  0  0  0  3  0  0  0  0  0  0
   11.0660    2.0190   10.7230 C   0  0  0  0  0  0  0  0  0  0  0  0
   10.0160    1.5660   10.1360 O   0  0  0  0  0  0  0  0  0  0  0  0
   10.3350    0.7810    9.1470 C   0  0  0  0  0  3  0  0  0  0  0  0
   11.7010    0.6980    9.0590 C   0  0  0  0  0  3  0  0  0  0  0  0
   12.1830    1.4880   10.0650 C   0  0  0  0  0  3  0  0  0  0  0  0
  1 19  1  6  0  0  0
  2  1  1  0  0  0  0
  2 10  1  0  0  0  0
  3  2  1  0  0  0  0
  4  3  2  0  0  0  0
  5  3  1  0  0  0  0
  5  7  1  0  0  0  0
  6  5  2  0  0  0  0
  7  8  2  0  0  0  0
  7  1  1  0  0  0  0
  8  9  1  0  0  0  0
 11 10  1  0  0  0  0
 12 11  1  0  0  0  0
 12 13  1  0  0  0  0
 13 14  1  0  0  0  0
 15 14  1  0  0  0  0
 16 15  1  0  0  0  0
 17 12  1  0  0  0  0
 17 16  1  0  0  0  0
 18 12  1  0  0  0  0
 20 19  1  0  0  0  0
 21 20  2  0  0  0  0
 22 24  2  0  0  0  0
 22 21  1  0  0  0  0
 23 22  1  0  0  0  0
 24 25  1  0  0  0  0
 25 19  2  0  0  0  0
 26  8  1  0  0  0  0
 27 26  1  0  0  0  0
 28 27  1  0  0  0  0
 29 28  2  0  0  0  0
 29 30  1  0  0  0  0
 30 26  2  0  0  0  0
M  END
>  <Pose>
1

>  <Score>
-8.298

$$$$
