/Users/jonathanwahrer/Desktop/Msc/3_Semester/Drug_Design_Praktikum/waehrer_HTS_screening/HTS_experiment/out/docking_results/vina_output/2jam/1957_docked.pdbqt
 OpenBabel03162218493D

 36 40  0  0  1  0  0  0  0  0999 V2000
   11.9660    3.3040   10.5910 C   0  0  2  0  0  3  0  0  0  0  0  0
   13.1890    4.0930   10.6690 N   0  0  0  0  0  0  0  0  0  0  0  0
   12.8750    5.2750   11.4460 C   0  0  1  0  0  0  0  0  0  0  0  0
   11.8560    4.7630   12.4230 C   0  0  2  0  0  3  0  0  0  0  0  0
   11.0460    3.7640   11.6590 C   0  0  1  0  0  3  0  0  0  0  0  0
    9.8650    4.5080   11.1400 C   0  0  0  0  0  0  0  0  0  0  0  0
    9.0720    4.1240   10.2470 O   0  0  0  0  0  0  0  0  0  0  0  0
    9.8170    5.7550   11.8690 N   0  0  0  0  0  0  0  0  0  0  0  0
   10.8510    5.7580   12.8310 C   0  0  0  0  0  0  0  0  0  0  0  0
   10.9260    6.4730   13.8610 O   0  0  0  0  0  0  0  0  0  0  0  0
   14.0690    5.8210   12.1350 C   0  0  0  0  0  0  0  0  0  0  0  0
   14.2650    7.0890   11.6400 C   0  0  0  0  0  0  0  0  0  0  0  0
   15.3290    7.8390   12.1210 C   0  0  0  0  0  3  0  0  0  0  0  0
   16.1540    7.2980   13.0790 C   0  0  0  0  0  3  0  0  0  0  0  0
   15.9640    6.0240   13.5850 C   0  0  0  0  0  3  0  0  0  0  0  0
   14.9050    5.2890   13.0970 C   0  0  0  0  0  3  0  0  0  0  0  0
   13.2730    7.4160   10.6500 N   0  0  0  0  0  0  0  0  0  0  0  0
   12.4150    6.2970   10.5220 C   0  0  0  0  0  0  0  0  0  0  0  0
   11.4520    6.2490    9.7390 O   0  0  0  0  0  0  0  0  0  0  0  0
   13.5280    4.3280    9.7290 H   0  0  0  0  0  0  0  0  0  0  0  0
   13.2450    8.3340   10.1510 H   0  0  0  0  0  0  0  0  0  0  0  0
   12.3960    1.8670   10.7130 C   0  0  1  0  0  3  0  0  0  0  0  0
   11.5730    0.9390    9.8870 C   0  0  0  0  0  0  0  0  0  0  0  0
   12.1850    0.0380    9.0170 C   0  0  0  0  0  3  0  0  0  0  0  0
   11.4500   -0.8120    8.2330 C   0  0  0  0  0  3  0  0  0  0  0  0
   10.0690   -0.8170    8.2670 C   0  0  0  0  0  0  0  0  0  0  0  0
    9.1150   -1.9000    7.2670 Cl  0  0  0  0  0  0  0  0  0  0  0  0
    9.4870    0.0810    9.1320 C   0  0  0  0  0  3  0  0  0  0  0  0
   10.2000    0.9440    9.9290 C   0  0  0  0  0  3  0  0  0  0  0  0
   13.7220    1.6560   10.4360 O   0  0  0  0  0  0  0  0  0  0  0  0
   13.9470    2.1580    9.6120 H   0  0  0  0  0  0  0  0  0  0  0  0
    8.8770    6.8110   11.6350 C   0  0  0  0  0  3  0  0  0  0  0  0
    7.5910    6.7120   12.3680 C   0  0  0  0  0  3  0  0  0  0  0  0
    6.6820    7.8880   12.2880 C   0  0  0  0  0  2  0  0  0  0  0  0
    6.3840    8.2670   10.9860 O   0  0  0  0  0  0  0  0  0  0  0  0
    4.9860    8.2230   10.7960 C   0  0  0  0  0  1  0  0  0  0  0  0
  1  2  1  0  0  0  0
  1 22  1  1  0  0  0
  1  5  1  0  0  0  0
  2  3  1  0  0  0  0
  3 18  1  6  0  0  0
  3 11  1  0  0  0  0
  3  4  1  0  0  0  0
  4  9  1  6  0  0  0
  5  6  1  6  0  0  0
  5  4  1  0  0  0  0
  6  8  1  0  0  0  0
  7  6  2  0  0  0  0
  8  9  1  0  0  0  0
  9 10  2  0  0  0  0
 11 16  1  0  0  0  0
 12 13  1  0  0  0  0
 12 11  2  0  0  0  0
 13 14  2  0  0  0  0
 14 15  1  0  0  0  0
 16 15  2  0  0  0  0
 17 12  1  0  0  0  0
 18 17  1  0  0  0  0
 19 18  2  0  0  0  0
 20  2  1  0  0  0  0
 21 17  1  0  0  0  0
 22 30  1  6  0  0  0
 23 29  1  0  0  0  0
 23 22  1  0  0  0  0
 24 23  2  0  0  0  0
 25 26  2  0  0  0  0
 25 24  1  0  0  0  0
 26 28  1  0  0  0  0
 27 26  1  0  0  0  0
 28 29  2  0  0  0  0
 31 30  1  0  0  0  0
 32  8  1  0  0  0  0
 32 33  2  0  0  0  0
 34 33  1  0  0  0  0
 35 34  1  0  0  0  0
 36 35  1  0  0  0  0
M  END
>  <Pose>
1

>  <Score>
-8.438

$$$$
