/Users/jonathanwahrer/Desktop/Msc/3_Semester/Drug_Design_Praktikum/waehrer_HTS_screening/HTS_experiment/out/docking_results/vina_output/2jam/1958_docked.pdbqt
 OpenBabel03162218493D

 28 31  0  0  1  0  0  0  0  0999 V2000
   11.1010    3.5560   10.0370 C   0  0  0  0  0  0  0  0  0  0  0  0
   10.1820    3.5320    9.1470 O   0  0  0  0  0  0  0  0  0  0  0  0
   11.5460    4.7570   10.6080 N   0  0  0  0  0  0  0  0  0  0  0  0
   12.5720    4.7920   11.6020 C   0  0  0  0  0  2  0  0  0  0  0  0
   12.4980    5.9730   12.5290 C   0  0  0  0  0  2  0  0  0  0  0  0
   11.1090    6.4890   12.5880 C   0  0  2  0  0  3  0  0  0  0  0  0
   10.3190    6.5250   11.4540 C   0  0  0  0  0  0  0  0  0  0  0  0
    9.0670    6.9940   11.4970 N   0  0  0  0  0  0  0  0  0  0  0  0
    8.4980    7.4570   12.6310 C   0  0  2  0  0  3  0  0  0  0  0  0
    9.2690    7.4230   13.7440 N   0  0  0  0  0  0  0  0  0  0  0  0
   10.5310    6.9610   13.7520 C   0  0  0  0  0  0  0  0  0  0  0  0
   10.9590    6.0000   10.1910 C   0  0  0  0  0  2  0  0  0  0  0  0
   11.6780    2.2330   10.4390 C   0  0  0  0  0  2  0  0  0  0  0  0
   11.0770    1.1330    9.6680 C   0  0  0  0  0  0  0  0  0  0  0  0
   11.7620    0.4040    8.7200 C   0  0  0  0  0  3  0  0  0  0  0  0
   11.1710   -0.6200    8.0120 C   0  0  0  0  0  3  0  0  0  0  0  0
    9.8390   -0.9490    8.2430 C   0  0  0  0  0  0  0  0  0  0  0  0
    9.0740   -2.2480    7.3530 Cl  0  0  0  0  0  0  0  0  0  0  0  0
    9.1660   -0.2090    9.1960 C   0  0  0  0  0  3  0  0  0  0  0  0
    9.7580    0.8130    9.9020 C   0  0  0  0  0  3  0  0  0  0  0  0
   11.2930    6.9410   14.9110 O   0  0  0  0  0  0  0  0  0  0  0  0
   10.9840    6.4540   15.7570 H   0  0  0  0  0  0  0  0  0  0  0  0
    7.1780    7.9370   12.6220 N   0  0  0  0  0  0  0  0  0  0  0  0
    6.3030    7.6920   13.7300 C   0  0  0  0  0  2  0  0  0  0  0  0
    5.2240    8.7830   13.6750 C   0  0  0  0  0  2  0  0  0  0  0  0
    4.4870    8.6950   12.5210 O   0  0  0  0  0  0  0  0  0  0  0  0
    5.1980    8.5570   11.3600 C   0  0  0  0  0  2  0  0  0  0  0  0
    6.6900    8.6800   11.4980 C   0  0  0  0  0  2  0  0  0  0  0  0
  1 13  1  0  0  0  0
  1  3  1  0  0  0  0
  2  1  2  0  0  0  0
  3  4  1  0  0  0  0
  4  5  1  0  0  0  0
  6  5  1  6  0  0  0
  6 11  1  0  0  0  0
  7  8  2  0  0  0  0
  7  6  1  0  0  0  0
  8  9  1  0  0  0  0
  9 23  1  1  0  0  0
  9 10  1  0  0  0  0
 10 11  2  0  0  0  0
 11 21  1  0  0  0  0
 12  3  1  0  0  0  0
 12  7  1  0  0  0  0
 14 20  1  0  0  0  0
 14 13  1  0  0  0  0
 15 14  2  0  0  0  0
 16 17  2  0  0  0  0
 16 15  1  0  0  0  0
 17 19  1  0  0  0  0
 18 17  1  0  0  0  0
 19 20  2  0  0  0  0
 21 22  1  0  0  0  0
 23 24  1  0  0  0  0
 25 24  1  0  0  0  0
 26 25  1  0  0  0  0
 27 28  1  0  0  0  0
 27 26  1  0  0  0  0
 28 23  1  0  0  0  0
M  END
>  <Pose>
1

>  <Score>
-9.200

$$$$
