/Users/jonathanwahrer/Desktop/Msc/3_Semester/Drug_Design_Praktikum/waehrer_HTS_screening/HTS_experiment/out/docking_results/vina_output/2jam/1960_docked.pdbqt
 OpenBabel03162218493D

 28 31  0  0  0  0  0  0  0  0999 V2000
   11.4140    4.3980   10.8590 C   0  0  0  0  0  0  0  0  0  0  0  0
   11.3560    4.4950    9.6050 O   0  0  0  0  0  0  0  0  0  0  0  0
   11.5030    5.5730   11.6220 N   0  0  0  0  0  0  0  0  0  0  0  0
   11.5310    6.8970   10.9770 C   0  0  0  0  0  2  0  0  0  0  0  0
   10.7270    7.8590   11.8390 C   0  0  0  0  0  2  0  0  0  0  0  0
    9.7440    7.0620   12.5450 N   0  0  0  0  0  0  0  0  0  0  0  0
   10.2690    6.2310   13.6150 C   0  0  0  0  0  2  0  0  0  0  0  0
   11.5700    5.6120   13.0760 C   0  0  0  0  0  2  0  0  0  0  0  0
    8.3680    7.0850   12.2000 C   0  0  0  0  0  0  0  0  0  0  0  0
    7.8510    6.1270   11.3470 C   0  0  0  0  0  3  0  0  0  0  0  0
    6.5270    6.1800   11.0210 N   0  0  0  0  0  0  0  0  0  0  0  0
    5.7100    7.1060   11.4840 N   0  0  0  0  0  0  0  0  0  0  0  0
    6.1540    8.0840   12.3330 C   0  0  0  0  0  0  0  0  0  0  0  0
    7.4760    8.0270   12.6550 C   0  0  0  0  0  3  0  0  0  0  0  0
    5.2260    9.0460   12.7880 N   0  0  0  0  0  0  0  0  0  0  0  0
    5.6670   10.2250   13.5100 C   0  0  0  0  0  2  0  0  0  0  0  0
    4.7710   10.4750   14.7240 C   0  0  0  0  0  2  0  0  0  0  0  0
    3.4330   10.3880   14.3960 O   0  0  0  0  0  0  0  0  0  0  0  0
    3.1790    9.0920   13.9720 C   0  0  0  0  0  2  0  0  0  0  0  0
    3.8060    8.9220   12.5770 C   0  0  0  0  0  2  0  0  0  0  0  0
   11.3820    3.0410   11.4390 C   0  0  0  0  0  2  0  0  0  0  0  0
   11.6730    2.0040   10.4140 C   0  0  0  0  0  0  0  0  0  0  0  0
   10.6150    1.3850    9.7530 C   0  0  0  0  0  3  0  0  0  0  0  0
   10.8440    0.4170    8.7920 C   0  0  0  0  0  3  0  0  0  0  0  0
   12.1470    0.0400    8.4640 C   0  0  0  0  0  0  0  0  0  0  0  0
   12.4440   -1.1750    7.2590 Cl  0  0  0  0  0  0  0  0  0  0  0  0
   13.1800    0.6610    9.1270 C   0  0  0  0  0  3  0  0  0  0  0  0
   12.9510    1.6380   10.0950 C   0  0  0  0  0  3  0  0  0  0  0  0
  1 21  1  0  0  0  0
  1  3  1  0  0  0  0
  2  1  2  0  0  0  0
  3  8  1  0  0  0  0
  4  3  1  0  0  0  0
  4  5  1  0  0  0  0
  5  6  1  0  0  0  0
  6  7  1  0  0  0  0
  8  7  1  0  0  0  0
  9  6  1  0  0  0  0
  9 14  1  0  0  0  0
 10  9  2  0  0  0  0
 11 10  1  0  0  0  0
 11 12  2  0  0  0  0
 12 13  1  0  0  0  0
 13 14  2  0  0  0  0
 13 15  1  0  0  0  0
 15 16  1  0  0  0  0
 16 17  1  0  0  0  0
 18 17  1  0  0  0  0
 19 18  1  0  0  0  0
 20 15  1  0  0  0  0
 20 19  1  0  0  0  0
 22 21  1  0  0  0  0
 23 22  2  0  0  0  0
 24 23  1  0  0  0  0
 25 24  2  0  0  0  0
 25 27  1  0  0  0  0
 26 25  1  0  0  0  0
 27 28  2  0  0  0  0
 28 22  1  0  0  0  0
M  END
>  <Pose>
1

>  <Score>
-8.928

$$$$
