/Users/jonathanwahrer/Desktop/Msc/3_Semester/Drug_Design_Praktikum/waehrer_HTS_screening/HTS_experiment/out/docking_results/vina_output/2jam/1971_docked.pdbqt
 OpenBabel03162218503D

 22 25  0  0  1  0  0  0  0  0999 V2000
    8.7310    6.9600   12.5110 N   0  0  0  0  0  0  0  0  0  0  0  0
    7.4050    6.7470   11.9920 C   0  0  0  0  0  0  0  0  0  0  0  0
    7.1300    6.0000   11.0240 O   0  0  0  0  0  0  0  0  0  0  0  0
    6.4430    7.5320   12.7620 C   0  0  2  0  0  3  0  0  0  0  0  0
    5.8760    8.7190   12.0560 C   0  0  1  0  0  0  0  0  0  0  0  0
    5.5580    9.5410   13.1660 O   0  0  0  0  0  0  0  0  0  0  0  0
    6.8820    9.6620   13.6620 C   0  0  1  0  0  3  0  0  0  0  0  0
    7.2420    8.2140   13.8840 C   0  0  2  0  0  3  0  0  0  0  0  0
    8.6360    7.9660   13.5120 C   0  0  0  0  0  0  0  0  0  0  0  0
    9.6340    8.5510   14.0000 O   0  0  0  0  0  0  0  0  0  0  0  0
    7.5850   10.1210   12.4450 C   0  0  0  0  0  2  0  0  0  0  0  0
    6.9210    9.5470   11.4160 C   0  0  0  0  0  2  0  0  0  0  0  0
    9.9400    6.3150   12.1270 C   0  0  0  0  0  0  0  0  0  0  0  0
   10.2300    5.0100   12.4930 C   0  0  0  0  0  3  0  0  0  0  0  0
   11.4010    4.3870   12.1190 C   0  0  0  0  0  0  0  0  0  0  0  0
   11.7540    2.7390   12.5890 Cl  0  0  0  0  0  0  0  0  0  0  0  0
   12.3430    5.0470   11.3560 C   0  0  0  0  0  3  0  0  0  0  0  0
   12.0630    6.3470   10.9860 C   0  0  0  0  0  3  0  0  0  0  0  0
   10.8820    6.9740   11.3630 C   0  0  0  0  0  3  0  0  0  0  0  0
    4.6850    8.4450   11.2070 C   0  0  0  0  0  2  0  0  0  0  0  0
    5.0880    8.2610    9.8910 O   0  0  0  0  0  0  0  0  0  0  0  0
    5.3050    7.3140    9.7290 H   0  0  0  0  0  0  0  0  0  0  0  0
  1  9  1  0  0  0  0
  2  1  1  0  0  0  0
  3  2  2  0  0  0  0
  4  2  1  6  0  0  0
  4  8  1  0  0  0  0
  5 20  1  6  0  0  0
  5  4  1  0  0  0  0
  5  6  1  0  0  0  0
  6  7  1  0  0  0  0
  7 11  1  6  0  0  0
  7  8  1  0  0  0  0
  8  9  1  6  0  0  0
  9 10  2  0  0  0  0
 12  5  1  0  0  0  0
 12 11  1  0  0  0  0
 13 14  1  0  0  0  0
 13  1  1  0  0  0  0
 15 14  2  0  0  0  0
 15 16  1  0  0  0  0
 17 15  1  0  0  0  0
 18 17  2  0  0  0  0
 18 19  1  0  0  0  0
 19 13  2  0  0  0  0
 21 20  1  0  0  0  0
 22 21  1  0  0  0  0
M  END
>  <Pose>
1

>  <Score>
-7.622

$$$$
