/Users/jonathanwahrer/Desktop/Msc/3_Semester/Drug_Design_Praktikum/waehrer_HTS_screening/HTS_experiment/out/docking_results/vina_output/2jam/1973_docked.pdbqt
 OpenBabel03162218503D

 24 27  0  0  1  0  0  0  0  0999 V2000
    9.6280   -1.5710    7.3810 Cl  0  0  0  0  0  0  0  0  0  0  0  0
   11.0000   -0.6430    7.9850 C   0  0  0  0  0  0  0  0  0  0  0  0
   10.8870    0.2130    9.0610 C   0  0  0  0  0  2  0  0  0  0  0  0
   11.9300    0.9340    9.5390 N   0  0  0  0  0  0  0  0  0  0  0  0
   13.1540    0.8580    8.9850 C   0  0  0  0  0  0  0  0  0  0  0  0
   14.2120    1.5730    9.4500 N   0  0  0  0  0  0  0  0  0  0  0  0
   14.1100    2.4100   10.4990 C   0  0  0  0  0  0  0  0  0  0  0  0
   12.8510    2.5010   11.0830 C   0  0  2  0  0  3  0  0  0  0  0  0
   12.7370    3.4250   12.2410 C   0  0  0  0  0  2  0  0  0  0  0  0
   13.4370    4.6470   11.8290 N   0  0  0  0  0  0  0  0  0  0  0  0
   14.8390    4.5430   11.5370 C   0  0  0  0  0  2  0  0  0  0  0  0
   15.2580    3.1960   11.0190 C   0  0  0  0  0  2  0  0  0  0  0  0
   12.7430    5.8720   11.7190 C   0  0  0  0  0  0  0  0  0  0  0  0
   11.4940    5.8550   11.9850 O   0  0  0  0  0  0  0  0  0  0  0  0
   11.7970    1.7630   10.5900 C   0  0  0  0  0  0  0  0  0  0  0  0
   10.6540    1.8640   11.1430 O   0  0  0  0  0  0  0  0  0  0  0  0
   13.2880    0.0040    7.9020 C   0  0  0  0  0  3  0  0  0  0  0  0
   12.2430   -0.7410    7.3970 C   0  0  0  0  0  3  0  0  0  0  0  0
   13.4010    7.1360   11.3190 C   0  0  0  0  0  3  0  0  0  0  0  0
   14.5680    7.4840   12.2170 C   0  0  0  0  0  2  0  0  0  0  0  0
   14.1060    7.1730   13.6350 C   0  0  0  0  0  2  0  0  0  0  0  0
   12.7660    7.5250   13.7910 O   0  0  0  0  0  0  0  0  0  0  0  0
   12.4280    8.6240   12.9890 C   0  0  0  0  0  2  0  0  0  0  0  0
   12.3840    8.2710   11.5150 C   0  0  0  0  0  2  0  0  0  0  0  0
  1  2  1  0  0  0  0
  2  3  1  0  0  0  0
  3  4  1  0  0  0  0
  4 15  1  0  0  0  0
  5  6  1  0  0  0  0
  5  4  1  0  0  0  0
  6  7  2  0  0  0  0
  7 12  1  0  0  0  0
  7  8  1  0  0  0  0
  8  9  1  1  0  0  0
 10  9  1  0  0  0  0
 11 10  1  0  0  0  0
 12 11  1  0  0  0  0
 13 10  1  0  0  0  0
 13 14  2  0  0  0  0
 15  8  1  0  0  0  0
 15 16  2  0  0  0  0
 17  5  2  0  0  0  0
 18 17  1  0  0  0  0
 18  2  2  0  0  0  0
 19 24  1  0  0  0  0
 19 13  1  0  0  0  0
 19 20  1  0  0  0  0
 20 21  1  0  0  0  0
 21 22  1  0  0  0  0
 23 22  1  0  0  0  0
 24 23  1  0  0  0  0
M  END
>  <Pose>
1

>  <Score>
-8.493

$$$$
