/Users/jonathanwahrer/Desktop/Msc/3_Semester/Drug_Design_Praktikum/waehrer_HTS_screening/HTS_experiment/out/docking_results/vina_output/2jam/1974_docked.pdbqt
 OpenBabel03162218503D

 26 29  0  0  0  0  0  0  0  0999 V2000
    9.7580    2.0210   10.4750 F   0  0  0  0  0  0  0  0  0  0  0  0
   10.9660    1.6680    9.9740 C   0  0  0  0  0  0  0  0  0  0  0  0
   12.0970    2.2880   10.4820 C   0  0  0  0  0  0  0  0  0  0  0  0
   13.3580    1.9800   10.0210 C   0  0  0  0  0  0  0  0  0  0  0  0
   13.4620    1.0240    9.0240 C   0  0  0  0  0  0  0  0  0  0  0  0
   12.3410    0.4080    8.5190 C   0  0  0  0  0  3  0  0  0  0  0  0
   11.0840    0.7210    8.9840 C   0  0  0  0  0  3  0  0  0  0  0  0
   15.0660    0.6290    8.4330 Cl  0  0  0  0  0  0  0  0  0  0  0  0
   14.3720    2.7560   10.7030 C   0  0  0  0  0  0  0  0  0  0  0  0
   15.6140    2.7340   10.5390 O   0  0  0  0  0  0  0  0  0  0  0  0
   13.6470    3.5950   11.6490 C   0  0  0  0  0  0  0  0  0  0  0  0
   14.1770    4.4290   12.4480 O   0  0  0  0  0  0  0  0  0  0  0  0
   12.2680    3.2960   11.5000 N   0  0  0  0  0  0  0  0  0  0  0  0
   11.1660    3.8870   12.2320 C   0  0  0  0  0  2  0  0  0  0  0  0
   11.1230    5.3310   12.1380 N   0  0  0  0  0  0  0  0  0  0  0  0
   10.5280    5.7470   10.9140 C   0  0  0  0  0  2  0  0  0  0  0  0
    9.5500    6.8630   11.0210 C   0  0  0  0  0  2  0  0  0  0  0  0
    8.7150    6.7900   12.1920 N   0  0  0  0  0  0  0  0  0  0  0  0
    9.1300    5.9400   13.2840 C   0  0  0  0  0  2  0  0  0  0  0  0
   10.6430    5.9760   13.3120 C   0  0  0  0  0  2  0  0  0  0  0  0
    7.5100    7.5200   12.3100 C   0  0  0  0  0  0  0  0  0  0  0  0
    6.6210    7.5710   11.3030 N   0  0  0  0  0  0  0  0  0  0  0  0
    5.4670    8.2590   11.3910 C   0  0  0  0  0  3  0  0  0  0  0  0
    5.1510    8.9510   12.5440 C   0  0  0  0  0  3  0  0  0  0  0  0
    6.0340    8.9030   13.5550 N   0  0  0  0  0  0  0  0  0  0  0  0
    7.1890    8.2150   13.4690 C   0  0  0  0  0  3  0  0  0  0  0  0
  2  1  1  0  0  0  0
  2  3  1  0  0  0  0
  3 13  1  0  0  0  0
  4  3  2  0  0  0  0
  4  9  1  0  0  0  0
  5  4  1  0  0  0  0
  6  7  1  0  0  0  0
  6  5  2  0  0  0  0
  7  2  2  0  0  0  0
  8  5  1  0  0  0  0
  9 11  1  0  0  0  0
 10  9  2  0  0  0  0
 11 12  2  0  0  0  0
 13 11  1  0  0  0  0
 13 14  1  0  0  0  0
 15 14  1  0  0  0  0
 15 20  1  0  0  0  0
 16 17  1  0  0  0  0
 16 15  1  0  0  0  0
 17 18  1  0  0  0  0
 18 21  1  0  0  0  0
 18 19  1  0  0  0  0
 19 20  1  0  0  0  0
 21 26  1  0  0  0  0
 22 23  1  0  0  0  0
 22 21  2  0  0  0  0
 23 24  2  0  0  0  0
 24 25  1  0  0  0  0
 26 25  2  0  0  0  0
M  END
>  <Pose>
1

>  <Score>
-8.711

$$$$
