/Users/jonathanwahrer/Desktop/Msc/3_Semester/Drug_Design_Praktikum/waehrer_HTS_screening/HTS_experiment/out/docking_results/vina_output/2jam/1982_docked.pdbqt
 OpenBabel03162218503D

 25 28  0  0  0  0  0  0  0  0999 V2000
   18.2130    3.2900   11.7890 Cl  0  0  0  0  0  0  0  0  0  0  0  0
   16.5090    3.6900   11.7380 C   0  0  0  0  0  0  0  0  0  0  0  0
   15.5930    2.9550   11.0140 C   0  0  0  0  0  3  0  0  0  0  0  0
   14.2480    3.2590   10.9630 C   0  0  0  0  0  0  0  0  0  0  0  0
   13.8140    4.3570   11.6810 C   0  0  0  0  0  0  0  0  0  0  0  0
   14.7200    5.0990   12.4100 C   0  0  0  0  0  3  0  0  0  0  0  0
   16.0660    4.7960   12.4590 C   0  0  0  0  0  3  0  0  0  0  0  0
   12.3760    4.7020   11.6430 C   0  0  0  0  0  0  0  0  0  0  0  0
   11.7300    5.6380   12.1990 N   0  0  0  0  0  0  0  0  0  0  0  0
   10.3140    5.6230   11.9000 C   0  0  0  0  0  3  0  0  0  0  0  0
   10.1260    4.4460   10.9990 C   0  0  0  0  0  3  0  0  0  0  0  0
   11.4710    3.9150   10.8820 N   0  0  0  0  0  0  0  0  0  0  0  0
   12.0010    2.7970   10.1690 C   0  0  0  0  0  0  0  0  0  0  0  0
   11.3950    1.8910    9.3820 N   0  0  0  0  0  0  0  0  0  0  0  0
   12.2660    1.0130    8.9140 N   0  0  0  0  0  0  0  0  0  0  0  0
   13.4600    1.3920    9.4340 C   0  0  0  0  0  0  0  0  0  0  0  0
   14.5280    0.7850    9.2050 O   0  0  0  0  0  0  0  0  0  0  0  0
   13.3220    2.4820   10.2060 N   0  0  0  0  0  0  0  0  0  0  0  0
   11.9990   -0.1100    8.0360 C   0  0  0  0  0  2  0  0  0  0  0  0
   11.2650   -1.2040    8.8250 C   0  0  0  0  0  2  0  0  0  0  0  0
    9.8160   -1.1790    8.5020 C   0  0  0  0  0  0  0  0  0  0  0  0
    9.2540   -1.9670    7.7000 O   0  0  0  0  0  0  0  0  0  0  0  0
    9.0110   -0.2020    9.1420 N   0  0  0  0  0  0  0  0  0  0  0  0
    9.3280    0.7650    9.3350 H   0  0  0  0  0  0  0  0  0  0  0  0
    8.0500   -0.4790    9.4310 H   0  0  0  0  0  0  0  0  0  0  0  0
  2  1  1  0  0  0  0
  2  7  1  0  0  0  0
  3  2  2  0  0  0  0
  4  3  1  0  0  0  0
  4  5  2  0  0  0  0
  5  6  1  0  0  0  0
  6  7  2  0  0  0  0
  8  5  1  0  0  0  0
  8  9  2  0  0  0  0
 10  9  1  0  0  0  0
 11 10  2  0  0  0  0
 12 11  1  0  0  0  0
 12  8  1  0  0  0  0
 13 18  1  0  0  0  0
 13 12  1  0  0  0  0
 14 13  2  0  0  0  0
 15 14  1  0  0  0  0
 15 16  1  0  0  0  0
 16 18  1  0  0  0  0
 17 16  2  0  0  0  0
 18  4  1  0  0  0  0
 19 20  1  0  0  0  0
 19 15  1  0  0  0  0
 21 20  1  0  0  0  0
 21 23  1  0  0  0  0
 22 21  2  0  0  0  0
 23 24  1  0  0  0  0
 23 25  1  0  0  0  0
M  END
>  <Pose>
1

>  <Score>
-8.213

$$$$
