/Users/jonathanwahrer/Desktop/Msc/3_Semester/Drug_Design_Praktikum/waehrer_HTS_screening/HTS_experiment/out/docking_results/vina_output/2jam/1991_docked.pdbqt
 OpenBabel03162218503D

 31 34  0  0  1  0  0  0  0  0999 V2000
   17.4160    8.0390   12.3500 Cl  0  0  0  0  0  0  0  0  0  0  0  0
   16.0690    6.9300   12.2530 C   0  0  0  0  0  0  0  0  0  0  0  0
   14.9390    7.2480   11.5330 C   0  0  0  0  0  3  0  0  0  0  0  0
   13.8920    6.3660   11.4690 C   0  0  0  0  0  0  0  0  0  0  0  0
   13.9780    5.1400   12.1380 C   0  0  0  0  0  0  0  0  0  0  0  0
   15.1110    4.8120   12.8660 C   0  0  0  0  0  3  0  0  0  0  0  0
   16.1340    5.7190   12.9060 C   0  0  0  0  0  3  0  0  0  0  0  0
   13.0120    4.1460   12.1720 O   0  0  0  0  0  0  0  0  0  0  0  0
   11.9830    3.9110   11.2410 C   0  0  0  0  0  0  0  0  0  0  0  0
   10.9900    5.0260   11.1950 C   0  0  0  0  0  2  0  0  0  0  0  0
   11.5440    6.3440   11.2660 N   0  0  0  0  0  0  0  0  0  0  0  0
   12.7470    6.8490   10.6560 C   0  0  0  0  0  2  0  0  0  0  0  0
   10.8370    7.3250   12.0420 C   0  0  0  0  0  0  0  0  0  0  0  0
   11.3360    8.4770   12.0900 O   0  0  0  0  0  0  0  0  0  0  0  0
   12.5900    3.6090    9.8790 C   0  0  0  0  0  2  0  0  0  0  0  0
   12.7960    2.1140    9.7150 C   0  0  0  0  0  2  0  0  0  0  0  0
   11.6040    1.4190    9.6610 O   0  0  0  0  0  0  0  0  0  0  0  0
   10.6080    2.0850   10.3670 C   0  0  0  0  0  2  0  0  0  0  0  0
   11.2150    2.6480   11.6380 C   0  0  0  0  0  2  0  0  0  0  0  0
    9.5970    7.0010   12.7450 C   0  0  0  0  0  2  0  0  0  0  0  0
    9.1580    7.8940   13.7540 N   0  0  0  0  0  0  0  0  0  0  0  0
    8.1480    7.2830   14.6220 C   0  0  0  0  0  2  0  0  0  0  0  0
    6.9770    6.9190   13.7890 C   0  0  0  0  0  2  0  0  0  0  0  0
    6.4880    7.9570   12.8360 C   0  0  1  0  0  3  0  0  0  0  0  0
    7.3690    9.1160   12.5860 C   0  0  0  0  0  2  0  0  0  0  0  0
    8.6630    9.1720   13.3050 C   0  0  0  0  0  2  0  0  0  0  0  0
    6.0300    7.3530   11.5600 C   0  0  0  0  0  0  0  0  0  0  0  0
    5.6080    8.0940   10.6500 O   0  0  0  0  0  0  0  0  0  0  0  0
    6.0720    5.9530   11.3850 N   0  0  0  0  0  0  0  0  0  0  0  0
    6.8430    5.5930   10.7490 H   0  0  0  0  0  0  0  0  0  0  0  0
    5.4390    5.2650   11.8090 H   0  0  0  0  0  0  0  0  0  0  0  0
  2  1  1  0  0  0  0
  2  7  1  0  0  0  0
  3  2  2  0  0  0  0
  4  3  1  0  0  0  0
  4  5  2  0  0  0  0
  5  8  1  0  0  0  0
  5  6  1  0  0  0  0
  6  7  2  0  0  0  0
  9 19  1  0  0  0  0
  9  8  1  0  0  0  0
 10  9  1  0  0  0  0
 10 11  1  0  0  0  0
 11 13  1  0  0  0  0
 12 11  1  0  0  0  0
 12  4  1  0  0  0  0
 13 14  2  0  0  0  0
 13 20  1  0  0  0  0
 15  9  1  0  0  0  0
 16 15  1  0  0  0  0
 17 16  1  0  0  0  0
 17 18  1  0  0  0  0
 18 19  1  0  0  0  0
 20 21  1  0  0  0  0
 21 22  1  0  0  0  0
 23 22  1  0  0  0  0
 24 27  1  6  0  0  0
 24 23  1  0  0  0  0
 25 24  1  0  0  0  0
 25 26  1  0  0  0  0
 26 21  1  0  0  0  0
 28 27  2  0  0  0  0
 29 27  1  0  0  0  0
 29 31  1  0  0  0  0
 30 29  1  0  0  0  0
M  END
>  <Pose>
1

>  <Score>
-8.527

$$$$
