/Users/jonathanwahrer/Desktop/Msc/3_Semester/Drug_Design_Praktikum/waehrer_HTS_screening/HTS_experiment/out/docking_results/vina_output/2jam/2003_docked.pdbqt
 OpenBabel03162218503D

 28 31  0  0  0  0  0  0  0  0999 V2000
   12.8760    3.2980   10.5500 N   0  0  0  0  0  0  0  0  0  0  0  0
   12.0380    4.1800    9.7960 C   0  0  0  0  0  2  0  0  0  0  0  0
   11.3470    5.2160   10.6430 C   0  0  0  0  0  2  0  0  0  0  0  0
   12.1780    5.6810   11.7300 N   0  0  0  0  0  0  0  0  0  0  0  0
   13.5250    5.2270   11.9510 C   0  0  0  0  0  3  0  0  0  0  0  0
   13.8750    3.9240   11.3390 C   0  0  0  0  0  3  0  0  0  0  0  0
   11.6330    6.6390   12.6270 C   0  0  0  0  0  0  0  0  0  0  0  0
   12.3160    7.0900   13.6060 O   0  0  0  0  0  0  0  0  0  0  0  0
   10.2700    7.1400   12.4550 C   0  0  0  0  0  0  0  0  0  0  0  0
    9.8670    7.8770   11.3590 C   0  0  0  0  0  3  0  0  0  0  0  0
    8.5940    8.3040   11.2680 N   0  0  0  0  0  0  0  0  0  0  0  0
    7.6600    8.0520   12.2030 C   0  0  0  0  0  0  0  0  0  0  0  0
    8.0360    7.3340   13.2770 N   0  0  0  0  0  0  0  0  0  0  0  0
    6.3550    8.5090   12.0740 C   0  0  0  0  0  3  0  0  0  0  0  0
    7.1140    7.0710   14.2250 C   0  0  0  0  0  3  0  0  0  0  0  0
    9.3000    6.8890   13.4060 C   0  0  0  0  0  0  0  0  0  0  0  0
    5.8100    7.5130   14.1250 C   0  0  0  0  0  3  0  0  0  0  0  0
    5.3920    8.2510   13.0340 C   0  0  0  0  0  3  0  0  0  0  0  0
    9.6520    6.2200   14.4080 O   0  0  0  0  0  0  0  0  0  0  0  0
   13.3720    1.9110    9.7160 S   0  0  0  0  0  0  0  0  0  0  0  0
   14.1270    2.2620    8.4920 O   0  0  0  0  0  0  0  0  0  0  0  0
   14.2410    1.0790   10.6320 O   0  0  0  0  0  0  0  0  0  0  0  0
   11.9390    0.9610    9.2880 C   0  0  0  0  0  0  0  0  0  0  0  0
   11.7920   -0.3550    8.2150 S   0  0  0  0  0  0  0  0  0  0  0  0
   10.1240   -0.6630    8.3920 C   0  0  0  0  0  0  0  0  0  0  0  0
    9.7290    0.2840    9.2960 C   0  0  0  0  0  3  0  0  0  0  0  0
    9.1100   -1.8960    7.6160 Cl  0  0  0  0  0  0  0  0  0  0  0  0
   10.6610    1.1220    9.7590 C   0  0  0  0  0  3  0  0  0  0  0  0
  1  6  1  0  0  0  0
  2  1  1  0  0  0  0
  2  3  1  0  0  0  0
  3  4  1  0  0  0  0
  4  5  1  0  0  0  0
  4  7  1  0  0  0  0
  6  5  2  0  0  0  0
  7  8  2  0  0  0  0
  9  7  1  0  0  0  0
  9 16  1  0  0  0  0
 10  9  2  0  0  0  0
 11 10  1  0  0  0  0
 11 12  2  0  0  0  0
 12 13  1  0  0  0  0
 13 16  1  0  0  0  0
 13 15  1  0  0  0  0
 14 12  1  0  0  0  0
 14 18  2  0  0  0  0
 16 19  2  0  0  0  0
 17 15  2  0  0  0  0
 18 17  1  0  0  0  0
 20  1  1  0  0  0  0
 20 22  2  0  0  0  0
 21 20  2  0  0  0  0
 23 20  1  0  0  0  0
 23 28  2  0  0  0  0
 24 25  1  0  0  0  0
 24 23  1  0  0  0  0
 25 26  2  0  0  0  0
 26 28  1  0  0  0  0
 27 25  1  0  0  0  0
M  END
>  <Pose>
1

>  <Score>
-8.864

$$$$
