/Users/jonathanwahrer/Desktop/Msc/3_Semester/Drug_Design_Praktikum/waehrer_HTS_screening/HTS_experiment/out/docking_results/vina_output/2jam/2004_docked.pdbqt
 OpenBabel03162218513D

 29 32  0  0  1  0  0  0  0  0999 V2000
   11.4650    3.4970   10.8760 S   0  0  0  0  0  0  0  0  0  0  0  0
   10.9540    3.2820    9.4590 O   0  0  0  0  0  0  0  0  0  0  0  0
   10.8860    2.3200   11.6590 O   0  0  0  0  0  0  0  0  0  0  0  0
   10.8880    4.9260   11.5270 N   0  0  0  0  0  0  0  0  0  0  0  0
   10.5040    4.9350   12.8700 C   0  0  0  0  0  2  0  0  0  0  0  0
   10.2560    6.3500   13.4110 C   0  0  0  0  0  2  0  0  0  0  0  0
    9.6180    7.1830   12.4350 N   0  0  0  0  0  0  0  0  0  0  0  0
   10.1140    7.1400   11.0770 C   0  0  0  0  0  2  0  0  0  0  0  0
    8.5470    8.0090   12.7970 C   0  0  0  0  0  0  0  0  0  0  0  0
   10.0460    5.6910   10.6380 C   0  0  0  0  0  2  0  0  0  0  0  0
    8.1340    8.0280   13.9840 O   0  0  0  0  0  0  0  0  0  0  0  0
    7.8500    8.8960   11.8120 C   0  0  0  0  0  3  0  0  0  0  0  0
    7.4520   10.2370   12.3820 C   0  0  0  0  0  2  0  0  0  0  0  0
    6.1140    9.6050   12.7580 C   0  0  0  0  0  2  0  0  0  0  0  0
    6.3890    8.5480   11.6850 C   0  0  0  0  0  2  0  0  0  0  0  0
   13.2020    3.2830   10.8660 C   0  0  0  0  0  0  0  0  0  0  0  0
   14.0080    4.2680   11.4710 C   0  0  0  0  0  3  0  0  0  0  0  0
   15.3820    4.1860   11.4440 C   0  0  0  0  0  0  0  0  0  0  0  0
   16.0500    3.1500   10.8310 C   0  0  0  0  0  0  0  0  0  0  0  0
   16.1570    5.1740   12.0510 O   0  0  0  0  0  0  0  0  0  0  0  0
   15.2680    2.1860   10.2430 C   0  0  0  0  0  3  0  0  0  0  0  0
   17.4650    3.1260   10.8370 N   0  0  0  0  0  0  0  0  0  0  0  0
   13.8670    2.2510   10.2600 C   0  0  0  0  0  0  0  0  0  0  0  0
   12.9450    0.9460    9.5540 Cl  0  0  0  0  0  0  0  0  0  0  0  0
   18.2410    4.1430   11.4570 C   0  0  0  0  0  0  0  0  0  0  0  0
   17.9670    2.3350   10.3700 H   0  0  0  0  0  0  0  0  0  0  0  0
   19.4550    4.0550   11.7200 O   0  0  0  0  0  0  0  0  0  0  0  0
   17.5180    5.3950   11.8050 C   0  0  1  0  0  3  0  0  0  0  0  0
   17.6400    6.4110   10.6920 C   0  0  0  0  0  1  0  0  0  0  0  0
  1  4  1  0  0  0  0
  1  3  2  0  0  0  0
  2  1  2  0  0  0  0
  4  5  1  0  0  0  0
  5  6  1  0  0  0  0
  7  9  1  0  0  0  0
  7  6  1  0  0  0  0
  8  7  1  0  0  0  0
  9 11  2  0  0  0  0
 10  8  1  0  0  0  0
 10  4  1  0  0  0  0
 12 13  1  0  0  0  0
 12  9  1  0  0  0  0
 13 14  1  0  0  0  0
 15 12  1  0  0  0  0
 15 14  1  0  0  0  0
 16  1  1  0  0  0  0
 16 17  1  0  0  0  0
 18 17  2  0  0  0  0
 18 20  1  0  0  0  0
 19 22  1  0  0  0  0
 19 18  1  0  0  0  0
 21 23  1  0  0  0  0
 21 19  2  0  0  0  0
 22 25  1  0  0  0  0
 23 16  2  0  0  0  0
 24 23  1  0  0  0  0
 25 27  2  0  0  0  0
 25 28  1  0  0  0  0
 26 22  1  0  0  0  0
 28 29  1  6  0  0  0
 28 20  1  0  0  0  0
M  END
>  <Pose>
1

>  <Score>
-8.751

$$$$
