/Users/jonathanwahrer/Desktop/Msc/3_Semester/Drug_Design_Praktikum/waehrer_HTS_screening/HTS_experiment/out/docking_results/vina_output/2jam/2012_docked.pdbqt
 OpenBabel03162218513D

 25 28  0  0  1  0  0  0  0  0999 V2000
   10.6710    4.1690   10.5810 N   0  0  0  0  0  0  0  0  0  0  0  0
   10.1660    5.3050    9.8890 C   0  0  0  0  0  0  0  0  0  0  0  0
    9.6550    5.2680    8.7570 O   0  0  0  0  0  0  0  0  0  0  0  0
   10.3520    6.5040   10.7230 C   0  0  1  0  0  3  0  0  0  0  0  0
    9.3960    7.4660   10.6830 O   0  0  0  0  0  0  0  0  0  0  0  0
    9.3750    7.9240   11.9870 N   0  0  0  0  0  0  0  0  0  0  0  0
    9.5430    6.8000   12.8540 C   0  0  0  0  0  0  0  0  0  0  0  0
   10.1450    5.9030   12.0820 C   0  0  0  0  0  0  0  0  0  0  0  0
   10.6610    4.5450   11.9830 C   0  0  0  0  0  0  0  0  0  0  0  0
   11.0230    3.8630   12.9760 O   0  0  0  0  0  0  0  0  0  0  0  0
    9.2640    8.9180   12.2460 H   0  0  0  0  0  0  0  0  0  0  0  0
   11.0990    2.8970   10.1090 C   0  0  0  0  0  0  0  0  0  0  0  0
   10.2170    1.8720    9.8620 C   0  0  0  0  0  3  0  0  0  0  0  0
   10.7270    0.6620    9.3980 C   0  0  0  0  0  0  0  0  0  0  0  0
    9.6500   -0.6910    9.0670 Cl  0  0  0  0  0  0  0  0  0  0  0  0
   12.0830    0.5080    9.1970 C   0  0  0  0  0  3  0  0  0  0  0  0
   12.9700    1.5430    9.4440 C   0  0  0  0  0  3  0  0  0  0  0  0
   12.4770    2.7290    9.8980 C   0  0  0  0  0  3  0  0  0  0  0  0
    9.1960    6.6740   14.2560 C   0  0  0  0  0  0  0  0  0  0  0  0
   10.1100    6.9770   15.2700 C   0  0  0  0  0  3  0  0  0  0  0  0
    9.5420    6.7640   16.4660 N   0  0  0  0  0  0  0  0  0  0  0  0
    8.2960    6.3340   16.2590 N   0  0  0  0  0  0  0  0  0  0  0  0
   10.1110    6.9400   17.7980 C   0  0  0  0  0  1  0  0  0  0  0  0
    8.0750    6.2750   14.9250 C   0  0  0  0  0  0  0  0  0  0  0  0
    6.8160    5.8280   14.2780 C   0  0  0  0  0  1  0  0  0  0  0  0
  1  9  1  0  0  0  0
  2  1  1  0  0  0  0
  3  2  2  0  0  0  0
  4  2  1  6  0  0  0
  4  8  1  0  0  0  0
  5  4  1  0  0  0  0
  5  6  1  0  0  0  0
  6 11  1  0  0  0  0
  6  7  1  0  0  0  0
  7 19  1  0  0  0  0
  8  7  2  0  0  0  0
  9  8  1  0  0  0  0
  9 10  2  0  0  0  0
 12  1  1  0  0  0  0
 13 12  2  0  0  0  0
 14 13  1  0  0  0  0
 15 14  1  0  0  0  0
 16 14  2  0  0  0  0
 16 17  1  0  0  0  0
 17 18  2  0  0  0  0
 18 12  1  0  0  0  0
 19 24  1  0  0  0  0
 19 20  2  0  0  0  0
 20 21  1  0  0  0  0
 21 23  1  0  0  0  0
 22 21  1  0  0  0  0
 24 22  2  0  0  0  0
 25 24  1  0  0  0  0
M  END
>  <Pose>
1

>  <Score>
-8.439

$$$$
