/Users/jonathanwahrer/Desktop/Msc/3_Semester/Drug_Design_Praktikum/waehrer_HTS_screening/HTS_experiment/out/docking_results/vina_output/2jam/2017_docked.pdbqt
 OpenBabel03162218513D

 24 27  0  0  0  0  0  0  0  0999 V2000
   12.8210   -0.9990    7.5170 Cl  0  0  0  0  0  0  0  0  0  0  0  0
   12.1410    0.2010    8.6030 C   0  0  0  0  0  0  0  0  0  0  0  0
   12.9310    1.0510    9.3530 C   0  0  0  0  0  2  0  0  0  0  0  0
   12.3940    1.9760   10.1910 N   0  0  0  0  0  0  0  0  0  0  0  0
   11.0680    2.1270   10.3470 C   0  0  0  0  0  0  0  0  0  0  0  0
   10.5270    3.0400   11.1750 N   0  0  0  0  0  0  0  0  0  0  0  0
   11.2880    3.8720   11.9090 C   0  0  0  0  0  0  0  0  0  0  0  0
   12.6670    3.7230   11.7530 C   0  0  0  0  0  2  0  0  0  0  0  0
   13.2100    2.7840   10.9030 C   0  0  0  0  0  0  0  0  0  0  0  0
   14.4680    2.6520   10.7650 O   0  0  0  0  0  0  0  0  0  0  0  0
   10.2510    1.2850    9.6050 C   0  0  0  0  0  3  0  0  0  0  0  0
   10.7770    0.3390    8.7480 C   0  0  0  0  0  3  0  0  0  0  0  0
   10.7380    4.8950   12.8360 C   0  0  0  0  0  2  0  0  0  0  0  0
   11.0580    6.1860   12.3490 N   0  0  0  0  0  0  0  0  0  0  0  0
   11.5720    7.1300   13.2680 C   0  0  0  0  0  2  0  0  0  0  0  0
   11.2520    8.5770   12.9250 C   0  0  0  0  0  2  0  0  0  0  0  0
    9.7900    8.6190   12.6570 C   0  0  0  0  0  0  0  0  0  0  0  0
    9.3080    7.6450   11.8080 C   0  0  0  0  0  0  0  0  0  0  0  0
    8.9920    9.5790   13.2350 C   0  0  0  0  0  3  0  0  0  0  0  0
    7.9940    7.6410   11.5370 N   0  0  0  0  0  0  0  0  0  0  0  0
   10.2850    6.6750   11.2580 C   0  0  0  0  0  2  0  0  0  0  0  0
    7.1680    8.5810   12.0920 C   0  0  0  0  0  0  0  0  0  0  0  0
    7.6780    9.5220   12.9220 N   0  0  0  0  0  0  0  0  0  0  0  0
    5.7110    8.5870   11.8000 C   0  0  0  0  0  1  0  0  0  0  0  0
  1  2  1  0  0  0  0
  2 12  2  0  0  0  0
  2  3  1  0  0  0  0
  3  4  1  0  0  0  0
  4  5  1  0  0  0  0
  4  9  1  0  0  0  0
  5  6  1  0  0  0  0
  6  7  2  0  0  0  0
  7 13  1  0  0  0  0
  8  7  1  0  0  0  0
  9  8  1  0  0  0  0
 10  9  2  0  0  0  0
 11  5  2  0  0  0  0
 12 11  1  0  0  0  0
 14 13  1  0  0  0  0
 14 15  1  0  0  0  0
 16 15  1  0  0  0  0
 17 16  1  0  0  0  0
 17 19  1  0  0  0  0
 18 17  2  0  0  0  0
 20 18  1  0  0  0  0
 20 22  2  0  0  0  0
 21 18  1  0  0  0  0
 21 14  1  0  0  0  0
 22 23  1  0  0  0  0
 23 19  2  0  0  0  0
 24 22  1  0  0  0  0
M  END
>  <Pose>
1

>  <Score>
-8.404

$$$$
