/Users/jonathanwahrer/Desktop/Msc/3_Semester/Drug_Design_Praktikum/waehrer_HTS_screening/HTS_experiment/out/docking_results/vina_output/2jam/2020_docked.pdbqt
 OpenBabel03162218513D

 22 24  0  0  1  0  0  0  0  0999 V2000
   12.2670    2.8110   11.8080 C   0  0  2  0  0  3  0  0  0  0  0  0
   10.9190    3.5680   11.6560 C   0  0  2  0  0  3  0  0  0  0  0  0
   11.1370    4.0870   10.2210 C   0  0  0  0  0  0  0  0  0  0  0  0
   10.3110    3.9900    9.3320 O   0  0  0  0  0  0  0  0  0  0  0  0
   12.4430    4.6940   10.0940 N   0  0  0  0  0  0  0  0  0  0  0  0
   13.0490    5.0870   11.3800 C   0  0  1  0  0  0  0  0  0  0  0  0
   11.9470    5.7710   12.0720 N   0  0  0  0  0  0  0  0  0  0  0  0
   10.8950    4.8510   12.4240 C   0  0  0  0  0  0  0  0  0  0  0  0
   10.0330    5.0880   13.2900 O   0  0  0  0  0  0  0  0  0  0  0  0
   13.2650    3.7730   12.1770 C   0  0  0  0  0  2  0  0  0  0  0  0
   14.2760    5.8810   11.2880 C   0  0  0  0  0  1  0  0  0  0  0  0
   12.9260    4.8270    9.2020 H   0  0  0  0  0  0  0  0  0  0  0  0
   11.9430    6.7790   12.2680 H   0  0  0  0  0  0  0  0  0  0  0  0
   12.3320    2.0220   10.5840 C   0  0  0  0  0  0  0  0  0  0  0  0
   11.1910    1.2820   10.2470 C   0  0  0  0  0  3  0  0  0  0  0  0
   11.1830    0.4260    9.1440 C   0  0  0  0  0  0  0  0  0  0  0  0
    9.6180   -0.5720    8.7250 Br  0  0  0  0  0  0  0  0  0  0  0  0
   12.2790    0.2800    8.3550 C   0  0  0  0  0  3  0  0  0  0  0  0
   13.4010    0.9940    8.6700 C   0  0  0  0  0  3  0  0  0  0  0  0
   13.4290    1.8480    9.7590 C   0  0  0  0  0  0  0  0  0  0  0  0
   14.5300    2.5840   10.0940 O   0  0  0  0  0  0  0  0  0  0  0  0
   15.7880    2.2340    9.5830 C   0  0  0  0  0  1  0  0  0  0  0  0
  1 14  1  6  0  0  0
  1 10  1  0  0  0  0
  2  3  1  6  0  0  0
  2  1  1  0  0  0  0
  2  8  1  0  0  0  0
  4  3  2  0  0  0  0
  5  3  1  0  0  0  0
  5  6  1  0  0  0  0
  6 11  1  6  0  0  0
  6  7  1  0  0  0  0
  6 10  1  0  0  0  0
  7 13  1  0  0  0  0
  7  8  1  0  0  0  0
  8  9  2  0  0  0  0
 12  5  1  0  0  0  0
 15 14  1  0  0  0  0
 16 15  2  0  0  0  0
 17 16  1  0  0  0  0
 18 19  2  0  0  0  0
 18 16  1  0  0  0  0
 19 20  1  0  0  0  0
 20 21  1  0  0  0  0
 20 14  2  0  0  0  0
 22 21  1  0  0  0  0
M  END
>  <Pose>
1

>  <Score>
-7.476

$$$$
