/Users/jonathanwahrer/Desktop/Msc/3_Semester/Drug_Design_Praktikum/waehrer_HTS_screening/HTS_experiment/out/docking_results/vina_output/2jam/2032_docked.pdbqt
 OpenBabel03162218523D

 31 34  0  0  0  0  0  0  0  0999 V2000
   15.8990    2.8260   10.1620 C   0  0  0  0  0  3  0  0  0  0  0  0
   14.7920    2.2370    9.8450 C   0  0  0  0  0  0  0  0  0  0  0  0
   13.5700    2.4260   10.4270 O   0  0  0  0  0  0  0  0  0  0  0  0
   12.6340    1.6110    9.7940 C   0  0  0  0  0  0  0  0  0  0  0  0
   13.1880    0.8690    8.8010 C   0  0  0  0  0  0  0  0  0  0  0  0
   12.4130   -0.0040    8.0290 C   0  0  0  0  0  3  0  0  0  0  0  0
   11.0660   -0.1580    8.2330 C   0  0  0  0  0  3  0  0  0  0  0  0
   10.5400    0.6270    9.2750 C   0  0  0  0  0  0  0  0  0  0  0  0
   11.2610    1.4830   10.0360 C   0  0  0  0  0  0  0  0  0  0  0  0
    9.1560    0.4190    9.4560 O   0  0  0  0  0  1  0  0  0  0  0  0
   14.6080    1.2390    8.7900 C   0  0  0  0  0  0  0  0  0  0  0  0
   15.4960    0.7820    8.0130 O   0  0  0  0  0  0  0  0  0  0  0  0
   16.0960    3.8210   11.2060 C   0  0  0  0  0  0  0  0  0  0  0  0
   15.1090    4.7290   11.4910 C   0  0  0  0  0  3  0  0  0  0  0  0
   15.3050    5.7170   12.4720 C   0  0  0  0  0  0  0  0  0  0  0  0
   13.9620    6.9870   12.9010 Br  0  0  0  0  0  0  0  0  0  0  0  0
   16.5050    5.7690   13.1460 C   0  0  0  0  0  3  0  0  0  0  0  0
   17.4840    4.8730   12.8630 C   0  0  0  0  0  3  0  0  0  0  0  0
   17.2900    3.8840   11.8860 C   0  0  0  0  0  0  0  0  0  0  0  0
   18.2270    2.9660   11.5590 O   0  0  0  0  0  0  0  0  0  0  0  0
   19.6020    3.1340   11.5280 C   0  0  0  0  0  1  0  0  0  0  0  0
   10.7210    2.2680   11.1610 C   0  0  0  0  0  2  0  0  0  0  0  0
   11.0150    3.6740   11.0170 N   0  0  0  0  0  4  0  0  0  0  0  0
   11.1790    4.2670   12.3320 C   0  0  0  0  0  2  0  0  0  0  0  0
   10.6100    5.6130   12.4830 C   0  0  0  0  0  2  0  0  0  0  0  0
   10.5990    6.4300   11.3110 N   0  0  0  0  0  0  0  0  0  0  0  0
   10.9330    5.8400   10.0950 C   0  0  0  0  0  2  0  0  0  0  0  0
   10.3610    4.3990   10.0380 C   0  0  0  0  0  2  0  0  0  0  0  0
   12.0740    3.6210   10.6530 H   0  0  0  0  0  0  0  0  0  0  0  0
    9.6970    7.5180   11.3010 C   0  0  0  0  0  2  0  0  0  0  0  0
    8.4000    7.2850   11.9930 C   0  0  0  0  0  1  0  0  0  0  0  0
  1 13  1  0  0  0  0
  2  1  2  0  0  0  0
  2  3  1  0  0  0  0
  4  9  1  0  0  0  0
  4  3  1  0  0  0  0
  5  4  2  0  0  0  0
  6  7  2  0  0  0  0
  6  5  1  0  0  0  0
  7  8  1  0  0  0  0
  8 10  1  0  0  0  0
  8  9  2  0  0  0  0
  9 22  1  0  0  0  0
 11  5  1  0  0  0  0
 11  2  1  0  0  0  0
 12 11  2  0  0  0  0
 13 14  2  0  0  0  0
 13 19  1  0  0  0  0
 14 15  1  0  0  0  0
 15 16  1  0  0  0  0
 15 17  2  0  0  0  0
 18 17  1  0  0  0  0
 19 18  2  0  0  0  0
 20 19  1  0  0  0  0
 21 20  1  0  0  0  0
 23 22  1  0  0  0  0
 23 24  1  0  0  0  0
 24 25  1  0  0  0  0
 26 25  1  0  0  0  0
 27 26  1  0  0  0  0
 28 27  1  0  0  0  0
 28 23  1  0  0  0  0
 29 23  1  0  0  0  0
 30 26  1  0  0  0  0
 30 31  1  0  0  0  0
M  END
>  <Pose>
1

>  <Score>
-9.212

$$$$
