/Users/jonathanwahrer/Desktop/Msc/3_Semester/Drug_Design_Praktikum/waehrer_HTS_screening/HTS_experiment/out/docking_results/vina_output/2jam/2043_docked.pdbqt
 OpenBabel03162218523D

 32 35  0  0  0  0  0  0  0  0999 V2000
    9.2370    7.1730   11.9660 N   0  0  0  0  0  0  0  0  0  0  0  0
    9.7930    6.9630   10.6520 C   0  0  0  0  0  2  0  0  0  0  0  0
   11.1840    6.3560   10.8240 C   0  0  0  0  0  2  0  0  0  0  0  0
   11.1530    5.3850   11.8500 N   0  0  0  0  0  0  0  0  0  0  0  0
   11.0790    6.0660   13.2180 C   0  0  0  0  0  2  0  0  0  0  0  0
   10.1720    7.2290   13.0290 C   0  0  0  0  0  2  0  0  0  0  0  0
   11.1250    4.0200   11.8280 C   0  0  0  0  0  0  0  0  0  0  0  0
   11.2790    3.5340   13.1070 O   0  0  0  0  0  0  0  0  0  0  0  0
   10.9950    2.9380   10.9340 C   0  0  0  0  0  3  0  0  0  0  0  0
   11.6710    2.2600   10.0660 C   0  0  0  0  0  0  0  0  0  0  0  0
   13.0090    2.5240    9.7360 N   0  0  0  0  0  0  0  0  0  0  0  0
   11.0430    1.0780    9.4020 C   0  0  0  0  0  0  0  0  0  0  0  0
   13.7830    1.7590    8.8350 N   0  0  0  0  0  0  0  0  0  0  0  0
   13.4920    3.3400   10.1180 H   0  0  0  0  0  0  0  0  0  0  0  0
   13.1980    0.6520    8.2120 C   0  0  0  0  0  0  0  0  0  0  0  0
   14.7890    2.0580    8.6660 H   0  0  0  0  0  0  0  0  0  0  0  0
   13.8760   -0.0390    7.4070 O   0  0  0  0  0  0  0  0  0  0  0  0
   11.7940    0.3250    8.5190 C   0  0  0  0  0  0  0  0  0  0  0  0
   11.2720   -0.7810    7.8710 C   0  0  0  0  0  3  0  0  0  0  0  0
    9.9680   -1.1620    8.0970 C   0  0  0  0  0  3  0  0  0  0  0  0
    9.2270   -0.4110    8.9750 C   0  0  0  0  0  3  0  0  0  0  0  0
    9.7570    0.7070    9.6280 C   0  0  0  0  0  3  0  0  0  0  0  0
    7.7720    6.4090   12.2630 S   0  0  0  0  0  0  0  0  0  0  0  0
    7.3720    5.6620   10.9960 O   0  0  0  0  0  0  0  0  0  0  0  0
    8.0070    5.3120   13.2950 O   0  0  0  0  0  0  0  0  0  0  0  0
    6.5050    7.4160   12.8410 C   0  0  0  0  0  0  0  0  0  0  0  0
    5.8080    8.2470   11.9990 C   0  0  0  0  0  3  0  0  0  0  0  0
    4.7930    9.0480   12.4880 C   0  0  0  0  0  3  0  0  0  0  0  0
    4.4420    9.0500   13.8200 C   0  0  0  0  0  0  0  0  0  0  0  0
    5.1420    8.2140   14.6750 C   0  0  0  0  0  3  0  0  0  0  0  0
    3.1480   10.0850   14.3880 Cl  0  0  0  0  0  0  0  0  0  0  0  0
    6.1620    7.4110   14.1690 C   0  0  0  0  0  3  0  0  0  0  0  0
  1 23  1  0  0  0  0
  1  6  1  0  0  0  0
  2  3  1  0  0  0  0
  2  1  1  0  0  0  0
  3  4  1  0  0  0  0
  4  5  1  0  0  0  0
  6  5  1  0  0  0  0
  7  4  1  0  0  0  0
  7  8  2  0  0  0  0
  9  7  1  0  0  0  0
 10  9  2  0  0  0  0
 11 10  1  0  0  0  0
 11 14  1  0  0  0  0
 12 22  1  0  0  0  0
 12 10  1  0  0  0  0
 13 11  1  0  0  0  0
 15 18  1  0  0  0  0
 15 13  1  0  0  0  0
 16 13  1  0  0  0  0
 17 15  2  0  0  0  0
 18 12  2  0  0  0  0
 19 20  2  0  0  0  0
 19 18  1  0  0  0  0
 20 21  1  0  0  0  0
 21 22  2  0  0  0  0
 23 26  1  0  0  0  0
 23 25  2  0  0  0  0
 24 23  2  0  0  0  0
 26 32  1  0  0  0  0
 27 28  1  0  0  0  0
 27 26  2  0  0  0  0
 28 29  2  0  0  0  0
 29 31  1  0  0  0  0
 29 30  1  0  0  0  0
 32 30  2  0  0  0  0
M  END
>  <Pose>
1

>  <Score>
-9.786

$$$$
