/Users/jonathanwahrer/Desktop/Msc/3_Semester/Drug_Design_Praktikum/waehrer_HTS_screening/HTS_experiment/out/docking_results/vina_output/2jam/2046_docked.pdbqt
 OpenBabel03162218533D

 26 29  0  0  0  0  0  0  0  0999 V2000
   12.6170    7.3550   11.8520 Cl  0  0  0  0  0  0  0  0  0  0  0  0
   11.2650    7.0430   12.8950 C   0  0  0  0  0  0  0  0  0  0  0  0
   10.2500    6.2030   12.5120 C   0  0  0  0  0  0  0  0  0  0  0  0
    9.2050    5.9970   13.3840 C   0  0  0  0  0  3  0  0  0  0  0  0
    9.1250    6.5910   14.6250 C   0  0  0  0  0  0  0  0  0  0  0  0
   10.1510    7.4300   14.9940 C   0  0  0  0  0  3  0  0  0  0  0  0
   11.2010    7.6440   14.1270 C   0  0  0  0  0  3  0  0  0  0  0  0
    8.0110    6.3540   15.5230 N   0  0  0  0  0  0  0  0  0  0  0  0
    7.8510    5.4320   15.9410 H   0  0  0  0  0  0  0  0  0  0  0  0
    7.1640    7.4640   15.7860 C   0  0  0  0  0  2  0  0  0  0  0  0
    6.1450    7.8110   14.8000 C   0  0  0  0  0  0  0  0  0  0  0  0
    4.9780    7.2850   15.0810 O   0  0  0  0  0  0  0  0  0  0  0  0
    6.1870    8.5710   13.6580 N   0  0  0  0  0  0  0  0  0  0  0  0
    7.3000    9.3300   13.1860 C   0  0  0  0  0  2  0  0  0  0  0  0
    5.0080    8.6230   12.7660 C   0  0  0  0  0  2  0  0  0  0  0  0
    7.6720    8.8250   11.7950 C   0  0  0  0  0  2  0  0  0  0  0  0
    6.5460    9.1210   10.9940 O   0  0  0  0  0  0  0  0  0  0  0  0
    5.5210    8.2780   11.3630 C   0  0  0  0  0  2  0  0  0  0  0  0
   10.2350    5.5570   11.2630 N   0  0  0  0  0  0  0  0  0  0  0  0
    9.7390    6.0760   10.1580 N   0  0  0  0  0  0  0  0  0  0  0  0
    9.8830    5.2310    9.1550 N   0  0  0  0  0  0  0  0  0  0  0  0
   10.4810    4.1660    9.6500 N   0  0  0  0  0  0  0  0  0  0  0  0
   10.7140    4.3520   10.9840 C   0  0  0  0  0  0  0  0  0  0  0  0
   11.3580    3.3390   11.8180 C   0  0  0  0  0  3  0  0  0  0  0  0
   12.2730    2.3060   11.3490 C   0  0  0  0  0  2  0  0  0  0  0  0
   12.8870    3.5430   12.0250 C   0  0  0  0  0  2  0  0  0  0  0  0
  1  2  1  0  0  0  0
  2  7  1  0  0  0  0
  3  2  2  0  0  0  0
  3  4  1  0  0  0  0
  4  5  2  0  0  0  0
  5  6  1  0  0  0  0
  5  8  1  0  0  0  0
  7  6  2  0  0  0  0
  8 10  1  0  0  0  0
  8  9  1  0  0  0  0
 11 12  2  0  0  0  0
 11 10  1  0  0  0  0
 13 11  1  0  0  0  0
 14 13  1  0  0  0  0
 15 13  1  0  0  0  0
 16 14  1  0  0  0  0
 17 18  1  0  0  0  0
 17 16  1  0  0  0  0
 18 15  1  0  0  0  0
 19  3  1  0  0  0  0
 20 19  1  0  0  0  0
 21 22  1  0  0  0  0
 21 20  2  0  0  0  0
 22 23  2  0  0  0  0
 23 19  1  0  0  0  0
 23 24  1  0  0  0  0
 24 26  1  0  0  0  0
 25 24  1  0  0  0  0
 25 26  1  0  0  0  0
M  END
>  <Pose>
1

>  <Score>
-7.221

$$$$
