/Users/jonathanwahrer/Desktop/Msc/3_Semester/Drug_Design_Praktikum/waehrer_HTS_screening/HTS_experiment/out/docking_results/vina_output/2jam/2103_docked.pdbqt
 OpenBabel03162218543D

 29 32  0  0  0  0  0  0  0  0999 V2000
   12.2140    3.1420   11.2620 C   0  0  0  0  0  0  0  0  0  0  0  0
   11.5100    2.2360   10.3910 C   0  0  0  0  0  0  0  0  0  0  0  0
   12.1940    1.4950    9.4990 C   0  0  0  0  0  0  0  0  0  0  0  0
   13.5950    1.5870    9.3990 C   0  0  0  0  0  0  0  0  0  0  0  0
   14.2820    2.4480   10.2200 C   0  0  0  0  0  0  0  0  0  0  0  0
   13.5790    3.2280   11.1530 C   0  0  0  0  0  0  0  0  0  0  0  0
   14.2940    4.2310   11.9820 C   0  0  0  0  0  2  0  0  0  0  0  0
   15.6710    4.6010   11.4420 C   0  0  0  0  0  2  0  0  0  0  0  0
   16.4290    3.4310   11.0630 N   0  0  0  0  0  0  0  0  0  0  0  0
   15.7370    2.5470   10.1700 C   0  0  0  0  0  0  0  0  0  0  0  0
   16.4450    1.8920    9.3770 O   0  0  0  0  0  0  0  0  0  0  0  0
   17.7690    3.1750   11.5450 C   0  0  0  0  0  1  0  0  0  0  0  0
   11.2570    0.7200    8.8000 O   0  0  0  0  0  0  0  0  0  0  0  0
   10.0000    0.7960    9.4380 C   0  0  0  0  0  2  0  0  0  0  0  0
   10.1510    1.9340   10.2630 O   0  0  0  0  0  0  0  0  0  0  0  0
   11.3040    3.8320   12.1510 C   0  0  0  0  0  2  0  0  0  0  0  0
   10.1830    4.5680   11.7600 N   0  0  0  0  0  0  0  0  0  0  0  0
    9.8430    5.7190   12.6230 C   0  0  0  0  0  0  0  0  0  0  0  0
   10.5610    5.9490   13.6110 O   0  0  0  0  0  0  0  0  0  0  0  0
    9.5420    4.5030   10.9560 H   0  0  0  0  0  0  0  0  0  0  0  0
    8.7050    6.5550   12.3240 C   0  0  0  0  0  0  0  0  0  0  0  0
    7.5820    5.9490   11.7720 C   0  0  0  0  0  3  0  0  0  0  0  0
    6.4860    6.6560   11.4600 N   0  0  0  0  0  0  0  0  0  0  0  0
    6.4620    7.9690   11.6810 C   0  0  0  0  0  3  0  0  0  0  0  0
    7.5320    8.6120   12.2190 C   0  0  0  0  0  0  0  0  0  0  0  0
    7.4770   10.4960   12.5280 Br  0  0  0  0  0  0  0  0  0  0  0  0
    8.6890    7.9110   12.5550 C   0  0  0  0  0  3  0  0  0  0  0  0
   14.2050    0.8130    8.4840 O   0  0  0  0  0  0  0  0  0  0  0  0
   14.0690    0.7140    7.5370 H   0  0  0  0  0  0  0  0  0  0  0  0
  1 16  1  0  0  0  0
  2  1  2  0  0  0  0
  3  2  1  0  0  0  0
  4  3  2  0  0  0  0
  4  5  1  0  0  0  0
  5  6  2  0  0  0  0
  6  1  1  0  0  0  0
  6  7  1  0  0  0  0
  8  7  1  0  0  0  0
  9  8  1  0  0  0  0
  9 12  1  0  0  0  0
 10  5  1  0  0  0  0
 10  9  1  0  0  0  0
 11 10  2  0  0  0  0
 13 14  1  0  0  0  0
 13  3  1  0  0  0  0
 14 15  1  0  0  0  0
 15  2  1  0  0  0  0
 17 16  1  0  0  0  0
 17 18  1  0  0  0  0
 18 19  2  0  0  0  0
 20 17  1  0  0  0  0
 21 27  1  0  0  0  0
 21 18  1  0  0  0  0
 22 21  2  0  0  0  0
 23 24  2  0  0  0  0
 23 22  1  0  0  0  0
 24 25  1  0  0  0  0
 25 26  1  0  0  0  0
 25 27  2  0  0  0  0
 28  4  1  0  0  0  0
 29 28  1  0  0  0  0
M  END
>  <Pose>
1

>  <Score>
-9.001

$$$$
