/Users/jonathanwahrer/Desktop/Msc/3_Semester/Drug_Design_Praktikum/waehrer_HTS_screening/HTS_experiment/out/docking_results/vina_output/2jam/2105_docked.pdbqt
 OpenBabel03162218543D

 29 32  0  0  1  0  0  0  0  0999 V2000
   11.9120   10.7920   15.3300 Cl  0  0  0  0  0  0  0  0  0  0  0  0
   10.6930    9.5370   15.4110 C   0  0  0  0  0  0  0  0  0  0  0  0
    9.5080    9.6490   14.6820 C   0  0  0  0  0  0  0  0  0  0  0  0
    8.5350    8.6950   14.7180 C   0  0  0  0  0  0  0  0  0  0  0  0
    8.7800    7.5910   15.5230 C   0  0  0  0  0  3  0  0  0  0  0  0
    9.9430    7.4620   16.2500 C   0  0  0  0  0  3  0  0  0  0  0  0
   10.9140    8.4360   16.2000 C   0  0  0  0  0  3  0  0  0  0  0  0
    7.4200    9.1130   13.8440 C   0  0  2  0  0  0  0  0  0  0  0  0
    6.1650    9.3090   14.6570 C   0  0  0  0  0  0  0  0  0  0  0  0
    5.0430    8.6940   14.4070 C   0  0  0  0  0  0  0  0  0  0  0  0
    4.9160    7.7720   13.3270 N   0  0  0  0  0  0  0  0  0  0  0  0
    6.0480    7.5280   12.5120 C   0  0  0  0  0  0  0  0  0  0  0  0
    7.1840    8.1430   12.7540 C   0  0  0  0  0  0  0  0  0  0  0  0
    8.3230    7.8630   11.8910 C   0  0  0  0  0  0  0  0  0  0  0  0
    9.2390    7.6490   11.2170 N   0  0  0  0  0  0  0  0  0  0  0  0
    4.0320    9.1230   15.3950 C   0  0  0  0  0  0  0  0  0  0  0  0
    4.6690   10.0220   16.2160 O   0  0  0  0  0  0  0  0  0  0  0  0
    5.9750   10.1760   15.8130 C   0  0  0  0  0  0  0  0  0  0  0  0
    6.8750   10.9260   16.3300 O   0  0  0  0  0  0  0  0  0  0  0  0
    3.4920    7.9030   16.1080 C   0  0  0  0  0  1  0  0  0  0  0  0
    2.8580    9.8220   14.7350 C   0  0  0  0  0  1  0  0  0  0  0  0
    7.8530   10.4190   13.2940 C   0  0  0  0  0  0  0  0  0  0  0  0
    7.1950   11.1600   12.4790 O   0  0  0  0  0  0  0  0  0  0  0  0
    9.1250   10.7120   13.8260 N   0  0  0  0  0  0  0  0  0  0  0  0
    4.0230    7.2760   13.1220 H   0  0  0  0  0  0  0  0  0  0  0  0
    9.6730   11.5950   13.5960 H   0  0  0  0  0  0  0  0  0  0  0  0
    5.9990    6.6170   11.4090 N   0  0  0  0  0  0  0  0  0  0  0  0
    5.1360    6.1020   11.1900 H   0  0  0  0  0  0  0  0  0  0  0  0
    6.8450    6.4900   10.8420 H   0  0  0  0  0  0  0  0  0  0  0  0
  1  2  1  0  0  0  0
  2  7  1  0  0  0  0
  3  4  1  0  0  0  0
  3  2  2  0  0  0  0
  4  5  2  0  0  0  0
  5  6  1  0  0  0  0
  7  6  2  0  0  0  0
  8 13  1  6  0  0  0
  8  9  1  0  0  0  0
  8  4  1  0  0  0  0
  9 18  1  0  0  0  0
 10  9  2  0  0  0  0
 10 16  1  0  0  0  0
 11 10  1  0  0  0  0
 12 13  2  0  0  0  0
 12 11  1  0  0  0  0
 14 13  1  0  0  0  0
 15 14  3  0  0  0  0
 16 20  1  0  0  0  0
 16 17  1  0  0  0  0
 18 17  1  0  0  0  0
 18 19  2  0  0  0  0
 21 16  1  0  0  0  0
 22 24  1  0  0  0  0
 22  8  1  0  0  0  0
 23 22  2  0  0  0  0
 24  3  1  0  0  0  0
 25 11  1  0  0  0  0
 26 24  1  0  0  0  0
 27 12  1  0  0  0  0
 28 27  1  0  0  0  0
 29 27  1  0  0  0  0
M  END
>  <Pose>
1

>  <Score>
-7.826

$$$$
