/Users/jonathanwahrer/Desktop/Msc/3_Semester/Drug_Design_Praktikum/waehrer_HTS_screening/HTS_experiment/out/docking_results/vina_output/2jam/2116_docked.pdbqt
 OpenBabel03162218553D

 33 36  0  0  0  0  0  0  0  0999 V2000
   11.6840    4.8680    9.8520 C   0  0  0  0  0  0  0  0  0  0  0  0
   11.2620    3.6570    9.5240 N   0  0  0  0  0  4  0  0  0  0  0  0
   11.9010    2.5190    9.8470 C   0  0  0  0  0  0  0  0  0  0  0  0
   13.0460    2.6460   10.5520 N   0  0  0  0  0  0  0  0  0  0  0  0
   13.5300    3.8630   10.9200 C   0  0  0  0  0  0  0  0  0  0  0  0
   12.8300    4.9670   10.5590 N   0  0  0  0  0  2  0  0  0  0  0  0
   10.9570    6.0180    9.4380 N   0  0  0  0  0  0  0  0  0  0  0  0
   11.2020    6.4780    8.5540 H   0  0  0  0  0  0  0  0  0  0  0  0
    9.9280    6.5180   10.2190 N   0  0  0  0  0  0  0  0  0  0  0  0
    9.9480    6.5530   11.5070 C   0  0  0  0  0  3  0  0  0  0  0  0
    8.8440    7.0830   12.2800 C   0  0  0  0  0  0  0  0  0  0  0  0
    7.5510    6.6060   12.0660 C   0  0  0  0  0  0  0  0  0  0  0  0
    6.4630    7.0820   12.7500 C   0  0  0  0  0  3  0  0  0  0  0  0
    6.5950    8.0720   13.7050 C   0  0  0  0  0  0  0  0  0  0  0  0
    7.8710    8.5600   13.9360 C   0  0  0  0  0  0  0  0  0  0  0  0
    8.0880    9.9190   15.2490 Br  0  0  0  0  0  0  0  0  0  0  0  0
    8.9560    8.0700   13.2350 C   0  0  0  0  0  3  0  0  0  0  0  0
    7.4110    5.6020   11.1020 O   0  0  0  0  0  0  0  0  0  0  0  0
    7.8610    5.7340   10.2010 H   0  0  0  0  0  0  0  0  0  0  0  0
    5.4820    8.5480   14.3950 O   0  0  0  0  0  0  0  0  0  0  0  0
    5.0320    9.4280   14.1940 H   0  0  0  0  0  0  0  0  0  0  0  0
   11.4060    1.2250    9.4640 N   0  0  0  0  0  0  0  0  0  0  0  0
   10.0150    0.8940    9.5770 C   0  0  0  0  0  2  0  0  0  0  0  0
    9.5740   -0.3580    8.9250 C   0  0  0  0  0  2  0  0  0  0  0  0
   10.6010   -1.2350    8.6040 O   0  0  0  0  0  0  0  0  0  0  0  0
   11.6420   -0.5990    7.9410 C   0  0  0  0  0  2  0  0  0  0  0  0
   12.3440    0.2640    8.9600 C   0  0  0  0  0  2  0  0  0  0  0  0
   14.7340    3.9820   11.6420 N   0  0  0  0  0  0  0  0  0  0  0  0
   15.9100    3.2390   11.2690 C   0  0  0  0  0  2  0  0  0  0  0  0
   17.0250    4.2860   11.1340 C   0  0  0  0  0  2  0  0  0  0  0  0
   17.0830    5.0310   12.2940 O   0  0  0  0  0  0  0  0  0  0  0  0
   15.9610    5.8500   12.4050 C   0  0  0  0  0  2  0  0  0  0  0  0
   14.8160    4.8800   12.7670 C   0  0  0  0  0  2  0  0  0  0  0  0
  1  6  1  0  0  0  0
  2  3  2  0  0  0  0
  2  1  2  0  0  0  0
  3  4  1  0  0  0  0
  4  5  2  0  0  0  0
  5 28  1  0  0  0  0
  6  5  1  0  0  0  0
  7  1  1  0  0  0  0
  7  9  1  0  0  0  0
  8  7  1  0  0  0  0
  9 10  2  0  0  0  0
 10 11  1  0  0  0  0
 11 17  1  0  0  0  0
 12 11  2  0  0  0  0
 12 13  1  0  0  0  0
 13 14  2  0  0  0  0
 14 15  1  0  0  0  0
 14 20  1  0  0  0  0
 15 16  1  0  0  0  0
 17 15  2  0  0  0  0
 18 12  1  0  0  0  0
 19 18  1  0  0  0  0
 21 20  1  0  0  0  0
 22 23  1  0  0  0  0
 22  3  1  0  0  0  0
 24 23  1  0  0  0  0
 25 24  1  0  0  0  0
 26 25  1  0  0  0  0
 26 27  1  0  0  0  0
 27 22  1  0  0  0  0
 28 33  1  0  0  0  0
 29 28  1  0  0  0  0
 30 29  1  0  0  0  0
 30 31  1  0  0  0  0
 31 32  1  0  0  0  0
 32 33  1  0  0  0  0
M  END
>  <Pose>
1

>  <Score>
-8.603

$$$$
