/Users/jonathanwahrer/Desktop/Msc/3_Semester/Drug_Design_Praktikum/waehrer_HTS_screening/HTS_experiment/out/docking_results/vina_output/2jam/2121_docked.pdbqt
 OpenBabel03162218553D

 31 34  0  0  1  0  0  0  0  0999 V2000
   16.5130    5.2830   12.4980 C   0  0  0  0  0  0  0  0  0  0  0  0
   16.7930    4.8540   13.7360 O   0  0  0  0  0  0  0  0  0  0  0  0
   16.7660    6.6260   12.3190 N   0  0  0  0  0  0  0  0  0  0  0  0
   17.3310    7.2420   13.5520 C   0  0  0  0  0  2  0  0  0  0  0  0
   18.8430    7.1340   13.5090 C   0  0  0  0  0  2  0  0  0  0  0  0
   19.2460    6.9600   12.0950 C   0  0  1  0  0  3  0  0  0  0  0  0
   18.7930    8.1120   11.2570 C   0  0  2  0  0  3  0  0  0  0  0  0
   17.7710    7.5360   10.2620 C   0  0  0  0  0  2  0  0  0  0  0  0
   16.5040    7.3370   11.1150 C   0  0  0  0  0  2  0  0  0  0  0  0
   16.0140    4.2420   11.6410 C   0  0  0  0  0  0  0  0  0  0  0  0
   16.5960    3.6020   10.6240 N   0  0  0  0  0  0  0  0  0  0  0  0
   15.7360    2.6990   10.0610 C   0  0  0  0  0  0  0  0  0  0  0  0
   17.5540    3.7040   10.2670 H   0  0  0  0  0  0  0  0  0  0  0  0
   14.5740    2.7750   10.7480 C   0  0  0  0  0  0  0  0  0  0  0  0
   15.8510    1.8250    9.0140 C   0  0  0  0  0  3  0  0  0  0  0  0
   13.4630    1.9850   10.4310 C   0  0  0  0  0  3  0  0  0  0  0  0
   14.7220    3.7280   11.7370 C   0  0  0  0  0  3  0  0  0  0  0  0
   13.5940    1.1240    9.3910 C   0  0  0  0  0  0  0  0  0  0  0  0
   12.2120    0.1120    8.9590 Cl  0  0  0  0  0  0  0  0  0  0  0  0
   14.7690    1.0280    8.6740 C   0  0  0  0  0  3  0  0  0  0  0  0
   20.6120    6.6490   11.8170 N   0  0  0  0  0  0  0  0  0  0  0  0
   20.8140    5.5090   10.9590 C   0  0  0  0  0  2  0  0  0  0  0  0
   20.3360    4.2540   11.5840 C   0  0  0  0  0  2  0  0  0  0  0  0
   21.0290    4.1380   12.8720 N   0  0  0  0  0  0  0  0  0  0  0  0
   21.9670    5.1880   13.1750 C   0  0  0  0  0  2  0  0  0  0  0  0
   20.7680    3.0230   13.7250 C   0  0  0  0  0  0  0  0  0  0  0  0
   21.4390    6.5790   12.9900 C   0  0  0  0  0  2  0  0  0  0  0  0
   21.3480    2.9420   14.8160 O   0  0  0  0  0  0  0  0  0  0  0  0
   19.7940    1.9840   13.2620 C   0  0  0  0  0  1  0  0  0  0  0  0
   19.8260    8.7700   10.5930 O   0  0  0  0  0  0  0  0  0  0  0  0
   20.5970    8.1160   10.5780 H   0  0  0  0  0  0  0  0  0  0  0  0
  1  2  2  0  0  0  0
  3  1  1  0  0  0  0
  3  4  1  0  0  0  0
  5  4  1  0  0  0  0
  6 21  1  1  0  0  0
  6  5  1  0  0  0  0
  7 30  1  6  0  0  0
  7  6  1  0  0  0  0
  8  9  1  0  0  0  0
  8  7  1  0  0  0  0
  9  3  1  0  0  0  0
 10 17  2  0  0  0  0
 10  1  1  0  0  0  0
 11 10  1  0  0  0  0
 12 11  1  0  0  0  0
 12 14  1  0  0  0  0
 13 11  1  0  0  0  0
 14 17  1  0  0  0  0
 15 12  2  0  0  0  0
 16 14  2  0  0  0  0
 18 16  1  0  0  0  0
 19 18  1  0  0  0  0
 20 15  1  0  0  0  0
 20 18  2  0  0  0  0
 21 27  1  0  0  0  0
 22 23  1  0  0  0  0
 22 21  1  0  0  0  0
 23 24  1  0  0  0  0
 24 25  1  0  0  0  0
 24 26  1  0  0  0  0
 26 28  2  0  0  0  0
 27 25  1  0  0  0  0
 29 26  1  0  0  0  0
 31 30  1  0  0  0  0
M  END
>  <Pose>
1

>  <Score>
-7.694

$$$$
