/Users/jonathanwahrer/Desktop/Msc/3_Semester/Drug_Design_Praktikum/waehrer_HTS_screening/HTS_experiment/out/docking_results/vina_output/2jam/2124_docked.pdbqt
 OpenBabel03162218553D

 25 29  0  0  1  0  0  0  0  0999 V2000
   10.6550    5.7650   11.7380 N   0  0  0  0  0  0  0  0  0  0  0  0
    9.3340    6.1930   11.4380 C   0  0  0  0  0  0  0  0  0  0  0  0
    8.4820    5.5240   10.7940 O   0  0  0  0  0  0  0  0  0  0  0  0
    9.0870    7.5640   11.9960 C   0  0  1  0  0  3  0  0  0  0  0  0
    7.9120    7.5670   12.9150 C   0  0  2  0  0  0  0  0  0  0  0  0
    8.3820    8.1960   14.0940 O   0  0  0  0  0  0  0  0  0  0  0  0
    9.5120    7.3580   14.2780 C   0  0  2  0  0  0  0  0  0  0  0  0
   10.2500    7.7050   12.9890 C   0  0  1  0  0  3  0  0  0  0  0  0
   11.2530    6.7240   12.6010 C   0  0  0  0  0  0  0  0  0  0  0  0
   12.4510    6.7440   12.9850 O   0  0  0  0  0  0  0  0  0  0  0  0
    8.8700    6.0240   14.2130 C   0  0  0  0  0  2  0  0  0  0  0  0
    7.7710    6.1730   13.4460 C   0  0  0  0  0  2  0  0  0  0  0  0
   10.2730    7.6300   15.5080 C   0  0  0  0  0  1  0  0  0  0  0  0
   11.3570    4.5980   11.3020 C   0  0  0  0  0  0  0  0  0  0  0  0
   11.9400    4.4880   10.0630 C   0  0  0  0  0  3  0  0  0  0  0  0
   12.6150    3.3530    9.6510 C   0  0  0  0  0  3  0  0  0  0  0  0
   12.7240    2.2740   10.4950 C   0  0  0  0  0  0  0  0  0  0  0  0
   13.5730    0.8030   10.0100 Cl  0  0  0  0  0  0  0  0  0  0  0  0
   12.1440    2.3690   11.7400 C   0  0  0  0  0  3  0  0  0  0  0  0
   11.4640    3.5130   12.1530 C   0  0  0  0  0  3  0  0  0  0  0  0
    6.6640    8.1500   12.4060 C   0  0  0  0  0  3  0  0  0  0  0  0
    6.2820    9.1910   13.2540 O   0  0  0  0  0  0  0  0  0  0  0  0
    6.8890   10.3430   12.8180 C   0  0  0  0  0  2  0  0  0  0  0  0
    7.0740   10.0840   11.3470 C   0  0  0  0  0  2  0  0  0  0  0  0
    6.8940    8.7320   11.1590 O   0  0  0  0  0  0  0  0  0  0  0  0
  1  9  1  0  0  0  0
  2  1  1  0  0  0  0
  3  2  2  0  0  0  0
  4  2  1  1  0  0  0
  4  5  1  0  0  0  0
  4  8  1  0  0  0  0
  5 21  1  6  0  0  0
  5 12  1  0  0  0  0
  5  6  1  0  0  0  0
  6  7  1  0  0  0  0
  7 13  1  1  0  0  0
  8  9  1  6  0  0  0
  8  7  1  0  0  0  0
  9 10  2  0  0  0  0
 11  7  1  0  0  0  0
 12 11  1  0  0  0  0
 14  1  1  0  0  0  0
 14 20  1  0  0  0  0
 15 14  2  0  0  0  0
 16 15  1  0  0  0  0
 16 17  2  0  0  0  0
 17 19  1  0  0  0  0
 18 17  1  0  0  0  0
 19 20  2  0  0  0  0
 21 22  1  0  0  0  0
 23 22  1  0  0  0  0
 24 23  1  0  0  0  0
 25 24  1  0  0  0  0
 25 21  1  0  0  0  0
M  END
>  <Pose>
1

>  <Score>
-7.933

$$$$
