/Users/jonathanwahrer/Desktop/Msc/3_Semester/Drug_Design_Praktikum/waehrer_HTS_screening/HTS_experiment/out/docking_results/vina_output/2jam/2134_docked.pdbqt
 OpenBabel03162218553D

 36 39  0  0  0  0  0  0  0  0999 V2000
   12.2250    3.8170   10.9370 C   0  0  0  0  0  0  0  0  0  0  0  0
   11.3230    3.0020   10.4450 N   0  0  0  0  0  0  0  0  0  0  0  0
   11.8750    1.8640    9.9150 N   0  0  0  0  0  0  0  0  0  0  0  0
   13.2840    1.9900   10.1060 C   0  0  0  0  0  0  0  0  0  0  0  0
   14.2890    1.2200    9.8080 N   0  0  0  0  0  0  0  0  0  0  0  0
   15.6270    1.5840   10.1100 N   0  0  0  0  0  0  0  0  0  0  0  0
   15.9440    2.7970   10.7480 C   0  0  0  0  0  0  0  0  0  0  0  0
   17.1900    3.1540   11.0290 C   0  0  0  0  0  2  0  0  0  0  0  0
   14.8310    3.6740   11.0940 C   0  0  0  0  0  0  0  0  0  0  0  0
   15.0850    4.7440   11.6570 O   0  0  0  0  0  0  0  0  0  0  0  0
   13.5130    3.2380   10.7590 N   0  0  0  0  0  0  0  0  0  0  0  0
   16.3590    0.8940    9.8270 H   0  0  0  0  0  0  0  0  0  0  0  0
   11.9300    5.0930   11.5580 C   0  0  0  0  0  0  0  0  0  0  0  0
   11.5050    5.1280   12.9080 N   0  0  0  0  0  0  0  0  0  0  0  0
   11.4180    4.2800   13.4880 H   0  0  0  0  0  0  0  0  0  0  0  0
   12.0400    6.1840   10.9130 O   0  0  0  0  0  0  0  0  0  0  0  0
   11.2010    6.3590   13.4770 N   0  0  0  0  0  0  0  0  0  0  0  0
    9.9280    6.9540   13.5750 C   0  0  0  0  0  0  0  0  0  0  0  0
    9.6900    8.2070   14.1660 N   0  0  0  0  0  0  0  0  0  0  0  0
    8.9370    6.3290   13.1090 O   0  0  0  0  0  0  0  0  0  0  0  0
   10.4970    8.7550   14.5560 H   0  0  0  0  0  0  0  0  0  0  0  0
   12.0560    6.8800   13.8590 H   0  0  0  0  0  0  0  0  0  0  0  0
    8.4170    8.8300   14.2990 C   0  0  0  0  0  0  0  0  0  0  0  0
    7.8690    9.5630   13.2490 C   0  0  0  0  0  3  0  0  0  0  0  0
    6.6400   10.1770   13.3500 C   0  0  0  0  0  3  0  0  0  0  0  0
    5.9700   10.0380   14.5370 C   0  0  0  0  0  0  0  0  0  0  0  0
    4.3820   10.7820   14.7660 Cl  0  0  0  0  0  0  0  0  0  0  0  0
    6.4700    9.3270   15.5950 C   0  0  0  0  0  3  0  0  0  0  0  0
    7.7000    8.7190   15.4820 C   0  0  0  0  0  3  0  0  0  0  0  0
   11.1730    0.8090    9.2640 C   0  0  0  0  0  0  0  0  0  0  0  0
    9.8560    0.5430    9.5460 C   0  0  0  0  0  3  0  0  0  0  0  0
    9.1140   -0.4440    8.9120 C   0  0  0  0  0  3  0  0  0  0  0  0
    9.7010   -1.2240    7.9360 C   0  0  0  0  0  0  0  0  0  0  0  0
   11.0240   -0.9790    7.6370 C   0  0  0  0  0  3  0  0  0  0  0  0
    8.9290   -2.2730    7.2010 C   0  0  0  0  0  1  0  0  0  0  0  0
   11.7450    0.0200    8.2910 C   0  0  0  0  0  3  0  0  0  0  0  0
  1 13  1  0  0  0  0
  2  1  2  0  0  0  0
  3  4  1  0  0  0  0
  3  2  1  0  0  0  0
  4 11  1  0  0  0  0
  5  4  2  0  0  0  0
  5  6  1  0  0  0  0
  6  7  1  0  0  0  0
  7  8  2  0  0  0  0
  7  9  1  0  0  0  0
  9 10  2  0  0  0  0
 11  1  1  0  0  0  0
 11  9  1  0  0  0  0
 12  6  1  0  0  0  0
 13 14  1  0  0  0  0
 14 17  1  0  0  0  0
 14 15  1  0  0  0  0
 16 13  2  0  0  0  0
 17 18  1  0  0  0  0
 17 22  1  0  0  0  0
 18 19  1  0  0  0  0
 19 23  1  0  0  0  0
 19 21  1  0  0  0  0
 20 18  2  0  0  0  0
 23 29  1  0  0  0  0
 24 25  1  0  0  0  0
 24 23  2  0  0  0  0
 25 26  2  0  0  0  0
 26 27  1  0  0  0  0
 26 28  1  0  0  0  0
 29 28  2  0  0  0  0
 30 31  1  0  0  0  0
 30  3  1  0  0  0  0
 32 31  2  0  0  0  0
 33 32  1  0  0  0  0
 34 33  2  0  0  0  0
 34 36  1  0  0  0  0
 35 33  1  0  0  0  0
 36 30  2  0  0  0  0
M  END
>  <Pose>
1

>  <Score>
-10.086

$$$$
