/Users/jonathanwahrer/Desktop/Msc/3_Semester/Drug_Design_Praktikum/waehrer_HTS_screening/HTS_experiment/out/docking_results/vina_output/2jam/2139_docked.pdbqt
 OpenBabel03162218563D

 27 30  0  0  0  0  0  0  0  0999 V2000
   12.5560    4.1650   11.0420 N   0  0  0  0  0  0  0  0  0  0  0  0
   11.9510    4.6680    9.8740 C   0  0  0  0  0  2  0  0  0  0  0  0
   10.7350    5.5330   10.0680 C   0  0  0  0  0  2  0  0  0  0  0  0
   10.8260    6.0610   11.4540 N   0  0  0  0  0  0  0  0  0  0  0  0
   12.1400    6.4070   11.8470 C   0  0  0  0  0  2  0  0  0  0  0  0
   12.9060    5.1180   12.0560 C   0  0  0  0  0  2  0  0  0  0  0  0
    9.6140    6.1760   12.1660 C   0  0  0  0  0  0  0  0  0  0  0  0
    8.4310    6.0210   11.4970 N   0  0  0  0  0  0  0  0  0  0  0  0
    7.2260    6.1390   12.0400 C   0  0  0  0  0  0  0  0  0  0  0  0
    7.1390    6.4330   13.3480 N   0  0  0  0  0  0  0  0  0  0  0  0
    8.2750    6.5970   14.0620 C   0  0  0  0  0  0  0  0  0  0  0  0
    8.4940    6.8770   15.3600 N   0  0  0  0  0  0  0  0  0  0  0  0
    9.5460    6.4740   13.4970 C   0  0  0  0  0  0  0  0  0  0  0  0
    9.8080    6.9240   15.5840 C   0  0  0  0  0  3  0  0  0  0  0  0
   10.4760    6.6750   14.4440 N   0  0  0  0  0  0  0  0  0  0  0  0
   11.5150    6.6470   14.3700 H   0  0  0  0  0  0  0  0  0  0  0  0
    6.0160    5.9610   11.2740 N   0  0  0  0  0  0  0  0  0  0  0  0
    5.5350    6.7510   10.8210 H   0  0  0  0  0  0  0  0  0  0  0  0
    5.6090    5.0110   11.1680 H   0  0  0  0  0  0  0  0  0  0  0  0
   12.1600    2.8880   11.4960 C   0  0  0  0  0  2  0  0  0  0  0  0
   11.9050    1.8820   10.4670 C   0  0  0  0  0  0  0  0  0  0  0  0
   10.6220    1.5470   10.1160 C   0  0  0  0  0  3  0  0  0  0  0  0
   10.3110    0.5990    9.1470 C   0  0  0  0  0  3  0  0  0  0  0  0
   11.3670   -0.0250    8.5170 C   0  0  0  0  0  0  0  0  0  0  0  0
   11.0540   -1.2310    7.2860 Cl  0  0  0  0  0  0  0  0  0  0  0  0
   12.6550    0.3090    8.8680 C   0  0  0  0  0  3  0  0  0  0  0  0
   12.9420    1.2480    9.8280 C   0  0  0  0  0  3  0  0  0  0  0  0
  1 20  1  0  0  0  0
  1  6  1  0  0  0  0
  2  3  1  0  0  0  0
  2  1  1  0  0  0  0
  3  4  1  0  0  0  0
  4  5  1  0  0  0  0
  4  7  1  0  0  0  0
  5  6  1  0  0  0  0
  7 13  2  0  0  0  0
  8  9  2  0  0  0  0
  8  7  1  0  0  0  0
  9 10  1  0  0  0  0
 10 11  2  0  0  0  0
 11 12  1  0  0  0  0
 12 14  2  0  0  0  0
 13 11  1  0  0  0  0
 13 15  1  0  0  0  0
 15 14  1  0  0  0  0
 16 15  1  0  0  0  0
 17  9  1  0  0  0  0
 18 17  1  0  0  0  0
 19 17  1  0  0  0  0
 21 20  1  0  0  0  0
 22 21  1  0  0  0  0
 23 22  2  0  0  0  0
 24 26  2  0  0  0  0
 24 23  1  0  0  0  0
 25 24  1  0  0  0  0
 26 27  1  0  0  0  0
 27 21  2  0  0  0  0
M  END
>  <Pose>
1

>  <Score>
-8.374

$$$$
