/Users/jonathanwahrer/Desktop/Msc/3_Semester/Drug_Design_Praktikum/waehrer_HTS_screening/HTS_experiment/out/docking_results/vina_output/2jam/2164_docked.pdbqt
 OpenBabel03162218563D

 25 28  0  0  1  0  0  0  0  0999 V2000
   12.2520    4.9740   11.5260 C   0  0  2  0  0  3  0  0  0  0  0  0
   11.0980    4.8790   12.4900 C   0  0  0  0  0  2  0  0  0  0  0  0
   10.4110    5.9950   11.8220 N   0  0  0  0  0  0  0  0  0  0  0  0
   11.6980    6.3400   11.2460 C   0  0  0  0  0  2  0  0  0  0  0  0
   12.1610    4.0140   10.3700 C   0  0  0  0  0  0  0  0  0  0  0  0
   12.4200    2.6520   10.5920 N   0  0  0  0  0  0  0  0  0  0  0  0
   12.6780    2.3300   11.5950 H   0  0  0  0  0  0  0  0  0  0  0  0
   11.8570    4.5270    9.2840 O   0  0  0  0  0  0  0  0  0  0  0  0
   12.3730    1.6440    9.6090 C   0  0  0  0  0  0  0  0  0  0  0  0
   11.2030    0.8850    9.4650 C   0  0  0  0  0  3  0  0  0  0  0  0
   11.0720   -0.1170    8.5320 C   0  0  0  0  0  0  0  0  0  0  0  0
    9.4630   -1.1250    8.3710 Br  0  0  0  0  0  0  0  0  0  0  0  0
   12.1130   -0.4050    7.7000 C   0  0  0  0  0  3  0  0  0  0  0  0
   13.2590    0.3150    7.8180 C   0  0  0  0  0  3  0  0  0  0  0  0
   13.4000    1.3360    8.7620 C   0  0  0  0  0  3  0  0  0  0  0  0
    9.0660    6.4560   11.8100 C   0  0  0  0  0  0  0  0  0  0  0  0
    8.0540    5.7170   11.2850 N   0  0  0  0  0  0  0  0  0  0  0  0
    6.7710    6.1820   11.2860 C   0  0  0  0  0  3  0  0  0  0  0  0
    6.4670    7.3770   11.8030 N   0  0  0  0  0  0  0  0  0  0  0  0
    7.4120    8.1550   12.3340 C   0  0  0  0  0  0  0  0  0  0  0  0
    7.3650    9.3750   12.9050 N   0  0  0  0  0  0  0  0  0  0  0  0
    8.7090    7.6830   12.3320 C   0  0  0  0  0  0  0  0  0  0  0  0
    8.5980    9.6690   13.2550 N   0  0  0  0  0  0  0  0  0  0  0  0
    6.1980   10.2290   13.1110 C   0  0  0  0  0  1  0  0  0  0  0  0
    9.4290    8.6730   12.9250 N   0  0  0  0  0  0  0  0  0  0  0  0
  1  5  1  6  0  0  0
  1  2  1  0  0  0  0
  3  2  1  0  0  0  0
  4  1  1  0  0  0  0
  4  3  1  0  0  0  0
  5  6  1  0  0  0  0
  6  7  1  0  0  0  0
  8  5  2  0  0  0  0
  9  6  1  0  0  0  0
 10  9  1  0  0  0  0
 11 10  2  0  0  0  0
 12 11  1  0  0  0  0
 13 14  2  0  0  0  0
 13 11  1  0  0  0  0
 14 15  1  0  0  0  0
 15  9  2  0  0  0  0
 16  3  1  0  0  0  0
 16 22  1  0  0  0  0
 17 18  1  0  0  0  0
 17 16  2  0  0  0  0
 18 19  2  0  0  0  0
 19 20  1  0  0  0  0
 20 21  1  0  0  0  0
 21 24  1  0  0  0  0
 21 23  1  0  0  0  0
 22 20  2  0  0  0  0
 22 25  1  0  0  0  0
 25 23  2  0  0  0  0
M  END
>  <Pose>
1

>  <Score>
-8.574

$$$$
