/Users/jonathanwahrer/Desktop/Msc/3_Semester/Drug_Design_Praktikum/waehrer_HTS_screening/HTS_experiment/out/docking_results/vina_output/2jam/2170_docked.pdbqt
 OpenBabel03162218573D

 32 36  0  0  0  0  0  0  0  0999 V2000
   11.8410    6.2700   11.9590 N   0  0  0  0  0  0  0  0  0  0  0  0
   10.9150    6.9870   12.5580 N   0  0  0  0  0  0  0  0  0  0  0  0
   11.4380    7.8030   13.4840 C   0  0  0  0  0  0  0  0  0  0  0  0
   10.4770    8.5240   14.0840 N   0  0  0  0  0  0  0  0  0  0  0  0
    9.2820    8.1880   13.5530 C   0  0  0  0  0  0  0  0  0  0  0  0
    9.5740    7.2160   12.5900 C   0  0  0  0  0  0  0  0  0  0  0  0
    8.4820    6.7140   11.9150 C   0  0  0  0  0  0  0  0  0  0  0  0
    8.6970    5.8280   11.0340 O   0  0  0  0  0  0  0  0  0  0  0  0
    7.2030    7.1160   12.1440 N   0  0  0  0  0  0  0  0  0  0  0  0
    7.0070    8.0540   13.0830 C   0  0  0  0  0  0  0  0  0  0  0  0
    5.8020    8.4180   13.2830 O   0  0  0  0  0  0  0  0  0  0  0  0
    8.0200    8.5870   13.7820 N   0  0  0  0  0  0  0  0  0  0  0  0
    7.7410    9.5880   14.7760 C   0  0  0  0  0  1  0  0  0  0  0  0
    6.1130    6.5410   11.3900 C   0  0  0  0  0  1  0  0  0  0  0  0
   12.7740    7.5660   13.4500 N   0  0  0  0  0  0  0  0  0  0  0  0
   13.0330    6.6320   12.5250 C   0  0  0  0  0  0  0  0  0  0  0  0
   11.7240    5.2760   10.9160 C   0  0  0  0  0  2  0  0  0  0  0  0
   11.4530    3.9190   11.4210 C   0  0  0  0  0  0  0  0  0  0  0  0
   11.0900    3.6950   12.5970 O   0  0  0  0  0  0  0  0  0  0  0  0
   11.6190    2.8010   10.5010 C   0  0  0  0  0  0  0  0  0  0  0  0
   10.5520    2.0590   10.0400 C   0  0  0  0  0  3  0  0  0  0  0  0
   10.7150    1.0020    9.1670 C   0  0  0  0  0  3  0  0  0  0  0  0
   11.9790    0.6440    8.7180 C   0  0  0  0  0  0  0  0  0  0  0  0
   12.2130   -0.6960    7.6080 Cl  0  0  0  0  0  0  0  0  0  0  0  0
   13.0600    1.3740    9.1680 C   0  0  0  0  0  3  0  0  0  0  0  0
   12.8880    2.4290   10.0390 C   0  0  0  0  0  3  0  0  0  0  0  0
   14.2930    6.0810   12.1550 N   0  0  0  0  0  0  0  0  0  0  0  0
   14.6900    4.7410   12.5550 C   0  0  0  0  0  2  0  0  0  0  0  0
   16.1580    4.7820   12.9030 C   0  0  0  0  0  2  0  0  0  0  0  0
   16.8940    5.2870   11.8190 O   0  0  0  0  0  0  0  0  0  0  0  0
   16.6460    6.6260   11.6120 C   0  0  0  0  0  2  0  0  0  0  0  0
   15.1990    6.8650   11.3590 C   0  0  0  0  0  2  0  0  0  0  0  0
  1 16  1  0  0  0  0
  1  2  1  0  0  0  0
  2  6  1  0  0  0  0
  2  3  1  0  0  0  0
  3  4  2  0  0  0  0
  5 12  1  0  0  0  0
  5  4  1  0  0  0  0
  6  5  2  0  0  0  0
  7  9  1  0  0  0  0
  7  6  1  0  0  0  0
  8  7  2  0  0  0  0
  9 10  1  0  0  0  0
 10 11  2  0  0  0  0
 10 12  1  0  0  0  0
 12 13  1  0  0  0  0
 14  9  1  0  0  0  0
 15  3  1  0  0  0  0
 16 15  2  0  0  0  0
 17 18  1  0  0  0  0
 17  1  1  0  0  0  0
 18 19  2  0  0  0  0
 20 18  1  0  0  0  0
 21 20  1  0  0  0  0
 22 21  2  0  0  0  0
 23 22  1  0  0  0  0
 23 25  2  0  0  0  0
 24 23  1  0  0  0  0
 25 26  1  0  0  0  0
 26 20  2  0  0  0  0
 27 16  1  0  0  0  0
 27 28  1  0  0  0  0
 28 29  1  0  0  0  0
 30 29  1  0  0  0  0
 31 30  1  0  0  0  0
 32 31  1  0  0  0  0
 32 27  1  0  0  0  0
M  END
>  <Pose>
1

>  <Score>
-8.618

$$$$
