/Users/jonathanwahrer/Desktop/Msc/3_Semester/Drug_Design_Praktikum/waehrer_HTS_screening/HTS_experiment/out/docking_results/vina_output/2jam/2177_docked.pdbqt
 OpenBabel03162218573D

 31 35  0  0  0  0  0  0  0  0999 V2000
   10.8920    6.5720   12.6850 N   0  0  0  0  0  0  0  0  0  0  0  0
   10.6220    7.8390   12.0470 C   0  0  0  0  0  2  0  0  0  0  0  0
    9.3260    7.7170   11.2890 C   0  0  0  0  0  2  0  0  0  0  0  0
    8.2810    7.0540   12.0440 N   0  0  0  0  0  0  0  0  0  0  0  0
    8.5860    5.8020   12.7070 C   0  0  0  0  0  2  0  0  0  0  0  0
    9.8550    5.9810   13.4990 C   0  0  0  0  0  2  0  0  0  0  0  0
   12.1690    5.9830   12.4790 C   0  0  0  0  0  3  0  0  0  0  0  0
   12.3900    4.8800   11.8010 C   0  0  0  0  0  0  0  0  0  0  0  0
   11.3470    4.1360   11.1800 N   0  0  0  0  0  0  0  0  0  0  0  0
   13.7160    4.3910   11.6670 N   0  0  0  0  0  0  0  0  0  0  0  0
   11.5500    2.9420   10.4390 C   0  0  0  0  0  0  0  0  0  0  0  0
   10.3800    4.5090   11.2860 H   0  0  0  0  0  0  0  0  0  0  0  0
   12.8360    2.4590   10.3050 C   0  0  0  0  0  0  0  0  0  0  0  0
   10.5430    2.2190    9.8370 C   0  0  0  0  0  3  0  0  0  0  0  0
   13.0930    1.3080    9.6000 C   0  0  0  0  0  3  0  0  0  0  0  0
   13.9400    3.2090   10.9370 C   0  0  0  0  0  0  0  0  0  0  0  0
   12.0740    0.5980    9.0040 C   0  0  0  0  0  0  0  0  0  0  0  0
   12.4490   -0.8760    8.1060 Cl  0  0  0  0  0  0  0  0  0  0  0  0
   10.7850    1.0640    9.1270 C   0  0  0  0  0  3  0  0  0  0  0  0
   15.1010    2.7110   10.7760 O   0  0  0  0  0  0  0  0  0  0  0  0
   14.5340    4.8810   12.0940 H   0  0  0  0  0  0  0  0  0  0  0  0
    6.9780    7.6360   12.1210 C   0  0  0  0  0  0  0  0  0  0  0  0
    6.1850    7.6020   11.0320 N   0  0  0  0  0  0  0  0  0  0  0  0
    4.9360    8.1460   11.0620 C   0  0  0  0  0  3  0  0  0  0  0  0
    4.4660    8.7320   12.1840 N   0  0  0  0  0  0  0  0  0  0  0  0
    5.2050    8.7970   13.2970 C   0  0  0  0  0  0  0  0  0  0  0  0
    4.9900    9.3090   14.5220 N   0  0  0  0  0  0  0  0  0  0  0  0
    6.4820    8.2350   13.2490 C   0  0  0  0  0  0  0  0  0  0  0  0
    6.0790    9.0900   15.2380 N   0  0  0  0  0  0  0  0  0  0  0  0
    3.7850    9.9900   15.0050 C   0  0  0  0  0  1  0  0  0  0  0  0
    7.0080    8.4340   14.4870 C   0  0  0  0  0  3  0  0  0  0  0  0
  1  6  1  0  0  0  0
  2  1  1  0  0  0  0
  3  4  1  0  0  0  0
  3  2  1  0  0  0  0
  4 22  1  0  0  0  0
  4  5  1  0  0  0  0
  5  6  1  0  0  0  0
  7  1  1  0  0  0  0
  8  7  2  0  0  0  0
  9 12  1  0  0  0  0
  9  8  1  0  0  0  0
 10  8  1  0  0  0  0
 10 21  1  0  0  0  0
 11  9  1  0  0  0  0
 13 11  1  0  0  0  0
 13 16  1  0  0  0  0
 14 11  2  0  0  0  0
 15 13  2  0  0  0  0
 16 10  1  0  0  0  0
 17 19  2  0  0  0  0
 17 15  1  0  0  0  0
 18 17  1  0  0  0  0
 19 14  1  0  0  0  0
 20 16  2  0  0  0  0
 22 28  1  0  0  0  0
 23 24  1  0  0  0  0
 23 22  2  0  0  0  0
 24 25  2  0  0  0  0
 25 26  1  0  0  0  0
 26 27  1  0  0  0  0
 27 30  1  0  0  0  0
 27 29  1  0  0  0  0
 28 26  2  0  0  0  0
 28 31  1  0  0  0  0
 31 29  2  0  0  0  0
M  END
>  <Pose>
1

>  <Score>
-9.919

$$$$
