/Users/jonathanwahrer/Desktop/Msc/3_Semester/Drug_Design_Praktikum/waehrer_HTS_screening/HTS_experiment/out/docking_results/vina_output/2jam/2184_docked.pdbqt
 OpenBabel03162218573D

 29 32  0  0  0  0  0  0  0  0999 V2000
   12.3630    4.5930   11.4200 N   0  0  0  0  0  4  0  0  0  0  0  0
   11.7320    5.2940   12.4290 C   0  0  0  0  0  2  0  0  0  0  0  0
   11.3880    6.7490   11.9560 C   0  0  0  0  0  2  0  0  0  0  0  0
   10.2570    6.3890   10.9740 N   0  0  0  0  0  0  0  0  0  0  0  0
   10.7360    5.7230    9.8630 C   0  0  0  0  0  2  0  0  0  0  0  0
   12.2120    5.3810   10.1620 C   0  0  0  0  0  2  0  0  0  0  0  0
   13.4180    4.6750   11.5860 H   0  0  0  0  0  0  0  0  0  0  0  0
   12.1350    3.2540   11.0920 C   0  0  0  0  0  2  0  0  0  0  0  0
   13.0930    2.4560   10.3100 C   0  0  0  0  0  0  0  0  0  0  0  0
   12.4580    1.4390    9.5290 C   0  0  0  0  0  0  0  0  0  0  0  0
   11.1300    1.2280    9.6590 C   0  0  0  0  0  3  0  0  0  0  0  0
   13.2150    0.6770    8.6820 C   0  0  0  0  0  0  0  0  0  0  0  0
   10.4960    0.2460    8.9460 C   0  0  0  0  0  0  0  0  0  0  0  0
    8.7780   -0.1310    9.1090 Cl  0  0  0  0  0  0  0  0  0  0  0  0
   11.2190   -0.5590    8.0590 C   0  0  0  0  0  0  0  0  0  0  0  0
   12.5630   -0.3380    7.9410 C   0  0  0  0  0  3  0  0  0  0  0  0
   10.5950   -1.5640    7.2870 O   0  0  0  0  0  1  0  0  0  0  0  0
   14.5010    0.8330    8.5500 O   0  0  0  0  0  0  0  0  0  0  0  0
   15.1350    1.7640    9.2540 C   0  0  0  0  0  0  0  0  0  0  0  0
   16.3570    1.8950    9.1130 O   0  0  0  0  0  0  0  0  0  0  0  0
   14.4280    2.5910   10.1520 C   0  0  0  0  0  3  0  0  0  0  0  0
    8.9830    6.7550   11.4610 C   0  0  0  0  0  0  0  0  0  0  0  0
    7.9690    5.9190   11.7710 C   0  0  0  0  0  3  0  0  0  0  0  0
    6.8200    6.3660   12.4870 C   0  0  0  0  0  3  0  0  0  0  0  0
    6.6910    7.6670   12.8940 C   0  0  0  0  0  0  0  0  0  0  0  0
    7.7270    8.5380   12.5710 C   0  0  0  0  0  3  0  0  0  0  0  0
    8.8390    8.0940   11.8710 C   0  0  0  0  0  3  0  0  0  0  0  0
    5.5510    8.0550   13.5870 O   0  0  0  0  0  0  0  0  0  0  0  0
    4.5520    8.8770   12.9630 C   0  0  0  0  0  1  0  0  0  0  0  0
  1  7  1  0  0  0  0
  1  2  1  0  0  0  0
  3  2  1  0  0  0  0
  4 22  1  0  0  0  0
  4  3  1  0  0  0  0
  5  6  1  0  0  0  0
  5  4  1  0  0  0  0
  6  1  1  0  0  0  0
  8  1  1  0  0  0  0
  9  8  1  0  0  0  0
 10 11  1  0  0  0  0
 10  9  1  0  0  0  0
 12 10  2  0  0  0  0
 13 14  1  0  0  0  0
 13 11  2  0  0  0  0
 15 13  1  0  0  0  0
 16 15  2  0  0  0  0
 16 12  1  0  0  0  0
 17 15  1  0  0  0  0
 18 12  1  0  0  0  0
 18 19  1  0  0  0  0
 19 21  1  0  0  0  0
 20 19  2  0  0  0  0
 21  9  2  0  0  0  0
 22 23  2  0  0  0  0
 22 27  1  0  0  0  0
 23 24  1  0  0  0  0
 24 25  2  0  0  0  0
 25 28  1  0  0  0  0
 26 25  1  0  0  0  0
 27 26  2  0  0  0  0
 29 28  1  0  0  0  0
M  END
>  <Pose>
1

>  <Score>
-9.667

$$$$
