/Users/jonathanwahrer/Desktop/Msc/3_Semester/Drug_Design_Praktikum/waehrer_HTS_screening/HTS_experiment/out/docking_results/vina_output/2jam/2210_docked.pdbqt
 OpenBabel03162218583D

 33 36  0  0  0  0  0  0  0  0999 V2000
   16.9370    2.8240   10.2870 C   0  0  0  0  0  3  0  0  0  0  0  0
   15.6780    2.3970   10.1310 C   0  0  0  0  0  0  0  0  0  0  0  0
   14.5840    2.9410   10.7950 O   0  0  0  0  0  0  0  0  0  0  0  0
   13.4250    2.2750   10.3720 C   0  0  0  0  0  0  0  0  0  0  0  0
   13.6890    1.3030    9.4570 C   0  0  0  0  0  0  0  0  0  0  0  0
   12.6910    0.5430    8.8930 C   0  0  0  0  0  3  0  0  0  0  0  0
   11.3670    0.7610    9.2570 C   0  0  0  0  0  3  0  0  0  0  0  0
   11.1030    1.7570   10.1980 C   0  0  0  0  0  0  0  0  0  0  0  0
   12.0920    2.5030   10.7540 C   0  0  0  0  0  0  0  0  0  0  0  0
    9.7530    1.9120   10.5100 O   0  0  0  0  0  1  0  0  0  0  0  0
   15.1700    1.3470    9.2740 C   0  0  0  0  0  0  0  0  0  0  0  0
   15.8430    0.6200    8.5320 O   0  0  0  0  0  0  0  0  0  0  0  0
   11.9090    3.4350   11.8870 C   0  0  0  0  0  2  0  0  0  0  0  0
   11.8890    4.7720   11.5180 N   0  0  0  0  0  4  0  0  0  0  0  0
   11.6820    4.9470   10.0460 C   0  0  0  0  0  2  0  0  0  0  0  0
   10.5560    6.0060    9.9500 C   0  0  0  0  0  2  0  0  0  0  0  0
   10.4120    6.6570   11.2140 N   0  0  0  0  0  0  0  0  0  0  0  0
   11.6090    7.0980   11.8130 C   0  0  0  0  0  2  0  0  0  0  0  0
   12.6030    5.8670   11.9810 C   0  0  0  0  0  2  0  0  0  0  0  0
   10.8090    4.9960   11.8310 H   0  0  0  0  0  0  0  0  0  0  0  0
    9.1550    6.7970   11.7600 C   0  0  0  0  0  2  0  0  0  0  0  0
    8.1910    5.6540   11.7470 C   0  0  0  0  0  2  0  0  0  0  0  0
    7.1020    5.9240   10.9020 O   0  0  0  0  0  0  0  0  0  0  0  0
    6.6080    5.0570   10.7230 H   0  0  0  0  0  0  0  0  0  0  0  0
   17.1020    3.9500   11.2230 C   0  0  0  0  0  0  0  0  0  0  0  0
   16.4470    5.1060   10.9900 C   0  0  0  0  0  3  0  0  0  0  0  0
   16.6870    6.2000   11.8380 C   0  0  0  0  0  0  0  0  0  0  0  0
   15.7770    7.8460   11.5350 Br  0  0  0  0  0  0  0  0  0  0  0  0
   17.5680    6.1220   12.8890 C   0  0  0  0  0  3  0  0  0  0  0  0
   18.2240    4.9250   13.0940 C   0  0  0  0  0  3  0  0  0  0  0  0
   17.9970    3.8190   12.2620 C   0  0  0  0  0  0  0  0  0  0  0  0
   18.6560    2.6160   12.4660 O   0  0  0  0  0  0  0  0  0  0  0  0
   19.9290    2.4510   12.9850 C   0  0  0  0  0  1  0  0  0  0  0  0
  1 25  1  0  0  0  0
  2  1  2  0  0  0  0
  2  3  1  0  0  0  0
  4  9  1  0  0  0  0
  4  3  1  0  0  0  0
  5  4  2  0  0  0  0
  6  7  2  0  0  0  0
  6  5  1  0  0  0  0
  7  8  1  0  0  0  0
  8 10  1  0  0  0  0
  8  9  2  0  0  0  0
  9 13  1  0  0  0  0
 11  5  1  0  0  0  0
 11  2  1  0  0  0  0
 12 11  2  0  0  0  0
 14 20  1  0  0  0  0
 14 13  1  0  0  0  0
 14 19  1  0  0  0  0
 15 14  1  0  0  0  0
 16 15  1  0  0  0  0
 16 17  1  0  0  0  0
 17 21  1  0  0  0  0
 17 18  1  0  0  0  0
 18 19  1  0  0  0  0
 22 21  1  0  0  0  0
 23 22  1  0  0  0  0
 24 23  1  0  0  0  0
 25 31  1  0  0  0  0
 26 25  2  0  0  0  0
 26 27  1  0  0  0  0
 27 29  2  0  0  0  0
 28 27  1  0  0  0  0
 29 30  1  0  0  0  0
 31 32  1  0  0  0  0
 31 30  2  0  0  0  0
 32 33  1  0  0  0  0
M  END
>  <Pose>
1

>  <Score>
-8.238

$$$$
