/Users/jonathanwahrer/Desktop/Msc/3_Semester/Drug_Design_Praktikum/waehrer_HTS_screening/HTS_experiment/out/docking_results/vina_output/2jam/2213_docked.pdbqt
 OpenBabel03162218583D

 31 34  0  0  1  0  0  0  0  0999 V2000
    5.5910    7.4220   11.0960 Cl  0  0  0  0  0  0  0  0  0  0  0  0
    5.5160    8.4500   12.5100 C   0  0  0  0  0  0  0  0  0  0  0  0
    6.7240    8.8580   13.0950 C   0  0  1  0  0  3  0  0  0  0  0  0
    6.6990    9.6620   14.2040 C   0  0  0  0  0  0  0  0  0  0  0  0
    5.4430   10.0360   14.6950 C   0  0  0  0  0  3  0  0  0  0  0  0
    4.2640    9.6290   14.1120 C   0  0  0  0  0  0  0  0  0  0  0  0
    4.2840    8.8170   12.9930 C   0  0  0  0  0  3  0  0  0  0  0  0
    2.6960   10.1120   14.7480 Cl  0  0  0  0  0  0  0  0  0  0  0  0
    7.9150   10.1370   14.8820 C   0  0  0  0  0  0  0  0  0  0  0  0
    9.1260    9.6350   14.2110 C   0  0  0  0  0  0  0  0  0  0  0  0
    9.1290    8.8370   13.1110 C   0  0  0  0  0  0  0  0  0  0  0  0
   10.2820    8.3980   12.5270 N   0  0  0  0  0  0  0  0  0  0  0  0
   11.4330    8.7800   13.0750 C   0  0  0  0  0  0  0  0  0  0  0  0
   12.5330    8.3970   12.5660 O   0  0  0  0  0  0  0  0  0  0  0  0
   11.4770    9.5710   14.1660 N   0  0  0  0  0  0  0  0  0  0  0  0
   10.3530   10.0080   14.7460 C   0  0  0  0  0  0  0  0  0  0  0  0
   10.3930   10.7460   15.7630 O   0  0  0  0  0  0  0  0  0  0  0  0
   12.7680    9.9560   14.7170 C   0  0  0  0  0  1  0  0  0  0  0  0
   10.2490    7.5480   11.3560 C   0  0  0  0  0  1  0  0  0  0  0  0
    7.9350    8.4550   12.5620 O   0  0  0  0  0  0  0  0  0  0  0  0
    7.9050    9.7790   16.3390 C   0  0  0  0  0  3  0  0  0  0  0  0
    8.0360    8.4810   16.7700 C   0  0  0  0  0  0  0  0  0  0  0  0
    8.0200    8.1280   18.0640 N   0  0  0  0  0  0  0  0  0  0  0  0
    8.1940    7.4860   15.8260 O   0  0  0  0  0  0  0  0  0  0  0  0
    7.8660    9.0990   18.9850 C   0  0  0  0  0  0  0  0  0  0  0  0
    8.1650    6.7480   18.4870 C   0  0  0  0  0  1  0  0  0  0  0  0
    7.8510    8.7550   20.2030 O   0  0  0  0  0  0  0  0  0  0  0  0
    7.7330   10.3830   18.6080 N   0  0  0  0  0  0  0  0  0  0  0  0
    7.7480   10.7560   17.3210 C   0  0  0  0  0  0  0  0  0  0  0  0
    7.5680   11.3880   19.6330 C   0  0  0  0  0  1  0  0  0  0  0  0
    7.6270   11.9450   16.9400 O   0  0  0  0  0  0  0  0  0  0  0  0
  1  2  1  0  0  0  0
  2  7  2  0  0  0  0
  3  2  1  1  0  0  0
  3  4  1  0  0  0  0
  4  5  1  0  0  0  0
  4  9  2  0  0  0  0
  6  5  2  0  0  0  0
  6  8  1  0  0  0  0
  7  6  1  0  0  0  0
  9 21  1  0  0  0  0
 10 16  1  0  0  0  0
 10  9  1  0  0  0  0
 11 10  2  0  0  0  0
 12 13  1  0  0  0  0
 12 11  1  0  0  0  0
 13 15  1  0  0  0  0
 14 13  2  0  0  0  0
 15 18  1  0  0  0  0
 15 16  1  0  0  0  0
 16 17  2  0  0  0  0
 19 12  1  0  0  0  0
 20  3  1  0  0  0  0
 20 11  1  0  0  0  0
 21 22  1  0  0  0  0
 21 29  1  0  0  0  0
 22 23  1  0  0  0  0
 23 26  1  0  0  0  0
 23 25  1  0  0  0  0
 24 22  2  0  0  0  0
 25 27  2  0  0  0  0
 28 25  1  0  0  0  0
 28 30  1  0  0  0  0
 29 28  1  0  0  0  0
 31 29  2  0  0  0  0
M  END
>  <Pose>
1

>  <Score>
-7.583

$$$$
