/Users/jonathanwahrer/Desktop/Msc/3_Semester/Drug_Design_Praktikum/waehrer_HTS_screening/HTS_experiment/out/docking_results/vina_output/2jam/2225_docked.pdbqt
 OpenBabel03162218593D

 29 32  0  0  0  0  0  0  0  0999 V2000
   12.1620    5.3590   12.0450 C   0  0  0  0  0  0  0  0  0  0  0  0
   12.9260    6.1460   12.7500 O   0  0  0  0  0  0  0  0  0  0  0  0
   11.1920    5.9850   11.2790 N   0  0  0  0  0  0  0  0  0  0  0  0
   11.1090    7.4760   11.3510 C   0  0  0  0  0  2  0  0  0  0  0  0
    9.6380    7.8060   11.3830 C   0  0  0  0  0  2  0  0  0  0  0  0
    8.8130    6.6910   11.8110 N   0  0  0  0  0  0  0  0  0  0  0  0
    8.8320    5.5070   10.9950 C   0  0  0  0  0  2  0  0  0  0  0  0
   10.2210    5.4120   10.3850 C   0  0  0  0  0  2  0  0  0  0  0  0
    8.0380    6.7930   12.9860 C   0  0  0  0  0  0  0  0  0  0  0  0
    7.0180    7.6910   13.0840 N   0  0  0  0  0  0  0  0  0  0  0  0
    6.2610    7.8210   14.1640 C   0  0  0  0  0  0  0  0  0  0  0  0
    6.5320    7.0090   15.2180 N   0  0  0  0  0  0  0  0  0  0  0  0
    7.5040    6.1140   15.1990 C   0  0  0  0  0  3  0  0  0  0  0  0
    8.2950    5.9830   14.0620 C   0  0  0  0  0  3  0  0  0  0  0  0
    5.1970    8.7500   14.2820 N   0  0  0  0  0  0  0  0  0  0  0  0
    5.0390    9.5210   15.5100 C   0  0  0  0  0  2  0  0  0  0  0  0
    3.5890    9.2890   15.9440 C   0  0  0  0  0  2  0  0  0  0  0  0
    2.7300    9.7330   14.9740 O   0  0  0  0  0  0  0  0  0  0  0  0
    2.8200    9.0700   13.7730 C   0  0  0  0  0  2  0  0  0  0  0  0
    4.2320    8.9870   13.2380 C   0  0  0  0  0  2  0  0  0  0  0  0
   12.4820    3.9260   12.1960 C   0  0  0  0  0  2  0  0  0  0  0  0
   12.1720    3.0170   11.3430 O   0  0  0  0  0  0  0  0  0  0  0  0
   11.8980    2.1000   10.4720 C   0  0  0  0  0  0  0  0  0  0  0  0
   10.5920    1.7070   10.1090 C   0  0  0  0  0  3  0  0  0  0  0  0
   10.3700    0.7340    9.1820 C   0  0  0  0  0  3  0  0  0  0  0  0
   11.3960    0.0750    8.5460 C   0  0  0  0  0  0  0  0  0  0  0  0
   11.0930   -1.1720    7.3620 Cl  0  0  0  0  0  0  0  0  0  0  0  0
   12.6770    0.4430    8.8870 C   0  0  0  0  0  3  0  0  0  0  0  0
   12.9370    1.4130    9.8090 C   0  0  0  0  0  3  0  0  0  0  0  0
  1 21  1  0  0  0  0
  1  2  2  0  0  0  0
  3  4  1  0  0  0  0
  3  1  1  0  0  0  0
  4  5  1  0  0  0  0
  5  6  1  0  0  0  0
  6  9  1  0  0  0  0
  7  6  1  0  0  0  0
  8  7  1  0  0  0  0
  8  3  1  0  0  0  0
  9 10  1  0  0  0  0
  9 14  2  0  0  0  0
 10 11  2  0  0  0  0
 11 15  1  0  0  0  0
 11 12  1  0  0  0  0
 13 12  2  0  0  0  0
 14 13  1  0  0  0  0
 15 16  1  0  0  0  0
 16 17  1  0  0  0  0
 18 17  1  0  0  0  0
 19 18  1  0  0  0  0
 20 19  1  0  0  0  0
 20 15  1  0  0  0  0
 22 21  1  0  0  0  0
 23 22  1  0  0  0  0
 24 23  1  0  0  0  0
 25 24  2  0  0  0  0
 26 28  2  0  0  0  0
 26 25  1  0  0  0  0
 27 26  1  0  0  0  0
 28 29  1  0  0  0  0
 29 23  2  0  0  0  0
M  END
>  <Pose>
1

>  <Score>
-8.472

$$$$
