/Users/jonathanwahrer/Desktop/Msc/3_Semester/Drug_Design_Praktikum/waehrer_HTS_screening/HTS_experiment/out/docking_results/vina_output/2jam/2266_docked.pdbqt
 OpenBabel03162218593D

 27 30  0  0  1  0  0  0  0  0999 V2000
   11.8840    4.2140   10.5090 N   0  0  0  0  0  0  0  0  0  0  0  0
   12.6750    5.1950   11.1370 C   0  0  0  0  0  2  0  0  0  0  0  0
   12.2220    6.6160   10.8660 C   0  0  0  0  0  2  0  0  0  0  0  0
   10.7700    6.6580   11.2120 C   0  0  2  0  0  3  0  0  0  0  0  0
    9.9890    5.6300   10.7250 C   0  0  0  0  0  0  0  0  0  0  0  0
    8.6850    5.6100   10.9980 N   0  0  0  0  0  0  0  0  0  0  0  0
    8.1720    6.6060   11.7480 C   0  0  2  0  0  3  0  0  0  0  0  0
    8.9110    7.6190   12.2350 N   0  0  0  0  0  0  0  0  0  0  0  0
    8.1340    8.4590   12.9440 N   0  0  0  0  0  0  0  0  0  0  0  0
    6.8650    8.0240   12.9430 C   0  0  0  0  0  3  0  0  0  0  0  0
    6.8710    6.8660   12.2000 C   0  0  0  0  0  3  0  0  0  0  0  0
   10.2360    7.6710   11.9780 C   0  0  0  0  0  0  0  0  0  0  0  0
   10.9790    8.5920   12.4050 O   0  0  0  0  0  0  0  0  0  0  0  0
   10.6720    4.5960    9.9110 C   0  0  0  0  0  2  0  0  0  0  0  0
    8.4950    9.3190   13.4160 H   0  0  0  0  0  0  0  0  0  0  0  0
   12.1130    2.6130   10.9530 S   0  0  0  0  0  0  0  0  0  0  0  0
   13.3970    2.4220   11.7480 O   0  0  0  0  0  0  0  0  0  0  0  0
   11.0060    2.2350   11.9320 O   0  0  0  0  0  0  0  0  0  0  0  0
   12.1270    1.4530    9.6810 C   0  0  0  0  0  0  0  0  0  0  0  0
   13.1910    1.3890    8.7850 C   0  0  0  0  0  0  0  0  0  0  0  0
   13.1680    0.4500    7.7770 C   0  0  0  0  0  3  0  0  0  0  0  0
   12.1410   -0.4230    7.6230 C   0  0  0  0  0  3  0  0  0  0  0  0
   11.0820   -0.3860    8.4860 C   0  0  0  0  0  0  0  0  0  0  0  0
   11.1040    0.5530    9.4950 C   0  0  0  0  0  3  0  0  0  0  0  0
    9.7310   -1.5120    8.3090 Cl  0  0  0  0  0  0  0  0  0  0  0  0
   14.2700    2.2360    8.8700 O   0  0  0  0  0  0  0  0  0  0  0  0
   15.5510    1.6930    9.0980 C   0  0  0  0  0  1  0  0  0  0  0  0
  1 16  1  0  0  0  0
  1  2  1  0  0  0  0
  3  2  1  0  0  0  0
  4  3  1  6  0  0  0
  4 12  1  0  0  0  0
  5  6  2  0  0  0  0
  5  4  1  0  0  0  0
  6  7  1  0  0  0  0
  7 11  1  1  0  0  0
  7  8  1  0  0  0  0
  8  9  1  0  0  0  0
  9 15  1  0  0  0  0
 10  9  1  0  0  0  0
 11 10  2  0  0  0  0
 12  8  1  0  0  0  0
 12 13  2  0  0  0  0
 14  1  1  0  0  0  0
 14  5  1  0  0  0  0
 16 17  2  0  0  0  0
 16 18  2  0  0  0  0
 19 16  1  0  0  0  0
 20 26  1  0  0  0  0
 20 19  2  0  0  0  0
 21 20  1  0  0  0  0
 22 21  2  0  0  0  0
 22 23  1  0  0  0  0
 23 24  2  0  0  0  0
 24 19  1  0  0  0  0
 25 23  1  0  0  0  0
 26 27  1  0  0  0  0
M  END
>  <Pose>
1

>  <Score>
-8.846

$$$$
