/Users/jonathanwahrer/Desktop/Msc/3_Semester/Drug_Design_Praktikum/waehrer_HTS_screening/HTS_experiment/out/docking_results/vina_output/2jam/2267_docked.pdbqt
 OpenBabel03162218593D

 27 30  0  0  1  0  0  0  0  0999 V2000
   11.9740    4.0200   11.4990 N   0  0  0  0  0  0  0  0  0  0  0  0
   13.3640    4.1140   11.4950 C   0  0  0  0  0  2  0  0  0  0  0  0
   14.0600    2.8120   11.1750 C   0  0  0  0  0  2  0  0  0  0  0  0
   13.2550    1.9010   10.3290 C   0  0  1  0  0  3  0  0  0  0  0  0
   11.8990    1.8800   10.5530 C   0  0  0  0  0  0  0  0  0  0  0  0
   11.0920    1.0870    9.8380 N   0  0  0  0  0  0  0  0  0  0  0  0
   11.6300    0.2830    8.8630 C   0  0  1  0  0  3  0  0  0  0  0  0
   12.9630    0.3180    8.6570 N   0  0  0  0  0  0  0  0  0  0  0  0
   13.2290   -0.5430    7.6710 N   0  0  0  0  0  0  0  0  0  0  0  0
   12.1100   -1.1190    7.2490 C   0  0  0  0  0  3  0  0  0  0  0  0
   11.0470   -0.6130    7.9940 C   0  0  0  0  0  3  0  0  0  0  0  0
   13.8160    1.0910    9.3430 C   0  0  0  0  0  0  0  0  0  0  0  0
   15.0550    1.1220    9.1500 O   0  0  0  0  0  0  0  0  0  0  0  0
   11.3480    2.7540   11.6010 C   0  0  0  0  0  2  0  0  0  0  0  0
   14.1770   -0.7440    7.2780 H   0  0  0  0  0  0  0  0  0  0  0  0
   11.0640    5.2990   10.9350 S   0  0  0  0  0  0  0  0  0  0  0  0
   11.9210    6.5440   10.8870 O   0  0  0  0  0  0  0  0  0  0  0  0
   10.5820    5.0540    9.5360 O   0  0  0  0  0  0  0  0  0  0  0  0
    9.6710    5.6890   11.9180 C   0  0  0  0  0  0  0  0  0  0  0  0
    9.7610    5.9780   13.2690 C   0  0  0  0  0  3  0  0  0  0  0  0
    8.6220    6.2810   13.9990 C   0  0  0  0  0  0  0  0  0  0  0  0
    7.3700    6.3090   13.4310 C   0  0  0  0  0  0  0  0  0  0  0  0
    8.7560    6.6440   15.7090 Cl  0  0  0  0  0  0  0  0  0  0  0  0
    7.2780    6.0220   12.0860 C   0  0  0  0  0  3  0  0  0  0  0  0
    8.4100    5.7210   11.3600 C   0  0  0  0  0  3  0  0  0  0  0  0
    6.2300    6.6180   14.1900 O   0  0  0  0  0  0  0  0  0  0  0  0
    5.7190    7.9380   14.1800 C   0  0  0  0  0  1  0  0  0  0  0  0
  1 14  1  0  0  0  0
  2  1  1  0  0  0  0
  3  2  1  0  0  0  0
  4  5  1  0  0  0  0
  4  3  1  6  0  0  0
  5 14  1  0  0  0  0
  6  5  2  0  0  0  0
  7 11  1  1  0  0  0
  7  6  1  0  0  0  0
  8  7  1  0  0  0  0
  8 12  1  0  0  0  0
  9  8  1  0  0  0  0
 10  9  1  0  0  0  0
 10 11  2  0  0  0  0
 12  4  1  0  0  0  0
 13 12  2  0  0  0  0
 15  9  1  0  0  0  0
 16  1  1  0  0  0  0
 16 19  1  0  0  0  0
 17 16  2  0  0  0  0
 18 16  2  0  0  0  0
 19 20  1  0  0  0  0
 20 21  2  0  0  0  0
 21 23  1  0  0  0  0
 22 21  1  0  0  0  0
 22 26  1  0  0  0  0
 24 22  2  0  0  0  0
 25 19  2  0  0  0  0
 25 24  1  0  0  0  0
 27 26  1  0  0  0  0
M  END
>  <Pose>
1

>  <Score>
-8.933

$$$$
