/Users/jonathanwahrer/Desktop/Msc/3_Semester/Drug_Design_Praktikum/waehrer_HTS_screening/HTS_experiment/out/docking_results/vina_output/2jam/2270_docked.pdbqt
 OpenBabel03162218593D

 22 24  0  0  1  0  0  0  0  0999 V2000
   11.2230    3.1360   11.7270 C   0  0  0  0  0  0  0  0  0  0  0  0
   11.3630    2.7600   12.9250 O   0  0  0  0  0  0  0  0  0  0  0  0
   10.9190    4.4940   11.4040 N   0  0  0  0  0  0  0  0  0  0  0  0
   10.8150    4.7480   10.4220 H   0  0  0  0  0  0  0  0  0  0  0  0
   11.3720    2.1690   10.6690 C   0  0  0  0  0  0  0  0  0  0  0  0
   12.6670    1.9040   10.2100 C   0  0  0  0  0  3  0  0  0  0  0  0
   12.9380    1.0050    9.2040 C   0  0  0  0  0  0  0  0  0  0  0  0
   11.8860    0.3320    8.6200 C   0  0  0  0  0  0  0  0  0  0  0  0
   12.2080   -0.8240    7.3300 Cl  0  0  0  0  0  0  0  0  0  0  0  0
   10.5940    0.5800    9.0600 C   0  0  0  0  0  3  0  0  0  0  0  0
   10.3370    1.4980   10.0850 C   0  0  0  0  0  3  0  0  0  0  0  0
   14.2340    0.7630    8.7690 O   0  0  0  0  0  0  0  0  0  0  0  0
   15.0480    1.8040    8.2630 C   0  0  0  0  0  1  0  0  0  0  0  0
   10.7790    5.4240   12.4840 C   0  0  0  0  0  2  0  0  0  0  0  0
    9.4120    5.8680   12.8210 C   0  0  2  0  0  3  0  0  0  0  0  0
    8.6970    6.6110   11.8290 N   0  0  1  0  0  0  0  0  0  0  0  0
    7.2910    6.1540   11.9450 C   0  0  0  0  0  2  0  0  0  0  0  0
    8.6050    8.0350   12.0810 C   0  0  0  0  0  2  0  0  0  0  0  0
    7.0150    6.1920   13.4530 C   0  0  0  0  0  2  0  0  0  0  0  0
    7.9010    7.1060   14.1470 N   0  0  1  0  0  0  0  0  0  0  0  0
    9.2920    6.6470   14.1210 C   0  0  0  0  0  2  0  0  0  0  0  0
    7.8960    8.3470   13.3930 C   0  0  0  0  0  2  0  0  0  0  0  0
  1  2  2  0  0  0  0
  3  1  1  0  0  0  0
  3 14  1  0  0  0  0
  4  3  1  0  0  0  0
  5  1  1  0  0  0  0
  6  5  1  0  0  0  0
  7  6  2  0  0  0  0
  8 10  2  0  0  0  0
  8  7  1  0  0  0  0
  9  8  1  0  0  0  0
 10 11  1  0  0  0  0
 11  5  2  0  0  0  0
 12  7  1  0  0  0  0
 13 12  1  0  0  0  0
 15 14  1  6  0  0  0
 15 21  1  0  0  0  0
 16 17  1  1  0  0  0
 16 18  1  0  0  0  0
 16 15  1  0  0  0  0
 17 19  1  0  0  0  0
 18 22  1  0  0  0  0
 19 20  1  0  0  0  0
 20 22  1  6  0  0  0
 21 20  1  0  0  0  0
M  END
>  <Pose>
1

>  <Score>
-7.366

$$$$
