/Users/jonathanwahrer/Desktop/Msc/3_Semester/Drug_Design_Praktikum/waehrer_HTS_screening/HTS_experiment/out/docking_results/vina_output/2jam/2276_docked.pdbqt
 OpenBabel03162219003D

 21 24  0  0  1  0  0  0  0  0999 V2000
   14.7070    1.0930   10.1340 Cl  0  0  0  0  0  0  0  0  0  0  0  0
   13.2810    2.0810   10.3830 C   0  0  0  0  0  0  0  0  0  0  0  0
   12.0520    1.5290   10.0900 C   0  0  0  0  0  0  0  0  0  0  0  0
   10.9580    2.3760   10.3070 C   0  0  0  0  0  0  0  0  0  0  0  0
    9.8220    1.9270   10.0580 O   0  0  0  0  0  0  0  0  0  0  0  0
   11.1230    3.6220   10.7660 N   0  0  0  0  0  0  0  0  0  0  0  0
   12.3070    4.1450   11.0460 N   0  0  0  0  0  0  0  0  0  0  0  0
   12.3090    5.5140   11.5440 C   0  0  1  0  0  3  0  0  0  0  0  0
   11.6040    6.3540   10.4950 C   0  0  1  0  0  3  0  0  0  0  0  0
   10.3100    5.7620   10.1370 C   0  0  1  0  0  3  0  0  0  0  0  0
    9.9960    4.5280   10.9940 C   0  0  2  0  0  3  0  0  0  0  0  0
   10.1620    4.9700   12.4220 C   0  0  0  0  0  2  0  0  0  0  0  0
   11.3490    5.4770   12.7100 C   0  0  0  0  0  2  0  0  0  0  0  0
   10.3840    7.1180   10.8530 C   0  0  0  0  0  2  0  0  0  0  0  0
   13.3810    3.3860   10.8580 C   0  0  0  0  0  0  0  0  0  0  0  0
   14.5100    3.8740   11.1210 O   0  0  0  0  0  0  0  0  0  0  0  0
   11.8600    0.2030    9.6050 N   0  0  0  0  0  0  0  0  0  0  0  0
   11.9150   -0.5460   10.3270 H   0  0  0  0  0  0  0  0  0  0  0  0
   11.6090   -0.1510    8.2550 C   0  0  0  0  0  3  0  0  0  0  0  0
   12.7930   -0.7320    7.5260 C   0  0  0  0  0  1  0  0  0  0  0  0
   10.4730   -1.1530    8.0990 C   0  0  0  0  0  1  0  0  0  0  0  0
  1  2  1  0  0  0  0
  2 15  1  0  0  0  0
  3  4  1  0  0  0  0
  3  2  2  0  0  0  0
  4  6  1  0  0  0  0
  5  4  2  0  0  0  0
  6 11  1  0  0  0  0
  6  7  1  0  0  0  0
  7  8  1  0  0  0  0
  8 13  1  1  0  0  0
  9 14  1  1  0  0  0
  9  8  1  0  0  0  0
 10  9  1  0  0  0  0
 10 14  1  1  0  0  0
 10 11  1  0  0  0  0
 11 12  1  1  0  0  0
 12 13  1  0  0  0  0
 15  7  1  0  0  0  0
 15 16  2  0  0  0  0
 17  3  1  0  0  0  0
 17 18  1  0  0  0  0
 19 17  1  0  0  0  0
 20 19  1  0  0  0  0
 21 19  1  0  0  0  0
M  END
>  <Pose>
1

>  <Score>
-6.874

$$$$
