/Users/jonathanwahrer/Desktop/Msc/3_Semester/Drug_Design_Praktikum/waehrer_HTS_screening/HTS_experiment/out/docking_results/vina_output/2jam/2281_docked.pdbqt
 OpenBabel03162219003D

 34 37  0  0  1  0  0  0  0  0999 V2000
    6.8230    7.6420   13.0060 N   0  0  0  0  0  0  0  0  0  0  0  0
    6.7610    6.3440   12.4800 C   0  0  0  0  0  2  0  0  0  0  0  0
    8.1510    6.0570   11.8020 C   0  0  0  0  0  2  0  0  0  0  0  0
    9.1730    6.9460   12.0520 N   0  0  0  0  0  0  0  0  0  0  0  0
    8.8590    8.3120   12.3720 C   0  0  0  0  0  2  0  0  0  0  0  0
    7.3770    8.6220   11.9780 C   0  0  0  0  0  2  0  0  0  0  0  0
    6.6770    8.1970   14.2670 C   0  0  2  0  0  3  0  0  0  0  0  0
    7.0360    7.6600   15.4250 C   0  0  1  0  0  3  0  0  0  0  0  0
    8.2450    6.3150   15.3730 Cl  0  0  0  0  0  0  0  0  0  0  0  0
    6.5530    8.0800   16.6650 C   0  0  0  0  0  0  0  0  0  0  0  0
    5.7030    9.0690   16.7070 N   0  0  0  0  0  0  0  0  0  0  0  0
    6.9660    7.4500   17.6970 O   0  0  0  0  0  0  0  0  0  0  0  0
    5.3220    9.6590   15.5440 N   0  0  0  0  0  0  0  0  0  0  0  0
    5.7240    9.3280   14.3750 C   0  0  0  0  0  3  0  0  0  0  0  0
    4.9300    9.4070   17.9000 C   0  0  0  0  0  0  0  0  0  0  0  0
    5.4450   10.1230   18.9320 C   0  0  0  0  0  3  0  0  0  0  0  0
    4.6580   10.5300   19.9870 C   0  0  0  0  0  3  0  0  0  0  0  0
    3.3000   10.2170   20.0240 C   0  0  0  0  0  3  0  0  0  0  0  0
    2.8000    9.4740   18.9540 C   0  0  0  0  0  3  0  0  0  0  0  0
    3.5840    9.0880   17.9380 C   0  0  0  0  0  3  0  0  0  0  0  0
   10.1640    7.1070   10.9360 C   0  0  0  0  0  2  0  0  0  0  0  0
   11.1490    6.0370   10.9950 C   0  0  0  0  0  0  0  0  0  0  0  0
   11.8810    5.6670   11.7530 O   0  0  0  0  0  0  0  0  0  0  0  0
   11.1380    5.1590    9.5300 N   0  0  0  0  0  0  0  0  0  0  0  0
   11.9350    4.0050   10.0770 C   0  0  0  0  0  0  0  0  0  0  0  0
   10.7300    5.7550    9.2540 H   0  0  0  0  0  0  0  0  0  0  0  0
   12.7830    4.0790   10.9230 O   0  0  0  0  0  0  0  0  0  0  0  0
   11.5230    2.7720    9.4470 N   0  0  0  0  0  0  0  0  0  0  0  0
   10.7770    2.8790    8.6820 H   0  0  0  0  0  0  0  0  0  0  0  0
   12.0040    1.4670    9.7060 C   0  0  0  0  0  3  0  0  0  0  0  0
   11.1640    0.3000    9.3830 C   0  0  0  0  0  2  0  0  0  0  0  0
   11.5200   -0.1420    7.9600 C   0  0  0  0  0  2  0  0  0  0  0  0
   12.9940    0.1840    7.9120 C   0  0  0  0  0  2  0  0  0  0  0  0
   13.2470    1.3180    8.8050 C   0  0  0  0  0  2  0  0  0  0  0  0
  2  1  1  0  0  0  0
  3  4  1  0  0  0  0
  3  2  1  0  0  0  0
  4  5  1  0  0  0  0
  6  5  1  0  0  0  0
  6  1  1  0  0  0  0
  7  1  1  6  0  0  0
  7 14  1  0  0  0  0
  7  8  1  0  0  0  0
  8  9  1  1  0  0  0
  8 10  1  0  0  0  0
 10 11  1  0  0  0  0
 10 12  2  0  0  0  0
 11 15  1  0  0  0  0
 13 11  1  0  0  0  0
 14 13  2  0  0  0  0
 15 20  2  0  0  0  0
 15 16  1  0  0  0  0
 16 17  2  0  0  0  0
 17 18  1  0  0  0  0
 19 18  2  0  0  0  0
 20 19  1  0  0  0  0
 21 22  1  0  0  0  0
 21  4  1  0  0  0  0
 22 23  2  0  0  0  0
 24 25  1  0  0  0  0
 24 22  1  0  0  0  0
 25 27  2  0  0  0  0
 26 24  1  0  0  0  0
 28 30  1  0  0  0  0
 28 25  1  0  0  0  0
 29 28  1  0  0  0  0
 31 30  1  0  0  0  0
 32 31  1  0  0  0  0
 33 32  1  0  0  0  0
 33 34  1  0  0  0  0
 34 30  1  0  0  0  0
M  END
>  <Pose>
1

>  <Score>
-9.062

$$$$
