/Users/jonathanwahrer/Desktop/Msc/3_Semester/Drug_Design_Praktikum/waehrer_HTS_screening/HTS_experiment/out/docking_results/vina_output/2jam/2284_docked.pdbqt
 OpenBabel03162219013D

 33 37  0  0  0  0  0  0  0  0999 V2000
   10.7490    7.0030   13.2260 C   0  0  0  0  0  0  0  0  0  0  0  0
    9.6390    6.7550   12.4440 C   0  0  0  0  0  3  0  0  0  0  0  0
    9.5420    5.7360   11.5300 C   0  0  0  0  0  0  0  0  0  0  0  0
    8.4620    5.6060   10.8650 O   0  0  0  0  0  0  0  0  0  0  0  0
   10.5970    4.8870   11.3540 N   0  0  0  0  0  0  0  0  0  0  0  0
   10.6350    3.9060   10.5430 N   0  0  0  0  0  0  0  0  0  0  0  0
   11.6750    3.1340   10.4260 C   0  0  0  0  0  0  0  0  0  0  0  0
   12.7160    3.8740   11.5880 S   0  0  0  0  0  0  0  0  0  0  0  0
   11.6680    5.1290   12.1120 C   0  0  0  0  0  0  0  0  0  0  0  0
   11.7600    6.1350   13.0100 N   0  0  0  0  0  0  0  0  0  0  0  0
   10.8030    8.1200   14.1990 C   0  0  0  0  0  2  0  0  0  0  0  0
    9.5320    8.7710   14.2220 N   0  0  0  0  0  0  0  0  0  0  0  0
    9.5110   10.1310   13.8580 C   0  0  0  0  0  2  0  0  0  0  0  0
    8.0700   10.5250   13.5160 C   0  0  0  0  0  2  0  0  0  0  0  0
    7.1960   10.1380   14.5360 N   0  0  0  0  0  0  0  0  0  0  0  0
    7.8270    9.6230   15.6780 C   0  0  0  0  0  2  0  0  0  0  0  0
    8.6920    8.4390   15.3090 C   0  0  0  0  0  2  0  0  0  0  0  0
    5.5980    9.8130   14.2290 S   0  0  0  0  0  0  0  0  0  0  0  0
    4.9080   11.1100   13.8180 O   0  0  0  0  0  0  0  0  0  0  0  0
    4.8890    9.2160   15.4170 O   0  0  0  0  0  0  0  0  0  0  0  0
    5.4220    8.7400   12.8580 C   0  0  0  0  0  0  0  0  0  0  0  0
    4.5690    8.8930   11.8070 N   0  0  0  0  0  0  0  0  0  0  0  0
    4.7050    7.8780   10.9510 C   0  0  0  0  0  3  0  0  0  0  0  0
    5.6420    7.0340   11.4030 N   0  0  0  0  0  0  0  0  0  0  0  0
    6.0800    7.5670   12.5770 C   0  0  0  0  0  3  0  0  0  0  0  0
    5.9610    6.1610   10.9520 H   0  0  0  0  0  0  0  0  0  0  0  0
   11.9410    1.9680    9.5750 C   0  0  0  0  0  0  0  0  0  0  0  0
   10.8970    1.1260    9.2610 C   0  0  0  0  0  3  0  0  0  0  0  0
   11.0830    0.0070    8.4610 C   0  0  0  0  0  3  0  0  0  0  0  0
   12.3380   -0.2770    7.9630 C   0  0  0  0  0  0  0  0  0  0  0  0
   13.4030    0.5550    8.2650 C   0  0  0  0  0  3  0  0  0  0  0  0
   12.5870   -1.6710    6.9620 Cl  0  0  0  0  0  0  0  0  0  0  0  0
   13.1680    1.6510    9.0630 C   0  0  0  0  0  3  0  0  0  0  0  0
  1 11  1  0  0  0  0
  2  1  2  0  0  0  0
  3  2  1  0  0  0  0
  4  3  2  0  0  0  0
  5  3  1  0  0  0  0
  5  9  1  0  0  0  0
  6  5  1  0  0  0  0
  7  6  2  0  0  0  0
  7  8  1  0  0  0  0
  8  9  1  0  0  0  0
  9 10  2  0  0  0  0
 10  1  1  0  0  0  0
 11 12  1  0  0  0  0
 12 17  1  0  0  0  0
 13 12  1  0  0  0  0
 14 13  1  0  0  0  0
 14 15  1  0  0  0  0
 15 16  1  0  0  0  0
 17 16  1  0  0  0  0
 18 15  1  0  0  0  0
 18 20  2  0  0  0  0
 19 18  2  0  0  0  0
 21 18  1  0  0  0  0
 22 21  1  0  0  0  0
 23 24  1  0  0  0  0
 23 22  2  0  0  0  0
 24 25  1  0  0  0  0
 25 21  2  0  0  0  0
 26 24  1  0  0  0  0
 27  7  1  0  0  0  0
 28 27  1  0  0  0  0
 29 28  2  0  0  0  0
 30 31  2  0  0  0  0
 30 29  1  0  0  0  0
 31 33  1  0  0  0  0
 32 30  1  0  0  0  0
 33 27  2  0  0  0  0
M  END
>  <Pose>
1

>  <Score>
-9.027

$$$$
