/Users/jonathanwahrer/Desktop/Msc/3_Semester/Drug_Design_Praktikum/waehrer_HTS_screening/HTS_experiment/out/docking_results/vina_output/2jam/2286_docked.pdbqt
 OpenBabel03162219023D

 31 34  0  0  0  0  0  0  0  0999 V2000
   11.8870    5.3110   10.7240 N   0  0  0  0  0  0  0  0  0  0  0  0
   10.8200    5.2570    9.7920 C   0  0  0  0  0  2  0  0  0  0  0  0
    9.4610    5.4960   10.3940 C   0  0  0  0  0  2  0  0  0  0  0  0
    9.4860    6.5300   11.4070 N   0  0  0  0  0  0  0  0  0  0  0  0
   10.7000    7.3200   11.4840 C   0  0  0  0  0  2  0  0  0  0  0  0
   11.9280    6.4480   11.5720 C   0  0  0  0  0  2  0  0  0  0  0  0
    8.3760    6.7140   12.2410 C   0  0  0  0  0  0  0  0  0  0  0  0
    7.3720    5.9770   12.0930 O   0  0  0  0  0  0  0  0  0  0  0  0
    8.3390    7.7560   13.3000 C   0  0  0  0  0  2  0  0  0  0  0  0
    7.0100    7.9740   13.7990 N   0  0  0  0  0  0  0  0  0  0  0  0
    5.9650    8.5880   13.0600 C   0  0  0  0  0  0  0  0  0  0  0  0
    6.0780    9.0200   11.8640 O   0  0  0  0  0  0  0  0  0  0  0  0
    4.7640    8.6660   13.8170 N   0  0  0  0  0  0  0  0  0  0  0  0
    5.1010    8.2890   15.1770 C   0  0  0  0  0  0  0  0  0  0  0  0
    3.4520    9.0530   13.2980 C   0  0  0  0  0  1  0  0  0  0  0  0
    4.1550    7.2670   15.7360 C   0  0  0  0  0  2  0  0  0  0  0  0
    5.1500    9.5620   15.9890 C   0  0  0  0  0  2  0  0  0  0  0  0
    6.4400    7.6580   15.0620 C   0  0  0  0  0  0  0  0  0  0  0  0
    2.9110    7.8560   16.3330 C   0  0  0  0  0  2  0  0  0  0  0  0
    3.1750    8.9700   17.3020 C   0  0  0  0  0  2  0  0  0  0  0  0
    4.6440    9.3220   17.3940 C   0  0  0  0  0  2  0  0  0  0  0  0
    7.0130    6.9490   15.9220 O   0  0  0  0  0  0  0  0  0  0  0  0
   12.2280    3.8320   11.5140 S   0  0  0  0  0  0  0  0  0  0  0  0
   11.3260    3.6860   12.7010 O   0  0  0  0  0  0  0  0  0  0  0  0
   13.6470    3.7860   11.9990 O   0  0  0  0  0  0  0  0  0  0  0  0
   12.0220    2.4490   10.4260 C   0  0  0  0  0  0  0  0  0  0  0  0
   13.1690    1.7180    9.4080 S   0  0  0  0  0  0  0  0  0  0  0  0
   12.1980    0.5000    8.7260 C   0  0  0  0  0  0  0  0  0  0  0  0
   10.9800    0.6960    9.3200 C   0  0  0  0  0  3  0  0  0  0  0  0
   12.6250   -0.7430    7.5310 Cl  0  0  0  0  0  0  0  0  0  0  0  0
   10.8890    1.7130   10.2070 C   0  0  0  0  0  3  0  0  0  0  0  0
  1 23  1  0  0  0  0
  1  6  1  0  0  0  0
  2  3  1  0  0  0  0
  2  1  1  0  0  0  0
  3  4  1  0  0  0  0
  4  5  1  0  0  0  0
  4  7  1  0  0  0  0
  5  6  1  0  0  0  0
  7  9  1  0  0  0  0
  8  7  2  0  0  0  0
  9 10  1  0  0  0  0
 10 18  1  0  0  0  0
 11 10  1  0  0  0  0
 11 13  1  0  0  0  0
 12 11  2  0  0  0  0
 13 14  1  0  0  0  0
 14 16  1  0  0  0  0
 14 17  1  0  0  0  0
 15 13  1  0  0  0  0
 16 19  1  0  0  0  0
 17 21  1  0  0  0  0
 18 14  1  0  0  0  0
 18 22  2  0  0  0  0
 19 20  1  0  0  0  0
 20 21  1  0  0  0  0
 23 25  2  0  0  0  0
 23 24  2  0  0  0  0
 26 23  1  0  0  0  0
 27 26  1  0  0  0  0
 28 29  2  0  0  0  0
 28 27  1  0  0  0  0
 29 31  1  0  0  0  0
 30 28  1  0  0  0  0
 31 26  2  0  0  0  0
M  END
>  <Pose>
1

>  <Score>
-9.317

$$$$
