/Users/jonathanwahrer/Desktop/Msc/3_Semester/Drug_Design_Praktikum/waehrer_HTS_screening/HTS_experiment/out/docking_results/vina_output/2jam/2301_docked.pdbqt
 OpenBabel03162219023D

 24 27  0  0  1  0  0  0  0  0999 V2000
   11.0920    5.7580   12.2900 C   0  0  2  0  0  0  0  0  0  0  0  0
    9.9270    5.7330   13.2230 C   0  0  0  0  0  2  0  0  0  0  0  0
    8.6140    5.9530   12.4520 C   0  0  0  0  0  2  0  0  0  0  0  0
    8.7610    7.3260   11.9480 N   0  0  0  0  0  0  0  0  0  0  0  0
    9.7980    7.4940   10.9790 C   0  0  0  0  0  2  0  0  0  0  0  0
   11.1290    6.9600   11.4220 C   0  0  0  0  0  2  0  0  0  0  0  0
   11.1890    4.4680   11.5870 C   0  0  0  0  0  0  0  0  0  0  0  0
   10.5270    4.1310   10.4420 C   0  0  0  0  0  3  0  0  0  0  0  0
   10.7120    2.8910    9.8970 C   0  0  0  0  0  3  0  0  0  0  0  0
   11.5480    1.9250   10.4400 C   0  0  0  0  0  0  0  0  0  0  0  0
   11.7610    0.3530    9.6990 Cl  0  0  0  0  0  0  0  0  0  0  0  0
   12.2090    2.2710   11.5930 C   0  0  0  0  0  3  0  0  0  0  0  0
   12.0350    3.5190   12.1590 C   0  0  0  0  0  3  0  0  0  0  0  0
   12.2430    5.8020   13.1180 O   0  0  0  0  0  0  0  0  0  0  0  0
   13.0380    5.8400   12.5010 H   0  0  0  0  0  0  0  0  0  0  0  0
    7.8980    8.3310   12.4460 C   0  0  0  0  0  0  0  0  0  0  0  0
    6.5910    8.0630   12.6080 N   0  0  0  0  0  0  0  0  0  0  0  0
    5.6920    8.9080   13.0720 N   0  0  0  0  0  0  0  0  0  0  0  0
    4.3790    8.8550   13.3140 N   0  0  0  0  0  0  0  0  0  0  0  0
    6.0700   10.1370   13.4190 C   0  0  0  0  0  0  0  0  0  0  0  0
    3.9490   10.0020   13.7900 N   0  0  0  0  0  0  0  0  0  0  0  0
    4.9760   10.8040   13.8630 N   0  0  0  0  0  0  0  0  0  0  0  0
    7.4020   10.4880   13.2800 C   0  0  0  0  0  3  0  0  0  0  0  0
    8.3280    9.5900   12.7920 C   0  0  0  0  0  3  0  0  0  0  0  0
  1 14  1  1  0  0  0
  1  2  1  0  0  0  0
  3  2  1  0  0  0  0
  4 16  1  0  0  0  0
  4  3  1  0  0  0  0
  5  6  1  0  0  0  0
  5  4  1  0  0  0  0
  6  1  1  0  0  0  0
  7 13  1  0  0  0  0
  7  1  1  0  0  0  0
  8  7  2  0  0  0  0
  9 10  2  0  0  0  0
  9  8  1  0  0  0  0
 10 12  1  0  0  0  0
 11 10  1  0  0  0  0
 12 13  2  0  0  0  0
 15 14  1  0  0  0  0
 16 17  2  0  0  0  0
 16 24  1  0  0  0  0
 17 18  1  0  0  0  0
 18 19  1  0  0  0  0
 18 20  1  0  0  0  0
 19 21  2  0  0  0  0
 20 22  2  0  0  0  0
 21 22  1  0  0  0  0
 23 20  1  0  0  0  0
 24 23  2  0  0  0  0
M  END
>  <Pose>
1

>  <Score>
-8.478

$$$$
