/Users/jonathanwahrer/Desktop/Msc/3_Semester/Drug_Design_Praktikum/waehrer_HTS_screening/HTS_experiment/out/docking_results/vina_output/2jam/2330_docked.pdbqt
 OpenBabel03162219033D

 28 31  0  0  0  0  0  0  0  0999 V2000
   11.4570    3.3070   11.7900 C   0  0  0  0  0  0  0  0  0  0  0  0
   11.3140    2.9400   12.9790 O   0  0  0  0  0  0  0  0  0  0  0  0
   11.1850    4.6320   11.4460 N   0  0  0  0  0  0  0  0  0  0  0  0
   11.3520    4.8460   10.3980 H   0  0  0  0  0  0  0  0  0  0  0  0
   11.9120    2.2920   10.8220 C   0  0  0  0  0  0  0  0  0  0  0  0
   13.2480    2.1030   10.5360 C   0  0  0  0  0  0  0  0  0  0  0  0
   14.4100    3.1220   11.3720 Cl  0  0  0  0  0  0  0  0  0  0  0  0
   13.6770    1.1450    9.6210 C   0  0  0  0  0  3  0  0  0  0  0  0
   12.7400    0.3710    8.9890 C   0  0  0  0  0  3  0  0  0  0  0  0
   11.3730    0.5230    9.2450 C   0  0  0  0  0  0  0  0  0  0  0  0
   11.0170    1.4830   10.1550 C   0  0  0  0  0  3  0  0  0  0  0  0
   10.4100   -0.3200    8.5510 C   0  0  0  0  0  0  0  0  0  0  0  0
   10.6100   -1.2220    7.5860 N   0  0  0  0  0  0  0  0  0  0  0  0
    9.4300   -1.7650    7.2440 N   0  0  0  0  0  0  0  0  0  0  0  0
    8.4900   -1.2100    7.9880 N   0  0  0  0  0  0  0  0  0  0  0  0
    9.2620   -2.4980    6.5180 H   0  0  0  0  0  0  0  0  0  0  0  0
    9.0890   -0.3260    8.7900 N   0  0  0  0  0  0  0  0  0  0  0  0
   10.7380    5.7180   12.2190 C   0  0  0  0  0  2  0  0  0  0  0  0
   10.0890    6.8780   11.5950 C   0  0  0  0  0  2  0  0  0  0  0  0
    8.6440    7.0500   11.7150 C   0  0  0  0  0  0  0  0  0  0  0  0
    7.9820    8.1160   12.1780 N   0  0  0  0  0  0  0  0  0  0  0  0
    6.6850    7.8770   12.0760 C   0  0  0  0  0  0  0  0  0  0  0  0
    8.4170    9.2870   12.6830 C   0  0  0  0  0  3  0  0  0  0  0  0
    6.5360    6.6550   11.5480 N   0  0  0  0  0  0  0  0  0  0  0  0
    5.7300    8.7890   12.4720 C   0  0  0  0  0  3  0  0  0  0  0  0
    7.7240    6.1580   11.3310 N   0  0  0  0  0  0  0  0  0  0  0  0
    6.1760    9.9900   12.9910 C   0  0  0  0  0  3  0  0  0  0  0  0
    7.5190   10.2280   13.0930 C   0  0  0  0  0  3  0  0  0  0  0  0
  1  2  2  0  0  0  0
  3  1  1  0  0  0  0
  3 18  1  0  0  0  0
  4  3  1  0  0  0  0
  5  1  1  0  0  0  0
  6  5  1  0  0  0  0
  6  7  1  0  0  0  0
  8  6  2  0  0  0  0
  9 10  2  0  0  0  0
  9  8  1  0  0  0  0
 10 11  1  0  0  0  0
 11  5  2  0  0  0  0
 12 17  1  0  0  0  0
 12 10  1  0  0  0  0
 13 12  2  0  0  0  0
 14 13  1  0  0  0  0
 14 15  1  0  0  0  0
 15 17  2  0  0  0  0
 16 14  1  0  0  0  0
 19 20  1  0  0  0  0
 19 18  1  0  0  0  0
 20 21  1  0  0  0  0
 21 23  1  0  0  0  0
 22 21  1  0  0  0  0
 22 25  1  0  0  0  0
 23 28  2  0  0  0  0
 24 22  2  0  0  0  0
 25 27  2  0  0  0  0
 26 24  1  0  0  0  0
 26 20  2  0  0  0  0
 27 28  1  0  0  0  0
M  END
>  <Pose>
1

>  <Score>
-9.343

$$$$
