/Users/jonathanwahrer/Desktop/Msc/3_Semester/Drug_Design_Praktikum/waehrer_HTS_screening/HTS_experiment/out/docking_results/vina_output/2jam/2334_docked.pdbqt
 OpenBabel03162219033D

 30 33  0  0  1  0  0  0  0  0999 V2000
   11.1020    5.9610   10.5130 S   0  0  0  0  0  0  0  0  0  0  0  0
   12.5160    6.5070   10.2990 O   0  0  0  0  0  0  0  0  0  0  0  0
   10.3950    6.2280    9.1790 O   0  0  0  0  0  0  0  0  0  0  0  0
   11.2630    4.2920   10.7630 N   0  0  0  0  0  0  0  0  0  0  0  0
   11.9620    3.5620    9.7670 C   0  0  0  0  0  2  0  0  0  0  0  0
   12.0880    2.0900   10.0830 C   0  0  1  0  0  3  0  0  0  0  0  0
   12.7250    1.8970   11.4160 C   0  0  0  0  0  2  0  0  0  0  0  0
   12.0560    2.7400   12.4870 C   0  0  0  0  0  2  0  0  0  0  0  0
   12.0130    4.1560   12.0280 C   0  0  0  0  0  2  0  0  0  0  0  0
   10.8490    1.3160    9.8640 C   0  0  0  0  0  0  0  0  0  0  0  0
    9.7740    1.8760   10.2940 O   0  0  0  0  0  0  0  0  0  0  0  0
   10.7220    0.0770    9.2530 N   0  0  0  0  0  0  0  0  0  0  0  0
    9.4490   -0.5470    9.0720 C   0  0  0  0  0  2  0  0  0  0  0  0
   11.8680   -0.6610    8.7810 C   0  0  0  0  0  2  0  0  0  0  0  0
    9.3310   -1.3180    7.7860 C   0  0  0  0  0  2  0  0  0  0  0  0
   10.5040   -1.7480    7.2500 O   0  0  0  0  0  0  0  0  0  0  0  0
   11.5650   -0.8680    7.2880 C   0  0  0  0  0  2  0  0  0  0  0  0
   10.3030    6.8700   11.7250 C   0  0  0  0  0  0  0  0  0  0  0  0
   10.9600    7.4060   12.8060 C   0  0  0  0  0  0  0  0  0  0  0  0
   10.2680    8.1880   13.7190 C   0  0  0  0  0  3  0  0  0  0  0  0
   12.6460    7.0940   13.1610 Cl  0  0  0  0  0  0  0  0  0  0  0  0
    8.9030    8.4460   13.5690 C   0  0  0  0  0  3  0  0  0  0  0  0
    8.2320    7.9130   12.4920 C   0  0  0  0  0  0  0  0  0  0  0  0
    8.9350    7.1410   11.5980 C   0  0  0  0  0  3  0  0  0  0  0  0
    6.8080    8.1650   12.3130 C   0  0  0  0  0  0  0  0  0  0  0  0
    6.1300    8.0930   11.1550 N   0  0  0  0  0  0  0  0  0  0  0  0
    4.8740    8.3810   11.3570 O   0  0  0  0  0  0  0  0  0  0  0  0
    4.6960    8.6420   12.6250 C   0  0  0  0  0  0  0  0  0  0  0  0
    5.8920    8.5120   13.2310 N   0  0  0  0  0  0  0  0  0  0  0  0
    3.4040    9.0200   13.2960 C   0  0  0  0  0  1  0  0  0  0  0  0
  1  4  1  0  0  0  0
  1 18  1  0  0  0  0
  2  1  2  0  0  0  0
  3  1  2  0  0  0  0
  4  9  1  0  0  0  0
  5  6  1  0  0  0  0
  5  4  1  0  0  0  0
  6 10  1  1  0  0  0
  6  7  1  0  0  0  0
  7  8  1  0  0  0  0
  9  8  1  0  0  0  0
 10 11  2  0  0  0  0
 12 10  1  0  0  0  0
 13 12  1  0  0  0  0
 14 12  1  0  0  0  0
 15 13  1  0  0  0  0
 16 17  1  0  0  0  0
 16 15  1  0  0  0  0
 17 14  1  0  0  0  0
 18 19  1  0  0  0  0
 19 21  1  0  0  0  0
 19 20  2  0  0  0  0
 22 20  1  0  0  0  0
 23 22  2  0  0  0  0
 24 18  2  0  0  0  0
 24 23  1  0  0  0  0
 25 23  1  0  0  0  0
 25 29  1  0  0  0  0
 26 27  1  0  0  0  0
 26 25  2  0  0  0  0
 27 28  1  0  0  0  0
 28 29  2  0  0  0  0
 28 30  1  0  0  0  0
M  END
>  <Pose>
1

>  <Score>
-9.475

$$$$
