/Users/jonathanwahrer/Desktop/Msc/3_Semester/Drug_Design_Praktikum/waehrer_HTS_screening/HTS_experiment/out/docking_results/vina_output/2jam/2335_docked.pdbqt
 OpenBabel03162219043D

 35 38  0  0  1  0  0  0  0  0999 V2000
    9.3610    6.7620   12.8550 N   0  0  0  0  0  0  0  0  0  0  0  0
    8.5800    7.9280   12.9840 C   0  0  0  0  0  2  0  0  0  0  0  0
    9.2730    9.0420   13.7380 C   0  0  2  0  0  3  0  0  0  0  0  0
   10.2810    8.5770   14.7180 C   0  0  0  0  0  2  0  0  0  0  0  0
   10.2280    7.1470   15.1150 C   0  0  0  0  0  3  0  0  0  0  0  0
    9.8650    6.1780   14.0190 C   0  0  0  0  0  3  0  0  0  0  0  0
    9.7170    6.1630   11.3460 S   0  0  0  0  0  0  0  0  0  0  0  0
    9.7210    7.3200   10.3490 O   0  0  0  0  0  0  0  0  0  0  0  0
    8.5510    5.2980   10.8830 O   0  0  0  0  0  0  0  0  0  0  0  0
   11.1670    5.2400   11.1960 C   0  0  0  0  0  0  0  0  0  0  0  0
   11.1070    3.8930   10.8750 C   0  0  0  0  0  3  0  0  0  0  0  0
   12.2320    3.1170   10.7300 C   0  0  0  0  0  0  0  0  0  0  0  0
   13.4870    3.7080   10.9150 C   0  0  0  0  0  0  0  0  0  0  0  0
   12.4950    1.7590   10.4080 N   0  0  0  0  0  0  0  0  0  0  0  0
   13.5360    5.0260   11.2290 C   0  0  0  0  0  3  0  0  0  0  0  0
   14.5660    2.7030   10.7150 C   0  0  0  0  0  2  0  0  0  0  0  0
   12.4010    5.8070   11.3740 C   0  0  0  0  0  0  0  0  0  0  0  0
   12.5950    7.6730   11.8270 Br  0  0  0  0  0  0  0  0  0  0  0  0
   13.8180    1.4050   10.9360 C   0  0  0  0  0  2  0  0  0  0  0  0
   11.6840    0.8640    9.7120 C   0  0  0  0  0  0  0  0  0  0  0  0
   12.1080   -0.3180    9.4690 O   0  0  0  0  0  0  0  0  0  0  0  0
   10.3460    1.1840    9.2210 C   0  0  0  0  0  2  0  0  0  0  0  0
    9.4540   -0.0520    9.1430 C   0  0  0  0  0  1  0  0  0  0  0  0
    8.2830    9.9270   14.4040 C   0  0  0  0  0  0  0  0  0  0  0  0
    7.7400   10.8260   13.7160 O   0  0  0  0  0  0  0  0  0  0  0  0
    7.9630    9.7460   15.8020 N   0  0  0  0  0  0  0  0  0  0  0  0
    8.4690    8.9920   16.2720 H   0  0  0  0  0  0  0  0  0  0  0  0
    7.0080   10.6260   16.3710 C   0  0  0  0  0  2  0  0  0  0  0  0
    5.8790   10.0580   17.1430 C   0  0  0  0  0  2  0  0  0  0  0  0
    4.8910    9.3010   16.4680 N   0  0  0  0  0  0  0  0  0  0  0  0
    5.1620    7.9700   16.1760 C   0  0  0  0  0  2  0  0  0  0  0  0
    5.2790    7.6090   14.7240 C   0  0  0  0  0  2  0  0  0  0  0  0
    4.3460    8.2660   13.9340 O   0  0  0  0  0  0  0  0  0  0  0  0
    4.6330    9.6270   14.0340 C   0  0  0  0  0  2  0  0  0  0  0  0
    4.2360   10.0580   15.4270 C   0  0  0  0  0  2  0  0  0  0  0  0
  1  2  1  0  0  0  0
  1  6  1  0  0  0  0
  2  3  1  0  0  0  0
  3 24  1  1  0  0  0
  3  4  1  0  0  0  0
  4  5  1  0  0  0  0
  6  5  2  0  0  0  0
  7  1  1  0  0  0  0
  8  7  2  0  0  0  0
  9  7  2  0  0  0  0
 10  7  1  0  0  0  0
 10 17  1  0  0  0  0
 11 10  2  0  0  0  0
 12 11  1  0  0  0  0
 12 13  2  0  0  0  0
 13 15  1  0  0  0  0
 14 12  1  0  0  0  0
 14 19  1  0  0  0  0
 15 17  2  0  0  0  0
 16 13  1  0  0  0  0
 16 19  1  0  0  0  0
 17 18  1  0  0  0  0
 20 14  1  0  0  0  0
 21 20  2  0  0  0  0
 22 20  1  0  0  0  0
 23 22  1  0  0  0  0
 24 26  1  0  0  0  0
 25 24  2  0  0  0  0
 26 27  1  0  0  0  0
 26 28  1  0  0  0  0
 28 29  1  0  0  0  0
 30 29  1  0  0  0  0
 31 30  1  0  0  0  0
 32 31  1  0  0  0  0
 33 34  1  0  0  0  0
 33 32  1  0  0  0  0
 34 35  1  0  0  0  0
 35 30  1  0  0  0  0
M  END
>  <Pose>
1

>  <Score>
-8.357

$$$$
