/Users/jonathanwahrer/Desktop/Msc/3_Semester/Drug_Design_Praktikum/waehrer_HTS_screening/HTS_experiment/out/docking_results/vina_output/2jam/2345_docked.pdbqt
 OpenBabel03162219043D

 27 30  0  0  1  0  0  0  0  0999 V2000
   10.9990    4.8850   12.1570 C   0  0  0  0  0  0  0  0  0  0  0  0
   10.9550    3.8530   12.9260 O   0  0  0  0  0  0  0  0  0  0  0  0
   10.4510    6.0640   12.6740 N   0  0  0  0  0  0  0  0  0  0  0  0
    9.8630    6.0760   14.0050 C   0  0  0  0  0  2  0  0  0  0  0  0
    8.4130    6.5460   13.9450 C   0  0  0  0  0  2  0  0  0  0  0  0
    8.2860    7.5360   12.9170 N   0  0  0  0  0  0  0  0  0  0  0  0
    9.4360    8.3100   12.5610 C   0  0  0  0  0  2  0  0  0  0  0  0
   10.4340    7.3100   11.9450 C   0  0  0  0  0  2  0  0  0  0  0  0
   11.6140    4.7010   10.8370 C   0  0  2  0  0  3  0  0  0  0  0  0
   10.7850    3.9250    9.8520 C   0  0  0  0  0  2  0  0  0  0  0  0
   11.4910    2.6720    9.6160 N   0  0  0  0  0  0  0  0  0  0  0  0
   12.8790    2.9610    9.8900 C   0  0  0  0  0  0  0  0  0  0  0  0
   12.9780    4.0960   10.8360 C   0  0  0  0  0  2  0  0  0  0  0  0
   13.8050    2.2760    9.3440 O   0  0  0  0  0  0  0  0  0  0  0  0
   10.9510    1.4210    9.2030 C   0  0  0  0  0  0  0  0  0  0  0  0
   11.6280    0.5710    8.3540 C   0  0  0  0  0  3  0  0  0  0  0  0
   11.1040   -0.6430    7.9480 C   0  0  0  0  0  3  0  0  0  0  0  0
    9.8710   -1.0430    8.3890 C   0  0  0  0  0  0  0  0  0  0  0  0
    9.1880   -2.5870    7.8810 Cl  0  0  0  0  0  0  0  0  0  0  0  0
    9.1720   -0.2250    9.2320 C   0  0  0  0  0  3  0  0  0  0  0  0
    9.7110    1.0050    9.6380 C   0  0  0  0  0  3  0  0  0  0  0  0
    7.0550    7.7440   12.2590 C   0  0  0  0  0  0  0  0  0  0  0  0
    6.1780    8.7630   12.4760 N   0  0  0  0  0  0  0  0  0  0  0  0
    5.1310    8.6190   11.6530 C   0  0  0  0  0  3  0  0  0  0  0  0
    6.3540    9.8430   13.4560 C   0  0  0  0  0  1  0  0  0  0  0  0
    5.3320    7.4890   10.8950 C   0  0  0  0  0  3  0  0  0  0  0  0
    6.4930    6.9960   11.2890 N   0  0  0  0  0  0  0  0  0  0  0  0
  1  3  1  0  0  0  0
  1  2  2  0  0  0  0
  3  4  1  0  0  0  0
  5  4  1  0  0  0  0
  6  5  1  0  0  0  0
  7  6  1  0  0  0  0
  8  7  1  0  0  0  0
  8  3  1  0  0  0  0
  9  1  1  1  0  0  0
 10  9  1  0  0  0  0
 11 10  1  0  0  0  0
 11 12  1  0  0  0  0
 12 13  1  0  0  0  0
 13  9  1  0  0  0  0
 14 12  2  0  0  0  0
 15 11  1  0  0  0  0
 15 21  1  0  0  0  0
 16 15  2  0  0  0  0
 17 16  1  0  0  0  0
 17 18  2  0  0  0  0
 18 20  1  0  0  0  0
 19 18  1  0  0  0  0
 20 21  2  0  0  0  0
 22 23  1  0  0  0  0
 22  6  1  0  0  0  0
 23 25  1  0  0  0  0
 24 23  1  0  0  0  0
 26 27  1  0  0  0  0
 26 24  2  0  0  0  0
 27 22  2  0  0  0  0
M  END
>  <Pose>
1

>  <Score>
-8.710

$$$$
