/Users/jonathanwahrer/Desktop/Msc/3_Semester/Drug_Design_Praktikum/waehrer_HTS_screening/HTS_experiment/out/docking_results/vina_output/2jam/2349_docked.pdbqt
 OpenBabel03162219043D

 28 31  0  0  1  0  0  0  0  0999 V2000
    6.3980    8.0120   12.7390 N   0  0  0  0  0  0  0  0  0  0  0  0
    5.3120    8.2850   11.8420 C   0  0  0  0  0  0  0  0  0  0  0  0
    5.4420    7.9880   10.6220 O   0  0  0  0  0  0  0  0  0  0  0  0
    4.1540    8.8780   12.4040 N   0  0  0  0  0  2  0  0  0  0  0  0
    4.0100    9.1890   13.6160 C   0  0  0  0  0  0  0  0  0  0  0  0
    5.0370    9.0000   14.6980 C   0  0  1  0  0  0  0  0  0  0  0  0
    5.4070   10.3950   15.1140 C   0  0  0  0  0  2  0  0  0  0  0  0
    5.9300   10.5690   16.4140 N   0  0  0  0  0  4  0  0  0  0  0  0
    5.3200    9.8070   17.4390 C   0  0  0  0  0  0  0  0  0  0  0  0
    4.6080    8.6940   17.1290 C   0  0  0  0  0  0  0  0  0  0  0  0
    4.0240    7.9700   18.1650 C   0  0  0  0  0  3  0  0  0  0  0  0
    4.1770    8.3900   19.4710 C   0  0  0  0  0  0  0  0  0  0  0  0
    4.9040    9.5280   19.7860 C   0  0  0  0  0  3  0  0  0  0  0  0
    5.4830   10.2430   18.7400 C   0  0  0  0  0  3  0  0  0  0  0  0
    3.5530    7.6390   20.6060 C   0  0  0  0  0  1  0  0  0  0  0  0
    4.4050    8.1810   15.7560 C   0  0  0  0  0  2  0  0  0  0  0  0
    7.3770   10.4710   16.5250 C   0  0  0  0  0  1  0  0  0  0  0  0
    6.2280    8.3430   14.1060 C   0  0  0  0  0  0  0  0  0  0  0  0
    7.2240    8.0180   14.8470 O   0  0  0  0  0  0  0  0  0  0  0  0
    2.8080    9.7690   14.0610 O   0  0  0  0  0  0  0  0  0  0  0  0
    5.7270   11.5830   16.6900 H   0  0  0  0  0  0  0  0  0  0  0  0
    7.5740    7.4600   12.1810 C   0  0  0  0  0  0  0  0  0  0  0  0
    8.6750    8.2560   11.8590 C   0  0  0  0  0  3  0  0  0  0  0  0
    9.8260    7.7440   11.3240 C   0  0  0  0  0  3  0  0  0  0  0  0
    9.9680    6.3800   11.0650 C   0  0  0  0  0  0  0  0  0  0  0  0
   11.4560    5.7450   10.3880 Cl  0  0  0  0  0  0  0  0  0  0  0  0
    8.8790    5.5920   11.3820 C   0  0  0  0  0  3  0  0  0  0  0  0
    7.7240    6.1080   11.9200 C   0  0  0  0  0  3  0  0  0  0  0  0
  1 18  1  0  0  0  0
  2  4  1  0  0  0  0
  2  1  1  0  0  0  0
  3  2  2  0  0  0  0
  4  5  1  0  0  0  0
  5 20  2  0  0  0  0
  5  6  1  0  0  0  0
  6  7  1  1  0  0  0
  6 16  1  0  0  0  0
  7  8  1  0  0  0  0
  8 17  1  0  0  0  0
  8 21  1  0  0  0  0
  8  9  1  0  0  0  0
  9 14  1  0  0  0  0
 10  9  2  0  0  0  0
 10 11  1  0  0  0  0
 11 12  2  0  0  0  0
 12 13  1  0  0  0  0
 12 15  1  0  0  0  0
 14 13  2  0  0  0  0
 16 10  1  0  0  0  0
 18  6  1  0  0  0  0
 18 19  2  0  0  0  0
 22  1  1  0  0  0  0
 23 22  2  0  0  0  0
 24 23  1  0  0  0  0
 25 24  2  0  0  0  0
 25 27  1  0  0  0  0
 26 25  1  0  0  0  0
 27 28  2  0  0  0  0
 28 22  1  0  0  0  0
M  END
>  <Pose>
1

>  <Score>
-9.292

$$$$
