/Users/jonathanwahrer/Desktop/Msc/3_Semester/Drug_Design_Praktikum/waehrer_HTS_screening/HTS_experiment/out/docking_results/vina_output/2jam/2350_docked.pdbqt
 OpenBabel03162219043D

 23 26  0  0  1  0  0  0  0  0999 V2000
    8.4240    8.5670   12.4420 N   0  0  0  0  0  0  0  0  0  0  0  0
    7.4510    9.4600   11.8770 C   0  0  0  0  0  0  0  0  0  0  0  0
    7.1710    9.4900   10.6520 O   0  0  0  0  0  0  0  0  0  0  0  0
    6.8470   10.3150   12.9290 C   0  0  1  0  0  3  0  0  0  0  0  0
    5.3840   10.0840   13.1280 C   0  0  1  0  0  3  0  0  0  0  0  0
    5.1070    8.6330   12.7920 C   0  0  1  0  0  3  0  0  0  0  0  0
    5.8830    7.9130   13.8940 C   0  0  1  0  0  3  0  0  0  0  0  0
    6.3980    8.9940   14.8160 C   0  0  1  0  0  3  0  0  0  0  0  0
    7.5040    9.8050   14.2180 C   0  0  1  0  0  3  0  0  0  0  0  0
    8.6700    9.0070   13.7680 C   0  0  0  0  0  0  0  0  0  0  0  0
    9.6860    8.7820   14.4700 O   0  0  0  0  0  0  0  0  0  0  0  0
    5.2380   10.0030   14.6570 C   0  0  0  0  0  2  0  0  0  0  0  0
    9.0510    7.4410   11.8440 C   0  0  0  0  0  0  0  0  0  0  0  0
    8.3770    6.2170   11.7520 C   0  0  0  0  0  3  0  0  0  0  0  0
    8.9820    5.1220   11.1830 C   0  0  0  0  0  3  0  0  0  0  0  0
   10.2690    5.1880   10.6820 C   0  0  0  0  0  0  0  0  0  0  0  0
   11.0210    3.7680    9.9600 Cl  0  0  0  0  0  0  0  0  0  0  0  0
   10.9580    6.3900   10.7620 C   0  0  0  0  0  3  0  0  0  0  0  0
   10.3280    7.4690   11.3360 C   0  0  0  0  0  3  0  0  0  0  0  0
    3.7660    8.3990   13.0070 O   0  0  0  0  0  0  0  0  0  0  0  0
    3.1660    8.7220   12.2950 H   0  0  0  0  0  0  0  0  0  0  0  0
    5.0340    7.1220   14.6650 O   0  0  0  0  0  0  0  0  0  0  0  0
    5.5930    6.3880   15.0620 H   0  0  0  0  0  0  0  0  0  0  0  0
  1 10  1  0  0  0  0
  2  1  1  0  0  0  0
  3  2  2  0  0  0  0
  4  2  1  6  0  0  0
  4  5  1  0  0  0  0
  4  9  1  0  0  0  0
  5 12  1  1  0  0  0
  6 20  1  1  0  0  0
  6  5  1  0  0  0  0
  6  7  1  0  0  0  0
  7 22  1  1  0  0  0
  7  8  1  0  0  0  0
  8 12  1  6  0  0  0
  9 10  1  6  0  0  0
  9  8  1  0  0  0  0
 10 11  2  0  0  0  0
 13  1  1  0  0  0  0
 14 13  1  0  0  0  0
 15 14  2  0  0  0  0
 16 18  2  0  0  0  0
 16 15  1  0  0  0  0
 17 16  1  0  0  0  0
 18 19  1  0  0  0  0
 19 13  2  0  0  0  0
 21 20  1  0  0  0  0
 22 23  1  0  0  0  0
M  END
>  <Pose>
1

>  <Score>
-7.264

$$$$
