/Users/jonathanwahrer/Desktop/Msc/3_Semester/Drug_Design_Praktikum/waehrer_HTS_screening/HTS_experiment/out/docking_results/vina_output/2jam/2357_docked.pdbqt
 OpenBabel03162219043D

 36 39  0  0  1  0  0  0  0  0999 V2000
    9.5540    6.4620   11.7700 C   0  0  2  0  0  3  0  0  0  0  0  0
    9.1900    6.5290   13.0360 C   0  0  0  0  0  2  0  0  0  0  0  0
    7.7320    6.2780   13.1590 C   0  0  2  0  0  3  0  0  0  0  0  0
    7.4180    5.6230   11.9190 N   0  0  0  0  0  0  0  0  0  0  0  0
    8.3710    6.1600   11.0390 N   0  0  0  0  0  0  0  0  0  0  0  0
    6.4550    5.7220   11.6050 H   0  0  0  0  0  0  0  0  0  0  0  0
    8.2180    6.3050   10.0220 H   0  0  0  0  0  0  0  0  0  0  0  0
   10.9300    6.6510   11.1940 C   0  0  1  0  0  3  0  0  0  0  0  0
   11.9330    6.7540   12.2780 C   0  0  0  0  0  0  0  0  0  0  0  0
   12.5360    5.5830   12.7920 N   0  0  0  0  0  0  0  0  0  0  0  0
   12.2350    7.8750   12.7300 O   0  0  0  0  0  0  0  0  0  0  0  0
   12.4830    4.3800   12.0810 C   0  0  0  0  0  0  0  0  0  0  0  0
   13.0430    5.5830   13.7240 H   0  0  0  0  0  0  0  0  0  0  0  0
   11.8240    4.3040   10.8250 N   0  0  0  0  0  0  0  0  0  0  0  0
   13.0210    3.3050   12.5220 O   0  0  0  0  0  0  0  0  0  0  0  0
   11.2230    5.4880   10.3230 C   0  0  0  0  0  0  0  0  0  0  0  0
   10.9310    5.5590    9.1160 O   0  0  0  0  0  0  0  0  0  0  0  0
   11.7810    3.0720   10.1180 C   0  0  0  0  0  0  0  0  0  0  0  0
   12.8970    2.5990    9.4770 C   0  0  0  0  0  3  0  0  0  0  0  0
   12.8880    1.4050    8.7850 C   0  0  0  0  0  3  0  0  0  0  0  0
   11.7420    0.6520    8.7240 C   0  0  0  0  0  0  0  0  0  0  0  0
   11.7070   -0.8810    7.8430 Cl  0  0  0  0  0  0  0  0  0  0  0  0
   10.6120    1.1080    9.3590 C   0  0  0  0  0  3  0  0  0  0  0  0
   10.6400    2.3220   10.0580 C   0  0  0  0  0  3  0  0  0  0  0  0
    7.0540    7.5520   13.3640 C   0  0  0  0  0  0  0  0  0  0  0  0
    7.7560    8.5830   13.9510 C   0  0  0  0  0  3  0  0  0  0  0  0
    7.2060    9.8260   14.1860 C   0  0  0  0  0  0  0  0  0  0  0  0
    5.8730   10.0310   13.8060 C   0  0  0  0  0  0  0  0  0  0  0  0
    5.1290    9.0320   13.2170 C   0  0  0  0  0  0  0  0  0  0  0  0
    5.7470    7.8140   13.0130 C   0  0  0  0  0  3  0  0  0  0  0  0
    7.9050   10.8710   14.7760 O   0  0  0  0  0  0  0  0  0  0  0  0
    8.5110   10.6080   16.0240 C   0  0  0  0  0  1  0  0  0  0  0  0
    5.2780   11.2540   14.0190 O   0  0  0  0  0  0  0  0  0  0  0  0
    5.7500   11.9530   14.5770 H   0  0  0  0  0  0  0  0  0  0  0  0
    3.8360    9.2820   12.8670 O   0  0  0  0  0  0  0  0  0  0  0  0
    2.6960    9.0110   13.6300 C   0  0  0  0  0  1  0  0  0  0  0  0
  1  2  1  1  0  0  0
  2  3  1  0  0  0  0
  3 25  1  6  0  0  0
  4  3  1  0  0  0  0
  5  1  1  0  0  0  0
  5  4  1  0  0  0  0
  6  4  1  0  0  0  0
  7  5  1  0  0  0  0
  8 16  1  6  0  0  0
  8  1  1  0  0  0  0
  8  9  1  0  0  0  0
  9 11  2  0  0  0  0
  9 10  1  0  0  0  0
 10 13  1  0  0  0  0
 12 15  2  0  0  0  0
 12 10  1  0  0  0  0
 14 12  1  0  0  0  0
 16 14  1  0  0  0  0
 17 16  2  0  0  0  0
 18 14  1  0  0  0  0
 19 18  2  0  0  0  0
 20 19  1  0  0  0  0
 21 20  2  0  0  0  0
 21 23  1  0  0  0  0
 22 21  1  0  0  0  0
 23 24  2  0  0  0  0
 24 18  1  0  0  0  0
 25 26  1  0  0  0  0
 26 27  2  0  0  0  0
 27 31  1  0  0  0  0
 28 33  1  0  0  0  0
 28 27  1  0  0  0  0
 29 28  2  0  0  0  0
 30 29  1  0  0  0  0
 30 25  2  0  0  0  0
 31 32  1  0  0  0  0
 33 34  1  0  0  0  0
 35 29  1  0  0  0  0
 35 36  1  0  0  0  0
M  END
>  <Pose>
1

>  <Score>
-9.067

$$$$
