/Users/jonathanwahrer/Desktop/Msc/3_Semester/Drug_Design_Praktikum/waehrer_HTS_screening/HTS_experiment/out/docking_results/vina_output/2jam/2363_docked.pdbqt
 OpenBabel03162219053D

 33 36  0  0  1  0  0  0  0  0999 V2000
   13.9880    1.6590    9.7180 N   0  0  0  0  0  0  0  0  0  0  0  0
   13.6260    2.6460   10.6720 C   0  0  2  0  0  0  0  0  0  0  0  0
   14.7240    3.4920   11.1170 C   0  0  0  0  0  0  0  0  0  0  0  0
   16.0130    3.2940   10.7260 C   0  0  0  0  0  0  0  0  0  0  0  0
   17.0280    4.1390   11.2140 C   0  0  0  0  0  3  0  0  0  0  0  0
   16.7810    5.1740   12.0800 C   0  0  0  0  0  3  0  0  0  0  0  0
   15.4640    5.3610   12.4670 C   0  0  0  0  0  3  0  0  0  0  0  0
   14.4810    4.5490   12.0010 C   0  0  0  0  0  3  0  0  0  0  0  0
   16.3800    2.2570    9.8020 N   0  0  0  0  0  0  0  0  0  0  0  0
   15.3180    1.4560    9.3220 C   0  0  0  0  0  0  0  0  0  0  0  0
   15.5610    0.5130    8.5010 O   0  0  0  0  0  0  0  0  0  0  0  0
   17.3710    2.1340    9.5290 H   0  0  0  0  0  0  0  0  0  0  0  0
   13.1940    1.8880   11.8180 O   0  0  0  0  0  0  0  0  0  0  0  0
   13.9030    1.9060   12.5120 H   0  0  0  0  0  0  0  0  0  0  0  0
   12.4360    3.4300   10.2540 C   0  0  0  0  0  0  0  0  0  0  0  0
   12.3980    3.9480    9.1360 O   0  0  0  0  0  0  0  0  0  0  0  0
   11.3730    3.5530   11.1680 N   0  0  0  0  0  0  0  0  0  0  0  0
   11.3970    3.1120   12.1290 H   0  0  0  0  0  0  0  0  0  0  0  0
   10.1540    4.3020   10.8600 C   0  0  0  0  0  2  0  0  0  0  0  0
   10.2350    5.7200   11.2760 C   0  0  0  0  0  2  0  0  0  0  0  0
    9.0210    6.4180   11.4540 N   0  0  0  0  0  0  0  0  0  0  0  0
    7.8540    5.6890   11.7370 C   0  0  0  0  0  2  0  0  0  0  0  0
    6.7550    6.6690   12.1540 C   0  0  0  0  0  2  0  0  0  0  0  0
    6.8880    7.8790   11.4490 O   0  0  0  0  0  0  0  0  0  0  0  0
    7.9950    8.6000   11.8870 C   0  0  0  0  0  2  0  0  0  0  0  0
    9.1010    7.6290   12.1980 C   0  0  0  0  0  2  0  0  0  0  0  0
   12.9440    0.8200    9.1140 C   0  0  0  0  0  0  0  0  0  0  0  0
   12.9520    0.5160    7.7790 C   0  0  0  0  0  3  0  0  0  0  0  0
   11.9560   -0.2800    7.2210 C   0  0  0  0  0  3  0  0  0  0  0  0
   10.9510   -0.7680    8.0250 C   0  0  0  0  0  0  0  0  0  0  0  0
    9.6910   -1.7790    7.3070 Cl  0  0  0  0  0  0  0  0  0  0  0  0
   10.9200   -0.4770    9.3710 C   0  0  0  0  0  3  0  0  0  0  0  0
   11.9250    0.3170    9.8930 C   0  0  0  0  0  3  0  0  0  0  0  0
  1  2  1  0  0  0  0
  2 15  1  6  0  0  0
  2  3  1  0  0  0  0
  2 13  1  0  0  0  0
  3  8  1  0  0  0  0
  4  3  2  0  0  0  0
  4  5  1  0  0  0  0
  5  6  2  0  0  0  0
  6  7  1  0  0  0  0
  8  7  2  0  0  0  0
  9  4  1  0  0  0  0
 10  1  1  0  0  0  0
 10  9  1  0  0  0  0
 11 10  2  0  0  0  0
 12  9  1  0  0  0  0
 13 14  1  0  0  0  0
 15 17  1  0  0  0  0
 16 15  2  0  0  0  0
 17 18  1  0  0  0  0
 19 17  1  0  0  0  0
 19 20  1  0  0  0  0
 20 21  1  0  0  0  0
 21 22  1  0  0  0  0
 21 26  1  0  0  0  0
 22 23  1  0  0  0  0
 24 25  1  0  0  0  0
 24 23  1  0  0  0  0
 25 26  1  0  0  0  0
 27  1  1  0  0  0  0
 27 33  1  0  0  0  0
 28 27  2  0  0  0  0
 29 28  1  0  0  0  0
 29 30  2  0  0  0  0
 30 32  1  0  0  0  0
 31 30  1  0  0  0  0
 32 33  2  0  0  0  0
M  END
>  <Pose>
1

>  <Score>
-9.651

$$$$
