/Users/jonathanwahrer/Desktop/Msc/3_Semester/Drug_Design_Praktikum/waehrer_HTS_screening/HTS_experiment/out/docking_results/vina_output/2jam/2364_docked.pdbqt
 OpenBabel03162219063D

 33 37  0  0  1  0  0  0  0  0999 V2000
    8.9940    6.0720   12.9020 N   0  0  0  0  0  0  0  0  0  0  0  0
   10.1040    6.5430   13.6570 C   0  0  0  0  0  0  0  0  0  0  0  0
    9.8980    7.2430   14.7000 O   0  0  0  0  0  0  0  0  0  0  0  0
   11.4980    6.2630   13.3000 C   0  0  1  0  0  3  0  0  0  0  0  0
   11.6850    5.6820   12.0110 N   0  0  1  0  0  0  0  0  0  0  0  0
   10.6500    4.8160   11.5470 C   0  0  2  0  0  0  0  0  0  0  0  0
   10.7730    3.3660   11.9460 C   0  0  0  0  0  2  0  0  0  0  0  0
   11.0370    3.0190   10.5870 N   0  0  0  0  0  0  0  0  0  0  0  0
   10.9710    4.3530   10.1360 C   0  0  0  0  0  2  0  0  0  0  0  0
    9.2830    5.3790   11.6940 C   0  0  0  0  0  0  0  0  0  0  0  0
    8.3920    5.2670   10.8140 O   0  0  0  0  0  0  0  0  0  0  0  0
   11.8840    6.7420   11.0650 C   0  0  0  0  0  2  0  0  0  0  0  0
   11.8870    8.0430   11.8170 C   0  0  1  0  0  3  0  0  0  0  0  0
   12.2130    7.6190   13.2200 C   0  0  0  0  0  2  0  0  0  0  0  0
   12.1510    2.1970   10.2820 C   0  0  0  0  0  2  0  0  0  0  0  0
   11.9050    1.0990    9.3410 C   0  0  0  0  0  0  0  0  0  0  0  0
   10.6880    0.4630    9.3290 C   0  0  0  0  0  3  0  0  0  0  0  0
   10.4270   -0.5870    8.4440 C   0  0  0  0  0  0  0  0  0  0  0  0
   11.4130   -0.9850    7.5700 C   0  0  0  0  0  3  0  0  0  0  0  0
   12.6400   -0.3660    7.5610 C   0  0  0  0  0  3  0  0  0  0  0  0
   12.8670    0.6770    8.4570 C   0  0  0  0  0  3  0  0  0  0  0  0
    9.2050   -1.2290    8.4290 O   0  0  0  0  0  0  0  0  0  0  0  0
    8.8520   -1.9840    7.2850 C   0  0  0  0  0  1  0  0  0  0  0  0
    7.6220    6.2850   13.3300 C   0  0  0  0  0  2  0  0  0  0  0  0
    7.2540    7.7330   13.1650 C   0  0  0  0  0  0  0  0  0  0  0  0
    6.4830    8.3790   14.1050 C   0  0  0  0  0  3  0  0  0  0  0  0
    6.1310    9.7070   13.9760 C   0  0  0  0  0  0  0  0  0  0  0  0
    5.1500   10.4950   15.1920 Cl  0  0  0  0  0  0  0  0  0  0  0  0
    6.5520   10.4260   12.8830 C   0  0  0  0  0  3  0  0  0  0  0  0
    7.3210    9.7620   11.9550 C   0  0  0  0  0  3  0  0  0  0  0  0
    7.6750    8.4540   12.0690 C   0  0  0  0  0  3  0  0  0  0  0  0
   12.7980    8.9590   11.3100 O   0  0  0  0  0  0  0  0  0  0  0  0
   13.5930    8.4510   11.0170 H   0  0  0  0  0  0  0  0  0  0  0  0
  1 24  1  0  0  0  0
  1  2  1  0  0  0  0
  2  3  2  0  0  0  0
  4 14  1  6  0  0  0
  4  2  1  0  0  0  0
  5 12  1  6  0  0  0
  5  4  1  0  0  0  0
  6  9  1  6  0  0  0
  6 10  1  0  0  0  0
  6  7  1  0  0  0  0
  6  5  1  0  0  0  0
  8  7  1  0  0  0  0
  9  8  1  0  0  0  0
 10  1  1  0  0  0  0
 11 10  2  0  0  0  0
 12 13  1  0  0  0  0
 13 32  1  6  0  0  0
 13 14  1  0  0  0  0
 15  8  1  0  0  0  0
 16 15  1  0  0  0  0
 17 16  1  0  0  0  0
 18 17  2  0  0  0  0
 19 18  1  0  0  0  0
 20 19  2  0  0  0  0
 20 21  1  0  0  0  0
 21 16  2  0  0  0  0
 22 18  1  0  0  0  0
 23 22  1  0  0  0  0
 25 24  1  0  0  0  0
 25 26  1  0  0  0  0
 27 26  2  0  0  0  0
 27 28  1  0  0  0  0
 29 27  1  0  0  0  0
 30 31  1  0  0  0  0
 30 29  2  0  0  0  0
 31 25  2  0  0  0  0
 33 32  1  0  0  0  0
M  END
>  <Pose>
1

>  <Score>
-9.385

$$$$
