/Users/jonathanwahrer/Desktop/Msc/3_Semester/Drug_Design_Praktikum/waehrer_HTS_screening/HTS_experiment/out/docking_results/vina_output/2jam/2365_docked.pdbqt
 OpenBabel03162219063D

 32 36  0  0  1  0  0  0  0  0999 V2000
    9.5350    5.7530   11.5810 N   0  0  0  0  0  0  0  0  0  0  0  0
    9.2360    6.5690   12.6820 C   0  0  0  0  0  0  0  0  0  0  0  0
    9.9350    6.4410   13.7330 O   0  0  0  0  0  0  0  0  0  0  0  0
    8.9670    5.8480   10.7050 H   0  0  0  0  0  0  0  0  0  0  0  0
    8.1500    7.5770   12.7050 C   0  0  1  0  0  0  0  0  0  0  0  0
    8.2130    8.4010   13.9750 C   0  0  0  0  0  2  0  0  0  0  0  0
    7.1060    9.4170   14.0090 C   0  0  1  0  0  0  0  0  0  0  0  0
    7.3350   10.3680   12.8320 C   0  0  0  0  0  2  0  0  0  0  0  0
    5.7470    8.8100   13.8500 C   0  0  0  0  0  2  0  0  0  0  0  0
    7.2970    9.5970   11.5510 C   0  0  1  0  0  3  0  0  0  0  0  0
    8.3620    8.5250   11.5450 C   0  0  0  0  0  2  0  0  0  0  0  0
    5.9380    8.9550   11.4010 C   0  0  0  0  0  2  0  0  0  0  0  0
    5.7370    8.0170   12.5680 C   0  0  1  0  0  3  0  0  0  0  0  0
    6.7870    6.9380   12.5610 C   0  0  0  0  0  2  0  0  0  0  0  0
    7.2400   10.1580   15.2480 N   0  0  0  0  0  0  0  0  0  0  0  0
    6.3410   10.8480   15.9270 N   0  0  0  0  0  0  0  0  0  0  0  0
    6.8430   11.3780   17.0010 N   0  0  0  0  0  0  0  0  0  0  0  0
    8.1200   11.0440   17.0600 C   0  0  0  0  0  3  0  0  0  0  0  0
    8.3720   10.2790   15.9620 N   0  0  0  0  0  0  0  0  0  0  0  0
   10.5600    4.8340   11.6250 N   0  0  0  0  0  0  0  0  0  0  0  0
   11.8800    5.0750   11.1750 C   0  0  0  0  0  0  0  0  0  0  0  0
   12.2090    6.1880   10.6920 O   0  0  0  0  0  0  0  0  0  0  0  0
   10.3610    3.8730   12.0200 H   0  0  0  0  0  0  0  0  0  0  0  0
   12.9480    4.0370   11.2500 C   0  0  1  0  0  3  0  0  0  0  0  0
   14.1020    4.4650   12.0920 C   0  0  0  0  0  1  0  0  0  0  0  0
   12.3450    2.7410   11.7420 C   0  0  0  0  0  2  0  0  0  0  0  0
   11.8470    1.9160   10.6670 N   0  0  0  0  0  0  0  0  0  0  0  0
   12.5570    1.1190    9.8270 C   0  0  0  0  0  3  0  0  0  0  0  0
   11.6980    0.5020    8.9400 C   0  0  0  0  0  0  0  0  0  0  0  0
   12.0920   -0.7240    7.5350 Br  0  0  0  0  0  0  0  0  0  0  0  0
   10.4280    0.9680    9.2890 C   0  0  0  0  0  3  0  0  0  0  0  0
   10.5920    1.8080   10.3270 N   0  0  0  0  0  0  0  0  0  0  0  0
  1 20  1  0  0  0  0
  1  2  1  0  0  0  0
  2  3  2  0  0  0  0
  4  1  1  0  0  0  0
  5  2  1  1  0  0  0
  5  6  1  0  0  0  0
  6  7  1  0  0  0  0
  7  8  1  6  0  0  0
  7 15  1  0  0  0  0
  9  7  1  0  0  0  0
 10 12  1  1  0  0  0
 10  8  1  0  0  0  0
 11 10  1  0  0  0  0
 11  5  1  0  0  0  0
 13 12  1  6  0  0  0
 13  9  1  0  0  0  0
 14 13  1  0  0  0  0
 14  5  1  0  0  0  0
 15 16  1  0  0  0  0
 15 19  1  0  0  0  0
 16 17  2  0  0  0  0
 17 18  1  0  0  0  0
 19 18  2  0  0  0  0
 20 23  1  0  0  0  0
 21 24  1  0  0  0  0
 21 20  1  0  0  0  0
 22 21  2  0  0  0  0
 24 26  1  0  0  0  0
 24 25  1  1  0  0  0
 27 26  1  0  0  0  0
 28 27  1  0  0  0  0
 29 31  1  0  0  0  0
 29 28  2  0  0  0  0
 30 29  1  0  0  0  0
 31 32  2  0  0  0  0
 32 27  1  0  0  0  0
M  END
>  <Pose>
1

>  <Score>
-8.810

$$$$
