/Users/jonathanwahrer/Desktop/Msc/3_Semester/Drug_Design_Praktikum/waehrer_HTS_screening/HTS_experiment/out/docking_results/vina_output/2jam/2375_docked.pdbqt
 OpenBabel03162219073D

 37 40  0  0  1  0  0  0  0  0999 V2000
   10.9380    6.6360   12.3100 C   0  0  0  0  0  0  0  0  0  0  0  0
   11.8890    7.4650   12.9910 C   0  0  0  0  0  1  0  0  0  0  0  0
    9.7590    7.3080   11.6220 C   0  0  0  0  0  0  0  0  0  0  0  0
    8.6320    7.7130   12.3770 N   0  0  0  0  0  0  0  0  0  0  0  0
    7.3360    8.0250   11.8710 C   0  0  0  0  0  3  0  0  0  0  0  0
    8.8530    8.1460   13.7710 C   0  0  0  0  0  2  0  0  0  0  0  0
    6.1800    7.6950   12.7830 C   0  0  0  0  0  3  0  0  0  0  0  0
    6.4980    7.2500   14.1470 C   0  0  1  0  0  0  0  0  0  0  0  0
    7.8500    7.6470   14.6890 C   0  0  0  0  0  2  0  0  0  0  0  0
    9.8110    7.4930   10.4080 O   0  0  0  0  0  0  0  0  0  0  0  0
    5.5290    7.6980   15.1730 C   0  0  0  0  0  0  0  0  0  0  0  0
    5.8340    8.8810   15.8290 C   0  0  0  0  0  3  0  0  0  0  0  0
    4.9820    9.4280   16.8010 C   0  0  0  0  0  3  0  0  0  0  0  0
    3.8080    8.7880   17.1210 C   0  0  0  0  0  0  0  0  0  0  0  0
    2.7060    9.4780   18.3370 Cl  0  0  0  0  0  0  0  0  0  0  0  0
    3.5030    7.6080   16.4660 C   0  0  0  0  0  3  0  0  0  0  0  0
    4.3660    7.0850   15.5110 C   0  0  0  0  0  3  0  0  0  0  0  0
    6.4500    5.8230   14.1410 O   0  0  0  0  0  0  0  0  0  0  0  0
    5.5620    5.4960   14.3630 H   0  0  0  0  0  0  0  0  0  0  0  0
   11.3260    5.4610   11.5650 N   0  0  0  0  0  4  0  0  0  0  0  0
   11.1320    4.1460   11.9830 C   0  0  0  0  0  0  0  0  0  0  0  0
   10.5750    4.1450   13.2460 O   0  0  0  0  0  0  0  0  0  0  0  0
   11.2990    2.8510   11.5160 C   0  0  0  0  0  2  0  0  0  0  0  0
   11.8460    5.7420   10.6670 H   0  0  0  0  0  0  0  0  0  0  0  0
   11.5820    2.0350   10.5450 C   0  0  1  0  0  3  0  0  0  0  0  0
   10.4850    1.3660    9.8310 N   0  0  0  0  0  0  0  0  0  0  0  0
   10.6810    0.5560    8.7300 N   0  0  0  0  0  0  0  0  0  0  0  0
    9.5180    1.5460   10.2130 H   0  0  0  0  0  0  0  0  0  0  0  0
   11.9420    0.3090    8.2100 C   0  0  0  0  0  0  0  0  0  0  0  0
    9.8440    0.1060    8.2660 H   0  0  0  0  0  0  0  0  0  0  0  0
   12.1660   -0.4250    7.2150 O   0  0  0  0  0  0  0  0  0  0  0  0
   13.1130    0.9410    8.8640 C   0  0  0  0  0  0  0  0  0  0  0  0
   12.8730    1.7430    9.9550 C   0  0  0  0  0  0  0  0  0  0  0  0
   14.3530    0.7570    8.3010 C   0  0  0  0  0  3  0  0  0  0  0  0
   13.9960    2.3960   10.4750 C   0  0  0  0  0  3  0  0  0  0  0  0
   15.2550    2.2210    9.9180 C   0  0  0  0  0  3  0  0  0  0  0  0
   15.4470    1.4030    8.8350 C   0  0  0  0  0  3  0  0  0  0  0  0
  1  2  1  0  0  0  0
  3  1  1  0  0  0  0
  3  4  1  0  0  0  0
  4  6  1  0  0  0  0
  5  4  1  0  0  0  0
  5  7  2  0  0  0  0
  6  9  1  0  0  0  0
  7  8  1  0  0  0  0
  8 18  1  6  0  0  0
  8  9  1  0  0  0  0
  8 11  1  0  0  0  0
 10  3  2  0  0  0  0
 11 17  2  0  0  0  0
 11 12  1  0  0  0  0
 12 13  2  0  0  0  0
 13 14  1  0  0  0  0
 14 15  1  0  0  0  0
 16 14  2  0  0  0  0
 17 16  1  0  0  0  0
 18 19  1  0  0  0  0
 20 21  1  0  0  0  0
 20  1  2  3  0  0  0
 21 22  2  0  0  0  0
 23 21  1  0  0  0  0
 24 20  1  0  0  0  0
 25 23  1  6  0  0  0
 26 28  1  0  0  0  0
 26 25  1  0  0  0  0
 27 26  1  0  0  0  0
 29 27  1  0  0  0  0
 29 32  1  0  0  0  0
 30 27  1  0  0  0  0
 31 29  2  0  0  0  0
 32 33  1  0  0  0  0
 33 35  2  0  0  0  0
 33 25  1  0  0  0  0
 34 37  1  0  0  0  0
 34 32  2  0  0  0  0
 36 35  1  0  0  0  0
 37 36  2  0  0  0  0
M  END
>  <Pose>
1

>  <Score>
-10.160

$$$$
