/Users/jonathanwahrer/Desktop/Msc/3_Semester/Drug_Design_Praktikum/waehrer_HTS_screening/HTS_experiment/out/docking_results/vina_output/2jam/2380_docked.pdbqt
 OpenBabel03162219073D

 27 30  0  0  1  0  0  0  0  0999 V2000
   13.4560    4.7490   12.5070 Cl  0  0  0  0  0  0  0  0  0  0  0  0
   12.2840    4.0710   11.3810 C   0  0  0  0  0  0  0  0  0  0  0  0
   11.0840    4.7260   11.2380 C   0  0  0  0  0  0  0  0  0  0  0  0
   10.1830    4.1660   10.3460 C   0  0  0  0  0  3  0  0  0  0  0  0
   10.5040    3.0450    9.6770 N   0  0  0  0  0  0  0  0  0  0  0  0
   11.6560    2.4060    9.8050 N   0  0  0  0  0  0  0  0  0  0  0  0
   12.5520    2.9220   10.6640 C   0  0  0  0  0  0  0  0  0  0  0  0
   13.6740    2.3670   10.8380 O   0  0  0  0  0  0  0  0  0  0  0  0
   10.8280    5.8980   11.9810 N   0  0  0  0  0  0  0  0  0  0  0  0
   10.2680    5.8460   13.3270 C   0  0  0  0  0  2  0  0  0  0  0  0
    8.8590    6.4540   13.1920 C   0  0  0  0  0  2  0  0  0  0  0  0
    8.9280    7.7330   12.5580 N   0  0  0  0  0  0  0  0  0  0  0  0
   10.2750    8.2620   12.2580 C   0  0  0  0  0  2  0  0  0  0  0  0
    7.7860    8.5030   12.2140 C   0  0  0  0  0  0  0  0  0  0  0  0
   11.0920    7.2390   11.4930 C   0  0  0  0  0  2  0  0  0  0  0  0
    7.8970    9.6340   11.6520 O   0  0  0  0  0  0  0  0  0  0  0  0
    6.4090    8.0530   12.4820 C   0  0  1  0  0  3  0  0  0  0  0  0
    5.6090    9.0970   12.8300 O   0  0  0  0  0  0  0  0  0  0  0  0
    4.3210    8.8300   12.3840 C   0  0  0  0  0  2  0  0  0  0  0  0
    4.6030    8.2700   10.9970 C   0  0  0  0  0  2  0  0  0  0  0  0
    5.7860    7.3710   11.2840 C   0  0  0  0  0  2  0  0  0  0  0  0
   11.9390    1.2120    9.0610 C   0  0  0  0  0  0  0  0  0  0  0  0
   11.0430    0.1630    9.0610 C   0  0  0  0  0  3  0  0  0  0  0  0
   11.3060   -1.0060    8.3410 C   0  0  0  0  0  3  0  0  0  0  0  0
   12.4670   -1.1280    7.6210 C   0  0  0  0  0  3  0  0  0  0  0  0
   13.3680   -0.0940    7.6130 C   0  0  0  0  0  3  0  0  0  0  0  0
   13.0940    1.0480    8.3240 C   0  0  0  0  0  3  0  0  0  0  0  0
  2  1  1  0  0  0  0
  3  2  2  0  0  0  0
  3  9  1  0  0  0  0
  4  3  1  0  0  0  0
  5  6  1  0  0  0  0
  5  4  2  0  0  0  0
  6  7  1  0  0  0  0
  7  8  2  0  0  0  0
  7  2  1  0  0  0  0
  9 10  1  0  0  0  0
 11 10  1  0  0  0  0
 12 11  1  0  0  0  0
 13 12  1  0  0  0  0
 14 12  1  0  0  0  0
 15  9  1  0  0  0  0
 15 13  1  0  0  0  0
 16 14  2  0  0  0  0
 17 14  1  6  0  0  0
 17 18  1  0  0  0  0
 19 18  1  0  0  0  0
 20 21  1  0  0  0  0
 20 19  1  0  0  0  0
 21 17  1  0  0  0  0
 22  6  1  0  0  0  0
 23 22  1  0  0  0  0
 24 23  2  0  0  0  0
 25 24  1  0  0  0  0
 26 25  2  0  0  0  0
 26 27  1  0  0  0  0
 27 22  2  0  0  0  0
M  END
>  <Pose>
1

>  <Score>
-8.849

$$$$
