/Users/jonathanwahrer/Desktop/Msc/3_Semester/Drug_Design_Praktikum/waehrer_HTS_screening/HTS_experiment/out/docking_results/vina_output/2jam/2381_docked.pdbqt
 OpenBabel03162219083D

 30 33  0  0  0  0  0  0  0  0999 V2000
   12.3160    4.2820   11.9220 N   0  0  0  0  0  0  0  0  0  0  0  0
   13.6530    4.7130   12.2220 C   0  0  0  0  0  2  0  0  0  0  0  0
   14.6570    4.1180   11.2610 C   0  0  0  0  0  2  0  0  0  0  0  0
   14.2810    2.7900   10.8430 N   0  0  0  0  0  0  0  0  0  0  0  0
   13.2400    2.1040   11.5680 C   0  0  0  0  0  2  0  0  0  0  0  0
   11.9900    2.9420   11.4780 C   0  0  0  0  0  2  0  0  0  0  0  0
   14.9290    2.1800    9.7390 C   0  0  0  0  0  0  0  0  0  0  0  0
   15.8480    2.7800    9.0940 O   0  0  0  0  0  0  0  0  0  0  0  0
   11.2500    5.2220   12.0670 C   0  0  0  0  0  0  0  0  0  0  0  0
   10.8800    6.0830   11.0540 C   0  0  0  0  0  0  0  0  0  0  0  0
   11.7410    6.0230    9.5330 Cl  0  0  0  0  0  0  0  0  0  0  0  0
    9.8350    6.9680   11.2720 C   0  0  0  0  0  0  0  0  0  0  0  0
    9.1540    7.0350   12.4300 N   0  0  0  0  0  0  0  0  0  0  0  0
    9.4960    7.7510   10.3600 O   0  0  0  0  0  0  0  0  0  0  0  0
    9.5210    6.2020   13.3900 N   0  0  0  0  0  0  0  0  0  0  0  0
   10.5270    5.3190   13.2430 C   0  0  0  0  0  3  0  0  0  0  0  0
    8.0840    7.9700   12.5960 C   0  0  0  0  0  0  0  0  0  0  0  0
    6.7760    7.5970   12.3660 C   0  0  0  0  0  3  0  0  0  0  0  0
    5.7380    8.4930   12.5240 C   0  0  0  0  0  3  0  0  0  0  0  0
    5.9570    9.7970   12.9160 C   0  0  0  0  0  3  0  0  0  0  0  0
    7.2620   10.1760   13.1480 C   0  0  0  0  0  3  0  0  0  0  0  0
    8.2930    9.2790   12.9890 C   0  0  0  0  0  3  0  0  0  0  0  0
   14.5800    0.8140    9.2670 C   0  0  0  0  0  2  0  0  0  0  0  0
   13.8360    0.8430    8.0800 O   0  0  0  0  0  0  0  0  0  0  0  0
   12.6330    0.1700    7.9880 C   0  0  0  0  0  0  0  0  0  0  0  0
   12.2790   -0.8500    7.1980 N   0  0  0  0  0  0  0  0  0  0  0  0
   11.0520   -1.1900    7.4260 O   0  0  0  0  0  0  0  0  0  0  0  0
   10.5110   -0.4390    8.3630 C   0  0  0  0  0  0  0  0  0  0  0  0
   11.5020    0.4430    8.7450 C   0  0  0  0  0  3  0  0  0  0  0  0
    9.1240   -0.5940    8.8360 C   0  0  0  0  0  1  0  0  0  0  0  0
  1  9  1  0  0  0  0
  1  2  1  0  0  0  0
  3  2  1  0  0  0  0
  4  3  1  0  0  0  0
  4  5  1  0  0  0  0
  6  5  1  0  0  0  0
  6  1  1  0  0  0  0
  7  4  1  0  0  0  0
  8  7  2  0  0  0  0
  9 16  1  0  0  0  0
 10 12  1  0  0  0  0
 10  9  2  0  0  0  0
 11 10  1  0  0  0  0
 12 13  1  0  0  0  0
 13 17  1  0  0  0  0
 13 15  1  0  0  0  0
 14 12  2  0  0  0  0
 16 15  2  0  0  0  0
 17 22  1  0  0  0  0
 18 19  1  0  0  0  0
 18 17  2  0  0  0  0
 19 20  2  0  0  0  0
 20 21  1  0  0  0  0
 22 21  2  0  0  0  0
 23  7  1  0  0  0  0
 24 23  1  0  0  0  0
 25 24  1  0  0  0  0
 25 29  1  0  0  0  0
 26 27  1  0  0  0  0
 26 25  2  0  0  0  0
 27 28  1  0  0  0  0
 28 29  2  0  0  0  0
 28 30  1  0  0  0  0
M  END
>  <Pose>
1

>  <Score>
-8.762

$$$$
