/Users/jonathanwahrer/Desktop/Msc/3_Semester/Drug_Design_Praktikum/waehrer_HTS_screening/HTS_experiment/out/docking_results/vina_output/2jam/2386_docked.pdbqt
 OpenBabel03162219083D

 30 33  0  0  0  0  0  0  0  0999 V2000
   10.8540    1.1410    9.1250 Cl  0  0  0  0  0  0  0  0  0  0  0  0
   11.3820    2.4730   10.1480 C   0  0  0  0  0  0  0  0  0  0  0  0
   10.7410    3.6980    9.9770 C   0  0  0  0  0  3  0  0  0  0  0  0
   11.1430    4.7500   10.7690 C   0  0  0  0  0  0  0  0  0  0  0  0
   12.1560    4.5770   11.7020 C   0  0  0  0  0  0  0  0  0  0  0  0
   12.7910    3.3520   11.8660 C   0  0  0  0  0  3  0  0  0  0  0  0
   12.3870    2.2960   11.0700 C   0  0  0  0  0  3  0  0  0  0  0  0
   12.6160    5.5850   12.5340 O   0  0  0  0  0  0  0  0  0  0  0  0
   12.6400    6.9710   12.3380 C   0  0  0  0  0  0  0  0  0  0  0  0
   11.3220    7.6260   12.1340 C   0  0  0  0  0  2  0  0  0  0  0  0
   10.2630    6.8020   11.6480 N   0  0  0  0  0  0  0  0  0  0  0  0
   10.3470    5.9640   10.4450 C   0  0  0  0  0  2  0  0  0  0  0  0
    9.0300    6.7800   12.3560 C   0  0  0  0  0  0  0  0  0  0  0  0
    8.9490    7.5030   13.3750 O   0  0  0  0  0  0  0  0  0  0  0  0
   13.3240    7.6110   13.5610 C   0  0  0  0  0  2  0  0  0  0  0  0
   14.6140    6.8630   13.7650 C   0  0  0  0  0  2  0  0  0  0  0  0
   14.8690    5.9540   12.7540 O   0  0  0  0  0  0  0  0  0  0  0  0
   14.8930    6.5410   11.5010 C   0  0  0  0  0  2  0  0  0  0  0  0
   13.6120    7.2830   11.1890 C   0  0  0  0  0  2  0  0  0  0  0  0
    7.9000    5.9670   11.9330 C   0  0  0  0  0  2  0  0  0  0  0  0
    6.5450    6.3940   12.3260 C   0  0  0  0  0  2  0  0  0  0  0  0
    5.9170    7.5460   11.6600 C   0  0  0  0  0  2  0  0  0  0  0  0
    6.2020    8.8650   12.0870 N   0  0  0  0  0  0  0  0  0  0  0  0
    5.6310    9.5090   13.2110 C   0  0  0  0  0  0  0  0  0  0  0  0
    4.7870    9.0530   14.0380 O   0  0  0  0  0  0  0  0  0  0  0  0
    6.1830   10.8130   13.2690 N   0  0  0  0  0  0  0  0  0  0  0  0
    7.3670   10.8590   12.4140 C   0  0  0  0  0  2  0  0  0  0  0  0
    5.8370   11.6270   13.8130 H   0  0  0  0  0  0  0  0  0  0  0  0
    7.0950    9.7640   11.4590 C   0  0  0  0  0  0  0  0  0  0  0  0
    7.5940    9.6730   10.2800 O   0  0  0  0  0  0  0  0  0  0  0  0
  1  2  1  0  0  0  0
  2  7  1  0  0  0  0
  3  2  2  0  0  0  0
  3  4  1  0  0  0  0
  4  5  2  0  0  0  0
  5  6  1  0  0  0  0
  5  8  1  0  0  0  0
  7  6  2  0  0  0  0
  9  8  1  0  0  0  0
  9 15  1  0  0  0  0
 10  9  1  0  0  0  0
 11 10  1  0  0  0  0
 11 13  1  0  0  0  0
 12  4  1  0  0  0  0
 12 11  1  0  0  0  0
 13 14  2  0  0  0  0
 15 16  1  0  0  0  0
 17 16  1  0  0  0  0
 18 17  1  0  0  0  0
 19 18  1  0  0  0  0
 19  9  1  0  0  0  0
 20 21  1  0  0  0  0
 20 13  1  0  0  0  0
 22 23  1  0  0  0  0
 22 21  1  0  0  0  0
 23 24  1  0  0  0  0
 24 26  1  0  0  0  0
 24 25  2  0  0  0  0
 26 28  1  0  0  0  0
 27 26  1  0  0  0  0
 29 23  1  0  0  0  0
 29 27  1  0  0  0  0
 30 29  2  0  0  0  0
M  END
>  <Pose>
1

>  <Score>
-8.445

$$$$
