/Users/jonathanwahrer/Desktop/Msc/3_Semester/Drug_Design_Praktikum/waehrer_HTS_screening/HTS_experiment/out/docking_results/vina_output/2jam/2402_docked.pdbqt
 OpenBabel03162219083D

 33 36  0  0  1  0  0  0  0  0999 V2000
   12.0460    5.2050   12.1290 C   0  0  2  0  0  3  0  0  0  0  0  0
   11.6960    4.2560   11.1140 N   0  0  0  0  0  0  0  0  0  0  0  0
   10.5300    4.6730   10.4200 C   0  0  0  0  0  0  0  0  0  0  0  0
   10.0050    4.2340    9.3690 O   0  0  0  0  0  0  0  0  0  0  0  0
    9.9360    5.8110   11.1590 C   0  0  0  0  0  0  0  0  0  0  0  0
    8.8970    6.4490   10.8530 O   0  0  0  0  0  0  0  0  0  0  0  0
   10.8120    6.0210   12.2960 C   0  0  0  0  0  0  0  0  0  0  0  0
   10.5120    6.8530   13.3010 C   0  0  0  0  0  0  0  0  0  0  0  0
   11.5000    6.9430   14.2900 O   0  0  0  0  0  1  0  0  0  0  0  0
   13.2580    5.9650   11.8750 C   0  0  0  0  0  0  0  0  0  0  0  0
   14.4770    5.4570   12.2820 C   0  0  0  0  0  3  0  0  0  0  0  0
   15.6690    6.0900   12.0870 C   0  0  0  0  0  3  0  0  0  0  0  0
   15.6940    7.2990   11.4540 C   0  0  0  0  0  0  0  0  0  0  0  0
   17.3910    8.1440   11.2040 Br  0  0  0  0  0  0  0  0  0  0  0  0
   14.5150    7.8580   11.0240 C   0  0  0  0  0  3  0  0  0  0  0  0
   13.3120    7.1870   11.2390 C   0  0  0  0  0  3  0  0  0  0  0  0
    9.2640    7.6040   13.3780 C   0  0  0  0  0  0  0  0  0  0  0  0
    8.1180    7.2890   13.8750 O   0  0  0  0  0  0  0  0  0  0  0  0
    7.2080    8.2110   13.7680 C   0  0  0  0  0  0  0  0  0  0  0  0
    7.7830    9.2960   13.1230 C   0  0  0  0  0  0  0  0  0  0  0  0
    5.8820    8.2980   14.1520 C   0  0  0  0  0  0  0  0  0  0  0  0
    9.0950    8.8830   12.8850 C   0  0  0  0  0  3  0  0  0  0  0  0
    7.0320   10.4210   12.8790 C   0  0  0  0  0  3  0  0  0  0  0  0
    5.7130   10.4860   13.2670 C   0  0  0  0  0  3  0  0  0  0  0  0
    5.1300    9.4040   13.9140 C   0  0  0  0  0  3  0  0  0  0  0  0
    5.3320    7.2070   14.7930 O   0  0  0  0  0  0  0  0  0  0  0  0
    4.2070    7.2630   15.6590 C   0  0  0  0  0  1  0  0  0  0  0  0
   12.4020    3.0410   10.8110 C   0  0  0  0  0  2  0  0  0  0  0  0
   11.4520    1.8690   10.6480 C   0  0  0  0  0  2  0  0  0  0  0  0
   11.3950    1.3620    9.3210 N   0  0  0  0  0  4  0  0  0  0  0  0
   12.5910    0.7450    8.8350 C   0  0  0  0  0  1  0  0  0  0  0  0
   10.2540    0.4720    9.1520 C   0  0  0  0  0  1  0  0  0  0  0  0
   11.2070    2.1870    8.6770 H   0  0  0  0  0  0  0  0  0  0  0  0
  1 10  1  6  0  0  0
  1  7  1  0  0  0  0
  2  1  1  0  0  0  0
  3  2  1  0  0  0  0
  3  5  1  0  0  0  0
  4  3  2  0  0  0  0
  5  7  1  0  0  0  0
  6  5  2  0  0  0  0
  7  8  2  0  0  0  0
  8 17  1  0  0  0  0
  8  9  1  0  0  0  0
 10 11  1  0  0  0  0
 12 11  2  0  0  0  0
 13 12  1  0  0  0  0
 14 13  1  0  0  0  0
 15 16  1  0  0  0  0
 15 13  2  0  0  0  0
 16 10  2  0  0  0  0
 17 18  1  0  0  0  0
 19 18  1  0  0  0  0
 19 21  1  0  0  0  0
 20 19  2  0  0  0  0
 21 26  1  0  0  0  0
 22 20  1  0  0  0  0
 22 17  2  0  0  0  0
 23 20  1  0  0  0  0
 23 24  2  0  0  0  0
 24 25  1  0  0  0  0
 25 21  2  0  0  0  0
 26 27  1  0  0  0  0
 28  2  1  0  0  0  0
 29 28  1  0  0  0  0
 30 29  1  0  0  0  0
 31 30  1  0  0  0  0
 32 30  1  0  0  0  0
 33 30  1  0  0  0  0
M  END
>  <Pose>
1

>  <Score>
-8.170

$$$$
