/Users/jonathanwahrer/Desktop/Msc/3_Semester/Drug_Design_Praktikum/waehrer_HTS_screening/HTS_experiment/out/docking_results/vina_output/2jam/2403_docked.pdbqt
 OpenBabel03162219083D

 26 29  0  0  0  0  0  0  0  0999 V2000
   10.0000    6.3620   12.5030 N   0  0  0  0  0  0  0  0  0  0  0  0
    8.7800    6.8260   12.8100 C   0  0  0  0  0  0  0  0  0  0  0  0
    8.3620    7.7740   11.8820 C   0  0  0  0  0  0  0  0  0  0  0  0
    9.3800    7.8700   10.9950 N   0  0  0  0  0  0  0  0  0  0  0  0
   10.3550    7.0330   11.3600 C   0  0  0  0  0  3  0  0  0  0  0  0
    7.1740    8.4090   11.9490 N   0  0  0  0  0  0  0  0  0  0  0  0
    6.3790    8.0800   12.9840 C   0  0  0  0  0  0  0  0  0  0  0  0
    5.2640    8.6630   13.0630 O   0  0  0  0  0  0  0  0  0  0  0  0
    6.7350    7.1730   13.9070 N   0  0  0  0  0  0  0  0  0  0  0  0
    7.9220    6.5360   13.8420 C   0  0  0  0  0  0  0  0  0  0  0  0
    8.2710    5.6920   14.6910 O   0  0  0  0  0  0  0  0  0  0  0  0
    5.8750    6.8210   15.0230 C   0  0  0  0  0  1  0  0  0  0  0  0
    6.7970    9.3880   10.9470 C   0  0  0  0  0  1  0  0  0  0  0  0
   10.8160    5.3610   13.1610 C   0  0  0  0  0  2  0  0  0  0  0  0
   11.3980    4.3740   12.1910 C   0  0  0  0  0  0  0  0  0  0  0  0
   10.5730    3.5170   11.5640 N   0  0  0  0  0  0  0  0  0  0  0  0
   11.0520    2.6060   10.6670 C   0  0  0  0  0  0  0  0  0  0  0  0
   12.3620    2.5410   10.3860 N   0  0  0  0  0  0  0  0  0  0  0  0
   10.1590    1.7460   10.0490 C   0  0  0  0  0  3  0  0  0  0  0  0
   12.8370    1.6410    9.4990 C   0  0  0  0  0  3  0  0  0  0  0  0
   13.2510    3.3830   10.9890 C   0  0  0  0  0  0  0  0  0  0  0  0
   11.9620    0.7880    8.8850 C   0  0  0  0  0  0  0  0  0  0  0  0
   12.6620   -0.4720    7.6380 Br  0  0  0  0  0  0  0  0  0  0  0  0
   10.6110    0.8190    9.1430 C   0  0  0  0  0  3  0  0  0  0  0  0
   12.7350    4.2900   11.8890 C   0  0  0  0  0  3  0  0  0  0  0  0
   14.4530    3.2900   10.7010 O   0  0  0  0  0  0  0  0  0  0  0  0
  1  2  1  0  0  0  0
  1 14  1  0  0  0  0
  2 10  1  0  0  0  0
  3  6  1  0  0  0  0
  3  2  2  0  0  0  0
  4  5  2  0  0  0  0
  4  3  1  0  0  0  0
  5  1  1  0  0  0  0
  6  7  1  0  0  0  0
  7  8  2  0  0  0  0
  7  9  1  0  0  0  0
  9 12  1  0  0  0  0
 10  9  1  0  0  0  0
 10 11  2  0  0  0  0
 13  6  1  0  0  0  0
 15 14  1  0  0  0  0
 16 15  1  0  0  0  0
 17 16  2  0  0  0  0
 18 17  1  0  0  0  0
 18 21  1  0  0  0  0
 19 17  1  0  0  0  0
 20 18  1  0  0  0  0
 21 25  1  0  0  0  0
 22 24  1  0  0  0  0
 22 20  2  0  0  0  0
 23 22  1  0  0  0  0
 24 19  2  0  0  0  0
 25 15  2  0  0  0  0
 26 21  2  0  0  0  0
M  END
>  <Pose>
1

>  <Score>
-8.493

$$$$
