/Users/jonathanwahrer/Desktop/Msc/3_Semester/Drug_Design_Praktikum/waehrer_HTS_screening/HTS_experiment/out/docking_results/vina_output/2jam/2416_docked.pdbqt
 OpenBabel03162219093D

 34 37  0  0  1  0  0  0  0  0999 V2000
    8.2310    7.3430   12.3540 N   0  0  0  0  0  0  0  0  0  0  0  0
    9.2820    8.2450   12.4930 C   0  0  0  0  0  2  0  0  0  0  0  0
   10.5690    7.4660   12.8000 C   0  0  0  0  0  2  0  0  0  0  0  0
   10.6130    6.2540   11.9800 N   0  0  0  0  0  0  0  0  0  0  0  0
    9.4970    5.3420   12.1290 C   0  0  0  0  0  2  0  0  0  0  0  0
    8.4370    6.0900   12.9510 C   0  0  0  0  0  2  0  0  0  0  0  0
   11.6970    6.0310   11.0860 C   0  0  0  0  0  0  0  0  0  0  0  0
   12.5930    6.9060   11.0330 O   0  0  0  0  0  0  0  0  0  0  0  0
   11.7520    4.8220   10.2640 C   0  0  0  0  0  2  0  0  0  0  0  0
   12.6230    3.7160   10.8410 C   0  0  2  0  0  3  0  0  0  0  0  0
   13.6370    3.2500    9.9330 N   0  0  0  0  0  0  0  0  0  0  0  0
   13.8070    2.0250    9.2330 C   0  0  0  0  0  0  0  0  0  0  0  0
   14.4380    3.9220    9.7120 H   0  0  0  0  0  0  0  0  0  0  0  0
   14.9470    1.6900    8.8160 O   0  0  0  0  0  0  0  0  0  0  0  0
   12.7610    1.0300    8.9130 C   0  0  0  0  0  0  0  0  0  0  0  0
   11.5580    0.8280    9.5990 C   0  0  0  0  0  0  0  0  0  0  0  0
   13.0400    0.2580    7.8150 C   0  0  0  0  0  3  0  0  0  0  0  0
   10.6900   -0.1340    9.1650 C   0  0  0  0  0  3  0  0  0  0  0  0
   11.1230    1.5430   10.7450 N   0  0  0  0  0  0  0  0  0  0  0  0
   10.9490   -0.9350    8.0510 C   0  0  0  0  0  3  0  0  0  0  0  0
   12.1550   -0.7080    7.3870 C   0  0  0  0  0  3  0  0  0  0  0  0
   11.7580    2.6510   11.3920 C   0  0  0  0  0  0  0  0  0  0  0  0
   10.2440    1.2190   11.1470 H   0  0  0  0  0  0  0  0  0  0  0  0
   11.5110    2.6870   12.6490 O   0  0  0  0  0  0  0  0  0  0  0  0
    6.7330    7.8050   11.8150 S   0  0  0  0  0  0  0  0  0  0  0  0
    6.8830    9.0450   10.9530 O   0  0  0  0  0  0  0  0  0  0  0  0
    6.0500    6.7810   10.9340 O   0  0  0  0  0  0  0  0  0  0  0  0
    5.6070    8.2340   13.1070 C   0  0  0  0  0  0  0  0  0  0  0  0
    4.4750    8.9750   12.8600 C   0  0  0  0  0  3  0  0  0  0  0  0
    3.6290    9.2890   13.9010 C   0  0  0  0  0  3  0  0  0  0  0  0
    3.8550    8.8930   15.2070 C   0  0  0  0  0  0  0  0  0  0  0  0
    4.9990    8.1440   15.4540 C   0  0  0  0  0  3  0  0  0  0  0  0
    2.7960    9.2820   16.5220 Cl  0  0  0  0  0  0  0  0  0  0  0  0
    5.8410    7.8340   14.4100 C   0  0  0  0  0  3  0  0  0  0  0  0
  1  2  1  0  0  0  0
  1  6  1  0  0  0  0
  2  3  1  0  0  0  0
  4  5  1  0  0  0  0
  4  3  1  0  0  0  0
  5  6  1  0  0  0  0
  7  4  1  0  0  0  0
  8  7  2  0  0  0  0
  9  7  1  0  0  0  0
 10  9  1  6  0  0  0
 10 22  1  0  0  0  0
 11 10  1  0  0  0  0
 12 11  1  0  0  0  0
 13 11  1  0  0  0  0
 14 12  2  0  0  0  0
 15 12  1  0  0  0  0
 15 16  1  0  0  0  0
 16 19  1  0  0  0  0
 17 15  2  0  0  0  0
 18 16  2  0  0  0  0
 19 23  1  0  0  0  0
 19 22  1  0  0  0  0
 20 18  1  0  0  0  0
 21 17  1  0  0  0  0
 21 20  2  0  0  0  0
 22 24  2  0  0  0  0
 25  1  1  0  0  0  0
 25 28  1  0  0  0  0
 26 25  2  0  0  0  0
 27 25  2  0  0  0  0
 28 34  1  0  0  0  0
 29 28  2  0  0  0  0
 29 30  1  0  0  0  0
 30 31  2  0  0  0  0
 31 32  1  0  0  0  0
 31 33  1  0  0  0  0
 34 32  2  0  0  0  0
M  END
>  <Pose>
1

>  <Score>
-10.644

$$$$
