/Users/jonathanwahrer/Desktop/Msc/3_Semester/Drug_Design_Praktikum/waehrer_HTS_screening/HTS_experiment/out/docking_results/vina_output/2jam/2420_docked.pdbqt
 OpenBabel03162219093D

 29 32  0  0  1  0  0  0  0  0999 V2000
   11.0720    5.0950   11.2850 N   0  0  0  0  0  0  0  0  0  0  0  0
   10.6140    5.4410   12.6300 C   0  0  0  0  0  2  0  0  0  0  0  0
   10.5520    6.9520   12.5890 C   0  0  2  0  0  3  0  0  0  0  0  0
    9.9280    7.2100   11.2220 C   0  0  0  0  0  2  0  0  0  0  0  0
   10.3820    6.0130   10.4320 C   0  0  0  0  0  0  0  0  0  0  0  0
   10.1890    5.8340    9.1920 O   0  0  0  0  0  0  0  0  0  0  0  0
   11.9010    7.5620   12.6620 C   0  0  0  0  0  0  0  0  0  0  0  0
   12.1010    8.6340   12.0370 O   0  0  0  0  0  0  0  0  0  0  0  0
   12.9590    6.9860   13.4010 N   0  0  0  0  0  0  0  0  0  0  0  0
   12.7540    6.0880   13.9090 H   0  0  0  0  0  0  0  0  0  0  0  0
   14.2710    7.5750   13.4770 C   0  0  0  0  0  2  0  0  0  0  0  0
   15.3110    6.5430   13.0920 C   0  0  0  0  0  2  0  0  0  0  0  0
   15.6200    6.5560   11.6830 N   0  0  0  0  0  0  0  0  0  0  0  0
   15.8030    7.9490   11.2900 C   0  0  0  0  0  2  0  0  0  0  0  0
   17.2290    8.4010   11.5890 C   0  0  0  0  0  2  0  0  0  0  0  0
   18.1610    7.7750   10.7960 O   0  0  0  0  0  0  0  0  0  0  0  0
   17.6440    6.5910   10.3260 C   0  0  0  0  0  2  0  0  0  0  0  0
   16.8470    5.8540   11.3840 C   0  0  0  0  0  2  0  0  0  0  0  0
   11.9900    4.0750   10.9280 C   0  0  0  0  0  0  0  0  0  0  0  0
   13.3290    4.0530   10.9820 N   0  0  0  0  0  0  0  0  0  0  0  0
   13.7910    2.8930   10.5430 N   0  0  0  0  0  0  0  0  0  0  0  0
   12.7470    2.0970   10.1760 C   0  0  0  0  0  0  0  0  0  0  0  0
   14.7770    2.5420   10.4500 H   0  0  0  0  0  0  0  0  0  0  0  0
   12.6250    0.8370    9.6690 C   0  0  0  0  0  3  0  0  0  0  0  0
   11.6170    2.8380   10.4180 C   0  0  0  0  0  0  0  0  0  0  0  0
   11.3930    0.2880    9.3910 C   0  0  0  0  0  0  0  0  0  0  0  0
   11.2480   -1.4720    8.6830 Br  0  0  0  0  0  0  0  0  0  0  0  0
   10.2390    1.0360    9.6340 C   0  0  0  0  0  3  0  0  0  0  0  0
   10.3610    2.3080   10.1470 C   0  0  0  0  0  3  0  0  0  0  0  0
  1  2  1  0  0  0  0
  3  2  1  0  0  0  0
  3  7  1  6  0  0  0
  4  3  1  0  0  0  0
  5  4  1  0  0  0  0
  5  1  1  0  0  0  0
  6  5  2  0  0  0  0
  7  9  1  0  0  0  0
  8  7  2  0  0  0  0
  9 11  1  0  0  0  0
  9 10  1  0  0  0  0
 12 11  1  0  0  0  0
 13 12  1  0  0  0  0
 14 15  1  0  0  0  0
 14 13  1  0  0  0  0
 16 15  1  0  0  0  0
 17 16  1  0  0  0  0
 17 18  1  0  0  0  0
 18 13  1  0  0  0  0
 19 20  2  0  0  0  0
 19  1  1  0  0  0  0
 21 20  1  0  0  0  0
 22 25  1  0  0  0  0
 22 21  1  0  0  0  0
 23 21  1  0  0  0  0
 24 22  2  0  0  0  0
 25 19  1  0  0  0  0
 26 28  2  0  0  0  0
 26 24  1  0  0  0  0
 27 26  1  0  0  0  0
 28 29  1  0  0  0  0
 29 25  2  0  0  0  0
M  END
>  <Pose>
1

>  <Score>
-7.599

$$$$
