/Users/jonathanwahrer/Desktop/Msc/3_Semester/Drug_Design_Praktikum/waehrer_HTS_screening/HTS_experiment/out/docking_results/vina_output/2jam/2439_docked.pdbqt
 OpenBabel03162219103D

 30 34  0  0  1  0  0  0  0  0999 V2000
   13.6610    2.8000   10.8560 C   0  0  0  0  0  0  0  0  0  0  0  0
   13.5710    1.4900   10.3540 C   0  0  0  0  0  3  0  0  0  0  0  0
   12.3030    1.2320   10.0390 N   0  0  0  0  0  0  0  0  0  0  0  0
   11.4900    0.2620    9.5460 C   0  0  0  0  0  0  0  0  0  0  0  0
   10.2390    0.7760    9.5250 C   0  0  0  0  0  0  0  0  0  0  0  0
   10.3180    2.0280    9.9990 N   0  0  0  0  0  0  0  0  0  0  0  0
   11.5960    2.3280   10.3230 C   0  0  1  0  0  3  0  0  0  0  0  0
   12.4190    3.3050   10.8270 N   0  0  0  0  0  0  0  0  0  0  0  0
    9.1740    0.0200    9.0680 C   0  0  0  0  0  3  0  0  0  0  0  0
    9.3680   -1.2780    8.6240 C   0  0  0  0  0  3  0  0  0  0  0  0
   10.6520   -1.8050    8.6450 C   0  0  0  0  0  3  0  0  0  0  0  0
   11.6880   -1.0240    9.1060 C   0  0  0  0  0  3  0  0  0  0  0  0
    9.5060    2.6890   10.1170 H   0  0  0  0  0  0  0  0  0  0  0  0
   11.9640    4.5880   11.2490 C   0  0  0  0  0  3  0  0  0  0  0  0
   10.9890    4.5870   12.3990 C   0  0  0  0  0  3  0  0  0  0  0  0
   10.2450    5.8230   12.6410 C   0  0  0  0  0  2  0  0  0  0  0  0
    9.4850    6.4140   11.5780 N   0  0  0  0  0  4  0  0  0  0  0  0
    8.2700    5.6750   11.2860 C   0  0  0  0  0  3  0  0  0  0  0  0
    7.0790    6.0470   12.0630 C   0  0  0  0  0  3  0  0  0  0  0  0
    7.1620    7.2960   12.8590 C   0  0  0  0  0  2  0  0  0  0  0  0
    8.0120    8.3120   12.1820 C   0  0  0  0  0  3  0  0  0  0  0  0
    9.3130    7.8210   11.6660 C   0  0  0  0  0  3  0  0  0  0  0  0
   10.0560    6.2380   10.7210 H   0  0  0  0  0  0  0  0  0  0  0  0
   14.9360    3.3660   11.3100 C   0  0  0  0  0  0  0  0  0  0  0  0
   16.1150    2.8670   10.7570 C   0  0  0  0  0  3  0  0  0  0  0  0
   17.3740    3.3260   11.0930 C   0  0  0  0  0  3  0  0  0  0  0  0
   17.5180    4.3220   12.0140 C   0  0  0  0  0  0  0  0  0  0  0  0
   19.2250    4.9850   12.5090 Br  0  0  0  0  0  0  0  0  0  0  0  0
   16.3810    4.8330   12.5760 C   0  0  0  0  0  3  0  0  0  0  0  0
   15.0930    4.3580   12.2270 C   0  0  0  0  0  3  0  0  0  0  0  0
  1 24  1  0  0  0  0
  2  1  2  0  0  0  0
  3  7  1  0  0  0  0
  3  2  1  0  0  0  0
  4  3  1  0  0  0  0
  5  4  1  0  0  0  0
  5  6  1  0  0  0  0
  6 13  1  0  0  0  0
  7  6  1  1  0  0  0
  7  8  1  0  0  0  0
  8  1  1  0  0  0  0
  8 14  1  0  0  0  0
  9  5  2  0  0  0  0
 10 11  2  0  0  0  0
 10  9  1  0  0  0  0
 11 12  1  0  0  0  0
 12  4  2  0  0  0  0
 14 15  2  0  0  0  0
 15 16  1  0  0  0  0
 17 22  1  0  0  0  0
 17 16  1  0  0  0  0
 18 17  1  0  0  0  0
 18 19  2  0  0  0  0
 19 20  1  0  0  0  0
 21 20  1  0  0  0  0
 22 21  2  0  0  0  0
 23 17  1  0  0  0  0
 24 30  1  0  0  0  0
 25 26  1  0  0  0  0
 25 24  2  0  0  0  0
 26 27  2  0  0  0  0
 27 28  1  0  0  0  0
 27 29  1  0  0  0  0
 30 29  2  0  0  0  0
M  END
>  <Pose>
1

>  <Score>
-9.272

$$$$
