/Users/jonathanwahrer/Desktop/Msc/3_Semester/Drug_Design_Praktikum/waehrer_HTS_screening/HTS_experiment/out/docking_results/vina_output/2jam/2440_docked.pdbqt
 OpenBabel03162219103D

 33 36  0  0  1  0  0  0  0  0999 V2000
    8.2390    6.4750   13.5540 Cl  0  0  0  0  0  0  0  0  0  0  0  0
    9.8390    6.7840   12.8870 C   0  0  0  0  0  0  0  0  0  0  0  0
   10.6600    5.6720   12.6480 C   0  0  0  0  0  0  0  0  0  0  0  0
   11.9020    5.9170   12.1300 C   0  0  0  0  0  0  0  0  0  0  0  0
   12.3370    7.2290   11.8490 C   0  0  0  0  0  3  0  0  0  0  0  0
   11.5250    8.3090   12.0880 C   0  0  0  0  0  3  0  0  0  0  0  0
   10.2750    8.0570   12.6090 C   0  0  0  0  0  3  0  0  0  0  0  0
   12.5770    4.6240   11.9500 C   0  0  2  0  0  0  0  0  0  0  0  0
   13.8660    4.5430   12.5390 N   0  0  0  0  0  0  0  0  0  0  0  0
   14.6930    3.6540   11.8490 C   0  0  1  0  0  3  0  0  0  0  0  0
   14.0310    3.4680   10.5010 C   0  0  2  0  0  3  0  0  0  0  0  0
   12.8250    4.3490   10.4680 C   0  0  1  0  0  3  0  0  0  0  0  0
   11.7180    3.5730    9.8490 C   0  0  0  0  0  0  0  0  0  0  0  0
   10.5930    4.0540    9.5760 O   0  0  0  0  0  0  0  0  0  0  0  0
   12.1810    2.2380    9.6420 N   0  0  0  0  0  0  0  0  0  0  0  0
   13.4350    2.1240   10.3310 C   0  0  0  0  0  0  0  0  0  0  0  0
   13.9270    1.0530   10.7170 O   0  0  0  0  0  0  0  0  0  0  0  0
   11.6330    3.6190   12.4470 C   0  0  0  0  0  0  0  0  0  0  0  0
   11.7770    2.3590   12.5260 O   0  0  0  0  0  0  0  0  0  0  0  0
   10.4520    4.2800   12.8570 N   0  0  0  0  0  0  0  0  0  0  0  0
   13.8930    4.5270   13.5720 H   0  0  0  0  0  0  0  0  0  0  0  0
    9.5700    3.8690   13.2450 H   0  0  0  0  0  0  0  0  0  0  0  0
   16.1420    3.9350   11.7560 C   0  0  0  0  0  2  0  0  0  0  0  0
   16.5730    5.3280   11.5270 C   0  0  0  0  0  2  0  0  0  0  0  0
   17.7780    5.5420   10.7190 C   0  0  0  0  0  0  0  0  0  0  0  0
   17.8560    6.5120    9.9420 O   0  0  0  0  0  0  0  0  0  0  0  0
   18.9080    4.6750   10.7720 N   0  0  0  0  0  0  0  0  0  0  0  0
   19.5260    4.5910   11.5980 H   0  0  0  0  0  0  0  0  0  0  0  0
   19.1260    4.0960    9.9430 H   0  0  0  0  0  0  0  0  0  0  0  0
   11.5510    1.1920    8.8960 C   0  0  0  0  0  2  0  0  0  0  0  0
   10.2430    0.7140    9.4160 C   0  0  0  0  0  2  0  0  0  0  0  0
    9.8650   -0.6860    9.0820 C   0  0  0  0  0  2  0  0  0  0  0  0
   11.0090   -1.6600    9.3410 C   0  0  0  0  0  1  0  0  0  0  0  0
  2  1  1  0  0  0  0
  3 20  1  0  0  0  0
  3  2  1  0  0  0  0
  4  3  2  0  0  0  0
  5  6  2  0  0  0  0
  5  4  1  0  0  0  0
  6  7  1  0  0  0  0
  7  2  2  0  0  0  0
  8  4  1  1  0  0  0
  8 18  1  0  0  0  0
  8  9  1  0  0  0  0
  9 21  1  0  0  0  0
 10 23  1  6  0  0  0
 10  9  1  0  0  0  0
 11 16  1  1  0  0  0
 11 10  1  0  0  0  0
 12 13  1  1  0  0  0
 12 11  1  0  0  0  0
 12  8  1  0  0  0  0
 14 13  2  0  0  0  0
 15 13  1  0  0  0  0
 15 16  1  0  0  0  0
 16 17  2  0  0  0  0
 18 19  2  0  0  0  0
 18 20  1  0  0  0  0
 20 22  1  0  0  0  0
 24 23  1  0  0  0  0
 25 27  1  0  0  0  0
 25 24  1  0  0  0  0
 26 25  2  0  0  0  0
 27 28  1  0  0  0  0
 29 27  1  0  0  0  0
 30 31  1  0  0  0  0
 30 15  1  0  0  0  0
 32 33  1  0  0  0  0
 32 31  1  0  0  0  0
M  END
>  <Pose>
1

>  <Score>
-8.309

$$$$
