/Users/jonathanwahrer/Desktop/Msc/3_Semester/Drug_Design_Praktikum/waehrer_HTS_screening/HTS_experiment/out/docking_results/vina_output/6q9y/0002_docked.pdbqt
 OpenBabel03222218573D

 38 41  0  0  0  0  0  0  0  0999 V2000
    6.2190    6.3640  -13.6030 C   0  0  0  0  0  0  0  0  0  0  0  0
    7.3310    7.1780  -13.5700 N   0  0  0  0  0  0  0  0  0  0  0  0
    8.3730    6.4190  -13.4500 N   0  0  0  0  0  0  0  0  0  0  0  0
    7.9800    5.1160  -13.4030 N   0  0  0  0  0  0  0  0  0  0  0  0
    6.6530    5.0490  -13.4960 C   0  0  0  0  0  0  0  0  0  0  0  0
    4.8800    6.8840  -13.7390 C   0  0  0  0  0  0  0  0  0  0  0  0
    3.6920    6.5070  -13.1010 N   0  0  0  0  0  0  0  0  0  0  0  0
    3.6020    5.7790  -12.4110 H   0  0  0  0  0  0  0  0  0  0  0  0
    4.7710    7.8650  -14.5930 O   0  0  0  0  0  0  0  0  0  0  0  0
    2.5100    7.2370  -13.4680 N   0  0  0  0  0  0  0  0  0  0  0  0
    1.3660    6.8930  -13.0090 C   0  0  0  0  0  3  0  0  0  0  0  0
    0.1300    7.6070  -13.3540 C   0  0  0  0  0  0  0  0  0  0  0  0
   -1.0020    6.9560  -13.8010 C   0  0  0  0  0  3  0  0  0  0  0  0
   -2.1640    7.6370  -14.1240 C   0  0  0  0  0  0  0  0  0  0  0  0
   -2.2280    9.0090  -14.0070 C   0  0  0  0  0  0  0  0  0  0  0  0
   -3.7310    6.7340  -14.7430 Br  0  0  0  0  0  0  0  0  0  0  0  0
   -1.0970    9.6650  -13.5600 C   0  0  0  0  0  0  0  0  0  0  0  0
   -3.3820    9.7280  -14.3240 O   0  0  0  0  0  1  0  0  0  0  0  0
   -1.1560   11.5760  -13.3870 Br  0  0  0  0  0  0  0  0  0  0  0  0
    0.0580    8.9800  -13.2390 C   0  0  0  0  0  0  0  0  0  0  0  0
    1.2130    9.6400  -12.7830 O   0  0  0  0  0  0  0  0  0  0  0  0
    1.3600   10.6060  -13.0310 H   0  0  0  0  0  0  0  0  0  0  0  0
    5.7880    3.8700  -13.4960 C   0  0  0  0  0  2  0  0  0  0  0  0
    6.3510    2.5860  -13.6800 N   0  0  0  0  0  4  0  0  0  0  0  0
    5.6080    1.7580  -14.6190 C   0  0  0  0  0  2  0  0  0  0  0  0
    4.1740    1.7070  -14.2730 C   0  0  0  0  0  2  0  0  0  0  0  0
    3.7790    1.7610  -12.9990 O   0  0  0  0  0  0  0  0  0  0  0  0
    4.7000    1.9220  -12.0150 C   0  0  0  0  0  2  0  0  0  0  0  0
    6.1210    1.8390  -12.4000 C   0  0  0  0  0  2  0  0  0  0  0  0
    7.3430    2.6040  -13.8620 H   0  0  0  0  0  0  0  0  0  0  0  0
    8.9640    4.0890  -13.2630 C   0  0  0  0  0  0  0  0  0  0  0  0
    9.4740    3.2260  -14.1320 N   0  0  0  0  0  0  0  0  0  0  0  0
   10.3640    2.5240  -13.5100 O   0  0  0  0  0  0  0  0  0  0  0  0
   10.4720    2.8770  -12.2680 N   0  0  0  0  0  0  0  0  0  0  0  0
    9.6160    3.8630  -12.0400 C   0  0  0  0  0  0  0  0  0  0  0  0
    9.3630    4.5800  -10.8420 N   0  0  0  0  0  0  0  0  0  0  0  0
   10.0100    5.3430  -10.5560 H   0  0  0  0  0  0  0  0  0  0  0  0
    8.5330    4.3700  -10.2160 H   0  0  0  0  0  0  0  0  0  0  0  0
  1  2  1  0  0  0  0
  1  5  2  0  0  0  0
  2  3  2  0  0  0  0
  3  4  1  0  0  0  0
  4 31  1  0  0  0  0
  5 23  1  0  0  0  0
  5  4  1  0  0  0  0
  6  1  1  0  0  0  0
  6  7  1  0  0  0  0
  7  8  1  0  0  0  0
  9  6  2  0  0  0  0
 10  7  1  0  0  0  0
 10 11  2  0  0  0  0
 12 20  1  0  0  0  0
 12 11  1  0  0  0  0
 13 12  2  0  0  0  0
 14 15  2  0  0  0  0
 14 13  1  0  0  0  0
 15 17  1  0  0  0  0
 16 14  1  0  0  0  0
 17 19  1  0  0  0  0
 17 20  2  0  0  0  0
 18 15  1  0  0  0  0
 20 21  1  0  0  0  0
 22 21  1  0  0  0  0
 24 23  1  0  0  0  0
 24 29  1  0  0  0  0
 25 26  1  0  0  0  0
 25 24  1  0  0  0  0
 26 27  1  0  0  0  0
 27 28  1  0  0  0  0
 29 28  1  0  0  0  0
 30 24  1  0  0  0  0
 31 35  1  0  0  0  0
 32 33  1  0  0  0  0
 32 31  2  0  0  0  0
 33 34  1  0  0  0  0
 34 35  2  0  0  0  0
 35 36  1  0  0  0  0
 36 37  1  0  0  0  0
 36 38  1  0  0  0  0
M  END
>  <Pose>
1

>  <Score>
-7.846

$$$$
