/Users/jonathanwahrer/Desktop/Msc/3_Semester/Drug_Design_Praktikum/waehrer_HTS_screening/HTS_experiment/out/docking_results/vina_output/6q9y/0005_docked.pdbqt
 OpenBabel03222218583D

 38 41  0  0  1  0  0  0  0  0999 V2000
   -0.0390    7.7660  -13.7030 N   0  0  0  0  0  0  0  0  0  0  0  0
   -1.3240    7.4690  -14.0350 C   0  0  0  0  0  0  0  0  0  0  0  0
   -2.0820    8.6080  -13.9890 C   0  0  0  0  0  0  0  0  0  0  0  0
   -1.2500    9.5670  -13.6380 N   0  0  0  0  0  0  0  0  0  0  0  0
    0.0110    9.0890  -13.4570 C   0  0  0  0  0  0  0  0  0  0  0  0
   -3.4180    8.6590  -14.2840 N   0  0  0  0  0  0  0  0  0  0  0  0
   -3.9960    7.5050  -14.6400 C   0  0  0  0  0  0  0  0  0  0  0  0
   -5.2290    7.5540  -14.9100 O   0  0  0  0  0  0  0  0  0  0  0  0
   -3.2930    6.3580  -14.7040 N   0  0  0  0  0  2  0  0  0  0  0  0
   -1.9830    6.2940  -14.4170 C   0  0  0  0  0  0  0  0  0  0  0  0
   -1.2860    5.1090  -14.4960 O   0  0  0  0  0  0  0  0  0  0  0  0
   -4.1270    9.9270  -14.1920 C   0  0  0  0  0  1  0  0  0  0  0  0
    1.0360    6.8420  -13.6410 C   0  0  0  0  0  2  0  0  0  0  0  0
    1.3660    6.1040  -12.4330 C   0  0  1  0  0  3  0  0  0  0  0  0
    2.7030    5.6220  -12.0620 C   0  0  0  0  0  2  0  0  0  0  0  0
    3.4710    5.3320  -13.2270 O   0  0  0  0  0  0  0  0  0  0  0  0
    4.7890    5.0380  -13.2680 C   0  0  0  0  0  0  0  0  0  0  0  0
    5.7050    6.0510  -13.5930 C   0  0  0  0  0  0  0  0  0  0  0  0
    5.0060    7.7950  -13.9550 Br  0  0  0  0  0  0  0  0  0  0  0  0
    7.0540    5.8100  -13.6510 C   0  0  0  0  0  3  0  0  0  0  0  0
    7.5520    4.5510  -13.3890 C   0  0  0  0  0  0  0  0  0  0  0  0
    6.6750    3.5420  -13.0680 C   0  0  0  0  0  3  0  0  0  0  0  0
    9.4390    4.3100  -13.4930 Br  0  0  0  0  0  0  0  0  0  0  0  0
    5.3000    3.8060  -13.0150 C   0  0  0  0  0  0  0  0  0  0  0  0
    4.1750    2.3580  -12.5880 Br  0  0  0  0  0  0  0  0  0  0  0  0
    0.7290    6.4590  -11.2300 O   0  0  0  0  0  0  0  0  0  0  0  0
    1.3670    6.7120  -10.5390 H   0  0  0  0  0  0  0  0  0  0  0  0
    1.1270    9.9570  -13.1850 N   0  0  0  0  0  0  0  0  0  0  0  0
    2.2630    9.6790  -12.3940 C   0  0  0  0  0  2  0  0  0  0  0  0
    3.2160   10.9010  -12.4920 C   0  0  0  0  0  2  0  0  0  0  0  0
    2.4620   12.0000  -11.9210 N   0  0  0  0  0  4  0  0  0  0  0  0
    1.5750   12.4070  -13.0270 C   0  0  0  0  0  2  0  0  0  0  0  0
    1.8270   11.7160  -11.1450 H   0  0  0  0  0  0  0  0  0  0  0  0
    1.1020   11.2710  -13.8420 C   0  0  0  0  0  2  0  0  0  0  0  0
    3.3230   13.1070  -11.5550 C   0  0  0  0  0  2  0  0  0  0  0  0
    2.5350   14.3940  -11.6610 C   0  0  0  0  0  2  0  0  0  0  0  0
    2.2850   14.8840  -10.3730 O   0  0  0  0  0  0  0  0  0  0  0  0
    3.1390   15.0870   -9.9010 H   0  0  0  0  0  0  0  0  0  0  0  0
  1 13  1  0  0  0  0
  1  5  1  0  0  0  0
  2  3  2  0  0  0  0
  2  1  1  0  0  0  0
  3  4  1  0  0  0  0
  4  5  2  0  0  0  0
  5 28  1  0  0  0  0
  6 12  1  0  0  0  0
  6  3  1  0  0  0  0
  7  6  1  0  0  0  0
  8  7  2  0  0  0  0
  9  7  1  0  0  0  0
  9 10  1  0  0  0  0
 10  2  1  0  0  0  0
 11 10  2  0  0  0  0
 14 13  1  6  0  0  0
 14 15  1  0  0  0  0
 14 26  1  0  0  0  0
 16 15  1  0  0  0  0
 17 16  1  0  0  0  0
 17 24  1  0  0  0  0
 18 17  2  0  0  0  0
 19 18  1  0  0  0  0
 20 18  1  0  0  0  0
 20 21  2  0  0  0  0
 21 22  1  0  0  0  0
 22 24  2  0  0  0  0
 23 21  1  0  0  0  0
 24 25  1  0  0  0  0
 26 27  1  0  0  0  0
 28 29  1  0  0  0  0
 30 29  1  0  0  0  0
 30 31  1  0  0  0  0
 31 35  1  0  0  0  0
 31 33  1  0  0  0  0
 32 31  1  0  0  0  0
 34 28  1  0  0  0  0
 34 32  1  0  0  0  0
 36 35  1  0  0  0  0
 36 37  1  0  0  0  0
 37 38  1  0  0  0  0
M  END
>  <Pose>
1

>  <Score>
-9.044

$$$$
