/Users/jonathanwahrer/Desktop/Msc/3_Semester/Drug_Design_Praktikum/waehrer_HTS_screening/HTS_experiment/out/docking_results/vina_output/6q9y/0017_docked.pdbqt
 OpenBabel03222219003D

 38 41  0  0  0  0  0  0  0  0999 V2000
    6.6790    6.6610  -13.5630 C   0  0  0  0  0  0  0  0  0  0  0  0
    7.8820    7.2460  -13.6300 N   0  0  0  0  0  0  0  0  0  0  0  0
    8.8020    6.4080  -13.2190 N   0  0  0  0  0  0  0  0  0  0  0  0
    8.2490    5.2340  -12.8630 N   0  0  0  0  0  0  0  0  0  0  0  0
    6.9350    5.3690  -13.0680 C   0  0  0  0  0  0  0  0  0  0  0  0
    5.3750    7.2090  -13.9140 C   0  0  0  0  0  0  0  0  0  0  0  0
    4.1950    6.8090  -13.2470 N   0  0  0  0  0  0  0  0  0  0  0  0
    4.2780    6.0900  -12.4720 H   0  0  0  0  0  0  0  0  0  0  0  0
    5.2990    8.0530  -14.8280 O   0  0  0  0  0  0  0  0  0  0  0  0
    2.9380    7.2850  -13.5280 N   0  0  0  0  0  0  0  0  0  0  0  0
    1.9630    7.3560  -12.6980 C   0  0  0  0  0  3  0  0  0  0  0  0
    0.6620    7.8760  -13.0870 C   0  0  0  0  0  0  0  0  0  0  0  0
    0.3140    9.2130  -12.9810 C   0  0  0  0  0  3  0  0  0  0  0  0
   -0.9240    9.6780  -13.3560 C   0  0  0  0  0  0  0  0  0  0  0  0
   -1.8250    8.7610  -13.8490 C   0  0  0  0  0  0  0  0  0  0  0  0
   -1.5100    7.4130  -13.9690 C   0  0  0  0  0  0  0  0  0  0  0  0
   -2.7630    6.1510  -14.6530 Br  0  0  0  0  0  0  0  0  0  0  0  0
   -0.2700    6.9930  -13.5860 C   0  0  0  0  0  3  0  0  0  0  0  0
   -1.3040   10.9960  -13.2660 O   0  0  0  0  0  0  0  0  0  0  0  0
   -0.5690   12.1070  -13.6600 C   0  0  0  0  0  2  0  0  0  0  0  0
   -0.7340   13.3150  -12.7950 C   0  0  0  0  0  1  0  0  0  0  0  0
   -3.0940    9.1740  -14.2450 O   0  0  0  0  0  0  0  0  0  0  0  0
   -3.7090    9.6210  -13.5760 H   0  0  0  0  0  0  0  0  0  0  0  0
    5.8590    4.4080  -12.8180 C   0  0  0  0  0  2  0  0  0  0  0  0
    5.4680    3.5640  -13.9190 N   0  0  0  0  0  0  0  0  0  0  0  0
    6.3680    2.4080  -13.8360 C   0  0  0  0  0  2  0  0  0  0  0  0
    6.2650    1.6250  -12.5880 C   0  0  0  0  0  2  0  0  0  0  0  0
    4.9720    1.6350  -12.0880 O   0  0  0  0  0  0  0  0  0  0  0  0
    4.0960    1.6870  -13.1500 C   0  0  0  0  0  2  0  0  0  0  0  0
    4.0960    3.0960  -13.7100 C   0  0  0  0  0  2  0  0  0  0  0  0
    9.0090    4.1340  -12.3530 C   0  0  0  0  0  0  0  0  0  0  0  0
    8.9830    3.5850  -11.1280 N   0  0  0  0  0  0  0  0  0  0  0  0
    9.8360    2.5890  -11.0850 O   0  0  0  0  0  0  0  0  0  0  0  0
   10.4370    2.4500  -12.2420 N   0  0  0  0  0  0  0  0  0  0  0  0
    9.9390    3.4020  -13.0520 C   0  0  0  0  0  0  0  0  0  0  0  0
   10.3440    3.5710  -14.4020 N   0  0  0  0  0  0  0  0  0  0  0  0
    9.9670    3.0140  -15.1960 H   0  0  0  0  0  0  0  0  0  0  0  0
   11.0660    4.2910  -14.6610 H   0  0  0  0  0  0  0  0  0  0  0  0
  1  5  2  0  0  0  0
  2  1  1  0  0  0  0
  2  3  2  0  0  0  0
  3  4  1  0  0  0  0
  4 31  1  0  0  0  0
  5  4  1  0  0  0  0
  5 24  1  0  0  0  0
  6  1  1  0  0  0  0
  6  7  1  0  0  0  0
  7  8  1  0  0  0  0
  9  6  2  0  0  0  0
 10  7  1  0  0  0  0
 10 11  2  0  0  0  0
 12 13  1  0  0  0  0
 12 11  1  0  0  0  0
 14 19  1  0  0  0  0
 14 13  2  0  0  0  0
 15 14  1  0  0  0  0
 16 15  2  0  0  0  0
 16 18  1  0  0  0  0
 17 16  1  0  0  0  0
 18 12  2  0  0  0  0
 20 19  1  0  0  0  0
 20 21  1  0  0  0  0
 22 15  1  0  0  0  0
 22 23  1  0  0  0  0
 25 26  1  0  0  0  0
 25 30  1  0  0  0  0
 25 24  1  0  0  0  0
 26 27  1  0  0  0  0
 27 28  1  0  0  0  0
 29 28  1  0  0  0  0
 30 29  1  0  0  0  0
 31 32  2  0  0  0  0
 32 33  1  0  0  0  0
 34 33  1  0  0  0  0
 35 31  1  0  0  0  0
 35 34  2  0  0  0  0
 36 35  1  0  0  0  0
 37 36  1  0  0  0  0
 38 36  1  0  0  0  0
M  END
>  <Pose>
1

>  <Score>
-7.510

$$$$
