/Users/jonathanwahrer/Desktop/Msc/3_Semester/Drug_Design_Praktikum/waehrer_HTS_screening/HTS_experiment/out/docking_results/vina_output/6q9y/0020_docked.pdbqt
 OpenBabel03222219013D

 34 37  0  0  0  0  0  0  0  0999 V2000
    2.3380    9.2690  -14.8330 C   0  0  0  0  0  0  0  0  0  0  0  0
    2.5830   10.4760  -14.3590 N   0  0  0  0  0  4  0  0  0  0  0  0
    1.6350   11.1600  -13.6560 C   0  0  0  0  0  0  0  0  0  0  0  0
    0.4540   10.5210  -13.4830 N   0  0  0  0  0  0  0  0  0  0  0  0
    0.1470    9.2930  -13.9430 C   0  0  0  0  0  0  0  0  0  0  0  0
    1.1300    8.6740  -14.6350 N   0  0  0  0  0  2  0  0  0  0  0  0
    3.3660    8.3760  -15.4170 N   0  0  0  0  0  0  0  0  0  0  0  0
    3.1680    8.0400  -16.3390 H   0  0  0  0  0  0  0  0  0  0  0  0
    4.3580    8.2260  -14.5760 N   0  0  0  0  0  2  0  0  0  0  0  0
    5.2380    8.1130  -13.8280 C   0  0  0  0  0  2  0  0  0  0  0  0
    6.1340    6.9650  -13.5780 C   0  0  0  0  0  0  0  0  0  0  0  0
    5.7170    5.7030  -13.2680 C   0  0  0  0  0  3  0  0  0  0  0  0
    6.6060    4.6370  -13.2650 C   0  0  0  0  0  0  0  0  0  0  0  0
    7.9490    4.8440  -13.5730 C   0  0  0  0  0  0  0  0  0  0  0  0
    8.3800    6.1060  -13.8760 C   0  0  0  0  0  0  0  0  0  0  0  0
   10.2240    6.3920  -14.3240 Br  0  0  0  0  0  0  0  0  0  0  0  0
    7.4670    7.1380  -13.8740 C   0  0  0  0  0  3  0  0  0  0  0  0
    6.2660    3.3540  -12.9690 O   0  0  0  0  0  0  0  0  0  0  0  0
    5.2980    2.5430  -13.5350 C   0  0  0  0  0  2  0  0  0  0  0  0
    4.0460    2.4300  -12.6780 C   0  0  0  0  0  1  0  0  0  0  0  0
    8.8680    3.8170  -13.5870 O   0  0  0  0  0  0  0  0  0  0  0  0
    9.0510    3.2230  -12.8150 H   0  0  0  0  0  0  0  0  0  0  0  0
    1.8860   12.4170  -13.0580 N   0  0  0  0  0  0  0  0  0  0  0  0
    3.2660   12.7890  -12.7030 C   0  0  0  0  0  2  0  0  0  0  0  0
    3.1660   13.3530  -11.2620 C   0  0  0  0  0  2  0  0  0  0  0  0
    2.4660   14.5180  -11.4010 O   0  0  0  0  0  0  0  0  0  0  0  0
    1.1490   14.3410  -11.7190 C   0  0  0  0  0  2  0  0  0  0  0  0
    0.8390   13.3150  -12.7590 C   0  0  0  0  0  2  0  0  0  0  0  0
   -1.0260    8.6450  -13.6000 N   0  0  0  0  0  0  0  0  0  0  0  0
   -1.3260    7.2650  -13.5700 C   0  0  0  0  0  2  0  0  0  0  0  0
   -2.4530    7.0400  -14.5830 C   0  0  0  0  0  2  0  0  0  0  0  0
   -3.4890    7.8830  -14.2470 O   0  0  0  0  0  0  0  0  0  0  0  0
   -3.2010    9.2280  -14.2890 C   0  0  0  0  0  2  0  0  0  0  0  0
   -2.1450    9.5460  -13.1920 C   0  0  0  0  0  2  0  0  0  0  0  0
  1  6  1  0  0  0  0
  1  2  2  0  0  0  0
  2  3  2  0  0  0  0
  3  4  1  0  0  0  0
  3 23  1  0  0  0  0
  5 29  1  0  0  0  0
  5  4  2  0  0  0  0
  6  5  1  0  0  0  0
  7  1  1  0  0  0  0
  7  9  1  0  0  0  0
  8  7  1  0  0  0  0
  9 10  1  0  0  0  0
 10 11  1  0  0  0  0
 11 12  1  0  0  0  0
 12 13  2  0  0  0  0
 13 18  1  0  0  0  0
 14 13  1  0  0  0  0
 15 17  1  0  0  0  0
 15 14  2  0  0  0  0
 16 15  1  0  0  0  0
 17 11  2  0  0  0  0
 19 18  1  0  0  0  0
 19 20  1  0  0  0  0
 21 14  1  0  0  0  0
 21 22  1  0  0  0  0
 23 28  1  0  0  0  0
 23 24  1  0  0  0  0
 24 25  1  0  0  0  0
 26 25  1  0  0  0  0
 27 26  1  0  0  0  0
 28 27  1  0  0  0  0
 29 30  1  0  0  0  0
 29 34  1  0  0  0  0
 31 32  1  0  0  0  0
 31 30  1  0  0  0  0
 33 32  1  0  0  0  0
 33 34  1  0  0  0  0
M  END
>  <Pose>
1

>  <Score>
-8.282

$$$$
