/Users/jonathanwahrer/Desktop/Msc/3_Semester/Drug_Design_Praktikum/waehrer_HTS_screening/HTS_experiment/out/docking_results/vina_output/6q9y/0023_docked.pdbqt
 OpenBabel03222219013D

 37 40  0  0  1  0  0  0  0  0999 V2000
    2.0120    8.2070  -13.9190 C   0  0  1  0  0  3  0  0  0  0  0  0
    3.3020    7.5530  -13.9850 N   0  0  0  0  0  0  0  0  0  0  0  0
    3.4670    6.6330  -12.9440 C   0  0  0  0  0  0  0  0  0  0  0  0
    4.5070    6.0170  -12.6680 O   0  0  0  0  0  0  0  0  0  0  0  0
    2.1890    6.5300  -12.2380 C   0  0  0  0  0  0  0  0  0  0  0  0
    2.0220    5.7780  -11.2440 O   0  0  0  0  0  0  0  0  0  0  0  0
    1.2460    7.4150  -12.8890 C   0  0  1  0  0  3  0  0  0  0  0  0
   -0.0190    7.5230  -12.5860 C   0  0  1  0  0  3  0  0  0  0  0  0
   -0.3870    7.9930  -11.3360 O   0  0  0  0  0  1  0  0  0  0  0  0
   -1.0620    7.1730  -13.5190 C   0  0  0  0  0  0  0  0  0  0  0  0
   -2.0240    8.1710  -13.7230 C   0  0  0  0  0  3  0  0  0  0  0  0
   -3.0560    7.9910  -14.6110 C   0  0  0  0  0  0  0  0  0  0  0  0
   -3.1610    6.8160  -15.3180 C   0  0  0  0  0  0  0  0  0  0  0  0
   -4.1800    8.9160  -14.9660 C   0  0  0  0  0  2  0  0  0  0  0  0
   -2.2000    5.8460  -15.0990 C   0  0  0  0  0  3  0  0  0  0  0  0
   -4.3000    6.9030  -16.1450 O   0  0  0  0  0  0  0  0  0  0  0  0
   -1.1570    6.0100  -14.2140 C   0  0  0  0  0  3  0  0  0  0  0  0
   -5.1200    7.9660  -15.6700 C   0  0  1  0  0  3  0  0  0  0  0  0
   -6.1380    7.4880  -14.6520 C   0  0  0  0  0  1  0  0  0  0  0  0
    2.2500    9.5980  -13.4500 C   0  0  0  0  0  0  0  0  0  0  0  0
    1.1910   10.4800  -13.5890 C   0  0  0  0  0  3  0  0  0  0  0  0
    1.2690   11.7740  -13.1950 C   0  0  0  0  0  0  0  0  0  0  0  0
    2.4550   12.2290  -12.6320 C   0  0  0  0  0  0  0  0  0  0  0  0
    3.5260   11.3340  -12.4920 C   0  0  0  0  0  0  0  0  0  0  0  0
    5.1430   11.9550  -11.7230 Br  0  0  0  0  0  0  0  0  0  0  0  0
    3.4340   10.0180  -12.8970 C   0  0  0  0  0  3  0  0  0  0  0  0
    0.2000   12.6620  -13.3360 O   0  0  0  0  0  0  0  0  0  0  0  0
   -1.1420   12.2740  -13.2130 C   0  0  0  0  0  1  0  0  0  0  0  0
    2.5490   13.5370  -12.2290 O   0  0  0  0  0  0  0  0  0  0  0  0
    2.8800   13.7620  -11.3230 H   0  0  0  0  0  0  0  0  0  0  0  0
    4.2550    7.8710  -15.0290 C   0  0  0  0  0  2  0  0  0  0  0  0
    5.5620    8.3840  -14.5940 C   0  0  0  0  0  2  0  0  0  0  0  0
    6.7430    7.4960  -14.7340 C   0  0  0  0  0  2  0  0  0  0  0  0
    7.0660    6.7470  -13.5450 N   0  0  0  0  0  4  0  0  0  0  0  0
    7.7630    7.6300  -12.5990 C   0  0  0  0  0  1  0  0  0  0  0  0
    8.0080    5.7120  -13.9310 C   0  0  0  0  0  1  0  0  0  0  0  0
    6.2730    6.2870  -13.0890 H   0  0  0  0  0  0  0  0  0  0  0  0
  1 20  1  1  0  0  0
  1  7  1  0  0  0  0
  2  1  1  0  0  0  0
  2  3  1  0  0  0  0
  3  4  2  0  0  0  0
  3  5  1  0  0  0  0
  5  6  2  0  0  0  0
  7  8  1  1  0  0  0
  7  5  1  0  0  0  0
  8  9  1  6  0  0  0
 10  8  1  0  0  0  0
 11 10  1  0  0  0  0
 12 11  2  0  0  0  0
 13 15  2  0  0  0  0
 13 12  1  0  0  0  0
 14 12  1  0  0  0  0
 15 17  1  0  0  0  0
 16 18  1  0  0  0  0
 16 13  1  0  0  0  0
 17 10  2  0  0  0  0
 18 14  1  0  0  0  0
 18 19  1  1  0  0  0
 20 26  1  0  0  0  0
 21 20  2  0  0  0  0
 21 22  1  0  0  0  0
 22 23  2  0  0  0  0
 23 24  1  0  0  0  0
 23 29  1  0  0  0  0
 24 25  1  0  0  0  0
 26 24  2  0  0  0  0
 27 28  1  0  0  0  0
 27 22  1  0  0  0  0
 29 30  1  0  0  0  0
 31 32  1  0  0  0  0
 31  2  1  0  0  0  0
 33 32  1  0  0  0  0
 33 34  1  0  0  0  0
 34 37  1  0  0  0  0
 34 35  1  0  0  0  0
 36 34  1  0  0  0  0
M  END
>  <Pose>
1

>  <Score>
-6.797

$$$$
