/Users/jonathanwahrer/Desktop/Msc/3_Semester/Drug_Design_Praktikum/waehrer_HTS_screening/HTS_experiment/out/docking_results/vina_output/6q9y/0033_docked.pdbqt
 OpenBabel03222219023D

 33 36  0  0  0  0  0  0  0  0999 V2000
    2.1110    9.7520  -14.7390 C   0  0  0  0  0  0  0  0  0  0  0  0
    2.0040   10.9680  -14.2260 N   0  0  0  0  0  4  0  0  0  0  0  0
    0.9830   11.3780  -13.4550 C   0  0  0  0  0  0  0  0  0  0  0  0
    0.0140   10.4710  -13.1990 N   0  0  0  0  0  0  0  0  0  0  0  0
    0.0680    9.2070  -13.6960 C   0  0  0  0  0  0  0  0  0  0  0  0
    1.1300    8.8650  -14.4670 N   0  0  0  0  0  2  0  0  0  0  0  0
    3.2140    9.4180  -15.5720 N   0  0  0  0  0  0  0  0  0  0  0  0
    3.3840    9.9630  -16.4250 H   0  0  0  0  0  0  0  0  0  0  0  0
    4.0520    8.3670  -15.2410 N   0  0  0  0  0  0  0  0  0  0  0  0
    4.8610    8.3750  -14.2380 C   0  0  0  0  0  3  0  0  0  0  0  0
    5.7220    7.2500  -13.9350 C   0  0  0  0  0  0  0  0  0  0  0  0
    5.1880    6.1010  -13.3540 C   0  0  0  0  0  0  0  0  0  0  0  0
    5.9530    5.0120  -13.0240 C   0  0  0  0  0  3  0  0  0  0  0  0
    7.3150    4.9970  -13.2590 C   0  0  0  0  0  0  0  0  0  0  0  0
    7.8680    6.1280  -13.8380 C   0  0  0  0  0  0  0  0  0  0  0  0
    9.7380    6.1380  -14.1810 Br  0  0  0  0  0  0  0  0  0  0  0  0
    7.0810    7.2170  -14.1620 C   0  0  0  0  0  3  0  0  0  0  0  0
    3.8100    6.1080  -13.1150 O   0  0  0  0  0  0  0  0  0  0  0  0
    3.2560    6.8580  -13.5180 H   0  0  0  0  0  0  0  0  0  0  0  0
    8.0830    3.8850  -12.9210 O   0  0  0  0  0  0  0  0  0  0  0  0
    8.3830    3.1880  -13.5860 H   0  0  0  0  0  0  0  0  0  0  0  0
    0.9080   12.7120  -12.9240 N   0  0  0  0  0  0  0  0  0  0  0  0
    2.0630   13.3620  -12.3710 C   0  0  0  0  0  2  0  0  0  0  0  0
    1.9400   14.8080  -12.0890 C   0  0  0  0  0  2  0  0  0  0  0  0
    0.6350   15.2800  -12.0480 O   0  0  0  0  0  0  0  0  0  0  0  0
   -0.1070   14.8620  -13.1440 C   0  0  0  0  0  2  0  0  0  0  0  0
   -0.3570   13.3850  -12.9620 C   0  0  0  0  0  2  0  0  0  0  0  0
   -0.9570    8.2760  -13.4350 N   0  0  0  0  0  0  0  0  0  0  0  0
   -2.3190    8.5280  -13.8310 C   0  0  0  0  0  2  0  0  0  0  0  0
   -2.7410    7.2940  -14.6410 C   0  0  0  0  0  2  0  0  0  0  0  0
   -2.4940    6.1610  -13.8930 O   0  0  0  0  0  0  0  0  0  0  0  0
   -1.1220    5.9440  -13.7730 C   0  0  0  0  0  2  0  0  0  0  0  0
   -0.6510    7.0290  -12.7800 C   0  0  0  0  0  2  0  0  0  0  0  0
  1  6  1  0  0  0  0
  1  2  2  0  0  0  0
  2  3  2  0  0  0  0
  3  4  1  0  0  0  0
  3 22  1  0  0  0  0
  5 28  1  0  0  0  0
  5  4  2  0  0  0  0
  6  5  1  0  0  0  0
  7  9  1  0  0  0  0
  7  1  1  0  0  0  0
  8  7  1  0  0  0  0
  9 10  2  0  0  0  0
 10 11  1  0  0  0  0
 11 12  1  0  0  0  0
 12 18  1  0  0  0  0
 12 13  2  0  0  0  0
 14 13  1  0  0  0  0
 14 20  1  0  0  0  0
 15 14  2  0  0  0  0
 16 15  1  0  0  0  0
 17 11  2  0  0  0  0
 17 15  1  0  0  0  0
 19 18  1  0  0  0  0
 21 20  1  0  0  0  0
 22 23  1  0  0  0  0
 23 24  1  0  0  0  0
 24 25  1  0  0  0  0
 26 27  1  0  0  0  0
 26 25  1  0  0  0  0
 27 22  1  0  0  0  0
 28 33  1  0  0  0  0
 29 28  1  0  0  0  0
 30 31  1  0  0  0  0
 30 29  1  0  0  0  0
 31 32  1  0  0  0  0
 32 33  1  0  0  0  0
M  END
>  <Pose>
1

>  <Score>
-8.405

$$$$
