/Users/jonathanwahrer/Desktop/Msc/3_Semester/Drug_Design_Praktikum/waehrer_HTS_screening/HTS_experiment/out/docking_results/vina_output/6q9y/0035_docked.pdbqt
 OpenBabel03222219023D

 33 36  0  0  0  0  0  0  0  0999 V2000
    2.6160    8.8100  -13.7430 C   0  0  0  0  0  0  0  0  0  0  0  0
    2.4630   10.1290  -13.5960 N   0  0  0  0  0  4  0  0  0  0  0  0
    1.2390   10.7070  -13.4660 C   0  0  0  0  0  0  0  0  0  0  0  0
    0.1490    9.9240  -13.4870 N   0  0  0  0  0  0  0  0  0  0  0  0
    0.2690    8.5950  -13.6330 C   0  0  0  0  0  0  0  0  0  0  0  0
    1.5160    8.0520  -13.7610 N   0  0  0  0  0  2  0  0  0  0  0  0
    3.9150    8.2730  -13.8650 N   0  0  0  0  0  0  0  0  0  0  0  0
    4.6860    8.9170  -14.1380 H   0  0  0  0  0  0  0  0  0  0  0  0
    4.1840    6.8980  -13.6230 N   0  0  0  0  0  0  0  0  0  0  0  0
    5.4020    6.4700  -13.5490 C   0  0  0  0  0  3  0  0  0  0  0  0
    5.7740    5.0980  -13.3080 C   0  0  0  0  0  0  0  0  0  0  0  0
    7.0860    4.7000  -13.2040 C   0  0  0  0  0  0  0  0  0  0  0  0
    8.4270    6.0440  -13.3830 Br  0  0  0  0  0  0  0  0  0  0  0  0
    7.4400    3.3820  -12.9800 C   0  0  0  0  0  0  0  0  0  0  0  0
    6.4450    2.4240  -12.8540 C   0  0  0  0  0  3  0  0  0  0  0  0
    5.1240    2.7970  -12.9550 C   0  0  0  0  0  0  0  0  0  0  0  0
    4.8100    4.1290  -13.1800 C   0  0  0  0  0  3  0  0  0  0  0  0
    8.7680    3.0120  -12.8810 O   0  0  0  0  0  0  0  0  0  0  0  0
    9.3410    3.4700  -12.1840 H   0  0  0  0  0  0  0  0  0  0  0  0
    4.1620    1.8070  -12.8230 O   0  0  0  0  0  0  0  0  0  0  0  0
    4.0250    1.2540  -11.9880 H   0  0  0  0  0  0  0  0  0  0  0  0
    1.1900   12.1080  -13.3200 N   0  0  0  0  0  0  0  0  0  0  0  0
   -0.0030   12.8150  -13.7010 C   0  0  0  0  0  2  0  0  0  0  0  0
   -0.4290   13.5910  -12.4450 C   0  0  0  0  0  2  0  0  0  0  0  0
    0.6170   14.4760  -12.1830 O   0  0  0  0  0  0  0  0  0  0  0  0
    1.7650   13.8170  -11.7550 C   0  0  0  0  0  2  0  0  0  0  0  0
    2.3040   12.8650  -12.8040 C   0  0  0  0  0  2  0  0  0  0  0  0
   -0.8850    7.7560  -13.6580 N   0  0  0  0  0  0  0  0  0  0  0  0
   -0.8380    6.3300  -13.4370 C   0  0  0  0  0  2  0  0  0  0  0  0
   -1.6730    5.5990  -14.4670 C   0  0  0  0  0  2  0  0  0  0  0  0
   -2.2610    6.4590  -15.3820 O   0  0  0  0  0  0  0  0  0  0  0  0
   -3.0580    7.3890  -14.6870 C   0  0  0  0  0  2  0  0  0  0  0  0
   -2.1760    8.3570  -13.9230 C   0  0  0  0  0  2  0  0  0  0  0  0
  1  2  2  0  0  0  0
  2  3  2  0  0  0  0
  3 22  1  0  0  0  0
  4  3  1  0  0  0  0
  5  4  2  0  0  0  0
  6  1  1  0  0  0  0
  6  5  1  0  0  0  0
  7  1  1  0  0  0  0
  7  9  1  0  0  0  0
  8  7  1  0  0  0  0
  9 10  2  0  0  0  0
 10 11  1  0  0  0  0
 11 12  2  0  0  0  0
 11 17  1  0  0  0  0
 12 14  1  0  0  0  0
 13 12  1  0  0  0  0
 14 18  1  0  0  0  0
 14 15  2  0  0  0  0
 16 15  1  0  0  0  0
 16 20  1  0  0  0  0
 17 16  2  0  0  0  0
 18 19  1  0  0  0  0
 20 21  1  0  0  0  0
 22 27  1  0  0  0  0
 23 22  1  0  0  0  0
 23 24  1  0  0  0  0
 24 25  1  0  0  0  0
 25 26  1  0  0  0  0
 27 26  1  0  0  0  0
 28  5  1  0  0  0  0
 28 29  1  0  0  0  0
 30 29  1  0  0  0  0
 31 32  1  0  0  0  0
 31 30  1  0  0  0  0
 32 33  1  0  0  0  0
 33 28  1  0  0  0  0
M  END
>  <Pose>
1

>  <Score>
-7.940

$$$$
