/Users/jonathanwahrer/Desktop/Msc/3_Semester/Drug_Design_Praktikum/waehrer_HTS_screening/HTS_experiment/out/docking_results/vina_output/6q9y/0037_docked.pdbqt
 OpenBabel03222219033D

 27 30  0  0  1  0  0  0  0  0999 V2000
   -2.0230    9.1180  -13.7310 N   0  0  0  0  0  0  0  0  0  0  0  0
   -3.1750    9.8670  -13.2870 C   0  0  0  0  0  2  0  0  0  0  0  0
   -4.2240    9.4510  -14.2950 C   0  0  1  0  0  3  0  0  0  0  0  0
   -4.0060    7.9490  -14.3410 C   0  0  0  0  0  2  0  0  0  0  0  0
   -2.5200    7.9160  -14.2910 C   0  0  0  0  0  0  0  0  0  0  0  0
   -1.8230    6.9590  -14.6890 O   0  0  0  0  0  0  0  0  0  0  0  0
   -5.5900    9.7970  -13.8520 C   0  0  0  0  0  0  0  0  0  0  0  0
   -6.0400    9.3970  -12.7520 O   0  0  0  0  0  0  0  0  0  0  0  0
   -6.3980   10.5950  -14.6890 N   0  0  0  0  0  0  0  0  0  0  0  0
   -6.0360   10.9290  -15.6000 H   0  0  0  0  0  0  0  0  0  0  0  0
   -7.7370   10.9600  -14.2960 C   0  0  0  0  0  2  0  0  0  0  0  0
   -8.6110   11.1640  -15.4850 C   0  0  0  0  0  0  0  0  0  0  0  0
   -9.4110   12.2260  -15.7570 N   0  0  0  0  0  0  0  0  0  0  0  0
  -10.0330   12.0280  -16.9310 C   0  0  0  0  0  0  0  0  0  0  0  0
   -9.7890   13.4940  -15.1600 C   0  0  0  0  0  2  0  0  0  0  0  0
   -9.5940   10.8200  -17.3690 N   0  0  0  0  0  0  0  0  0  0  0  0
  -10.9280   13.1850  -17.2620 C   0  0  0  0  0  2  0  0  0  0  0  0
   -8.7440   10.3020  -16.5060 N   0  0  0  0  0  0  0  0  0  0  0  0
  -11.0230   13.9040  -15.9360 C   0  0  0  0  0  2  0  0  0  0  0  0
   -0.6820    9.5660  -13.5920 C   0  0  0  0  0  0  0  0  0  0  0  0
    0.4040    8.7280  -13.4580 C   0  0  0  0  0  3  0  0  0  0  0  0
    1.7010    9.1420  -13.3250 C   0  0  0  0  0  0  0  0  0  0  0  0
    1.9390   10.5120  -13.3240 C   0  0  0  0  0  0  0  0  0  0  0  0
    2.8510    8.2080  -13.1840 C   0  0  0  0  0  1  0  0  0  0  0  0
    3.7350   11.1230  -13.1370 Br  0  0  0  0  0  0  0  0  0  0  0  0
    0.8930   11.4020  -13.4540 C   0  0  0  0  0  3  0  0  0  0  0  0
   -0.3990   10.9350  -13.5860 C   0  0  0  0  0  3  0  0  0  0  0  0
  1 20  1  0  0  0  0
  1  2  1  0  0  0  0
  3  7  1  1  0  0  0
  3  2  1  0  0  0  0
  4  3  1  0  0  0  0
  4  5  1  0  0  0  0
  5  1  1  0  0  0  0
  6  5  2  0  0  0  0
  7  8  2  0  0  0  0
  9 11  1  0  0  0  0
  9  7  1  0  0  0  0
 10  9  1  0  0  0  0
 12 11  1  0  0  0  0
 13 12  1  0  0  0  0
 13 15  1  0  0  0  0
 14 13  1  0  0  0  0
 16 14  2  0  0  0  0
 16 18  1  0  0  0  0
 17 14  1  0  0  0  0
 17 19  1  0  0  0  0
 18 12  2  0  0  0  0
 19 15  1  0  0  0  0
 20 27  2  0  0  0  0
 20 21  1  0  0  0  0
 21 22  2  0  0  0  0
 22 23  1  0  0  0  0
 22 24  1  0  0  0  0
 23 25  1  0  0  0  0
 26 23  2  0  0  0  0
 27 26  1  0  0  0  0
M  END
>  <Pose>
1

>  <Score>
-10.260

$$$$
