/Users/jonathanwahrer/Desktop/Msc/3_Semester/Drug_Design_Praktikum/waehrer_HTS_screening/HTS_experiment/out/docking_results/vina_output/6q9y/0039_docked.pdbqt
 OpenBabel03222219033D

 21 23  0  0  1  0  0  0  0  0999 V2000
    1.6770   11.0550  -12.8390 N   0  0  0  0  0  0  0  0  0  0  0  0
    2.1700   10.2560  -13.8710 C   0  0  0  0  0  0  0  0  0  0  0  0
    2.0750   10.6000  -15.0580 O   0  0  0  0  0  0  0  0  0  0  0  0
    1.8070   10.6740  -11.8540 H   0  0  0  0  0  0  0  0  0  0  0  0
    2.8190    8.9730  -13.5340 C   0  0  0  0  0  2  0  0  0  0  0  0
    1.9550    7.9420  -13.0600 N   0  0  1  0  0  4  0  0  0  0  0  0
    2.7210    6.6860  -13.0630 C   0  0  0  0  0  2  0  0  0  0  0  0
    2.0730    5.7680  -12.0570 C   0  0  0  0  0  2  0  0  0  0  0  0
    0.6320    5.9720  -12.1950 N   0  0  1  0  0  0  0  0  0  0  0  0
    0.3360    7.1860  -11.4400 C   0  0  0  0  0  2  0  0  0  0  0  0
    0.3230    6.2600  -13.5870 C   0  0  0  0  0  2  0  0  0  0  0  0
    1.4460    8.1900  -11.7130 C   0  0  0  0  0  2  0  0  0  0  0  0
    0.8050    7.6860  -13.9030 C   0  0  0  0  0  2  0  0  0  0  0  0
    1.0270   12.3070  -12.9270 C   0  0  0  0  0  0  0  0  0  0  0  0
    1.6430   13.4650  -12.4320 C   0  0  0  0  0  0  0  0  0  0  0  0
    3.3820   13.2260  -11.6480 Br  0  0  0  0  0  0  0  0  0  0  0  0
    1.0610   14.7080  -12.4900 C   0  0  0  0  0  3  0  0  0  0  0  0
   -0.1810   14.8950  -13.0470 C   0  0  0  0  0  0  0  0  0  0  0  0
   -0.8040   13.7750  -13.5390 C   0  0  0  0  0  3  0  0  0  0  0  0
   -0.8230   16.2430  -13.1150 C   0  0  0  0  0  1  0  0  0  0  0  0
   -0.2190   12.5080  -13.4830 C   0  0  0  0  0  3  0  0  0  0  0  0
  1  4  1  0  0  0  0
  2  5  1  0  0  0  0
  2  1  1  0  0  0  0
  3  2  2  0  0  0  0
  6  5  1  6  0  0  0
  6 12  1  0  0  0  0
  7  6  1  0  0  0  0
  7  8  1  0  0  0  0
  9 11  1  6  0  0  0
  9  8  1  0  0  0  0
  9 10  1  0  0  0  0
 12 10  1  0  0  0  0
 13 11  1  0  0  0  0
 13  6  1  0  0  0  0
 14  1  1  0  0  0  0
 14 15  1  0  0  0  0
 15 16  1  0  0  0  0
 17 15  2  0  0  0  0
 18 17  1  0  0  0  0
 19 21  1  0  0  0  0
 19 18  2  0  0  0  0
 20 18  1  0  0  0  0
 21 14  2  0  0  0  0
M  END
>  <Pose>
1

>  <Score>
-7.105

$$$$
