/Users/jonathanwahrer/Desktop/Msc/3_Semester/Drug_Design_Praktikum/waehrer_HTS_screening/HTS_experiment/out/docking_results/vina_output/6q9y/0056_docked.pdbqt
 OpenBabel03222219033D

 24 27  0  0  1  0  0  0  0  0999 V2000
    0.8040    8.3970  -14.3320 C   0  0  1  0  0  3  0  0  0  0  0  0
    1.9100    9.2470  -14.3690 C   0  0  1  0  0  0  0  0  0  0  0  0
    2.8030    9.9300  -13.3920 C   0  0  0  0  0  0  0  0  0  0  0  0
    3.8410    8.8690  -13.4270 N   0  0  0  0  0  2  0  0  0  0  0  0
    3.2350    7.7240  -13.4690 C   0  0  1  0  0  3  0  0  0  0  0  0
    1.8300    7.9860  -13.4540 C   0  0  2  0  0  0  0  0  0  0  0  0
    1.4290    8.1970  -12.0310 C   0  0  0  0  0  0  0  0  0  0  0  0
    1.0920    8.3470  -10.9070 N   0  0  0  0  0  0  0  0  0  0  0  0
    3.3100   11.0840  -14.0000 O   0  0  0  0  0  0  0  0  0  0  0  0
    3.1010   12.1290  -13.1210 C   0  0  0  0  0  2  0  0  0  0  0  0
    3.0370   11.4170  -11.7810 C   0  0  0  0  0  2  0  0  0  0  0  0
    2.3410   10.2480  -12.1790 O   0  0  0  0  0  0  0  0  0  0  0  0
    2.7280    9.0670  -15.6210 C   0  0  0  0  0  0  0  0  0  0  0  0
    3.3570    8.9090  -16.6090 N   0  0  0  0  0  0  0  0  0  0  0  0
   -0.4780    8.9740  -13.8490 C   0  0  0  0  0  0  0  0  0  0  0  0
   -1.5890    8.2010  -13.6260 C   0  0  0  0  0  0  0  0  0  0  0  0
   -1.5710    6.3130  -13.9060 Br  0  0  0  0  0  0  0  0  0  0  0  0
   -2.7500    8.8180  -13.1810 C   0  0  0  0  0  3  0  0  0  0  0  0
   -2.8080   10.1980  -12.9560 C   0  0  0  0  0  3  0  0  0  0  0  0
   -1.6830   10.9540  -13.1850 C   0  0  0  0  0  3  0  0  0  0  0  0
   -0.5250   10.3310  -13.6300 C   0  0  0  0  0  3  0  0  0  0  0  0
    3.8790    6.4310  -13.5220 N   0  0  0  0  0  0  0  0  0  0  0  0
    3.4720    5.6510  -14.0710 H   0  0  0  0  0  0  0  0  0  0  0  0
    4.7640    6.2590  -13.0090 H   0  0  0  0  0  0  0  0  0  0  0  0
  1 15  1  1  0  0  0
  1  6  1  0  0  0  0
  2 13  1  6  0  0  0
  2  1  1  0  0  0  0
  2  6  1  0  0  0  0
  2  3  1  0  0  0  0
  3 12  1  0  0  0  0
  4  3  1  0  0  0  0
  5 22  1  6  0  0  0
  5  6  1  0  0  0  0
  5  4  1  0  0  0  0
  6  7  1  1  0  0  0
  7  8  3  0  0  0  0
  9  3  1  0  0  0  0
  9 10  1  0  0  0  0
 10 11  1  0  0  0  0
 12 11  1  0  0  0  0
 14 13  3  0  0  0  0
 15 21  2  0  0  0  0
 15 16  1  0  0  0  0
 16 18  2  0  0  0  0
 17 16  1  0  0  0  0
 18 19  1  0  0  0  0
 20 19  2  0  0  0  0
 21 20  1  0  0  0  0
 22 24  1  0  0  0  0
 23 22  1  0  0  0  0
M  END
>  <Pose>
1

>  <Score>
-5.470

$$$$
