/Users/jonathanwahrer/Desktop/Msc/3_Semester/Drug_Design_Praktikum/waehrer_HTS_screening/HTS_experiment/out/docking_results/vina_output/6q9y/0085_docked.pdbqt
 OpenBabel03222219033D

 26 29  0  0  0  0  0  0  0  0999 V2000
   -0.4470   13.7520  -12.8530 C   0  0  0  0  0  0  0  0  0  0  0  0
    0.9100   13.6330  -12.4930 C   0  0  0  0  0  0  0  0  0  0  0  0
    1.7220   14.4790  -11.8030 N   0  0  0  0  0  0  0  0  0  0  0  0
    2.8890   13.9150  -11.7310 O   0  0  0  0  0  0  0  0  0  0  0  0
    2.8770   12.7640  -12.3300 N   0  0  0  0  0  0  0  0  0  0  0  0
    1.6560   12.5340  -12.8290 C   0  0  0  0  0  0  0  0  0  0  0  0
    1.1320   11.4740  -13.5400 C   0  0  0  0  0  0  0  0  0  0  0  0
   -0.1990   11.5950  -13.8920 C   0  0  0  0  0  3  0  0  0  0  0  0
   -0.9680   12.7080  -13.5550 C   0  0  0  0  0  3  0  0  0  0  0  0
   -1.1190   14.9340  -12.4510 N   0  0  0  0  0  0  0  0  0  0  0  0
   -1.2010   16.1090  -13.1940 C   0  0  0  0  0  0  0  0  0  0  0  0
   -0.6420   16.1760  -14.3510 O   0  0  0  0  0  0  0  0  0  0  0  0
   -1.6220   14.9540  -11.5130 H   0  0  0  0  0  0  0  0  0  0  0  0
   -1.9060   17.3240  -12.7370 C   0  0  0  0  0  0  0  0  0  0  0  0
   -3.0210   17.9080  -13.2430 C   0  0  0  0  0  0  0  0  0  0  0  0
   -4.1200   17.3470  -14.7010 Br  0  0  0  0  0  0  0  0  0  0  0  0
   -3.2690   19.0560  -12.4640 C   0  0  0  0  0  3  0  0  0  0  0  0
   -2.3000   19.0820  -11.5560 N   0  0  0  0  0  0  0  0  0  0  0  0
   -1.4680   18.0810  -11.6730 N   0  0  0  0  0  0  0  0  0  0  0  0
   -0.3150   17.8170  -10.8520 C   0  0  0  0  0  1  0  0  0  0  0  0
    1.8850   10.3400  -13.8930 N   0  0  0  0  0  0  0  0  0  0  0  0
    1.9930    9.2500  -12.9280 C   0  0  0  0  0  2  0  0  0  0  0  0
    2.9670    8.1980  -13.3840 C   0  0  0  0  0  2  0  0  0  0  0  0
    4.0900    8.6510  -13.9930 O   0  0  0  0  0  0  0  0  0  0  0  0
    4.0240    9.8120  -14.7060 C   0  0  0  0  0  2  0  0  0  0  0  0
    2.5910   10.0840  -15.1120 C   0  0  0  0  0  2  0  0  0  0  0  0
  1  2  1  0  0  0  0
  1 10  1  0  0  0  0
  2  3  2  0  0  0  0
  3  4  1  0  0  0  0
  5  4  1  0  0  0  0
  6  2  1  0  0  0  0
  6  5  2  0  0  0  0
  7  6  1  0  0  0  0
  8  9  1  0  0  0  0
  8  7  2  0  0  0  0
  9  1  2  0  0  0  0
 10 13  1  0  0  0  0
 11 14  1  0  0  0  0
 11 10  1  0  0  0  0
 12 11  2  0  0  0  0
 14 19  1  0  0  0  0
 15 14  2  0  0  0  0
 15 17  1  0  0  0  0
 16 15  1  0  0  0  0
 17 18  2  0  0  0  0
 19 18  1  0  0  0  0
 19 20  1  0  0  0  0
 21  7  1  0  0  0  0
 21 22  1  0  0  0  0
 23 22  1  0  0  0  0
 24 23  1  0  0  0  0
 25 24  1  0  0  0  0
 26 25  1  0  0  0  0
 26 21  1  0  0  0  0
M  END
>  <Pose>
1

>  <Score>
-7.746

$$$$
