/Users/jonathanwahrer/Desktop/Msc/3_Semester/Drug_Design_Praktikum/waehrer_HTS_screening/HTS_experiment/out/docking_results/vina_output/6q9y/0095_docked.pdbqt
 OpenBabel03222219043D

 26 29  0  0  0  0  0  0  0  0999 V2000
    3.4970    9.1890  -14.4620 C   0  0  0  0  0  0  0  0  0  0  0  0
    3.3590    9.2300  -15.7270 O   0  0  0  0  0  0  0  0  0  0  0  0
    3.2670   10.2250  -13.5880 N   0  0  0  0  0  0  0  0  0  0  0  0
    2.9250   11.0400  -14.6230 H   0  0  0  0  0  0  0  0  0  0  0  0
    3.9600    7.8630  -13.9040 C   0  0  0  0  0  0  0  0  0  0  0  0
    5.2750    7.4780  -13.9790 C   0  0  0  0  0  3  0  0  0  0  0  0
    5.6420    6.2330  -13.4550 C   0  0  0  0  0  0  0  0  0  0  0  0
    7.4490    5.6780  -13.5470 Br  0  0  0  0  0  0  0  0  0  0  0  0
    4.7030    5.4140  -12.8770 C   0  0  0  0  0  3  0  0  0  0  0  0
    3.3810    5.8020  -12.8020 C   0  0  0  0  0  3  0  0  0  0  0  0
    3.0180    7.0540  -13.3290 C   0  0  0  0  0  0  0  0  0  0  0  0
    1.6810    7.5200  -13.2790 N   0  0  0  0  0  0  0  0  0  0  0  0
    1.1140    8.0060  -12.1920 N   0  0  0  0  0  0  0  0  0  0  0  0
   -0.1290    8.3630  -12.4320 N   0  0  0  0  0  0  0  0  0  0  0  0
   -0.3920    8.1080  -13.7040 N   0  0  0  0  0  0  0  0  0  0  0  0
    0.7270    7.5880  -14.2190 C   0  0  0  0  0  3  0  0  0  0  0  0
    3.0370   11.2540  -12.7190 C   0  0  0  0  0  2  0  0  0  0  0  0
    1.7340   11.9950  -12.9700 C   0  0  0  0  0  0  0  0  0  0  0  0
    1.5030   13.2870  -12.6500 N   0  0  0  0  0  0  0  0  0  0  0  0
    0.2590   13.6360  -13.0020 C   0  0  0  0  0  0  0  0  0  0  0  0
    2.3150   14.2100  -12.0590 C   0  0  0  0  0  3  0  0  0  0  0  0
   -0.2850   12.5390  -13.5510 N   0  0  0  0  0  0  0  0  0  0  0  0
   -0.2110   14.9350  -12.7700 C   0  0  0  0  0  3  0  0  0  0  0  0
    0.6090   11.5400  -13.5320 N   0  0  0  0  0  0  0  0  0  0  0  0
    0.5990   15.8650  -12.1790 C   0  0  0  0  0  3  0  0  0  0  0  0
    1.8820   15.5050  -11.8160 C   0  0  0  0  0  3  0  0  0  0  0  0
  1  5  1  0  0  0  0
  1  3  1  0  0  0  0
  2  1  2  0  0  0  0
  3 17  1  0  0  0  0
  4  3  1  0  0  0  0
  5 11  1  0  0  0  0
  6  5  2  0  0  0  0
  6  7  1  0  0  0  0
  7  9  2  0  0  0  0
  8  7  1  0  0  0  0
  9 10  1  0  0  0  0
 11 12  1  0  0  0  0
 11 10  2  0  0  0  0
 12 13  1  0  0  0  0
 14 13  2  0  0  0  0
 15 14  1  0  0  0  0
 16 15  2  0  0  0  0
 16 12  1  0  0  0  0
 18 17  1  0  0  0  0
 18 19  1  0  0  0  0
 19 21  1  0  0  0  0
 20 23  1  0  0  0  0
 20 19  1  0  0  0  0
 21 26  2  0  0  0  0
 22 24  1  0  0  0  0
 22 20  2  0  0  0  0
 23 25  2  0  0  0  0
 24 18  2  0  0  0  0
 25 26  1  0  0  0  0
M  END
>  <Pose>
1

>  <Score>
-8.394

$$$$
