/Users/jonathanwahrer/Desktop/Msc/3_Semester/Drug_Design_Praktikum/waehrer_HTS_screening/HTS_experiment/out/docking_results/vina_output/6q9y/0127_docked.pdbqt
 OpenBabel03222219043D

 29 32  0  0  0  0  0  0  0  0999 V2000
    2.2610    6.3350  -12.8280 N   0  0  0  0  0  0  0  0  0  0  0  0
    2.3040    7.4620  -13.6840 C   0  0  0  0  0  2  0  0  0  0  0  0
    1.0240    7.8440  -14.3220 C   0  0  0  0  0  2  0  0  0  0  0  0
   -0.0160    7.9790  -13.3530 N   0  0  0  0  0  0  0  0  0  0  0  0
    0.1330    7.3140  -12.0910 C   0  0  0  0  0  2  0  0  0  0  0  0
    1.0400    6.1070  -12.1380 C   0  0  0  0  0  2  0  0  0  0  0  0
   -1.1980    8.7240  -13.6080 C   0  0  0  0  0  0  0  0  0  0  0  0
   -2.2550    8.0730  -14.0890 C   0  0  0  0  0  0  0  0  0  0  0  0
   -2.5320    6.7290  -14.4430 N   0  0  0  0  0  0  0  0  0  0  0  0
   -3.4660    8.8850  -14.3390 C   0  0  0  0  0  0  0  0  0  0  0  0
   -3.8720    6.7340  -14.8930 N   0  0  0  0  0  0  0  0  0  0  0  0
   -1.6340    5.6030  -14.3610 C   0  0  0  0  0  1  0  0  0  0  0  0
   -4.3810    8.0510  -14.8080 C   0  0  0  0  0  0  0  0  0  0  0  0
   -4.3440    5.8650  -15.2200 H   0  0  0  0  0  0  0  0  0  0  0  0
   -5.7490    8.5010  -15.1800 C   0  0  0  0  0  1  0  0  0  0  0  0
   -3.4540   10.2820  -14.0630 N   0  0  0  0  0  0  0  0  0  0  0  0
   -2.4050   10.8630  -13.5970 C   0  0  0  0  0  3  0  0  0  0  0  0
   -1.2240   10.1410  -13.3400 N   0  0  0  0  0  0  0  0  0  0  0  0
   -0.3570   10.5640  -12.9660 H   0  0  0  0  0  0  0  0  0  0  0  0
    3.4470    6.0220  -12.1310 C   0  0  0  0  0  2  0  0  0  0  0  0
    4.3170    5.0690  -12.8230 C   0  0  0  0  0  0  0  0  0  0  0  0
    3.8840    3.9140  -13.0700 O   0  0  0  0  0  0  0  0  0  0  0  0
    5.6620    5.4860  -13.2050 C   0  0  0  0  0  0  0  0  0  0  0  0
    6.6980    4.5900  -13.2060 C   0  0  0  0  0  3  0  0  0  0  0  0
    7.9900    4.9530  -13.5640 C   0  0  0  0  0  0  0  0  0  0  0  0
    9.4260    3.7050  -13.5650 Br  0  0  0  0  0  0  0  0  0  0  0  0
    8.2410    6.2570  -13.9300 C   0  0  0  0  0  3  0  0  0  0  0  0
    7.1820    7.1540  -13.9260 C   0  0  0  0  0  3  0  0  0  0  0  0
    5.9070    6.7890  -13.5710 C   0  0  0  0  0  3  0  0  0  0  0  0
  1  6  1  0  0  0  0
  1 20  1  0  0  0  0
  2  1  1  0  0  0  0
  3  2  1  0  0  0  0
  3  4  1  0  0  0  0
  4  5  1  0  0  0  0
  6  5  1  0  0  0  0
  7  4  1  0  0  0  0
  7 18  1  0  0  0  0
  8  7  2  0  0  0  0
  9 12  1  0  0  0  0
  9  8  1  0  0  0  0
 10  8  1  0  0  0  0
 10 16  1  0  0  0  0
 11 13  1  0  0  0  0
 11  9  1  0  0  0  0
 13 10  2  0  0  0  0
 14 11  1  0  0  0  0
 15 13  1  0  0  0  0
 16 17  2  0  0  0  0
 17 18  1  0  0  0  0
 18 19  1  0  0  0  0
 21 20  1  0  0  0  0
 22 21  2  0  0  0  0
 23 21  1  0  0  0  0
 24 23  1  0  0  0  0
 25 24  2  0  0  0  0
 26 25  1  0  0  0  0
 27 28  2  0  0  0  0
 27 25  1  0  0  0  0
 28 29  1  0  0  0  0
 29 23  2  0  0  0  0
M  END
>  <Pose>
1

>  <Score>
-8.106

$$$$
