/Users/jonathanwahrer/Desktop/Msc/3_Semester/Drug_Design_Praktikum/waehrer_HTS_screening/HTS_experiment/out/docking_results/vina_output/6q9y/0129_docked.pdbqt
 OpenBabel03222219053D

 31 34  0  0  1  0  0  0  0  0999 V2000
   -4.7220    8.3140  -14.4480 C   0  0  0  0  0  0  0  0  0  0  0  0
   -5.5370    7.3870  -14.7480 O   0  0  0  0  0  0  0  0  0  0  0  0
   -3.3170    8.0970  -14.5320 N   0  0  0  0  0  0  0  0  0  0  0  0
   -2.3530    9.0520  -14.0480 C   0  0  0  0  0  2  0  0  0  0  0  0
   -1.6850    8.3010  -12.8710 C   0  0  0  0  0  2  0  0  0  0  0  0
   -0.8030    7.2730  -13.5280 C   0  0  2  0  0  0  0  0  0  0  0  0
   -0.4450    6.3110  -12.4880 N   0  0  0  0  0  0  0  0  0  0  0  0
    0.1870    6.9040  -11.3690 C   0  0  0  0  0  2  0  0  0  0  0  0
    1.5250    7.5380  -11.7060 C   0  0  0  0  0  2  0  0  0  0  0  0
    1.5340    8.1080  -13.0660 C   0  0  0  0  0  0  0  0  0  0  0  0
    2.5020    8.8000  -13.6900 N   0  0  0  0  0  0  0  0  0  0  0  0
    2.0470    9.1010  -14.9260 C   0  0  0  0  0  3  0  0  0  0  0  0
    0.7950    8.5910  -15.0510 N   0  0  0  0  0  0  0  0  0  0  0  0
    0.4480    7.9690  -13.9070 C   0  0  0  0  0  0  0  0  0  0  0  0
   -1.4240    6.5260  -14.6560 C   0  0  0  0  0  3  0  0  0  0  0  0
   -2.7990    6.9000  -15.0920 C   0  0  0  0  0  3  0  0  0  0  0  0
    0.0910    5.4920  -12.8740 H   0  0  0  0  0  0  0  0  0  0  0  0
    0.2840    8.7240  -15.9460 H   0  0  0  0  0  0  0  0  0  0  0  0
   -5.3000    9.5750  -14.0070 C   0  0  2  0  0  3  0  0  0  0  0  0
   -5.5920    9.5130  -12.5160 C   0  0  0  0  0  1  0  0  0  0  0  0
   -6.3750   10.0360  -14.8070 N   0  0  0  0  0  0  0  0  0  0  0  0
   -7.2890   11.0170  -14.4330 C   0  0  0  0  0  0  0  0  0  0  0  0
   -7.3540   11.6960  -13.4240 O   0  0  0  0  0  0  0  0  0  0  0  0
   -6.4330    9.6160  -15.7830 H   0  0  0  0  0  0  0  0  0  0  0  0
   -8.3730   11.2490  -15.4600 C   0  0  0  0  0  0  0  0  0  0  0  0
   -9.1310   12.3920  -15.3260 C   0  0  0  0  0  3  0  0  0  0  0  0
  -10.1560   12.6280  -16.2120 C   0  0  0  0  0  0  0  0  0  0  0  0
  -11.2110   14.2310  -16.0400 Br  0  0  0  0  0  0  0  0  0  0  0  0
  -10.4550   11.7530  -17.2350 C   0  0  0  0  0  3  0  0  0  0  0  0
   -9.6560   10.6100  -17.3210 C   0  0  0  0  0  3  0  0  0  0  0  0
   -8.6310   10.3590  -16.4520 C   0  0  0  0  0  3  0  0  0  0  0  0
  1 19  1  0  0  0  0
  2  1  2  0  0  0  0
  3  1  1  0  0  0  0
  3  4  1  0  0  0  0
  4  5  1  0  0  0  0
  6 15  1  6  0  0  0
  6  5  1  0  0  0  0
  6  7  1  0  0  0  0
  7  8  1  0  0  0  0
  9  8  1  0  0  0  0
 10  9  1  0  0  0  0
 11 10  1  0  0  0  0
 12 11  2  0  0  0  0
 13 12  1  0  0  0  0
 13 14  1  0  0  0  0
 14  6  1  0  0  0  0
 14 10  2  0  0  0  0
 16 15  2  0  0  0  0
 16  3  1  0  0  0  0
 17  7  1  0  0  0  0
 18 13  1  0  0  0  0
 19 20  1  1  0  0  0
 21 22  1  0  0  0  0
 21 19  1  0  0  0  0
 22 23  2  0  0  0  0
 24 21  1  0  0  0  0
 25 26  1  0  0  0  0
 25 22  1  0  0  0  0
 27 28  1  0  0  0  0
 27 26  2  0  0  0  0
 29 27  1  0  0  0  0
 30 29  2  0  0  0  0
 30 31  1  0  0  0  0
 31 25  2  0  0  0  0
M  END
>  <Pose>
1

>  <Score>
-10.413

$$$$
