/Users/jonathanwahrer/Desktop/Msc/3_Semester/Drug_Design_Praktikum/waehrer_HTS_screening/HTS_experiment/out/docking_results/vina_output/6q9y/0130_docked.pdbqt
 OpenBabel03222219053D

 30 33  0  0  1  0  0  0  0  0999 V2000
    0.3400    7.6910  -13.2280 C   0  0  0  0  0  0  0  0  0  0  0  0
    0.1920    7.2800  -12.0230 O   0  0  0  0  0  0  0  0  0  0  0  0
    1.5550    8.2260  -13.6740 N   0  0  0  0  0  0  0  0  0  0  0  0
    1.7550    8.6970  -15.0070 C   0  0  0  0  0  2  0  0  0  0  0  0
    2.6540    9.9000  -15.0700 C   0  0  0  0  0  2  0  0  0  0  0  0
    2.7560   10.6840  -13.7800 C   0  0  1  0  0  0  0  0  0  0  0  0
    3.8790   11.5830  -14.0100 N   0  0  0  0  0  0  0  0  0  0  0  0
    4.0790   12.5910  -13.0410 C   0  0  0  0  0  2  0  0  0  0  0  0
    2.9520   12.9140  -12.1300 C   0  0  0  0  0  2  0  0  0  0  0  0
    1.6280   12.6180  -12.7610 C   0  0  0  0  0  0  0  0  0  0  0  0
    0.4510   13.2390  -12.6900 N   0  0  0  0  0  0  0  0  0  0  0  0
   -0.3890   12.5250  -13.4670 C   0  0  0  0  0  3  0  0  0  0  0  0
    0.2590   11.4720  -14.0130 N   0  0  0  0  0  0  0  0  0  0  0  0
    1.5490   11.5150  -13.5720 C   0  0  0  0  0  0  0  0  0  0  0  0
    3.0080    9.8300  -12.5640 C   0  0  0  0  0  2  0  0  0  0  0  0
    2.7040    8.3600  -12.7850 C   0  0  0  0  0  2  0  0  0  0  0  0
    4.7140   10.9330  -14.0780 H   0  0  0  0  0  0  0  0  0  0  0  0
   -0.1580   10.7700  -14.6470 H   0  0  0  0  0  0  0  0  0  0  0  0
   -0.8870    7.5460  -14.0920 C   0  0  0  0  0  2  0  0  0  0  0  0
   -1.8270    8.5250  -13.8110 N   0  0  0  0  0  0  0  0  0  0  0  0
   -2.7230    9.4590  -13.5420 C   0  0  0  0  0  0  0  0  0  0  0  0
   -2.5800   10.5300  -12.8530 O   0  0  0  0  0  0  0  0  0  0  0  0
   -0.8740    9.2080  -13.0750 H   0  0  0  0  0  0  0  0  0  0  0  0
   -4.1140    9.2900  -14.0940 C   0  0  0  0  0  0  0  0  0  0  0  0
   -5.1060   10.1950  -13.8230 C   0  0  0  0  0  3  0  0  0  0  0  0
   -6.3910   10.0110  -14.3090 C   0  0  0  0  0  0  0  0  0  0  0  0
   -7.7250   11.2870  -13.9180 Br  0  0  0  0  0  0  0  0  0  0  0  0
   -6.6300    8.8920  -15.0670 C   0  0  0  0  0  3  0  0  0  0  0  0
   -5.6260    7.9810  -15.3390 C   0  0  0  0  0  3  0  0  0  0  0  0
   -4.3320    8.1740  -14.8450 C   0  0  0  0  0  3  0  0  0  0  0  0
  1  2  2  0  0  0  0
  3  1  1  0  0  0  0
  3 16  1  0  0  0  0
  4  3  1  0  0  0  0
  5  4  1  0  0  0  0
  6  5  1  6  0  0  0
  6 14  1  0  0  0  0
  6 15  1  0  0  0  0
  7  6  1  0  0  0  0
  7  8  1  0  0  0  0
  8  9  1  0  0  0  0
 10 11  1  0  0  0  0
 10  9  1  0  0  0  0
 12 11  2  0  0  0  0
 13 14  1  0  0  0  0
 13 12  1  0  0  0  0
 14 10  2  0  0  0  0
 16 15  1  0  0  0  0
 17  7  1  0  0  0  0
 18 13  1  0  0  0  0
 19 20  1  0  0  0  0
 19  1  1  0  0  0  0
 20 21  1  0  0  0  0
 20 23  1  0  0  0  0
 21 22  2  0  0  0  0
 24 25  1  0  0  0  0
 24 21  1  0  0  0  0
 26 27  1  0  0  0  0
 26 25  2  0  0  0  0
 28 26  1  0  0  0  0
 29 28  2  0  0  0  0
 29 30  1  0  0  0  0
 30 24  2  0  0  0  0
M  END
>  <Pose>
1

>  <Score>
-8.747

$$$$
