/Users/jonathanwahrer/Desktop/Msc/3_Semester/Drug_Design_Praktikum/waehrer_HTS_screening/HTS_experiment/out/docking_results/vina_output/6q9y/0131_docked.pdbqt
 OpenBabel03222219053D

 30 33  0  0  1  0  0  0  0  0999 V2000
   -1.5180    6.3620  -13.9900 C   0  0  0  0  0  0  0  0  0  0  0  0
   -1.1510    5.1720  -13.8310 O   0  0  0  0  0  0  0  0  0  0  0  0
   -0.8120    7.3900  -13.3460 N   0  0  0  0  0  0  0  0  0  0  0  0
   -1.1730    8.7800  -13.4790 C   0  0  0  0  0  2  0  0  0  0  0  0
   -0.0190    9.4680  -14.1750 C   0  0  0  0  0  2  0  0  0  0  0  0
    1.2730    9.1330  -13.4700 C   0  0  1  0  0  0  0  0  0  0  0  0
    2.1160    8.4110  -14.4000 N   0  0  0  0  0  0  0  0  0  0  0  0
    3.4270    8.1300  -13.9260 C   0  0  0  0  0  2  0  0  0  0  0  0
    4.1030    9.1900  -13.1360 C   0  0  0  0  0  2  0  0  0  0  0  0
    3.3490   10.4570  -13.0290 C   0  0  0  0  0  0  0  0  0  0  0  0
    3.7390   11.7460  -12.7870 N   0  0  0  0  0  0  0  0  0  0  0  0
    2.6270   12.4900  -12.7970 C   0  0  0  0  0  3  0  0  0  0  0  0
    1.5680   11.7000  -13.0380 N   0  0  0  0  0  0  0  0  0  0  0  0
    1.9830   10.4170  -13.1890 C   0  0  0  0  0  0  0  0  0  0  0  0
    1.1030    8.3590  -12.2020 C   0  0  0  0  0  2  0  0  0  0  0  0
    0.3200    7.0790  -12.5110 C   0  0  0  0  0  2  0  0  0  0  0  0
    1.6470    7.4950  -14.6260 H   0  0  0  0  0  0  0  0  0  0  0  0
    4.7450   12.0460  -12.6270 H   0  0  0  0  0  0  0  0  0  0  0  0
   -2.6950    6.5940  -14.8680 C   0  0  0  0  0  2  0  0  0  0  0  0
   -3.6030    7.5660  -14.2980 N   0  0  0  0  0  0  0  0  0  0  0  0
   -4.7100    8.0690  -15.0180 C   0  0  0  0  0  0  0  0  0  0  0  0
   -4.8850    7.6390  -16.1870 O   0  0  0  0  0  0  0  0  0  0  0  0
   -3.4380    7.9060  -13.3300 H   0  0  0  0  0  0  0  0  0  0  0  0
   -5.6380    9.0470  -14.4690 C   0  0  0  0  0  0  0  0  0  0  0  0
   -6.5820    9.7090  -15.2310 C   0  0  0  0  0  3  0  0  0  0  0  0
   -7.4510   10.6340  -14.6810 C   0  0  0  0  0  0  0  0  0  0  0  0
   -8.7140   11.4940  -15.8000 Br  0  0  0  0  0  0  0  0  0  0  0  0
   -7.3930   10.9260  -13.3170 C   0  0  0  0  0  3  0  0  0  0  0  0
   -6.4470   10.2570  -12.5730 C   0  0  0  0  0  3  0  0  0  0  0  0
   -5.5800    9.3370  -13.1130 C   0  0  0  0  0  3  0  0  0  0  0  0
  1  2  2  0  0  0  0
  1  3  1  0  0  0  0
  3 16  1  0  0  0  0
  4  3  1  0  0  0  0
  5  4  1  0  0  0  0
  6  5  1  6  0  0  0
  6 14  1  0  0  0  0
  6 15  1  0  0  0  0
  7  8  1  0  0  0  0
  7  6  1  0  0  0  0
  8  9  1  0  0  0  0
  9 10  1  0  0  0  0
 10 11  1  0  0  0  0
 11 18  1  0  0  0  0
 12 11  1  0  0  0  0
 13 12  2  0  0  0  0
 14 13  1  0  0  0  0
 14 10  2  0  0  0  0
 16 15  1  0  0  0  0
 17  7  1  0  0  0  0
 19 20  1  0  0  0  0
 19  1  1  0  0  0  0
 20 23  1  0  0  0  0
 21 24  1  0  0  0  0
 21 20  1  0  0  0  0
 22 21  2  0  0  0  0
 24 30  1  0  0  0  0
 25 26  1  0  0  0  0
 25 24  2  0  0  0  0
 26 28  2  0  0  0  0
 27 26  1  0  0  0  0
 28 29  1  0  0  0  0
 30 29  2  0  0  0  0
M  END
>  <Pose>
1

>  <Score>
-8.670

$$$$
