/Users/jonathanwahrer/Desktop/Msc/3_Semester/Drug_Design_Praktikum/waehrer_HTS_screening/HTS_experiment/out/docking_results/vina_output/6q9y/0137_docked.pdbqt
 OpenBabel03222219053D

 25 28  0  0  1  0  0  0  0  0999 V2000
   -1.0980   16.3960  -13.4670 C   0  0  2  0  0  3  0  0  0  0  0  0
   -1.4070   14.8700  -13.2420 C   0  0  0  0  0  2  0  0  0  0  0  0
   -0.1160   14.2760  -13.1600 N   0  0  0  0  0  0  0  0  0  0  0  0
    0.8610   15.3020  -12.8240 C   0  0  1  0  0  3  0  0  0  0  0  0
    0.0560   16.4680  -12.4200 C   0  0  0  0  0  2  0  0  0  0  0  0
    1.8330   14.7790  -11.8500 C   0  0  0  0  0  0  0  0  0  0  0  0
    2.2220   15.5100  -10.9230 O   0  0  0  0  0  0  0  0  0  0  0  0
    2.3210   13.4580  -11.9670 N   0  0  0  0  0  0  0  0  0  0  0  0
    1.4670   12.4270  -12.5130 C   0  0  2  0  0  3  0  0  0  0  0  0
    2.3940   11.4740  -13.2410 C   0  0  0  0  0  2  0  0  0  0  0  0
    3.7650   11.9800  -12.9570 C   0  0  0  0  0  2  0  0  0  0  0  0
    3.5790   12.7860  -11.6630 C   0  0  0  0  0  2  0  0  0  0  0  0
    0.3790   12.9530  -13.3310 C   0  0  0  0  0  0  0  0  0  0  0  0
   -0.1560   12.2180  -14.2320 O   0  0  0  0  0  0  0  0  0  0  0  0
   -2.1530   17.1780  -13.2730 N   0  0  0  0  0  0  0  0  0  0  0  0
   -3.2460   17.9860  -13.0800 C   0  0  0  0  0  0  0  0  0  0  0  0
   -4.2920   18.1270  -13.7860 O   0  0  0  0  0  0  0  0  0  0  0  0
   -2.7290   16.7120  -14.4340 H   0  0  0  0  0  0  0  0  0  0  0  0
   -3.2940   18.8800  -11.8600 C   0  0  0  0  0  0  0  0  0  0  0  0
   -4.4130   19.6230  -11.5680 C   0  0  0  0  0  3  0  0  0  0  0  0
   -4.4880   20.4410  -10.4680 C   0  0  0  0  0  0  0  0  0  0  0  0
   -6.0450   21.4460  -10.0480 Br  0  0  0  0  0  0  0  0  0  0  0  0
   -3.3710   20.4950   -9.6400 C   0  0  0  0  0  3  0  0  0  0  0  0
   -2.2430   19.7690   -9.9000 C   0  0  0  0  0  3  0  0  0  0  0  0
   -2.2090   18.9540  -11.0250 C   0  0  0  0  0  3  0  0  0  0  0  0
  1 15  1  1  0  0  0
  1  2  1  0  0  0  0
  1  5  1  0  0  0  0
  2  3  1  0  0  0  0
  3  4  1  0  0  0  0
  4  5  1  1  0  0  0
  4  6  1  0  0  0  0
  6  7  2  0  0  0  0
  8  6  1  0  0  0  0
  8 12  1  0  0  0  0
  9 10  1  6  0  0  0
  9  8  1  0  0  0  0
 10 11  1  0  0  0  0
 11 12  1  0  0  0  0
 13  3  1  0  0  0  0
 13  9  1  0  0  0  0
 14 13  2  0  0  0  0
 15 16  1  0  0  0  0
 16 19  1  0  0  0  0
 17 16  2  0  0  0  0
 18 15  1  0  0  0  0
 19 20  2  0  0  0  0
 19 25  1  0  0  0  0
 20 21  1  0  0  0  0
 21 22  1  0  0  0  0
 21 23  2  0  0  0  0
 24 23  1  0  0  0  0
 25 24  2  0  0  0  0
M  END
>  <Pose>
1

>  <Score>
-9.865

$$$$
