/Users/jonathanwahrer/Desktop/Msc/3_Semester/Drug_Design_Praktikum/waehrer_HTS_screening/HTS_experiment/out/docking_results/vina_output/6q9y/0152_docked.pdbqt
 OpenBabel03222219063D

 27 30  0  0  0  0  0  0  0  0999 V2000
   -1.6340   11.9370  -13.3620 C   0  0  0  0  0  3  0  0  0  0  0  0
   -1.8330   10.6500  -13.6700 C   0  0  0  0  0  0  0  0  0  0  0  0
   -0.9270    9.6750  -13.6080 O   0  0  0  0  0  0  0  0  0  0  0  0
   -1.5190    8.4420  -13.9800 C   0  0  0  0  0  0  0  0  0  0  0  0
   -2.8270    8.6060  -14.2870 C   0  0  0  0  0  0  0  0  0  0  0  0
   -3.5740    7.4730  -14.6010 C   0  0  0  0  0  3  0  0  0  0  0  0
   -2.9910    6.2450  -14.6200 C   0  0  0  0  0  3  0  0  0  0  0  0
   -1.6470    6.1140  -14.3330 C   0  0  0  0  0  0  0  0  0  0  0  0
   -0.8510    7.1860  -14.0080 C   0  0  0  0  0  0  0  0  0  0  0  0
   -1.0910    4.8340  -14.3760 O   0  0  0  0  0  1  0  0  0  0  0  0
   -3.1000   10.0530  -14.1120 C   0  0  0  0  0  0  0  0  0  0  0  0
   -4.1810   10.6370  -14.3080 O   0  0  0  0  0  0  0  0  0  0  0  0
   -0.2990   12.3910  -12.8870 C   0  0  0  0  0  0  0  0  0  0  0  0
   -0.1440   13.7160  -12.4530 C   0  0  0  0  0  3  0  0  0  0  0  0
    1.1200   14.3110  -12.3420 C   0  0  0  0  0  0  0  0  0  0  0  0
    1.2000   16.1280  -11.7650 Br  0  0  0  0  0  0  0  0  0  0  0  0
    2.2360   13.6210  -12.6450 C   0  0  0  0  0  3  0  0  0  0  0  0
    2.1250   12.2750  -13.0840 C   0  0  0  0  0  3  0  0  0  0  0  0
    0.8400   11.7000  -13.1870 C   0  0  0  0  0  3  0  0  0  0  0  0
    0.5870    7.3040  -14.1370 C   0  0  0  0  0  2  0  0  0  0  0  0
    1.6180    8.1090  -13.8140 N   0  0  0  0  0  4  0  0  0  0  0  0
    2.8500    7.7340  -13.2710 C   0  0  0  0  0  2  0  0  0  0  0  0
    3.9670    7.5500  -14.3220 C   0  0  0  0  0  2  0  0  0  0  0  0
    4.3170    8.7170  -14.9580 O   0  0  0  0  0  0  0  0  0  0  0  0
    3.1680    9.4790  -15.2020 C   0  0  0  0  0  2  0  0  0  0  0  0
    1.9600    8.7010  -15.2110 C   0  0  0  0  0  2  0  0  0  0  0  0
    1.2440    8.9790  -13.2760 H   0  0  0  0  0  0  0  0  0  0  0  0
  1 13  1  0  0  0  0
  2  3  1  0  0  0  0
  2  1  2  0  0  0  0
  4  3  1  0  0  0  0
  5 11  1  0  0  0  0
  5  4  2  0  0  0  0
  6  5  1  0  0  0  0
  7  6  2  0  0  0  0
  7  8  1  0  0  0  0
  8  9  2  0  0  0  0
  9  4  1  0  0  0  0
 10  8  1  0  0  0  0
 11  2  1  0  0  0  0
 12 11  2  0  0  0  0
 13 14  1  0  0  0  0
 14 15  2  0  0  0  0
 15 16  1  0  0  0  0
 17 15  1  0  0  0  0
 18 17  2  0  0  0  0
 19 18  1  0  0  0  0
 19 13  2  0  0  0  0
 20  9  1  0  0  0  0
 20 21  1  0  0  0  0
 21 27  1  0  0  0  0
 21 22  1  0  0  0  0
 23 22  1  0  0  0  0
 24 23  1  0  0  0  0
 25 24  1  0  0  0  0
 26 25  1  0  0  0  0
 26 21  1  0  0  0  0
M  END
>  <Pose>
1

>  <Score>
-8.792

$$$$
