/Users/jonathanwahrer/Desktop/Msc/3_Semester/Drug_Design_Praktikum/waehrer_HTS_screening/HTS_experiment/out/docking_results/vina_output/6q9y/0153_docked.pdbqt
 OpenBabel03222219063D

 34 37  0  0  0  0  0  0  0  0999 V2000
   -0.1190    6.3240  -13.0700 C   0  0  0  0  0  0  0  0  0  0  0  0
   -0.8120    5.3750  -13.5980 N   0  0  0  0  0  0  0  0  0  0  0  0
   -1.8530    5.8810  -14.2510 N   0  0  0  0  0  0  0  0  0  0  0  0
   -1.8280    7.2340  -14.1250 N   0  0  0  0  0  0  0  0  0  0  0  0
   -0.7810    7.5590  -13.4420 C   0  0  0  0  0  0  0  0  0  0  0  0
    1.0370    6.3000  -12.0800 C   0  0  0  0  0  0  0  0  0  0  0  0
    2.2000    5.7750  -12.5640 N   0  0  0  0  0  0  0  0  0  0  0  0
    1.9490    5.5990  -13.7490 H   0  0  0  0  0  0  0  0  0  0  0  0
    0.8140    6.7710  -10.9440 O   0  0  0  0  0  0  0  0  0  0  0  0
    3.4580    5.3990  -12.4900 N   0  0  0  0  0  0  0  0  0  0  0  0
    4.4540    5.7750  -13.2410 C   0  0  0  0  0  3  0  0  0  0  0  0
    5.8250    5.2580  -13.0650 C   0  0  0  0  0  0  0  0  0  0  0  0
    6.9250    6.0220  -12.7220 C   0  0  0  0  0  3  0  0  0  0  0  0
    8.1370    5.3890  -12.4520 C   0  0  0  0  0  0  0  0  0  0  0  0
    9.6920    6.3800  -11.9250 Br  0  0  0  0  0  0  0  0  0  0  0  0
    8.3110    4.0110  -12.5060 C   0  0  0  0  0  3  0  0  0  0  0  0
    7.1890    3.3090  -12.8630 C   0  0  0  0  0  3  0  0  0  0  0  0
    5.9830    3.8860  -13.1330 C   0  0  0  0  0  3  0  0  0  0  0  0
   -0.1530    8.8070  -13.0190 C   0  0  0  0  0  2  0  0  0  0  0  0
    0.3370    9.7590  -13.9070 N   0  0  0  0  0  0  0  0  0  0  0  0
    0.3390   11.0990  -13.9850 C   0  0  0  0  0  2  0  0  0  0  0  0
    1.7830   11.6040  -13.7160 C   0  0  0  0  0  2  0  0  0  0  0  0
    2.4370   10.6130  -12.9380 N   0  0  0  0  0  0  0  0  0  0  0  0
    2.7060    9.4420  -13.7170 C   0  0  0  0  0  2  0  0  0  0  0  0
    3.4180   10.9930  -12.0110 C   0  0  0  0  0  1  0  0  0  0  0  0
    1.5130    9.2250  -14.6560 C   0  0  0  0  0  2  0  0  0  0  0  0
   -3.0870    7.9340  -14.3390 C   0  0  0  0  0  0  0  0  0  0  0  0
   -4.1740    7.0600  -14.7100 N   0  0  0  0  0  0  0  0  0  0  0  0
   -5.2270    7.7060  -14.8880 O   0  0  0  0  0  0  0  0  0  0  0  0
   -4.9930    8.9660  -14.6850 N   0  0  0  0  0  0  0  0  0  0  0  0
   -3.6480    9.0920  -14.3390 C   0  0  0  0  0  0  0  0  0  0  0  0
   -3.1260   10.3710  -14.0560 N   0  0  0  0  0  0  0  0  0  0  0  0
   -2.9240   10.9440  -14.9480 H   0  0  0  0  0  0  0  0  0  0  0  0
   -2.9120   10.8360  -13.1950 H   0  0  0  0  0  0  0  0  0  0  0  0
  1  6  1  0  0  0  0
  2  1  1  0  0  0  0
  3  4  1  0  0  0  0
  3  2  2  0  0  0  0
  4  5  1  0  0  0  0
  5  1  2  0  0  0  0
  5 19  1  0  0  0  0
  6  9  2  0  0  0  0
  7 10  1  0  0  0  0
  7  6  1  0  0  0  0
  8  7  1  0  0  0  0
 11 12  1  0  0  0  0
 11 10  2  0  0  0  0
 12 13  1  0  0  0  0
 13 14  2  0  0  0  0
 14 15  1  0  0  0  0
 16 14  1  0  0  0  0
 17 16  2  0  0  0  0
 18 12  2  0  0  0  0
 18 17  1  0  0  0  0
 20 19  1  0  0  0  0
 21 20  1  0  0  0  0
 21 22  1  0  0  0  0
 22 23  1  0  0  0  0
 23 25  1  0  0  0  0
 24 23  1  0  0  0  0
 26 20  1  0  0  0  0
 26 24  1  0  0  0  0
 27  4  1  0  0  0  0
 28 27  2  0  0  0  0
 29 28  1  0  0  0  0
 29 30  1  0  0  0  0
 30 31  2  0  0  0  0
 31 27  1  0  0  0  0
 31 32  1  0  0  0  0
 32 34  1  0  0  0  0
 33 32  1  0  0  0  0
M  END
>  <Pose>
1

>  <Score>
-8.573

$$$$
