/Users/jonathanwahrer/Desktop/Msc/3_Semester/Drug_Design_Praktikum/waehrer_HTS_screening/HTS_experiment/out/docking_results/vina_output/6q9y/0156_docked.pdbqt
 OpenBabel03222219063D

 29 32  0  0  0  0  0  0  0  0999 V2000
    2.2040    9.9640  -14.4940 C   0  0  0  0  0  0  0  0  0  0  0  0
    2.0970   11.1860  -13.9640 N   0  0  0  0  0  4  0  0  0  0  0  0
    0.9940   11.6080  -13.2850 C   0  0  0  0  0  0  0  0  0  0  0  0
   -0.0040   10.7050  -13.1760 N   0  0  0  0  0  0  0  0  0  0  0  0
    0.0440    9.4620  -13.6860 C   0  0  0  0  0  0  0  0  0  0  0  0
    1.1800    9.1260  -14.3460 N   0  0  0  0  0  2  0  0  0  0  0  0
    3.3860    9.5880  -15.1910 N   0  0  0  0  0  0  0  0  0  0  0  0
    3.7840   10.2080  -15.9260 H   0  0  0  0  0  0  0  0  0  0  0  0
    4.0440    8.3860  -14.9150 N   0  0  0  0  0  0  0  0  0  0  0  0
    4.9020    8.2210  -13.9880 C   0  0  0  0  0  3  0  0  0  0  0  0
    5.5750    6.9550  -13.7250 C   0  0  0  0  0  0  0  0  0  0  0  0
    4.8740    5.7760  -13.5420 C   0  0  0  0  0  3  0  0  0  0  0  0
    5.4790    4.5680  -13.2930 C   0  0  0  0  0  0  0  0  0  0  0  0
    4.4500    2.9700  -13.0510 Br  0  0  0  0  0  0  0  0  0  0  0  0
    6.8560    4.5190  -13.2170 C   0  0  0  0  0  3  0  0  0  0  0  0
    7.5980    5.6670  -13.3910 C   0  0  0  0  0  3  0  0  0  0  0  0
    6.9480    6.8730  -13.6420 C   0  0  0  0  0  3  0  0  0  0  0  0
    0.9040   12.9050  -12.7350 N   0  0  0  0  0  0  0  0  0  0  0  0
    2.0340   13.5060  -12.0820 C   0  0  0  0  0  2  0  0  0  0  0  0
    2.2660   14.8560  -12.7500 C   0  0  0  0  0  2  0  0  0  0  0  0
    1.0980   15.5910  -12.5600 O   0  0  0  0  0  0  0  0  0  0  0  0
    0.0300   15.0730  -13.2710 C   0  0  0  0  0  2  0  0  0  0  0  0
   -0.3160   13.6610  -12.8120 C   0  0  0  0  0  2  0  0  0  0  0  0
   -1.0090    8.5410  -13.5570 N   0  0  0  0  0  0  0  0  0  0  0  0
   -2.3590    8.8670  -13.9300 C   0  0  0  0  0  2  0  0  0  0  0  0
   -2.9390    7.5920  -14.5580 C   0  0  0  0  0  2  0  0  0  0  0  0
   -1.9200    6.8150  -15.1030 O   0  0  0  0  0  0  0  0  0  0  0  0
   -1.0880    6.2460  -14.1730 C   0  0  0  0  0  2  0  0  0  0  0  0
   -0.7550    7.2270  -13.0400 C   0  0  0  0  0  2  0  0  0  0  0  0
  1  6  1  0  0  0  0
  1  2  2  0  0  0  0
  2  3  2  0  0  0  0
  3  4  1  0  0  0  0
  3 18  1  0  0  0  0
  5 24  1  0  0  0  0
  5  4  2  0  0  0  0
  6  5  1  0  0  0  0
  7  9  1  0  0  0  0
  7  1  1  0  0  0  0
  8  7  1  0  0  0  0
  9 10  2  0  0  0  0
 10 11  1  0  0  0  0
 11 17  2  0  0  0  0
 11 12  1  0  0  0  0
 12 13  2  0  0  0  0
 13 15  1  0  0  0  0
 13 14  1  0  0  0  0
 16 15  2  0  0  0  0
 17 16  1  0  0  0  0
 18 19  1  0  0  0  0
 20 21  1  0  0  0  0
 20 19  1  0  0  0  0
 22 23  1  0  0  0  0
 22 21  1  0  0  0  0
 23 18  1  0  0  0  0
 24 29  1  0  0  0  0
 25 24  1  0  0  0  0
 26 25  1  0  0  0  0
 27 26  1  0  0  0  0
 27 28  1  0  0  0  0
 28 29  1  0  0  0  0
M  END
>  <Pose>
1

>  <Score>
-8.504

$$$$
