/Users/jonathanwahrer/Desktop/Msc/3_Semester/Drug_Design_Praktikum/waehrer_HTS_screening/HTS_experiment/out/docking_results/vina_output/6q9y/0167_docked.pdbqt
 OpenBabel03222219073D

 35 38  0  0  1  0  0  0  0  0999 V2000
    1.1700   11.3890  -13.8690 C   0  0  1  0  0  3  0  0  0  0  0  0
    1.3420   12.3690  -12.8620 N   0  0  0  0  0  0  0  0  0  0  0  0
    2.5100   12.0840  -12.1110 C   0  0  0  0  0  0  0  0  0  0  0  0
    2.8870   12.7230  -11.0800 O   0  0  0  0  0  0  0  0  0  0  0  0
    3.1880   10.9610  -12.7220 C   0  0  0  0  0  0  0  0  0  0  0  0
    4.2600   10.4970  -12.2490 O   0  0  0  0  0  0  0  0  0  0  0  0
    2.4030   10.5580  -13.8730 C   0  0  0  0  0  0  0  0  0  0  0  0
    2.7350    9.5940  -14.7020 C   0  0  0  0  0  0  0  0  0  0  0  0
    1.8720    9.2590  -15.7200 O   0  0  0  0  0  1  0  0  0  0  0  0
   -0.0340   10.5890  -13.6240 C   0  0  0  0  0  0  0  0  0  0  0  0
    0.1130    9.2300  -13.4030 C   0  0  0  0  0  3  0  0  0  0  0  0
   -0.8970    8.3550  -13.1440 C   0  0  0  0  0  0  0  0  0  0  0  0
   -0.6360    6.4870  -12.8460 Br  0  0  0  0  0  0  0  0  0  0  0  0
   -2.1950    8.8900  -13.0990 C   0  0  0  0  0  3  0  0  0  0  0  0
   -2.3750   10.2450  -13.3160 C   0  0  0  0  0  3  0  0  0  0  0  0
   -1.3260   11.1050  -13.5760 C   0  0  0  0  0  3  0  0  0  0  0  0
    3.9860    8.8900  -14.5680 C   0  0  0  0  0  0  0  0  0  0  0  0
    4.1190    7.6370  -13.9440 C   0  0  0  0  0  0  0  0  0  0  0  0
    5.3960    7.2440  -14.0190 N   0  0  0  0  0  0  0  0  0  0  0  0
    2.9860    6.8990  -13.3140 C   0  0  0  0  0  1  0  0  0  0  0  0
    6.0560    8.1920  -14.6580 N   0  0  0  0  0  0  0  0  0  0  0  0
    5.2430    9.2000  -15.0070 C   0  0  0  0  0  3  0  0  0  0  0  0
    5.9540    6.0340  -13.5260 C   0  0  0  0  0  0  0  0  0  0  0  0
    7.1980    6.0740  -12.9110 C   0  0  0  0  0  3  0  0  0  0  0  0
    7.7950    4.9390  -12.3990 C   0  0  0  0  0  3  0  0  0  0  0  0
    7.1650    3.6970  -12.4810 C   0  0  0  0  0  3  0  0  0  0  0  0
    5.9250    3.6570  -13.0940 C   0  0  0  0  0  3  0  0  0  0  0  0
    5.3540    4.7980  -13.5940 C   0  0  0  0  0  3  0  0  0  0  0  0
    0.4710   13.5510  -12.6080 C   0  0  0  0  0  2  0  0  0  0  0  0
    1.2860   14.8140  -12.7250 C   0  0  0  0  0  2  0  0  0  0  0  0
    0.5640   16.0350  -12.2500 C   0  0  0  0  0  2  0  0  0  0  0  0
   -0.7450   16.2390  -12.7740 N   0  0  0  0  0  4  0  0  0  0  0  0
   -1.4580   17.3710  -12.2820 C   0  0  0  0  0  1  0  0  0  0  0  0
   -0.6920   16.3500  -14.2410 C   0  0  0  0  0  1  0  0  0  0  0  0
   -1.3360   15.3690  -12.6020 H   0  0  0  0  0  0  0  0  0  0  0  0
  1 10  1  1  0  0  0
  1  2  1  0  0  0  0
  2 29  1  0  0  0  0
  2  3  1  0  0  0  0
  3  4  2  0  0  0  0
  5  6  2  0  0  0  0
  5  3  1  0  0  0  0
  7  1  1  0  0  0  0
  7  5  1  0  0  0  0
  8 17  1  0  0  0  0
  8  7  2  0  0  0  0
  9  8  1  0  0  0  0
 10 16  2  0  0  0  0
 10 11  1  0  0  0  0
 11 12  2  0  0  0  0
 12 14  1  0  0  0  0
 12 13  1  0  0  0  0
 15 14  2  0  0  0  0
 16 15  1  0  0  0  0
 17 18  2  0  0  0  0
 18 20  1  0  0  0  0
 19 18  1  0  0  0  0
 19 23  1  0  0  0  0
 21 19  1  0  0  0  0
 22 21  2  0  0  0  0
 22 17  1  0  0  0  0
 23 24  1  0  0  0  0
 24 25  2  0  0  0  0
 26 25  1  0  0  0  0
 27 26  2  0  0  0  0
 28 23  2  0  0  0  0
 28 27  1  0  0  0  0
 30 29  1  0  0  0  0
 30 31  1  0  0  0  0
 32 35  1  0  0  0  0
 32 33  1  0  0  0  0
 32 31  1  0  0  0  0
 34 32  1  0  0  0  0
M  END
>  <Pose>
1

>  <Score>
-8.526

$$$$
