/Users/jonathanwahrer/Desktop/Msc/3_Semester/Drug_Design_Praktikum/waehrer_HTS_screening/HTS_experiment/out/docking_results/vina_output/6q9y/0169_docked.pdbqt
 OpenBabel03222219073D

 37 40  0  0  1  0  0  0  0  0999 V2000
    2.5960    9.0510  -12.6090 C   0  0  2  0  0  3  0  0  0  0  0  0
    3.5890    8.5910  -13.5620 N   0  0  0  0  0  0  0  0  0  0  0  0
    3.0120    8.7610  -14.8480 C   0  0  0  0  0  0  0  0  0  0  0  0
    3.6110    8.9170  -15.9360 O   0  0  0  0  0  0  0  0  0  0  0  0
    1.5440    8.7240  -14.6680 C   0  0  0  0  0  0  0  0  0  0  0  0
    0.6680    8.8300  -15.5530 O   0  0  0  0  0  0  0  0  0  0  0  0
    1.3330    8.5300  -13.2400 C   0  0  0  0  0  0  0  0  0  0  0  0
    0.2910    7.9830  -12.6920 C   0  0  0  0  0  0  0  0  0  0  0  0
    0.2870    7.8200  -11.2910 O   0  0  0  0  0  1  0  0  0  0  0  0
    2.5990   10.5330  -12.6100 C   0  0  0  0  0  0  0  0  0  0  0  0
    1.4280   11.2640  -12.7570 C   0  0  0  0  0  3  0  0  0  0  0  0
    1.4240   12.6430  -12.7670 C   0  0  0  0  0  0  0  0  0  0  0  0
   -0.2220   13.5850  -12.9730 Br  0  0  0  0  0  0  0  0  0  0  0  0
    2.5910   13.3620  -12.6320 C   0  0  0  0  0  3  0  0  0  0  0  0
    3.7670   12.6590  -12.4850 C   0  0  0  0  0  3  0  0  0  0  0  0
    3.7600   11.2800  -12.4750 C   0  0  0  0  0  3  0  0  0  0  0  0
   -0.8940    7.5170  -13.3980 C   0  0  0  0  0  0  0  0  0  0  0  0
   -1.2790    6.3130  -13.8830 C   0  0  0  0  0  0  0  0  0  0  0  0
   -2.5160    6.4450  -14.4060 N   0  0  0  0  0  0  0  0  0  0  0  0
   -0.4920    5.0350  -13.9100 C   0  0  0  0  0  1  0  0  0  0  0  0
   -2.9630    7.7020  -14.2850 C   0  0  0  0  0  0  0  0  0  0  0  0
   -3.0560    5.6500  -14.8560 H   0  0  0  0  0  0  0  0  0  0  0  0
   -1.9650    8.3970  -13.6560 C   0  0  0  0  0  0  0  0  0  0  0  0
   -2.0130    9.8480  -13.3050 C   0  0  0  0  0  1  0  0  0  0  0  0
   -4.2650    8.2310  -14.7370 C   0  0  0  0  0  0  0  0  0  0  0  0
   -4.5460    8.1960  -15.9440 O   0  0  0  0  0  0  0  0  0  0  0  0
   -5.1640    8.7600  -13.8320 O   0  0  0  0  0  0  0  0  0  0  0  0
   -5.7100   10.0550  -13.9350 C   0  0  0  0  0  1  0  0  0  0  0  0
    4.9200    8.0540  -13.2700 C   0  0  0  0  0  2  0  0  0  0  0  0
    4.9860    6.5710  -13.5610 C   0  0  0  0  0  2  0  0  0  0  0  0
    6.1810    5.9420  -13.1000 N   0  0  0  0  0  4  0  0  0  0  0  0
    7.4010    6.5300  -13.6390 C   0  0  0  0  0  2  0  0  0  0  0  0
    8.5390    6.1030  -12.7520 C   0  0  0  0  0  2  0  0  0  0  0  0
    8.1960    4.9470  -12.0960 O   0  0  0  0  0  0  0  0  0  0  0  0
    7.5590    4.0080  -12.8880 C   0  0  0  0  0  2  0  0  0  0  0  0
    6.2430    4.5310  -13.4610 C   0  0  0  0  0  2  0  0  0  0  0  0
    6.2040    5.9650  -12.0650 H   0  0  0  0  0  0  0  0  0  0  0  0
  1 10  1  6  0  0  0
  2 29  1  0  0  0  0
  2  1  1  0  0  0  0
  3  5  1  0  0  0  0
  3  2  1  0  0  0  0
  4  3  2  0  0  0  0
  5  7  1  0  0  0  0
  6  5  2  0  0  0  0
  7  8  2  0  0  0  0
  7  1  1  0  0  0  0
  8  9  1  0  0  0  0
 10 16  1  0  0  0  0
 11 10  2  0  0  0  0
 12 11  1  0  0  0  0
 12 14  2  0  0  0  0
 13 12  1  0  0  0  0
 14 15  1  0  0  0  0
 15 16  2  0  0  0  0
 17  8  1  0  0  0  0
 18 17  2  0  0  0  0
 19 21  1  0  0  0  0
 19 18  1  0  0  0  0
 20 18  1  0  0  0  0
 21 23  2  0  0  0  0
 22 19  1  0  0  0  0
 23 17  1  0  0  0  0
 23 24  1  0  0  0  0
 25 21  1  0  0  0  0
 25 27  1  0  0  0  0
 26 25  2  0  0  0  0
 28 27  1  0  0  0  0
 30 29  1  0  0  0  0
 30 31  1  0  0  0  0
 31 37  1  0  0  0  0
 32 31  1  0  0  0  0
 32 33  1  0  0  0  0
 33 34  1  0  0  0  0
 35 34  1  0  0  0  0
 36 31  1  0  0  0  0
 36 35  1  0  0  0  0
M  END
>  <Pose>
1

>  <Score>
-7.757

$$$$
