/Users/jonathanwahrer/Desktop/Msc/3_Semester/Drug_Design_Praktikum/waehrer_HTS_screening/HTS_experiment/out/docking_results/vina_output/6q9y/0170_docked.pdbqt
 OpenBabel03222219083D

 35 38  0  0  1  0  0  0  0  0999 V2000
    2.4630    7.5470  -13.9640 C   0  0  1  0  0  3  0  0  0  0  0  0
    1.5300    6.7920  -13.1510 N   0  0  0  0  0  0  0  0  0  0  0  0
    1.3600    7.4000  -11.8890 C   0  0  0  0  0  0  0  0  0  0  0  0
    0.9090    6.9450  -10.8070 O   0  0  0  0  0  0  0  0  0  0  0  0
    1.8430    8.7950  -12.0480 C   0  0  0  0  0  0  0  0  0  0  0  0
    1.8380    9.6350  -11.1260 O   0  0  0  0  0  0  0  0  0  0  0  0
    2.2850    8.9390  -13.4230 C   0  0  0  0  0  0  0  0  0  0  0  0
    2.4400   10.0690  -14.0640 C   0  0  0  0  0  0  0  0  0  0  0  0
    2.8080   10.0440  -15.4200 O   0  0  0  0  0  1  0  0  0  0  0  0
    3.8550    7.0840  -13.8330 C   0  0  0  0  0  0  0  0  0  0  0  0
    4.1650    5.7740  -13.5440 C   0  0  0  0  0  3  0  0  0  0  0  0
    5.4860    5.3570  -13.4240 C   0  0  0  0  0  0  0  0  0  0  0  0
    5.8920    3.5400  -13.0210 Br  0  0  0  0  0  0  0  0  0  0  0  0
    6.5160    6.2680  -13.5980 C   0  0  0  0  0  3  0  0  0  0  0  0
    6.1950    7.5770  -13.8880 C   0  0  0  0  0  3  0  0  0  0  0  0
    4.8820    7.9850  -14.0060 C   0  0  0  0  0  3  0  0  0  0  0  0
    2.2540   11.3470  -13.4290 C   0  0  0  0  0  0  0  0  0  0  0  0
    0.9510   11.8670  -13.4270 C   0  0  0  0  0  3  0  0  0  0  0  0
    0.6900   13.0930  -12.8820 C   0  0  0  0  0  0  0  0  0  0  0  0
    1.6890   13.8730  -12.3130 C   0  0  0  0  0  0  0  0  0  0  0  0
   -0.7080   13.6330  -12.8890 C   0  0  0  0  0  1  0  0  0  0  0  0
    2.9440   13.3490  -12.3270 C   0  0  0  0  0  3  0  0  0  0  0  0
    3.2260   12.1140  -12.8740 C   0  0  0  0  0  3  0  0  0  0  0  0
    1.3420   15.0990  -11.7840 O   0  0  0  0  0  0  0  0  0  0  0  0
    1.9250   16.2960  -12.2770 C   0  0  0  0  0  1  0  0  0  0  0  0
    0.8320    5.5620  -13.5580 C   0  0  0  0  0  2  0  0  0  0  0  0
   -0.6500    5.8080  -13.6050 C   0  0  0  0  0  2  0  0  0  0  0  0
   -1.0680    7.0020  -14.3940 C   0  0  0  0  0  2  0  0  0  0  0  0
   -2.1290    7.7650  -13.7760 N   0  0  0  0  0  4  0  0  0  0  0  0
   -1.6590    9.0480  -13.2920 C   0  0  0  0  0  2  0  0  0  0  0  0
   -2.3180   10.1760  -14.0390 C   0  0  0  0  0  2  0  0  0  0  0  0
   -3.7050   10.0910  -13.8050 O   0  0  0  0  0  0  0  0  0  0  0  0
   -4.2210    8.9160  -14.3460 C   0  0  0  0  0  2  0  0  0  0  0  0
   -3.1750    7.9430  -14.7880 C   0  0  0  0  0  2  0  0  0  0  0  0
   -2.5960    7.2650  -12.9910 H   0  0  0  0  0  0  0  0  0  0  0  0
  1 10  1  1  0  0  0
  1  7  1  0  0  0  0
  1  2  1  0  0  0  0
  2  3  1  0  0  0  0
  3  4  2  0  0  0  0
  5  3  1  0  0  0  0
  5  6  2  0  0  0  0
  7  5  1  0  0  0  0
  8 17  1  0  0  0  0
  8  7  2  0  0  0  0
  9  8  1  0  0  0  0
 10 11  1  0  0  0  0
 11 12  2  0  0  0  0
 12 13  1  0  0  0  0
 14 12  1  0  0  0  0
 15 14  2  0  0  0  0
 16 15  1  0  0  0  0
 16 10  2  0  0  0  0
 17 18  2  0  0  0  0
 17 23  1  0  0  0  0
 18 19  1  0  0  0  0
 19 20  2  0  0  0  0
 20 24  1  0  0  0  0
 21 19  1  0  0  0  0
 22 20  1  0  0  0  0
 23 22  2  0  0  0  0
 25 24  1  0  0  0  0
 26  2  1  0  0  0  0
 27 26  1  0  0  0  0
 28 29  1  0  0  0  0
 28 27  1  0  0  0  0
 29 30  1  0  0  0  0
 29 35  1  0  0  0  0
 31 32  1  0  0  0  0
 31 30  1  0  0  0  0
 33 32  1  0  0  0  0
 34 33  1  0  0  0  0
 34 29  1  0  0  0  0
M  END
>  <Pose>
1

>  <Score>
-8.247

$$$$
