/Users/jonathanwahrer/Desktop/Msc/3_Semester/Drug_Design_Praktikum/waehrer_HTS_screening/HTS_experiment/out/docking_results/vina_output/6q9y/0175_docked.pdbqt
 OpenBabel03222219083D

 32 35  0  0  1  0  0  0  0  0999 V2000
    0.6020    8.8500  -12.9330 C   0  0  2  0  0  3  0  0  0  0  0  0
    1.0270   10.0770  -13.5380 N   0  0  0  0  0  0  0  0  0  0  0  0
    1.9030    9.7180  -14.5960 C   0  0  0  0  0  0  0  0  0  0  0  0
    2.2230   10.4490  -15.5650 O   0  0  0  0  0  0  0  0  0  0  0  0
    2.3880    8.3350  -14.3780 C   0  0  0  0  0  0  0  0  0  0  0  0
    3.1690    7.6810  -15.0890 O   0  0  0  0  0  0  0  0  0  0  0  0
    1.7540    7.9020  -13.1470 C   0  0  0  0  0  0  0  0  0  0  0  0
    2.1210    6.9260  -12.3460 C   0  0  0  0  0  0  0  0  0  0  0  0
    1.4290    6.7020  -11.1750 O   0  0  0  0  0  1  0  0  0  0  0  0
    0.6500   11.4560  -13.1700 C   0  0  0  0  0  2  0  0  0  0  0  0
    1.9230   12.2250  -12.9580 C   0  0  0  0  0  2  0  0  0  0  0  0
    1.8630   13.2350  -11.9640 N   0  0  0  0  0  4  0  0  0  0  0  0
    2.9740   14.1390  -11.9140 C   0  0  0  0  0  2  0  0  0  0  0  0
    2.8040   15.3760  -12.7520 C   0  0  0  0  0  2  0  0  0  0  0  0
    1.5420   15.9230  -12.6860 O   0  0  0  0  0  0  0  0  0  0  0  0
    0.5640   15.0230  -13.0370 C   0  0  0  0  0  2  0  0  0  0  0  0
    0.5870   13.9020  -12.0320 C   0  0  0  0  0  2  0  0  0  0  0  0
    1.8460   12.7330  -11.0260 H   0  0  0  0  0  0  0  0  0  0  0  0
   -0.6370    8.2990  -13.5490 C   0  0  0  0  0  0  0  0  0  0  0  0
   -1.8260    8.9980  -13.5710 C   0  0  0  0  0  3  0  0  0  0  0  0
   -2.9850    8.4860  -14.1450 C   0  0  0  0  0  0  0  0  0  0  0  0
   -4.6100    9.4890  -14.1530 Br  0  0  0  0  0  0  0  0  0  0  0  0
   -2.9460    7.2490  -14.7090 C   0  0  0  0  0  3  0  0  0  0  0  0
   -1.7870    6.5160  -14.7120 C   0  0  0  0  0  3  0  0  0  0  0  0
   -0.6500    7.0420  -14.1370 C   0  0  0  0  0  3  0  0  0  0  0  0
    3.2350    6.0680  -12.6600 C   0  0  0  0  0  0  0  0  0  0  0  0
    4.5310    6.4520  -12.8480 C   0  0  0  0  0  3  0  0  0  0  0  0
    5.5100    5.5110  -13.1050 C   0  0  0  0  0  3  0  0  0  0  0  0
    5.2610    4.1590  -13.1890 C   0  0  0  0  0  0  0  0  0  0  0  0
    3.9510    3.7730  -12.9990 C   0  0  0  0  0  3  0  0  0  0  0  0
    6.3350    3.1650  -13.4670 C   0  0  0  0  0  1  0  0  0  0  0  0
    2.9640    4.6920  -12.7430 C   0  0  0  0  0  3  0  0  0  0  0  0
  1 19  1  6  0  0  0
  2 10  1  0  0  0  0
  2  1  1  0  0  0  0
  3  5  1  0  0  0  0
  3  2  1  0  0  0  0
  4  3  2  0  0  0  0
  5  7  1  0  0  0  0
  6  5  2  0  0  0  0
  7  1  1  0  0  0  0
  7  8  2  0  0  0  0
  8  9  1  0  0  0  0
 10 11  1  0  0  0  0
 11 12  1  0  0  0  0
 12 13  1  0  0  0  0
 12 18  1  0  0  0  0
 14 15  1  0  0  0  0
 14 13  1  0  0  0  0
 16 15  1  0  0  0  0
 16 17  1  0  0  0  0
 17 12  1  0  0  0  0
 20 19  1  0  0  0  0
 21 20  2  0  0  0  0
 22 21  1  0  0  0  0
 23 21  1  0  0  0  0
 24 23  2  0  0  0  0
 24 25  1  0  0  0  0
 25 19  2  0  0  0  0
 26  8  1  0  0  0  0
 27 26  2  0  0  0  0
 28 27  1  0  0  0  0
 29 28  2  0  0  0  0
 29 30  1  0  0  0  0
 30 32  2  0  0  0  0
 31 29  1  0  0  0  0
 32 26  1  0  0  0  0
M  END
>  <Pose>
1

>  <Score>
-8.785

$$$$
