/Users/jonathanwahrer/Desktop/Msc/3_Semester/Drug_Design_Praktikum/waehrer_HTS_screening/HTS_experiment/out/docking_results/vina_output/6q9y/0184_docked.pdbqt
 OpenBabel03222219093D

 33 36  0  0  1  0  0  0  0  0999 V2000
    1.8470    7.6440  -12.3540 C   0  0  2  0  0  3  0  0  0  0  0  0
    2.4950    6.3490  -12.4360 N   0  0  0  0  0  0  0  0  0  0  0  0
    1.4870    5.4030  -12.0560 C   0  0  0  0  0  0  0  0  0  0  0  0
    1.6530    4.2690  -11.5720 O   0  0  0  0  0  0  0  0  0  0  0  0
    0.1970    6.0180  -12.3460 C   0  0  0  0  0  0  0  0  0  0  0  0
   -0.9800    5.5780  -12.1830 O   0  0  0  0  0  0  0  0  0  0  0  0
    0.4890    7.3310  -12.9000 C   0  0  0  0  0  0  0  0  0  0  0  0
   -0.3160    8.0480  -13.6590 C   0  0  0  0  0  0  0  0  0  0  0  0
    0.1530    9.3180  -14.0240 O   0  0  0  0  0  1  0  0  0  0  0  0
    2.5020    8.7090  -13.1220 C   0  0  0  0  0  0  0  0  0  0  0  0
    2.7230    9.9610  -12.6550 C   0  0  0  0  0  3  0  0  0  0  0  0
    3.3480   10.9190  -13.4550 C   0  0  0  0  0  0  0  0  0  0  0  0
    3.6400   12.6640  -12.7620 Br  0  0  0  0  0  0  0  0  0  0  0  0
    3.7620   10.6270  -14.7460 C   0  0  0  0  0  3  0  0  0  0  0  0
    3.5280    9.3480  -15.2020 C   0  0  0  0  0  3  0  0  0  0  0  0
    2.9180    8.4100  -14.4240 C   0  0  0  0  0  3  0  0  0  0  0  0
   -1.6210    7.6190  -14.1370 C   0  0  0  0  0  0  0  0  0  0  0  0
   -2.7770    8.2980  -14.0820 N   0  0  0  0  0  0  0  0  0  0  0  0
   -3.7790    7.5940  -14.6690 C   0  0  0  0  0  0  0  0  0  0  0  0
   -3.1030    9.5110  -13.5460 C   0  0  0  0  0  3  0  0  0  0  0  0
   -3.1960    6.4390  -15.0940 N   0  0  0  0  0  0  0  0  0  0  0  0
   -5.0830    8.0580  -14.7400 C   0  0  0  0  0  3  0  0  0  0  0  0
   -1.9080    6.4140  -14.7960 C   0  0  0  0  0  0  0  0  0  0  0  0
   -0.8670    5.3920  -15.0450 C   0  0  0  0  0  1  0  0  0  0  0  0
   -5.4040    9.2850  -14.1970 C   0  0  0  0  0  3  0  0  0  0  0  0
   -4.3730    9.9980  -13.5970 C   0  0  0  0  0  3  0  0  0  0  0  0
    3.8790    6.0450  -12.8050 C   0  0  0  0  0  2  0  0  0  0  0  0
    4.0960    4.6240  -13.1780 C   0  0  0  0  0  2  0  0  0  0  0  0
    5.4760    4.1130  -13.2300 C   0  0  0  0  0  2  0  0  0  0  0  0
    5.6440    2.7100  -13.0710 N   0  0  0  0  0  4  0  0  0  0  0  0
    5.8730    2.0890  -14.3530 C   0  0  0  0  0  1  0  0  0  0  0  0
    4.3890    2.1260  -12.5620 C   0  0  0  0  0  1  0  0  0  0  0  0
    6.3530    2.4380  -12.3560 H   0  0  0  0  0  0  0  0  0  0  0  0
  1 10  1  6  0  0  0
  2  1  1  0  0  0  0
  2  3  1  0  0  0  0
  3  4  2  0  0  0  0
  5  6  2  0  0  0  0
  5  3  1  0  0  0  0
  7  1  1  0  0  0  0
  7  5  1  0  0  0  0
  8  7  2  0  0  0  0
  9  8  1  0  0  0  0
 10 11  1  0  0  0  0
 12 13  1  0  0  0  0
 12 11  2  0  0  0  0
 14 12  1  0  0  0  0
 15 14  2  0  0  0  0
 15 16  1  0  0  0  0
 16 10  2  0  0  0  0
 17 18  1  0  0  0  0
 17  8  1  0  0  0  0
 18 20  1  0  0  0  0
 19 18  1  0  0  0  0
 21 23  1  0  0  0  0
 21 19  2  0  0  0  0
 22 19  1  0  0  0  0
 22 25  2  0  0  0  0
 23 17  2  0  0  0  0
 24 23  1  0  0  0  0
 25 26  1  0  0  0  0
 26 20  2  0  0  0  0
 27  2  1  0  0  0  0
 28 27  1  0  0  0  0
 29 28  1  0  0  0  0
 29 30  1  0  0  0  0
 30 32  1  0  0  0  0
 30 33  1  0  0  0  0
 31 30  1  0  0  0  0
M  END
>  <Pose>
1

>  <Score>
-7.715

$$$$
