/Users/jonathanwahrer/Desktop/Msc/3_Semester/Drug_Design_Praktikum/waehrer_HTS_screening/HTS_experiment/out/docking_results/vina_output/6q9y/0188_docked.pdbqt
 OpenBabel03222219093D

 31 34  0  0  1  0  0  0  0  0999 V2000
    2.9330    8.7740  -12.7640 C   0  0  2  0  0  3  0  0  0  0  0  0
    3.8710    8.3980  -13.8110 N   0  0  0  0  0  0  0  0  0  0  0  0
    3.0950    8.5610  -15.0210 C   0  0  0  0  0  0  0  0  0  0  0  0
    3.5420    8.7760  -16.1690 O   0  0  0  0  0  0  0  0  0  0  0  0
    1.6820    8.4370  -14.6910 C   0  0  0  0  0  0  0  0  0  0  0  0
    0.6540    8.5090  -15.4130 O   0  0  0  0  0  0  0  0  0  0  0  0
    1.6290    8.1930  -13.2500 C   0  0  0  0  0  0  0  0  0  0  0  0
    0.6910    7.6380  -12.5380 C   0  0  0  0  0  0  0  0  0  0  0  0
    0.8790    7.5570  -11.1410 O   0  0  0  0  0  1  0  0  0  0  0  0
    5.2470    7.9790  -13.7530 C   0  0  0  0  0  2  0  0  0  0  0  0
    5.4340    6.4820  -13.8430 C   0  0  0  0  0  2  0  0  0  0  0  0
    6.6710    6.0930  -13.1350 C   0  0  0  0  0  2  0  0  0  0  0  0
    7.8310    6.9020  -13.4350 N   0  0  0  0  0  4  0  0  0  0  0  0
    8.6010    7.2240  -12.2570 C   0  0  0  0  0  2  0  0  0  0  0  0
    9.7570    6.3240  -11.9990 C   0  0  0  0  0  2  0  0  0  0  0  0
   10.4890    5.9630  -13.1100 O   0  0  0  0  0  0  0  0  0  0  0  0
    9.7140    5.4940  -14.1620 C   0  0  0  0  0  2  0  0  0  0  0  0
    8.6200    6.4620  -14.5350 C   0  0  0  0  0  2  0  0  0  0  0  0
    7.4150    7.8400  -13.7380 H   0  0  0  0  0  0  0  0  0  0  0  0
    2.7290   10.2530  -12.7250 C   0  0  0  0  0  0  0  0  0  0  0  0
    1.4870   10.7950  -12.9710 C   0  0  0  0  0  3  0  0  0  0  0  0
    1.2430   12.1590  -12.9480 C   0  0  0  0  0  0  0  0  0  0  0  0
   -0.5040   12.8700  -13.2950 Br  0  0  0  0  0  0  0  0  0  0  0  0
    2.2780   13.0280  -12.6660 C   0  0  0  0  0  3  0  0  0  0  0  0
    3.5330   12.5050  -12.4160 C   0  0  0  0  0  3  0  0  0  0  0  0
    3.7610   11.1280  -12.4440 C   0  0  0  0  0  3  0  0  0  0  0  0
   -0.5090    7.1170  -13.1670 C   0  0  0  0  0  0  0  0  0  0  0  0
   -1.5490    7.8530  -13.4520 O   0  0  0  0  0  0  0  0  0  0  0  0
   -2.4930    7.1450  -14.0090 C   0  0  0  0  0  3  0  0  0  0  0  0
   -2.0570    5.8580  -14.1020 C   0  0  0  0  0  3  0  0  0  0  0  0
   -0.7690    5.8320  -13.5550 C   0  0  0  0  0  3  0  0  0  0  0  0
  1 20  1  6  0  0  0
  2 10  1  0  0  0  0
  2  1  1  0  0  0  0
  3  5  1  0  0  0  0
  3  2  1  0  0  0  0
  4  3  2  0  0  0  0
  5  7  1  0  0  0  0
  6  5  2  0  0  0  0
  7  1  1  0  0  0  0
  7  8  2  0  0  0  0
  8  9  1  0  0  0  0
 11 10  1  0  0  0  0
 11 12  1  0  0  0  0
 13 12  1  0  0  0  0
 13 14  1  0  0  0  0
 14 15  1  0  0  0  0
 16 15  1  0  0  0  0
 17 16  1  0  0  0  0
 18 17  1  0  0  0  0
 18 13  1  0  0  0  0
 19 13  1  0  0  0  0
 20 26  1  0  0  0  0
 21 22  1  0  0  0  0
 21 20  2  0  0  0  0
 22 24  2  0  0  0  0
 23 22  1  0  0  0  0
 24 25  1  0  0  0  0
 26 25  2  0  0  0  0
 27  8  1  0  0  0  0
 28 27  1  0  0  0  0
 29 28  1  0  0  0  0
 30 29  2  0  0  0  0
 30 31  1  0  0  0  0
 31 27  2  0  0  0  0
M  END
>  <Pose>
1

>  <Score>
-7.481

$$$$
