/Users/jonathanwahrer/Desktop/Msc/3_Semester/Drug_Design_Praktikum/waehrer_HTS_screening/HTS_experiment/out/docking_results/vina_output/6q9y/0191_docked.pdbqt
 OpenBabel03222219103D

 34 37  0  0  1  0  0  0  0  0999 V2000
    0.5420    9.5600  -14.2430 C   0  0  2  0  0  3  0  0  0  0  0  0
   -0.4580    8.7320  -13.6000 N   0  0  0  0  0  0  0  0  0  0  0  0
    0.1810    8.1920  -12.4230 C   0  0  0  0  0  0  0  0  0  0  0  0
   -0.4130    7.7670  -11.4020 O   0  0  0  0  0  0  0  0  0  0  0  0
    1.6250    8.2430  -12.6680 C   0  0  0  0  0  0  0  0  0  0  0  0
    2.5610    7.8750  -11.9110 O   0  0  0  0  0  0  0  0  0  0  0  0
    1.8330    8.8160  -13.9930 C   0  0  0  0  0  0  0  0  0  0  0  0
    2.9030    8.7100  -14.7620 C   0  0  0  0  0  0  0  0  0  0  0  0
    2.9200    9.3420  -15.9800 O   0  0  0  0  0  1  0  0  0  0  0  0
    0.6140   10.9360  -13.6890 C   0  0  0  0  0  0  0  0  0  0  0  0
    1.7840   11.4230  -13.1020 C   0  0  0  0  0  3  0  0  0  0  0  0
    1.8930   12.6780  -12.5760 C   0  0  0  0  0  0  0  0  0  0  0  0
    3.5490   13.2640  -11.7880 Br  0  0  0  0  0  0  0  0  0  0  0  0
    0.8250   13.5260  -12.6120 C   0  0  0  0  0  3  0  0  0  0  0  0
   -0.3440   13.1010  -13.1740 C   0  0  0  0  0  3  0  0  0  0  0  0
   -0.4430   11.8180  -13.7070 C   0  0  0  0  0  3  0  0  0  0  0  0
    4.0780    7.9250  -14.3400 C   0  0  0  0  0  0  0  0  0  0  0  0
    4.0640    6.6670  -13.9910 O   0  0  0  0  0  0  0  0  0  0  0  0
    5.2250    6.2080  -13.6620 C   0  0  0  0  0  0  0  0  0  0  0  0
    6.1140    7.2460  -13.7980 C   0  0  0  0  0  0  0  0  0  0  0  0
    5.6130    4.9420  -13.2410 C   0  0  0  0  0  0  0  0  0  0  0  0
    5.3850    8.3350  -14.2270 C   0  0  0  0  0  3  0  0  0  0  0  0
    7.4390    7.0110  -13.5010 C   0  0  0  0  0  3  0  0  0  0  0  0
    7.8810    5.7740  -13.0780 C   0  0  0  0  0  3  0  0  0  0  0  0
    6.9400    4.7460  -12.9550 C   0  0  0  0  0  3  0  0  0  0  0  0
    4.7240    3.9070  -13.1100 O   0  0  0  0  0  0  0  0  0  0  0  0
    4.5720    2.8220  -13.9680 C   0  0  0  0  0  1  0  0  0  0  0  0
   -1.8210    8.4910  -14.0040 C   0  0  0  0  0  2  0  0  0  0  0  0
   -2.7630    9.5120  -13.4140 C   0  0  0  0  0  2  0  0  0  0  0  0
   -3.8980    9.9050  -14.2880 C   0  0  0  0  0  2  0  0  0  0  0  0
   -5.1420    9.2640  -13.9920 N   0  0  0  0  0  4  0  0  0  0  0  0
   -5.4310    8.2160  -14.9740 C   0  0  0  0  0  1  0  0  0  0  0  0
   -6.2390   10.1800  -13.9330 C   0  0  0  0  0  1  0  0  0  0  0  0
   -5.1180    8.7470  -13.0670 H   0  0  0  0  0  0  0  0  0  0  0  0
  1  7  1  0  0  0  0
  1 10  1  1  0  0  0
  1  2  1  0  0  0  0
  2  3  1  0  0  0  0
  3  4  2  0  0  0  0
  5  3  1  0  0  0  0
  5  6  2  0  0  0  0
  7  5  1  0  0  0  0
  8 17  1  0  0  0  0
  8  7  2  0  0  0  0
  9  8  1  0  0  0  0
 10 11  1  0  0  0  0
 11 12  2  0  0  0  0
 12 13  1  0  0  0  0
 14 12  1  0  0  0  0
 15 14  2  0  0  0  0
 16 10  2  0  0  0  0
 16 15  1  0  0  0  0
 17 22  2  0  0  0  0
 17 18  1  0  0  0  0
 18 19  1  0  0  0  0
 19 21  1  0  0  0  0
 20 19  2  0  0  0  0
 20 23  1  0  0  0  0
 21 26  1  0  0  0  0
 21 25  2  0  0  0  0
 22 20  1  0  0  0  0
 23 24  2  0  0  0  0
 24 25  1  0  0  0  0
 27 26  1  0  0  0  0
 28  2  1  0  0  0  0
 28 29  1  0  0  0  0
 30 31  1  0  0  0  0
 30 29  1  0  0  0  0
 31 33  1  0  0  0  0
 31 34  1  0  0  0  0
 32 31  1  0  0  0  0
M  END
>  <Pose>
1

>  <Score>
-9.284

$$$$
