/Users/jonathanwahrer/Desktop/Msc/3_Semester/Drug_Design_Praktikum/waehrer_HTS_screening/HTS_experiment/out/docking_results/vina_output/6q9y/0200_docked.pdbqt
 OpenBabel03222219103D

 21 24  0  0  1  0  0  0  0  0999 V2000
   -4.7430    9.2500  -14.5060 C   0  0  1  0  0  3  0  0  0  0  0  0
   -4.0840   10.3120  -14.0540 N   0  0  0  0  0  0  0  0  0  0  0  0
   -2.7710   10.3460  -13.7690 C   0  0  0  0  0  0  0  0  0  0  0  0
   -1.8970   11.2610  -13.3170 N   0  0  0  0  0  2  0  0  0  0  0  0
   -0.7050   10.7640  -13.2140 O   0  0  0  0  0  0  0  0  0  0  0  0
   -0.7650    9.5350  -13.5890 N   0  0  0  0  0  0  0  0  0  0  0  0
   -2.0140    9.1970  -13.9500 C   0  0  0  0  0  0  0  0  0  0  0  0
   -2.6350    8.0990  -14.4040 N   0  0  0  0  0  0  0  0  0  0  0  0
   -2.1320    6.8930  -14.6540 N   0  0  0  0  0  0  0  0  0  0  0  0
   -3.1420    6.1250  -15.0910 N   0  0  0  0  0  0  0  0  0  0  0  0
   -4.2490    6.8700  -15.1030 N   0  0  0  0  0  0  0  0  0  0  0  0
   -3.9490    8.1000  -14.6780 C   0  0  0  0  0  0  0  0  0  0  0  0
   -6.1210    9.1680  -14.8180 N   0  0  0  0  0  0  0  0  0  0  0  0
   -6.5190    8.2590  -15.1900 H   0  0  0  0  0  0  0  0  0  0  0  0
   -7.0420   10.2260  -14.6720 C   0  0  0  0  0  0  0  0  0  0  0  0
   -7.9810   10.6270  -15.5830 C   0  0  0  0  0  3  0  0  0  0  0  0
   -8.8680   11.6750  -15.4000 C   0  0  0  0  0  0  0  0  0  0  0  0
  -10.1420   12.1550  -16.7360 Br  0  0  0  0  0  0  0  0  0  0  0  0
   -8.8200   12.3790  -14.2250 C   0  0  0  0  0  3  0  0  0  0  0  0
   -7.8980   12.0260  -13.2650 C   0  0  0  0  0  3  0  0  0  0  0  0
   -7.0330   10.9820  -13.4800 C   0  0  0  0  0  3  0  0  0  0  0  0
  1 13  1  1  0  0  0
  1  2  1  0  0  0  0
  2  3  2  0  0  0  0
  3  4  1  0  0  0  0
  4  5  1  0  0  0  0
  6  5  1  0  0  0  0
  7  3  1  0  0  0  0
  7  6  2  0  0  0  0
  8  7  1  0  0  0  0
  9  8  1  0  0  0  0
 10  9  2  0  0  0  0
 11 10  1  0  0  0  0
 11 12  2  0  0  0  0
 12  1  1  0  0  0  0
 12  8  1  0  0  0  0
 13 15  1  0  0  0  0
 14 13  1  0  0  0  0
 15 21  1  0  0  0  0
 16 17  1  0  0  0  0
 16 15  2  0  0  0  0
 17 19  2  0  0  0  0
 18 17  1  0  0  0  0
 19 20  1  0  0  0  0
 21 20  2  0  0  0  0
M  END
>  <Pose>
1

>  <Score>
-8.356

$$$$
