/Users/jonathanwahrer/Desktop/Msc/3_Semester/Drug_Design_Praktikum/waehrer_HTS_screening/HTS_experiment/out/docking_results/vina_output/6q9y/0201_docked.pdbqt
 OpenBabel03222219103D

 25 28  0  0  0  0  0  0  0  0999 V2000
    0.5140   14.9390  -12.4710 C   0  0  0  0  0  0  0  0  0  0  0  0
    1.6300   15.4580  -12.2220 O   0  0  0  0  0  0  0  0  0  0  0  0
   -0.6390   15.7480  -12.4270 N   0  0  0  0  0  0  0  0  0  0  0  0
   -1.5580   15.2980  -12.6370 H   0  0  0  0  0  0  0  0  0  0  0  0
    0.4730   13.5190  -12.7980 C   0  0  0  0  0  0  0  0  0  0  0  0
    1.5160   12.6650  -12.9310 N   0  0  0  0  0  0  0  0  0  0  0  0
    1.0370   11.4690  -13.2320 N   0  0  0  0  0  0  0  0  0  0  0  0
   -0.2680   11.4990  -13.3020 N   0  0  0  0  0  0  0  0  0  0  0  0
   -0.6500   12.7590  -13.0370 C   0  0  0  0  0  3  0  0  0  0  0  0
   -1.1880   10.4400  -13.5970 C   0  0  0  0  0  0  0  0  0  0  0  0
   -0.8370    9.1120  -13.5550 C   0  0  0  0  0  3  0  0  0  0  0  0
   -1.7730    8.1150  -13.8510 C   0  0  0  0  0  0  0  0  0  0  0  0
   -1.2890    6.2720  -13.7940 Br  0  0  0  0  0  0  0  0  0  0  0  0
   -3.0670    8.4400  -14.1940 C   0  0  0  0  0  3  0  0  0  0  0  0
   -3.4300    9.7670  -14.2390 C   0  0  0  0  0  3  0  0  0  0  0  0
   -2.4850   10.7550  -13.9400 C   0  0  0  0  0  3  0  0  0  0  0  0
   -0.6380   17.1580  -12.1080 C   0  0  0  0  0  2  0  0  0  0  0  0
   -1.9640   17.7880  -12.4340 C   0  0  0  0  0  0  0  0  0  0  0  0
   -2.6790   18.6670  -11.6910 N   0  0  0  0  0  0  0  0  0  0  0  0
   -3.8040   18.9870  -12.3400 C   0  0  0  0  0  0  0  0  0  0  0  0
   -2.5930   19.3540  -10.4140 C   0  0  0  0  0  2  0  0  0  0  0  0
   -3.7750   18.2900  -13.5000 N   0  0  0  0  0  0  0  0  0  0  0  0
   -4.6300   19.9650  -11.5420 C   0  0  0  0  0  2  0  0  0  0  0  0
   -2.6720   17.5710  -13.5570 N   0  0  0  0  0  0  0  0  0  0  0  0
   -4.0230   19.7950  -10.1660 C   0  0  0  0  0  2  0  0  0  0  0  0
  1  3  1  0  0  0  0
  1  2  2  0  0  0  0
  3 17  1  0  0  0  0
  4  3  1  0  0  0  0
  5  1  1  0  0  0  0
  6  5  1  0  0  0  0
  7  6  2  0  0  0  0
  8  7  1  0  0  0  0
  8  9  1  0  0  0  0
  9  5  2  0  0  0  0
 10 11  1  0  0  0  0
 10  8  1  0  0  0  0
 12 13  1  0  0  0  0
 12 11  2  0  0  0  0
 14 12  1  0  0  0  0
 15 14  2  0  0  0  0
 15 16  1  0  0  0  0
 16 10  2  0  0  0  0
 18 17  1  0  0  0  0
 18 19  1  0  0  0  0
 19 21  1  0  0  0  0
 20 19  1  0  0  0  0
 20 23  1  0  0  0  0
 21 25  1  0  0  0  0
 22 20  2  0  0  0  0
 23 25  1  0  0  0  0
 24 22  1  0  0  0  0
 24 18  2  0  0  0  0
M  END
>  <Pose>
1

>  <Score>
-9.505

$$$$
