/Users/jonathanwahrer/Desktop/Msc/3_Semester/Drug_Design_Praktikum/waehrer_HTS_screening/HTS_experiment/out/docking_results/vina_output/6q9y/0216_docked.pdbqt
 OpenBabel03222219113D

 28 31  0  0  1  0  0  0  0  0999 V2000
    2.4570   11.9930  -12.1820 C   0  0  0  0  0  0  0  0  0  0  0  0
    2.6360   11.8730  -10.9440 O   0  0  0  0  0  0  0  0  0  0  0  0
    2.5410   10.8880  -13.0560 N   0  0  0  0  0  0  0  0  0  0  0  0
    2.3380   10.9890  -14.4940 C   0  0  0  0  0  2  0  0  0  0  0  0
    1.8180    9.6540  -15.0120 C   0  0  0  0  0  2  0  0  0  0  0  0
    1.0880    8.9080  -14.0060 N   0  0  0  0  0  0  0  0  0  0  0  0
    1.9900    8.4790  -12.9950 C   0  0  0  0  0  2  0  0  0  0  0  0
    2.8470    9.5790  -12.4660 C   0  0  0  0  0  2  0  0  0  0  0  0
    2.1560   13.3090  -12.7080 C   0  0  1  0  0  3  0  0  0  0  0  0
    1.3460   14.1680  -11.7140 C   0  0  0  0  0  2  0  0  0  0  0  0
    1.2980   15.3740  -12.5260 N   0  0  0  0  0  0  0  0  0  0  0  0
    2.6450   15.5260  -12.9600 C   0  0  0  0  0  0  0  0  0  0  0  0
    3.3730   14.2360  -12.8070 C   0  0  0  0  0  2  0  0  0  0  0  0
    3.1420   16.5860  -13.4040 O   0  0  0  0  0  0  0  0  0  0  0  0
    0.1320   16.1350  -12.7680 C   0  0  0  0  0  0  0  0  0  0  0  0
   -0.3630   16.9690  -11.7830 C   0  0  0  0  0  3  0  0  0  0  0  0
   -1.5090   17.7380  -11.9580 C   0  0  0  0  0  0  0  0  0  0  0  0
   -2.1020   18.8450  -10.5470 Br  0  0  0  0  0  0  0  0  0  0  0  0
   -2.1820   17.6600  -13.1760 C   0  0  0  0  0  3  0  0  0  0  0  0
   -1.7260   16.8420  -14.1870 C   0  0  0  0  0  3  0  0  0  0  0  0
   -0.5830   16.1080  -13.9460 C   0  0  0  0  0  3  0  0  0  0  0  0
   -0.0930    9.5740  -13.5850 C   0  0  0  0  0  2  0  0  0  0  0  0
   -1.1180    8.6680  -12.9520 C   0  0  0  0  0  2  0  0  0  0  0  0
   -1.9850    8.0180  -13.8920 N   0  0  0  0  0  0  0  0  0  0  0  0
   -3.1500    8.4450  -14.3810 C   0  0  0  0  0  3  0  0  0  0  0  0
   -3.6460    7.5240  -15.2350 N   0  0  0  0  0  0  0  0  0  0  0  0
   -2.7870    6.5000  -15.2900 C   0  0  0  0  0  3  0  0  0  0  0  0
   -1.7500    6.8200  -14.4450 C   0  0  0  0  0  3  0  0  0  0  0  0
  1  2  2  0  0  0  0
  3  8  1  0  0  0  0
  3  1  1  0  0  0  0
  4  3  1  0  0  0  0
  5  4  1  0  0  0  0
  5  6  1  0  0  0  0
  6 22  1  0  0  0  0
  6  7  1  0  0  0  0
  7  8  1  0  0  0  0
  9  1  1  1  0  0  0
  9 10  1  0  0  0  0
 11 10  1  0  0  0  0
 12 13  1  0  0  0  0
 12 11  1  0  0  0  0
 13  9  1  0  0  0  0
 14 12  2  0  0  0  0
 15 11  1  0  0  0  0
 15 16  1  0  0  0  0
 17 16  2  0  0  0  0
 17 18  1  0  0  0  0
 19 17  1  0  0  0  0
 20 21  1  0  0  0  0
 20 19  2  0  0  0  0
 21 15  2  0  0  0  0
 22 23  1  0  0  0  0
 24 23  1  0  0  0  0
 25 24  1  0  0  0  0
 26 25  2  0  0  0  0
 27 26  1  0  0  0  0
 27 28  2  0  0  0  0
 28 24  1  0  0  0  0
M  END
>  <Pose>
1

>  <Score>
-7.562

$$$$
