/Users/jonathanwahrer/Desktop/Msc/3_Semester/Drug_Design_Praktikum/waehrer_HTS_screening/HTS_experiment/out/docking_results/vina_output/6q9y/0226_docked.pdbqt
 OpenBabel03222219113D

 30 33  0  0  0  0  0  0  0  0999 V2000
    0.3770    8.6710  -13.7870 N   0  0  0  0  0  0  0  0  0  0  0  0
   -0.8290    8.1380  -14.0470 C   0  0  0  0  0  0  0  0  0  0  0  0
   -1.8100    9.0930  -13.8670 C   0  0  0  0  0  0  0  0  0  0  0  0
   -1.1540   10.2000  -13.4980 N   0  0  0  0  0  0  0  0  0  0  0  0
    0.1710    9.9740  -13.4410 C   0  0  0  0  0  0  0  0  0  0  0  0
   -3.1030    8.7820  -14.0750 N   0  0  0  0  0  0  0  0  0  0  0  0
   -3.4570    7.5420  -14.4570 C   0  0  0  0  0  0  0  0  0  0  0  0
   -4.6500    7.2090  -14.6620 O   0  0  0  0  0  0  0  0  0  0  0  0
   -2.4990    6.5910  -14.6380 N   0  0  0  0  0  0  0  0  0  0  0  0
   -1.1950    6.8540  -14.4430 C   0  0  0  0  0  0  0  0  0  0  0  0
   -0.3290    5.9360  -14.6210 O   0  0  0  0  0  0  0  0  0  0  0  0
   -4.1550    9.7600  -13.8940 C   0  0  0  0  0  1  0  0  0  0  0  0
   -2.8170    5.6400  -14.9370 H   0  0  0  0  0  0  0  0  0  0  0  0
    1.6530    8.0180  -13.8620 C   0  0  0  0  0  2  0  0  0  0  0  0
    1.9260    7.1260  -12.6920 C   0  0  0  0  0  0  0  0  0  0  0  0
    1.3230    7.2850  -11.6190 O   0  0  0  0  0  0  0  0  0  0  0  0
    2.9090    6.0490  -12.7880 C   0  0  0  0  0  0  0  0  0  0  0  0
    2.5990    4.7580  -12.4350 C   0  0  0  0  0  3  0  0  0  0  0  0
    3.5340    3.7390  -12.5240 C   0  0  0  0  0  3  0  0  0  0  0  0
    4.8250    3.9760  -12.9730 C   0  0  0  0  0  0  0  0  0  0  0  0
    6.0780    2.5490  -13.0800 Br  0  0  0  0  0  0  0  0  0  0  0  0
    5.1380    5.2690  -13.3260 C   0  0  0  0  0  3  0  0  0  0  0  0
    4.2000    6.2720  -13.2330 C   0  0  0  0  0  3  0  0  0  0  0  0
    1.2120   10.8720  -13.1010 N   0  0  0  0  0  0  0  0  0  0  0  0
    0.9660   12.2760  -13.1700 C   0  0  0  0  0  2  0  0  0  0  0  0
    1.9320   13.1670  -12.4830 C   0  0  0  0  0  2  0  0  0  0  0  0
    3.2520   12.6390  -12.3060 N   0  0  0  0  0  0  0  0  0  0  0  0
    3.1330   11.3310  -11.6930 C   0  0  0  0  0  2  0  0  0  0  0  0
    4.0320   12.6220  -13.5110 C   0  0  0  0  0  1  0  0  0  0  0  0
    2.4870   10.3690  -12.6910 C   0  0  0  0  0  2  0  0  0  0  0  0
  1  5  1  0  0  0  0
  2  3  2  0  0  0  0
  2  1  1  0  0  0  0
  3  4  1  0  0  0  0
  4  5  2  0  0  0  0
  5 24  1  0  0  0  0
  6 12  1  0  0  0  0
  6  3  1  0  0  0  0
  7  6  1  0  0  0  0
  8  7  2  0  0  0  0
  9  7  1  0  0  0  0
  9 10  1  0  0  0  0
 10  2  1  0  0  0  0
 11 10  2  0  0  0  0
 13  9  1  0  0  0  0
 14  1  1  0  0  0  0
 14 15  1  0  0  0  0
 15 16  2  0  0  0  0
 17 15  1  0  0  0  0
 17 18  1  0  0  0  0
 19 18  2  0  0  0  0
 20 19  1  0  0  0  0
 21 20  1  0  0  0  0
 22 23  1  0  0  0  0
 22 20  2  0  0  0  0
 23 17  2  0  0  0  0
 24 30  1  0  0  0  0
 25 24  1  0  0  0  0
 25 26  1  0  0  0  0
 26 27  1  0  0  0  0
 27 28  1  0  0  0  0
 29 27  1  0  0  0  0
 30 28  1  0  0  0  0
M  END
>  <Pose>
1

>  <Score>
-8.162

$$$$
