/Users/jonathanwahrer/Desktop/Msc/3_Semester/Drug_Design_Praktikum/waehrer_HTS_screening/HTS_experiment/out/docking_results/vina_output/6q9y/0235_docked.pdbqt
 OpenBabel03222219123D

 25 28  0  0  1  0  0  0  0  0999 V2000
    0.7160    9.0070  -12.5180 C   0  0  1  0  0  3  0  0  0  0  0  0
    0.0400    7.8940  -13.1670 N   0  0  0  0  0  0  0  0  0  0  0  0
   -0.5120    7.6290  -14.4030 N   0  0  0  0  0  2  0  0  0  0  0  0
   -0.9610    6.4750  -14.7500 C   0  0  0  0  0  3  0  0  0  0  0  0
   -0.9100    5.3770  -13.8120 C   0  0  0  0  0  3  0  0  0  0  0  0
   -0.4240    5.5570  -12.6060 C   0  0  0  0  0  3  0  0  0  0  0  0
    0.0670    6.8450  -12.1510 C   0  0  0  0  0  0  0  0  0  0  0  0
    1.4900    6.8940  -11.7220 C   0  0  2  0  0  3  0  0  0  0  0  0
    1.9700    8.3180  -12.0270 C   0  0  1  0  0  3  0  0  0  0  0  0
    2.9710    8.1360  -13.0760 C   0  0  0  0  0  0  0  0  0  0  0  0
    3.4370    9.0500  -13.8110 O   0  0  0  0  0  0  0  0  0  0  0  0
    3.3310    6.7700  -13.1340 N   0  0  0  0  0  0  0  0  0  0  0  0
    2.3660    5.9740  -12.4580 C   0  0  0  0  0  0  0  0  0  0  0  0
    2.2720    4.7230  -12.4800 O   0  0  0  0  0  0  0  0  0  0  0  0
    0.9940   10.0930  -13.4670 C   0  0  0  0  0  0  0  0  0  0  0  0
    1.1620    9.7540  -14.6830 O   0  0  0  0  0  0  0  0  0  0  0  0
    1.0890   11.4960  -13.1320 C   0  0  0  0  0  0  0  0  0  0  0  0
    0.0210   12.3510  -13.2280 C   0  0  0  0  0  3  0  0  0  0  0  0
    0.1680   13.6780  -12.8910 C   0  0  0  0  0  3  0  0  0  0  0  0
    1.3560   14.2190  -12.4490 C   0  0  0  0  0  0  0  0  0  0  0  0
    1.4920   16.0690  -11.9970 Br  0  0  0  0  0  0  0  0  0  0  0  0
    2.4260   13.3570  -12.3540 C   0  0  0  0  0  3  0  0  0  0  0  0
    2.2890   12.0290  -12.6890 C   0  0  0  0  0  3  0  0  0  0  0  0
    4.5060    6.2330  -13.7790 C   0  0  0  0  0  2  0  0  0  0  0  0
    5.5220    5.6900  -12.8200 C   0  0  0  0  0  1  0  0  0  0  0  0
  1 15  1  6  0  0  0
  1  9  1  0  0  0  0
  2  1  1  0  0  0  0
  2  7  1  0  0  0  0
  3  2  1  0  0  0  0
  4  3  1  0  0  0  0
  4  5  2  0  0  0  0
  5  6  1  0  0  0  0
  6  7  2  0  0  0  0
  7  8  1  0  0  0  0
  8 13  1  6  0  0  0
  9 10  1  6  0  0  0
  9  8  1  0  0  0  0
 11 10  2  0  0  0  0
 12 10  1  0  0  0  0
 12 13  1  0  0  0  0
 14 13  2  0  0  0  0
 15 17  1  0  0  0  0
 16 15  2  0  0  0  0
 17 23  1  0  0  0  0
 18 17  2  0  0  0  0
 18 19  1  0  0  0  0
 19 20  2  0  0  0  0
 20 22  1  0  0  0  0
 20 21  1  0  0  0  0
 23 22  2  0  0  0  0
 24 12  1  0  0  0  0
 24 25  1  0  0  0  0
M  END
>  <Pose>
1

>  <Score>
-7.581

$$$$
