/Users/jonathanwahrer/Desktop/Msc/3_Semester/Drug_Design_Praktikum/waehrer_HTS_screening/HTS_experiment/out/docking_results/vina_output/6q9y/0247_docked.pdbqt
 OpenBabel03222219123D

 23 26  0  0  1  0  0  0  0  0999 V2000
   -7.0890   24.2510   -6.7930 N   0  0  0  0  0  0  0  0  0  0  0  0
   -6.9630   25.6520   -6.5820 C   0  0  0  0  0  0  0  0  0  0  0  0
   -5.9400   26.3000   -6.9900 O   0  0  0  0  0  0  0  0  0  0  0  0
   -8.1470   26.1800   -5.8550 C   0  0  2  0  0  3  0  0  0  0  0  0
   -9.0550   24.9650   -5.8110 C   0  0  1  0  0  3  0  0  0  0  0  0
   -9.9850   25.2670   -6.9660 C   0  0  1  0  0  3  0  0  0  0  0  0
  -10.3470   26.7090   -6.5530 C   0  0  0  0  0  2  0  0  0  0  0  0
   -8.8900   27.1900   -6.6820 C   0  0  2  0  0  3  0  0  0  0  0  0
   -8.6730   26.7880   -8.1170 C   0  0  0  0  0  2  0  0  0  0  0  0
   -9.2200   25.5820   -8.2050 C   0  0  0  0  0  2  0  0  0  0  0  0
   -8.2080   23.7860   -6.0650 C   0  0  0  0  0  0  0  0  0  0  0  0
   -8.4550   22.6180   -5.6980 O   0  0  0  0  0  0  0  0  0  0  0  0
   -6.2810   23.3890   -7.5810 N   0  0  0  0  0  0  0  0  0  0  0  0
   -6.8070   22.7020   -8.6950 C   0  0  0  0  0  0  0  0  0  0  0  0
   -8.0260   22.8270   -9.0450 O   0  0  0  0  0  0  0  0  0  0  0  0
   -5.2840   23.2750   -7.3250 H   0  0  0  0  0  0  0  0  0  0  0  0
   -5.9710   21.8290   -9.4830 C   0  0  0  0  0  0  0  0  0  0  0  0
   -6.4910   21.2610  -10.6410 C   0  0  0  0  0  3  0  0  0  0  0  0
   -5.7330   20.4110  -11.4190 C   0  0  0  0  0  3  0  0  0  0  0  0
   -4.4500   20.1090  -11.0670 C   0  0  0  0  0  0  0  0  0  0  0  0
   -3.4200   18.9240  -12.1590 Br  0  0  0  0  0  0  0  0  0  0  0  0
   -3.9130   20.6700   -9.9090 C   0  0  0  0  0  3  0  0  0  0  0  0
   -4.6750   21.5130   -9.1430 C   0  0  0  0  0  3  0  0  0  0  0  0
  1  2  1  0  0  0  0
  1 11  1  0  0  0  0
  3  2  2  0  0  0  0
  4  2  1  6  0  0  0
  4  5  1  0  0  0  0
  5 11  1  6  0  0  0
  6 10  1  6  0  0  0
  6  7  1  0  0  0  0
  6  5  1  0  0  0  0
  8  9  1  6  0  0  0
  8  7  1  0  0  0  0
  8  4  1  0  0  0  0
 10  9  1  0  0  0  0
 11 12  2  0  0  0  0
 13 16  1  0  0  0  0
 13  1  1  0  0  0  0
 14 13  1  0  0  0  0
 15 14  2  0  0  0  0
 17 23  1  0  0  0  0
 17 14  1  0  0  0  0
 18 17  2  0  0  0  0
 19 20  2  0  0  0  0
 19 18  1  0  0  0  0
 20 22  1  0  0  0  0
 21 20  1  0  0  0  0
 22 23  2  0  0  0  0
M  END
>  <Pose>
1

>  <Score>
-8.369

$$$$
