/Users/jonathanwahrer/Desktop/Msc/3_Semester/Drug_Design_Praktikum/waehrer_HTS_screening/HTS_experiment/out/docking_results/vina_output/6q9y/0257_docked.pdbqt
 OpenBabel03222219133D

 31 34  0  0  1  0  0  0  0  0999 V2000
    2.2420    6.5340  -12.7570 C   0  0  2  0  0  3  0  0  0  0  0  0
    2.9860    7.2300  -13.8560 C   0  0  2  0  0  3  0  0  0  0  0  0
    4.3650    6.9720  -13.4590 N   0  0  0  0  0  0  0  0  0  0  0  0
    4.3510    5.6100  -12.9860 C   0  0  0  0  0  0  0  0  0  0  0  0
    5.3390    4.8580  -12.9820 O   0  0  0  0  0  0  0  0  0  0  0  0
    2.9860    5.3050  -12.5280 C   0  0  0  0  0  0  0  0  0  0  0  0
    2.5540    4.2240  -12.0490 O   0  0  0  0  0  0  0  0  0  0  0  0
    1.1460    6.9100  -12.1500 C   0  0  2  0  0  3  0  0  0  0  0  0
    1.2050    7.2080  -10.7750 O   0  0  0  0  0  1  0  0  0  0  0  0
   -0.0990    7.0110  -12.8910 C   0  0  0  0  0  0  0  0  0  0  0  0
   -0.6290    5.8720  -13.5090 C   0  0  0  0  0  3  0  0  0  0  0  0
   -1.7930    5.9440  -14.2440 C   0  0  0  0  0  3  0  0  0  0  0  0
   -2.4900    7.1220  -14.4090 C   0  0  0  0  0  0  0  0  0  0  0  0
   -4.1010    7.2470  -15.4190 Br  0  0  0  0  0  0  0  0  0  0  0  0
   -1.9850    8.2550  -13.8080 C   0  0  0  0  0  3  0  0  0  0  0  0
   -0.8080    8.1810  -13.0660 C   0  0  0  0  0  3  0  0  0  0  0  0
    2.6510    8.6750  -13.8850 C   0  0  0  0  0  0  0  0  0  0  0  0
    2.8660    9.3920  -12.7710 N   0  0  0  0  0  0  0  0  0  0  0  0
    2.6140   10.7000  -12.6820 C   0  0  0  0  0  3  0  0  0  0  0  0
    2.1090   11.3380  -13.7910 C   0  0  0  0  0  3  0  0  0  0  0  0
    1.8740   10.6430  -14.9530 C   0  0  0  0  0  3  0  0  0  0  0  0
    2.1500    9.3010  -14.9920 C   0  0  0  0  0  3  0  0  0  0  0  0
    5.4750    7.8760  -13.5400 C   0  0  0  0  0  2  0  0  0  0  0  0
    6.7190    7.2050  -14.1000 C   0  0  0  0  0  2  0  0  0  0  0  0
    7.7930    7.2420  -13.0120 C   0  0  0  0  0  2  0  0  0  0  0  0
    9.0020    6.5610  -13.4320 N   0  0  0  0  0  0  0  0  0  0  0  0
    9.8720    5.8750  -12.6540 C   0  0  0  0  0  2  0  0  0  0  0  0
   10.8610    5.3950  -13.4270 N   0  0  0  0  0  0  0  0  0  0  0  0
   10.6520    5.7570  -14.7010 C   0  0  0  0  0  3  0  0  0  0  0  0
   11.6870    4.8170  -13.1020 H   0  0  0  0  0  0  0  0  0  0  0  0
    9.4820    6.4870  -14.6830 C   0  0  0  0  0  3  0  0  0  0  0  0
  1  6  1  0  0  0  0
  1  8  1  6  0  0  0
  2 17  1  1  0  0  0
  2  3  1  0  0  0  0
  2  1  1  0  0  0  0
  3  4  1  0  0  0  0
  4  5  2  0  0  0  0
  4  6  1  0  0  0  0
  6  7  2  0  0  0  0
  8  9  1  1  0  0  0
 10  8  1  0  0  0  0
 11 10  2  0  0  0  0
 12 11  1  0  0  0  0
 13 12  2  0  0  0  0
 13 15  1  0  0  0  0
 14 13  1  0  0  0  0
 15 16  2  0  0  0  0
 16 10  1  0  0  0  0
 17 18  1  0  0  0  0
 18 19  2  0  0  0  0
 20 19  1  0  0  0  0
 21 20  2  0  0  0  0
 22 21  1  0  0  0  0
 22 17  2  0  0  0  0
 23  3  1  0  0  0  0
 24 23  1  0  0  0  0
 24 25  1  0  0  0  0
 26 25  1  0  0  0  0
 26 27  1  0  0  0  0
 28 30  1  0  0  0  0
 28 27  1  0  0  0  0
 29 31  2  0  0  0  0
 29 28  1  0  0  0  0
 31 26  1  0  0  0  0
M  END
>  <Pose>
1

>  <Score>
-8.438

$$$$
