/Users/jonathanwahrer/Desktop/Msc/3_Semester/Drug_Design_Praktikum/waehrer_HTS_screening/HTS_experiment/out/docking_results/vina_output/6q9y/0263_docked.pdbqt
 OpenBabel03222219133D

 34 37  0  0  1  0  0  0  0  0999 V2000
    4.2520    6.4520  -13.1760 C   0  0  0  0  0  0  0  0  0  0  0  0
    3.0520    6.3750  -12.6650 C   0  0  0  0  0  0  0  0  0  0  0  0
    2.0890    7.5090  -12.4280 C   0  0  2  0  0  3  0  0  0  0  0  0
    0.8160    6.9030  -12.6130 N   0  0  0  0  0  0  0  0  0  0  0  0
    0.9490    5.5110  -12.2340 C   0  0  0  0  0  0  0  0  0  0  0  0
    0.0310    4.7140  -11.9250 O   0  0  0  0  0  0  0  0  0  0  0  0
    2.3660    5.1670  -12.2660 C   0  0  0  0  0  0  0  0  0  0  0  0
    2.8530    4.0190  -11.9920 O   0  0  0  0  0  0  0  0  0  0  0  0
    4.7290    7.7230  -13.5670 O   0  0  0  0  0  1  0  0  0  0  0  0
    5.0780    5.2670  -13.3410 C   0  0  0  0  0  0  0  0  0  0  0  0
    6.3640    5.3490  -12.8100 C   0  0  0  0  0  3  0  0  0  0  0  0
    7.2130    4.2800  -12.8660 C   0  0  0  0  0  3  0  0  0  0  0  0
    6.7760    3.1160  -13.4560 C   0  0  0  0  0  0  0  0  0  0  0  0
    7.9980    1.6310  -13.5180 Br  0  0  0  0  0  0  0  0  0  0  0  0
    5.5050    3.0280  -13.9820 C   0  0  0  0  0  3  0  0  0  0  0  0
    4.6580    4.1150  -13.9190 C   0  0  0  0  0  3  0  0  0  0  0  0
    2.4200    8.6700  -13.2450 C   0  0  0  0  0  0  0  0  0  0  0  0
    2.8680    9.8770  -12.7820 C   0  0  0  0  0  3  0  0  0  0  0  0
    3.1680   10.9200  -13.6190 C   0  0  0  0  0  0  0  0  0  0  0  0
    3.0170   10.7630  -14.9700 C   0  0  0  0  0  3  0  0  0  0  0  0
    2.5640    9.5590  -15.5020 C   0  0  0  0  0  3  0  0  0  0  0  0
    2.2740    8.5370  -14.6350 C   0  0  0  0  0  3  0  0  0  0  0  0
    3.6260   12.1350  -13.0730 N   0  0  0  0  0  0  0  0  0  0  0  0
    4.4660   12.8630  -13.6630 O   0  0  0  0  0  0  0  0  0  0  0  0
    3.1320   12.5330  -11.8520 O   0  0  0  0  0  0  0  0  0  0  0  0
   -0.4810    7.4050  -13.0270 C   0  0  0  0  0  2  0  0  0  0  0  0
   -1.0480    6.7830  -14.2620 C   0  0  0  0  0  2  0  0  0  0  0  0
   -2.2700    7.4300  -14.7110 N   0  0  0  0  0  4  0  0  0  0  0  0
   -2.5950    8.5760  -13.8560 C   0  0  0  0  0  2  0  0  0  0  0  0
   -3.7970    9.2470  -14.5360 C   0  0  0  0  0  2  0  0  0  0  0  0
   -4.8770    8.4050  -14.6330 O   0  0  0  0  0  0  0  0  0  0  0  0
   -4.5940    7.1820  -15.2220 C   0  0  0  0  0  2  0  0  0  0  0  0
   -3.3850    6.5220  -14.6080 C   0  0  0  0  0  2  0  0  0  0  0  0
   -2.2270    7.7990  -15.6650 H   0  0  0  0  0  0  0  0  0  0  0  0
  1  2  2  0  0  0  0
  2  3  1  0  0  0  0
  2  7  1  0  0  0  0
  3 17  1  6  0  0  0
  4  3  1  0  0  0  0
  4  5  1  0  0  0  0
  5  6  2  0  0  0  0
  7  5  1  0  0  0  0
  7  8  2  0  0  0  0
  9  1  1  0  0  0  0
 10  1  1  0  0  0  0
 10 11  1  0  0  0  0
 12 11  2  0  0  0  0
 13 12  1  0  0  0  0
 14 13  1  0  0  0  0
 15 16  1  0  0  0  0
 15 13  2  0  0  0  0
 16 10  2  0  0  0  0
 17 18  1  0  0  0  0
 19 23  1  0  0  0  0
 19 18  2  0  0  0  0
 20 19  1  0  0  0  0
 21 20  2  0  0  0  0
 21 22  1  0  0  0  0
 22 17  2  0  0  0  0
 23 25  2  0  0  0  0
 24 23  2  0  0  0  0
 26  4  1  0  0  0  0
 27 26  1  0  0  0  0
 28 33  1  0  0  0  0
 28 27  1  0  0  0  0
 28 29  1  0  0  0  0
 30 29  1  0  0  0  0
 31 30  1  0  0  0  0
 32 31  1  0  0  0  0
 32 33  1  0  0  0  0
 34 28  1  0  0  0  0
M  END
>  <Pose>
1

>  <Score>
-8.221

$$$$
