/Users/jonathanwahrer/Desktop/Msc/3_Semester/Drug_Design_Praktikum/waehrer_HTS_screening/HTS_experiment/out/docking_results/vina_output/6q9y/0289_docked.pdbqt
 OpenBabel03222219143D

 31 34  0  0  0  0  0  0  0  0999 V2000
    0.0190    9.2960  -13.5780 C   0  0  0  0  0  0  0  0  0  0  0  0
   -0.0480    7.9580  -13.6750 N   0  0  0  0  0  0  0  0  0  0  0  0
   -1.3200    7.5950  -13.9640 C   0  0  0  0  0  0  0  0  0  0  0  0
   -2.0920    8.7330  -14.0530 C   0  0  0  0  0  0  0  0  0  0  0  0
   -1.2590    9.7460  -13.8150 N   0  0  0  0  0  0  0  0  0  0  0  0
   -3.4030    8.6240  -14.3360 N   0  0  0  0  0  0  0  0  0  0  0  0
   -3.9870    7.4350  -14.5360 C   0  0  0  0  0  0  0  0  0  0  0  0
   -5.2300    7.3720  -14.8030 O   0  0  0  0  0  0  0  0  0  0  0  0
   -3.2520    6.3130  -14.4540 N   0  0  0  0  0  0  0  0  0  0  0  0
   -1.9440    6.3860  -14.1730 C   0  0  0  0  0  0  0  0  0  0  0  0
   -1.2590    5.3360  -14.0980 O   0  0  0  0  0  0  0  0  0  0  0  0
   -4.1920    9.8570  -14.4290 C   0  0  0  0  0  1  0  0  0  0  0  0
   -3.7080    5.3680  -14.6100 H   0  0  0  0  0  0  0  0  0  0  0  0
    1.1500   10.0950  -13.3350 N   0  0  0  0  0  0  0  0  0  0  0  0
    1.6610   11.0400  -14.2660 C   0  0  0  0  0  2  0  0  0  0  0  0
    3.0750   10.5960  -14.6280 C   0  0  0  0  0  2  0  0  0  0  0  0
    3.5010    9.4930  -13.8760 N   0  0  0  0  0  0  0  0  0  0  0  0
    3.2410    9.4040  -12.4980 C   0  0  0  0  0  2  0  0  0  0  0  0
    1.8710    9.9620  -12.0930 C   0  0  0  0  0  2  0  0  0  0  0  0
    3.7030    8.2800  -14.5960 C   0  0  0  0  0  2  0  0  0  0  0  0
    4.8850    7.5040  -14.1740 C   0  0  0  0  0  0  0  0  0  0  0  0
    4.6800    6.2900  -13.5680 C   0  0  0  0  0  3  0  0  0  0  0  0
    5.7600    5.5200  -13.1660 C   0  0  0  0  0  3  0  0  0  0  0  0
    7.0530    5.9590  -13.3670 C   0  0  0  0  0  0  0  0  0  0  0  0
    8.5490    4.8870  -12.8110 Br  0  0  0  0  0  0  0  0  0  0  0  0
    7.2360    7.1800  -13.9750 C   0  0  0  0  0  3  0  0  0  0  0  0
    6.1700    7.9580  -14.3810 C   0  0  0  0  0  3  0  0  0  0  0  0
    0.9980    6.9920  -13.4710 C   0  0  0  0  0  2  0  0  0  0  0  0
    1.1400    6.6040  -12.0170 C   0  0  0  0  0  2  0  0  0  0  0  0
    0.9470    5.2590  -11.7740 O   0  0  0  0  0  0  0  0  0  0  0  0
    2.1730    4.6310  -12.0950 C   0  0  0  0  0  1  0  0  0  0  0  0
  1 14  1  0  0  0  0
  2  1  1  0  0  0  0
  2 28  1  0  0  0  0
  3  2  1  0  0  0  0
  4  3  2  0  0  0  0
  4  5  1  0  0  0  0
  5  1  2  0  0  0  0
  6  4  1  0  0  0  0
  7  9  1  0  0  0  0
  7  6  1  0  0  0  0
  8  7  2  0  0  0  0
  9 10  1  0  0  0  0
 10 11  2  0  0  0  0
 10  3  1  0  0  0  0
 12  6  1  0  0  0  0
 13  9  1  0  0  0  0
 14 19  1  0  0  0  0
 15 14  1  0  0  0  0
 16 15  1  0  0  0  0
 16 17  1  0  0  0  0
 17 18  1  0  0  0  0
 18 19  1  0  0  0  0
 20 21  1  0  0  0  0
 20 17  1  0  0  0  0
 21 22  1  0  0  0  0
 22 23  2  0  0  0  0
 24 23  1  0  0  0  0
 24 25  1  0  0  0  0
 26 24  2  0  0  0  0
 27 21  2  0  0  0  0
 27 26  1  0  0  0  0
 28 29  1  0  0  0  0
 29 30  1  0  0  0  0
 31 30  1  0  0  0  0
M  END
>  <Pose>
1

>  <Score>
-7.404

$$$$
