/Users/jonathanwahrer/Desktop/Msc/3_Semester/Drug_Design_Praktikum/waehrer_HTS_screening/HTS_experiment/out/docking_results/vina_output/6q9y/0294_docked.pdbqt
 OpenBabel03222219153D

 35 38  0  0  0  0  0  0  0  0999 V2000
   -0.7000   11.0060  -13.8120 N   0  0  0  0  0  0  0  0  0  0  0  0
   -2.0310   11.1100  -14.1110 N   0  0  0  0  0  0  0  0  0  0  0  0
   -2.5930    9.8980  -14.0050 C   0  0  0  0  0  0  0  0  0  0  0  0
   -1.6080    9.0750  -13.6470 N   0  0  0  0  0  0  0  0  0  0  0  0
   -0.4120    9.7650  -13.5240 C   0  0  0  0  0  0  0  0  0  0  0  0
    0.1340   12.1920  -13.8360 C   0  0  0  0  0  2  0  0  0  0  0  0
   -0.4810   13.3000  -13.0590 C   0  0  0  0  0  0  0  0  0  0  0  0
   -0.3780   14.6420  -13.5000 N   0  0  0  0  0  0  0  0  0  0  0  0
    0.1410   14.8860  -14.3980 H   0  0  0  0  0  0  0  0  0  0  0  0
   -1.0990   13.0510  -12.0000 O   0  0  0  0  0  0  0  0  0  0  0  0
   -0.9600   15.6460  -12.7570 N   0  0  0  0  0  0  0  0  0  0  0  0
   -1.5050   16.6990  -13.2270 C   0  0  0  0  0  3  0  0  0  0  0  0
   -2.1080   17.7320  -12.3910 C   0  0  0  0  0  0  0  0  0  0  0  0
   -1.5410   18.1120  -11.1930 C   0  0  0  0  0  3  0  0  0  0  0  0
   -2.1300   19.0940  -10.4170 C   0  0  0  0  0  3  0  0  0  0  0  0
   -3.3000   19.7320  -10.8030 C   0  0  0  0  0  0  0  0  0  0  0  0
   -4.0880   21.0840   -9.7100 Br  0  0  0  0  0  0  0  0  0  0  0  0
   -3.8680   19.3510  -12.0000 C   0  0  0  0  0  3  0  0  0  0  0  0
   -3.2700   18.3710  -12.7660 C   0  0  0  0  0  3  0  0  0  0  0  0
    0.8240    9.1110  -13.1460 C   0  0  0  0  0  0  0  0  0  0  0  0
    2.0190    9.3510  -13.8180 N   0  0  0  0  0  0  0  0  0  0  0  0
    2.9560    8.6700  -13.2860 O   0  0  0  0  0  0  0  0  0  0  0  0
    2.5010    7.9880  -12.3090 N   0  0  0  0  0  0  0  0  0  0  0  0
    1.1620    8.2400  -12.1920 C   0  0  0  0  0  0  0  0  0  0  0  0
    0.4100    7.6260  -11.1830 N   0  0  0  0  0  0  0  0  0  0  0  0
   -0.3980    8.1410  -10.7620 H   0  0  0  0  0  0  0  0  0  0  0  0
    0.5880    6.6680  -10.8160 H   0  0  0  0  0  0  0  0  0  0  0  0
   -3.9890    9.5430  -14.2320 C   0  0  0  0  0  0  0  0  0  0  0  0
   -5.0670   10.2740  -13.9340 N   0  0  0  0  0  0  0  0  0  0  0  0
   -6.1530    9.6120  -14.2920 O   0  0  0  0  0  0  0  0  0  0  0  0
   -5.8310    8.4650  -14.8190 N   0  0  0  0  0  0  0  0  0  0  0  0
   -4.4660    8.3870  -14.7970 C   0  0  0  0  0  0  0  0  0  0  0  0
   -3.7320    7.2770  -15.2880 N   0  0  0  0  0  0  0  0  0  0  0  0
   -4.1020    6.7260  -16.1120 H   0  0  0  0  0  0  0  0  0  0  0  0
   -2.8300    6.9560  -14.8850 H   0  0  0  0  0  0  0  0  0  0  0  0
  1  5  1  0  0  0  0
  2  3  2  0  0  0  0
  2  1  1  0  0  0  0
  3  4  1  0  0  0  0
  4  5  2  0  0  0  0
  5 20  1  0  0  0  0
  6  1  1  0  0  0  0
  6  7  1  0  0  0  0
  7 10  2  0  0  0  0
  8  7  1  0  0  0  0
  8 11  1  0  0  0  0
  9  8  1  0  0  0  0
 12 11  2  0  0  0  0
 12 13  1  0  0  0  0
 13 14  1  0  0  0  0
 14 15  2  0  0  0  0
 16 15  1  0  0  0  0
 16 17  1  0  0  0  0
 18 16  2  0  0  0  0
 19 13  2  0  0  0  0
 19 18  1  0  0  0  0
 20 24  1  0  0  0  0
 21 22  1  0  0  0  0
 21 20  2  0  0  0  0
 22 23  1  0  0  0  0
 23 24  2  0  0  0  0
 24 25  1  0  0  0  0
 25 27  1  0  0  0  0
 25 26  1  0  0  0  0
 28  3  1  0  0  0  0
 28 29  2  0  0  0  0
 30 29  1  0  0  0  0
 31 32  2  0  0  0  0
 31 30  1  0  0  0  0
 32 28  1  0  0  0  0
 33 35  1  0  0  0  0
 33 32  1  0  0  0  0
 34 33  1  0  0  0  0
M  END
>  <Pose>
1

>  <Score>
-9.500

$$$$
