/Users/jonathanwahrer/Desktop/Msc/3_Semester/Drug_Design_Praktikum/waehrer_HTS_screening/HTS_experiment/out/docking_results/vina_output/6q9y/0302_docked.pdbqt
 OpenBabel03222219153D

 29 33  0  0  1  0  0  0  0  0999 V2000
    1.4950    7.7820  -13.6300 C   0  0  0  0  0  0  0  0  0  0  0  0
    1.1070    9.0520  -13.3920 N   0  0  0  0  0  0  0  0  0  0  0  0
   -0.2270    9.1770  -13.5970 C   0  0  1  0  0  3  0  0  0  0  0  0
   -0.7100    7.9790  -13.9700 N   0  0  0  0  0  0  0  0  0  0  0  0
    0.3380    7.1240  -13.9920 C   0  0  0  0  0  3  0  0  0  0  0  0
   -2.0320    8.1540  -14.1590 C   0  0  0  0  0  0  0  0  0  0  0  0
   -2.3790    9.4630  -13.9050 C   0  0  0  0  0  0  0  0  0  0  0  0
   -3.6870    9.9180  -14.0250 C   0  0  0  0  0  3  0  0  0  0  0  0
   -4.6780    9.0450  -14.4090 C   0  0  0  0  0  3  0  0  0  0  0  0
   -4.3220    7.7370  -14.6610 C   0  0  0  0  0  3  0  0  0  0  0  0
   -3.0340    7.2590  -14.5500 C   0  0  0  0  0  3  0  0  0  0  0  0
   -1.2200   10.0800  -13.5540 N   0  0  0  0  0  0  0  0  0  0  0  0
    1.7220    9.8370  -13.0960 H   0  0  0  0  0  0  0  0  0  0  0  0
   -1.1620   11.4840  -13.2060 C   0  0  0  0  0  2  0  0  0  0  0  0
    0.1000   12.1380  -13.7260 C   0  0  0  0  0  2  0  0  0  0  0  0
    0.8860   12.6430  -12.6370 N   0  0  0  0  0  4  0  0  0  0  0  0
    0.6180   14.0500  -12.4310 C   0  0  0  0  0  2  0  0  0  0  0  0
    1.8770   14.8600  -12.2300 C   0  0  0  0  0  2  0  0  0  0  0  0
    2.6470   14.2550  -11.2350 O   0  0  0  0  0  0  0  0  0  0  0  0
    2.9860   12.9570  -11.5530 C   0  0  0  0  0  2  0  0  0  0  0  0
    2.3000   12.4820  -12.8060 C   0  0  0  0  0  2  0  0  0  0  0  0
    0.6250   12.1590  -11.7410 H   0  0  0  0  0  0  0  0  0  0  0  0
    2.8500    7.2490  -13.5210 C   0  0  0  0  0  0  0  0  0  0  0  0
    3.1090    6.0490  -12.8990 C   0  0  0  0  0  3  0  0  0  0  0  0
    4.4010    5.5400  -12.7960 C   0  0  0  0  0  3  0  0  0  0  0  0
    5.4680    6.2390  -13.3250 C   0  0  0  0  0  0  0  0  0  0  0  0
    7.2310    5.5490  -13.1860 Br  0  0  0  0  0  0  0  0  0  0  0  0
    5.2220    7.4440  -13.9520 C   0  0  0  0  0  3  0  0  0  0  0  0
    3.9190    7.9400  -14.0450 C   0  0  0  0  0  3  0  0  0  0  0  0
  1 23  1  0  0  0  0
  1  2  1  0  0  0  0
  2 13  1  0  0  0  0
  3  4  1  1  0  0  0
  3 12  1  0  0  0  0
  3  2  1  0  0  0  0
  5  4  1  0  0  0  0
  5  1  2  0  0  0  0
  6  4  1  0  0  0  0
  6  7  1  0  0  0  0
  7 12  1  0  0  0  0
  8  7  2  0  0  0  0
  9  8  1  0  0  0  0
 10 11  1  0  0  0  0
 10  9  2  0  0  0  0
 11  6  2  0  0  0  0
 12 14  1  0  0  0  0
 15 14  1  0  0  0  0
 15 16  1  0  0  0  0
 16 17  1  0  0  0  0
 16 22  1  0  0  0  0
 17 18  1  0  0  0  0
 18 19  1  0  0  0  0
 20 19  1  0  0  0  0
 21 16  1  0  0  0  0
 21 20  1  0  0  0  0
 23 24  1  0  0  0  0
 24 25  2  0  0  0  0
 26 27  1  0  0  0  0
 26 25  1  0  0  0  0
 28 26  2  0  0  0  0
 29 28  1  0  0  0  0
 29 23  2  0  0  0  0
M  END
>  <Pose>
1

>  <Score>
-8.875

$$$$
