/Users/jonathanwahrer/Desktop/Msc/3_Semester/Drug_Design_Praktikum/waehrer_HTS_screening/HTS_experiment/out/docking_results/vina_output/6q9y/0309_docked.pdbqt
 OpenBabel03222219153D

 33 36  0  0  0  0  0  0  0  0999 V2000
    2.6800    6.5110  -13.1310 C   0  0  0  0  0  0  0  0  0  0  0  0
    3.8750    7.0480  -13.5460 C   0  0  0  0  0  0  0  0  0  0  0  0
    4.9970    6.3550  -13.5840 O   0  0  0  0  0  0  0  0  0  0  0  0
    5.0390    5.0970  -13.2260 C   0  0  0  0  0  0  0  0  0  0  0  0
    3.8970    4.5120  -12.8080 C   0  0  0  0  0  0  0  0  0  0  0  0
    3.9090    3.1880  -12.4270 C   0  0  0  0  0  3  0  0  0  0  0  0
    5.0940    2.5010  -12.4870 C   0  0  0  0  0  3  0  0  0  0  0  0
    6.2800    3.1220  -12.9260 C   0  0  0  0  0  0  0  0  0  0  0  0
    6.2920    4.4300  -13.3060 C   0  0  0  0  0  0  0  0  0  0  0  0
    7.3740    2.2740  -12.9210 O   0  0  0  0  0  1  0  0  0  0  0  0
    2.6850    5.1710  -12.7390 C   0  0  0  0  0  0  0  0  0  0  0  0
    1.6410    4.6330  -12.3550 O   0  0  0  0  0  0  0  0  0  0  0  0
    7.4230    5.2060  -13.7550 C   0  0  0  0  0  2  0  0  0  0  0  0
    8.6870    5.1600  -13.1400 N   0  0  0  0  0  4  0  0  0  0  0  0
    9.6390    4.4370  -13.9060 C   0  0  0  0  0  2  0  0  0  0  0  0
   10.7620    3.7690  -13.2160 C   0  0  0  0  0  2  0  0  0  0  0  0
   10.5450    3.5670  -11.8490 N   0  0  0  0  0  0  0  0  0  0  0  0
   10.0000    4.6090  -11.0950 C   0  0  0  0  0  2  0  0  0  0  0  0
   10.8600    2.3380  -11.2520 C   0  0  0  0  0  1  0  0  0  0  0  0
    8.7470    5.1330  -11.7240 C   0  0  0  0  0  2  0  0  0  0  0  0
    9.0430    6.2240  -13.3310 H   0  0  0  0  0  0  0  0  0  0  0  0
    3.8930    8.4590  -13.9610 C   0  0  0  0  0  0  0  0  0  0  0  0
    3.9880    8.7100  -15.1890 O   0  0  0  0  0  0  0  0  0  0  0  0
    3.8110    9.5030  -13.0930 O   0  0  0  0  0  0  0  0  0  0  0  0
    3.5640   10.8070  -13.5600 C   0  0  0  0  0  2  0  0  0  0  0  0
    2.1150   11.1430  -13.3360 C   0  0  0  0  0  1  0  0  0  0  0  0
    1.4780    7.3000  -13.1350 C   0  0  0  0  0  0  0  0  0  0  0  0
    0.7520    7.5790  -14.2900 C   0  0  0  0  0  3  0  0  0  0  0  0
   -0.4070    8.3230  -14.2950 C   0  0  0  0  0  3  0  0  0  0  0  0
   -0.8820    8.8210  -13.1170 C   0  0  0  0  0  0  0  0  0  0  0  0
   -2.4950    9.8490  -13.1420 Br  0  0  0  0  0  0  0  0  0  0  0  0
   -0.2000    8.5750  -11.9440 C   0  0  0  0  0  3  0  0  0  0  0  0
    0.9790    7.8130  -11.9660 C   0  0  0  0  0  3  0  0  0  0  0  0
  1 11  1  0  0  0  0
  2  1  2  0  0  0  0
  3  2  1  0  0  0  0
  3  4  1  0  0  0  0
  4  5  1  0  0  0  0
  5 11  1  0  0  0  0
  5  6  2  0  0  0  0
  7  6  1  0  0  0  0
  8 10  1  0  0  0  0
  8  7  2  0  0  0  0
  9  4  2  0  0  0  0
  9  8  1  0  0  0  0
 11 12  2  0  0  0  0
 13  9  1  0  0  0  0
 13 14  1  0  0  0  0
 14 20  1  0  0  0  0
 15 16  1  0  0  0  0
 15 14  1  0  0  0  0
 16 17  1  0  0  0  0
 17 19  1  0  0  0  0
 17 18  1  0  0  0  0
 20 18  1  0  0  0  0
 21 14  1  0  0  0  0
 22  2  1  0  0  0  0
 22 24  1  0  0  0  0
 23 22  2  0  0  0  0
 25 26  1  0  0  0  0
 25 24  1  0  0  0  0
 27  1  1  0  0  0  0
 27 33  1  0  0  0  0
 28 27  2  0  0  0  0
 29 28  1  0  0  0  0
 29 30  2  0  0  0  0
 30 32  1  0  0  0  0
 31 30  1  0  0  0  0
 33 32  2  0  0  0  0
M  END
>  <Pose>
1

>  <Score>
-7.214

$$$$
