/Users/jonathanwahrer/Desktop/Msc/3_Semester/Drug_Design_Praktikum/waehrer_HTS_screening/HTS_experiment/out/docking_results/vina_output/6q9y/0320_docked.pdbqt
 OpenBabel03222219163D

 32 36  0  0  1  0  0  0  0  0999 V2000
    1.9090    7.7310  -13.4340 C   0  0  0  0  0  0  0  0  0  0  0  0
    0.7350    7.1410  -13.9290 C   0  0  0  0  0  3  0  0  0  0  0  0
   -0.2290    8.0430  -13.7990 N   0  0  0  0  0  0  0  0  0  0  0  0
   -1.5690    8.1700  -14.0450 C   0  0  0  0  0  0  0  0  0  0  0  0
   -1.8960    9.4340  -13.6240 C   0  0  0  0  0  0  0  0  0  0  0  0
   -0.7900    9.9950  -13.1610 N   0  0  0  0  0  0  0  0  0  0  0  0
    0.2640    9.1350  -13.2640 C   0  0  1  0  0  3  0  0  0  0  0  0
    1.5980    8.9670  -13.0270 N   0  0  0  0  0  0  0  0  0  0  0  0
   -3.2040    9.9190  -13.7230 C   0  0  0  0  0  3  0  0  0  0  0  0
   -4.1900    9.1170  -14.2550 C   0  0  0  0  0  3  0  0  0  0  0  0
   -3.8360    7.8530  -14.6700 C   0  0  0  0  0  3  0  0  0  0  0  0
   -2.5390    7.3630  -14.5740 C   0  0  0  0  0  3  0  0  0  0  0  0
   -0.7670   10.9550  -12.7680 H   0  0  0  0  0  0  0  0  0  0  0  0
    2.3840   10.0040  -12.4310 C   0  0  0  0  0  2  0  0  0  0  0  0
    3.3330   10.7240  -13.3010 C   0  0  0  0  0  2  0  0  0  0  0  0
    3.4760   12.1940  -13.1450 C   0  0  0  0  0  2  0  0  0  0  0  0
    2.9660   12.6560  -11.8730 N   0  0  0  0  0  4  0  0  0  0  0  0
    2.7730   11.9420  -11.1750 H   0  0  0  0  0  0  0  0  0  0  0  0
    3.7800   13.2240  -11.4340 H   0  0  0  0  0  0  0  0  0  0  0  0
    1.8940   13.5980  -12.0000 C   0  0  0  0  0  3  0  0  0  0  0  0
    2.3140   14.9970  -12.3530 C   0  0  0  0  0  2  0  0  0  0  0  0
    1.1390   15.9060  -11.9630 C   0  0  0  0  0  2  0  0  0  0  0  0
   -0.0470   15.5220  -12.7780 C   0  0  0  0  0  2  0  0  0  0  0  0
   -0.3840   14.0510  -12.7100 C   0  0  0  0  0  2  0  0  0  0  0  0
    0.8500   13.2010  -13.0360 C   0  0  0  0  0  2  0  0  0  0  0  0
    3.1790    7.0390  -13.3970 C   0  0  0  0  0  0  0  0  0  0  0  0
    3.2380    5.7980  -12.7960 C   0  0  0  0  0  3  0  0  0  0  0  0
    4.3960    5.0780  -12.7310 C   0  0  0  0  0  3  0  0  0  0  0  0
    5.5580    5.5540  -13.2570 C   0  0  0  0  0  0  0  0  0  0  0  0
    7.1960    4.5450  -13.1680 Br  0  0  0  0  0  0  0  0  0  0  0  0
    5.5430    6.7800  -13.8610 C   0  0  0  0  0  3  0  0  0  0  0  0
    4.3330    7.5140  -13.9210 C   0  0  0  0  0  3  0  0  0  0  0  0
  1 26  1  0  0  0  0
  1  8  1  0  0  0  0
  2  3  1  0  0  0  0
  2  1  2  0  0  0  0
  4  3  1  0  0  0  0
  4  5  1  0  0  0  0
  5  6  1  0  0  0  0
  6 13  1  0  0  0  0
  7  3  1  1  0  0  0
  7  6  1  0  0  0  0
  7  8  1  0  0  0  0
  8 14  1  0  0  0  0
  9  5  2  0  0  0  0
 10  9  1  0  0  0  0
 11 12  1  0  0  0  0
 11 10  2  0  0  0  0
 12  4  2  0  0  0  0
 15 16  1  0  0  0  0
 15 14  1  0  0  0  0
 16 17  1  0  0  0  0
 17 19  1  0  0  0  0
 17 18  1  0  0  0  0
 20 17  1  0  0  0  0
 21 20  1  0  0  0  0
 21 22  1  0  0  0  0
 23 24  1  0  0  0  0
 23 22  1  0  0  0  0
 25 24  1  0  0  0  0
 25 20  1  0  0  0  0
 26 27  1  0  0  0  0
 27 28  2  0  0  0  0
 29 30  1  0  0  0  0
 29 28  1  0  0  0  0
 31 29  2  0  0  0  0
 32 31  1  0  0  0  0
 32 26  2  0  0  0  0
M  END
>  <Pose>
1

>  <Score>
-9.373

$$$$
