/Users/jonathanwahrer/Desktop/Msc/3_Semester/Drug_Design_Praktikum/waehrer_HTS_screening/HTS_experiment/out/docking_results/vina_output/6q9y/0324_docked.pdbqt
 OpenBabel03222219163D

 34 38  0  0  1  0  0  0  0  0999 V2000
    1.8970    7.9060  -13.6050 C   0  0  0  0  0  0  0  0  0  0  0  0
    0.7380    7.2240  -14.0220 C   0  0  0  0  0  3  0  0  0  0  0  0
   -0.3390    8.0110  -13.9250 N   0  0  0  0  0  0  0  0  0  0  0  0
   -1.6790    8.0660  -14.1170 C   0  0  0  0  0  0  0  0  0  0  0  0
   -2.0680    9.3300  -13.7470 C   0  0  0  0  0  0  0  0  0  0  0  0
   -0.9590   10.0080  -13.3410 N   0  0  0  0  0  0  0  0  0  0  0  0
    0.0950    9.1790  -13.4590 C   0  0  1  0  0  3  0  0  0  0  0  0
    1.4600    9.1200  -13.2610 N   0  0  0  0  0  0  0  0  0  0  0  0
   -3.4050    9.6530  -13.8470 C   0  0  0  0  0  3  0  0  0  0  0  0
   -4.3460    8.7390  -14.3060 C   0  0  0  0  0  3  0  0  0  0  0  0
   -3.9560    7.4770  -14.6750 C   0  0  0  0  0  3  0  0  0  0  0  0
   -2.5980    7.1500  -14.5730 C   0  0  0  0  0  3  0  0  0  0  0  0
   -0.9610   10.9960  -13.0040 H   0  0  0  0  0  0  0  0  0  0  0  0
    2.2230   10.2330  -12.7370 C   0  0  0  0  0  2  0  0  0  0  0  0
    2.5780   11.2750  -13.7710 C   0  0  0  0  0  2  0  0  0  0  0  0
    2.7110   12.6420  -13.1460 C   0  0  0  0  0  2  0  0  0  0  0  0
    1.7180   12.9540  -12.1560 N   0  0  0  0  0  0  0  0  0  0  0  0
    0.4360   12.8570  -12.8340 C   0  0  0  0  0  2  0  0  0  0  0  0
   -0.4980   13.9750  -12.5600 C   0  0  0  0  0  2  0  0  0  0  0  0
    0.0670   15.2960  -12.6030 N   0  0  0  0  0  4  0  0  0  0  0  0
    1.5030   15.3170  -12.4170 C   0  0  0  0  0  2  0  0  0  0  0  0
   -0.3170   15.8010  -11.7430 H   0  0  0  0  0  0  0  0  0  0  0  0
    1.8770   14.1940  -11.4720 C   0  0  0  0  0  2  0  0  0  0  0  0
   -0.4040   16.0460  -13.7230 C   0  0  0  0  0  2  0  0  0  0  0  0
   -1.5630   16.9480  -13.4670 C   0  0  0  0  0  2  0  0  0  0  0  0
   -1.7320   17.2780  -12.1230 O   0  0  0  0  0  0  0  0  0  0  0  0
   -2.1180   18.1670  -12.0480 H   0  0  0  0  0  0  0  0  0  0  0  0
    3.2240    7.2940  -13.5650 C   0  0  0  0  0  0  0  0  0  0  0  0
    4.3720    7.8380  -14.0450 C   0  0  0  0  0  3  0  0  0  0  0  0
    5.6220    7.2070  -13.9290 C   0  0  0  0  0  3  0  0  0  0  0  0
    5.7400    5.9870  -13.3140 C   0  0  0  0  0  0  0  0  0  0  0  0
    7.4450    5.1240  -13.1550 Br  0  0  0  0  0  0  0  0  0  0  0  0
    4.5950    5.4220  -12.8260 C   0  0  0  0  0  3  0  0  0  0  0  0
    3.3670    6.0520  -12.9450 C   0  0  0  0  0  3  0  0  0  0  0  0
  1 28  1  0  0  0  0
  1  8  1  0  0  0  0
  2  3  1  0  0  0  0
  2  1  2  0  0  0  0
  4  3  1  0  0  0  0
  4  5  1  0  0  0  0
  5  6  1  0  0  0  0
  6 13  1  0  0  0  0
  7  3  1  1  0  0  0
  7  6  1  0  0  0  0
  7  8  1  0  0  0  0
  8 14  1  0  0  0  0
  9  5  2  0  0  0  0
 10  9  1  0  0  0  0
 11 12  1  0  0  0  0
 11 10  2  0  0  0  0
 12  4  2  0  0  0  0
 15 16  1  0  0  0  0
 15 14  1  0  0  0  0
 16 17  1  0  0  0  0
 17 23  1  0  0  0  0
 18 19  1  0  0  0  0
 18 17  1  0  0  0  0
 20 19  1  0  0  0  0
 20 21  1  0  0  0  0
 20 22  1  0  0  0  0
 21 23  1  0  0  0  0
 24 25  1  0  0  0  0
 24 20  1  0  0  0  0
 25 26  1  0  0  0  0
 26 27  1  0  0  0  0
 28 34  1  0  0  0  0
 29 30  1  0  0  0  0
 29 28  2  0  0  0  0
 30 31  2  0  0  0  0
 31 32  1  0  0  0  0
 31 33  1  0  0  0  0
 34 33  2  0  0  0  0
M  END
>  <Pose>
1

>  <Score>
-8.861

$$$$
