/Users/jonathanwahrer/Desktop/Msc/3_Semester/Drug_Design_Praktikum/waehrer_HTS_screening/HTS_experiment/out/docking_results/vina_output/6q9y/0347_docked.pdbqt
 OpenBabel03222219173D

 34 37  0  0  1  0  0  0  0  0999 V2000
    2.8310    9.0930  -12.6880 C   0  0  2  0  0  3  0  0  0  0  0  0
    3.8070    8.7030  -13.6850 N   0  0  0  0  0  0  0  0  0  0  0  0
    3.1480    8.7990  -14.9500 C   0  0  0  0  0  0  0  0  0  0  0  0
    3.6880    8.9880  -16.0680 O   0  0  0  0  0  0  0  0  0  0  0  0
    1.7260    8.6310  -14.6720 C   0  0  0  0  0  0  0  0  0  0  0  0
    0.7520    8.6400  -15.4650 O   0  0  0  0  0  0  0  0  0  0  0  0
    1.5850    8.4390  -13.2320 C   0  0  0  0  0  0  0  0  0  0  0  0
    0.5850    7.8700  -12.6040 C   0  0  0  0  0  0  0  0  0  0  0  0
    0.6640    7.8580  -11.2000 O   0  0  0  0  0  1  0  0  0  0  0  0
    5.2020    8.2870  -13.4650 C   0  0  0  0  0  2  0  0  0  0  0  0
    5.3760    6.8010  -13.8110 C   0  0  0  0  0  2  0  0  0  0  0  0
    6.6020    6.2740  -13.1220 C   0  0  0  0  0  2  0  0  0  0  0  0
    7.7350    7.0900  -13.4880 N   0  0  0  0  0  4  0  0  0  0  0  0
    8.5530    6.5280  -14.5160 C   0  0  0  0  0  2  0  0  0  0  0  0
    9.3650    5.3670  -14.0530 C   0  0  0  0  0  2  0  0  0  0  0  0
   10.1450    5.7120  -12.9630 O   0  0  0  0  0  0  0  0  0  0  0  0
    9.2860    6.0900  -11.9300 C   0  0  0  0  0  2  0  0  0  0  0  0
    8.5940    7.3710  -12.3520 C   0  0  0  0  0  2  0  0  0  0  0  0
    7.3760    8.0160  -13.8170 H   0  0  0  0  0  0  0  0  0  0  0  0
    2.6930   10.5410  -12.6190 C   0  0  0  0  0  0  0  0  0  0  0  0
    3.7680   11.3330  -12.3000 C   0  0  0  0  0  3  0  0  0  0  0  0
    3.6470   12.7230  -12.2180 C   0  0  0  0  0  3  0  0  0  0  0  0
    2.4350   13.3270  -12.4590 C   0  0  0  0  0  0  0  0  0  0  0  0
    2.2740   15.2240  -12.3440 Br  0  0  0  0  0  0  0  0  0  0  0  0
    1.3540   12.5480  -12.7780 C   0  0  0  0  0  3  0  0  0  0  0  0
    1.4930   11.1740  -12.8550 C   0  0  0  0  0  3  0  0  0  0  0  0
   -0.5550    7.2670  -13.2870 C   0  0  0  0  0  0  0  0  0  0  0  0
   -1.6810    7.9590  -13.6690 C   0  0  0  0  0  3  0  0  0  0  0  0
   -2.7750    7.3900  -14.2980 C   0  0  0  0  0  0  0  0  0  0  0  0
   -2.7470    6.0510  -14.5630 C   0  0  0  0  0  3  0  0  0  0  0  0
   -1.6270    5.3110  -14.1950 C   0  0  0  0  0  3  0  0  0  0  0  0
   -0.5560    5.9120  -13.5700 C   0  0  0  0  0  3  0  0  0  0  0  0
   -3.8160    8.2350  -14.6090 O   0  0  0  0  0  0  0  0  0  0  0  0
   -5.0870    7.8930  -15.0460 C   0  0  0  0  0  1  0  0  0  0  0  0
  1 20  1  6  0  0  0
  2 10  1  0  0  0  0
  2  1  1  0  0  0  0
  3  5  1  0  0  0  0
  3  2  1  0  0  0  0
  4  3  2  0  0  0  0
  5  7  1  0  0  0  0
  6  5  2  0  0  0  0
  7  1  1  0  0  0  0
  7  8  2  0  0  0  0
  8  9  1  0  0  0  0
 11 10  1  0  0  0  0
 11 12  1  0  0  0  0
 13 12  1  0  0  0  0
 13 18  1  0  0  0  0
 14 15  1  0  0  0  0
 14 13  1  0  0  0  0
 15 16  1  0  0  0  0
 16 17  1  0  0  0  0
 18 17  1  0  0  0  0
 19 13  1  0  0  0  0
 20 21  1  0  0  0  0
 21 22  2  0  0  0  0
 23 24  1  0  0  0  0
 23 22  1  0  0  0  0
 25 23  2  0  0  0  0
 26 25  1  0  0  0  0
 26 20  2  0  0  0  0
 27  8  1  0  0  0  0
 28 27  2  0  0  0  0
 29 28  1  0  0  0  0
 30 29  2  0  0  0  0
 30 31  1  0  0  0  0
 31 32  2  0  0  0  0
 32 27  1  0  0  0  0
 33 29  1  0  0  0  0
 34 33  1  0  0  0  0
M  END
>  <Pose>
1

>  <Score>
-8.219

$$$$
