/Users/jonathanwahrer/Desktop/Msc/3_Semester/Drug_Design_Praktikum/waehrer_HTS_screening/HTS_experiment/out/docking_results/vina_output/6q9y/0351_docked.pdbqt
 OpenBabel03222219183D

 32 35  0  0  1  0  0  0  0  0999 V2000
   -0.0720    7.8990  -14.0030 C   0  0  1  0  0  3  0  0  0  0  0  0
   -0.0850    6.6280  -13.3760 N   0  0  0  0  0  0  0  0  0  0  0  0
   -1.2850    5.9980  -13.9180 C   0  0  0  0  0  0  0  0  0  0  0  0
   -1.4680    4.7600  -14.0750 O   0  0  0  0  0  0  0  0  0  0  0  0
   -2.2030    7.0920  -14.2300 C   0  0  0  0  0  0  0  0  0  0  0  0
   -3.3630    7.0240  -14.7120 O   0  0  0  0  0  0  0  0  0  0  0  0
   -1.4970    8.3210  -13.8610 C   0  0  0  0  0  0  0  0  0  0  0  0
   -2.0230    9.4670  -13.4670 C   0  0  0  0  0  0  0  0  0  0  0  0
   -1.2040   10.5200  -13.0900 O   0  0  0  0  0  1  0  0  0  0  0  0
    0.8210    5.9420  -12.4510 C   0  0  0  0  0  2  0  0  0  0  0  0
    2.0490    5.3760  -13.0940 C   0  0  0  0  0  2  0  0  0  0  0  0
    3.1120    5.1240  -12.1470 N   0  0  0  0  0  4  0  0  0  0  0  0
    4.3550    5.7390  -12.5230 C   0  0  0  0  0  2  0  0  0  0  0  0
    5.0090    5.1070  -13.7170 C   0  0  0  0  0  2  0  0  0  0  0  0
    5.1420    3.7240  -13.5730 O   0  0  0  0  0  0  0  0  0  0  0  0
    3.8400    3.2190  -13.4340 C   0  0  0  0  0  2  0  0  0  0  0  0
    3.3290    3.6900  -12.0900 C   0  0  0  0  0  2  0  0  0  0  0  0
    2.8730    5.4350  -11.1850 H   0  0  0  0  0  0  0  0  0  0  0  0
    0.9100    8.8790  -13.7360 C   0  0  0  0  0  0  0  0  0  0  0  0
    1.4500    9.6800  -14.7020 C   0  0  0  0  0  3  0  0  0  0  0  0
    2.4120   10.6490  -14.3800 C   0  0  0  0  0  3  0  0  0  0  0  0
    2.8470   10.8290  -13.0870 C   0  0  0  0  0  0  0  0  0  0  0  0
    4.1480   12.1270  -12.5980 Br  0  0  0  0  0  0  0  0  0  0  0  0
    2.3090   10.0270  -12.1160 C   0  0  0  0  0  3  0  0  0  0  0  0
    1.3650    9.0820  -12.4500 C   0  0  0  0  0  3  0  0  0  0  0  0
   -3.4570    9.7170  -13.4020 C   0  0  0  0  0  0  0  0  0  0  0  0
   -4.0160   10.2130  -14.5880 C   0  0  0  0  0  3  0  0  0  0  0  0
   -5.3620   10.4650  -14.7090 C   0  0  0  0  0  3  0  0  0  0  0  0
   -6.1800   10.2130  -13.6120 C   0  0  0  0  0  0  0  0  0  0  0  0
   -5.6230    9.7240  -12.4500 C   0  0  0  0  0  3  0  0  0  0  0  0
   -7.8900   10.5370  -13.7770 Cl  0  0  0  0  0  0  0  0  0  0  0  0
   -4.2710    9.4750  -12.3400 C   0  0  0  0  0  3  0  0  0  0  0  0
  1  7  1  0  0  0  0
  1 19  1  1  0  0  0
  1  2  1  0  0  0  0
  2 10  1  0  0  0  0
  3  2  1  0  0  0  0
  4  3  2  0  0  0  0
  5  3  1  0  0  0  0
  5  7  1  0  0  0  0
  6  5  2  0  0  0  0
  7  8  2  0  0  0  0
  8 26  1  0  0  0  0
  8  9  1  0  0  0  0
 11 10  1  0  0  0  0
 11 12  1  0  0  0  0
 12 17  1  0  0  0  0
 12 18  1  0  0  0  0
 13 12  1  0  0  0  0
 14 15  1  0  0  0  0
 14 13  1  0  0  0  0
 15 16  1  0  0  0  0
 16 17  1  0  0  0  0
 19 25  1  0  0  0  0
 20 21  1  0  0  0  0
 20 19  2  0  0  0  0
 21 22  2  0  0  0  0
 22 23  1  0  0  0  0
 22 24  1  0  0  0  0
 25 24  2  0  0  0  0
 26 32  1  0  0  0  0
 27 26  2  0  0  0  0
 28 27  1  0  0  0  0
 28 29  2  0  0  0  0
 29 30  1  0  0  0  0
 30 32  2  0  0  0  0
 31 29  1  0  0  0  0
M  END
>  <Pose>
1

>  <Score>
-6.369

$$$$
