/Users/jonathanwahrer/Desktop/Msc/3_Semester/Drug_Design_Praktikum/waehrer_HTS_screening/HTS_experiment/out/docking_results/vina_output/6q9y/0354_docked.pdbqt
 OpenBabel03222219183D

 32 35  0  0  1  0  0  0  0  0999 V2000
    0.7140    9.6480  -14.2700 C   0  0  1  0  0  3  0  0  0  0  0  0
   -0.4000    8.9650  -13.6950 N   0  0  0  0  0  0  0  0  0  0  0  0
   -1.3790    9.9950  -13.4020 C   0  0  0  0  0  0  0  0  0  0  0  0
   -2.6080    9.7840  -13.2340 O   0  0  0  0  0  0  0  0  0  0  0  0
   -0.6840   11.2670  -13.3440 C   0  0  0  0  0  0  0  0  0  0  0  0
   -1.1780   12.4110  -13.1090 O   0  0  0  0  0  0  0  0  0  0  0  0
    0.7110   10.9800  -13.6080 C   0  0  0  0  0  0  0  0  0  0  0  0
    1.7360   11.7490  -13.2850 C   0  0  0  0  0  0  0  0  0  0  0  0
    3.0190   11.2420  -13.6010 O   0  0  0  0  0  1  0  0  0  0  0  0
   -0.6700    7.5440  -13.4710 C   0  0  0  0  0  2  0  0  0  0  0  0
   -0.7750    6.7160  -14.7060 C   0  0  0  0  0  2  0  0  0  0  0  0
   -2.1620    6.1150  -14.8730 C   0  0  0  0  0  2  0  0  0  0  0  0
   -3.1920    7.1010  -14.6390 N   0  0  0  0  0  4  0  0  0  0  0  0
   -3.8460    7.5210  -15.8580 C   0  0  0  0  0  2  0  0  0  0  0  0
   -5.1520    8.2020  -15.4420 C   0  0  0  0  0  2  0  0  0  0  0  0
   -6.0640    7.2150  -15.0690 O   0  0  0  0  0  0  0  0  0  0  0  0
   -5.4500    6.1980  -14.3390 C   0  0  0  0  0  2  0  0  0  0  0  0
   -4.1710    6.6790  -13.6850 C   0  0  0  0  0  2  0  0  0  0  0  0
   -2.7100    7.9450  -14.2480 H   0  0  0  0  0  0  0  0  0  0  0  0
    2.0090    8.9960  -14.2540 C   0  0  0  0  0  0  0  0  0  0  0  0
    2.9670    9.0520  -15.2080 C   0  0  0  0  0  3  0  0  0  0  0  0
    4.1810    8.4050  -15.0760 C   0  0  0  0  0  3  0  0  0  0  0  0
    4.4830    7.6600  -13.9570 C   0  0  0  0  0  0  0  0  0  0  0  0
    6.1530    6.7570  -13.7550 Br  0  0  0  0  0  0  0  0  0  0  0  0
    3.5290    7.5800  -12.9660 C   0  0  0  0  0  3  0  0  0  0  0  0
    2.3280    8.2330  -13.1180 C   0  0  0  0  0  3  0  0  0  0  0  0
    1.6200   13.0470  -12.6510 C   0  0  0  0  0  0  0  0  0  0  0  0
    2.4490   13.2670  -11.5430 C   0  0  0  0  0  3  0  0  0  0  0  0
    2.4730   14.4710  -10.8700 C   0  0  0  0  0  3  0  0  0  0  0  0
    1.6790   15.4760  -11.2800 N   0  0  0  0  0  0  0  0  0  0  0  0
    0.8710   15.2920  -12.3440 C   0  0  0  0  0  3  0  0  0  0  0  0
    0.8370   14.0810  -13.0330 C   0  0  0  0  0  3  0  0  0  0  0  0
  1 20  1  1  0  0  0
  1  2  1  0  0  0  0
  1  7  1  0  0  0  0
  2 10  1  0  0  0  0
  2  3  1  0  0  0  0
  3  5  1  0  0  0  0
  3  4  2  0  0  0  0
  5  6  2  0  0  0  0
  7  5  1  0  0  0  0
  7  8  2  0  0  0  0
  8 27  1  0  0  0  0
  9  8  1  0  0  0  0
 11 10  1  0  0  0  0
 12 11  1  0  0  0  0
 12 13  1  0  0  0  0
 13 19  1  0  0  0  0
 13 18  1  0  0  0  0
 14 15  1  0  0  0  0
 14 13  1  0  0  0  0
 15 16  1  0  0  0  0
 16 17  1  0  0  0  0
 17 18  1  0  0  0  0
 20 26  1  0  0  0  0
 21 22  1  0  0  0  0
 21 20  2  0  0  0  0
 22 23  2  0  0  0  0
 23 24  1  0  0  0  0
 23 25  1  0  0  0  0
 26 25  2  0  0  0  0
 27 28  1  0  0  0  0
 28 29  2  0  0  0  0
 30 29  1  0  0  0  0
 31 30  2  0  0  0  0
 32 27  2  0  0  0  0
 32 31  1  0  0  0  0
M  END
>  <Pose>
1

>  <Score>
-7.709

$$$$
