/Users/jonathanwahrer/Desktop/Msc/3_Semester/Drug_Design_Praktikum/waehrer_HTS_screening/HTS_experiment/out/docking_results/vina_output/6q9y/0361_docked.pdbqt
 OpenBabel03222219183D

 33 36  0  0  1  0  0  0  0  0999 V2000
    2.4340    8.2410  -12.5980 C   0  0  1  0  0  3  0  0  0  0  0  0
    2.9620    9.3570  -13.4030 N   0  0  0  0  0  0  0  0  0  0  0  0
    2.5210    9.0800  -14.7270 C   0  0  0  0  0  0  0  0  0  0  0  0
    3.0950    9.5020  -15.7720 O   0  0  0  0  0  0  0  0  0  0  0  0
    1.3240    8.2480  -14.6600 C   0  0  0  0  0  0  0  0  0  0  0  0
    0.6560    7.8130  -15.6210 O   0  0  0  0  0  0  0  0  0  0  0  0
    1.0840    8.0460  -13.2430 C   0  0  0  0  0  0  0  0  0  0  0  0
   -0.0500    7.7910  -12.6420 C   0  0  0  0  0  0  0  0  0  0  0  0
   -0.1170    7.6740  -11.2600 O   0  0  0  0  0  1  0  0  0  0  0  0
    3.2090    7.0040  -12.8440 C   0  0  0  0  0  0  0  0  0  0  0  0
    4.4560    7.0440  -13.4200 C   0  0  0  0  0  3  0  0  0  0  0  0
    5.2070    5.8910  -13.6480 C   0  0  0  0  0  3  0  0  0  0  0  0
    4.7020    4.6540  -13.2910 C   0  0  0  0  0  0  0  0  0  0  0  0
    5.7200    3.0540  -13.5960 Br  0  0  0  0  0  0  0  0  0  0  0  0
    3.4570    4.6180  -12.7160 C   0  0  0  0  0  3  0  0  0  0  0  0
    2.7250    5.7620  -12.4960 C   0  0  0  0  0  3  0  0  0  0  0  0
   -1.2850    7.6150  -13.3820 C   0  0  0  0  0  0  0  0  0  0  0  0
   -2.2770    8.4760  -13.6880 N   0  0  0  0  0  0  0  0  0  0  0  0
   -3.2540    7.8580  -14.3670 C   0  0  0  0  0  0  0  0  0  0  0  0
   -2.4290    9.8050  -13.4520 C   0  0  0  0  0  3  0  0  0  0  0  0
   -2.8650    6.5710  -14.4910 N   0  0  0  0  0  0  0  0  0  0  0  0
   -4.3950    8.5150  -14.8260 C   0  0  0  0  0  3  0  0  0  0  0  0
   -1.6930    6.3740  -13.9190 C   0  0  0  0  0  0  0  0  0  0  0  0
   -0.8800    5.1200  -13.8130 C   0  0  0  0  0  1  0  0  0  0  0  0
   -4.5560    9.8610  -14.5880 C   0  0  0  0  0  3  0  0  0  0  0  0
   -3.5430   10.4790  -13.8930 C   0  0  0  0  0  3  0  0  0  0  0  0
    3.7580   10.4550  -12.9220 C   0  0  0  0  0  2  0  0  0  0  0  0
    3.2970   11.8410  -13.1490 C   0  0  0  0  0  3  0  0  0  0  0  0
    2.8280   12.6740  -12.0220 C   0  0  0  0  0  3  0  0  0  0  0  0
    2.1110   13.8750  -12.3250 N   0  0  0  0  0  4  0  0  0  0  0  0
    0.7090   13.4690  -12.6250 C   0  0  0  0  0  1  0  0  0  0  0  0
    1.9950   14.6930  -11.1350 C   0  0  0  0  0  1  0  0  0  0  0  0
    2.4560   14.4360  -13.1040 H   0  0  0  0  0  0  0  0  0  0  0  0
  1 10  1  6  0  0  0
  2 27  1  0  0  0  0
  2  1  1  0  0  0  0
  3  5  1  0  0  0  0
  3  2  1  0  0  0  0
  4  3  2  0  0  0  0
  5  7  1  0  0  0  0
  6  5  2  0  0  0  0
  7  8  2  0  0  0  0
  7  1  1  0  0  0  0
  8  9  1  0  0  0  0
 10 16  1  0  0  0  0
 11 10  2  0  0  0  0
 12 11  1  0  0  0  0
 12 13  2  0  0  0  0
 13 15  1  0  0  0  0
 14 13  1  0  0  0  0
 15 16  2  0  0  0  0
 17  8  1  0  0  0  0
 18 20  1  0  0  0  0
 18 17  1  0  0  0  0
 19 18  1  0  0  0  0
 21 19  2  0  0  0  0
 21 23  1  0  0  0  0
 22 25  2  0  0  0  0
 22 19  1  0  0  0  0
 23 24  1  0  0  0  0
 23 17  2  0  0  0  0
 25 26  1  0  0  0  0
 26 20  2  0  0  0  0
 28 27  1  0  0  0  0
 28 29  2  0  0  0  0
 30 29  1  0  0  0  0
 30 32  1  0  0  0  0
 31 30  1  0  0  0  0
 33 30  1  0  0  0  0
M  END
>  <Pose>
1

>  <Score>
-8.445

$$$$
