/Users/jonathanwahrer/Desktop/Msc/3_Semester/Drug_Design_Praktikum/waehrer_HTS_screening/HTS_experiment/out/docking_results/vina_output/6q9y/0381_docked.pdbqt
 OpenBabel03222219193D

 29 32  0  0  0  0  0  0  0  0999 V2000
    3.0720    7.6620  -13.6790 N   0  0  0  0  0  0  0  0  0  0  0  0
    1.7690    7.9210  -13.7250 N   0  0  0  0  0  0  0  0  0  0  0  0
    0.8420    7.0190  -13.2910 C   0  0  0  0  0  0  0  0  0  0  0  0
    1.2540    5.8380  -12.8060 N   0  0  0  0  0  0  0  0  0  0  0  0
    0.1200    5.0240  -12.4260 C   0  0  0  0  0  3  0  0  0  0  0  0
   -1.1120    5.8300  -12.7140 C   0  0  0  0  0  3  0  0  0  0  0  0
   -0.5760    7.0850  -13.2060 N   0  0  0  0  0  0  0  0  0  0  0  0
    2.5530    5.5190  -12.7340 C   0  0  0  0  0  0  0  0  0  0  0  0
    2.9350    4.4150  -12.2800 O   0  0  0  0  0  0  0  0  0  0  0  0
    3.4480    6.4690  -13.1850 C   0  0  0  0  0  0  0  0  0  0  0  0
    4.6780    6.2150  -13.1390 O   0  0  0  0  0  0  0  0  0  0  0  0
    4.0850    8.6380  -14.1120 C   0  0  0  0  0  2  0  0  0  0  0  0
    3.6590   10.0010  -13.7970 C   0  0  0  0  0  0  0  0  0  0  0  0
    2.9430   10.4420  -12.6780 N   0  0  0  0  0  0  0  0  0  0  0  0
    2.6650    9.7000  -11.9750 H   0  0  0  0  0  0  0  0  0  0  0  0
    4.0140   10.8650  -14.6940 O   0  0  0  0  0  0  0  0  0  0  0  0
    2.5640   11.7620  -12.4190 C   0  0  0  0  0  0  0  0  0  0  0  0
    3.2780   12.7120  -11.7330 C   0  0  0  0  0  3  0  0  0  0  0  0
    2.8210   14.0250  -11.5500 C   0  0  0  0  0  3  0  0  0  0  0  0
    1.6160   14.4370  -12.0550 C   0  0  0  0  0  0  0  0  0  0  0  0
    0.9790   16.2220  -11.8180 Br  0  0  0  0  0  0  0  0  0  0  0  0
    0.8780   13.4980  -12.7490 C   0  0  0  0  0  3  0  0  0  0  0  0
    1.3300   12.2190  -12.9230 C   0  0  0  0  0  3  0  0  0  0  0  0
   -1.3970    8.1890  -13.5380 C   0  0  0  0  0  0  0  0  0  0  0  0
   -1.0860    9.4880  -13.2370 C   0  0  0  0  0  3  0  0  0  0  0  0
   -1.9170   10.5450  -13.5610 C   0  0  0  0  0  3  0  0  0  0  0  0
   -3.1100   10.2990  -14.2140 C   0  0  0  0  0  3  0  0  0  0  0  0
   -3.4370    9.0160  -14.5230 C   0  0  0  0  0  3  0  0  0  0  0  0
   -2.6030    7.9690  -14.1950 C   0  0  0  0  0  3  0  0  0  0  0  0
  1 10  1  0  0  0  0
  2  1  1  0  0  0  0
  2  3  2  0  0  0  0
  3  7  1  0  0  0  0
  3  4  1  0  0  0  0
  4  8  1  0  0  0  0
  4  5  1  0  0  0  0
  6  5  2  0  0  0  0
  7  6  1  0  0  0  0
  8  9  2  0  0  0  0
 10 11  2  0  0  0  0
 10  8  1  0  0  0  0
 12 13  1  0  0  0  0
 12  1  1  0  0  0  0
 13 14  1  0  0  0  0
 14 17  1  0  0  0  0
 14 15  1  0  0  0  0
 16 13  2  0  0  0  0
 17 18  1  0  0  0  0
 18 19  2  0  0  0  0
 20 21  1  0  0  0  0
 20 19  1  0  0  0  0
 22 20  2  0  0  0  0
 23 22  1  0  0  0  0
 23 17  2  0  0  0  0
 24 25  1  0  0  0  0
 24  7  1  0  0  0  0
 26 25  2  0  0  0  0
 27 26  1  0  0  0  0
 28 27  2  0  0  0  0
 28 29  1  0  0  0  0
 29 24  2  0  0  0  0
M  END
>  <Pose>
1

>  <Score>
-8.352

$$$$
