/Users/jonathanwahrer/Desktop/Msc/3_Semester/Drug_Design_Praktikum/waehrer_HTS_screening/HTS_experiment/out/docking_results/vina_output/6q9y/0382_docked.pdbqt
 OpenBabel03222219193D

 31 34  0  0  0  0  0  0  0  0999 V2000
   -0.3250   16.6470  -12.5310 N   0  0  0  0  0  0  0  0  0  0  0  0
   -0.4690   16.2460  -13.7940 N   0  0  0  0  0  0  0  0  0  0  0  0
   -1.5480   16.7910  -14.3060 N   0  0  0  0  0  0  0  0  0  0  0  0
   -2.1250   17.5690  -13.3590 C   0  0  0  0  0  0  0  0  0  0  0  0
   -1.3560   17.4690  -12.2680 C   0  0  0  0  0  0  0  0  0  0  0  0
   -1.9750   18.2710  -11.3320 C   0  0  0  0  0  0  0  0  0  0  0  0
   -1.5220   18.4230  -10.1590 O   0  0  0  0  0  0  0  0  0  0  0  0
   -3.0840   18.8490  -11.8180 N   0  0  0  0  0  0  0  0  0  0  0  0
   -3.1850   18.4070  -13.1040 C   0  0  0  0  0  0  0  0  0  0  0  0
   -4.1230   18.7520  -13.8730 O   0  0  0  0  0  0  0  0  0  0  0  0
    0.1980   15.5980  -14.2630 H   0  0  0  0  0  0  0  0  0  0  0  0
   -1.9420   16.6800  -15.2730 H   0  0  0  0  0  0  0  0  0  0  0  0
    0.7580   16.2390  -11.6580 C   0  0  0  0  0  2  0  0  0  0  0  0
    1.5510   15.1440  -12.3520 C   0  0  0  0  0  0  0  0  0  0  0  0
    1.2410   13.7990  -12.1150 N   0  0  0  0  0  0  0  0  0  0  0  0
    0.4450   13.5720  -11.4380 H   0  0  0  0  0  0  0  0  0  0  0  0
    2.4760   15.4650  -13.1270 O   0  0  0  0  0  0  0  0  0  0  0  0
    1.8860   12.6820  -12.6930 C   0  0  0  0  0  0  0  0  0  0  0  0
    3.1880   12.2990  -12.4560 C   0  0  0  0  0  3  0  0  0  0  0  0
    3.7670   11.1760  -13.0310 C   0  0  0  0  0  3  0  0  0  0  0  0
    3.0440   10.3820  -13.8840 C   0  0  0  0  0  0  0  0  0  0  0  0
    3.7720    8.8310  -14.7060 Br  0  0  0  0  0  0  0  0  0  0  0  0
    1.7390   10.7450  -14.1370 C   0  0  0  0  0  3  0  0  0  0  0  0
    1.1750   11.8440  -13.5730 C   0  0  0  0  0  3  0  0  0  0  0  0
   -3.9950   19.7440  -11.1630 C   0  0  0  0  0  0  0  0  0  0  0  0
   -5.2860   19.9020  -11.6200 C   0  0  0  0  0  3  0  0  0  0  0  0
   -6.1710   20.7530  -10.9900 C   0  0  0  0  0  3  0  0  0  0  0  0
   -5.8120   21.4890   -9.8750 C   0  0  0  0  0  0  0  0  0  0  0  0
   -4.5220   21.3330   -9.4150 C   0  0  0  0  0  3  0  0  0  0  0  0
   -6.7930   22.3940   -9.2160 C   0  0  0  0  0  1  0  0  0  0  0  0
   -3.6380   20.4770  -10.0510 C   0  0  0  0  0  3  0  0  0  0  0  0
  1  5  1  0  0  0  0
  1 13  1  0  0  0  0
  2  1  1  0  0  0  0
  3  2  1  0  0  0  0
  3  4  1  0  0  0  0
  4  9  1  0  0  0  0
  4  5  2  0  0  0  0
  5  6  1  0  0  0  0
  6  7  2  0  0  0  0
  8  6  1  0  0  0  0
  8 25  1  0  0  0  0
  9  8  1  0  0  0  0
 10  9  2  0  0  0  0
 11  2  1  0  0  0  0
 12  3  1  0  0  0  0
 14 15  1  0  0  0  0
 14 13  1  0  0  0  0
 15 16  1  0  0  0  0
 17 14  2  0  0  0  0
 18 19  1  0  0  0  0
 18 15  1  0  0  0  0
 20 19  2  0  0  0  0
 21 20  1  0  0  0  0
 22 21  1  0  0  0  0
 23 21  2  0  0  0  0
 23 24  1  0  0  0  0
 24 18  2  0  0  0  0
 25 31  1  0  0  0  0
 26 25  2  0  0  0  0
 26 27  1  0  0  0  0
 27 28  2  0  0  0  0
 28 29  1  0  0  0  0
 28 30  1  0  0  0  0
 31 29  2  0  0  0  0
M  END
>  <Pose>
1

>  <Score>
-11.499

$$$$
