/Users/jonathanwahrer/Desktop/Msc/3_Semester/Drug_Design_Praktikum/waehrer_HTS_screening/HTS_experiment/out/docking_results/vina_output/6q9y/0393_docked.pdbqt
 OpenBabel03222219203D

 27 30  0  0  0  0  0  0  0  0999 V2000
    1.4140    6.6450  -13.0750 N   0  0  0  0  0  0  0  0  0  0  0  0
    1.5630    5.4640  -12.5290 N   0  0  0  0  0  0  0  0  0  0  0  0
    2.8570    5.1000  -12.4320 C   0  0  0  0  0  3  0  0  0  0  0  0
    3.5770    6.1380  -12.9590 C   0  0  0  0  0  0  0  0  0  0  0  0
    2.6580    7.0870  -13.3520 C   0  0  0  0  0  0  0  0  0  0  0  0
    5.0300    6.1860  -13.0640 C   0  0  0  0  0  0  0  0  0  0  0  0
    5.5850    7.2390  -12.6690 O   0  0  0  0  0  0  0  0  0  0  0  0
    5.8100    5.1260  -13.5750 N   0  0  0  0  0  0  0  0  0  0  0  0
    7.2440    5.2760  -13.6350 C   0  0  0  0  0  2  0  0  0  0  0  0
    5.2890    3.8680  -14.0590 C   0  0  0  0  0  2  0  0  0  0  0  0
    7.8520    4.3060  -12.6660 C   0  0  0  0  0  2  0  0  0  0  0  0
    6.9480    3.2090  -12.3440 N   0  0  0  0  0  0  0  0  0  0  0  0
    5.8850    2.8140  -13.2050 C   0  0  0  0  0  0  0  0  0  0  0  0
    7.1060    2.6980  -11.4250 H   0  0  0  0  0  0  0  0  0  0  0  0
    5.4980    1.6190  -13.2120 O   0  0  0  0  0  0  0  0  0  0  0  0
    2.9590    8.3610  -13.9660 N   0  0  0  0  0  0  0  0  0  0  0  0
    2.9650    8.6720  -15.2540 C   0  0  0  0  0  3  0  0  0  0  0  0
    3.3040    9.9940  -15.4290 C   0  0  0  0  0  3  0  0  0  0  0  0
    3.5100   10.4870  -14.1630 C   0  0  0  0  0  3  0  0  0  0  0  0
    3.2910    9.4610  -13.2720 C   0  0  0  0  0  3  0  0  0  0  0  0
    0.1660    7.3030  -13.3120 C   0  0  0  0  0  0  0  0  0  0  0  0
   -0.1130    8.5530  -12.7930 C   0  0  0  0  0  3  0  0  0  0  0  0
   -1.3100    9.2070  -13.0080 C   0  0  0  0  0  3  0  0  0  0  0  0
   -2.2890    8.6080  -13.7710 C   0  0  0  0  0  0  0  0  0  0  0  0
   -3.9550    9.4940  -14.0830 Br  0  0  0  0  0  0  0  0  0  0  0  0
   -2.0280    7.3550  -14.2970 C   0  0  0  0  0  3  0  0  0  0  0  0
   -0.8260    6.7140  -14.0740 C   0  0  0  0  0  3  0  0  0  0  0  0
  1  2  1  0  0  0  0
  2  3  2  0  0  0  0
  4  3  1  0  0  0  0
  5  1  1  0  0  0  0
  5  4  2  0  0  0  0
  6  4  1  0  0  0  0
  6  7  2  0  0  0  0
  8  6  1  0  0  0  0
  9  8  1  0  0  0  0
  9 11  1  0  0  0  0
 10  8  1  0  0  0  0
 10 13  1  0  0  0  0
 11 12  1  0  0  0  0
 12 14  1  0  0  0  0
 13 12  1  0  0  0  0
 15 13  2  0  0  0  0
 16  5  1  0  0  0  0
 16 20  1  0  0  0  0
 17 16  1  0  0  0  0
 18 17  2  0  0  0  0
 18 19  1  0  0  0  0
 19 20  2  0  0  0  0
 21  1  1  0  0  0  0
 21 22  1  0  0  0  0
 23 22  2  0  0  0  0
 24 23  1  0  0  0  0
 25 24  1  0  0  0  0
 26 27  1  0  0  0  0
 26 24  2  0  0  0  0
 27 21  2  0  0  0  0
M  END
>  <Pose>
1

>  <Score>
-6.821

$$$$
