/Users/jonathanwahrer/Desktop/Msc/3_Semester/Drug_Design_Praktikum/waehrer_HTS_screening/HTS_experiment/out/docking_results/vina_output/6q9y/0395_docked.pdbqt
 OpenBabel03222219203D

 28 31  0  0  1  0  0  0  0  0999 V2000
    0.9060   15.8320  -12.3060 N   0  0  0  0  0  0  0  0  0  0  0  0
    2.1370   16.2690  -12.1040 N   0  0  0  0  0  0  0  0  0  0  0  0
    3.0130   15.2800  -12.1390 N   0  0  0  0  0  0  0  0  0  0  0  0
    2.3460   14.1180  -12.3730 C   0  0  0  0  0  0  0  0  0  0  0  0
    1.0210   14.5030  -12.4720 C   0  0  0  0  0  0  0  0  0  0  0  0
    0.1240   13.5380  -12.7060 N   0  0  0  0  0  0  0  0  0  0  0  0
    0.5080   12.2570  -12.8360 C   0  0  0  0  0  3  0  0  0  0  0  0
    1.8010   11.8720  -12.7400 N   0  0  0  0  0  0  0  0  0  0  0  0
    2.7310   12.8050  -12.5060 C   0  0  0  0  0  0  0  0  0  0  0  0
    3.9280   12.4520  -12.4160 O   0  0  0  0  0  0  0  0  0  0  0  0
    2.1170   10.4640  -12.8940 C   0  0  0  0  0  2  0  0  0  0  0  0
    0.9740    9.7450  -13.5640 C   0  0  0  0  0  0  0  0  0  0  0  0
    0.1160   10.3850  -14.2300 O   0  0  0  0  0  0  0  0  0  0  0  0
    0.8400    8.3410  -13.4610 N   0  0  0  0  0  0  0  0  0  0  0  0
   -0.2510    7.6420  -14.0980 C   0  0  0  0  0  2  0  0  0  0  0  0
    1.8020    7.5720  -12.7060 C   0  0  0  0  0  2  0  0  0  0  0  0
   -0.7920    6.6500  -13.0830 C   0  0  2  0  0  3  0  0  0  0  0  0
    0.1610    5.8000  -12.5840 O   0  0  0  0  0  0  0  0  0  0  0  0
   -1.8140    5.7890  -13.8340 C   0  0  0  0  0  1  0  0  0  0  0  0
    1.4530    6.1140  -12.9270 C   0  0  2  0  0  3  0  0  0  0  0  0
    2.4770    5.2440  -12.2600 C   0  0  0  0  0  1  0  0  0  0  0  0
   -0.3060   16.5900  -12.3410 C   0  0  0  0  0  0  0  0  0  0  0  0
   -0.6300   17.4310  -11.2970 C   0  0  0  0  0  3  0  0  0  0  0  0
   -1.8040   18.1690  -11.3250 C   0  0  0  0  0  3  0  0  0  0  0  0
   -2.6880   18.0980  -12.3820 C   0  0  0  0  0  0  0  0  0  0  0  0
   -4.3030   19.1280  -12.3960 Br  0  0  0  0  0  0  0  0  0  0  0  0
   -2.3640   17.2570  -13.4250 C   0  0  0  0  0  3  0  0  0  0  0  0
   -1.1960   16.5240  -13.3950 C   0  0  0  0  0  3  0  0  0  0  0  0
  1  2  1  0  0  0  0
  3  2  2  0  0  0  0
  4  3  1  0  0  0  0
  5  4  2  0  0  0  0
  5  1  1  0  0  0  0
  6  5  1  0  0  0  0
  7  8  1  0  0  0  0
  7  6  2  0  0  0  0
  8  9  1  0  0  0  0
  9 10  2  0  0  0  0
  9  4  1  0  0  0  0
 11  8  1  0  0  0  0
 12 14  1  0  0  0  0
 12 11  1  0  0  0  0
 13 12  2  0  0  0  0
 14 16  1  0  0  0  0
 15 14  1  0  0  0  0
 15 17  1  0  0  0  0
 17 19  1  6  0  0  0
 17 18  1  0  0  0  0
 20 16  1  0  0  0  0
 20 18  1  0  0  0  0
 20 21  1  1  0  0  0
 22  1  1  0  0  0  0
 22 23  1  0  0  0  0
 24 23  2  0  0  0  0
 25 24  1  0  0  0  0
 26 25  1  0  0  0  0
 27 28  1  0  0  0  0
 27 25  2  0  0  0  0
 28 22  2  0  0  0  0
M  END
>  <Pose>
1

>  <Score>
-9.217

$$$$
