/Users/jonathanwahrer/Desktop/Msc/3_Semester/Drug_Design_Praktikum/waehrer_HTS_screening/HTS_experiment/out/docking_results/vina_output/6q9y/0400_docked.pdbqt
 OpenBabel03222219213D

 31 34  0  0  1  0  0  0  0  0999 V2000
    5.8900    6.9820  -13.5230 N   0  0  2  0  0  0  0  0  0  0  0  0
    7.0150    7.0840  -14.3610 C   0  0  0  0  0  2  0  0  0  0  0  0
    8.2770    6.8500  -13.5190 C   0  0  0  0  0  2  0  0  0  0  0  0
    8.3480    5.4210  -13.0280 C   0  0  1  0  0  0  0  0  0  0  0  0
    7.0070    4.9760  -12.6030 C   0  0  0  0  0  2  0  0  0  0  0  0
    6.0620    6.1340  -12.4040 C   0  0  0  0  0  2  0  0  0  0  0  0
    4.6020    7.0410  -14.0840 C   0  0  2  0  0  3  0  0  0  0  0  0
    4.2740    8.4470  -14.4370 C   0  0  0  0  0  0  0  0  0  0  0  0
    3.2390    8.8870  -13.5520 N   0  0  0  0  0  0  0  0  0  0  0  0
    4.8280    9.1000  -15.3550 O   0  0  0  0  0  0  0  0  0  0  0  0
    2.5540    7.7030  -13.1630 C   0  0  0  0  0  0  0  0  0  0  0  0
    3.5020    6.5570  -13.1660 C   0  0  0  0  0  2  0  0  0  0  0  0
    1.3090    7.6540  -12.8610 O   0  0  0  0  0  0  0  0  0  0  0  0
    2.9670   10.2330  -13.1560 C   0  0  0  0  0  0  0  0  0  0  0  0
    1.7870   10.8280  -13.5190 C   0  0  0  0  0  3  0  0  0  0  0  0
    1.5030   12.1450  -13.1400 C   0  0  0  0  0  3  0  0  0  0  0  0
    2.3850   12.8910  -12.3940 C   0  0  0  0  0  0  0  0  0  0  0  0
    2.0060   14.6910  -11.8700 Br  0  0  0  0  0  0  0  0  0  0  0  0
    3.5720   12.2940  -12.0280 C   0  0  0  0  0  3  0  0  0  0  0  0
    3.8420   10.9890  -12.4080 C   0  0  0  0  0  3  0  0  0  0  0  0
    8.9930    4.6470  -14.0060 N   0  0  0  0  0  0  0  0  0  0  0  0
    8.4910    3.3700  -14.2980 C   0  0  0  0  0  2  0  0  0  0  0  0
    9.6570    2.3820  -14.1160 C   0  0  0  0  0  2  0  0  0  0  0  0
   10.6660    2.7380  -15.1890 C   0  0  0  0  0  2  0  0  0  0  0  0
   10.4510    4.0890  -15.7840 C   0  0  0  0  0  2  0  0  0  0  0  0
   10.0520    5.1440  -14.7410 C   0  0  0  0  0  2  0  0  0  0  0  0
    9.2390    5.4610  -11.8150 C   0  0  0  0  0  0  0  0  0  0  0  0
    9.9240    6.5000  -11.5690 O   0  0  0  0  0  0  0  0  0  0  0  0
    9.3580    4.3780  -10.9120 N   0  0  0  0  0  0  0  0  0  0  0  0
   10.2650    3.9130  -10.7920 H   0  0  0  0  0  0  0  0  0  0  0  0
    8.5390    4.0460  -10.3660 H   0  0  0  0  0  0  0  0  0  0  0  0
  1  2  1  6  0  0  0
  1  6  1  0  0  0  0
  2  3  1  0  0  0  0
  3  4  1  0  0  0  0
  4  5  1  0  0  0  0
  4 27  1  1  0  0  0
  5  6  1  0  0  0  0
  7  1  1  0  0  0  0
  7 12  1  1  0  0  0
  8  7  1  0  0  0  0
  8  9  1  0  0  0  0
  9 11  1  0  0  0  0
  9 14  1  0  0  0  0
 10  8  2  0  0  0  0
 11 13  2  0  0  0  0
 12 11  1  0  0  0  0
 14 20  1  0  0  0  0
 15 14  2  0  0  0  0
 15 16  1  0  0  0  0
 16 17  2  0  0  0  0
 17 19  1  0  0  0  0
 17 18  1  0  0  0  0
 20 19  2  0  0  0  0
 21  4  1  0  0  0  0
 22 23  1  0  0  0  0
 22 21  1  0  0  0  0
 24 23  1  0  0  0  0
 25 24  1  0  0  0  0
 25 26  1  0  0  0  0
 26 21  1  0  0  0  0
 27 28  2  0  0  0  0
 27 29  1  0  0  0  0
 29 30  1  0  0  0  0
 29 31  1  0  0  0  0
M  END
>  <Pose>
1

>  <Score>
-7.769

$$$$
