/Users/jonathanwahrer/Desktop/Msc/3_Semester/Drug_Design_Praktikum/waehrer_HTS_screening/HTS_experiment/out/docking_results/vina_output/6q9y/0412_docked.pdbqt
 OpenBabel03222219223D

 34 37  0  0  0  0  0  0  0  0999 V2000
   -3.0970   18.8430  -11.9610 N   0  0  0  0  0  0  0  0  0  0  0  0
   -2.0540   18.1010  -11.5810 C   0  0  0  0  0  0  0  0  0  0  0  0
   -1.5960   18.0670  -10.3900 O   0  0  0  0  0  0  0  0  0  0  0  0
   -1.5030   17.3650  -12.6050 C   0  0  0  0  0  0  0  0  0  0  0  0
   -2.2590   17.6780  -13.6750 C   0  0  0  0  0  0  0  0  0  0  0  0
   -1.7370   16.9640  -14.7010 N   0  0  0  0  0  0  0  0  0  0  0  0
   -0.7120   16.2460  -14.2790 N   0  0  0  0  0  0  0  0  0  0  0  0
   -0.5640   16.4880  -12.9930 N   0  0  0  0  0  0  0  0  0  0  0  0
   -3.2300   18.5760  -13.2970 C   0  0  0  0  0  0  0  0  0  0  0  0
   -4.1230   19.1040  -14.0030 O   0  0  0  0  0  0  0  0  0  0  0  0
   -2.1110   16.9970  -15.6790 H   0  0  0  0  0  0  0  0  0  0  0  0
   -0.1520   15.6140  -14.9130 H   0  0  0  0  0  0  0  0  0  0  0  0
    0.4430   15.8970  -12.1610 C   0  0  0  0  0  2  0  0  0  0  0  0
    0.5760   14.4520  -12.3300 C   0  0  0  0  0  0  0  0  0  0  0  0
    1.4450   13.7710  -11.7130 O   0  0  0  0  0  0  0  0  0  0  0  0
   -0.3030   13.8030  -13.2270 N   0  0  0  0  0  0  0  0  0  0  0  0
   -1.0390   14.3580  -13.7620 H   0  0  0  0  0  0  0  0  0  0  0  0
   -0.1890   12.4010  -13.4040 C   0  0  0  0  0  0  0  0  0  0  0  0
   -1.3440   11.6700  -13.2740 C   0  0  0  0  0  3  0  0  0  0  0  0
   -1.3110   10.2760  -13.4050 C   0  0  0  0  0  0  0  0  0  0  0  0
   -0.1230    9.6440  -13.6600 C   0  0  0  0  0  3  0  0  0  0  0  0
    1.0570   10.3720  -13.7940 C   0  0  0  0  0  0  0  0  0  0  0  0
    0.9900   11.7500  -13.6610 C   0  0  0  0  0  3  0  0  0  0  0  0
   -2.5250    9.6480  -13.2600 O   0  0  0  0  0  0  0  0  0  0  0  0
   -3.5740    9.7550  -14.1510 C   0  0  0  0  0  1  0  0  0  0  0  0
    2.2150    9.6670  -14.0460 O   0  0  0  0  0  0  0  0  0  0  0  0
    2.8180    9.4540  -15.2840 C   0  0  0  0  0  1  0  0  0  0  0  0
   -3.9230   19.7260  -11.1970 C   0  0  0  0  0  0  0  0  0  0  0  0
   -3.4320   20.3660  -10.0850 C   0  0  0  0  0  3  0  0  0  0  0  0
   -4.2480   21.2320   -9.3410 C   0  0  0  0  0  3  0  0  0  0  0  0
   -5.5530   21.4620   -9.7040 C   0  0  0  0  0  0  0  0  0  0  0  0
   -6.6750   22.6550   -8.6870 Br  0  0  0  0  0  0  0  0  0  0  0  0
   -6.0420   20.8200  -10.8190 C   0  0  0  0  0  3  0  0  0  0  0  0
   -5.2350   19.9720  -11.5400 C   0  0  0  0  0  3  0  0  0  0  0  0
  1  2  1  0  0  0  0
  1 28  1  0  0  0  0
  2  3  2  0  0  0  0
  4  2  1  0  0  0  0
  5  9  1  0  0  0  0
  5  4  2  0  0  0  0
  6  7  1  0  0  0  0
  6  5  1  0  0  0  0
  7  8  1  0  0  0  0
  8  4  1  0  0  0  0
  8 13  1  0  0  0  0
  9  1  1  0  0  0  0
 10  9  2  0  0  0  0
 11  6  1  0  0  0  0
 12  7  1  0  0  0  0
 14 13  1  0  0  0  0
 14 15  2  0  0  0  0
 16 14  1  0  0  0  0
 17 16  1  0  0  0  0
 18 19  1  0  0  0  0
 18 16  1  0  0  0  0
 20 19  2  0  0  0  0
 20 24  1  0  0  0  0
 21 20  1  0  0  0  0
 22 23  1  0  0  0  0
 22 21  2  0  0  0  0
 23 18  2  0  0  0  0
 25 24  1  0  0  0  0
 26 22  1  0  0  0  0
 27 26  1  0  0  0  0
 28 29  1  0  0  0  0
 29 30  2  0  0  0  0
 31 30  1  0  0  0  0
 31 32  1  0  0  0  0
 33 31  2  0  0  0  0
 34 28  2  0  0  0  0
 34 33  1  0  0  0  0
M  END
>  <Pose>
1

>  <Score>
-10.661

$$$$
