/Users/jonathanwahrer/Desktop/Msc/3_Semester/Drug_Design_Praktikum/waehrer_HTS_screening/HTS_experiment/out/docking_results/vina_output/6q9y/0416_docked.pdbqt
 OpenBabel03222219223D

 33 36  0  0  0  0  0  0  0  0999 V2000
   -3.0600   18.8780  -11.8480 N   0  0  0  0  0  0  0  0  0  0  0  0
   -1.9420   18.2450  -11.3950 C   0  0  0  0  0  0  0  0  0  0  0  0
   -1.4990   18.3650  -10.2270 O   0  0  0  0  0  0  0  0  0  0  0  0
   -1.3790   17.4710  -12.3860 C   0  0  0  0  0  0  0  0  0  0  0  0
   -2.1520   17.6270  -13.4510 C   0  0  0  0  0  0  0  0  0  0  0  0
   -1.6240   16.8810  -14.4380 N   0  0  0  0  0  0  0  0  0  0  0  0
   -0.5410   16.2810  -13.9650 N   0  0  0  0  0  0  0  0  0  0  0  0
   -0.3600   16.6230  -12.7030 N   0  0  0  0  0  0  0  0  0  0  0  0
   -3.1780   18.4850  -13.1240 C   0  0  0  0  0  0  0  0  0  0  0  0
   -4.1170   18.8710  -13.8890 O   0  0  0  0  0  0  0  0  0  0  0  0
   -1.9750   16.7670  -15.4050 H   0  0  0  0  0  0  0  0  0  0  0  0
    0.0790   15.6270  -14.5260 H   0  0  0  0  0  0  0  0  0  0  0  0
    0.6910   16.2170  -11.8170 C   0  0  0  0  0  2  0  0  0  0  0  0
    1.5080   15.0610  -12.3450 C   0  0  0  0  0  0  0  0  0  0  0  0
    2.5490   15.3720  -12.9630 O   0  0  0  0  0  0  0  0  0  0  0  0
    1.1220   13.7360  -12.1490 N   0  0  0  0  0  0  0  0  0  0  0  0
    0.1990   13.6030  -11.6050 H   0  0  0  0  0  0  0  0  0  0  0  0
    1.7460   12.5430  -12.5500 C   0  0  0  0  0  0  0  0  0  0  0  0
    1.1110   11.6910  -13.4540 C   0  0  0  0  0  3  0  0  0  0  0  0
    1.6740   10.5110  -13.8570 C   0  0  0  0  0  3  0  0  0  0  0  0
    2.9200   10.1200  -13.3660 C   0  0  0  0  0  0  0  0  0  0  0  0
    3.5210   10.9800  -12.4790 C   0  0  0  0  0  3  0  0  0  0  0  0
    2.9600   12.1680  -12.0710 C   0  0  0  0  0  3  0  0  0  0  0  0
    3.4470    8.9250  -13.7950 O   0  0  0  0  0  0  0  0  0  0  0  0
    4.5040    8.7490  -14.6810 C   0  0  0  0  0  2  0  0  0  0  0  0
    5.4070    7.6110  -14.3470 C   0  0  0  0  0  1  0  0  0  0  0  0
   -3.9130   19.7660  -11.1300 C   0  0  0  0  0  0  0  0  0  0  0  0
   -3.5140   20.4770  -10.0170 C   0  0  0  0  0  3  0  0  0  0  0  0
   -4.3760   21.3280   -9.3420 C   0  0  0  0  0  3  0  0  0  0  0  0
   -5.6800   21.5050   -9.7540 C   0  0  0  0  0  0  0  0  0  0  0  0
   -6.8860   22.6670   -8.8390 Br  0  0  0  0  0  0  0  0  0  0  0  0
   -6.0780   20.7890  -10.8760 C   0  0  0  0  0  3  0  0  0  0  0  0
   -5.2200   19.9420  -11.5470 C   0  0  0  0  0  3  0  0  0  0  0  0
  1  2  1  0  0  0  0
  1 27  1  0  0  0  0
  2  3  2  0  0  0  0
  4  2  1  0  0  0  0
  5  9  1  0  0  0  0
  5  4  2  0  0  0  0
  6  7  1  0  0  0  0
  6  5  1  0  0  0  0
  7  8  1  0  0  0  0
  8  4  1  0  0  0  0
  8 13  1  0  0  0  0
  9  1  1  0  0  0  0
 10  9  2  0  0  0  0
 11  6  1  0  0  0  0
 12  7  1  0  0  0  0
 14 16  1  0  0  0  0
 14 13  1  0  0  0  0
 15 14  2  0  0  0  0
 16 17  1  0  0  0  0
 18 16  1  0  0  0  0
 18 23  1  0  0  0  0
 19 18  2  0  0  0  0
 20 19  1  0  0  0  0
 20 21  2  0  0  0  0
 21 22  1  0  0  0  0
 22 23  2  0  0  0  0
 24 21  1  0  0  0  0
 25 26  1  0  0  0  0
 25 24  1  0  0  0  0
 27 28  1  0  0  0  0
 28 29  2  0  0  0  0
 30 29  1  0  0  0  0
 30 31  1  0  0  0  0
 32 30  2  0  0  0  0
 33 27  2  0  0  0  0
 33 32  1  0  0  0  0
M  END
>  <Pose>
1

>  <Score>
-10.733

$$$$
