/Users/jonathanwahrer/Desktop/Msc/3_Semester/Drug_Design_Praktikum/waehrer_HTS_screening/HTS_experiment/out/docking_results/vina_output/6q9y/0421_docked.pdbqt
 OpenBabel03222219223D

 28 31  0  0  0  0  0  0  0  0999 V2000
   -1.4490    8.8400  -13.8830 N   0  0  0  0  0  0  0  0  0  0  0  0
   -2.6740    9.4090  -13.9180 C   0  0  0  0  0  0  0  0  0  0  0  0
   -2.9760   10.6160  -13.6540 O   0  0  0  0  0  0  0  0  0  0  0  0
   -3.6330    8.4870  -14.2950 C   0  0  0  0  0  0  0  0  0  0  0  0
   -2.9630    7.3490  -14.4880 C   0  0  0  0  0  0  0  0  0  0  0  0
   -3.9010    6.4430  -14.8580 N   0  0  0  0  0  0  0  0  0  0  0  0
   -5.0800    7.0430  -14.8780 N   0  0  0  0  0  0  0  0  0  0  0  0
   -4.9450    8.3120  -14.5330 N   0  0  0  0  0  0  0  0  0  0  0  0
   -1.6240    7.5550  -14.2370 C   0  0  0  0  0  0  0  0  0  0  0  0
   -0.6830    6.7260  -14.3110 O   0  0  0  0  0  0  0  0  0  0  0  0
   -3.6960    5.4350  -15.0850 H   0  0  0  0  0  0  0  0  0  0  0  0
   -6.0100    6.6150  -15.1240 H   0  0  0  0  0  0  0  0  0  0  0  0
   -5.9880    9.2910  -14.4370 C   0  0  0  0  0  0  0  0  0  0  0  0
   -6.8700    9.4960  -15.4770 C   0  0  0  0  0  3  0  0  0  0  0  0
   -7.8910   10.4360  -15.4130 C   0  0  0  0  0  3  0  0  0  0  0  0
   -8.0500   11.2050  -14.2800 C   0  0  0  0  0  0  0  0  0  0  0  0
   -7.1700   11.0020  -13.2390 C   0  0  0  0  0  3  0  0  0  0  0  0
   -6.1530   10.0630  -13.3060 C   0  0  0  0  0  3  0  0  0  0  0  0
   -9.0870   12.1770  -14.1840 N   0  0  0  0  0  0  0  0  0  0  0  0
   -9.2530   12.8730  -13.1640 O   0  0  0  0  0  0  0  0  0  0  0  0
   -9.9280   12.3570  -15.2360 O   0  0  0  0  0  0  0  0  0  0  0  0
   -0.2240    9.4980  -13.5340 C   0  0  0  0  0  0  0  0  0  0  0  0
    0.7700    8.8760  -12.8080 C   0  0  0  0  0  3  0  0  0  0  0  0
    1.9490    9.5420  -12.4850 C   0  0  0  0  0  3  0  0  0  0  0  0
    2.1610   10.8460  -12.8810 C   0  0  0  0  0  0  0  0  0  0  0  0
    3.7750   11.7800  -12.4470 Br  0  0  0  0  0  0  0  0  0  0  0  0
    1.1690   11.4710  -13.6080 C   0  0  0  0  0  3  0  0  0  0  0  0
    0.0020   10.8020  -13.9240 C   0  0  0  0  0  3  0  0  0  0  0  0
  1 22  1  0  0  0  0
  2  1  1  0  0  0  0
  2  3  2  0  0  0  0
  4  2  1  0  0  0  0
  5  4  2  0  0  0  0
  5  9  1  0  0  0  0
  6  5  1  0  0  0  0
  7  6  1  0  0  0  0
  7  8  1  0  0  0  0
  8 13  1  0  0  0  0
  8  4  1  0  0  0  0
  9  1  1  0  0  0  0
 10  9  2  0  0  0  0
 11  6  1  0  0  0  0
 12  7  1  0  0  0  0
 13 18  1  0  0  0  0
 14 15  1  0  0  0  0
 14 13  2  0  0  0  0
 15 16  2  0  0  0  0
 16 19  1  0  0  0  0
 16 17  1  0  0  0  0
 18 17  2  0  0  0  0
 19 20  2  0  0  0  0
 21 19  2  0  0  0  0
 22 23  1  0  0  0  0
 23 24  2  0  0  0  0
 25 24  1  0  0  0  0
 25 26  1  0  0  0  0
 27 25  2  0  0  0  0
 28 27  1  0  0  0  0
 28 22  2  0  0  0  0
M  END
>  <Pose>
1

>  <Score>
-9.197

$$$$
