/Users/jonathanwahrer/Desktop/Msc/3_Semester/Drug_Design_Praktikum/waehrer_HTS_screening/HTS_experiment/out/docking_results/vina_output/6q9y/0425_docked.pdbqt
 OpenBabel03222219233D

 24 28  0  0  1  0  0  0  0  0999 V2000
    2.8680    7.3940  -12.6880 N   0  0  0  0  0  0  0  0  0  0  0  0
    1.6590    7.5510  -11.9620 C   0  0  0  0  0  0  0  0  0  0  0  0
    1.2120    6.7080  -11.1470 O   0  0  0  0  0  0  0  0  0  0  0  0
    1.0360    8.8510  -12.3300 C   0  0  2  0  0  3  0  0  0  0  0  0
    0.0230    8.7050  -13.4230 C   0  0  1  0  0  0  0  0  0  0  0  0
    0.1610    9.9540  -14.0670 O   0  0  0  0  0  0  0  0  0  0  0  0
    1.5310    9.8210  -14.4070 C   0  0  1  0  0  3  0  0  0  0  0  0
    2.1400    9.6140  -13.0630 C   0  0  2  0  0  3  0  0  0  0  0  0
    3.2900    8.6740  -13.1560 C   0  0  0  0  0  0  0  0  0  0  0  0
    4.4120    8.9750  -13.5720 O   0  0  0  0  0  0  0  0  0  0  0  0
    1.4790    8.5110  -15.1070 C   0  0  0  0  0  2  0  0  0  0  0  0
    0.5760    7.7980  -14.4410 C   0  0  0  0  0  2  0  0  0  0  0  0
    3.5010    6.1220  -12.8780 C   0  0  0  0  0  0  0  0  0  0  0  0
    2.8620    4.9430  -12.5640 C   0  0  0  0  0  3  0  0  0  0  0  0
    3.4590    3.7140  -12.7390 C   0  0  0  0  0  3  0  0  0  0  0  0
    4.7370    3.6780  -13.2440 C   0  0  0  0  0  0  0  0  0  0  0  0
    5.5940    2.0060  -13.4980 Br  0  0  0  0  0  0  0  0  0  0  0  0
    5.3950    4.8400  -13.5620 C   0  0  0  0  0  3  0  0  0  0  0  0
    4.7920    6.0870  -13.3870 C   0  0  0  0  0  3  0  0  0  0  0  0
   -1.3510    8.4350  -12.9830 C   0  0  0  0  0  3  0  0  0  0  0  0
   -2.0280    7.5500  -13.7780 O   0  0  0  0  0  0  0  0  0  0  0  0
   -3.0130    8.2260  -14.4530 C   0  0  0  0  0  2  0  0  0  0  0  0
   -2.9250    9.6510  -14.0140 C   0  0  0  0  0  2  0  0  0  0  0  0
   -2.1010    9.5950  -12.8950 O   0  0  0  0  0  0  0  0  0  0  0  0
  1  2  1  0  0  0  0
  2  3  2  0  0  0  0
  4  2  1  6  0  0  0
  5 20  1  1  0  0  0
  5  4  1  0  0  0  0
  6  5  1  0  0  0  0
  7 11  1  6  0  0  0
  7  6  1  0  0  0  0
  7  8  1  0  0  0  0
  8  9  1  6  0  0  0
  8  4  1  0  0  0  0
  9  1  1  0  0  0  0
 10  9  2  0  0  0  0
 11 12  1  0  0  0  0
 12  5  1  0  0  0  0
 13  1  1  0  0  0  0
 13 14  1  0  0  0  0
 15 14  2  0  0  0  0
 16 15  1  0  0  0  0
 17 16  1  0  0  0  0
 18 19  1  0  0  0  0
 18 16  2  0  0  0  0
 19 13  2  0  0  0  0
 20 24  1  0  0  0  0
 21 20  1  0  0  0  0
 22 23  1  0  0  0  0
 22 21  1  0  0  0  0
 23 24  1  0  0  0  0
M  END
>  <Pose>
1

>  <Score>
-7.729

$$$$
