/Users/jonathanwahrer/Desktop/Msc/3_Semester/Drug_Design_Praktikum/waehrer_HTS_screening/HTS_experiment/out/docking_results/vina_output/6q9y/0426_docked.pdbqt
 OpenBabel03222219233D

 29 32  0  0  1  0  0  0  0  0999 V2000
   -1.4700    8.9650  -13.7790 N   0  0  0  0  0  0  0  0  0  0  0  0
   -1.8700    7.6000  -14.0050 C   0  0  0  0  0  0  0  0  0  0  0  0
   -1.3010    6.5690  -13.5450 O   0  0  0  0  0  0  0  0  0  0  0  0
   -3.0680    7.6420  -14.8740 C   0  0  1  0  0  3  0  0  0  0  0  0
   -4.0340    6.5920  -14.6150 N   0  0  0  0  0  0  0  0  0  0  0  0
   -5.2310    7.3380  -14.8500 N   0  0  0  0  0  0  0  0  0  0  0  0
   -5.0740    8.6380  -14.2820 C   0  0  0  0  0  0  0  0  0  0  0  0
   -3.7630    8.8480  -14.2840 C   0  0  0  0  0  0  0  0  0  0  0  0
   -2.6600    9.7440  -13.9550 C   0  0  0  0  0  0  0  0  0  0  0  0
   -2.8270   10.9910  -13.8630 O   0  0  0  0  0  0  0  0  0  0  0  0
   -4.0110    6.4510  -13.5660 H   0  0  0  0  0  0  0  0  0  0  0  0
   -6.0780    7.0000  -15.3470 H   0  0  0  0  0  0  0  0  0  0  0  0
   -6.1110    9.5480  -13.8070 C   0  0  0  0  0  0  0  0  0  0  0  0
   -6.2360    9.8300  -12.5920 O   0  0  0  0  0  0  0  0  0  0  0  0
   -7.0150   10.1520  -14.6690 O   0  0  0  0  0  0  0  0  0  0  0  0
   -7.6180   11.4020  -14.3630 C   0  0  0  0  0  2  0  0  0  0  0  0
   -8.7380   11.6600  -15.3290 C   0  0  0  0  0  0  0  0  0  0  0  0
   -8.9560   10.7980  -16.4020 C   0  0  0  0  0  3  0  0  0  0  0  0
   -9.9680   10.9940  -17.3020 C   0  0  0  0  0  3  0  0  0  0  0  0
  -10.8080   12.0930  -17.1420 C   0  0  0  0  0  3  0  0  0  0  0  0
  -10.5880   12.9430  -16.0810 C   0  0  0  0  0  3  0  0  0  0  0  0
   -9.5530   12.7320  -15.1680 C   0  0  0  0  0  3  0  0  0  0  0  0
   -0.1910    9.4640  -13.4480 C   0  0  0  0  0  0  0  0  0  0  0  0
    0.1850   10.7560  -13.8360 C   0  0  0  0  0  3  0  0  0  0  0  0
    1.3930   11.3110  -13.5600 C   0  0  0  0  0  3  0  0  0  0  0  0
    2.3130   10.5730  -12.8600 C   0  0  0  0  0  0  0  0  0  0  0  0
    4.0350   11.3380  -12.4540 Br  0  0  0  0  0  0  0  0  0  0  0  0
    1.9810    9.2930  -12.4590 C   0  0  0  0  0  3  0  0  0  0  0  0
    0.7450    8.7480  -12.7510 C   0  0  0  0  0  3  0  0  0  0  0  0
  1 23  1  0  0  0  0
  2  1  1  0  0  0  0
  2  3  2  0  0  0  0
  4  5  1  0  0  0  0
  4  8  1  1  0  0  0
  4  2  1  0  0  0  0
  5 11  1  0  0  0  0
  6  5  1  0  0  0  0
  6  7  1  0  0  0  0
  7 13  1  0  0  0  0
  8  7  2  0  0  0  0
  8  9  1  0  0  0  0
  9 10  2  0  0  0  0
  9  1  1  0  0  0  0
 12  6  1  0  0  0  0
 13 14  2  0  0  0  0
 15 16  1  0  0  0  0
 15 13  1  0  0  0  0
 17 22  1  0  0  0  0
 17 16  1  0  0  0  0
 18 17  2  0  0  0  0
 19 20  2  0  0  0  0
 19 18  1  0  0  0  0
 20 21  1  0  0  0  0
 21 22  2  0  0  0  0
 23 29  1  0  0  0  0
 24 25  1  0  0  0  0
 24 23  2  0  0  0  0
 25 26  2  0  0  0  0
 26 28  1  0  0  0  0
 26 27  1  0  0  0  0
 29 28  2  0  0  0  0
M  END
>  <Pose>
1

>  <Score>
-10.501

$$$$
