/Users/jonathanwahrer/Desktop/Msc/3_Semester/Drug_Design_Praktikum/waehrer_HTS_screening/HTS_experiment/out/docking_results/vina_output/6q9y/0428_docked.pdbqt
 OpenBabel03222219233D

 28 31  0  0  1  0  0  0  0  0999 V2000
    4.0800    5.9920  -13.0420 N   0  0  0  0  0  0  0  0  0  0  0  0
    3.5980    4.7750  -12.4430 C   0  0  0  0  0  0  0  0  0  0  0  0
    4.3960    3.8150  -12.2580 O   0  0  0  0  0  0  0  0  0  0  0  0
    2.2340    4.7280  -12.0920 N   0  0  0  0  0  2  0  0  0  0  0  0
    1.4140    5.6790  -12.2680 C   0  0  0  0  0  0  0  0  0  0  0  0
    1.7270    7.0010  -12.8670 C   0  0  1  0  0  0  0  0  0  0  0  0
    0.7950    7.2270  -14.0070 C   0  0  0  0  0  2  0  0  0  0  0  0
    0.4770    8.5710  -14.3240 N   0  0  0  0  0  4  0  0  0  0  0  0
    1.2600    9.5570  -13.6920 C   0  0  0  0  0  0  0  0  0  0  0  0
    1.7590    9.3470  -12.4000 C   0  0  0  0  0  0  0  0  0  0  0  0
    2.5170   10.3140  -11.8030 C   0  0  0  0  0  3  0  0  0  0  0  0
    2.8330   11.5130  -12.4000 C   0  0  0  0  0  0  0  0  0  0  0  0
    2.3410   11.7160  -13.6720 C   0  0  0  0  0  3  0  0  0  0  0  0
    1.5670   10.7520  -14.3050 C   0  0  0  0  0  3  0  0  0  0  0  0
    3.6600   12.5380  -11.7210 C   0  0  0  0  0  1  0  0  0  0  0  0
    1.3950    8.0400  -11.7920 C   0  0  0  0  0  2  0  0  0  0  0  0
   -0.9560    8.8630  -14.1460 C   0  0  0  0  0  1  0  0  0  0  0  0
    3.1560    7.0570  -13.2390 C   0  0  0  0  0  0  0  0  0  0  0  0
    3.6470    8.1060  -13.7750 O   0  0  0  0  0  0  0  0  0  0  0  0
    0.0730    5.4960  -11.8670 O   0  0  0  0  0  0  0  0  0  0  0  0
    0.6320    8.6970  -15.3690 H   0  0  0  0  0  0  0  0  0  0  0  0
    5.4420    6.1150  -13.4220 C   0  0  0  0  0  0  0  0  0  0  0  0
    6.2670    5.0300  -13.2280 C   0  0  0  0  0  3  0  0  0  0  0  0
    7.6140    5.0630  -13.5680 C   0  0  0  0  0  3  0  0  0  0  0  0
    8.1430    6.2030  -14.1110 C   0  0  0  0  0  0  0  0  0  0  0  0
    9.9930    6.2380  -14.5750 Br  0  0  0  0  0  0  0  0  0  0  0  0
    7.3350    7.3090  -14.3170 C   0  0  0  0  0  3  0  0  0  0  0  0
    5.9950    7.2520  -13.9700 C   0  0  0  0  0  3  0  0  0  0  0  0
  1  2  1  0  0  0  0
  2  3  2  0  0  0  0
  2  4  1  0  0  0  0
  5  4  1  0  0  0  0
  5 20  2  0  0  0  0
  6  7  1  6  0  0  0
  6  5  1  0  0  0  0
  6 16  1  0  0  0  0
  8 17  1  0  0  0  0
  8  7  1  0  0  0  0
  8  9  1  0  0  0  0
  9 10  1  0  0  0  0
 10 11  2  0  0  0  0
 10 16  1  0  0  0  0
 12 11  1  0  0  0  0
 12 15  1  0  0  0  0
 13 12  2  0  0  0  0
 14  9  2  0  0  0  0
 14 13  1  0  0  0  0
 18  1  1  0  0  0  0
 18  6  1  0  0  0  0
 19 18  2  0  0  0  0
 21  8  1  0  0  0  0
 22 23  1  0  0  0  0
 22  1  1  0  0  0  0
 24 23  2  0  0  0  0
 25 24  1  0  0  0  0
 26 25  1  0  0  0  0
 27 25  2  0  0  0  0
 27 28  1  0  0  0  0
 28 22  2  0  0  0  0
M  END
>  <Pose>
1

>  <Score>
-8.703

$$$$
