/Users/jonathanwahrer/Desktop/Msc/3_Semester/Drug_Design_Praktikum/waehrer_HTS_screening/HTS_experiment/out/docking_results/vina_output/6q9y/0436_docked.pdbqt
 OpenBabel03222219233D

 29 32  0  0  0  0  0  0  0  0999 V2000
   -4.6640    8.6760  -14.6680 N   0  0  0  0  0  0  0  0  0  0  0  0
   -4.8420    7.3900  -15.3130 C   0  0  0  0  0  2  0  0  0  0  0  0
   -3.5550    6.6070  -15.4320 C   0  0  0  0  0  2  0  0  0  0  0  0
   -2.8390    6.7220  -14.0780 C   0  0  0  0  0  2  0  0  0  0  0  0
   -2.4010    8.0910  -14.0040 N   0  0  0  0  0  0  0  0  0  0  0  0
   -3.3380    9.0400  -14.3050 C   0  0  0  0  0  0  0  0  0  0  0  0
   -2.7680   10.2510  -14.1900 N   0  0  0  0  0  0  0  0  0  0  0  0
   -1.4820   10.0390  -13.8170 C   0  0  0  0  0  0  0  0  0  0  0  0
   -1.2410    8.6790  -13.6960 C   0  0  0  0  0  0  0  0  0  0  0  0
    0.0050    8.2140  -13.3260 C   0  0  0  0  0  0  0  0  0  0  0  0
    0.1860    6.9540  -13.2260 O   0  0  0  0  0  0  0  0  0  0  0  0
    0.9910    9.0940  -13.0790 N   0  0  0  0  0  0  0  0  0  0  0  0
    0.7310   10.4080  -13.2030 C   0  0  0  0  0  0  0  0  0  0  0  0
    1.6830   11.1980  -12.9620 O   0  0  0  0  0  0  0  0  0  0  0  0
   -0.4640   10.8790  -13.5600 N   0  0  0  0  0  0  0  0  0  0  0  0
   -0.7100   12.3080  -13.6840 C   0  0  0  0  0  1  0  0  0  0  0  0
   -5.7940    9.4920  -14.4350 C   0  0  0  0  0  0  0  0  0  0  0  0
   -6.0080   10.1970  -13.2730 C   0  0  0  0  0  3  0  0  0  0  0  0
   -7.1570   10.9800  -13.1370 C   0  0  0  0  0  3  0  0  0  0  0  0
   -8.0890   11.0630  -14.1490 C   0  0  0  0  0  0  0  0  0  0  0  0
   -9.6500   12.1100  -13.9980 Br  0  0  0  0  0  0  0  0  0  0  0  0
   -7.8790   10.3580  -15.3180 C   0  0  0  0  0  3  0  0  0  0  0  0
   -6.7450    9.6000  -15.4240 C   0  0  0  0  0  3  0  0  0  0  0  0
    2.3050    8.6150  -12.6870 C   0  0  0  0  0  2  0  0  0  0  0  0
    3.1150    8.3750  -13.9270 C   0  0  0  0  0  0  0  0  0  0  0  0
    3.9950    7.4840  -13.9510 O   0  0  0  0  0  0  0  0  0  0  0  0
    2.9100    9.1390  -15.0990 N   0  0  0  0  0  0  0  0  0  0  0  0
    2.9840    8.7320  -16.0590 H   0  0  0  0  0  0  0  0  0  0  0  0
    2.6720   10.1610  -15.0500 H   0  0  0  0  0  0  0  0  0  0  0  0
  1 17  1  0  0  0  0
  1  6  1  0  0  0  0
  2  1  1  0  0  0  0
  3  2  1  0  0  0  0
  3  4  1  0  0  0  0
  4  5  1  0  0  0  0
  5  9  1  0  0  0  0
  6  7  2  0  0  0  0
  6  5  1  0  0  0  0
  7  8  1  0  0  0  0
  8  9  2  0  0  0  0
  8 15  1  0  0  0  0
  9 10  1  0  0  0  0
 10 11  2  0  0  0  0
 10 12  1  0  0  0  0
 12 24  1  0  0  0  0
 13 12  1  0  0  0  0
 13 14  2  0  0  0  0
 15 13  1  0  0  0  0
 16 15  1  0  0  0  0
 17 18  1  0  0  0  0
 18 19  2  0  0  0  0
 20 21  1  0  0  0  0
 20 19  1  0  0  0  0
 22 20  2  0  0  0  0
 23 22  1  0  0  0  0
 23 17  2  0  0  0  0
 25 24  1  0  0  0  0
 26 25  2  0  0  0  0
 27 29  1  0  0  0  0
 27 25  1  0  0  0  0
 28 27  1  0  0  0  0
M  END
>  <Pose>
1

>  <Score>
-8.561

$$$$
