/Users/jonathanwahrer/Desktop/Msc/3_Semester/Drug_Design_Praktikum/waehrer_HTS_screening/HTS_experiment/out/docking_results/vina_output/6q9y/0439_docked.pdbqt
 OpenBabel03222219233D

 28 32  0  0  1  0  0  0  0  0999 V2000
    0.4920   15.3490  -12.6060 N   0  0  0  0  0  0  0  0  0  0  0  0
    1.8000   15.5640  -12.6930 N   0  0  0  0  0  0  0  0  0  0  0  0
    2.4690   14.3970  -12.7160 C   0  0  0  0  0  0  0  0  0  0  0  0
    3.7850   14.2460  -12.7980 C   0  0  0  0  0  2  0  0  0  0  0  0
    1.5550   13.3660  -12.6430 C   0  0  2  0  0  3  0  0  0  0  0  0
    0.3280   14.0090  -12.5750 C   0  0  0  0  0  0  0  0  0  0  0  0
   -0.7690   13.4120  -12.4940 O   0  0  0  0  0  0  0  0  0  0  0  0
    2.2450   16.5030  -12.7350 H   0  0  0  0  0  0  0  0  0  0  0  0
    1.7810   12.0490  -12.6360 C   0  0  0  0  0  2  0  0  0  0  0  0
    1.0290   11.2400  -13.5320 N   0  0  0  0  0  0  0  0  0  0  0  0
    0.5270   11.7100  -14.3000 H   0  0  0  0  0  0  0  0  0  0  0  0
    0.9540    9.8140  -13.3960 C   0  0  1  0  0  0  0  0  0  0  0  0
    1.6930    9.3570  -12.1790 C   0  0  0  0  0  2  0  0  0  0  0  0
    1.5110    7.9200  -12.0230 N   0  0  1  0  0  0  0  0  0  0  0  0
    0.0820    7.6690  -11.8750 C   0  0  0  0  0  2  0  0  0  0  0  0
    2.0350    7.2490  -13.1850 C   0  0  0  0  0  2  0  0  0  0  0  0
   -0.6510    8.0360  -13.0610 N   0  0  2  0  0  0  0  0  0  0  0  0
   -0.0760    7.3600  -14.2190 C   0  0  0  0  0  2  0  0  0  0  0  0
   -0.5310    9.4540  -13.2780 C   0  0  0  0  0  2  0  0  0  0  0  0
    1.3290    7.6650  -14.3750 N   0  0  1  0  0  0  0  0  0  0  0  0
    1.5140    9.0800  -14.5910 C   0  0  0  0  0  2  0  0  0  0  0  0
   -0.5500   16.3160  -12.5540 C   0  0  0  0  0  0  0  0  0  0  0  0
   -0.6420   17.1770  -11.4800 C   0  0  0  0  0  3  0  0  0  0  0  0
   -1.6490   18.1360  -11.3970 C   0  0  0  0  0  3  0  0  0  0  0  0
   -2.5760   18.2410  -12.3900 C   0  0  0  0  0  0  0  0  0  0  0  0
   -3.9870   19.5460  -12.3260 Br  0  0  0  0  0  0  0  0  0  0  0  0
   -2.5090   17.3900  -13.4810 C   0  0  0  0  0  3  0  0  0  0  0  0
   -1.5040   16.4520  -13.5390 C   0  0  0  0  0  3  0  0  0  0  0  0
  1  6  1  0  0  0  0
  1 22  1  0  0  0  0
  2  1  1  0  0  0  0
  3  2  1  0  0  0  0
  3  5  1  0  0  0  0
  4  3  2  0  0  0  0
  5  9  1  1  0  0  0
  5  6  1  0  0  0  0
  6  7  2  0  0  0  0
  8  2  1  0  0  0  0
 10  9  1  0  0  0  0
 11 10  1  0  0  0  0
 12 10  1  6  0  0  0
 12 19  1  0  0  0  0
 12 13  1  0  0  0  0
 13 14  1  0  0  0  0
 14 16  1  6  0  0  0
 14 15  1  0  0  0  0
 17 18  1  6  0  0  0
 17 15  1  0  0  0  0
 19 17  1  0  0  0  0
 20 21  1  1  0  0  0
 20 18  1  0  0  0  0
 20 16  1  0  0  0  0
 21 12  1  0  0  0  0
 22 23  1  0  0  0  0
 23 24  2  0  0  0  0
 25 26  1  0  0  0  0
 25 24  1  0  0  0  0
 27 25  2  0  0  0  0
 28 27  1  0  0  0  0
 28 22  2  0  0  0  0
M  END
>  <Pose>
1

>  <Score>
-8.131

$$$$
