/Users/jonathanwahrer/Desktop/Msc/3_Semester/Drug_Design_Praktikum/waehrer_HTS_screening/HTS_experiment/out/docking_results/vina_output/6q9y/0441_docked.pdbqt
 OpenBabel03222219243D

 36 39  0  0  1  0  0  0  0  0999 V2000
    0.7980   14.0440  -12.1650 C   0  0  0  0  0  0  0  0  0  0  0  0
    0.8200   12.9120  -12.8940 N   0  0  0  0  0  0  0  0  0  0  0  0
    1.9050   12.1550  -12.8930 C   0  0  0  0  0  0  0  0  0  0  0  0
    2.1640   11.0040  -13.5270 N   0  0  0  0  0  0  0  0  0  0  0  0
    3.4260   10.6680  -13.1720 C   0  0  0  0  0  3  0  0  0  0  0  0
    3.9300   11.5850  -12.3420 N   0  0  0  0  0  0  0  0  0  0  0  0
    3.0180   12.5370  -12.1350 C   0  0  0  0  0  0  0  0  0  0  0  0
    3.0030   13.6980  -11.3850 C   0  0  0  0  0  0  0  0  0  0  0  0
    1.8810   14.4220  -11.4230 N   0  0  0  0  0  0  0  0  0  0  0  0
   -0.3500   14.8880  -12.1440 N   0  0  0  0  0  0  0  0  0  0  0  0
   -0.6620   15.7770  -13.1920 C   0  0  0  0  0  0  0  0  0  0  0  0
    0.0760   15.8550  -14.1900 O   0  0  0  0  0  0  0  0  0  0  0  0
   -0.9790   14.8220  -11.2920 H   0  0  0  0  0  0  0  0  0  0  0  0
   -1.8690   16.6200  -13.1000 C   0  0  0  0  0  2  0  0  0  0  0  0
   -1.5900   17.9470  -12.7610 O   0  0  0  0  0  0  0  0  0  0  0  0
   -2.5340   18.6910  -12.0870 C   0  0  0  0  0  0  0  0  0  0  0  0
   -2.2660   19.1920  -10.8350 C   0  0  0  0  0  3  0  0  0  0  0  0
   -3.2180   19.9460  -10.1440 C   0  0  0  0  0  3  0  0  0  0  0  0
   -4.4430   20.1950  -10.7220 C   0  0  0  0  0  0  0  0  0  0  0  0
   -5.7500   21.2320   -9.7730 Br  0  0  0  0  0  0  0  0  0  0  0  0
   -4.7080   19.6900  -11.9780 C   0  0  0  0  0  3  0  0  0  0  0  0
   -3.7610   18.9480  -12.6460 C   0  0  0  0  0  3  0  0  0  0  0  0
    4.1340   14.0290  -10.6530 O   0  0  0  0  0  0  0  0  0  0  0  0
    4.0310   14.8230  -10.0120 H   0  0  0  0  0  0  0  0  0  0  0  0
    1.3750   10.2200  -14.3980 C   0  0  2  0  0  3  0  0  0  0  0  0
    0.0550   10.1030  -13.9440 O   0  0  0  0  0  0  0  0  0  0  0  0
    0.0580    8.8610  -13.3150 C   0  0  2  0  0  3  0  0  0  0  0  0
    0.6710    8.0030  -14.4110 C   0  0  1  0  0  3  0  0  0  0  0  0
    1.8700    8.8830  -14.7560 C   0  0  1  0  0  3  0  0  0  0  0  0
   -1.3220    8.4020  -12.9400 C   0  0  0  0  0  2  0  0  0  0  0  0
   -1.9000    7.5720  -13.8620 O   0  0  0  0  0  0  0  0  0  0  0  0
   -2.2640    6.7800  -13.3880 H   0  0  0  0  0  0  0  0  0  0  0  0
    1.0180    6.7480  -13.9960 O   0  0  0  0  0  0  0  0  0  0  0  0
    1.2900    6.1390  -14.7540 H   0  0  0  0  0  0  0  0  0  0  0  0
    2.1640    8.7750  -16.1340 O   0  0  0  0  0  0  0  0  0  0  0  0
    2.4280    7.8310  -16.2730 H   0  0  0  0  0  0  0  0  0  0  0  0
  1 10  1  0  0  0  0
  1  9  1  0  0  0  0
  2  3  1  0  0  0  0
  2  1  2  0  0  0  0
  3  7  2  0  0  0  0
  4  5  1  0  0  0  0
  4  3  1  0  0  0  0
  5  6  2  0  0  0  0
  6  7  1  0  0  0  0
  7  8  1  0  0  0  0
  8 23  1  0  0  0  0
  9  8  2  0  0  0  0
 10 13  1  0  0  0  0
 11 14  1  0  0  0  0
 11 10  1  0  0  0  0
 12 11  2  0  0  0  0
 14 15  1  0  0  0  0
 15 16  1  0  0  0  0
 16 17  1  0  0  0  0
 17 18  2  0  0  0  0
 19 18  1  0  0  0  0
 19 20  1  0  0  0  0
 21 19  2  0  0  0  0
 22 16  2  0  0  0  0
 22 21  1  0  0  0  0
 23 24  1  0  0  0  0
 25 26  1  0  0  0  0
 25  4  1  1  0  0  0
 26 27  1  0  0  0  0
 27 30  1  6  0  0  0
 28 33  1  1  0  0  0
 28 27  1  0  0  0  0
 29 35  1  6  0  0  0
 29 28  1  0  0  0  0
 29 25  1  0  0  0  0
 31 32  1  0  0  0  0
 31 30  1  0  0  0  0
 34 33  1  0  0  0  0
 36 35  1  0  0  0  0
M  END
>  <Pose>
1

>  <Score>
-8.968

$$$$
