/Users/jonathanwahrer/Desktop/Msc/3_Semester/Drug_Design_Praktikum/waehrer_HTS_screening/HTS_experiment/out/docking_results/vina_output/6q9y/0444_docked.pdbqt
 OpenBabel03222219243D

 33 36  0  0  1  0  0  0  0  0999 V2000
   -0.0470    7.8650  -13.6500 N   0  0  0  0  0  0  0  0  0  0  0  0
   -1.3120    7.4910  -13.9520 C   0  0  0  0  0  0  0  0  0  0  0  0
   -2.0940    8.6220  -14.0170 C   0  0  0  0  0  0  0  0  0  0  0  0
   -1.2800    9.6230  -13.7520 N   0  0  0  0  0  0  0  0  0  0  0  0
    0.0010    9.1990  -13.5150 C   0  0  0  0  0  0  0  0  0  0  0  0
   -3.4290    8.6110  -14.3000 N   0  0  0  0  0  0  0  0  0  0  0  0
   -3.9980    7.4250  -14.5250 C   0  0  0  0  0  0  0  0  0  0  0  0
   -5.2310    7.3960  -14.7890 O   0  0  0  0  0  0  0  0  0  0  0  0
   -3.2630    6.3070  -14.4670 N   0  0  0  0  0  0  0  0  0  0  0  0
   -1.9380    6.2870  -14.1890 C   0  0  0  0  0  0  0  0  0  0  0  0
   -1.2830    5.2360  -14.1400 O   0  0  0  0  0  0  0  0  0  0  0  0
   -4.1740    9.8690  -14.3560 C   0  0  0  0  0  1  0  0  0  0  0  0
   -3.7420    5.4010  -14.6470 H   0  0  0  0  0  0  0  0  0  0  0  0
    1.0970    6.9850  -13.5460 C   0  0  0  0  0  2  0  0  0  0  0  0
    1.1410    6.1240  -12.3180 C   0  0  1  0  0  3  0  0  0  0  0  0
    2.4080    5.3690  -12.0670 C   0  0  0  0  0  2  0  0  0  0  0  0
    3.4320    5.7090  -12.8210 O   0  0  0  0  0  0  0  0  0  0  0  0
    4.6970    5.8310  -13.1440 C   0  0  0  0  0  0  0  0  0  0  0  0
    5.6280    4.8130  -13.0880 C   0  0  0  0  0  3  0  0  0  0  0  0
    6.9470    5.0020  -13.4380 C   0  0  0  0  0  3  0  0  0  0  0  0
    7.3550    6.2400  -13.8580 C   0  0  0  0  0  0  0  0  0  0  0  0
    9.1750    6.4940  -14.3390 Br  0  0  0  0  0  0  0  0  0  0  0  0
    6.4460    7.2770  -13.9250 C   0  0  0  0  0  3  0  0  0  0  0  0
    5.1480    7.0960  -13.5820 C   0  0  0  0  0  3  0  0  0  0  0  0
    0.8440    6.8470  -11.1540 O   0  0  0  0  0  0  0  0  0  0  0  0
   -0.1000    7.2010  -11.2240 H   0  0  0  0  0  0  0  0  0  0  0  0
    1.0750   10.0800  -13.1330 N   0  0  0  0  0  0  0  0  0  0  0  0
    0.8330   11.4940  -13.4930 C   0  0  0  0  0  2  0  0  0  0  0  0
    1.7520   12.4570  -12.8590 C   0  0  0  0  0  2  0  0  0  0  0  0
    3.0900   11.9470  -12.6860 N   0  0  0  0  0  0  0  0  0  0  0  0
    2.9790   10.8430  -11.7870 C   0  0  0  0  0  2  0  0  0  0  0  0
    3.7370   11.6670  -13.9250 C   0  0  0  0  0  1  0  0  0  0  0  0
    2.2360    9.6700  -12.4250 C   0  0  0  0  0  2  0  0  0  0  0  0
  1 14  1  0  0  0  0
  1  5  1  0  0  0  0
  2  1  1  0  0  0  0
  3  2  2  0  0  0  0
  3  4  1  0  0  0  0
  4  5  2  0  0  0  0
  5 27  1  0  0  0  0
  6  3  1  0  0  0  0
  7  9  1  0  0  0  0
  7  6  1  0  0  0  0
  8  7  2  0  0  0  0
  9 10  1  0  0  0  0
 10 11  2  0  0  0  0
 10  2  1  0  0  0  0
 12  6  1  0  0  0  0
 13  9  1  0  0  0  0
 15 14  1  6  0  0  0
 15 16  1  0  0  0  0
 15 25  1  0  0  0  0
 17 16  1  0  0  0  0
 18 19  1  0  0  0  0
 18 17  1  0  0  0  0
 20 19  2  0  0  0  0
 21 20  1  0  0  0  0
 22 21  1  0  0  0  0
 23 21  2  0  0  0  0
 23 24  1  0  0  0  0
 24 18  2  0  0  0  0
 26 25  1  0  0  0  0
 27 33  1  0  0  0  0
 28 27  1  0  0  0  0
 28 29  1  0  0  0  0
 29 30  1  0  0  0  0
 30 31  1  0  0  0  0
 32 30  1  0  0  0  0
 33 31  1  0  0  0  0
M  END
>  <Pose>
1

>  <Score>
-8.272

$$$$
