/Users/jonathanwahrer/Desktop/Msc/3_Semester/Drug_Design_Praktikum/waehrer_HTS_screening/HTS_experiment/out/docking_results/vina_output/6q9y/0455_docked.pdbqt
 OpenBabel03222219253D

 26 29  0  0  0  0  0  0  0  0999 V2000
    2.3020   13.5310  -12.6240 N   0  0  0  0  0  0  0  0  0  0  0  0
    2.3870   13.6430  -11.1440 C   0  0  0  0  0  2  0  0  0  0  0  0
    1.6220   14.9290  -10.8490 C   0  0  0  0  0  2  0  0  0  0  0  0
    1.3360   15.7040  -12.0000 N   0  0  0  0  0  0  0  0  0  0  0  0
    2.4830   15.9010  -12.8480 C   0  0  0  0  0  2  0  0  0  0  0  0
    3.1990   14.6010  -13.0660 C   0  0  0  0  0  2  0  0  0  0  0  0
    2.8090   12.2370  -13.0370 C   0  0  0  0  0  2  0  0  0  0  0  0
    1.6880   11.2980  -13.2900 C   0  0  0  0  0  0  0  0  0  0  0  0
    1.9150    9.9350  -13.4680 C   0  0  0  0  0  0  0  0  0  0  0  0
    3.7280    9.3380  -13.4010 Br  0  0  0  0  0  0  0  0  0  0  0  0
    0.8940    9.0390  -13.6830 C   0  0  0  0  0  3  0  0  0  0  0  0
   -0.4140    9.4530  -13.7330 C   0  0  0  0  0  0  0  0  0  0  0  0
   -0.6720   10.7830  -13.5630 C   0  0  0  0  0  0  0  0  0  0  0  0
   -1.4730    8.5800  -13.9470 O   0  0  0  0  0  0  0  0  0  0  0  0
    0.3660   11.6880  -13.3460 C   0  0  0  0  0  3  0  0  0  0  0  0
   -1.9860   11.2210  -13.6100 O   0  0  0  0  0  0  0  0  0  0  0  0
   -3.0510   10.4360  -14.0800 C   0  0  0  0  0  2  0  0  0  0  0  0
   -2.8130    8.9820  -13.8230 C   0  0  0  0  0  2  0  0  0  0  0  0
    0.1070   15.4830  -12.6630 C   0  0  0  0  0  2  0  0  0  0  0  0
   -0.8080   16.6080  -12.7220 C   0  0  0  0  0  0  0  0  0  0  0  0
   -1.3700   16.9270  -13.7910 O   0  0  0  0  0  0  0  0  0  0  0  0
   -1.0910   17.3760  -11.5700 N   0  0  0  0  0  0  0  0  0  0  0  0
   -0.6560   17.1670  -10.6250 H   0  0  0  0  0  0  0  0  0  0  0  0
   -2.0040   18.5130  -11.5910 C   0  0  0  0  0  3  0  0  0  0  0  0
   -2.2230   19.3200  -10.3800 C   0  0  0  0  0  2  0  0  0  0  0  0
   -3.2750   18.3260  -10.7680 C   0  0  0  0  0  2  0  0  0  0  0  0
  1  2  1  0  0  0  0
  2  3  1  0  0  0  0
  4  3  1  0  0  0  0
  5  4  1  0  0  0  0
  6  5  1  0  0  0  0
  6  1  1  0  0  0  0
  7  1  1  0  0  0  0
  8  7  1  0  0  0  0
  9 10  1  0  0  0  0
  9  8  2  0  0  0  0
 11  9  1  0  0  0  0
 12 11  2  0  0  0  0
 12 13  1  0  0  0  0
 13 15  2  0  0  0  0
 14 18  1  0  0  0  0
 14 12  1  0  0  0  0
 15  8  1  0  0  0  0
 16 13  1  0  0  0  0
 17 18  1  0  0  0  0
 17 16  1  0  0  0  0
 19  4  1  0  0  0  0
 20 19  1  0  0  0  0
 20 22  1  0  0  0  0
 21 20  2  0  0  0  0
 22 23  1  0  0  0  0
 24 22  1  0  0  0  0
 24 26  1  0  0  0  0
 24 25  1  0  0  0  0
 26 25  1  0  0  0  0
M  END
>  <Pose>
1

>  <Score>
-7.815

$$$$
