/Users/jonathanwahrer/Desktop/Msc/3_Semester/Drug_Design_Praktikum/waehrer_HTS_screening/HTS_experiment/out/docking_results/vina_output/6q9y/0467_docked.pdbqt
 OpenBabel03222219253D

 28 31  0  0  1  0  0  0  0  0999 V2000
   -0.4190   13.6800  -13.0600 C   0  0  1  0  0  3  0  0  0  0  0  0
   -1.0430   14.8680  -13.0190 N   0  0  0  0  0  0  0  0  0  0  0  0
   -0.4900   15.9700  -12.4430 C   0  0  0  0  0  0  0  0  0  0  0  0
    0.7220   15.8030  -11.9160 N   0  0  0  0  0  0  0  0  0  0  0  0
    1.3930   14.6540  -11.9240 C   0  0  0  0  0  0  0  0  0  0  0  0
    0.7930   13.5790  -12.5160 N   0  0  0  0  0  0  0  0  0  0  0  0
   -1.1290   12.6170  -13.6610 N   0  0  0  0  0  0  0  0  0  0  0  0
   -1.9870   12.8370  -14.2120 H   0  0  0  0  0  0  0  0  0  0  0  0
   -0.7360   11.2990  -13.5470 N   0  0  0  0  0  0  0  0  0  0  0  0
   -1.4580   10.2600  -13.5600 C   0  0  0  0  0  3  0  0  0  0  0  0
   -0.8900    8.9340  -13.4270 C   0  0  0  0  0  0  0  0  0  0  0  0
   -1.5820    7.8040  -13.8010 C   0  0  0  0  0  0  0  0  0  0  0  0
   -3.3270    7.9800  -14.5180 Br  0  0  0  0  0  0  0  0  0  0  0  0
   -1.0140    6.5520  -13.6560 C   0  0  0  0  0  3  0  0  0  0  0  0
    0.2670    6.3720  -13.1310 C   0  0  0  0  0  0  0  0  0  0  0  0
    0.9750    7.5100  -12.7500 C   0  0  0  0  0  0  0  0  0  0  0  0
    1.0690    5.2710  -12.8750 O   0  0  0  0  0  0  0  0  0  0  0  0
    0.3880    8.7480  -12.9040 C   0  0  0  0  0  3  0  0  0  0  0  0
    2.1890    7.0710  -12.2720 O   0  0  0  0  0  0  0  0  0  0  0  0
    2.2150    5.6620  -12.1650 C   0  0  0  0  0  2  0  0  0  0  0  0
   -1.2030   17.1700  -12.4520 N   0  0  0  0  0  0  0  0  0  0  0  0
   -2.1490   17.4750  -13.4990 C   0  0  0  0  0  2  0  0  0  0  0  0
   -3.0700   18.6060  -13.0910 C   0  0  0  0  0  2  0  0  0  0  0  0
   -3.3880   18.6610  -11.7740 O   0  0  0  0  0  0  0  0  0  0  0  0
   -2.4410   18.3570  -10.8460 C   0  0  0  0  0  2  0  0  0  0  0  0
   -1.0370   18.1470  -11.4060 C   0  0  0  0  0  2  0  0  0  0  0  0
    2.6530   14.5140  -11.3680 O   0  0  0  0  0  0  0  0  0  0  0  0
    3.3390   13.2930  -11.4480 C   0  0  0  0  0  1  0  0  0  0  0  0
  1  7  1  1  0  0  0
  1  2  1  0  0  0  0
  1  6  1  0  0  0  0
  2  3  2  0  0  0  0
  3  4  1  0  0  0  0
  5  4  2  0  0  0  0
  5 27  1  0  0  0  0
  6  5  2  0  0  0  0
  7  9  1  0  0  0  0
  8  7  1  0  0  0  0
 10  9  2  0  0  0  0
 10 11  1  0  0  0  0
 11 18  1  0  0  0  0
 12 14  1  0  0  0  0
 12 11  2  0  0  0  0
 13 12  1  0  0  0  0
 14 15  2  0  0  0  0
 15 17  1  0  0  0  0
 15 16  1  0  0  0  0
 16 19  1  0  0  0  0
 17 20  1  0  0  0  0
 18 16  2  0  0  0  0
 19 20  1  0  0  0  0
 21  3  1  0  0  0  0
 21 26  1  0  0  0  0
 22 23  1  0  0  0  0
 22 21  1  0  0  0  0
 23 24  1  0  0  0  0
 24 25  1  0  0  0  0
 26 25  1  0  0  0  0
 28 27  1  0  0  0  0
M  END
>  <Pose>
1

>  <Score>
-8.401

$$$$
