/Users/jonathanwahrer/Desktop/Msc/3_Semester/Drug_Design_Praktikum/waehrer_HTS_screening/HTS_experiment/out/docking_results/vina_output/6q9y/0469_docked.pdbqt
 OpenBabel03222219253D

 32 36  0  0  0  0  0  0  0  0999 V2000
    1.8680    6.2400  -12.5050 N   0  0  0  0  0  0  0  0  0  0  0  0
    1.0920    6.6750  -11.4430 C   0  0  0  0  0  2  0  0  0  0  0  0
   -0.0090    7.6400  -11.6570 C   0  0  0  0  0  2  0  0  0  0  0  0
    0.1890    8.3010  -12.9150 N   0  0  0  0  0  0  0  0  0  0  0  0
    0.3280    7.4050  -14.0350 C   0  0  0  0  0  2  0  0  0  0  0  0
    1.6200    6.6590  -13.8300 C   0  0  0  0  0  2  0  0  0  0  0  0
    2.4110    4.9070  -12.3930 C   0  0  0  0  0  2  0  0  0  0  0  0
    3.8220    4.8350  -12.9310 C   0  0  0  0  0  0  0  0  0  0  0  0
    4.6670    5.9380  -12.6890 N   0  0  0  0  0  0  0  0  0  0  0  0
    4.2580    6.7560  -12.1380 H   0  0  0  0  0  0  0  0  0  0  0  0
    4.1340    3.8050  -13.5510 O   0  0  0  0  0  0  0  0  0  0  0  0
    6.0130    6.0490  -13.1160 C   0  0  0  0  0  0  0  0  0  0  0  0
    6.3380    7.0920  -13.9950 C   0  0  0  0  0  0  0  0  0  0  0  0
    4.9620    8.2760  -14.5480 Br  0  0  0  0  0  0  0  0  0  0  0  0
    7.6330    7.2330  -14.4350 C   0  0  0  0  0  3  0  0  0  0  0  0
    8.6270    6.3910  -14.0450 C   0  0  0  0  0  0  0  0  0  0  0  0
    8.3380    5.3570  -13.1810 C   0  0  0  0  0  0  0  0  0  0  0  0
    9.9460    6.4950  -14.4640 O   0  0  0  0  0  0  0  0  0  0  0  0
    7.0270    5.1940  -12.7210 C   0  0  0  0  0  3  0  0  0  0  0  0
    9.3570    4.5200  -12.8020 O   0  0  0  0  0  0  0  0  0  0  0  0
   10.5280    4.3090  -13.5510 C   0  0  0  0  0  2  0  0  0  0  0  0
   10.7060    5.2950  -14.6610 C   0  0  0  0  0  2  0  0  0  0  0  0
    0.2580    9.6880  -13.1300 C   0  0  0  0  0  0  0  0  0  0  0  0
   -0.7830   10.4360  -13.5770 N   0  0  0  0  0  0  0  0  0  0  0  0
   -0.6870   11.7630  -13.7730 C   0  0  0  0  0  3  0  0  0  0  0  0
    0.4610   12.4190  -13.5290 N   0  0  0  0  0  0  0  0  0  0  0  0
    1.5480   11.7570  -13.0820 C   0  0  0  0  0  0  0  0  0  0  0  0
    2.8070   12.1490  -12.7600 N   0  0  0  0  0  0  0  0  0  0  0  0
    1.4340   10.4040  -12.8880 C   0  0  0  0  0  0  0  0  0  0  0  0
    3.4460   11.0580  -12.3790 N   0  0  0  0  0  0  0  0  0  0  0  0
    3.3230   13.5170  -12.8330 C   0  0  0  0  0  1  0  0  0  0  0  0
    2.6640    9.9780  -12.4380 C   0  0  0  0  0  3  0  0  0  0  0  0
  1  7  1  0  0  0  0
  1  2  1  0  0  0  0
  3  2  1  0  0  0  0
  4  3  1  0  0  0  0
  5  6  1  0  0  0  0
  5  4  1  0  0  0  0
  6  1  1  0  0  0  0
  8  9  1  0  0  0  0
  8  7  1  0  0  0  0
  9 10  1  0  0  0  0
 11  8  2  0  0  0  0
 12 19  1  0  0  0  0
 12  9  1  0  0  0  0
 13 12  2  0  0  0  0
 14 13  1  0  0  0  0
 15 16  2  0  0  0  0
 15 13  1  0  0  0  0
 16 17  1  0  0  0  0
 17 20  1  0  0  0  0
 17 19  2  0  0  0  0
 18 16  1  0  0  0  0
 21 20  1  0  0  0  0
 22 18  1  0  0  0  0
 22 21  1  0  0  0  0
 23  4  1  0  0  0  0
 23 29  1  0  0  0  0
 24 23  2  0  0  0  0
 25 24  1  0  0  0  0
 25 26  2  0  0  0  0
 26 27  1  0  0  0  0
 27 29  2  0  0  0  0
 27 28  1  0  0  0  0
 28 30  1  0  0  0  0
 29 32  1  0  0  0  0
 31 28  1  0  0  0  0
 32 30  2  0  0  0  0
M  END
>  <Pose>
1

>  <Score>
-7.973

$$$$
