/Users/jonathanwahrer/Desktop/Msc/3_Semester/Drug_Design_Praktikum/waehrer_HTS_screening/HTS_experiment/out/docking_results/vina_output/6q9y/0473_docked.pdbqt
 OpenBabel03222219263D

 29 32  0  0  0  0  0  0  0  0999 V2000
   -0.1970   14.3870  -12.7990 C   0  0  0  0  0  2  0  0  0  0  0  0
   -0.1070   15.8870  -12.8180 C   0  0  0  0  0  2  0  0  0  0  0  0
   -1.2470   16.4510  -13.5810 C   0  0  0  0  0  2  0  0  0  0  0  0
   -2.0290   17.4090  -12.8330 N   0  0  0  0  0  0  0  0  0  0  0  0
   -1.5550   18.0470  -11.6560 C   0  0  0  0  0  0  0  0  0  0  0  0
   -2.5950   18.9380  -11.1720 C   0  0  0  0  0  0  0  0  0  0  0  0
   -0.4270   17.8990  -11.0850 O   0  0  0  0  0  0  0  0  0  0  0  0
   -3.6610   18.8310  -12.0440 C   0  0  0  0  0  0  0  0  0  0  0  0
   -2.6600   19.7850  -10.0840 C   0  0  0  0  0  3  0  0  0  0  0  0
   -4.7830   19.5960  -11.7830 C   0  0  0  0  0  3  0  0  0  0  0  0
   -3.3300   17.8680  -13.1050 C   0  0  0  0  0  0  0  0  0  0  0  0
   -4.8370   20.4390  -10.6920 C   0  0  0  0  0  0  0  0  0  0  0  0
   -6.4170   21.4660  -10.3960 Br  0  0  0  0  0  0  0  0  0  0  0  0
   -3.7760   20.5520   -9.8180 C   0  0  0  0  0  3  0  0  0  0  0  0
   -4.0870   17.5400  -14.0600 O   0  0  0  0  0  0  0  0  0  0  0  0
    1.0180   13.7090  -12.2920 C   0  0  0  0  0  0  0  0  0  0  0  0
    1.6110   14.0420  -11.2330 O   0  0  0  0  0  0  0  0  0  0  0  0
    1.5900   12.5990  -13.0120 N   0  0  0  0  0  0  0  0  0  0  0  0
    2.7740   11.9300  -12.5240 C   0  0  0  0  0  2  0  0  0  0  0  0
    1.0150   12.1050  -14.2490 C   0  0  0  0  0  2  0  0  0  0  0  0
    2.6920   10.4420  -12.6030 C   0  0  0  0  0  2  0  0  0  0  0  0
    1.4570    9.9420  -13.1590 N   0  0  0  0  0  0  0  0  0  0  0  0
    0.6490   10.6460  -14.1190 C   0  0  0  0  0  2  0  0  0  0  0  0
    1.0050    8.6560  -12.7260 C   0  0  0  0  0  0  0  0  0  0  0  0
    0.1370    7.9170  -13.4690 N   0  0  0  0  0  0  0  0  0  0  0  0
   -0.3080    6.7170  -13.1020 C   0  0  0  0  0  3  0  0  0  0  0  0
    0.1290    6.1800  -11.9000 C   0  0  0  0  0  3  0  0  0  0  0  0
    0.9940    6.8890  -11.1350 N   0  0  0  0  0  0  0  0  0  0  0  0
    1.4210    8.0970  -11.5390 C   0  0  0  0  0  3  0  0  0  0  0  0
  1 16  1  0  0  0  0
  2  1  1  0  0  0  0
  3  4  1  0  0  0  0
  3  2  1  0  0  0  0
  4  5  1  0  0  0  0
  5  6  1  0  0  0  0
  5  7  2  0  0  0  0
  6  9  1  0  0  0  0
  8 10  1  0  0  0  0
  8  6  2  0  0  0  0
  9 14  2  0  0  0  0
 10 12  2  0  0  0  0
 11  4  1  0  0  0  0
 11  8  1  0  0  0  0
 12 13  1  0  0  0  0
 12 14  1  0  0  0  0
 15 11  2  0  0  0  0
 16 17  2  0  0  0  0
 18 19  1  0  0  0  0
 18 16  1  0  0  0  0
 20 23  1  0  0  0  0
 20 18  1  0  0  0  0
 21 19  1  0  0  0  0
 22 24  1  0  0  0  0
 22 21  1  0  0  0  0
 23 22  1  0  0  0  0
 24 29  1  0  0  0  0
 25 26  1  0  0  0  0
 25 24  2  0  0  0  0
 26 27  2  0  0  0  0
 27 28  1  0  0  0  0
 29 28  2  0  0  0  0
M  END
>  <Pose>
1

>  <Score>
-10.188

$$$$
