/Users/jonathanwahrer/Desktop/Msc/3_Semester/Drug_Design_Praktikum/waehrer_HTS_screening/HTS_experiment/out/docking_results/vina_output/6q9y/0483_docked.pdbqt
 OpenBabel03222219263D

 31 34  0  0  0  0  0  0  0  0999 V2000
    3.8890   10.2510  -12.8150 C   0  0  0  0  0  2  0  0  0  0  0  0
    3.8770    9.4550  -14.0320 C   0  0  0  0  0  0  0  0  0  0  0  0
    3.8830    8.7970  -15.0400 C   0  0  0  0  0  3  0  0  0  0  0  0
    2.7720   11.1740  -12.8010 N   0  0  0  0  0  0  0  0  0  0  0  0
    1.3990   10.9430  -13.0960 C   0  0  0  0  0  0  0  0  0  0  0  0
    0.6630   12.1260  -12.9560 C   0  0  0  0  0  0  0  0  0  0  0  0
    0.7290    9.7900  -13.4760 C   0  0  0  0  0  3  0  0  0  0  0  0
   -0.6940   12.1040  -13.2000 C   0  0  0  0  0  3  0  0  0  0  0  0
    1.5680   13.1920  -12.5530 C   0  0  0  0  0  0  0  0  0  0  0  0
   -1.3600   10.9340  -13.5840 C   0  0  0  0  0  0  0  0  0  0  0  0
   -3.2310   10.9120  -13.9190 Br  0  0  0  0  0  0  0  0  0  0  0  0
   -0.6250    9.7890  -13.7160 C   0  0  0  0  0  3  0  0  0  0  0  0
    2.8970   12.5480  -12.4670 C   0  0  0  0  0  0  0  0  0  0  0  0
    1.2890   14.4280  -12.3210 N   0  0  0  0  0  0  0  0  0  0  0  0
    3.9180   13.2100  -12.1350 O   0  0  0  0  0  0  0  0  0  0  0  0
   -0.0090   14.9330  -12.4350 N   0  0  0  0  0  0  0  0  0  0  0  0
   -0.3810   15.8580  -13.4410 C   0  0  0  0  0  0  0  0  0  0  0  0
    0.4800   16.2430  -14.2640 O   0  0  0  0  0  0  0  0  0  0  0  0
   -0.7200   14.6190  -11.7450 H   0  0  0  0  0  0  0  0  0  0  0  0
   -1.7490   16.3530  -13.5140 C   0  0  0  0  0  2  0  0  0  0  0  0
   -2.0340   17.3820  -12.5320 N   0  0  0  0  0  0  0  0  0  0  0  0
   -1.2190   17.8460  -11.6010 N   0  0  0  0  0  2  0  0  0  0  0  0
   -1.8220   18.7820  -10.8870 N   0  0  0  0  0  0  0  0  0  0  0  0
   -3.0690   18.9310  -11.3660 C   0  0  0  0  0  0  0  0  0  0  0  0
   -3.1640   18.0570  -12.3760 N   0  0  0  0  0  2  0  0  0  0  0  0
   -4.0670   19.8660  -10.8560 C   0  0  0  0  0  0  0  0  0  0  0  0
   -3.7980   20.6200   -9.7340 C   0  0  0  0  0  3  0  0  0  0  0  0
   -4.7510   21.5150   -9.2430 C   0  0  0  0  0  3  0  0  0  0  0  0
   -5.9740   21.6740   -9.8530 C   0  0  0  0  0  3  0  0  0  0  0  0
   -6.2460   20.9190  -10.9810 C   0  0  0  0  0  3  0  0  0  0  0  0
   -5.2940   20.0310  -11.4620 C   0  0  0  0  0  3  0  0  0  0  0  0
  1  4  1  0  0  0  0
  2  1  1  0  0  0  0
  3  2  3  0  0  0  0
  4 13  1  0  0  0  0
  5  6  1  0  0  0  0
  5  4  1  0  0  0  0
  6  9  1  0  0  0  0
  7  5  2  0  0  0  0
  8  6  2  0  0  0  0
  9 13  1  0  0  0  0
  9 14  2  0  0  0  0
 10  8  1  0  0  0  0
 11 10  1  0  0  0  0
 12 10  2  0  0  0  0
 12  7  1  0  0  0  0
 13 15  2  0  0  0  0
 16 14  1  0  0  0  0
 16 19  1  0  0  0  0
 17 16  1  0  0  0  0
 18 17  2  0  0  0  0
 20 17  1  0  0  0  0
 20 21  1  0  0  0  0
 21 25  1  0  0  0  0
 21 22  1  0  0  0  0
 22 23  1  0  0  0  0
 24 23  2  0  0  0  0
 24 26  1  0  0  0  0
 25 24  1  0  0  0  0
 26 27  1  0  0  0  0
 27 28  2  0  0  0  0
 29 28  1  0  0  0  0
 30 29  2  0  0  0  0
 31 30  1  0  0  0  0
 31 26  2  0  0  0  0
M  END
>  <Pose>
1

>  <Score>
-10.783

$$$$
