/Users/jonathanwahrer/Desktop/Msc/3_Semester/Drug_Design_Praktikum/waehrer_HTS_screening/HTS_experiment/out/docking_results/vina_output/6q9y/0484_docked.pdbqt
 OpenBabel03222219273D

 35 38  0  0  1  0  0  0  0  0999 V2000
   -5.5020    9.4970  -13.7820 Br  0  0  0  0  0  0  0  0  0  0  0  0
   -3.5930    9.5300  -13.8140 C   0  0  0  0  0  0  0  0  0  0  0  0
   -2.8710   10.6690  -13.4270 C   0  0  0  0  0  3  0  0  0  0  0  0
   -1.5100   10.5740  -13.4820 C   0  0  0  0  0  0  0  0  0  0  0  0
   -0.8270    9.4480  -13.8900 C   0  0  0  0  0  0  0  0  0  0  0  0
   -1.5380    8.3340  -14.2740 C   0  0  0  0  0  3  0  0  0  0  0  0
   -2.9390    8.3890  -14.2260 C   0  0  0  0  0  3  0  0  0  0  0  0
    0.5820    9.6350  -13.8450 N   0  0  0  0  0  0  0  0  0  0  0  0
    0.7910   10.9940  -13.3790 C   0  0  0  0  0  0  0  0  0  0  0  0
    1.9050   11.5270  -13.1950 O   0  0  0  0  0  0  0  0  0  0  0  0
   -0.5230   11.5620  -13.1730 C   0  0  1  0  0  3  0  0  0  0  0  0
   -0.8340   12.7740  -12.9210 N   0  0  0  0  0  2  0  0  0  0  0  0
   -0.4860   13.8860  -12.8640 N   0  0  0  0  0  0  0  0  0  0  0  0
   -0.0470   15.2270  -12.7860 C   0  0  0  0  0  0  0  0  0  0  0  0
    0.7010   13.5530  -12.2260 H   0  0  0  0  0  0  0  0  0  0  0  0
    0.9920   15.7290  -12.4190 O   0  0  0  0  0  0  0  0  0  0  0  0
   -1.1800   16.1610  -13.2700 C   0  0  0  0  0  2  0  0  0  0  0  0
   -1.0120   17.3520  -12.4710 O   0  0  0  0  0  0  0  0  0  0  0  0
   -2.2200   18.0580  -12.2060 N   0  0  0  0  0  0  0  0  0  0  0  0
   -2.3120   18.8800  -11.2350 C   0  0  0  0  0  3  0  0  0  0  0  0
   -3.5540   19.5720  -10.9770 C   0  0  0  0  0  0  0  0  0  0  0  0
   -4.6510   19.5420  -11.7710 C   0  0  0  0  0  3  0  0  0  0  0  0
   -5.7430   20.3550  -11.3730 C   0  0  0  0  0  3  0  0  0  0  0  0
   -5.8090   21.1350  -10.2960 C   0  0  0  0  0  0  0  0  0  0  0  0
   -4.6910   21.1280   -9.5340 C   0  0  0  0  0  3  0  0  0  0  0  0
   -3.5600   20.4380   -9.7500 C   0  0  0  0  0  3  0  0  0  0  0  0
   -6.9600   21.8830  -10.0200 O   0  0  0  0  0  0  0  0  0  0  0  0
   -7.0820   22.6010   -8.7980 C   0  0  0  0  0  1  0  0  0  0  0  0
    1.6940    8.7400  -14.1160 C   0  0  0  0  0  2  0  0  0  0  0  0
    2.1190    8.0810  -12.9810 N   0  0  0  0  0  0  0  0  0  0  0  0
    1.4450    8.5080  -11.8220 C   0  0  0  0  0  2  0  0  0  0  0  0
    1.0430    7.2920  -10.9850 C   0  0  0  0  0  2  0  0  0  0  0  0
    0.3620    6.4660  -11.9210 O   0  0  0  0  0  0  0  0  0  0  0  0
    1.3050    5.8390  -12.7470 C   0  0  0  0  0  2  0  0  0  0  0  0
    2.4580    6.7220  -13.1140 C   0  0  0  0  0  2  0  0  0  0  0  0
  2  1  1  0  0  0  0
  2  3  1  0  0  0  0
  4  3  2  0  0  0  0
  4 11  1  0  0  0  0
  5  8  1  0  0  0  0
  5  4  1  0  0  0  0
  6  7  1  0  0  0  0
  6  5  2  0  0  0  0
  7  2  2  0  0  0  0
  8  9  1  0  0  0  0
  9 10  2  0  0  0  0
  9 11  1  0  0  0  0
 11 12  1  6  0  0  0
 12 13  1  0  0  0  0
 13 14  1  0  0  0  0
 13 15  1  0  0  0  0
 14 16  2  0  0  0  0
 17 14  1  0  0  0  0
 17 18  1  0  0  0  0
 18 19  1  0  0  0  0
 19 20  2  0  0  0  0
 20 21  1  0  0  0  0
 21 26  1  0  0  0  0
 22 23  1  0  0  0  0
 22 21  2  0  0  0  0
 23 24  2  0  0  0  0
 24 27  1  0  0  0  0
 24 25  1  0  0  0  0
 26 25  2  0  0  0  0
 27 28  1  0  0  0  0
 29  8  1  0  0  0  0
 29 30  1  0  0  0  0
 30 31  1  0  0  0  0
 31 32  1  0  0  0  0
 33 32  1  0  0  0  0
 34 33  1  0  0  0  0
 35 30  1  0  0  0  0
 35 34  1  0  0  0  0
M  END
>  <Pose>
1

>  <Score>
-10.692

$$$$
