/Users/jonathanwahrer/Desktop/Msc/3_Semester/Drug_Design_Praktikum/waehrer_HTS_screening/HTS_experiment/out/docking_results/vina_output/6q9y/0485_docked.pdbqt
 OpenBabel03222219273D

 34 37  0  0  0  0  0  0  0  0999 V2000
   -3.3090   10.2580  -13.8010 Br  0  0  0  0  0  0  0  0  0  0  0  0
   -1.4270   10.6180  -13.6430 C   0  0  0  0  0  0  0  0  0  0  0  0
   -0.5040    9.6000  -13.5740 C   0  0  0  0  0  3  0  0  0  0  0  0
    0.8660    9.8100  -13.4580 C   0  0  0  0  0  0  0  0  0  0  0  0
    1.3290   11.1280  -13.4090 C   0  0  0  0  0  0  0  0  0  0  0  0
    0.4030   12.1490  -13.4780 C   0  0  0  0  0  3  0  0  0  0  0  0
   -0.9640   11.9160  -13.5940 C   0  0  0  0  0  3  0  0  0  0  0  0
    2.7580   11.1410  -13.2920 N   0  0  0  0  0  0  0  0  0  0  0  0
    3.1780    9.7830  -13.2690 C   0  0  0  0  0  0  0  0  0  0  0  0
    4.3630    9.3930  -13.1750 O   0  0  0  0  0  0  0  0  0  0  0  0
    2.0130    8.9250  -13.3720 C   0  0  0  0  0  0  0  0  0  0  0  0
    1.9900    7.6400  -13.3850 N   0  0  0  0  0  0  0  0  0  0  0  0
    3.1350    6.8580  -13.2970 N   0  0  0  0  0  0  0  0  0  0  0  0
    3.0680    5.5800  -12.7030 C   0  0  0  0  0  0  0  0  0  0  0  0
    1.9710    5.1150  -12.2380 O   0  0  0  0  0  0  0  0  0  0  0  0
    4.0260    7.2180  -13.6670 H   0  0  0  0  0  0  0  0  0  0  0  0
    4.2400    4.6790  -12.5690 C   0  0  0  0  0  2  0  0  0  0  0  0
    5.2040    4.9740  -13.5790 O   0  0  0  0  0  0  0  0  0  0  0  0
    6.4550    5.4480  -13.2220 C   0  0  0  0  0  0  0  0  0  0  0  0
    7.4530    4.5680  -12.8640 C   0  0  0  0  0  0  0  0  0  0  0  0
    8.7080    5.0520  -12.5060 C   0  0  0  0  0  3  0  0  0  0  0  0
    8.9610    6.4100  -12.5060 C   0  0  0  0  0  3  0  0  0  0  0  0
    7.9640    7.2680  -12.8620 C   0  0  0  0  0  3  0  0  0  0  0  0
    6.7150    6.7850  -13.2180 C   0  0  0  0  0  3  0  0  0  0  0  0
    7.2340    3.2140  -12.8540 O   0  0  0  0  0  0  0  0  0  0  0  0
    7.6800    2.4090  -13.9160 C   0  0  0  0  0  1  0  0  0  0  0  0
    3.5750   12.3410  -13.2180 C   0  0  0  0  0  2  0  0  0  0  0  0
    2.9240   13.4740  -12.6660 N   0  0  0  0  0  0  0  0  0  0  0  0
    2.7130   13.4480  -11.2590 C   0  0  0  0  0  2  0  0  0  0  0  0
    1.9360   14.6740  -10.7720 C   0  0  0  0  0  2  0  0  0  0  0  0
    1.3950   15.3120  -11.9380 N   0  0  0  0  0  0  0  0  0  0  0  0
    2.4000   15.8660  -12.7920 C   0  0  0  0  0  2  0  0  0  0  0  0
    0.2960   16.1920  -11.6630 C   0  0  0  0  0  1  0  0  0  0  0  0
    3.3440   14.7430  -13.1860 C   0  0  0  0  0  2  0  0  0  0  0  0
  1  2  1  0  0  0  0
  2  7  2  0  0  0  0
  2  3  1  0  0  0  0
  3  4  2  0  0  0  0
  4  5  1  0  0  0  0
  4 11  1  0  0  0  0
  5  8  1  0  0  0  0
  6  5  2  0  0  0  0
  7  6  1  0  0  0  0
  8  9  1  0  0  0  0
  8 27  1  0  0  0  0
  9 10  2  0  0  0  0
 11  9  1  0  0  0  0
 12 11  2  0  0  0  0
 12 13  1  0  0  0  0
 13 14  1  0  0  0  0
 14 17  1  0  0  0  0
 14 15  2  0  0  0  0
 16 13  1  0  0  0  0
 18 19  1  0  0  0  0
 18 17  1  0  0  0  0
 19 24  2  0  0  0  0
 19 20  1  0  0  0  0
 20 25  1  0  0  0  0
 20 21  2  0  0  0  0
 22 21  1  0  0  0  0
 23 22  2  0  0  0  0
 24 23  1  0  0  0  0
 26 25  1  0  0  0  0
 27 28  1  0  0  0  0
 28 29  1  0  0  0  0
 29 30  1  0  0  0  0
 31 33  1  0  0  0  0
 31 30  1  0  0  0  0
 32 31  1  0  0  0  0
 34 32  1  0  0  0  0
 34 28  1  0  0  0  0
M  END
>  <Pose>
1

>  <Score>
-8.508

$$$$
