/Users/jonathanwahrer/Desktop/Msc/3_Semester/Drug_Design_Praktikum/waehrer_HTS_screening/HTS_experiment/out/docking_results/vina_output/6q9y/0513_docked.pdbqt
 OpenBabel03222219283D

 33 36  0  0  0  0  0  0  0  0999 V2000
   -0.7690   14.5970  -12.4940 N   0  0  0  0  0  0  0  0  0  0  0  0
   -0.6410   15.8700  -13.1140 C   0  0  0  0  0  0  0  0  0  0  0  0
   -0.3950   15.8850  -14.3300 O   0  0  0  0  0  0  0  0  0  0  0  0
   -0.9620   14.5860  -11.4690 H   0  0  0  0  0  0  0  0  0  0  0  0
   -0.6480   13.3980  -13.1720 N   0  0  0  0  0  0  0  0  0  0  0  0
   -1.4670   13.0240  -13.7240 H   0  0  0  0  0  0  0  0  0  0  0  0
    0.5140   12.6140  -13.1880 C   0  0  0  0  0  3  0  0  0  0  0  0
    0.5460   11.3070  -13.3360 C   0  0  0  0  0  0  0  0  0  0  0  0
   -0.5650   10.3670  -13.5160 C   0  0  0  0  0  0  0  0  0  0  0  0
    1.7560   10.4690  -13.3540 C   0  0  0  0  0  0  0  0  0  0  0  0
   -1.9300   10.5390  -13.5880 C   0  0  0  0  0  3  0  0  0  0  0  0
   -0.0940    9.0800  -13.6340 C   0  0  0  0  0  0  0  0  0  0  0  0
   -2.8230    9.4830  -13.7720 C   0  0  0  0  0  0  0  0  0  0  0  0
   -4.7070    9.8090  -13.8650 Br  0  0  0  0  0  0  0  0  0  0  0  0
   -2.3140    8.2150  -13.8840 C   0  0  0  0  0  3  0  0  0  0  0  0
   -0.9620    7.9950  -13.8190 C   0  0  0  0  0  3  0  0  0  0  0  0
    1.3230    9.1330  -13.5360 N   0  0  0  0  0  0  0  0  0  0  0  0
    1.9680    8.3100  -13.5880 H   0  0  0  0  0  0  0  0  0  0  0  0
    2.9260   10.9030  -13.2260 O   0  0  0  0  0  0  0  0  0  0  0  0
   -0.7900   17.1470  -12.3810 C   0  0  0  0  0  2  0  0  0  0  0  0
   -2.0380   17.7240  -12.5680 N   0  0  0  0  0  0  0  0  0  0  0  0
   -2.7560   18.5610  -11.8210 C   0  0  0  0  0  0  0  0  0  0  0  0
   -3.9770   18.7830  -12.4440 C   0  0  0  0  0  0  0  0  0  0  0  0
   -2.4400   19.1580  -10.6540 N   0  0  0  0  0  0  0  0  0  0  0  0
   -3.9690   18.0600  -13.5790 N   0  0  0  0  0  0  0  0  0  0  0  0
   -4.9020   19.6300  -11.8670 C   0  0  0  0  0  0  0  0  0  0  0  0
   -2.8180   17.4310  -13.6560 C   0  0  0  0  0  3  0  0  0  0  0  0
   -6.0010   19.8100  -12.4530 O   0  0  0  0  0  0  0  0  0  0  0  0
   -4.5740   20.2050  -10.7200 N   0  0  0  0  0  0  0  0  0  0  0  0
   -3.3870   19.9840  -10.1270 C   0  0  0  0  0  0  0  0  0  0  0  0
   -5.5250   21.1150  -10.0600 C   0  0  0  0  0  1  0  0  0  0  0  0
   -3.1160   20.5500   -9.0410 O   0  0  0  0  0  0  0  0  0  0  0  0
   -1.1680   18.9720  -10.0150 C   0  0  0  0  0  1  0  0  0  0  0  0
  1  4  1  0  0  0  0
  2  1  1  0  0  0  0
  2 20  1  0  0  0  0
  3  2  2  0  0  0  0
  5  1  1  0  0  0  0
  6  5  1  0  0  0  0
  7  5  1  0  0  0  0
  8  7  2  0  0  0  0
  9  8  1  0  0  0  0
 10  8  1  0  0  0  0
 10 19  2  0  0  0  0
 11  9  1  0  0  0  0
 12 17  1  0  0  0  0
 12  9  2  0  0  0  0
 13 11  2  0  0  0  0
 14 13  1  0  0  0  0
 15 16  2  0  0  0  0
 15 13  1  0  0  0  0
 16 12  1  0  0  0  0
 17 10  1  0  0  0  0
 18 17  1  0  0  0  0
 21 20  1  0  0  0  0
 21 22  1  0  0  0  0
 22 24  1  0  0  0  0
 23 26  1  0  0  0  0
 23 22  2  0  0  0  0
 24 30  1  0  0  0  0
 24 33  1  0  0  0  0
 25 23  1  0  0  0  0
 26 29  1  0  0  0  0
 27 25  2  0  0  0  0
 27 21  1  0  0  0  0
 28 26  2  0  0  0  0
 29 30  1  0  0  0  0
 29 31  1  0  0  0  0
 30 32  2  0  0  0  0
M  END
>  <Pose>
1

>  <Score>
-9.563

$$$$
