/Users/jonathanwahrer/Desktop/Msc/3_Semester/Drug_Design_Praktikum/waehrer_HTS_screening/HTS_experiment/out/docking_results/vina_output/6q9y/0526_docked.pdbqt
 OpenBabel03222219283D

 31 34  0  0  0  0  0  0  0  0999 V2000
   -1.9090    8.9170  -13.3930 N   0  0  0  0  0  0  0  0  0  0  0  0
   -3.0850    9.4390  -13.9630 C   0  0  0  0  0  0  0  0  0  0  0  0
   -3.0540   10.6350  -14.4240 O   0  0  0  0  0  0  0  0  0  0  0  0
   -1.9220    7.9380  -12.9980 H   0  0  0  0  0  0  0  0  0  0  0  0
   -4.3790    8.7660  -14.1110 C   0  0  0  0  0  2  0  0  0  0  0  0
   -5.4150    9.5160  -14.7630 N   0  0  0  0  0  0  0  0  0  0  0  0
   -6.4760   10.1190  -14.0300 C   0  0  0  0  0  0  0  0  0  0  0  0
   -6.4430    9.9410  -12.7500 O   0  0  0  0  0  0  0  0  0  0  0  0
   -5.4450    9.6350  -15.7870 H   0  0  0  0  0  0  0  0  0  0  0  0
   -7.5550   10.8860  -14.5710 C   0  0  0  0  0  0  0  0  0  0  0  0
   -8.1470   10.6800  -15.8090 C   0  0  0  0  0  3  0  0  0  0  0  0
   -9.1730   11.4390  -16.2590 C   0  0  0  0  0  0  0  0  0  0  0  0
   -9.6860   12.4690  -15.4970 C   0  0  0  0  0  0  0  0  0  0  0  0
   -9.9730   11.4550  -17.4620 O   0  0  0  0  0  0  0  0  0  0  0  0
   -9.1340   12.7100  -14.2780 C   0  0  0  0  0  3  0  0  0  0  0  0
  -10.7380   13.0680  -16.2090 O   0  0  0  0  0  0  0  0  0  0  0  0
   -8.0720   11.9320  -13.7930 C   0  0  0  0  0  3  0  0  0  0  0  0
  -11.2670   11.9510  -16.9630 C   0  0  0  0  0  2  0  0  0  0  0  0
   -0.7830    9.6580  -13.3510 N   0  0  0  0  0  0  0  0  0  0  0  0
    0.3780    9.6230  -13.6170 C   0  0  0  0  0  0  0  0  0  0  0  0
    1.4520   10.6130  -13.4650 C   0  0  0  0  0  0  0  0  0  0  0  0
    0.9780    8.4100  -14.2490 C   0  0  0  0  0  0  0  0  0  0  0  0
    1.4300   11.8870  -12.9400 C   0  0  0  0  0  3  0  0  0  0  0  0
    2.5860   10.0470  -13.9540 C   0  0  0  0  0  0  0  0  0  0  0  0
    2.5580   12.6540  -12.8830 C   0  0  0  0  0  0  0  0  0  0  0  0
    2.5470   14.4080  -12.1590 Br  0  0  0  0  0  0  0  0  0  0  0  0
    3.7300   12.0950  -13.3780 C   0  0  0  0  0  3  0  0  0  0  0  0
    3.7470   10.8260  -13.8990 C   0  0  0  0  0  3  0  0  0  0  0  0
    2.3570    8.7400  -14.4340 N   0  0  0  0  0  0  0  0  0  0  0  0
    3.0550    8.0830  -14.8580 H   0  0  0  0  0  0  0  0  0  0  0  0
    0.3490    7.3850  -14.5200 O   0  0  0  0  0  0  0  0  0  0  0  0
  1 19  1  0  0  0  0
  1  4  1  0  0  0  0
  2  1  1  0  0  0  0
  3  2  2  0  0  0  0
  5  2  1  0  0  0  0
  6  5  1  0  0  0  0
  6  7  1  0  0  0  0
  7  8  2  0  0  0  0
  9  6  1  0  0  0  0
 10  7  1  0  0  0  0
 10 17  1  0  0  0  0
 11 10  2  0  0  0  0
 12 11  1  0  0  0  0
 12 13  2  0  0  0  0
 13 15  1  0  0  0  0
 14 18  1  0  0  0  0
 14 12  1  0  0  0  0
 15 17  2  0  0  0  0
 16 13  1  0  0  0  0
 18 16  1  0  0  0  0
 20 21  1  0  0  0  0
 20 19  2  0  0  0  0
 21 23  1  0  0  0  0
 22 20  1  0  0  0  0
 23 25  2  0  0  0  0
 24 28  1  0  0  0  0
 24 21  2  0  0  0  0
 25 26  1  0  0  0  0
 27 25  1  0  0  0  0
 28 27  2  0  0  0  0
 29 22  1  0  0  0  0
 29 24  1  0  0  0  0
 30 29  1  0  0  0  0
 31 22  2  0  0  0  0
M  END
>  <Pose>
1

>  <Score>
-11.267

$$$$
