/Users/jonathanwahrer/Desktop/Msc/3_Semester/Drug_Design_Praktikum/waehrer_HTS_screening/HTS_experiment/out/docking_results/vina_output/6q9y/0556_docked.pdbqt
 OpenBabel03222219283D

 30 33  0  0  1  0  0  0  0  0999 V2000
  -11.2550   20.7640   -4.4260 Br  0  0  0  0  0  0  0  0  0  0  0  0
  -10.0240   22.2020   -4.1930 C   0  0  0  0  0  0  0  0  0  0  0  0
  -10.1290   23.2630   -5.0600 C   0  0  0  0  0  3  0  0  0  0  0  0
   -9.2490   24.3430   -4.9290 C   0  0  0  0  0  0  0  0  0  0  0  0
   -8.3110   24.3180   -3.9490 C   0  0  0  0  0  0  0  0  0  0  0  0
   -8.1870   23.2410   -3.0500 C   0  0  0  0  0  3  0  0  0  0  0  0
   -9.0650   22.1940   -3.2030 C   0  0  0  0  0  3  0  0  0  0  0  0
   -7.5180   25.4910   -3.9840 N   0  0  0  0  0  0  0  0  0  0  0  0
   -7.9840   26.2820   -5.0360 C   0  0  0  0  0  0  0  0  0  0  0  0
   -7.5250   27.4300   -5.4100 O   0  0  0  0  0  0  0  0  0  0  0  0
   -9.1310   25.5790   -5.6850 C   0  0  2  0  0  0  0  0  0  0  0  0
  -10.2420   26.4910   -5.6250 C   0  0  0  0  0  0  0  0  0  0  0  0
  -10.7550   27.0460   -6.7370 C   0  0  0  0  0  0  0  0  0  0  0  0
  -11.7910   27.8560   -6.3380 N   0  0  0  0  0  0  0  0  0  0  0  0
  -11.8940   27.7870   -5.0290 N   0  0  0  0  0  0  0  0  0  0  0  0
  -10.9750   26.9670   -4.5180 C   0  0  0  0  0  0  0  0  0  0  0  0
  -10.7410   26.6050   -3.0900 C   0  0  0  0  0  1  0  0  0  0  0  0
  -10.2600   26.7890   -8.0290 O   0  0  0  0  0  0  0  0  0  0  0  0
   -9.1870   25.9110   -8.1080 C   0  0  0  0  0  0  0  0  0  0  0  0
   -8.6510   25.3460   -7.0690 C   0  0  0  0  0  0  0  0  0  0  0  0
   -6.7130   25.7550   -3.3480 H   0  0  0  0  0  0  0  0  0  0  0  0
  -12.3930   28.4290   -6.9720 H   0  0  0  0  0  0  0  0  0  0  0  0
   -7.5000   24.4170   -7.2650 C   0  0  0  0  0  0  0  0  0  0  0  0
   -6.3530   24.8700   -7.1020 O   0  0  0  0  0  0  0  0  0  0  0  0
   -7.6500   23.1010   -7.6090 O   0  0  0  0  0  0  0  0  0  0  0  0
   -7.7190   22.6200   -8.9300 C   0  0  0  0  0  2  0  0  0  0  0  0
   -6.4110   21.8720   -9.2090 C   0  0  0  0  0  1  0  0  0  0  0  0
   -8.6220   25.5960   -9.4010 N   0  0  0  0  0  0  0  0  0  0  0  0
   -7.8550   26.1780   -9.7460 H   0  0  0  0  0  0  0  0  0  0  0  0
   -8.9970   24.8090   -9.9320 H   0  0  0  0  0  0  0  0  0  0  0  0
  1  2  1  0  0  0  0
  2  7  1  0  0  0  0
  3  4  1  0  0  0  0
  3  2  2  0  0  0  0
  4  5  2  0  0  0  0
  5  6  1  0  0  0  0
  7  6  2  0  0  0  0
  8  5  1  0  0  0  0
  8 21  1  0  0  0  0
  9  8  1  0  0  0  0
 10  9  2  0  0  0  0
 11 20  1  6  0  0  0
 11 12  1  0  0  0  0
 11  9  1  0  0  0  0
 11  4  1  0  0  0  0
 12 16  1  0  0  0  0
 13 14  1  0  0  0  0
 13 12  2  0  0  0  0
 14 15  1  0  0  0  0
 15 16  2  0  0  0  0
 16 17  1  0  0  0  0
 18 13  1  0  0  0  0
 19 18  1  0  0  0  0
 19 20  2  0  0  0  0
 22 14  1  0  0  0  0
 23 24  2  0  0  0  0
 23 20  1  0  0  0  0
 25 23  1  0  0  0  0
 26 25  1  0  0  0  0
 27 26  1  0  0  0  0
 28 19  1  0  0  0  0
 29 28  1  0  0  0  0
 30 28  1  0  0  0  0
M  END
>  <Pose>
1

>  <Score>
-3.997

$$$$
