/Users/jonathanwahrer/Desktop/Msc/3_Semester/Drug_Design_Praktikum/waehrer_HTS_screening/HTS_experiment/out/docking_results/vina_output/6q9y/0558_docked.pdbqt
 OpenBabel03222219293D

 29 32  0  0  1  0  0  0  0  0999 V2000
    3.3670   13.0450  -10.6510 Br  0  0  0  0  0  0  0  0  0  0  0  0
    2.7440   12.1360  -12.1980 C   0  0  0  0  0  0  0  0  0  0  0  0
    2.7340   10.7400  -12.2850 C   0  0  0  0  0  3  0  0  0  0  0  0
    2.2830   10.0920  -13.4040 C   0  0  0  0  0  0  0  0  0  0  0  0
    1.8330   10.8230  -14.4640 C   0  0  0  0  0  0  0  0  0  0  0  0
    1.8240   12.2250  -14.4250 C   0  0  0  0  0  3  0  0  0  0  0  0
    2.2810   12.8470  -13.2890 C   0  0  0  0  0  3  0  0  0  0  0  0
    1.4120    9.9760  -15.5200 N   0  0  0  0  0  0  0  0  0  0  0  0
    1.6100    8.6500  -15.0990 C   0  0  0  0  0  0  0  0  0  0  0  0
    1.3660    7.5910  -15.7350 O   0  0  0  0  0  0  0  0  0  0  0  0
    2.1740    8.6590  -13.7310 C   0  0  1  0  0  0  0  0  0  0  0  0
    3.5260    8.0120  -13.7450 C   0  0  0  0  0  0  0  0  0  0  0  0
    3.8880    6.9970  -13.0050 C   0  0  0  0  0  0  0  0  0  0  0  0
    2.9390    6.4500  -12.1090 N   0  0  0  0  0  0  0  0  0  0  0  0
    1.6330    6.9970  -12.0260 C   0  0  0  0  0  0  0  0  0  0  0  0
    1.2660    8.0140  -12.7670 C   0  0  0  0  0  0  0  0  0  0  0  0
   -0.1020    8.5190  -12.6210 C   0  0  0  0  0  0  0  0  0  0  0  0
   -1.1800    8.9260  -12.5230 N   0  0  0  0  0  0  0  0  0  0  0  0
    5.2990    6.6630  -13.3210 C   0  0  0  0  0  0  0  0  0  0  0  0
    5.7260    7.5680  -14.3060 O   0  0  0  0  0  0  0  0  0  0  0  0
    4.6660    8.4080  -14.5900 C   0  0  0  0  0  0  0  0  0  0  0  0
    4.6910    9.3600  -15.4430 O   0  0  0  0  0  0  0  0  0  0  0  0
    5.4000    5.2700  -13.9450 C   0  0  0  0  0  1  0  0  0  0  0  0
    6.1710    6.7390  -12.0760 C   0  0  0  0  0  1  0  0  0  0  0  0
    1.0190   10.3070  -16.4560 H   0  0  0  0  0  0  0  0  0  0  0  0
    3.1750    5.6330  -11.4880 H   0  0  0  0  0  0  0  0  0  0  0  0
    0.6750    6.4170  -11.0990 N   0  0  0  0  0  0  0  0  0  0  0  0
    0.4980    5.4020  -11.0240 H   0  0  0  0  0  0  0  0  0  0  0  0
    0.1500    7.0630  -10.4870 H   0  0  0  0  0  0  0  0  0  0  0  0
  2  1  1  0  0  0  0
  3  2  1  0  0  0  0
  4  3  2  0  0  0  0
  5  6  2  0  0  0  0
  5  4  1  0  0  0  0
  6  7  1  0  0  0  0
  7  2  2  0  0  0  0
  8  9  1  0  0  0  0
  8  5  1  0  0  0  0
 10  9  2  0  0  0  0
 11  9  1  6  0  0  0
 11  4  1  0  0  0  0
 11 16  1  0  0  0  0
 12 11  1  0  0  0  0
 12 13  2  0  0  0  0
 13 14  1  0  0  0  0
 14 15  1  0  0  0  0
 14 26  1  0  0  0  0
 15 27  1  0  0  0  0
 16 17  1  0  0  0  0
 16 15  2  0  0  0  0
 17 18  3  0  0  0  0
 19 13  1  0  0  0  0
 19 24  1  0  0  0  0
 20 19  1  0  0  0  0
 21 20  1  0  0  0  0
 21 12  1  0  0  0  0
 22 21  2  0  0  0  0
 23 19  1  0  0  0  0
 25  8  1  0  0  0  0
 27 28  1  0  0  0  0
 27 29  1  0  0  0  0
M  END
>  <Pose>
1

>  <Score>
0.456

$$$$
