/Users/jonathanwahrer/Desktop/Msc/3_Semester/Drug_Design_Praktikum/waehrer_HTS_screening/HTS_experiment/out/docking_results/vina_output/6q9y/0566_docked.pdbqt
 OpenBabel03222219293D

 30 33  0  0  1  0  0  0  0  0999 V2000
   -3.1190   20.7540   -9.4440 Br  0  0  0  0  0  0  0  0  0  0  0  0
   -4.8580   21.5330   -9.3410 C   0  0  0  0  0  0  0  0  0  0  0  0
   -5.1380   22.5040   -8.4130 C   0  0  0  0  0  3  0  0  0  0  0  0
   -6.4160   23.0850   -8.3280 C   0  0  0  0  0  0  0  0  0  0  0  0
   -7.4250   22.7020   -9.1660 C   0  0  0  0  0  0  0  0  0  0  0  0
   -7.1390   21.7090  -10.1150 C   0  0  0  0  0  3  0  0  0  0  0  0
   -5.8820   21.1540  -10.1810 C   0  0  0  0  0  3  0  0  0  0  0  0
   -8.6160   23.4250   -8.8920 N   0  0  0  0  0  0  0  0  0  0  0  0
   -8.3360   24.3080   -7.8240 C   0  0  0  0  0  0  0  0  0  0  0  0
   -9.2180   25.0970   -7.3480 O   0  0  0  0  0  0  0  0  0  0  0  0
   -6.9500   24.1300   -7.4270 C   0  0  2  0  0  0  0  0  0  0  0  0
   -6.1690   25.3510   -7.4880 N   0  0  0  0  0  0  0  0  0  0  0  0
   -6.3110   25.9730   -6.1840 C   0  0  1  0  0  3  0  0  0  0  0  0
   -6.2100   24.7930   -5.2620 C   0  0  2  0  0  3  0  0  0  0  0  0
   -6.8940   23.6810   -5.9820 C   0  0  1  0  0  3  0  0  0  0  0  0
   -8.2240   23.5620   -5.3650 C   0  0  0  0  0  0  0  0  0  0  0  0
   -9.2570   22.9600   -5.8070 O   0  0  0  0  0  0  0  0  0  0  0  0
   -8.2340   24.2500   -4.1210 N   0  0  0  0  0  0  0  0  0  0  0  0
   -7.0160   24.9610   -4.0330 C   0  0  0  0  0  0  0  0  0  0  0  0
   -6.6250   25.6620   -3.0500 O   0  0  0  0  0  0  0  0  0  0  0  0
   -9.5150   23.2870   -9.4210 H   0  0  0  0  0  0  0  0  0  0  0  0
   -6.4530   25.9720   -8.2660 H   0  0  0  0  0  0  0  0  0  0  0  0
   -5.2130   26.9720   -5.9930 C   0  0  1  0  0  3  0  0  0  0  0  0
   -3.9820   26.2930   -5.4430 C   0  0  0  0  0  1  0  0  0  0  0  0
   -4.8750   27.4830   -7.2520 O   0  0  0  0  0  0  0  0  0  0  0  0
   -5.6840   27.7790   -7.7420 H   0  0  0  0  0  0  0  0  0  0  0  0
   -9.2880   24.2300   -3.1250 C   0  0  0  0  0  2  0  0  0  0  0  0
  -10.3200   25.2840   -3.3650 C   0  0  0  0  0  2  0  0  0  0  0  0
  -11.6080   24.5580   -3.7730 C   0  0  0  0  0  2  0  0  0  0  0  0
  -12.0500   25.0000   -5.1410 C   0  0  0  0  0  1  0  0  0  0  0  0
  1  2  1  0  0  0  0
  2  3  1  0  0  0  0
  3  4  2  0  0  0  0
  5  8  1  0  0  0  0
  5  4  1  0  0  0  0
  6  5  2  0  0  0  0
  7  6  1  0  0  0  0
  7  2  2  0  0  0  0
  8  9  1  0  0  0  0
  9 11  1  0  0  0  0
  9 10  2  0  0  0  0
 11  4  1  6  0  0  0
 11 15  1  0  0  0  0
 12 11  1  0  0  0  0
 12 13  1  0  0  0  0
 13 23  1  1  0  0  0
 13 14  1  0  0  0  0
 14 19  1  1  0  0  0
 15 16  1  1  0  0  0
 15 14  1  0  0  0  0
 16 18  1  0  0  0  0
 17 16  2  0  0  0  0
 18 19  1  0  0  0  0
 18 27  1  0  0  0  0
 19 20  2  0  0  0  0
 21  8  1  0  0  0  0
 22 12  1  0  0  0  0
 23 24  1  6  0  0  0
 25 23  1  0  0  0  0
 26 25  1  0  0  0  0
 28 27  1  0  0  0  0
 29 28  1  0  0  0  0
 30 29  1  0  0  0  0
M  END
>  <Pose>
1

>  <Score>
-4.960

$$$$
