/Users/jonathanwahrer/Desktop/Msc/3_Semester/Drug_Design_Praktikum/waehrer_HTS_screening/HTS_experiment/out/docking_results/vina_output/6q9y/0571_docked.pdbqt
 OpenBabel03222219293D

 34 38  0  0  1  0  0  0  0  0999 V2000
    3.3380    9.6750  -15.7930 Br  0  0  0  0  0  0  0  0  0  0  0  0
    1.8260   10.1780  -14.7410 C   0  0  0  0  0  0  0  0  0  0  0  0
    0.7360    9.3550  -14.5680 C   0  0  0  0  0  3  0  0  0  0  0  0
   -0.3760    9.7330  -13.7990 C   0  0  0  0  0  0  0  0  0  0  0  0
   -0.3420   10.9730  -13.2100 C   0  0  0  0  0  0  0  0  0  0  0  0
    0.7540   11.8070  -13.3780 C   0  0  0  0  0  3  0  0  0  0  0  0
    1.8390   11.4260  -14.1370 C   0  0  0  0  0  3  0  0  0  0  0  0
   -1.5290   11.2210  -12.4820 N   0  0  0  0  0  0  0  0  0  0  0  0
   -2.3540   10.0850  -12.6180 C   0  0  0  0  0  0  0  0  0  0  0  0
   -3.4930   10.0030  -12.0790 O   0  0  0  0  0  0  0  0  0  0  0  0
   -1.6490    9.0960  -13.4610 C   0  0  1  0  0  0  0  0  0  0  0  0
   -2.4270    8.8060  -14.6690 N   0  0  0  0  0  0  0  0  0  0  0  0
   -2.1540    7.4220  -14.9830 C   0  0  1  0  0  3  0  0  0  0  0  0
   -1.7750    6.7310  -13.7330 C   0  0  2  0  0  3  0  0  0  0  0  0
   -1.5780    7.8250  -12.7000 C   0  0  1  0  0  3  0  0  0  0  0  0
   -0.3280    7.5040  -12.0220 C   0  0  0  0  0  0  0  0  0  0  0  0
    0.2710    8.2180  -11.1800 O   0  0  0  0  0  0  0  0  0  0  0  0
    0.1550    6.2130  -12.4550 N   0  0  0  0  0  0  0  0  0  0  0  0
   -0.4760    6.0300  -13.7400 C   0  0  0  0  0  0  0  0  0  0  0  0
    0.0110    5.3840  -14.6800 O   0  0  0  0  0  0  0  0  0  0  0  0
   -1.7540   12.0980  -11.9370 H   0  0  0  0  0  0  0  0  0  0  0  0
   -2.1570    9.4370  -15.4580 H   0  0  0  0  0  0  0  0  0  0  0  0
   -3.3380    6.8020  -15.6880 C   0  0  2  0  0  3  0  0  0  0  0  0
   -4.6470    7.1370  -15.0150 C   0  0  0  0  0  1  0  0  0  0  0  0
   -3.1460    5.4410  -15.8250 O   0  0  0  0  0  0  0  0  0  0  0  0
   -3.8730    4.9190  -15.4350 H   0  0  0  0  0  0  0  0  0  0  0  0
    1.0200    5.2980  -11.7830 C   0  0  0  0  0  2  0  0  0  0  0  0
    2.4650    5.6970  -11.6960 C   0  0  0  0  0  2  0  0  0  0  0  0
    3.3930    4.8390  -12.4530 C   0  0  0  0  0  0  0  0  0  0  0  0
    4.5440    5.3960  -12.9980 C   0  0  0  0  0  3  0  0  0  0  0  0
    5.4180    4.6130  -13.6740 C   0  0  0  0  0  3  0  0  0  0  0  0
    5.2230    3.2740  -13.8500 C   0  0  0  0  0  3  0  0  0  0  0  0
    4.0730    2.7290  -13.3020 C   0  0  0  0  0  3  0  0  0  0  0  0
    3.1750    3.4970  -12.6170 C   0  0  0  0  0  3  0  0  0  0  0  0
  1  2  1  0  0  0  0
  2  3  2  0  0  0  0
  2  7  1  0  0  0  0
  3  4  1  0  0  0  0
  4  5  2  0  0  0  0
  5  8  1  0  0  0  0
  6  5  1  0  0  0  0
  7  6  2  0  0  0  0
  8 21  1  0  0  0  0
  9  8  1  0  0  0  0
  9 10  2  0  0  0  0
 11  4  1  6  0  0  0
 11 15  1  0  0  0  0
 11  9  1  0  0  0  0
 12 11  1  0  0  0  0
 13 23  1  1  0  0  0
 13 12  1  0  0  0  0
 13 14  1  0  0  0  0
 14 19  1  6  0  0  0
 14 15  1  0  0  0  0
 15 16  1  6  0  0  0
 16 17  2  0  0  0  0
 18 16  1  0  0  0  0
 18 27  1  0  0  0  0
 19 18  1  0  0  0  0
 20 19  2  0  0  0  0
 22 12  1  0  0  0  0
 23 24  1  1  0  0  0
 25 23  1  0  0  0  0
 25 26  1  0  0  0  0
 27 28  1  0  0  0  0
 29 28  1  0  0  0  0
 30 29  2  0  0  0  0
 31 30  1  0  0  0  0
 32 31  2  0  0  0  0
 32 33  1  0  0  0  0
 33 34  2  0  0  0  0
 34 29  1  0  0  0  0
M  END
>  <Pose>
1

>  <Score>
-4.513

$$$$
