/Users/jonathanwahrer/Desktop/Msc/3_Semester/Drug_Design_Praktikum/waehrer_HTS_screening/HTS_experiment/out/docking_results/vina_output/6q9y/0579_docked.pdbqt
 OpenBabel03222219293D

 32 35  0  0  1  0  0  0  0  0999 V2000
    2.2310   14.3240  -10.9160 Br  0  0  0  0  0  0  0  0  0  0  0  0
    2.6490   12.9490  -12.1690 C   0  0  0  0  0  0  0  0  0  0  0  0
    1.8820   11.8160  -12.3200 C   0  0  0  0  0  3  0  0  0  0  0  0
    2.1930   10.8150  -13.2390 C   0  0  0  0  0  0  0  0  0  0  0  0
    3.3060   10.9530  -14.0290 C   0  0  0  0  0  0  0  0  0  0  0  0
    4.0990   12.0830  -13.9000 C   0  0  0  0  0  3  0  0  0  0  0  0
    3.7630   13.0740  -12.9700 C   0  0  0  0  0  3  0  0  0  0  0  0
    3.4360    9.8250  -14.8990 N   0  0  0  0  0  0  0  0  0  0  0  0
    2.3580    8.9410  -14.6420 C   0  0  0  0  0  0  0  0  0  0  0  0
    2.1920    7.8680  -15.2540 O   0  0  0  0  0  0  0  0  0  0  0  0
    1.5440    9.5170  -13.5840 C   0  0  2  0  0  0  0  0  0  0  0  0
    0.2090    9.7420  -14.1390 N   0  0  0  0  0  0  0  0  0  0  0  0
   -0.7080    9.4210  -13.0860 C   0  0  2  0  0  3  0  0  0  0  0  0
   -0.0730    8.2670  -12.4000 C   0  0  2  0  0  3  0  0  0  0  0  0
    1.3830    8.6680  -12.3580 C   0  0  1  0  0  3  0  0  0  0  0  0
    2.1130    7.4080  -12.3570 C   0  0  0  0  0  0  0  0  0  0  0  0
    3.3070    7.2520  -12.0240 O   0  0  0  0  0  0  0  0  0  0  0  0
    1.2240    6.3900  -12.8020 N   0  0  0  0  0  0  0  0  0  0  0  0
   -0.0240    7.0120  -13.1900 C   0  0  0  0  0  0  0  0  0  0  0  0
   -0.7990    6.5020  -14.0150 O   0  0  0  0  0  0  0  0  0  0  0  0
    4.2170    9.7000  -15.6020 H   0  0  0  0  0  0  0  0  0  0  0  0
    0.0300    9.0820  -14.9330 H   0  0  0  0  0  0  0  0  0  0  0  0
   -2.1060    9.2010  -13.5520 C   0  0  0  0  0  2  0  0  0  0  0  0
   -2.6840   10.4680  -14.0120 C   0  0  0  0  0  0  0  0  0  0  0  0
   -2.0480   11.5460  -13.8350 O   0  0  0  0  0  0  0  0  0  0  0  0
   -3.9560   10.5010  -14.6570 N   0  0  0  0  0  0  0  0  0  0  0  0
   -4.1660   11.2340  -15.3640 H   0  0  0  0  0  0  0  0  0  0  0  0
   -4.6710    9.7860  -14.4150 H   0  0  0  0  0  0  0  0  0  0  0  0
    1.5480    4.9940  -12.8430 C   0  0  0  0  0  2  0  0  0  0  0  0
    2.8850    4.6310  -12.2860 C   0  0  0  0  0  2  0  0  0  0  0  0
    3.6270    3.8180  -13.1280 O   0  0  0  0  0  0  0  0  0  0  0  0
    4.9540    4.2330  -13.2050 C   0  0  0  0  0  1  0  0  0  0  0  0
  2  1  1  0  0  0  0
  3  2  1  0  0  0  0
  4  3  2  0  0  0  0
  5  6  2  0  0  0  0
  5  4  1  0  0  0  0
  6  7  1  0  0  0  0
  7  2  2  0  0  0  0
  8  9  1  0  0  0  0
  8  5  1  0  0  0  0
 10  9  2  0  0  0  0
 11  9  1  6  0  0  0
 11  4  1  0  0  0  0
 11 15  1  0  0  0  0
 12 11  1  0  0  0  0
 12 13  1  0  0  0  0
 13 23  1  6  0  0  0
 13 14  1  0  0  0  0
 14 19  1  6  0  0  0
 14 15  1  0  0  0  0
 15 16  1  6  0  0  0
 16 17  2  0  0  0  0
 18 16  1  0  0  0  0
 19 18  1  0  0  0  0
 20 19  2  0  0  0  0
 21  8  1  0  0  0  0
 22 12  1  0  0  0  0
 24 25  2  0  0  0  0
 24 23  1  0  0  0  0
 26 28  1  0  0  0  0
 26 24  1  0  0  0  0
 27 26  1  0  0  0  0
 29 18  1  0  0  0  0
 29 30  1  0  0  0  0
 31 30  1  0  0  0  0
 32 31  1  0  0  0  0
M  END
>  <Pose>
1

>  <Score>
-5.801

$$$$
