/Users/jonathanwahrer/Desktop/Msc/3_Semester/Drug_Design_Praktikum/waehrer_HTS_screening/HTS_experiment/out/docking_results/vina_output/6q9y/0588_docked.pdbqt
 OpenBabel03222219293D

 24 27  0  0  1  0  0  0  0  0999 V2000
    6.3510    5.1360  -13.2040 Br  0  0  0  0  0  0  0  0  0  0  0  0
    4.6630    6.0190  -13.1790 C   0  0  0  0  0  0  0  0  0  0  0  0
    4.5350    7.1930  -13.8640 C   0  0  0  0  0  3  0  0  0  0  0  0
    3.3200    7.8560  -13.8630 C   0  0  0  0  0  0  0  0  0  0  0  0
    2.2360    7.3310  -13.1700 C   0  0  0  0  0  0  0  0  0  0  0  0
    2.3490    6.1450  -12.4730 C   0  0  0  0  0  3  0  0  0  0  0  0
    3.5760    5.5220  -12.5020 C   0  0  0  0  0  3  0  0  0  0  0  0
    0.9510    7.9170  -13.0990 N   0  0  0  0  0  0  0  0  0  0  0  0
   -0.1290    7.1790  -12.8160 N   0  0  0  0  0  0  0  0  0  0  0  0
   -1.1400    8.0050  -12.8260 N   0  0  0  0  0  0  0  0  0  0  0  0
   -0.7310    9.2330  -13.1050 N   0  0  0  0  0  0  0  0  0  0  0  0
    0.6210    9.1830  -13.2830 C   0  0  0  0  0  0  0  0  0  0  0  0
    1.4190   10.4140  -13.6160 C   0  0  2  0  0  0  0  0  0  0  0  0
    2.4190   10.1200  -14.6390 N   0  0  0  0  0  0  0  0  0  0  0  0
    3.3990    9.0890  -14.6560 C   0  0  0  0  0  0  0  0  0  0  0  0
    4.4070    9.2390  -15.4010 O   0  0  0  0  0  0  0  0  0  0  0  0
    2.1850   10.7630  -12.3680 C   0  0  0  0  0  2  0  0  0  0  0  0
    2.6030   12.1960  -12.4170 C   0  0  0  0  0  0  0  0  0  0  0  0
    1.4610   12.9520  -12.4310 O   0  0  0  0  0  0  0  0  0  0  0  0
    0.6840   12.8300  -13.5510 C   0  0  0  0  0  3  0  0  0  0  0  0
    0.5040   11.4790  -14.0970 C   0  0  0  0  0  3  0  0  0  0  0  0
    3.3530   12.5480  -11.1260 C   0  0  0  0  0  1  0  0  0  0  0  0
    3.5450   12.5090  -13.5490 C   0  0  0  0  0  1  0  0  0  0  0  0
    2.4320   10.7520  -15.4960 H   0  0  0  0  0  0  0  0  0  0  0  0
  1  2  1  0  0  0  0
  2  7  1  0  0  0  0
  3  4  1  0  0  0  0
  3  2  2  0  0  0  0
  4  5  2  0  0  0  0
  5  8  1  0  0  0  0
  5  6  1  0  0  0  0
  7  6  2  0  0  0  0
  8  9  1  0  0  0  0
 10  9  2  0  0  0  0
 11 10  1  0  0  0  0
 12 11  2  0  0  0  0
 12  8  1  0  0  0  0
 13 21  1  6  0  0  0
 13 12  1  0  0  0  0
 13 17  1  0  0  0  0
 14 13  1  0  0  0  0
 15 14  1  0  0  0  0
 15  4  1  0  0  0  0
 16 15  2  0  0  0  0
 18 17  1  0  0  0  0
 18 22  1  0  0  0  0
 19 18  1  0  0  0  0
 20 19  1  0  0  0  0
 21 20  2  0  0  0  0
 23 18  1  0  0  0  0
 24 14  1  0  0  0  0
M  END
>  <Pose>
1

>  <Score>
-7.747

$$$$
