/Users/jonathanwahrer/Desktop/Msc/3_Semester/Drug_Design_Praktikum/waehrer_HTS_screening/HTS_experiment/out/docking_results/vina_output/6q9y/0596_docked.pdbqt
 OpenBabel03222219303D

 29 32  0  0  0  0  0  0  0  0999 V2000
    1.1280   12.2690  -13.1430 C   0  0  0  0  0  0  0  0  0  0  0  0
    2.4390   11.8640  -13.3430 C   0  0  0  0  0  3  0  0  0  0  0  0
    2.7190   10.5630  -13.7040 C   0  0  0  0  0  0  0  0  0  0  0  0
    3.9450   10.2670  -13.8660 O   0  0  0  0  0  0  0  0  0  0  0  0
    1.7650    9.6980  -13.8650 O   0  0  0  0  0  0  0  0  0  0  0  0
    0.5370   10.0070  -13.6980 C   0  0  0  0  0  0  0  0  0  0  0  0
    0.1610   11.3120  -13.3290 C   0  0  0  0  0  0  0  0  0  0  0  0
   -1.1600   11.6150  -13.1700 C   0  0  0  0  0  3  0  0  0  0  0  0
   -2.0950   10.5960  -13.3800 C   0  0  0  0  0  3  0  0  0  0  0  0
   -1.6930    9.3240  -13.7380 C   0  0  0  0  0  0  0  0  0  0  0  0
   -0.3700    8.9850  -13.9090 C   0  0  0  0  0  0  0  0  0  0  0  0
   -2.7160    8.3680  -13.9200 O   0  0  0  0  0  1  0  0  0  0  0  0
    0.8170   13.6270  -12.7020 C   0  0  0  0  0  0  0  0  0  0  0  0
    1.6050   14.2640  -11.7660 C   0  0  0  0  0  0  0  0  0  0  0  0
    1.3120   15.4480  -11.3570 O   0  0  0  0  0  0  0  0  0  0  0  0
    2.6110   13.6060  -11.3560 O   0  0  0  0  0  0  0  0  0  0  0  0
    0.2540   16.1330  -11.7950 C   0  0  0  0  0  0  0  0  0  0  0  0
   -0.5730   15.5510  -12.7330 C   0  0  0  0  0  0  0  0  0  0  0  0
    0.0070   17.4050  -11.3000 C   0  0  0  0  0  3  0  0  0  0  0  0
   -1.6630   16.2830  -13.1690 C   0  0  0  0  0  3  0  0  0  0  0  0
   -0.2880   14.2880  -13.1870 C   0  0  0  0  0  3  0  0  0  0  0  0
   -1.9590   17.5550  -12.7130 C   0  0  0  0  0  0  0  0  0  0  0  0
   -3.4590   18.5140  -13.3610 Br  0  0  0  0  0  0  0  0  0  0  0  0
   -1.0880   18.0980  -11.7580 C   0  0  0  0  0  3  0  0  0  0  0  0
   -0.0250    7.6160  -14.1840 C   0  0  0  0  0  2  0  0  0  0  0  0
   -0.3640    6.5340  -13.3540 N   0  0  0  0  0  4  0  0  0  0  0  0
   -1.0500    5.4230  -13.9540 C   0  0  0  0  0  1  0  0  0  0  0  0
    0.7690    6.1060  -12.4930 C   0  0  0  0  0  1  0  0  0  0  0  0
   -1.0670    6.8970  -12.6460 H   0  0  0  0  0  0  0  0  0  0  0  0
  1 13  1  0  0  0  0
  2  1  2  0  0  0  0
  3  2  1  0  0  0  0
  4  3  2  0  0  0  0
  5  3  1  0  0  0  0
  5  6  1  0  0  0  0
  6  7  1  0  0  0  0
  7  8  2  0  0  0  0
  7  1  1  0  0  0  0
  9  8  1  0  0  0  0
 10  9  2  0  0  0  0
 11 10  1  0  0  0  0
 11  6  2  0  0  0  0
 12 10  1  0  0  0  0
 13 14  1  0  0  0  0
 14 15  1  0  0  0  0
 14 16  2  0  0  0  0
 17 15  1  0  0  0  0
 17 19  1  0  0  0  0
 18 17  2  0  0  0  0
 20 18  1  0  0  0  0
 20 22  2  0  0  0  0
 21 18  1  0  0  0  0
 21 13  2  0  0  0  0
 22 24  1  0  0  0  0
 23 22  1  0  0  0  0
 24 19  2  0  0  0  0
 25 11  1  0  0  0  0
 25 26  1  0  0  0  0
 26 29  1  0  0  0  0
 26 28  1  0  0  0  0
 27 26  1  0  0  0  0
M  END
>  <Pose>
1

>  <Score>
-9.815

$$$$
