/Users/jonathanwahrer/Desktop/Msc/3_Semester/Drug_Design_Praktikum/waehrer_HTS_screening/HTS_experiment/out/docking_results/vina_output/6q9y/0610_docked.pdbqt
 OpenBabel03222219303D

 32 35  0  0  0  0  0  0  0  0999 V2000
    6.3750    1.6200  -12.3770 Br  0  0  0  0  0  0  0  0  0  0  0  0
    5.5880    3.3010  -12.8190 C   0  0  0  0  0  0  0  0  0  0  0  0
    6.3830    4.3830  -13.1880 C   0  0  0  0  0  3  0  0  0  0  0  0
    5.8120    5.6060  -13.5100 C   0  0  0  0  0  0  0  0  0  0  0  0
    4.4430    5.7590  -13.4680 C   0  0  0  0  0  0  0  0  0  0  0  0
    3.8820    6.9530  -13.7870 N   0  0  0  0  0  0  0  0  0  0  0  0
    4.6280    8.0120  -14.1490 C   0  0  0  0  0  0  0  0  0  0  0  0
    5.9560    7.8440  -14.1850 N   0  0  0  0  0  0  0  0  0  0  0  0
    6.5790    6.6910  -13.8810 C   0  0  0  0  0  0  0  0  0  0  0  0
    3.6710    4.6660  -13.0960 C   0  0  0  0  0  3  0  0  0  0  0  0
    4.2180    3.4430  -12.7730 C   0  0  0  0  0  3  0  0  0  0  0  0
    4.0000    9.2560  -14.4820 N   0  0  0  0  0  4  0  0  0  0  0  0
    3.6940    9.9890  -13.2840 C   0  0  0  0  0  2  0  0  0  0  0  0
    2.5210    9.4690  -12.5250 C   0  0  0  0  0  2  0  0  0  0  0  0
    1.7340    8.5300  -13.2940 N   0  0  0  0  0  0  0  0  0  0  0  0
    1.5830    8.8120  -14.7050 C   0  0  0  0  0  2  0  0  0  0  0  0
    1.1700    7.4130  -12.6330 C   0  0  0  0  0  0  0  0  0  0  0  0
    2.8900    9.1100  -15.3720 C   0  0  0  0  0  2  0  0  0  0  0  0
    1.3450    7.2350  -11.4080 O   0  0  0  0  0  0  0  0  0  0  0  0
    4.7640    9.8130  -14.9700 H   0  0  0  0  0  0  0  0  0  0  0  0
    0.3670    6.4780  -13.4730 C   0  0  0  0  0  2  0  0  0  0  0  0
   -1.0880    6.5260  -13.1130 C   0  0  0  0  0  2  0  0  0  0  0  0
   -1.9550    6.8930  -14.2430 C   0  0  0  0  0  0  0  0  0  0  0  0
   -2.1060    6.1350  -15.2240 O   0  0  0  0  0  0  0  0  0  0  0  0
   -2.6200    8.1020  -14.2210 O   0  0  0  0  0  1  0  0  0  0  0  0
    8.0290    6.6140  -13.9520 C   0  0  0  0  0  0  0  0  0  0  0  0
    8.8120    7.1610  -12.9450 C   0  0  0  0  0  0  0  0  0  0  0  0
   10.1880    7.0950  -12.9710 C   0  0  0  0  0  3  0  0  0  0  0  0
    7.9920    7.9610  -11.6020 Cl  0  0  0  0  0  0  0  0  0  0  0  0
   10.8510    6.4750  -14.0100 C   0  0  0  0  0  3  0  0  0  0  0  0
   10.0660    5.9280  -15.0180 C   0  0  0  0  0  3  0  0  0  0  0  0
    8.6910    5.9990  -14.9840 C   0  0  0  0  0  3  0  0  0  0  0  0
  2 11  1  0  0  0  0
  2  1  1  0  0  0  0
  3  2  2  0  0  0  0
  4  5  2  0  0  0  0
  4  3  1  0  0  0  0
  5 10  1  0  0  0  0
  6  5  1  0  0  0  0
  7  6  2  0  0  0  0
  8  7  1  0  0  0  0
  8  9  2  0  0  0  0
  9  4  1  0  0  0  0
 10 11  2  0  0  0  0
 12  7  1  0  0  0  0
 12 13  1  0  0  0  0
 13 14  1  0  0  0  0
 15 17  1  0  0  0  0
 15 14  1  0  0  0  0
 16 15  1  0  0  0  0
 17 19  2  0  0  0  0
 18 16  1  0  0  0  0
 18 12  1  0  0  0  0
 20 12  1  0  0  0  0
 21 22  1  0  0  0  0
 21 17  1  0  0  0  0
 23 25  1  0  0  0  0
 23 22  1  0  0  0  0
 24 23  2  0  0  0  0
 26  9  1  0  0  0  0
 26 27  1  0  0  0  0
 27 29  1  0  0  0  0
 28 27  2  0  0  0  0
 30 28  1  0  0  0  0
 31 32  1  0  0  0  0
 31 30  2  0  0  0  0
 32 26  2  0  0  0  0
M  END
>  <Pose>
1

>  <Score>
-8.662

$$$$
