/Users/jonathanwahrer/Desktop/Msc/3_Semester/Drug_Design_Praktikum/waehrer_HTS_screening/HTS_experiment/out/docking_results/vina_output/6q9y/0611_docked.pdbqt
 OpenBabel03222219313D

 33 36  0  0  0  0  0  0  0  0999 V2000
    3.0650   11.5060  -13.1630 Br  0  0  0  0  0  0  0  0  0  0  0  0
    1.1790   11.3850  -13.4480 C   0  0  0  0  0  0  0  0  0  0  0  0
    0.4940   10.1890  -13.3270 C   0  0  0  0  0  3  0  0  0  0  0  0
   -0.8640   10.0680  -13.5260 C   0  0  0  0  0  0  0  0  0  0  0  0
   -1.6080   11.1830  -13.8650 C   0  0  0  0  0  0  0  0  0  0  0  0
   -2.9450   11.0850  -14.0730 N   0  0  0  0  0  0  0  0  0  0  0  0
   -3.6080    9.9220  -13.9610 C   0  0  0  0  0  0  0  0  0  0  0  0
   -2.8860    8.8360  -13.6300 N   0  0  0  0  0  0  0  0  0  0  0  0
   -1.5500    8.8810  -13.4130 C   0  0  0  0  0  0  0  0  0  0  0  0
   -0.9350   12.3790  -13.9870 C   0  0  0  0  0  3  0  0  0  0  0  0
    0.4350   12.4940  -13.7860 C   0  0  0  0  0  3  0  0  0  0  0  0
   -5.0110    9.8570  -14.1860 N   0  0  0  0  0  4  0  0  0  0  0  0
   -5.7390    9.9010  -12.9380 C   0  0  0  0  0  2  0  0  0  0  0  0
   -7.1560   10.2830  -13.2270 C   0  0  0  0  0  2  0  0  0  0  0  0
   -7.4000   10.1200  -14.6460 N   0  0  0  0  0  0  0  0  0  0  0  0
   -6.9010    8.9070  -15.2700 C   0  0  0  0  0  2  0  0  0  0  0  0
   -8.0940   11.1250  -15.3390 C   0  0  0  0  0  0  0  0  0  0  0  0
   -5.4320    8.6770  -14.8970 C   0  0  0  0  0  2  0  0  0  0  0  0
   -8.2890   10.9620  -16.5690 O   0  0  0  0  0  0  0  0  0  0  0  0
   -5.2670   10.6840  -14.7650 H   0  0  0  0  0  0  0  0  0  0  0  0
   -8.5880   12.3370  -14.6810 C   0  0  0  0  0  2  0  0  0  0  0  0
  -10.0710   12.4590  -14.8830 C   0  0  0  0  0  2  0  0  0  0  0  0
  -10.4630   13.7620  -15.5450 C   0  0  0  0  0  2  0  0  0  0  0  0
  -11.2640   13.5720  -16.7700 C   0  0  0  0  0  0  0  0  0  0  0  0
  -11.2010   12.4530  -17.3320 O   0  0  0  0  0  0  0  0  0  0  0  0
  -12.0460   14.6080  -17.2580 O   0  0  0  0  0  1  0  0  0  0  0  0
   -0.8170    7.6740  -13.0590 C   0  0  0  0  0  0  0  0  0  0  0  0
   -0.9440    6.5010  -13.7870 C   0  0  0  0  0  0  0  0  0  0  0  0
   -0.2680    5.3420  -13.4490 C   0  0  0  0  0  3  0  0  0  0  0  0
   -2.0000    6.4740  -15.1900 Cl  0  0  0  0  0  0  0  0  0  0  0  0
    0.5680    5.3860  -12.3270 C   0  0  0  0  0  3  0  0  0  0  0  0
    0.7160    6.5370  -11.5820 C   0  0  0  0  0  3  0  0  0  0  0  0
    0.0320    7.6510  -11.9500 C   0  0  0  0  0  3  0  0  0  0  0  0
  2  3  1  0  0  0  0
  2  1  1  0  0  0  0
  4  9  1  0  0  0  0
  4  3  2  0  0  0  0
  5  4  1  0  0  0  0
  6  7  2  0  0  0  0
  6  5  1  0  0  0  0
  7  8  1  0  0  0  0
  8  9  2  0  0  0  0
  9 27  1  0  0  0  0
 10  5  2  0  0  0  0
 10 11  1  0  0  0  0
 11  2  2  0  0  0  0
 12  7  1  0  0  0  0
 12 13  1  0  0  0  0
 14 13  1  0  0  0  0
 15 14  1  0  0  0  0
 16 18  1  0  0  0  0
 16 15  1  0  0  0  0
 17 21  1  0  0  0  0
 17 15  1  0  0  0  0
 18 12  1  0  0  0  0
 19 17  2  0  0  0  0
 20 12  1  0  0  0  0
 22 21  1  0  0  0  0
 23 22  1  0  0  0  0
 24 23  1  0  0  0  0
 25 24  2  0  0  0  0
 26 24  1  0  0  0  0
 27 33  1  0  0  0  0
 28 29  1  0  0  0  0
 28 27  2  0  0  0  0
 29 31  2  0  0  0  0
 30 28  1  0  0  0  0
 31 32  1  0  0  0  0
 33 32  2  0  0  0  0
M  END
>  <Pose>
1

>  <Score>
-10.409

$$$$
