/Users/jonathanwahrer/Desktop/Msc/3_Semester/Drug_Design_Praktikum/waehrer_HTS_screening/HTS_experiment/out/docking_results/vina_output/6q9y/0616_docked.pdbqt
 OpenBabel03222219313D

 28 31  0  0  0  0  0  0  0  0999 V2000
   -2.4570   17.6790  -13.2160 C   0  0  0  0  0  0  0  0  0  0  0  0
   -3.1420   17.3480  -14.2570 O   0  0  0  0  0  0  0  0  0  0  0  0
   -1.1900   17.1040  -13.1180 N   0  0  0  0  0  0  0  0  0  0  0  0
   -0.2430   17.2980  -12.0530 C   0  0  0  0  0  2  0  0  0  0  0  0
    1.0270   16.4600  -12.2470 C   0  0  0  0  0  2  0  0  0  0  0  0
    0.6360   15.0960  -12.5680 N   0  0  0  0  0  0  0  0  0  0  0  0
   -0.4460   14.8550  -13.5250 C   0  0  0  0  0  2  0  0  0  0  0  0
   -0.7170   16.2020  -14.2020 C   0  0  0  0  0  2  0  0  0  0  0  0
    1.2790   13.9900  -11.9700 C   0  0  0  0  0  0  0  0  0  0  0  0
    2.1970   14.2360  -11.1510 O   0  0  0  0  0  0  0  0  0  0  0  0
   -3.0510   18.5960  -12.2630 C   0  0  0  0  0  0  0  0  0  0  0  0
   -2.5790   19.1570  -11.1470 N   0  0  0  0  0  0  0  0  0  0  0  0
   -3.5210   19.9600  -10.5610 C   0  0  0  0  0  0  0  0  0  0  0  0
   -1.6440   19.0490  -10.7290 H   0  0  0  0  0  0  0  0  0  0  0  0
   -4.6550   19.9220  -11.3250 C   0  0  0  0  0  0  0  0  0  0  0  0
   -3.5080   20.7350   -9.4160 C   0  0  0  0  0  3  0  0  0  0  0  0
   -5.7760   20.6630  -10.9400 C   0  0  0  0  0  3  0  0  0  0  0  0
   -4.3760   19.0890  -12.3710 C   0  0  0  0  0  3  0  0  0  0  0  0
   -5.7710   21.4340   -9.8060 C   0  0  0  0  0  0  0  0  0  0  0  0
   -7.3050   22.4540   -9.2670 Br  0  0  0  0  0  0  0  0  0  0  0  0
   -4.6260   21.4660   -9.0420 C   0  0  0  0  0  3  0  0  0  0  0  0
    0.8580   12.6430  -12.3200 C   0  0  0  0  0  2  0  0  0  0  0  0
    1.4470   12.1110  -13.5280 N   0  0  0  0  0  0  0  0  0  0  0  0
    0.7360   10.8880  -13.9060 C   0  0  0  0  0  2  0  0  0  0  0  0
    1.4550    9.6780  -13.4210 C   0  0  0  0  0  2  0  0  0  0  0  0
    2.0550    9.9220  -12.1880 O   0  0  0  0  0  0  0  0  0  0  0  0
    3.1280   10.8070  -12.3130 C   0  0  0  0  0  2  0  0  0  0  0  0
    2.8660   11.8330  -13.3910 C   0  0  0  0  0  2  0  0  0  0  0  0
  1  3  1  0  0  0  0
  1 11  1  0  0  0  0
  2  1  2  0  0  0  0
  3  4  1  0  0  0  0
  5  4  1  0  0  0  0
  6  5  1  0  0  0  0
  6  9  1  0  0  0  0
  7  6  1  0  0  0  0
  8  7  1  0  0  0  0
  8  3  1  0  0  0  0
  9 10  2  0  0  0  0
 11 12  1  0  0  0  0
 12 14  1  0  0  0  0
 12 13  1  0  0  0  0
 13 16  1  0  0  0  0
 15 17  1  0  0  0  0
 15 13  2  0  0  0  0
 16 21  2  0  0  0  0
 17 19  2  0  0  0  0
 18 11  2  0  0  0  0
 18 15  1  0  0  0  0
 19 20  1  0  0  0  0
 19 21  1  0  0  0  0
 22  9  1  0  0  0  0
 23 28  1  0  0  0  0
 23 22  1  0  0  0  0
 24 23  1  0  0  0  0
 24 25  1  0  0  0  0
 25 26  1  0  0  0  0
 27 26  1  0  0  0  0
 28 27  1  0  0  0  0
M  END
>  <Pose>
1

>  <Score>
-9.019

$$$$
