/Users/jonathanwahrer/Desktop/Msc/3_Semester/Drug_Design_Praktikum/waehrer_HTS_screening/HTS_experiment/out/docking_results/vina_output/6q9y/0617_docked.pdbqt
 OpenBabel03222219313D

 25 28  0  0  0  0  0  0  0  0999 V2000
   -5.6780   22.9340   -7.9280 Br  0  0  0  0  0  0  0  0  0  0  0  0
   -5.4770   21.7370   -9.3930 C   0  0  0  0  0  0  0  0  0  0  0  0
   -4.3250   20.9970   -9.5630 C   0  0  0  0  0  3  0  0  0  0  0  0
   -4.1630   20.1240  -10.6200 C   0  0  0  0  0  0  0  0  0  0  0  0
   -5.1990   20.0020  -11.5260 C   0  0  0  0  0  0  0  0  0  0  0  0
   -4.7780   19.1030  -12.4340 N   0  0  0  0  0  0  0  0  0  0  0  0
   -3.5310   18.6580  -12.1370 C   0  0  0  0  0  0  0  0  0  0  0  0
   -3.1240   19.2960  -10.9860 C   0  0  0  0  0  0  0  0  0  0  0  0
   -1.9020   19.0120  -10.4920 N   0  0  0  0  0  0  0  0  0  0  0  0
   -1.0790   18.1290  -11.0890 C   0  0  0  0  0  3  0  0  0  0  0  0
   -1.4490   17.4930  -12.2080 N   0  0  0  0  0  0  0  0  0  0  0  0
   -2.6610   17.7620  -12.7160 C   0  0  0  0  0  0  0  0  0  0  0  0
   -3.0240   17.1760  -13.7660 O   0  0  0  0  0  0  0  0  0  0  0  0
   -6.3470   20.7500  -11.3450 C   0  0  0  0  0  3  0  0  0  0  0  0
   -6.5180   21.6250  -10.2910 C   0  0  0  0  0  3  0  0  0  0  0  0
   -5.3140   18.7760  -13.2590 H   0  0  0  0  0  0  0  0  0  0  0  0
   -0.5520   16.5280  -12.8670 C   0  0  0  0  0  2  0  0  0  0  0  0
    0.5910   16.1990  -11.9860 C   0  0  0  0  0  2  0  0  0  0  0  0
    0.7720   14.8320  -11.6550 N   0  0  0  0  0  0  0  0  0  0  0  0
    1.9270   14.5380  -10.8810 C   0  0  0  0  0  2  0  0  0  0  0  0
    3.0990   14.0800  -11.7020 C   0  0  0  0  0  2  0  0  0  0  0  0
    2.7040   13.2490  -12.8180 N   0  0  0  0  0  0  0  0  0  0  0  0
    1.3550   12.7370  -12.6420 C   0  0  0  0  0  2  0  0  0  0  0  0
    2.7980   13.7440  -13.7340 H   0  0  0  0  0  0  0  0  0  0  0  0
    0.4340   13.9310  -12.6980 C   0  0  0  0  0  2  0  0  0  0  0  0
  2  1  1  0  0  0  0
  3  2  1  0  0  0  0
  4  3  2  0  0  0  0
  5 14  2  0  0  0  0
  5  4  1  0  0  0  0
  6  7  1  0  0  0  0
  6  5  1  0  0  0  0
  7  8  2  0  0  0  0
  8  4  1  0  0  0  0
  8  9  1  0  0  0  0
 10  9  2  0  0  0  0
 11 10  1  0  0  0  0
 12 11  1  0  0  0  0
 12  7  1  0  0  0  0
 13 12  2  0  0  0  0
 14 15  1  0  0  0  0
 15  2  2  0  0  0  0
 16  6  1  0  0  0  0
 17 11  1  0  0  0  0
 17 18  1  0  0  0  0
 18 19  1  0  0  0  0
 19 20  1  0  0  0  0
 21 20  1  0  0  0  0
 22 23  1  0  0  0  0
 22 21  1  0  0  0  0
 24 22  1  0  0  0  0
 25 23  1  0  0  0  0
 25 19  1  0  0  0  0
M  END
>  <Pose>
1

>  <Score>
-9.069

$$$$
