/Users/jonathanwahrer/Desktop/Msc/3_Semester/Drug_Design_Praktikum/waehrer_HTS_screening/HTS_experiment/out/docking_results/vina_output/6q9y/0624_docked.pdbqt
 OpenBabel03222219313D

 22 25  0  0  0  0  0  0  0  0999 V2000
   -0.0920   14.4940  -12.9180 Br  0  0  0  0  0  0  0  0  0  0  0  0
   -0.0460   12.6080  -13.1780 C   0  0  0  0  0  0  0  0  0  0  0  0
   -1.2370   11.9150  -13.2500 C   0  0  0  0  0  3  0  0  0  0  0  0
   -1.2370   10.5280  -13.4410 C   0  0  0  0  0  0  0  0  0  0  0  0
   -0.0400    9.8960  -13.5520 C   0  0  0  0  0  0  0  0  0  0  0  0
    1.1740   10.5440  -13.4860 C   0  0  0  0  0  0  0  0  0  0  0  0
    1.1480   11.9020  -13.2990 C   0  0  0  0  0  3  0  0  0  0  0  0
    2.3050    9.7830  -13.6130 C   0  0  0  0  0  0  0  0  0  0  0  0
    3.4060   10.3540  -13.5570 O   0  0  0  0  0  0  0  0  0  0  0  0
    2.2670    8.4090  -13.8010 C   0  0  0  0  0  0  0  0  0  0  0  0
    1.0210    7.8230  -13.8580 C   0  0  0  0  0  3  0  0  0  0  0  0
   -0.1180    8.5760  -13.7310 N   0  0  0  0  0  0  0  0  0  0  0  0
   -1.5220    8.2280  -13.7520 C   0  0  0  0  0  3  0  0  0  0  0  0
   -2.2910    9.5060  -13.5600 C   0  0  0  0  0  3  0  0  0  0  0  0
    3.4820    7.6130  -13.9360 C   0  0  0  0  0  0  0  0  0  0  0  0
    4.3290    7.9320  -14.8010 O   0  0  0  0  0  0  0  0  0  0  0  0
    3.7110    6.4760  -13.0920 N   0  0  0  0  0  0  0  0  0  0  0  0
    4.9070    5.6690  -13.2040 C   0  0  0  0  0  2  0  0  0  0  0  0
    2.7450    6.0860  -12.0840 C   0  0  0  0  0  2  0  0  0  0  0  0
    4.4270    4.2230  -13.3870 C   0  0  0  0  0  2  0  0  0  0  0  0
    3.5560    3.9020  -12.3740 O   0  0  0  0  0  0  0  0  0  0  0  0
    2.3840    4.6290  -12.3850 C   0  0  0  0  0  2  0  0  0  0  0  0
  2  1  1  0  0  0  0
  3  2  1  0  0  0  0
  4  3  2  0  0  0  0
  5  6  2  0  0  0  0
  5  4  1  0  0  0  0
  6  7  1  0  0  0  0
  7  2  2  0  0  0  0
  8  9  2  0  0  0  0
  8  6  1  0  0  0  0
 10  8  1  0  0  0  0
 11 10  2  0  0  0  0
 11 12  1  0  0  0  0
 12  5  1  0  0  0  0
 13 12  1  0  0  0  0
 13 14  2  0  0  0  0
 14  4  1  0  0  0  0
 15 10  1  0  0  0  0
 15 17  1  0  0  0  0
 16 15  2  0  0  0  0
 17 19  1  0  0  0  0
 18 17  1  0  0  0  0
 20 18  1  0  0  0  0
 20 21  1  0  0  0  0
 22 21  1  0  0  0  0
 22 19  1  0  0  0  0
M  END
>  <Pose>
1

>  <Score>
-8.202

$$$$
