/Users/jonathanwahrer/Desktop/Msc/3_Semester/Drug_Design_Praktikum/waehrer_HTS_screening/HTS_experiment/out/docking_results/vina_output/6q9y/0625_docked.pdbqt
 OpenBabel03222219313D

 31 34  0  0  0  0  0  0  0  0999 V2000
   -0.9990    7.9330  -12.5060 Br  0  0  0  0  0  0  0  0  0  0  0  0
    0.7550    7.2920  -12.7600 C   0  0  0  0  0  0  0  0  0  0  0  0
    1.7220    8.0680  -13.3770 C   0  0  0  0  0  3  0  0  0  0  0  0
    2.9940    7.6210  -13.5880 C   0  0  0  0  0  0  0  0  0  0  0  0
    4.0810    8.2580  -14.1190 N   0  0  0  0  0  0  0  0  0  0  0  0
    5.1200    7.4090  -14.0330 C   0  0  0  0  0  0  0  0  0  0  0  0
    4.6760    6.1880  -13.4600 C   0  0  0  0  0  0  0  0  0  0  0  0
    3.3450    6.3790  -13.1920 C   0  0  0  0  0  0  0  0  0  0  0  0
    2.3880    5.5770  -12.5650 C   0  0  0  0  0  3  0  0  0  0  0  0
    1.0920    6.0190  -12.3420 C   0  0  0  0  0  0  0  0  0  0  0  0
    3.9290    9.4960  -14.9090 C   0  0  0  0  0  2  0  0  0  0  0  0
    3.5510   10.5870  -13.8820 C   0  0  0  0  0  0  0  0  0  0  0  0
    2.3050   11.1240  -14.0310 C   0  0  0  0  0  3  0  0  0  0  0  0
    1.8870   12.1130  -13.1260 C   0  0  0  0  0  3  0  0  0  0  0  0
    2.6700   12.5550  -12.1020 C   0  0  0  0  0  3  0  0  0  0  0  0
    3.9330   11.9730  -11.9890 C   0  0  0  0  0  3  0  0  0  0  0  0
    4.3650   10.9890  -12.8870 C   0  0  0  0  0  3  0  0  0  0  0  0
    6.5280    7.6230  -14.3680 C   0  0  0  0  0  2  0  0  0  0  0  0
    7.5340    7.0960  -13.4980 N   0  0  0  0  0  4  0  0  0  0  0  0
    8.0150    7.5620  -12.3200 C   0  0  0  0  0  2  0  0  0  0  0  0
    9.5140    7.1830  -12.2410 C   0  0  0  0  0  2  0  0  0  0  0  0
    9.5250    5.9560  -13.1500 C   0  0  0  0  0  2  0  0  0  0  0  0
    8.6360    6.4900  -14.2640 C   0  0  0  0  0  2  0  0  0  0  0  0
    7.0030    6.0790  -13.2250 H   0  0  0  0  0  0  0  0  0  0  0  0
    5.4110    4.9200  -13.3490 C   0  0  0  0  0  0  0  0  0  0  0  0
    6.2730    4.8310  -12.4350 O   0  0  0  0  0  0  0  0  0  0  0  0
    5.2320    3.8320  -14.1370 O   0  0  0  0  0  0  0  0  0  0  0  0
    4.4030    2.7330  -14.0190 C   0  0  0  0  0  2  0  0  0  0  0  0
    4.1250    2.2980  -12.5860 C   0  0  0  0  0  1  0  0  0  0  0  0
    0.1090    5.2400  -11.7060 O   0  0  0  0  0  0  0  0  0  0  0  0
   -0.5380    5.6940  -11.0440 H   0  0  0  0  0  0  0  0  0  0  0  0
  2  1  1  0  0  0  0
  2 10  1  0  0  0  0
  3  2  2  0  0  0  0
  4  3  1  0  0  0  0
  4  8  2  0  0  0  0
  5  6  1  0  0  0  0
  5  4  1  0  0  0  0
  6  7  2  0  0  0  0
  7 25  1  0  0  0  0
  7  8  1  0  0  0  0
  8  9  1  0  0  0  0
  9 10  2  0  0  0  0
 10 30  1  0  0  0  0
 11  5  1  0  0  0  0
 11 12  1  0  0  0  0
 12 17  1  0  0  0  0
 13 12  2  0  0  0  0
 13 14  1  0  0  0  0
 14 15  2  0  0  0  0
 15 16  1  0  0  0  0
 17 16  2  0  0  0  0
 18  6  1  0  0  0  0
 18 19  1  0  0  0  0
 19 24  1  0  0  0  0
 19 20  1  0  0  0  0
 20 21  1  0  0  0  0
 22 21  1  0  0  0  0
 23 19  1  0  0  0  0
 23 22  1  0  0  0  0
 25 26  2  0  0  0  0
 27 28  1  0  0  0  0
 27 25  1  0  0  0  0
 28 29  1  0  0  0  0
 30 31  1  0  0  0  0
M  END
>  <Pose>
1

>  <Score>
-7.341

$$$$
