/Users/jonathanwahrer/Desktop/Msc/3_Semester/Drug_Design_Praktikum/waehrer_HTS_screening/HTS_experiment/out/docking_results/vina_output/6q9y/0626_docked.pdbqt
 OpenBabel03222219323D

 32 35  0  0  0  0  0  0  0  0999 V2000
    2.4160    8.8080  -14.0470 N   0  0  0  0  0  0  0  0  0  0  0  0
    2.0650    9.9200  -13.2700 C   0  0  0  0  0  0  0  0  0  0  0  0
    2.6630   10.1500  -12.1880 O   0  0  0  0  0  0  0  0  0  0  0  0
    1.8670    8.7070  -14.9540 H   0  0  0  0  0  0  0  0  0  0  0  0
    1.0130   10.8740  -13.6350 C   0  0  0  0  0  2  0  0  0  0  0  0
   -0.3080   10.3980  -13.7490 N   0  0  0  0  0  0  0  0  0  0  0  0
   -0.6780    9.2540  -12.9970 C   0  0  0  0  0  2  0  0  0  0  0  0
   -1.9360    8.5830  -13.5480 C   0  0  0  0  0  2  0  0  0  0  0  0
   -2.9440    9.5510  -13.6270 N   0  0  0  0  0  0  0  0  0  0  0  0
   -2.6180   10.8970  -13.3570 C   0  0  0  0  0  2  0  0  0  0  0  0
   -1.3140   11.3940  -13.9050 C   0  0  0  0  0  2  0  0  0  0  0  0
   -4.0560    9.2380  -14.4050 C   0  0  0  0  0  2  0  0  0  0  0  0
   -5.3780    9.6610  -13.9430 C   0  0  0  0  0  0  0  0  0  0  0  0
   -5.6840    9.2910  -12.7440 O   0  0  0  0  0  0  0  0  0  0  0  0
   -6.3310   10.4050  -14.6310 N   0  0  0  0  0  0  0  0  0  0  0  0
   -6.1400   10.7410  -15.5960 H   0  0  0  0  0  0  0  0  0  0  0  0
   -7.6250   10.7700  -14.0630 C   0  0  0  0  0  3  0  0  0  0  0  0
   -7.8630   12.1200  -13.5270 C   0  0  0  0  0  2  0  0  0  0  0  0
   -8.4920   11.7290  -14.8510 C   0  0  0  0  0  2  0  0  0  0  0  0
    3.4100    7.8430  -13.7700 C   0  0  0  0  0  0  0  0  0  0  0  0
    3.0390    6.6480  -13.1750 C   0  0  0  0  0  0  0  0  0  0  0  0
    1.1850    6.4090  -12.7450 Br  0  0  0  0  0  0  0  0  0  0  0  0
    3.9260    5.6390  -12.8750 C   0  0  0  0  0  3  0  0  0  0  0  0
    5.2620    5.7780  -13.1590 C   0  0  0  0  0  0  0  0  0  0  0  0
    6.3670    5.0220  -13.0090 N   0  0  0  0  0  0  0  0  0  0  0  0
    5.6490    6.9500  -13.7450 C   0  0  0  0  0  0  0  0  0  0  0  0
    7.4480    5.6730  -13.4800 C   0  0  0  0  0  0  0  0  0  0  0  0
    6.9820    6.8530  -13.9260 N   0  0  0  0  0  0  0  0  0  0  0  0
    7.5740    7.6130  -14.3630 H   0  0  0  0  0  0  0  0  0  0  0  0
    4.7500    7.9800  -14.0530 C   0  0  0  0  0  3  0  0  0  0  0  0
    8.7750    5.2010  -13.4940 O   0  0  0  0  0  0  0  0  0  0  0  0
    9.4770    5.8650  -13.1410 H   0  0  0  0  0  0  0  0  0  0  0  0
  1 20  1  0  0  0  0
  1  2  1  0  0  0  0
  2  3  2  0  0  0  0
  4  1  1  0  0  0  0
  5  2  1  0  0  0  0
  6  5  1  0  0  0  0
  6  7  1  0  0  0  0
  8  7  1  0  0  0  0
  9  8  1  0  0  0  0
  9 10  1  0  0  0  0
 11  6  1  0  0  0  0
 11 10  1  0  0  0  0
 12 13  1  0  0  0  0
 12  9  1  0  0  0  0
 13 14  2  0  0  0  0
 15 17  1  0  0  0  0
 15 13  1  0  0  0  0
 16 15  1  0  0  0  0
 17 18  1  0  0  0  0
 19 17  1  0  0  0  0
 19 18  1  0  0  0  0
 20 21  1  0  0  0  0
 21 23  2  0  0  0  0
 21 22  1  0  0  0  0
 24 25  1  0  0  0  0
 24 23  1  0  0  0  0
 26 24  2  0  0  0  0
 27 25  2  0  0  0  0
 28 26  1  0  0  0  0
 28 27  1  0  0  0  0
 29 28  1  0  0  0  0
 30 20  2  0  0  0  0
 30 26  1  0  0  0  0
 31 27  1  0  0  0  0
 31 32  1  0  0  0  0
M  END
>  <Pose>
1

>  <Score>
-7.952

$$$$
