/Users/jonathanwahrer/Desktop/Msc/3_Semester/Drug_Design_Praktikum/waehrer_HTS_screening/HTS_experiment/out/docking_results/vina_output/6q9y/0631_docked.pdbqt
 OpenBabel03222219323D

 29 32  0  0  1  0  0  0  0  0999 V2000
    0.2380    7.8000  -13.6590 N   0  0  0  0  0  0  0  0  0  0  0  0
    1.0010    8.8950  -14.2980 C   0  0  0  0  0  2  0  0  0  0  0  0
    2.4270    8.3700  -14.2840 C   0  0  2  0  0  3  0  0  0  0  0  0
    2.4700    7.5510  -13.0110 C   0  0  0  0  0  2  0  0  0  0  0  0
    1.0630    7.2820  -12.6180 C   0  0  0  0  0  0  0  0  0  0  0  0
    0.6640    6.7200  -11.5890 O   0  0  0  0  0  0  0  0  0  0  0  0
    3.2860    9.5650  -14.2720 C   0  0  0  0  0  0  0  0  0  0  0  0
    4.2650    9.6690  -15.0470 O   0  0  0  0  0  0  0  0  0  0  0  0
    2.9730   10.6040  -13.3540 N   0  0  0  0  0  0  0  0  0  0  0  0
    2.1580   10.4720  -12.7240 H   0  0  0  0  0  0  0  0  0  0  0  0
    3.7600   11.8160  -13.2810 C   0  0  0  0  0  2  0  0  0  0  0  0
    3.6010   12.5360  -11.9590 C   0  0  0  0  0  2  0  0  0  0  0  0
    2.3730   13.3540  -11.9510 C   0  0  0  0  0  0  0  0  0  0  0  0
    1.2930   13.0880  -12.7040 N   0  0  0  0  0  0  0  0  0  0  0  0
    0.3430   13.9970  -12.4800 C   0  0  0  0  0  3  0  0  0  0  0  0
    0.8230   14.8740  -11.5570 N   0  0  0  0  0  0  0  0  0  0  0  0
    2.0580   14.4720  -11.2420 C   0  0  0  0  0  3  0  0  0  0  0  0
    0.2620   15.6860  -11.2120 H   0  0  0  0  0  0  0  0  0  0  0  0
   -1.0400    7.4290  -14.1140 C   0  0  0  0  0  0  0  0  0  0  0  0
   -1.4650    6.2960  -14.6910 N   0  0  0  0  0  0  0  0  0  0  0  0
   -2.7650    6.3550  -14.9630 N   0  0  0  0  0  0  0  0  0  0  0  0
   -0.8850    5.4630  -14.9110 H   0  0  0  0  0  0  0  0  0  0  0  0
   -3.2550    7.5440  -14.5710 C   0  0  0  0  0  0  0  0  0  0  0  0
   -4.5130    8.0990  -14.6220 C   0  0  0  0  0  3  0  0  0  0  0  0
   -2.1970    8.2300  -14.0390 C   0  0  0  0  0  0  0  0  0  0  0  0
   -4.6700    9.3860  -14.1100 C   0  0  0  0  0  0  0  0  0  0  0  0
   -6.3780   10.2520  -14.1300 Br  0  0  0  0  0  0  0  0  0  0  0  0
   -3.5860   10.0660  -13.5740 C   0  0  0  0  0  3  0  0  0  0  0  0
   -2.3390    9.4920  -13.5350 C   0  0  0  0  0  3  0  0  0  0  0  0
  1  5  1  0  0  0  0
  2  3  1  0  0  0  0
  2  1  1  0  0  0  0
  3  7  1  1  0  0  0
  3  4  1  0  0  0  0
  4  5  1  0  0  0  0
  5  6  2  0  0  0  0
  7  9  1  0  0  0  0
  8  7  2  0  0  0  0
  9 11  1  0  0  0  0
  9 10  1  0  0  0  0
 11 12  1  0  0  0  0
 12 13  1  0  0  0  0
 13 17  2  0  0  0  0
 14 15  2  0  0  0  0
 14 13  1  0  0  0  0
 15 16  1  0  0  0  0
 16 17  1  0  0  0  0
 16 18  1  0  0  0  0
 19 25  2  0  0  0  0
 19  1  1  0  0  0  0
 20 19  1  0  0  0  0
 21 20  1  0  0  0  0
 21 23  2  0  0  0  0
 22 20  1  0  0  0  0
 23 25  1  0  0  0  0
 24 23  1  0  0  0  0
 24 26  2  0  0  0  0
 25 29  1  0  0  0  0
 26 28  1  0  0  0  0
 27 26  1  0  0  0  0
 28 29  2  0  0  0  0
M  END
>  <Pose>
1

>  <Score>
-8.995

$$$$
