/Users/jonathanwahrer/Desktop/Msc/3_Semester/Drug_Design_Praktikum/waehrer_HTS_screening/HTS_experiment/out/docking_results/vina_output/6q9y/0653_docked.pdbqt
 OpenBabel03222219323D

 29 32  0  0  0  0  0  0  0  0999 V2000
   -0.0250   12.1960  -13.3280 C   0  0  0  0  0  0  0  0  0  0  0  0
    1.2940   12.3830  -13.0030 C   0  0  0  0  0  0  0  0  0  0  0  0
    2.1600   11.3120  -12.8720 C   0  0  0  0  0  0  0  0  0  0  0  0
    1.7220   10.0200  -13.0640 C   0  0  0  0  0  0  0  0  0  0  0  0
    0.3700    9.8140  -13.3970 C   0  0  0  0  0  0  0  0  0  0  0  0
   -0.4860   10.8750  -13.5270 C   0  0  0  0  0  0  0  0  0  0  0  0
   -1.8890   10.6470  -13.8840 C   0  0  0  0  0  2  0  0  0  0  0  0
   -2.4510    9.3060  -13.6290 C   0  0  0  0  0  2  0  0  0  0  0  0
   -1.4940    8.2210  -13.8060 N   0  0  0  0  0  0  0  0  0  0  0  0
   -0.1170    8.4450  -13.5370 C   0  0  0  0  0  0  0  0  0  0  0  0
    0.6600    7.4490  -13.4230 O   0  0  0  0  0  0  0  0  0  0  0  0
   -2.0240    6.9480  -14.2370 C   0  0  0  0  0  1  0  0  0  0  0  0
    3.3930   11.8420  -12.5470 O   0  0  0  0  0  0  0  0  0  0  0  0
    3.3710   13.2430  -12.6480 C   0  0  0  0  0  2  0  0  0  0  0  0
    1.9920   13.5870  -12.7560 O   0  0  0  0  0  0  0  0  0  0  0  0
   -0.9840   13.3160  -13.4330 C   0  0  0  0  0  2  0  0  0  0  0  0
   -0.6350   14.4540  -12.6020 N   0  0  0  0  0  0  0  0  0  0  0  0
   -0.3090   15.7400  -12.9730 C   0  0  0  0  0  0  0  0  0  0  0  0
   -0.2750   16.0940  -14.1950 O   0  0  0  0  0  0  0  0  0  0  0  0
   -0.6490   14.2240  -11.5580 H   0  0  0  0  0  0  0  0  0  0  0  0
    0.0200   16.7730  -11.9540 C   0  0  0  0  0  2  0  0  0  0  0  0
   -1.1780   17.6220  -11.8090 N   0  0  0  0  0  0  0  0  0  0  0  0
   -1.4420   18.4840  -10.8330 C   0  0  0  0  0  3  0  0  0  0  0  0
   -2.6640   19.0620  -11.0910 C   0  0  0  0  0  0  0  0  0  0  0  0
   -3.5800   20.3720  -10.0480 Br  0  0  0  0  0  0  0  0  0  0  0  0
   -3.1440   18.5230  -12.2630 C   0  0  0  0  0  3  0  0  0  0  0  0
   -2.2020   17.6530  -12.6580 N   0  0  0  0  0  0  0  0  0  0  0  0
    2.5590    8.9250  -12.9430 O   0  0  0  0  0  0  0  0  0  0  0  0
    3.6540    8.7410  -13.8160 C   0  0  0  0  0  1  0  0  0  0  0  0
  1  2  1  0  0  0  0
  2  3  2  0  0  0  0
  2 15  1  0  0  0  0
  3 13  1  0  0  0  0
  4 28  1  0  0  0  0
  4  3  1  0  0  0  0
  5  4  2  0  0  0  0
  6  5  1  0  0  0  0
  6  1  2  0  0  0  0
  7  8  1  0  0  0  0
  7  6  1  0  0  0  0
  9  8  1  0  0  0  0
  9 10  1  0  0  0  0
 10 11  2  0  0  0  0
 10  5  1  0  0  0  0
 12  9  1  0  0  0  0
 14 13  1  0  0  0  0
 15 14  1  0  0  0  0
 16  1  1  0  0  0  0
 16 17  1  0  0  0  0
 17 20  1  0  0  0  0
 18 17  1  0  0  0  0
 18 21  1  0  0  0  0
 19 18  2  0  0  0  0
 21 22  1  0  0  0  0
 22 23  1  0  0  0  0
 24 23  2  0  0  0  0
 24 25  1  0  0  0  0
 26 24  1  0  0  0  0
 27 26  2  0  0  0  0
 27 22  1  0  0  0  0
 29 28  1  0  0  0  0
M  END
>  <Pose>
1

>  <Score>
-9.020

$$$$
