/Users/jonathanwahrer/Desktop/Msc/3_Semester/Drug_Design_Praktikum/waehrer_HTS_screening/HTS_experiment/out/docking_results/vina_output/6q9y/0662_docked.pdbqt
 OpenBabel03222219333D

 25 29  0  0  0  0  0  0  0  0999 V2000
   -5.7870   21.7630   -9.5060 C   0  0  0  0  0  0  0  0  0  0  0  0
   -6.2170   21.1930  -10.6420 N   0  0  0  0  0  0  0  0  0  0  0  0
   -5.3000   20.3430  -11.1070 N   0  0  0  0  0  0  0  0  0  0  0  0
   -4.2470   20.3670  -10.2400 C   0  0  0  0  0  0  0  0  0  0  0  0
   -4.5710   21.2440   -9.2700 N   0  0  0  0  0  0  0  0  0  0  0  0
   -3.1610   19.5620  -10.5080 C   0  0  0  0  0  0  0  0  0  0  0  0
   -3.1000   18.7350  -11.6160 C   0  0  0  0  0  0  0  0  0  0  0  0
   -1.9280   18.0770  -11.6110 N   0  0  0  0  0  0  0  0  0  0  0  0
   -1.2650   18.4700  -10.5360 N   0  0  0  0  0  0  0  0  0  0  0  0
   -1.9820   19.3750   -9.8380 C   0  0  0  0  0  3  0  0  0  0  0  0
   -4.1600   18.7450  -12.4400 N   0  0  0  0  0  0  0  0  0  0  0  0
   -5.2160   19.5310  -12.1750 C   0  0  0  0  0  3  0  0  0  0  0  0
   -1.5810   17.3830  -12.3070 H   0  0  0  0  0  0  0  0  0  0  0  0
   -6.5110   22.7460   -8.7020 C   0  0  0  0  0  0  0  0  0  0  0  0
   -6.0380   23.5190   -7.7100 N   0  0  0  0  0  0  0  0  0  0  0  0
   -6.9890   24.2890   -7.2110 N   0  0  0  0  0  0  0  0  0  0  0  0
   -8.1370   24.0460   -7.8670 C   0  0  0  0  0  3  0  0  0  0  0  0
   -7.8470   23.0690   -8.8130 C   0  0  0  0  0  3  0  0  0  0  0  0
   -6.8150   25.2520   -6.1200 C   0  0  0  0  0  2  0  0  0  0  0  0
   -5.5660   25.9740   -6.2460 N   0  0  0  0  0  0  0  0  0  0  0  0
   -4.5180   25.8970   -5.4100 C   0  0  0  0  0  3  0  0  0  0  0  0
   -3.5290   26.7380   -5.8790 C   0  0  0  0  0  0  0  0  0  0  0  0
   -1.8310   27.0310   -5.1000 Br  0  0  0  0  0  0  0  0  0  0  0  0
   -4.0240   27.3200   -7.0250 C   0  0  0  0  0  3  0  0  0  0  0  0
   -5.2690   26.8250   -7.2110 N   0  0  0  0  0  0  0  0  0  0  0  0
  1  5  1  0  0  0  0
  1 14  1  0  0  0  0
  2  1  2  0  0  0  0
  3  2  1  0  0  0  0
  3  4  1  0  0  0  0
  4  5  2  0  0  0  0
  6  4  1  0  0  0  0
  6 10  1  0  0  0  0
  7  8  1  0  0  0  0
  7  6  2  0  0  0  0
  8  9  1  0  0  0  0
  9 10  2  0  0  0  0
 11 12  2  0  0  0  0
 11  7  1  0  0  0  0
 12  3  1  0  0  0  0
 13  8  1  0  0  0  0
 14 15  2  0  0  0  0
 15 16  1  0  0  0  0
 16 19  1  0  0  0  0
 17 16  1  0  0  0  0
 18 14  1  0  0  0  0
 18 17  2  0  0  0  0
 20 19  1  0  0  0  0
 20 21  1  0  0  0  0
 22 21  2  0  0  0  0
 22 23  1  0  0  0  0
 24 22  1  0  0  0  0
 25 24  2  0  0  0  0
 25 20  1  0  0  0  0
M  END
>  <Pose>
1

>  <Score>
-9.036

$$$$
