/Users/jonathanwahrer/Desktop/Msc/3_Semester/Drug_Design_Praktikum/waehrer_HTS_screening/HTS_experiment/out/docking_results/vina_output/6q9y/0663_docked.pdbqt
 OpenBabel03222219333D

 28 31  0  0  1  0  0  0  0  0999 V2000
    0.9680    7.5760  -13.7360 C   0  0  0  0  0  0  0  0  0  0  0  0
    1.2450    6.6970  -12.8270 O   0  0  0  0  0  0  0  0  0  0  0  0
    2.0570    8.1380  -14.3800 N   0  0  0  0  0  0  0  0  0  0  0  0
    2.1420    9.0860  -15.4580 C   0  0  0  0  0  2  0  0  0  0  0  0
    2.4370   10.4390  -14.8400 C   0  0  0  0  0  2  0  0  0  0  0  0
    3.3880   10.2890  -13.6700 C   0  0  1  0  0  0  0  0  0  0  0  0
    4.2990   11.4120  -13.7130 N   0  0  0  0  0  0  0  0  0  0  0  0
    3.6790   12.5010  -13.0470 C   0  0  0  0  0  0  0  0  0  0  0  0
    3.9530   13.7420  -13.1480 O   0  0  0  0  0  0  0  0  0  0  0  0
    2.6560   11.9410  -12.2080 N   0  0  0  0  0  0  0  0  0  0  0  0
    2.6840   10.5100  -12.3930 C   0  0  0  0  0  0  0  0  0  0  0  0
    2.1920    9.6870  -11.5910 O   0  0  0  0  0  0  0  0  0  0  0  0
    4.1890    9.0270  -13.7110 C   0  0  0  0  0  2  0  0  0  0  0  0
    3.4150    7.7640  -13.8730 C   0  0  0  0  0  2  0  0  0  0  0  0
    5.2430   11.4590  -14.1430 H   0  0  0  0  0  0  0  0  0  0  0  0
    1.9910   12.4280  -11.5690 H   0  0  0  0  0  0  0  0  0  0  0  0
   -0.4450    7.8170  -13.9190 C   0  0  0  0  0  0  0  0  0  0  0  0
   -0.9930    9.0510  -13.5120 C   0  0  0  0  0  3  0  0  0  0  0  0
   -2.3130    9.3690  -13.6870 C   0  0  0  0  0  3  0  0  0  0  0  0
   -3.1980    8.5000  -14.2770 C   0  0  0  0  0  0  0  0  0  0  0  0
   -2.6930    7.2950  -14.6820 C   0  0  0  0  0  3  0  0  0  0  0  0
   -1.3410    6.9570  -14.5100 C   0  0  0  0  0  3  0  0  0  0  0  0
   -4.5620    8.8570  -14.4450 N   0  0  0  0  0  0  0  0  0  0  0  0
   -5.2150    9.9290  -13.9630 C   0  0  0  0  0  3  0  0  0  0  0  0
   -6.5310    9.8830  -14.3680 C   0  0  0  0  0  0  0  0  0  0  0  0
   -7.9210   11.1560  -13.9720 Br  0  0  0  0  0  0  0  0  0  0  0  0
   -6.6430    8.7340  -15.1180 C   0  0  0  0  0  3  0  0  0  0  0  0
   -5.4420    8.1590  -15.1320 N   0  0  0  0  0  0  0  0  0  0  0  0
  1  2  2  0  0  0  0
  3 14  1  0  0  0  0
  3  1  1  0  0  0  0
  4  5  1  0  0  0  0
  4  3  1  0  0  0  0
  6  5  1  6  0  0  0
  6 11  1  0  0  0  0
  7  6  1  0  0  0  0
  7  8  1  0  0  0  0
  8 10  1  0  0  0  0
  9  8  2  0  0  0  0
 10 16  1  0  0  0  0
 11 10  1  0  0  0  0
 11 12  2  0  0  0  0
 13  6  1  0  0  0  0
 14 13  1  0  0  0  0
 15  7  1  0  0  0  0
 17  1  1  0  0  0  0
 17 18  1  0  0  0  0
 19 18  2  0  0  0  0
 20 19  1  0  0  0  0
 21 22  1  0  0  0  0
 21 20  2  0  0  0  0
 22 17  2  0  0  0  0
 23 20  1  0  0  0  0
 23 24  1  0  0  0  0
 25 26  1  0  0  0  0
 25 24  2  0  0  0  0
 27 25  1  0  0  0  0
 28 27  2  0  0  0  0
 28 23  1  0  0  0  0
M  END
>  <Pose>
1

>  <Score>
-8.417

$$$$
