/Users/jonathanwahrer/Desktop/Msc/3_Semester/Drug_Design_Praktikum/waehrer_HTS_screening/HTS_experiment/out/docking_results/vina_output/6q9y/0666_docked.pdbqt
 OpenBabel03222219333D

 28 31  0  0  0  0  0  0  0  0999 V2000
    2.2980    6.4690  -12.4900 C   0  0  0  0  0  0  0  0  0  0  0  0
    2.9820    7.3600  -13.1450 C   0  0  0  0  0  0  0  0  0  0  0  0
    4.2160    6.7030  -13.5800 C   0  0  0  0  0  0  0  0  0  0  0  0
    5.1280    7.2810  -14.2500 O   0  0  0  0  0  0  0  0  0  0  0  0
    4.2510    5.3340  -13.1490 N   0  0  0  0  0  0  0  0  0  0  0  0
    3.0190    5.1730  -12.4460 C   0  0  0  0  0  0  0  0  0  0  0  0
    2.6180    4.1170  -11.8900 O   0  0  0  0  0  0  0  0  0  0  0  0
    1.0350    6.5980  -11.8650 N   0  0  0  0  0  0  0  0  0  0  0  0
    0.9510    6.5790  -10.8490 H   0  0  0  0  0  0  0  0  0  0  0  0
   -0.1030    6.7530  -12.6890 C   0  0  0  0  0  0  0  0  0  0  0  0
   -0.6250    5.7050  -13.3810 N   0  0  0  0  0  0  0  0  0  0  0  0
   -1.6900    5.8020  -14.1860 C   0  0  0  0  0  3  0  0  0  0  0  0
   -2.3330    6.9990  -14.3620 C   0  0  0  0  0  0  0  0  0  0  0  0
   -3.8500    7.1750  -15.5120 Br  0  0  0  0  0  0  0  0  0  0  0  0
   -1.8590    8.1020  -13.6910 C   0  0  0  0  0  3  0  0  0  0  0  0
   -0.7690    7.9710  -12.8740 C   0  0  0  0  0  3  0  0  0  0  0  0
    2.6410    8.7190  -13.4230 N   0  0  0  0  0  0  0  0  0  0  0  0
    2.2010    9.0630  -14.6470 C   0  0  0  0  0  2  0  0  0  0  0  0
    1.8640   10.3930  -14.9560 C   0  0  0  0  0  3  0  0  0  0  0  0
    1.9850   11.3750  -13.9920 C   0  0  0  0  0  3  0  0  0  0  0  0
    2.4370   10.9980  -12.7460 C   0  0  0  0  0  3  0  0  0  0  0  0
    2.7540    9.6910  -12.4850 C   0  0  0  0  0  3  0  0  0  0  0  0
    5.2800    4.3830  -13.3690 C   0  0  0  0  0  0  0  0  0  0  0  0
    6.5640    4.5400  -12.9120 C   0  0  0  0  0  3  0  0  0  0  0  0
    7.5580    3.5640  -13.1350 C   0  0  0  0  0  3  0  0  0  0  0  0
    7.2610    2.4120  -13.8270 C   0  0  0  0  0  3  0  0  0  0  0  0
    5.9790    2.2510  -14.2860 C   0  0  0  0  0  3  0  0  0  0  0  0
    5.0080    3.2270  -14.0560 C   0  0  0  0  0  3  0  0  0  0  0  0
  1  6  1  0  0  0  0
  1  8  1  0  0  0  0
  2  1  2  0  0  0  0
  3  5  1  0  0  0  0
  3  2  1  0  0  0  0
  4  3  2  0  0  0  0
  5  6  1  0  0  0  0
  6  7  2  0  0  0  0
  8  9  1  0  0  0  0
 10  8  1  0  0  0  0
 11 10  2  0  0  0  0
 12 11  1  0  0  0  0
 13 12  2  0  0  0  0
 13 15  1  0  0  0  0
 14 13  1  0  0  0  0
 15 16  2  0  0  0  0
 16 10  1  0  0  0  0
 17  2  1  0  0  0  0
 17 22  1  0  0  0  0
 18 17  1  0  0  0  0
 19 18  1  0  0  0  0
 19 20  2  0  0  0  0
 20 21  1  0  0  0  0
 21 22  2  0  0  0  0
 23  5  1  0  0  0  0
 23 24  1  0  0  0  0
 25 24  2  0  0  0  0
 26 25  1  0  0  0  0
 27 28  1  0  0  0  0
 27 26  2  0  0  0  0
 28 23  2  0  0  0  0
M  END
>  <Pose>
1

>  <Score>
-8.452

$$$$
