/Users/jonathanwahrer/Desktop/Msc/3_Semester/Drug_Design_Praktikum/waehrer_HTS_screening/HTS_experiment/out/docking_results/vina_output/6q9y/0680_docked.pdbqt
 OpenBabel03222219333D

 24 27  0  0  1  0  0  0  0  0999 V2000
   -4.3130    8.5080  -14.3120 C   0  0  0  0  0  0  0  0  0  0  0  0
   -4.4700    7.3010  -14.7270 O   0  0  0  0  0  0  0  0  0  0  0  0
   -3.0010    8.9240  -14.0170 N   0  0  0  0  0  0  0  0  0  0  0  0
   -2.3060   10.0760  -13.5340 C   0  0  0  0  0  2  0  0  0  0  0  0
   -1.2280    9.1150  -13.0020 C   0  0  1  0  0  3  0  0  0  0  0  0
   -1.6810    8.2710  -14.1310 C   0  0  0  0  0  2  0  0  0  0  0  0
    0.0870    9.6890  -13.0870 N   0  0  0  0  0  0  0  0  0  0  0  0
    0.4620   11.0000  -13.5510 C   0  0  0  0  0  0  0  0  0  0  0  0
   -0.2830   11.9950  -13.5460 O   0  0  0  0  0  0  0  0  0  0  0  0
    1.8880   10.8700  -14.0110 C   0  0  1  0  0  3  0  0  0  0  0  0
    2.4280    9.9480  -12.9440 C   0  0  2  0  0  3  0  0  0  0  0  0
    1.8530   10.2720  -15.3760 C   0  0  0  0  0  2  0  0  0  0  0  0
    3.6750    9.2480  -13.4070 C   0  0  0  0  0  2  0  0  0  0  0  0
    1.2930    9.0330  -12.7120 C   0  0  0  0  0  0  0  0  0  0  0  0
    3.3790    8.4610  -14.6350 C   0  0  0  0  0  3  0  0  0  0  0  0
    2.5360    8.9770  -15.5060 C   0  0  0  0  0  3  0  0  0  0  0  0
    1.4280    7.8710  -12.2550 O   0  0  0  0  0  0  0  0  0  0  0  0
   -5.5260    9.2830  -14.2030 C   0  0  0  0  0  0  0  0  0  0  0  0
   -5.9070    9.8360  -12.9720 C   0  0  0  0  0  3  0  0  0  0  0  0
   -7.0270   10.5490  -12.8150 N   0  0  0  0  0  0  0  0  0  0  0  0
   -7.8640   10.7800  -13.8580 C   0  0  0  0  0  3  0  0  0  0  0  0
   -7.5670   10.2740  -15.1010 C   0  0  0  0  0  0  0  0  0  0  0  0
   -8.7580   10.6090  -16.5490 Br  0  0  0  0  0  0  0  0  0  0  0  0
   -6.4010    9.5380  -15.2340 C   0  0  0  0  0  3  0  0  0  0  0  0
  1 18  1  0  0  0  0
  1  3  1  0  0  0  0
  2  1  2  0  0  0  0
  3  4  1  0  0  0  0
  4  5  1  0  0  0  0
  5  6  1  6  0  0  0
  6  3  1  0  0  0  0
  7  5  1  0  0  0  0
  7 14  1  0  0  0  0
  8  9  2  0  0  0  0
  8  7  1  0  0  0  0
 10 12  1  6  0  0  0
 10  8  1  0  0  0  0
 10 11  1  0  0  0  0
 11 13  1  6  0  0  0
 11 14  1  0  0  0  0
 14 17  2  0  0  0  0
 15 13  1  0  0  0  0
 16 12  1  0  0  0  0
 16 15  2  0  0  0  0
 18 19  1  0  0  0  0
 19 20  2  0  0  0  0
 21 20  1  0  0  0  0
 22 21  2  0  0  0  0
 23 22  1  0  0  0  0
 24 22  1  0  0  0  0
 24 18  2  0  0  0  0
M  END
>  <Pose>
1

>  <Score>
-8.360

$$$$
