/Users/jonathanwahrer/Desktop/Msc/3_Semester/Drug_Design_Praktikum/waehrer_HTS_screening/HTS_experiment/out/docking_results/vina_output/6q9y/0681_docked.pdbqt
 OpenBabel03222219333D

 25 28  0  0  1  0  0  0  0  0999 V2000
   -2.9400    7.2150  -14.5220 C   0  0  0  0  0  0  0  0  0  0  0  0
   -2.9490    6.0510  -15.0300 O   0  0  0  0  0  0  0  0  0  0  0  0
   -4.1160    7.9740  -14.5640 N   0  0  0  0  0  0  0  0  0  0  0  0
   -4.6320    9.2540  -14.1580 C   0  0  0  0  0  2  0  0  0  0  0  0
   -6.0560    8.8700  -14.5330 C   0  0  2  0  0  3  0  0  0  0  0  0
   -5.4300    7.6620  -15.1600 C   0  0  0  0  0  2  0  0  0  0  0  0
   -6.7340    9.7300  -15.3940 O   0  0  0  0  0  0  0  0  0  0  0  0
   -7.5810   10.7540  -15.0210 C   0  0  2  0  0  3  0  0  0  0  0  0
   -7.3430   11.4320  -13.9020 C   0  0  0  0  0  3  0  0  0  0  0  0
   -8.2000   12.5240  -13.4540 C   0  0  0  0  0  0  0  0  0  0  0  0
   -7.9330   13.1770  -12.3370 C   0  0  0  0  0  1  0  0  0  0  0  0
   -9.3220   12.8500  -14.2620 N   0  0  0  0  0  0  0  0  0  0  0  0
   -9.5540   12.1000  -15.4640 C   0  0  0  0  0  0  0  0  0  0  0  0
   -9.9360   13.6230  -13.9540 H   0  0  0  0  0  0  0  0  0  0  0  0
   -8.7280   11.1070  -15.8210 N   0  0  0  0  0  0  0  0  0  0  0  0
  -10.5110   12.1820  -16.3930 N   0  0  0  0  0  0  0  0  0  0  0  0
   -9.1660   10.5730  -16.9650 N   0  0  0  0  0  0  0  0  0  0  0  0
  -10.2700   11.2430  -17.3140 C   0  0  0  0  0  3  0  0  0  0  0  0
   -1.7120    7.6850  -13.9310 C   0  0  0  0  0  0  0  0  0  0  0  0
   -1.3570    8.9930  -13.7150 C   0  0  0  0  0  3  0  0  0  0  0  0
   -0.1740    9.3560  -13.1390 N   0  0  0  0  0  0  0  0  0  0  0  0
    0.7330    8.4580  -12.7380 C   0  0  0  0  0  3  0  0  0  0  0  0
    0.4330    7.1280  -12.9280 C   0  0  0  0  0  0  0  0  0  0  0  0
    1.7140    5.8100  -12.3640 Br  0  0  0  0  0  0  0  0  0  0  0  0
   -0.7510    6.7490  -13.5060 C   0  0  0  0  0  3  0  0  0  0  0  0
  1 19  1  0  0  0  0
  2  1  2  0  0  0  0
  3  1  1  0  0  0  0
  3  4  1  0  0  0  0
  5  7  1  6  0  0  0
  5  4  1  0  0  0  0
  6  3  1  0  0  0  0
  6  5  1  0  0  0  0
  8  7  1  1  0  0  0
  8  9  1  0  0  0  0
  9 10  2  0  0  0  0
 10 11  1  0  0  0  0
 12 14  1  0  0  0  0
 12 10  1  0  0  0  0
 13 12  1  0  0  0  0
 15 13  1  0  0  0  0
 15  8  1  0  0  0  0
 16 13  2  0  0  0  0
 17 15  1  0  0  0  0
 18 17  2  0  0  0  0
 18 16  1  0  0  0  0
 19 20  2  0  0  0  0
 19 25  1  0  0  0  0
 20 21  1  0  0  0  0
 21 22  2  0  0  0  0
 23 22  1  0  0  0  0
 23 24  1  0  0  0  0
 25 23  2  0  0  0  0
M  END
>  <Pose>
1

>  <Score>
-8.919

$$$$
