/Users/jonathanwahrer/Desktop/Msc/3_Semester/Drug_Design_Praktikum/waehrer_HTS_screening/HTS_experiment/out/docking_results/vina_output/6q9y/0696_docked.pdbqt
 OpenBabel03222219343D

 28 31  0  0  1  0  0  0  0  0999 V2000
   -3.2720    9.1270  -14.7140 Br  0  0  0  0  0  0  0  0  0  0  0  0
   -2.0930    7.8390  -13.9700 C   0  0  0  0  0  0  0  0  0  0  0  0
   -0.8050    8.2330  -13.5830 C   0  0  0  0  0  0  0  0  0  0  0  0
    0.0810    7.3550  -13.0370 C   0  0  0  0  0  0  0  0  0  0  0  0
   -0.3110    6.0390  -12.8650 C   0  0  0  0  0  3  0  0  0  0  0  0
   -1.5870    5.6390  -13.2470 C   0  0  0  0  0  0  0  0  0  0  0  0
   -2.4800    6.5290  -13.7980 C   0  0  0  0  0  3  0  0  0  0  0  0
   -2.0480    4.2320  -13.0790 C   0  0  0  0  0  1  0  0  0  0  0  0
    1.4280    7.8070  -12.5940 C   0  0  1  0  0  3  0  0  0  0  0  0
    2.0350    8.9350  -13.3480 C   0  0  0  0  0  0  0  0  0  0  0  0
    0.9870    9.6270  -14.2530 C   0  0  0  0  0  2  0  0  0  0  0  0
   -0.3230    9.5270  -13.7210 O   0  0  0  0  0  0  0  0  0  0  0  0
    3.0870    8.4850  -14.3440 C   0  0  0  0  0  2  0  0  0  0  0  0
    4.3300    8.0420  -13.7500 N   0  0  0  0  0  4  0  0  0  0  0  0
    5.4420    8.3710  -14.6410 C   0  0  0  0  0  2  0  0  0  0  0  0
    6.5580    7.4420  -14.3330 C   0  0  0  0  0  2  0  0  0  0  0  0
    5.9540    6.4420  -13.4070 C   0  0  0  0  0  2  0  0  0  0  0  0
    4.4600    6.5950  -13.7240 C   0  0  0  0  0  2  0  0  0  0  0  0
    4.5050    8.3710  -12.7890 H   0  0  0  0  0  0  0  0  0  0  0  0
    2.5030   10.0260  -12.4610 C   0  0  0  0  0  2  0  0  0  0  0  0
    2.9820   11.2710  -12.7740 N   0  0  0  0  0  4  0  0  0  0  0  0
    1.8800   12.2590  -12.7700 C   0  0  0  0  0  2  0  0  0  0  0  0
    2.4570   13.5330  -12.2880 C   0  0  0  0  0  2  0  0  0  0  0  0
    3.6510   13.1830  -11.4860 C   0  0  0  0  0  2  0  0  0  0  0  0
    4.0440   11.8100  -12.0300 C   0  0  0  0  0  2  0  0  0  0  0  0
    3.2490   11.3390  -13.8530 H   0  0  0  0  0  0  0  0  0  0  0  0
    1.2150    8.0930  -11.2170 O   0  0  0  0  0  0  0  0  0  0  0  0
    2.0590    8.1850  -10.7410 H   0  0  0  0  0  0  0  0  0  0  0  0
  1  2  1  0  0  0  0
  2  7  2  0  0  0  0
  2  3  1  0  0  0  0
  3  4  2  0  0  0  0
  4  5  1  0  0  0  0
  4  9  1  0  0  0  0
  6  8  1  0  0  0  0
  6  5  2  0  0  0  0
  7  6  1  0  0  0  0
  9 27  1  1  0  0  0
 10  9  1  0  0  0  0
 10 20  1  0  0  0  0
 11 12  1  0  0  0  0
 11 10  1  0  0  0  0
 12  3  1  0  0  0  0
 13 14  1  0  0  0  0
 13 10  1  0  0  0  0
 14 18  1  0  0  0  0
 14 19  1  0  0  0  0
 15 16  1  0  0  0  0
 15 14  1  0  0  0  0
 16 17  1  0  0  0  0
 18 17  1  0  0  0  0
 21 22  1  0  0  0  0
 21 20  1  0  0  0  0
 21 25  1  0  0  0  0
 22 23  1  0  0  0  0
 23 24  1  0  0  0  0
 25 24  1  0  0  0  0
 26 21  1  0  0  0  0
 27 28  1  0  0  0  0
M  END
>  <Pose>
1

>  <Score>
-6.540

$$$$
