/Users/jonathanwahrer/Desktop/Msc/3_Semester/Drug_Design_Praktikum/waehrer_HTS_screening/HTS_experiment/out/docking_results/vina_output/6q9y/0699_docked.pdbqt
 OpenBabel03222219353D

 32 35  0  0  1  0  0  0  0  0999 V2000
   -4.6310    9.0320  -14.6810 C   0  0  2  0  0  3  0  0  0  0  0  0
   -5.8280    9.0170  -13.7640 C   0  0  0  0  0  2  0  0  0  0  0  0
   -6.4080   10.2990  -13.6270 O   0  0  0  0  0  0  0  0  0  0  0  0
   -7.3890   10.6670  -14.5460 C   0  0  0  0  0  0  0  0  0  0  0  0
   -8.1490   11.8090  -14.3820 C   0  0  0  0  0  0  0  0  0  0  0  0
   -7.8200   12.8870  -12.8500 Br  0  0  0  0  0  0  0  0  0  0  0  0
   -9.1250   12.1910  -15.2810 C   0  0  0  0  0  0  0  0  0  0  0  0
   -9.3850   11.4290  -16.4010 C   0  0  0  0  0  0  0  0  0  0  0  0
   -9.8830   13.3370  -15.1120 C   0  0  0  0  0  3  0  0  0  0  0  0
   -8.6320   10.2860  -16.5720 C   0  0  0  0  0  3  0  0  0  0  0  0
  -10.3650   11.8120  -17.3020 C   0  0  0  0  0  3  0  0  0  0  0  0
   -7.6570    9.9110  -15.6690 C   0  0  0  0  0  3  0  0  0  0  0  0
  -11.1190   12.9550  -17.1310 C   0  0  0  0  0  3  0  0  0  0  0  0
  -10.8600   13.7190  -16.0100 C   0  0  0  0  0  3  0  0  0  0  0  0
   -4.8710    8.4350  -15.8920 O   0  0  0  0  0  0  0  0  0  0  0  0
   -4.3620    8.7970  -16.6390 H   0  0  0  0  0  0  0  0  0  0  0  0
   -3.4320    8.4700  -13.9990 C   0  0  0  0  0  2  0  0  0  0  0  0
   -2.6460    9.4540  -13.2890 N   0  0  0  0  0  4  0  0  0  0  0  0
   -2.5610   10.6230  -14.1460 C   0  0  0  0  0  2  0  0  0  0  0  0
   -1.5430   11.6470  -13.6220 C   0  0  0  0  0  2  0  0  0  0  0  0
   -0.2770   11.0160  -13.5100 N   0  0  0  0  0  0  0  0  0  0  0  0
   -0.2690    9.5780  -13.8470 C   0  0  0  0  0  2  0  0  0  0  0  0
    0.9090   11.6480  -13.1180 C   0  0  0  0  0  0  0  0  0  0  0  0
   -1.3240    8.8990  -13.0390 C   0  0  0  0  0  2  0  0  0  0  0  0
    1.9500   10.8320  -13.0940 O   0  0  0  0  0  0  0  0  0  0  0  0
   -3.0670    9.7560  -12.3850 H   0  0  0  0  0  0  0  0  0  0  0  0
    1.2030   12.9920  -12.7410 C   0  0  0  0  0  0  0  0  0  0  0  0
    0.3380   14.0490  -12.7380 C   0  0  0  0  0  3  0  0  0  0  0  0
    0.6900   15.3380  -12.3590 C   0  0  0  0  0  3  0  0  0  0  0  0
    1.9590   15.6070  -11.9600 C   0  0  0  0  0  3  0  0  0  0  0  0
    2.8580   14.5600  -11.9510 C   0  0  0  0  0  3  0  0  0  0  0  0
    2.5100   13.2870  -12.3270 C   0  0  0  0  0  3  0  0  0  0  0  0
  1 17  1  1  0  0  0
  1  2  1  0  0  0  0
  2  3  1  0  0  0  0
  4  5  1  0  0  0  0
  4  3  1  0  0  0  0
  5  6  1  0  0  0  0
  7  9  1  0  0  0  0
  7  5  2  0  0  0  0
  8  7  1  0  0  0  0
 10  8  2  0  0  0  0
 10 12  1  0  0  0  0
 11 13  2  0  0  0  0
 11  8  1  0  0  0  0
 12  4  2  0  0  0  0
 13 14  1  0  0  0  0
 14  9  2  0  0  0  0
 15  1  1  0  0  0  0
 16 15  1  0  0  0  0
 17 18  1  0  0  0  0
 18 24  1  0  0  0  0
 18 26  1  0  0  0  0
 19 20  1  0  0  0  0
 19 18  1  0  0  0  0
 20 21  1  0  0  0  0
 21 23  1  0  0  0  0
 22 21  1  0  0  0  0
 22 24  1  0  0  0  0
 23 25  2  0  0  0  0
 23 27  1  0  0  0  0
 27 28  2  0  0  0  0
 27 32  1  0  0  0  0
 28 29  1  0  0  0  0
 29 30  2  0  0  0  0
 30 31  1  0  0  0  0
 32 31  2  0  0  0  0
M  END
>  <Pose>
1

>  <Score>
-10.845

$$$$
