/Users/jonathanwahrer/Desktop/Msc/3_Semester/Drug_Design_Praktikum/waehrer_HTS_screening/HTS_experiment/out/docking_results/vina_output/6q9y/0708_docked.pdbqt
 OpenBabel03162215463D

 31 34  0  0  0  0  0  0  0  0999 V2000
   -5.0970   10.2610  -13.2910 C   0  0  0  0  0  2  0  0  0  0  0  0
   -6.5140    9.7710  -13.3690 C   0  0  0  0  0  2  0  0  0  0  0  0
   -7.4600   10.7800  -13.7990 N   0  0  0  0  0  0  0  0  0  0  0  0
   -7.8310   11.8690  -13.0580 C   0  0  0  0  0  0  0  0  0  0  0  0
   -7.1230   12.2310  -11.3280 Br  0  0  0  0  0  0  0  0  0  0  0  0
   -8.7340   12.6000  -13.7280 N   0  0  0  0  0  0  0  0  0  0  0  0
   -8.9770   12.0110  -14.9190 C   0  0  0  0  0  0  0  0  0  0  0  0
   -8.1740   10.8820  -14.9380 C   0  0  0  0  0  0  0  0  0  0  0  0
   -9.8030   12.3690  -15.9170 N   0  0  0  0  0  0  0  0  0  0  0  0
   -8.2330   10.0870  -16.0400 C   0  0  0  0  0  0  0  0  0  0  0  0
   -9.0710   10.4510  -17.0510 N   0  0  0  0  0  0  0  0  0  0  0  0
   -7.5340    9.0550  -16.1110 O   0  0  0  0  0  0  0  0  0  0  0  0
   -9.8330   11.5590  -16.9910 C   0  0  0  0  0  0  0  0  0  0  0  0
   -9.0830    9.8140  -17.8750 H   0  0  0  0  0  0  0  0  0  0  0  0
  -10.6010   11.8550  -17.9670 O   0  0  0  0  0  0  0  0  0  0  0  0
  -10.6370   13.5510  -15.8890 C   0  0  0  0  0  1  0  0  0  0  0  0
   -4.2840   10.0260  -14.5310 C   0  0  0  0  0  2  0  0  0  0  0  0
   -3.2270    9.0620  -14.2600 N   0  0  0  0  0  0  0  0  0  0  0  0
   -1.9620    9.2970  -13.8440 C   0  0  0  0  0  0  0  0  0  0  0  0
   -1.2780    8.1120  -13.7040 C   0  0  0  0  0  0  0  0  0  0  0  0
   -1.2940   10.4580  -13.5570 C   0  0  0  0  0  0  0  0  0  0  0  0
   -2.1530    7.1470  -14.0440 N   0  0  0  0  0  0  0  0  0  0  0  0
    0.0040    8.0330  -13.3030 N   0  0  0  0  0  0  0  0  0  0  0  0
   -3.3250    7.7280  -14.3780 C   0  0  0  0  0  0  0  0  0  0  0  0
   -4.9210    6.8410  -14.9410 Br  0  0  0  0  0  0  0  0  0  0  0  0
    0.6260    9.2070  -13.0300 C   0  0  0  0  0  0  0  0  0  0  0  0
    0.6910    6.7510  -13.1680 C   0  0  0  0  0  1  0  0  0  0  0  0
    1.8340    9.1370  -12.6510 O   0  0  0  0  0  0  0  0  0  0  0  0
   -0.0090   10.3920  -13.1550 N   0  0  0  0  0  0  0  0  0  0  0  0
    0.5180   11.2590  -12.9310 H   0  0  0  0  0  0  0  0  0  0  0  0
   -1.9130   11.5430  -13.6830 O   0  0  0  0  0  0  0  0  0  0  0  0
  2  1  1  0  0  0  0
  3  2  1  0  0  0  0
  3  4  1  0  0  0  0
  4  5  1  0  0  0  0
  6  4  2  0  0  0  0
  7  6  1  0  0  0  0
  8  7  2  0  0  0  0
  8  3  1  0  0  0  0
  9 16  1  0  0  0  0
  9  7  1  0  0  0  0
 10  8  1  0  0  0  0
 11 13  1  0  0  0  0
 11 10  1  0  0  0  0
 12 10  2  0  0  0  0
 13  9  1  0  0  0  0
 14 11  1  0  0  0  0
 15 13  2  0  0  0  0
 17 18  1  0  0  0  0
 17  1  1  0  0  0  0
 18 19  1  0  0  0  0
 19 20  2  0  0  0  0
 19 21  1  0  0  0  0
 20 23  1  0  0  0  0
 21 29  1  0  0  0  0
 22 20  1  0  0  0  0
 23 27  1  0  0  0  0
 23 26  1  0  0  0  0
 24 18  1  0  0  0  0
 24 22  2  0  0  0  0
 25 24  1  0  0  0  0
 26 28  2  0  0  0  0
 29 26  1  0  0  0  0
 29 30  1  0  0  0  0
 31 21  2  0  0  0  0
M  END
>  <Pose>
1

>  <Score>
-7.207

$$$$
