/Users/jonathanwahrer/Desktop/Msc/3_Semester/Drug_Design_Praktikum/waehrer_HTS_screening/HTS_experiment/out/docking_results/vina_output/6q9y/0709_docked.pdbqt
 OpenBabel03222219353D

 30 33  0  0  0  0  0  0  0  0999 V2000
    1.2060    8.8550  -12.7670 C   0  0  0  0  0  2  0  0  0  0  0  0
    2.3380    8.0370  -13.0370 N   0  0  0  0  0  0  0  0  0  0  0  0
    3.4680    8.4480  -13.6600 C   0  0  0  0  0  0  0  0  0  0  0  0
    3.7250   10.2380  -14.2710 Br  0  0  0  0  0  0  0  0  0  0  0  0
    4.3200    7.4150  -13.7600 N   0  0  0  0  0  0  0  0  0  0  0  0
    3.7710    6.3100  -13.2070 C   0  0  0  0  0  0  0  0  0  0  0  0
    2.5210    6.7250  -12.7570 C   0  0  0  0  0  0  0  0  0  0  0  0
    4.1800    5.0390  -13.0480 N   0  0  0  0  0  0  0  0  0  0  0  0
    1.7490    5.7610  -12.1530 C   0  0  0  0  0  0  0  0  0  0  0  0
    2.1660    4.4790  -11.9960 N   0  0  0  0  0  0  0  0  0  0  0  0
    0.6070    6.1230  -11.7430 O   0  0  0  0  0  0  0  0  0  0  0  0
    3.3850    4.1350  -12.4490 C   0  0  0  0  0  0  0  0  0  0  0  0
    1.5340    3.7940  -11.5280 H   0  0  0  0  0  0  0  0  0  0  0  0
    3.7640    2.9300  -12.2940 O   0  0  0  0  0  0  0  0  0  0  0  0
    5.4770    4.6010  -13.5120 C   0  0  0  0  0  1  0  0  0  0  0  0
    0.5440    9.5000  -13.9320 C   0  0  0  0  0  2  0  0  0  0  0  0
   -0.8550    9.7350  -13.8680 N   0  0  0  0  0  0  0  0  0  0  0  0
   -1.8470    8.8580  -14.0920 C   0  0  0  0  0  0  0  0  0  0  0  0
   -3.0590    9.4990  -13.9340 C   0  0  0  0  0  0  0  0  0  0  0  0
   -1.9020    7.5130  -14.4240 C   0  0  0  0  0  0  0  0  0  0  0  0
   -2.7370   10.7680  -13.6110 N   0  0  0  0  0  0  0  0  0  0  0  0
   -4.1990    8.8290  -14.1000 N   0  0  0  0  0  0  0  0  0  0  0  0
   -1.4210   10.9400  -13.5630 C   0  0  0  0  0  0  0  0  0  0  0  0
   -0.4630   12.5590  -13.1470 Br  0  0  0  0  0  0  0  0  0  0  0  0
   -4.1840    7.5330  -14.4210 C   0  0  0  0  0  0  0  0  0  0  0  0
   -5.4740    9.4880  -13.9390 C   0  0  0  0  0  1  0  0  0  0  0  0
   -5.2590    6.8670  -14.5890 O   0  0  0  0  0  0  0  0  0  0  0  0
   -3.0460    6.8380  -14.5930 N   0  0  0  0  0  0  0  0  0  0  0  0
   -3.0700    5.8170  -14.8450 H   0  0  0  0  0  0  0  0  0  0  0  0
   -0.8370    6.8740  -14.5790 O   0  0  0  0  0  0  0  0  0  0  0  0
  2  1  1  0  0  0  0
  2  7  1  0  0  0  0
  3  2  1  0  0  0  0
  4  3  1  0  0  0  0
  5  3  2  0  0  0  0
  5  6  1  0  0  0  0
  6  8  1  0  0  0  0
  6  7  2  0  0  0  0
  7  9  1  0  0  0  0
  8 12  1  0  0  0  0
  9 10  1  0  0  0  0
  9 11  2  0  0  0  0
 10 13  1  0  0  0  0
 12 14  2  0  0  0  0
 12 10  1  0  0  0  0
 15  8  1  0  0  0  0
 16 17  1  0  0  0  0
 16  1  1  0  0  0  0
 17 23  1  0  0  0  0
 18 19  2  0  0  0  0
 18 17  1  0  0  0  0
 19 21  1  0  0  0  0
 20 18  1  0  0  0  0
 21 23  2  0  0  0  0
 22 26  1  0  0  0  0
 22 19  1  0  0  0  0
 23 24  1  0  0  0  0
 25 22  1  0  0  0  0
 27 25  2  0  0  0  0
 28 20  1  0  0  0  0
 28 25  1  0  0  0  0
 29 28  1  0  0  0  0
 30 20  2  0  0  0  0
M  END
>  <Pose>
1

>  <Score>
-8.142

$$$$
