/Users/jonathanwahrer/Desktop/Msc/3_Semester/Drug_Design_Praktikum/waehrer_HTS_screening/HTS_experiment/out/docking_results/vina_output/6q9y/0723_docked.pdbqt
 OpenBabel03222219363D

 23 26  0  0  1  0  0  0  0  0999 V2000
   -1.3020    7.7370  -14.0460 N   0  0  0  0  0  0  0  0  0  0  0  0
   -1.2370    6.6100  -13.1700 C   0  0  1  0  0  3  0  0  0  0  0  0
   -1.7640    5.3650  -13.7730 C   0  0  0  0  0  2  0  0  0  0  0  0
   -2.4170    5.4750  -14.9700 O   0  0  0  0  0  0  0  0  0  0  0  0
   -3.1790    6.6330  -15.0700 C   0  0  0  0  0  2  0  0  0  0  0  0
   -2.3420    7.8710  -15.0190 C   0  0  0  0  0  2  0  0  0  0  0  0
   -0.3430    8.8040  -13.9850 C   0  0  0  0  0  0  0  0  0  0  0  0
    0.9420    8.5570  -14.3870 N   0  0  0  0  0  0  0  0  0  0  0  0
    1.8660    9.5340  -14.4010 C   0  0  0  0  0  3  0  0  0  0  0  0
    1.5510   10.7840  -14.0200 N   0  0  0  0  0  0  0  0  0  0  0  0
    0.3160   11.1000  -13.6150 C   0  0  0  0  0  0  0  0  0  0  0  0
   -0.2140   12.2580  -13.1810 N   0  0  0  0  0  0  0  0  0  0  0  0
   -0.6440   10.0810  -13.5990 C   0  0  0  0  0  0  0  0  0  0  0  0
   -1.4690   12.0000  -12.8940 N   0  0  0  0  0  0  0  0  0  0  0  0
    0.4480   13.5420  -13.0490 C   0  0  0  0  0  1  0  0  0  0  0  0
   -1.7740   10.7050  -13.1280 C   0  0  0  0  0  0  0  0  0  0  0  0
   -3.4460    9.8420  -12.8350 Br  0  0  0  0  0  0  0  0  0  0  0  0
    0.1090    6.4570  -12.5740 C   0  0  0  0  0  0  0  0  0  0  0  0
    1.1080    5.7260  -13.0700 N   0  0  0  0  0  0  0  0  0  0  0  0
    2.1550    5.8690  -12.2070 C   0  0  0  0  0  0  0  0  0  0  0  0
    1.7310    6.6840  -11.2250 N   0  0  0  0  0  0  0  0  0  0  0  0
    3.4980    5.2540  -12.3170 C   0  0  0  0  0  1  0  0  0  0  0  0
    0.4990    7.0230  -11.4690 O   0  0  0  0  0  0  0  0  0  0  0  0
  1  7  1  0  0  0  0
  1  2  1  0  0  0  0
  2 18  1  6  0  0  0
  3  2  1  0  0  0  0
  4  3  1  0  0  0  0
  5  6  1  0  0  0  0
  5  4  1  0  0  0  0
  6  1  1  0  0  0  0
  7 13  1  0  0  0  0
  8  7  2  0  0  0  0
  9  8  1  0  0  0  0
  9 10  2  0  0  0  0
 10 11  1  0  0  0  0
 11 13  2  0  0  0  0
 11 12  1  0  0  0  0
 12 15  1  0  0  0  0
 12 14  1  0  0  0  0
 13 16  1  0  0  0  0
 16 14  2  0  0  0  0
 16 17  1  0  0  0  0
 18 23  1  0  0  0  0
 19 18  2  0  0  0  0
 19 20  1  0  0  0  0
 20 21  2  0  0  0  0
 22 20  1  0  0  0  0
 23 21  1  0  0  0  0
M  END
>  <Pose>
1

>  <Score>
-6.227

$$$$
