/Users/jonathanwahrer/Desktop/Msc/3_Semester/Drug_Design_Praktikum/waehrer_HTS_screening/HTS_experiment/out/docking_results/vina_output/6q9y/0729_docked.pdbqt
 OpenBabel03222219363D

 27 30  0  0  1  0  0  0  0  0999 V2000
    1.6900   10.1440  -13.4680 N   0  0  0  0  0  0  0  0  0  0  0  0
    0.9560    9.2160  -12.6550 C   0  0  0  0  0  2  0  0  0  0  0  0
    1.8890    8.0140  -12.4830 C   0  0  0  0  0  2  0  0  0  0  0  0
    2.9180    7.9980  -13.5300 N   0  0  0  0  0  0  0  0  0  0  0  0
    2.3060    8.3160  -14.8220 C   0  0  0  0  0  2  0  0  0  0  0  0
    1.8750    9.7710  -14.8490 C   0  0  0  0  0  2  0  0  0  0  0  0
    2.2200   11.3260  -12.9390 C   0  0  0  0  0  0  0  0  0  0  0  0
    3.5100   11.3990  -12.5350 N   0  0  0  0  0  0  0  0  0  0  0  0
    4.0340   12.4950  -11.9990 C   0  0  0  0  0  3  0  0  0  0  0  0
    3.2650   13.5770  -11.8470 N   0  0  0  0  0  0  0  0  0  0  0  0
    1.9740   13.6020  -12.2180 C   0  0  0  0  0  0  0  0  0  0  0  0
    1.0220   14.5530  -12.1750 N   0  0  0  0  0  0  0  0  0  0  0  0
    1.4230   12.4540  -12.7800 C   0  0  0  0  0  0  0  0  0  0  0  0
   -0.0670   14.0400  -12.6820 N   0  0  0  0  0  0  0  0  0  0  0  0
    1.2600   15.8870  -11.6420 C   0  0  0  0  0  1  0  0  0  0  0  0
    0.1150   12.7650  -13.0690 C   0  0  0  0  0  0  0  0  0  0  0  0
   -1.1330   11.5880  -13.8780 Br  0  0  0  0  0  0  0  0  0  0  0  0
    3.4220    6.6340  -13.5880 C   0  0  2  0  0  3  0  0  0  0  0  0
    2.9280    5.9190  -12.3010 C   0  0  0  0  0  1  0  0  0  0  0  0
    4.8950    6.6100  -13.5980 C   0  0  0  0  0  0  0  0  0  0  0  0
    5.4320    7.7930  -13.5140 O   0  0  0  0  0  0  0  0  0  0  0  0
    5.7560    5.5050  -13.6900 N   0  0  0  0  0  0  0  0  0  0  0  0
    5.4200    4.1200  -13.8270 C   0  0  0  0  0  2  0  0  0  0  0  0
    7.2100    5.7860  -13.6540 C   0  0  0  0  0  2  0  0  0  0  0  0
    6.2050    3.1950  -12.9200 C   0  0  0  0  0  2  0  0  0  0  0  0
    7.6160    3.6120  -12.6840 C   0  0  0  0  0  2  0  0  0  0  0  0
    7.7420    5.0980  -12.4240 C   0  0  0  0  0  2  0  0  0  0  0  0
  1  7  1  0  0  0  0
  1  2  1  0  0  0  0
  2  3  1  0  0  0  0
  4  3  1  0  0  0  0
  5  4  1  0  0  0  0
  6  5  1  0  0  0  0
  6  1  1  0  0  0  0
  7 13  2  0  0  0  0
  7  8  1  0  0  0  0
  8  9  2  0  0  0  0
  9 10  1  0  0  0  0
 11 12  1  0  0  0  0
 11 10  2  0  0  0  0
 12 15  1  0  0  0  0
 13 11  1  0  0  0  0
 14 12  1  0  0  0  0
 16 13  1  0  0  0  0
 16 14  2  0  0  0  0
 17 16  1  0  0  0  0
 18  4  1  0  0  0  0
 18 19  1  1  0  0  0
 20 18  1  0  0  0  0
 20 21  2  0  0  0  0
 22 24  1  0  0  0  0
 22 20  1  0  0  0  0
 23 22  1  0  0  0  0
 23 25  1  0  0  0  0
 24 27  1  0  0  0  0
 25 26  1  0  0  0  0
 26 27  1  0  0  0  0
M  END
>  <Pose>
1

>  <Score>
-7.951

$$$$
