/Users/jonathanwahrer/Desktop/Msc/3_Semester/Drug_Design_Praktikum/waehrer_HTS_screening/HTS_experiment/out/docking_results/vina_output/6q9y/0737_docked.pdbqt
 OpenBabel03222219363D

 21 24  0  0  1  0  0  0  0  0999 V2000
    0.1340   13.2790  -13.0010 C   0  0  2  0  0  3  0  0  0  0  0  0
   -0.7900   14.1630  -13.3010 C   0  0  0  0  0  3  0  0  0  0  0  0
   -0.6830   15.5680  -12.8800 C   0  0  0  0  0  0  0  0  0  0  0  0
   -1.6050   16.4670  -13.1740 C   0  0  0  0  0  1  0  0  0  0  0  0
    0.4810   15.8910  -12.1350 N   0  0  0  0  0  0  0  0  0  0  0  0
    1.4800   14.9130  -11.8180 C   0  0  0  0  0  0  0  0  0  0  0  0
    1.2800   13.6410  -12.2570 N   0  0  0  0  0  0  0  0  0  0  0  0
    2.3400   12.9430  -11.8330 N   0  0  0  0  0  0  0  0  0  0  0  0
    3.1900   13.7230  -11.1500 C   0  0  0  0  0  3  0  0  0  0  0  0
    2.6440   14.9500  -11.1460 N   0  0  0  0  0  0  0  0  0  0  0  0
    0.6160   16.8720  -11.8070 H   0  0  0  0  0  0  0  0  0  0  0  0
   -0.0190   11.9460  -13.4300 N   0  0  2  0  0  0  0  0  0  0  0  0
    1.1020   11.3120  -14.0790 C   0  0  0  0  0  2  0  0  0  0  0  0
    1.0220    9.8300  -13.9230 C   0  0  0  0  0  0  0  0  0  0  0  0
   -0.1580    9.2200  -13.8270 N   0  0  0  0  0  0  0  0  0  0  0  0
    1.9760    8.8650  -13.8500 N   0  0  0  0  0  0  0  0  0  0  0  0
    0.0290    7.9010  -13.6970 C   0  0  0  0  0  0  0  0  0  0  0  0
   -1.4020    9.9610  -13.8690 C   0  0  0  0  0  2  0  0  0  0  0  0
   -1.2940    6.5260  -13.5170 Br  0  0  0  0  0  0  0  0  0  0  0  0
    1.3880    7.6640  -13.7090 C   0  0  0  0  0  3  0  0  0  0  0  0
   -1.2880   11.2980  -13.1970 C   0  0  0  0  0  2  0  0  0  0  0  0
  1  2  1  6  0  0  0
  1  7  1  0  0  0  0
  2  3  2  0  0  0  0
  3  5  1  0  0  0  0
  4  3  1  0  0  0  0
  5  6  1  0  0  0  0
  5 11  1  0  0  0  0
  6 10  2  0  0  0  0
  7  8  1  0  0  0  0
  7  6  1  0  0  0  0
  8  9  2  0  0  0  0
  9 10  1  0  0  0  0
 12 13  1  6  0  0  0
 12 21  1  0  0  0  0
 12  1  1  0  0  0  0
 13 14  1  0  0  0  0
 14 16  2  0  0  0  0
 14 15  1  0  0  0  0
 15 17  1  0  0  0  0
 16 20  1  0  0  0  0
 17 19  1  0  0  0  0
 18 15  1  0  0  0  0
 18 21  1  0  0  0  0
 20 17  2  0  0  0  0
M  END
>  <Pose>
1

>  <Score>
-7.468

$$$$
