/Users/jonathanwahrer/Desktop/Msc/3_Semester/Drug_Design_Praktikum/waehrer_HTS_screening/HTS_experiment/out/docking_results/vina_output/6q9y/0743_docked.pdbqt
 OpenBabel03222219363D

 30 33  0  0  1  0  0  0  0  0999 V2000
   -3.0500    8.3660  -14.4740 C   0  0  0  0  0  0  0  0  0  0  0  0
   -3.8100    7.9060  -15.3900 O   0  0  0  0  0  0  0  0  0  0  0  0
   -2.0550    7.5400  -13.8850 N   0  0  0  0  0  0  0  0  0  0  0  0
   -1.9080    6.1810  -14.3270 C   0  0  0  0  0  2  0  0  0  0  0  0
   -0.4990    5.6740  -14.2820 C   0  0  0  0  0  2  0  0  0  0  0  0
    0.3690    6.3980  -13.2950 C   0  0  1  0  0  0  0  0  0  0  0  0
    1.3990    5.5380  -12.7970 N   0  0  0  0  0  0  0  0  0  0  0  0
    2.2440    6.1340  -11.8190 C   0  0  0  0  0  2  0  0  0  0  0  0
    2.6920    7.5260  -12.1230 C   0  0  0  0  0  2  0  0  0  0  0  0
    2.1590    8.0430  -13.4090 C   0  0  0  0  0  0  0  0  0  0  0  0
    2.5800    9.0210  -14.2130 N   0  0  0  0  0  0  0  0  0  0  0  0
    1.7590    9.1110  -15.2690 C   0  0  0  0  0  3  0  0  0  0  0  0
    0.7980    8.1840  -15.1490 N   0  0  0  0  0  0  0  0  0  0  0  0
    1.0380    7.5250  -14.0090 C   0  0  0  0  0  0  0  0  0  0  0  0
   -0.4840    7.0030  -12.1920 C   0  0  0  0  0  2  0  0  0  0  0  0
   -1.2320    8.1480  -12.8440 C   0  0  0  0  0  2  0  0  0  0  0  0
    0.9450    4.6960  -12.3790 H   0  0  0  0  0  0  0  0  0  0  0  0
   -0.0070    8.0030  -15.8310 H   0  0  0  0  0  0  0  0  0  0  0  0
   -3.2690    9.7670  -14.0790 C   0  0  0  0  0  2  0  0  0  0  0  0
   -4.6330   10.0130  -13.5130 C   0  0  0  0  0  2  0  0  0  0  0  0
   -5.6220   10.2900  -14.5080 N   0  0  0  0  0  0  0  0  0  0  0  0
   -6.9440   10.6940  -14.1790 C   0  0  0  0  0  0  0  0  0  0  0  0
   -7.2380   10.8060  -12.9520 O   0  0  0  0  0  0  0  0  0  0  0  0
   -5.3780   10.1980  -15.5120 H   0  0  0  0  0  0  0  0  0  0  0  0
   -7.9570   10.9790  -15.1630 C   0  0  0  0  0  0  0  0  0  0  0  0
   -8.7330   12.0110  -15.2000 O   0  0  0  0  0  0  0  0  0  0  0  0
   -9.5460   11.9880  -16.2130 C   0  0  0  0  0  0  0  0  0  0  0  0
  -10.8880   13.2720  -16.7160 Br  0  0  0  0  0  0  0  0  0  0  0  0
   -9.2860   10.8320  -16.9130 C   0  0  0  0  0  3  0  0  0  0  0  0
   -8.2700   10.1660  -16.2600 C   0  0  0  0  0  3  0  0  0  0  0  0
  1 19  1  0  0  0  0
  1  3  1  0  0  0  0
  2  1  2  0  0  0  0
  3 16  1  0  0  0  0
  4  5  1  0  0  0  0
  4  3  1  0  0  0  0
  6  5  1  6  0  0  0
  6  7  1  0  0  0  0
  6 15  1  0  0  0  0
  7 17  1  0  0  0  0
  7  8  1  0  0  0  0
  9  8  1  0  0  0  0
 10  9  1  0  0  0  0
 11 10  1  0  0  0  0
 12 13  1  0  0  0  0
 12 11  2  0  0  0  0
 13 14  1  0  0  0  0
 14 10  2  0  0  0  0
 14  6  1  0  0  0  0
 16 15  1  0  0  0  0
 18 13  1  0  0  0  0
 19 20  1  0  0  0  0
 21 22  1  0  0  0  0
 21 20  1  0  0  0  0
 22 23  2  0  0  0  0
 24 21  1  0  0  0  0
 25 22  1  0  0  0  0
 26 25  1  0  0  0  0
 27 26  1  0  0  0  0
 28 27  1  0  0  0  0
 29 30  1  0  0  0  0
 29 27  2  0  0  0  0
 30 25  2  0  0  0  0
M  END
>  <Pose>
1

>  <Score>
-8.586

$$$$
