/Users/jonathanwahrer/Desktop/Msc/3_Semester/Drug_Design_Praktikum/waehrer_HTS_screening/HTS_experiment/out/docking_results/vina_output/6q9y/0746_docked.pdbqt
 OpenBabel03222219363D

 30 33  0  0  1  0  0  0  0  0999 V2000
    1.5110   11.6950  -13.6110 C   0  0  0  0  0  0  0  0  0  0  0  0
    0.2470   11.5330  -13.7260 O   0  0  0  0  0  0  0  0  0  0  0  0
    2.3320   10.7860  -14.2880 N   0  0  0  0  0  0  0  0  0  0  0  0
    3.7790   10.8540  -14.2490 C   0  0  0  0  0  2  0  0  0  0  0  0
    4.2820    9.5910  -13.6220 C   0  0  0  0  0  2  0  0  0  0  0  0
    3.7210    8.3700  -14.2800 C   0  0  1  0  0  0  0  0  0  0  0  0
    4.8250    7.5440  -14.7340 N   0  0  0  0  0  0  0  0  0  0  0  0
    5.5450    7.0770  -13.5630 C   0  0  0  0  0  2  0  0  0  0  0  0
    4.7580    5.8730  -13.0330 C   0  0  0  0  0  2  0  0  0  0  0  0
    3.3870    6.3730  -12.7710 C   0  0  0  0  0  0  0  0  0  0  0  0
    2.4200    5.8530  -11.9910 N   0  0  0  0  0  0  0  0  0  0  0  0
    1.3570    6.6680  -12.0780 C   0  0  0  0  0  3  0  0  0  0  0  0
    1.6720    7.6790  -12.9060 N   0  0  0  0  0  0  0  0  0  0  0  0
    2.9290    7.5280  -13.3560 C   0  0  0  0  0  0  0  0  0  0  0  0
    2.8850    8.7780  -15.4930 C   0  0  0  0  0  2  0  0  0  0  0  0
    1.7860    9.7060  -15.0890 C   0  0  0  0  0  2  0  0  0  0  0  0
    5.5200    8.1110  -15.2960 H   0  0  0  0  0  0  0  0  0  0  0  0
    2.4370    4.9810  -11.4040 H   0  0  0  0  0  0  0  0  0  0  0  0
    1.9400   12.8290  -12.7740 C   0  0  2  0  0  3  0  0  0  0  0  0
    2.4770   12.4660  -11.4370 C   0  0  0  0  0  1  0  0  0  0  0  0
    0.8900   13.8130  -12.6050 N   0  0  0  0  0  0  0  0  0  0  0  0
    1.1160   15.2010  -12.6490 C   0  0  0  0  0  0  0  0  0  0  0  0
    2.2720   15.6310  -12.8400 O   0  0  0  0  0  0  0  0  0  0  0  0
   -0.0770   13.4650  -12.4450 H   0  0  0  0  0  0  0  0  0  0  0  0
    0.0180   16.1380  -12.4720 C   0  0  0  0  0  0  0  0  0  0  0  0
   -0.1020   16.9890  -11.4520 O   0  0  0  0  0  0  0  0  0  0  0  0
   -1.1940   17.6980  -11.5730 C   0  0  0  0  0  0  0  0  0  0  0  0
   -1.7920   19.0550  -10.3460 Br  0  0  0  0  0  0  0  0  0  0  0  0
   -1.8580   17.3200  -12.7290 C   0  0  0  0  0  3  0  0  0  0  0  0
   -1.0790   16.3350  -13.2810 C   0  0  0  0  0  3  0  0  0  0  0  0
  1 19  1  0  0  0  0
  2  1  2  0  0  0  0
  3  4  1  0  0  0  0
  3  1  1  0  0  0  0
  4  5  1  0  0  0  0
  6 15  1  6  0  0  0
  6  5  1  0  0  0  0
  6 14  1  0  0  0  0
  7  6  1  0  0  0  0
  7  8  1  0  0  0  0
  8  9  1  0  0  0  0
  9 10  1  0  0  0  0
 10 11  1  0  0  0  0
 11 18  1  0  0  0  0
 12 11  1  0  0  0  0
 13 12  2  0  0  0  0
 14 13  1  0  0  0  0
 14 10  2  0  0  0  0
 15 16  1  0  0  0  0
 16  3  1  0  0  0  0
 17  7  1  0  0  0  0
 19 21  1  0  0  0  0
 19 20  1  1  0  0  0
 21 24  1  0  0  0  0
 22 21  1  0  0  0  0
 22 25  1  0  0  0  0
 23 22  2  0  0  0  0
 25 26  1  0  0  0  0
 27 26  1  0  0  0  0
 27 28  1  0  0  0  0
 29 27  2  0  0  0  0
 30 29  1  0  0  0  0
 30 25  2  0  0  0  0
M  END
>  <Pose>
1

>  <Score>
-8.200

$$$$
