/Users/jonathanwahrer/Desktop/Msc/3_Semester/Drug_Design_Praktikum/waehrer_HTS_screening/HTS_experiment/out/docking_results/vina_output/6q9y/0754_docked.pdbqt
 OpenBabel03222219363D

 27 30  0  0  0  0  0  0  0  0999 V2000
   -0.3390    7.4430  -13.2460 C   0  0  0  0  0  0  0  0  0  0  0  0
   -0.3370    6.6410  -12.3010 O   0  0  0  0  0  0  0  0  0  0  0  0
    0.8690    7.7350  -13.9250 N   0  0  0  0  0  0  0  0  0  0  0  0
    2.1010    7.0920  -13.5130 C   0  0  0  0  0  2  0  0  0  0  0  0
    3.1430    8.0890  -13.0690 C   0  0  0  0  0  2  0  0  0  0  0  0
    2.8850    9.3250  -13.8260 N   0  0  0  0  0  0  0  0  0  0  0  0
    2.4280    9.1570  -15.1620 C   0  0  0  0  0  2  0  0  0  0  0  0
    0.9760    8.6580  -15.0390 C   0  0  0  0  0  2  0  0  0  0  0  0
    3.1180   10.5480  -13.1500 C   0  0  0  0  0  0  0  0  0  0  0  0
    2.1270   11.4640  -12.9740 N   0  0  0  0  0  0  0  0  0  0  0  0
    2.3340   12.6280  -12.3370 C   0  0  0  0  0  0  0  0  0  0  0  0
    3.5570   12.9230  -11.8480 N   0  0  0  0  0  0  0  0  0  0  0  0
    4.5960   12.0790  -11.9740 C   0  0  0  0  0  0  0  0  0  0  0  0
    4.3440   10.8740  -12.6450 C   0  0  0  0  0  3  0  0  0  0  0  0
    5.9520   12.3840  -11.4420 C   0  0  0  0  0  1  0  0  0  0  0  0
    1.2680   13.5480  -12.1790 N   0  0  0  0  0  0  0  0  0  0  0  0
    1.3550   14.7240  -11.3470 C   0  0  0  0  0  2  0  0  0  0  0  0
    0.9610   15.9400  -12.1320 C   0  0  0  0  0  2  0  0  0  0  0  0
    0.3930   15.6310  -13.3660 O   0  0  0  0  0  0  0  0  0  0  0  0
   -0.5860   14.6510  -13.2270 C   0  0  0  0  0  2  0  0  0  0  0  0
    0.0230   13.3150  -12.8780 C   0  0  0  0  0  2  0  0  0  0  0  0
   -1.6130    8.0740  -13.6360 C   0  0  0  0  0  0  0  0  0  0  0  0
   -2.6090    7.5450  -14.2800 O   0  0  0  0  0  0  0  0  0  0  0  0
   -3.5680    8.3810  -14.4550 C   0  0  0  0  0  0  0  0  0  0  0  0
   -5.2590    8.0890  -15.3470 Br  0  0  0  0  0  0  0  0  0  0  0  0
   -3.2050    9.5780  -13.8890 C   0  0  0  0  0  3  0  0  0  0  0  0
   -1.9530    9.3790  -13.3660 C   0  0  0  0  0  3  0  0  0  0  0  0
  1  2  2  0  0  0  0
  3  4  1  0  0  0  0
  3  1  1  0  0  0  0
  4  5  1  0  0  0  0
  6  9  1  0  0  0  0
  6  5  1  0  0  0  0
  7  8  1  0  0  0  0
  7  6  1  0  0  0  0
  8  3  1  0  0  0  0
  9 10  1  0  0  0  0
  9 14  2  0  0  0  0
 10 11  2  0  0  0  0
 11 16  1  0  0  0  0
 11 12  1  0  0  0  0
 13 12  2  0  0  0  0
 13 15  1  0  0  0  0
 14 13  1  0  0  0  0
 16 17  1  0  0  0  0
 18 17  1  0  0  0  0
 19 20  1  0  0  0  0
 19 18  1  0  0  0  0
 20 21  1  0  0  0  0
 21 16  1  0  0  0  0
 22 27  2  0  0  0  0
 22  1  1  0  0  0  0
 23 22  1  0  0  0  0
 24 23  1  0  0  0  0
 24 26  2  0  0  0  0
 25 24  1  0  0  0  0
 26 27  1  0  0  0  0
M  END
>  <Pose>
1

>  <Score>
-6.598

$$$$
