/Users/jonathanwahrer/Desktop/Msc/3_Semester/Drug_Design_Praktikum/waehrer_HTS_screening/HTS_experiment/out/docking_results/vina_output/6q9y/0767_docked.pdbqt
 OpenBabel03222219373D

 32 35  0  0  0  0  0  0  0  0999 V2000
    0.3200   15.0110  -12.8450 C   0  0  0  0  0  2  0  0  0  0  0  0
   -0.0250   13.6440  -13.0470 N   0  0  0  0  0  0  0  0  0  0  0  0
    0.9400   12.6030  -12.9450 C   0  0  0  0  0  0  0  0  0  0  0  0
    2.1440   12.9240  -12.6640 O   0  0  0  0  0  0  0  0  0  0  0  0
   -1.0050   13.3920  -13.2740 H   0  0  0  0  0  0  0  0  0  0  0  0
    0.5910   11.2030  -13.1500 C   0  0  0  0  0  0  0  0  0  0  0  0
    1.4330   10.2140  -12.9910 O   0  0  0  0  0  0  0  0  0  0  0  0
    0.8480    9.0780  -13.2430 N   0  0  0  0  0  0  0  0  0  0  0  0
   -0.4410    9.2990  -13.5860 C   0  0  0  0  0  0  0  0  0  0  0  0
   -0.5650   10.6360  -13.5160 N   0  0  0  0  0  0  0  0  0  0  0  0
   -1.4500    8.3100  -13.9450 C   0  0  0  0  0  0  0  0  0  0  0  0
   -2.7250    8.5080  -14.1660 O   0  0  0  0  0  0  0  0  0  0  0  0
   -3.3510    7.4120  -14.4660 C   0  0  0  0  0  0  0  0  0  0  0  0
   -5.1870    7.1600  -14.8720 Br  0  0  0  0  0  0  0  0  0  0  0  0
   -2.4340    6.3600  -14.4530 C   0  0  0  0  0  3  0  0  0  0  0  0
   -1.2280    6.9560  -14.1170 C   0  0  0  0  0  3  0  0  0  0  0  0
   -0.7270   15.9680  -13.3740 C   0  0  0  0  0  2  0  0  0  0  0  0
   -1.1560   16.9040  -12.3460 N   0  0  0  0  0  0  0  0  0  0  0  0
   -2.3240   17.6570  -12.5520 C   0  0  0  0  0  0  0  0  0  0  0  0
   -2.9250   17.4410  -13.6650 O   0  0  0  0  0  0  0  0  0  0  0  0
   -0.6230   17.0270  -11.4650 H   0  0  0  0  0  0  0  0  0  0  0  0
   -2.9200   18.6300  -11.6730 C   0  0  0  0  0  0  0  0  0  0  0  0
   -4.1940   19.1100  -11.9750 C   0  0  0  0  0  3  0  0  0  0  0  0
   -4.7890   20.0300  -11.1480 C   0  0  0  0  0  0  0  0  0  0  0  0
   -4.1410   20.4760  -10.0380 C   0  0  0  0  0  0  0  0  0  0  0  0
   -6.0650   20.5320  -11.4200 C   0  0  0  0  0  3  0  0  0  0  0  0
   -4.7510   21.4130   -9.2000 C   0  0  0  0  0  3  0  0  0  0  0  0
   -2.9530   20.0090   -9.7830 O   0  0  0  0  0  0  0  0  0  0  0  0
   -6.0050   21.9080   -9.4620 C   0  0  0  0  0  3  0  0  0  0  0  0
   -6.6520   21.4550  -10.5840 C   0  0  0  0  0  3  0  0  0  0  0  0
   -2.3200   19.1180  -10.5390 C   0  0  0  0  0  0  0  0  0  0  0  0
   -1.1760   18.7520  -10.1810 O   0  0  0  0  0  0  0  0  0  0  0  0
  2  3  1  0  0  0  0
  2  1  1  0  0  0  0
  3  4  2  0  0  0  0
  5  2  1  0  0  0  0
  6  7  1  0  0  0  0
  6  3  1  0  0  0  0
  8  7  1  0  0  0  0
  9 10  1  0  0  0  0
  9  8  2  0  0  0  0
 10  6  2  0  0  0  0
 11  9  1  0  0  0  0
 12 11  1  0  0  0  0
 13 15  2  0  0  0  0
 13 12  1  0  0  0  0
 14 13  1  0  0  0  0
 15 16  1  0  0  0  0
 16 11  2  0  0  0  0
 17  1  1  0  0  0  0
 17 18  1  0  0  0  0
 18 21  1  0  0  0  0
 19 18  1  0  0  0  0
 19 22  1  0  0  0  0
 20 19  2  0  0  0  0
 22 31  1  0  0  0  0
 23 22  2  0  0  0  0
 23 24  1  0  0  0  0
 24 25  1  0  0  0  0
 25 28  1  0  0  0  0
 25 27  2  0  0  0  0
 26 24  2  0  0  0  0
 26 30  1  0  0  0  0
 29 27  1  0  0  0  0
 30 29  2  0  0  0  0
 31 32  2  0  0  0  0
 31 28  1  0  0  0  0
M  END
>  <Pose>
1

>  <Score>
-11.300

$$$$
