/Users/jonathanwahrer/Desktop/Msc/3_Semester/Drug_Design_Praktikum/waehrer_HTS_screening/HTS_experiment/out/docking_results/vina_output/6q9y/0776_docked.pdbqt
 OpenBabel03222219373D

 38 41  0  0  1  0  0  0  0  0999 V2000
    0.4240    9.6970  -14.2070 C   0  0  2  0  0  3  0  0  0  0  0  0
   -0.4690    8.8020  -13.3380 C   0  0  1  0  0  0  0  0  0  0  0  0
    0.3550    8.1920  -12.2560 C   0  0  0  0  0  2  0  0  0  0  0  0
    1.4070    7.3100  -12.8900 C   0  0  1  0  0  0  0  0  0  0  0  0
    1.6240    7.6110  -14.2210 O   0  0  0  0  0  0  0  0  0  0  0  0
    1.7000    8.9730  -14.4790 C   0  0  0  0  0  2  0  0  0  0  0  0
    2.6260    7.3810  -12.0450 C   0  0  0  0  0  2  0  0  0  0  0  0
    3.6930    6.4580  -12.6550 C   0  0  0  0  0  2  0  0  0  0  0  0
    3.2330    5.1160  -12.5180 N   0  0  0  0  0  0  0  0  0  0  0  0
    1.8120    4.9890  -12.0480 C   0  0  0  0  0  2  0  0  0  0  0  0
    0.9040    5.8830  -12.8250 C   0  0  0  0  0  2  0  0  0  0  0  0
    3.9590    3.9690  -12.7760 C   0  0  0  0  0  0  0  0  0  0  0  0
    3.3210    2.8390  -12.5530 O   0  0  0  0  0  0  0  0  0  0  0  0
   -1.6690    9.5450  -12.8480 C   0  0  0  0  0  1  0  0  0  0  0  0
   -0.9140    7.7700  -14.1680 O   0  0  0  0  0  0  0  0  0  0  0  0
   -0.5090    7.8000  -15.0710 H   0  0  0  0  0  0  0  0  0  0  0  0
    0.5580   11.0150  -13.6750 N   0  0  0  0  0  0  0  0  0  0  0  0
    1.6220   11.4450  -12.9730 C   0  0  0  0  0  3  0  0  0  0  0  0
    1.7220   12.7190  -12.4740 C   0  0  0  0  0  0  0  0  0  0  0  0
    3.2860   13.1880  -11.4970 Br  0  0  0  0  0  0  0  0  0  0  0  0
    0.7020   13.6130  -12.6890 C   0  0  0  0  0  0  0  0  0  0  0  0
   -0.3600   13.1840  -13.3910 N   0  0  0  0  0  0  0  0  0  0  0  0
    0.8010   14.7760  -12.2280 O   0  0  0  0  0  0  0  0  0  0  0  0
   -0.4250   11.9470  -13.8580 C   0  0  0  0  0  0  0  0  0  0  0  0
   -1.1260   13.8730  -13.5450 H   0  0  0  0  0  0  0  0  0  0  0  0
   -1.4600   11.6190  -14.5090 O   0  0  0  0  0  0  0  0  0  0  0  0
    5.2870    3.7940  -13.2460 C   0  0  0  0  0  0  0  0  0  0  0  0
    6.2500    4.7970  -13.0320 C   0  0  0  0  0  3  0  0  0  0  0  0
    7.5520    4.7410  -13.4170 C   0  0  0  0  0  0  0  0  0  0  0  0
    7.9590    3.5680  -14.0860 C   0  0  0  0  0  3  0  0  0  0  0  0
    7.0510    2.5890  -14.3030 C   0  0  0  0  0  3  0  0  0  0  0  0
    5.7100    2.6790  -13.8930 C   0  0  0  0  0  3  0  0  0  0  0  0
    8.4550    5.7370  -13.1940 O   0  0  0  0  0  0  0  0  0  0  0  0
    9.5510    5.8150  -12.3870 C   0  0  0  0  0  2  0  0  0  0  0  0
   10.8360    5.7620  -13.1420 C   0  0  0  0  0  2  0  0  0  0  0  0
   10.8340    6.7910  -14.1830 N   0  0  0  0  0  0  0  0  0  0  0  0
   11.3000    6.4720  -15.0450 H   0  0  0  0  0  0  0  0  0  0  0  0
   11.1320    7.7090  -13.8380 H   0  0  0  0  0  0  0  0  0  0  0  0
  1  6  1  1  0  0  0
  1 17  1  0  0  0  0
  1  2  1  0  0  0  0
  2 14  1  1  0  0  0
  2  3  1  0  0  0  0
  4 11  1  1  0  0  0
  4  3  1  0  0  0  0
  4  7  1  0  0  0  0
  5  4  1  0  0  0  0
  6  5  1  0  0  0  0
  8  9  1  0  0  0  0
  8  7  1  0  0  0  0
  9 10  1  0  0  0  0
 11 10  1  0  0  0  0
 12 13  2  0  0  0  0
 12  9  1  0  0  0  0
 15  2  1  0  0  0  0
 16 15  1  0  0  0  0
 17 18  1  0  0  0  0
 18 19  2  0  0  0  0
 19 20  1  0  0  0  0
 21 19  1  0  0  0  0
 21 23  2  0  0  0  0
 22 21  1  0  0  0  0
 24 17  1  0  0  0  0
 24 22  1  0  0  0  0
 25 22  1  0  0  0  0
 26 24  2  0  0  0  0
 27 28  1  0  0  0  0
 27 12  1  0  0  0  0
 29 33  1  0  0  0  0
 29 28  2  0  0  0  0
 30 29  1  0  0  0  0
 31 30  2  0  0  0  0
 31 32  1  0  0  0  0
 32 27  2  0  0  0  0
 33 34  1  0  0  0  0
 35 34  1  0  0  0  0
 36 38  1  0  0  0  0
 36 35  1  0  0  0  0
 37 36  1  0  0  0  0
M  END
>  <Pose>
1

>  <Score>
-7.688

$$$$
