/Users/jonathanwahrer/Desktop/Msc/3_Semester/Drug_Design_Praktikum/waehrer_HTS_screening/HTS_experiment/out/docking_results/vina_output/6q9y/0783_docked.pdbqt
 OpenBabel03222219383D

 39 42  0  0  1  0  0  0  0  0999 V2000
    3.3730   10.1650  -13.8900 C   0  0  1  0  0  3  0  0  0  0  0  0
    2.1450   10.9690  -14.0370 C   0  0  2  0  0  0  0  0  0  0  0  0
    2.3420   12.4670  -13.7730 C   0  0  0  0  0  2  0  0  0  0  0  0
    2.9730   12.6880  -12.4210 C   0  0  2  0  0  0  0  0  0  0  0  0
    3.6470   11.5650  -11.9790 O   0  0  0  0  0  0  0  0  0  0  0  0
    4.3070   10.8600  -12.9370 C   0  0  0  0  0  2  0  0  0  0  0  0
    1.8660   13.0900  -11.4630 C   0  0  0  0  0  2  0  0  0  0  0  0
    1.7900   14.5890  -11.3450 C   0  0  0  0  0  2  0  0  0  0  0  0
    1.9980   15.1670  -12.6480 N   0  0  0  0  0  0  0  0  0  0  0  0
    3.3390   15.0290  -13.1950 C   0  0  0  0  0  2  0  0  0  0  0  0
    3.9690   13.8160  -12.5490 C   0  0  0  0  0  2  0  0  0  0  0  0
    0.9670   15.8310  -13.3170 C   0  0  0  0  0  0  0  0  0  0  0  0
    1.2730   16.2990  -14.4730 O   0  0  0  0  0  0  0  0  0  0  0  0
    0.9530   10.4760  -13.2820 C   0  0  0  0  0  1  0  0  0  0  0  0
    1.7780   10.9190  -15.4070 O   0  0  0  0  0  0  0  0  0  0  0  0
    1.4060   11.7770  -15.7160 H   0  0  0  0  0  0  0  0  0  0  0  0
    3.1510    8.7870  -13.4980 N   0  0  0  0  0  0  0  0  0  0  0  0
    2.0730    8.4730  -12.7870 C   0  0  0  0  0  3  0  0  0  0  0  0
    1.8370    7.1750  -12.3940 C   0  0  0  0  0  0  0  0  0  0  0  0
    0.2720    6.7430  -11.3680 Br  0  0  0  0  0  0  0  0  0  0  0  0
    2.7450    6.2000  -12.7520 C   0  0  0  0  0  0  0  0  0  0  0  0
    3.8170    6.5800  -13.4710 N   0  0  0  0  0  0  0  0  0  0  0  0
    2.5720    4.9920  -12.4140 O   0  0  0  0  0  0  0  0  0  0  0  0
    4.0290    7.8510  -13.8450 C   0  0  0  0  0  0  0  0  0  0  0  0
    4.5200    5.8310  -13.7500 H   0  0  0  0  0  0  0  0  0  0  0  0
    5.0760    8.1130  -14.5260 O   0  0  0  0  0  0  0  0  0  0  0  0
   -0.4070   16.0750  -12.8910 C   0  0  1  0  0  3  0  0  0  0  0  0
   -1.1000   14.8340  -12.5410 N   0  0  0  0  0  0  0  0  0  0  0  0
   -0.7620   14.0380  -13.1240 H   0  0  0  0  0  0  0  0  0  0  0  0
   -2.1200   14.9490  -12.7660 H   0  0  0  0  0  0  0  0  0  0  0  0
   -0.5610   16.9860  -11.6940 C   0  0  0  0  0  2  0  0  0  0  0  0
   -1.8460   17.7470  -11.9150 C   0  0  0  0  0  0  0  0  0  0  0  0
   -2.4410   17.7540  -13.1500 C   0  0  0  0  0  3  0  0  0  0  0  0
   -3.6250   18.4680  -13.3100 C   0  0  0  0  0  3  0  0  0  0  0  0
   -4.2020   19.1580  -12.2680 C   0  0  0  0  0  0  0  0  0  0  0  0
   -3.5730   19.1270  -11.0390 C   0  0  0  0  0  3  0  0  0  0  0  0
   -2.3980   18.4290  -10.8500 C   0  0  0  0  0  3  0  0  0  0  0  0
   -5.3780   19.8500  -12.4850 O   0  0  0  0  0  0  0  0  0  0  0  0
   -6.2410   19.4180  -12.8150 H   0  0  0  0  0  0  0  0  0  0  0  0
  1 17  1  1  0  0  0
  1  6  1  0  0  0  0
  2  1  1  0  0  0  0
  2  3  1  0  0  0  0
  2 14  1  1  0  0  0
  4  3  1  6  0  0  0
  4  5  1  0  0  0  0
  4  7  1  0  0  0  0
  6  5  1  0  0  0  0
  7  8  1  0  0  0  0
  9  8  1  0  0  0  0
 10  9  1  0  0  0  0
 10 11  1  0  0  0  0
 11  4  1  0  0  0  0
 12 27  1  0  0  0  0
 12  9  1  0  0  0  0
 13 12  2  0  0  0  0
 15  2  1  0  0  0  0
 16 15  1  0  0  0  0
 17 18  1  0  0  0  0
 18 19  2  0  0  0  0
 19 20  1  0  0  0  0
 21 23  2  0  0  0  0
 21 19  1  0  0  0  0
 22 21  1  0  0  0  0
 24 17  1  0  0  0  0
 24 22  1  0  0  0  0
 25 22  1  0  0  0  0
 26 24  2  0  0  0  0
 27 28  1  0  0  0  0
 27 31  1  1  0  0  0
 29 28  1  0  0  0  0
 30 28  1  0  0  0  0
 32 31  1  0  0  0  0
 32 37  1  0  0  0  0
 33 32  2  0  0  0  0
 34 33  1  0  0  0  0
 34 35  2  0  0  0  0
 35 36  1  0  0  0  0
 36 37  2  0  0  0  0
 38 35  1  0  0  0  0
 39 38  1  0  0  0  0
M  END
>  <Pose>
1

>  <Score>
-7.058

$$$$
