/Users/jonathanwahrer/Desktop/Msc/3_Semester/Drug_Design_Praktikum/waehrer_HTS_screening/HTS_experiment/out/docking_results/vina_output/6q9y/0784_docked.pdbqt
 OpenBabel03222219383D

 39 42  0  0  1  0  0  0  0  0999 V2000
   -1.1110    8.0320  -14.4000 C   0  0  1  0  0  3  0  0  0  0  0  0
   -0.6260    8.2810  -12.9630 C   0  0  2  0  0  0  0  0  0  0  0  0
    0.7570    8.9220  -13.1450 C   0  0  0  0  0  2  0  0  0  0  0  0
    1.6170    8.0810  -14.0470 C   0  0  2  0  0  0  0  0  0  0  0  0
    0.9800    6.8890  -14.2960 O   0  0  0  0  0  0  0  0  0  0  0  0
   -0.2290    7.0010  -14.9770 C   0  0  0  0  0  2  0  0  0  0  0  0
    2.8710    7.7510  -13.2500 C   0  0  0  0  0  2  0  0  0  0  0  0
    3.8670    8.8760  -13.3790 C   0  0  0  0  0  2  0  0  0  0  0  0
    3.1830   10.1250  -13.7550 N   0  0  0  0  0  0  0  0  0  0  0  0
    2.6220   10.1420  -15.0740 C   0  0  0  0  0  2  0  0  0  0  0  0
    2.0430    8.7490  -15.3060 C   0  0  0  0  0  2  0  0  0  0  0  0
    3.0540   11.2010  -12.8780 C   0  0  0  0  0  0  0  0  0  0  0  0
    3.4930   11.1250  -11.6650 O   0  0  0  0  0  0  0  0  0  0  0  0
   -0.5550    7.0060  -12.1830 C   0  0  0  0  0  1  0  0  0  0  0  0
   -1.4370    9.1670  -12.2870 O   0  0  0  0  0  0  0  0  0  0  0  0
   -2.3440    8.7780  -12.2040 H   0  0  0  0  0  0  0  0  0  0  0  0
   -2.5070    7.8910  -14.4900 N   0  0  0  0  0  0  0  0  0  0  0  0
   -3.4030    8.8480  -14.2370 C   0  0  0  0  0  3  0  0  0  0  0  0
   -4.7760    8.6280  -14.3500 C   0  0  0  0  0  0  0  0  0  0  0  0
   -5.9610   10.0540  -13.9670 Br  0  0  0  0  0  0  0  0  0  0  0  0
   -5.2390    7.3890  -14.7340 C   0  0  0  0  0  0  0  0  0  0  0  0
   -4.3250    6.4350  -14.9850 N   0  0  0  0  0  0  0  0  0  0  0  0
   -6.4870    7.1600  -14.8440 O   0  0  0  0  0  0  0  0  0  0  0  0
   -3.0080    6.6770  -14.8680 C   0  0  0  0  0  0  0  0  0  0  0  0
   -4.6290    5.4700  -15.2820 H   0  0  0  0  0  0  0  0  0  0  0  0
   -2.2030    5.7400  -15.1180 O   0  0  0  0  0  0  0  0  0  0  0  0
    2.4320   12.4630  -13.2480 C   0  0  1  0  0  3  0  0  0  0  0  0
    1.0480   12.4970  -12.8410 N   0  0  0  0  0  0  0  0  0  0  0  0
   -0.0920   12.3370  -13.6190 C   0  0  0  0  0  0  0  0  0  0  0  0
   -0.1080   12.1430  -14.8520 O   0  0  0  0  0  0  0  0  0  0  0  0
   -1.4720   12.3900  -12.9900 C   0  0  0  0  0  1  0  0  0  0  0  0
    0.9020   12.6730  -11.7990 H   0  0  0  0  0  0  0  0  0  0  0  0
    3.1710   13.6790  -12.6070 C   0  0  0  0  0  2  0  0  0  0  0  0
    2.1900   14.6710  -12.1340 C   0  0  0  0  0  0  0  0  0  0  0  0
    1.4950   15.5680  -12.8160 N   0  0  0  0  0  0  0  0  0  0  0  0
    0.6890   16.3000  -11.9990 C   0  0  0  0  0  3  0  0  0  0  0  0
    0.8940   15.8320  -10.7530 N   0  0  0  0  0  0  0  0  0  0  0  0
    1.8070   14.8390  -10.8140 C   0  0  0  0  0  3  0  0  0  0  0  0
    0.4030   16.2130   -9.9080 H   0  0  0  0  0  0  0  0  0  0  0  0
  1  6  1  1  0  0  0
  1  2  1  0  0  0  0
  2 15  1  0  0  0  0
  2 14  1  1  0  0  0
  3  2  1  0  0  0  0
  4 11  1  6  0  0  0
  4  7  1  0  0  0  0
  4  3  1  0  0  0  0
  5  4  1  0  0  0  0
  6  5  1  0  0  0  0
  8  7  1  0  0  0  0
  9  8  1  0  0  0  0
  9 12  1  0  0  0  0
 10  9  1  0  0  0  0
 11 10  1  0  0  0  0
 12 13  2  0  0  0  0
 15 16  1  0  0  0  0
 17  1  1  0  0  0  0
 17 18  1  0  0  0  0
 19 18  2  0  0  0  0
 19 20  1  0  0  0  0
 21 19  1  0  0  0  0
 22 24  1  0  0  0  0
 22 21  1  0  0  0  0
 23 21  2  0  0  0  0
 24 17  1  0  0  0  0
 25 22  1  0  0  0  0
 26 24  2  0  0  0  0
 27 12  1  0  0  0  0
 27 28  1  0  0  0  0
 27 33  1  1  0  0  0
 28 32  1  0  0  0  0
 29 31  1  0  0  0  0
 29 28  1  0  0  0  0
 30 29  2  0  0  0  0
 33 34  1  0  0  0  0
 34 38  2  0  0  0  0
 35 34  1  0  0  0  0
 35 36  2  0  0  0  0
 36 37  1  0  0  0  0
 37 39  1  0  0  0  0
 38 37  1  0  0  0  0
M  END
>  <Pose>
1

>  <Score>
-7.267

$$$$
