/Users/jonathanwahrer/Desktop/Msc/3_Semester/Drug_Design_Praktikum/waehrer_HTS_screening/HTS_experiment/out/docking_results/vina_output/6q9y/0786_docked.pdbqt
 OpenBabel03222219383D

 25 28  0  0  1  0  0  0  0  0999 V2000
   -6.9750   23.7020   -8.0900 N   0  0  0  0  0  0  0  0  0  0  0  0
   -7.4130   23.6100   -6.7590 C   0  0  0  0  0  0  0  0  0  0  0  0
   -8.2180   22.7160   -6.4270 O   0  0  0  0  0  0  0  0  0  0  0  0
   -6.3060   24.4490   -8.3550 H   0  0  0  0  0  0  0  0  0  0  0  0
   -7.4620   22.7560   -9.0690 C   0  0  0  0  0  2  0  0  0  0  0  0
   -6.3580   21.9160   -9.6000 C   0  0  0  0  0  0  0  0  0  0  0  0
   -5.1270   21.7530   -9.0820 N   0  0  0  0  0  0  0  0  0  0  0  0
   -4.4210   20.9140   -9.8590 C   0  0  0  0  0  0  0  0  0  0  0  0
   -5.1990   20.5300  -10.8870 N   0  0  0  0  0  0  0  0  0  0  0  0
   -3.1180   20.4390   -9.7440 C   0  0  0  0  0  3  0  0  0  0  0  0
   -4.6850   19.6700  -11.8110 C   0  0  0  0  0  3  0  0  0  0  0  0
   -6.3910   21.1390  -10.7390 C   0  0  0  0  0  3  0  0  0  0  0  0
   -3.3990   19.1830  -11.7250 C   0  0  0  0  0  0  0  0  0  0  0  0
   -2.6810   17.9730  -13.0250 Br  0  0  0  0  0  0  0  0  0  0  0  0
   -2.5980   19.5730  -10.6730 C   0  0  0  0  0  3  0  0  0  0  0  0
   -6.9290   24.5640   -5.7440 C   0  0  1  0  0  3  0  0  0  0  0  0
   -7.0170   25.9780   -6.2610 C   0  0  0  0  0  2  0  0  0  0  0  0
   -8.4140   26.2340   -6.5530 N   0  0  0  0  0  0  0  0  0  0  0  0
   -9.3720   25.7170   -5.7680 C   0  0  0  0  0  0  0  0  0  0  0  0
   -9.0220   26.9320   -7.5130 C   0  0  0  0  0  0  0  0  0  0  0  0
  -10.5540   26.1180   -6.2770 N   0  0  0  0  0  0  0  0  0  0  0  0
   -9.1240   24.8770   -4.5860 C   0  0  0  0  0  2  0  0  0  0  0  0
  -10.3460   26.8520   -7.3300 N   0  0  0  0  0  0  0  0  0  0  0  0
   -7.7220   24.3940   -4.4740 C   0  0  0  0  0  2  0  0  0  0  0  0
   -8.4080   27.7020   -8.6390 C   0  0  0  0  0  1  0  0  0  0  0  0
  1  2  1  0  0  0  0
  2  3  2  0  0  0  0
  4  1  1  0  0  0  0
  5  1  1  0  0  0  0
  6  7  1  0  0  0  0
  6  5  1  0  0  0  0
  8 10  1  0  0  0  0
  8  7  2  0  0  0  0
  9 12  1  0  0  0  0
  9  8  1  0  0  0  0
 11 13  2  0  0  0  0
 11  9  1  0  0  0  0
 12  6  2  0  0  0  0
 13 15  1  0  0  0  0
 14 13  1  0  0  0  0
 15 10  2  0  0  0  0
 16  2  1  6  0  0  0
 16 24  1  0  0  0  0
 17 16  1  0  0  0  0
 18 17  1  0  0  0  0
 18 19  1  0  0  0  0
 19 22  1  0  0  0  0
 20 23  2  0  0  0  0
 20 18  1  0  0  0  0
 21 19  2  0  0  0  0
 22 24  1  0  0  0  0
 23 21  1  0  0  0  0
 25 20  1  0  0  0  0
M  END
>  <Pose>
1

>  <Score>
-7.719

$$$$
