/Users/jonathanwahrer/Desktop/Msc/3_Semester/Drug_Design_Praktikum/waehrer_HTS_screening/HTS_experiment/out/docking_results/vina_output/6q9y/0789_docked.pdbqt
 OpenBabel03222219383D

 21 24  0  0  1  0  0  0  0  0999 V2000
   -5.1590    8.0300  -14.7350 C   0  0  0  0  0  0  0  0  0  0  0  0
   -5.5810    6.8650  -14.9700 O   0  0  0  0  0  0  0  0  0  0  0  0
   -3.7680    8.2060  -14.5220 N   0  0  0  0  0  0  0  0  0  0  0  0
   -2.8930    7.0930  -14.5830 C   0  0  0  0  0  2  0  0  0  0  0  0
   -1.6660    7.2460  -13.7640 C   0  0  2  0  0  3  0  0  0  0  0  0
   -1.5310    8.4900  -13.0620 N   0  0  2  0  0  0  0  0  0  0  0  0
   -1.8260    9.6210  -13.9220 C   0  0  0  0  0  2  0  0  0  0  0  0
   -3.3050    9.5390  -14.2480 C   0  0  0  0  0  2  0  0  0  0  0  0
   -0.1880    8.4560  -12.5690 C   0  0  0  0  0  2  0  0  0  0  0  0
    0.6230    7.7960  -13.6560 C   0  0  0  0  0  2  0  0  0  0  0  0
   -0.3990    7.2040  -14.6010 C   0  0  0  0  0  2  0  0  0  0  0  0
   -6.1160    9.1440  -14.6930 C   0  0  0  0  0  0  0  0  0  0  0  0
   -7.0010    9.5550  -15.6120 N   0  0  0  0  0  0  0  0  0  0  0  0
   -7.6890   10.6070  -15.1960 N   0  0  0  0  0  0  0  0  0  0  0  0
   -8.6710   11.3670  -15.7470 C   0  0  0  0  0  3  0  0  0  0  0  0
   -7.2780   10.9430  -13.9590 C   0  0  0  0  0  0  0  0  0  0  0  0
   -9.2320   12.4350  -15.0830 C   0  0  0  0  0  0  0  0  0  0  0  0
  -10.6210   13.4970  -15.8800 Br  0  0  0  0  0  0  0  0  0  0  0  0
   -8.7950   12.7610  -13.8180 C   0  0  0  0  0  3  0  0  0  0  0  0
   -7.8240   11.9960  -13.2960 N   0  0  0  0  0  0  0  0  0  0  0  0
   -6.2920   10.0340  -13.6330 C   0  0  0  0  0  3  0  0  0  0  0  0
  1 12  1  0  0  0  0
  1  3  1  0  0  0  0
  2  1  2  0  0  0  0
  3  8  1  0  0  0  0
  4  3  1  0  0  0  0
  4  5  1  0  0  0  0
  5 11  1  6  0  0  0
  5  6  1  0  0  0  0
  6  7  1  6  0  0  0
  6  9  1  0  0  0  0
  8  7  1  0  0  0  0
 10  9  1  0  0  0  0
 11 10  1  0  0  0  0
 12 21  1  0  0  0  0
 13 14  1  0  0  0  0
 13 12  2  0  0  0  0
 14 16  1  0  0  0  0
 15 14  1  0  0  0  0
 15 17  2  0  0  0  0
 16 21  2  0  0  0  0
 16 20  1  0  0  0  0
 17 19  1  0  0  0  0
 18 17  1  0  0  0  0
 19 20  2  0  0  0  0
M  END
>  <Pose>
1

>  <Score>
-8.297

$$$$
