/Users/jonathanwahrer/Desktop/Msc/3_Semester/Drug_Design_Praktikum/waehrer_HTS_screening/HTS_experiment/out/docking_results/vina_output/6q9y/0790_docked.pdbqt
 OpenBabel03222219393D

 25 28  0  0  0  0  0  0  0  0999 V2000
    1.1930    7.0190  -13.4340 C   0  0  0  0  0  0  0  0  0  0  0  0
    1.4980    6.2860  -12.4500 O   0  0  0  0  0  0  0  0  0  0  0  0
    2.1530    7.8760  -14.0290 N   0  0  0  0  0  0  0  0  0  0  0  0
    1.7130    8.6950  -15.1700 C   0  0  0  0  0  2  0  0  0  0  0  0
    2.6550    9.8990  -15.1440 C   0  0  0  0  0  2  0  0  0  0  0  0
    2.8470   10.2150  -13.7600 N   0  0  0  0  0  0  0  0  0  0  0  0
    3.9090    9.3780  -13.1300 C   0  0  0  0  0  2  0  0  0  0  0  0
    3.5220    7.9550  -13.5430 C   0  0  0  0  0  2  0  0  0  0  0  0
    2.1600   11.1300  -12.9790 C   0  0  0  0  0  0  0  0  0  0  0  0
    2.5540   11.2680  -11.7470 O   0  0  0  0  0  0  0  0  0  0  0  0
   -0.1590    6.9540  -13.9310 C   0  0  0  0  0  0  0  0  0  0  0  0
   -0.7620    5.9740  -14.6850 C   0  0  0  0  0  3  0  0  0  0  0  0
   -2.0370    6.3210  -14.9260 N   0  0  0  0  0  0  0  0  0  0  0  0
   -2.2640    7.4990  -14.3430 N   0  0  0  0  0  0  0  0  0  0  0  0
   -3.3490    8.2620  -14.2850 C   0  0  0  0  0  3  0  0  0  0  0  0
   -1.1430    7.9150  -13.7280 C   0  0  0  0  0  0  0  0  0  0  0  0
   -3.3400    9.4470  -13.6190 C   0  0  0  0  0  0  0  0  0  0  0  0
   -4.9000   10.5350  -13.5410 Br  0  0  0  0  0  0  0  0  0  0  0  0
   -2.1970    9.8660  -12.9950 C   0  0  0  0  0  3  0  0  0  0  0  0
   -1.1180    9.0830  -13.0660 N   0  0  0  0  0  0  0  0  0  0  0  0
    1.0370   11.9870  -13.3200 C   0  0  0  0  0  0  0  0  0  0  0  0
    0.1720   11.7440  -14.3150 O   0  0  0  0  0  0  0  0  0  0  0  0
   -0.7290   12.6610  -14.4070 C   0  0  0  0  0  3  0  0  0  0  0  0
   -0.5140   13.6110  -13.4400 C   0  0  0  0  0  3  0  0  0  0  0  0
    0.6090   13.1670  -12.7620 C   0  0  0  0  0  3  0  0  0  0  0  0
  1  2  2  0  0  0  0
  3  8  1  0  0  0  0
  3  1  1  0  0  0  0
  4  5  1  0  0  0  0
  4  3  1  0  0  0  0
  5  6  1  0  0  0  0
  6  7  1  0  0  0  0
  6  9  1  0  0  0  0
  8  7  1  0  0  0  0
  9 10  2  0  0  0  0
 11 16  2  0  0  0  0
 11  1  1  0  0  0  0
 12 11  1  0  0  0  0
 13 12  2  0  0  0  0
 13 14  1  0  0  0  0
 14 15  1  0  0  0  0
 14 16  1  0  0  0  0
 15 17  2  0  0  0  0
 16 20  1  0  0  0  0
 17 18  1  0  0  0  0
 17 19  1  0  0  0  0
 20 19  2  0  0  0  0
 21  9  1  0  0  0  0
 21 25  2  0  0  0  0
 22 21  1  0  0  0  0
 23 22  1  0  0  0  0
 23 24  2  0  0  0  0
 24 25  1  0  0  0  0
M  END
>  <Pose>
1

>  <Score>
-6.381

$$$$
