/Users/jonathanwahrer/Desktop/Msc/3_Semester/Drug_Design_Praktikum/waehrer_HTS_screening/HTS_experiment/out/docking_results/vina_output/6q9y/0797_docked.pdbqt
 OpenBabel03222219393D

 28 31  0  0  0  0  0  0  0  0999 V2000
   -5.3620    8.2400  -14.8780 O   0  0  0  0  0  0  0  0  0  0  0  0
   -5.7230    9.1120  -13.8380 C   0  0  0  0  0  2  0  0  0  0  0  0
   -6.7590   10.1040  -14.2250 C   0  0  0  0  0  0  0  0  0  0  0  0
   -7.4720    9.9790  -15.3700 N   0  0  0  0  0  0  0  0  0  0  0  0
   -8.4160   10.8610  -15.7400 C   0  0  0  0  0  0  0  0  0  0  0  0
   -8.7240   11.9390  -14.9970 N   0  0  0  0  0  0  0  0  0  0  0  0
   -9.1330   10.7000  -16.9290 C   0  0  0  0  0  3  0  0  0  0  0  0
   -9.6760   12.8150  -15.3850 C   0  0  0  0  0  3  0  0  0  0  0  0
   -8.0380   12.1060  -13.8470 C   0  0  0  0  0  0  0  0  0  0  0  0
  -10.3990   12.6820  -16.5500 C   0  0  0  0  0  0  0  0  0  0  0  0
  -11.7400   13.9570  -17.0540 Br  0  0  0  0  0  0  0  0  0  0  0  0
  -10.1060   11.5860  -17.3340 C   0  0  0  0  0  3  0  0  0  0  0  0
   -7.0570   11.2030  -13.4470 C   0  0  0  0  0  3  0  0  0  0  0  0
   -8.3150   13.0980  -13.1550 O   0  0  0  0  0  0  0  0  0  0  0  0
   -4.6710    7.0560  -14.7270 C   0  0  0  0  0  0  0  0  0  0  0  0
   -5.1420    6.1550  -14.0040 O   0  0  0  0  0  0  0  0  0  0  0  0
   -3.3810    6.8900  -15.4360 C   0  0  0  0  0  2  0  0  0  0  0  0
   -2.2780    6.9540  -14.5220 N   0  0  0  0  0  0  0  0  0  0  0  0
   -1.8320    8.1010  -13.8330 C   0  0  0  0  0  0  0  0  0  0  0  0
   -2.2810    9.2760  -13.8650 O   0  0  0  0  0  0  0  0  0  0  0  0
   -0.6720    7.7170  -13.0000 C   0  0  0  0  0  0  0  0  0  0  0  0
   -0.4460    6.3820  -13.1950 C   0  0  0  0  0  0  0  0  0  0  0  0
    0.1250    8.4560  -12.1420 C   0  0  0  0  0  3  0  0  0  0  0  0
    0.5680    5.7260  -12.5570 C   0  0  0  0  0  3  0  0  0  0  0  0
   -1.4420    5.8830  -14.1460 C   0  0  0  0  0  0  0  0  0  0  0  0
    1.3730    6.4370  -11.7020 C   0  0  0  0  0  3  0  0  0  0  0  0
    1.1450    7.7850  -11.5030 C   0  0  0  0  0  3  0  0  0  0  0  0
   -1.5120    4.6800  -14.5440 O   0  0  0  0  0  0  0  0  0  0  0  0
  1 15  1  0  0  0  0
  1  2  1  0  0  0  0
  3  2  1  0  0  0  0
  3 13  2  0  0  0  0
  4  3  1  0  0  0  0
  5  4  2  0  0  0  0
  5  6  1  0  0  0  0
  6  9  1  0  0  0  0
  7  5  1  0  0  0  0
  8  6  1  0  0  0  0
  9 13  1  0  0  0  0
  9 14  2  0  0  0  0
 10  8  2  0  0  0  0
 11 10  1  0  0  0  0
 12  7  2  0  0  0  0
 12 10  1  0  0  0  0
 15 16  2  0  0  0  0
 17 15  1  0  0  0  0
 17 18  1  0  0  0  0
 18 25  1  0  0  0  0
 18 19  1  0  0  0  0
 19 21  1  0  0  0  0
 20 19  2  0  0  0  0
 21 23  1  0  0  0  0
 22 21  2  0  0  0  0
 22 24  1  0  0  0  0
 23 27  2  0  0  0  0
 24 26  2  0  0  0  0
 25 22  1  0  0  0  0
 26 27  1  0  0  0  0
 28 25  2  0  0  0  0
M  END
>  <Pose>
1

>  <Score>
-10.309

$$$$
