/Users/jonathanwahrer/Desktop/Msc/3_Semester/Drug_Design_Praktikum/waehrer_HTS_screening/HTS_experiment/out/docking_results/vina_output/6q9y/0803_docked.pdbqt
 OpenBabel03222219393D

 31 34  0  0  0  0  0  0  0  0999 V2000
    0.0670    6.3080  -13.6740 Br  0  0  0  0  0  0  0  0  0  0  0  0
    0.8000    8.0370  -13.3860 C   0  0  0  0  0  0  0  0  0  0  0  0
    0.0940    9.1790  -13.5370 C   0  0  0  0  0  2  0  0  0  0  0  0
    0.5770   10.3920  -13.2530 N   0  0  0  0  0  0  0  0  0  0  0  0
    1.8250   10.4850  -12.7950 C   0  0  0  0  0  0  0  0  0  0  0  0
    2.3420   11.7120  -12.5060 N   0  0  0  0  0  0  0  0  0  0  0  0
    1.6610   12.8390  -12.6600 C   0  0  0  0  0  0  0  0  0  0  0  0
    0.3700   12.7700  -13.1310 C   0  0  0  0  0  0  0  0  0  0  0  0
   -0.3880   13.9090  -13.3190 C   0  0  0  0  0  3  0  0  0  0  0  0
    0.1070   15.1850  -13.0440 C   0  0  0  0  0  3  0  0  0  0  0  0
    1.4000   15.2420  -12.5720 C   0  0  0  0  0  3  0  0  0  0  0  0
    2.1630   14.1030  -12.3820 C   0  0  0  0  0  3  0  0  0  0  0  0
   -0.1390   11.5100  -13.4190 C   0  0  0  0  0  0  0  0  0  0  0  0
   -1.3110   11.4320  -13.8490 O   0  0  0  0  0  0  0  0  0  0  0  0
    2.5540    9.3560  -12.6360 N   0  0  0  0  0  0  0  0  0  0  0  0
    2.1460    8.1210  -12.8960 C   0  0  0  0  0  0  0  0  0  0  0  0
    3.5360    9.5670  -12.2620 H   0  0  0  0  0  0  0  0  0  0  0  0
    2.8510    6.9600  -12.8610 N   0  0  0  0  0  0  0  0  0  0  0  0
    3.3800    7.1880  -14.1010 H   0  0  0  0  0  0  0  0  0  0  0  0
    3.5450    5.8150  -12.8280 C   0  0  0  0  0  0  0  0  0  0  0  0
    4.8180    5.7630  -13.4110 C   0  0  0  0  0  0  0  0  0  0  0  0
    5.4440    4.5750  -13.6040 C   0  0  0  0  0  3  0  0  0  0  0  0
    4.8420    3.4000  -13.2260 C   0  0  0  0  0  3  0  0  0  0  0  0
    3.5950    3.3840  -12.6410 C   0  0  0  0  0  3  0  0  0  0  0  0
    2.9790    4.6000  -12.4580 C   0  0  0  0  0  3  0  0  0  0  0  0
    5.5870    6.9800  -13.6980 C   0  0  0  0  0  0  0  0  0  0  0  0
    5.2010    7.7020  -14.6510 O   0  0  0  0  0  0  0  0  0  0  0  0
    6.6970    7.3950  -13.0200 O   0  0  0  0  0  0  0  0  0  0  0  0
    8.0120    7.1640  -13.4860 C   0  0  0  0  0  2  0  0  0  0  0  0
    8.9400    6.8380  -12.3120 C   0  0  0  0  0  2  0  0  0  0  0  0
    8.6390    5.4380  -11.8330 C   0  0  0  0  0  1  0  0  0  0  0  0
  1  2  1  0  0  0  0
  2 16  2  0  0  0  0
  3  2  1  0  0  0  0
  3  4  1  0  0  0  0
  4  5  1  0  0  0  0
  5 15  1  0  0  0  0
  5  6  2  0  0  0  0
  7  6  1  0  0  0  0
  7 12  1  0  0  0  0
  8  7  2  0  0  0  0
  9  8  1  0  0  0  0
  9 10  2  0  0  0  0
 10 11  1  0  0  0  0
 11 12  2  0  0  0  0
 13  4  1  0  0  0  0
 13  8  1  0  0  0  0
 14 13  2  0  0  0  0
 15 17  1  0  0  0  0
 16 18  1  0  0  0  0
 16 15  1  0  0  0  0
 18 20  1  0  0  0  0
 19 18  1  0  0  0  0
 20 25  1  0  0  0  0
 21 20  2  0  0  0  0
 22 21  1  0  0  0  0
 22 23  2  0  0  0  0
 23 24  1  0  0  0  0
 24 25  2  0  0  0  0
 26 21  1  0  0  0  0
 26 28  1  0  0  0  0
 27 26  2  0  0  0  0
 29 28  1  0  0  0  0
 29 30  1  0  0  0  0
 30 31  1  0  0  0  0
M  END
>  <Pose>
1

>  <Score>
-8.923

$$$$
