/Users/jonathanwahrer/Desktop/Msc/3_Semester/Drug_Design_Praktikum/waehrer_HTS_screening/HTS_experiment/out/docking_results/vina_output/6q9y/0833_docked.pdbqt
 OpenBabel03222219403D

 28 31  0  0  1  0  0  0  0  0999 V2000
    2.3310    9.1200  -14.7730 C   0  0  1  0  0  0  0  0  0  0  0  0
    1.2590    9.1180  -13.7880 N   0  0  0  0  0  0  0  0  0  0  0  0
    0.9700    7.9650  -12.9420 C   0  0  0  0  0  2  0  0  0  0  0  0
   -0.3340    8.0650  -12.2410 C   0  0  0  0  0  2  0  0  0  0  0  0
   -1.4970    8.3830  -13.1450 C   0  0  0  0  0  2  0  0  0  0  0  0
   -1.7020    9.8830  -13.0500 C   0  0  0  0  0  2  0  0  0  0  0  0
   -0.6280   10.6930  -13.5450 C   0  0  0  0  0  3  0  0  0  0  0  0
    0.6460   10.3670  -13.8630 C   0  0  0  0  0  0  0  0  0  0  0  0
    1.5470   11.3470  -14.3240 N   0  0  0  0  0  4  0  0  0  0  0  0
    2.6560   10.5730  -14.8000 C   0  0  0  0  0  2  0  0  0  0  0  0
    1.1850   11.9330  -15.1110 H   0  0  0  0  0  0  0  0  0  0  0  0
    3.4500    8.2670  -14.3230 C   0  0  0  0  0  0  0  0  0  0  0  0
    4.7480    8.6280  -14.6950 C   0  0  0  0  0  3  0  0  0  0  0  0
    5.7810    7.7840  -14.2870 C   0  0  0  0  0  3  0  0  0  0  0  0
    5.5150    6.6490  -13.5560 C   0  0  0  0  0  0  0  0  0  0  0  0
    6.9620    5.5180  -13.0170 Br  0  0  0  0  0  0  0  0  0  0  0  0
    4.2150    6.3240  -13.2050 C   0  0  0  0  0  3  0  0  0  0  0  0
    3.1760    7.1500  -13.6000 C   0  0  0  0  0  3  0  0  0  0  0  0
    1.8120    8.6370  -15.9460 O   0  0  0  0  0  0  0  0  0  0  0  0
    0.8620    8.3970  -15.8970 H   0  0  0  0  0  0  0  0  0  0  0  0
    1.8850   12.1410  -13.1860 C   0  0  0  0  0  0  0  0  0  0  0  0
    1.1480   13.2680  -12.8630 C   0  0  0  0  0  0  0  0  0  0  0  0
    1.6050   14.0130  -11.7840 C   0  0  0  0  0  3  0  0  0  0  0  0
    2.7250   13.6960  -11.0390 C   0  0  0  0  0  3  0  0  0  0  0  0
    3.4440   12.5380  -11.4050 C   0  0  0  0  0  3  0  0  0  0  0  0
    2.9890   11.8220  -12.4530 C   0  0  0  0  0  3  0  0  0  0  0  0
    0.0420   13.5900  -13.5880 O   0  0  0  0  0  0  0  0  0  0  0  0
   -0.7380   14.7160  -13.2800 C   0  0  0  0  0  1  0  0  0  0  0  0
  1 19  1  6  0  0  0
  1 12  1  0  0  0  0
  1  2  1  0  0  0  0
  2  3  1  0  0  0  0
  3  4  1  0  0  0  0
  5  6  1  0  0  0  0
  5  4  1  0  0  0  0
  7  6  1  0  0  0  0
  8  2  1  0  0  0  0
  8  7  2  0  0  0  0
  9  8  1  0  0  0  0
  9 21  1  0  0  0  0
 10  1  1  0  0  0  0
 10  9  1  0  0  0  0
 11  9  1  0  0  0  0
 12 18  1  0  0  0  0
 13 12  2  0  0  0  0
 13 14  1  0  0  0  0
 14 15  2  0  0  0  0
 15 17  1  0  0  0  0
 15 16  1  0  0  0  0
 18 17  2  0  0  0  0
 19 20  1  0  0  0  0
 21 22  2  0  0  0  0
 21 26  1  0  0  0  0
 22 23  1  0  0  0  0
 23 24  2  0  0  0  0
 25 24  1  0  0  0  0
 26 25  2  0  0  0  0
 27 28  1  0  0  0  0
 27 22  1  0  0  0  0
M  END
>  <Pose>
1

>  <Score>
-8.321

$$$$
