/Users/jonathanwahrer/Desktop/Msc/3_Semester/Drug_Design_Praktikum/waehrer_HTS_screening/HTS_experiment/out/docking_results/vina_output/6q9y/0835_docked.pdbqt
 OpenBabel03222219403D

 27 30  0  0  1  0  0  0  0  0999 V2000
    0.7560    8.3570  -14.0670 C   0  0  2  0  0  0  0  0  0  0  0  0
    0.4680    9.7550  -13.8290 N   0  0  0  0  0  0  0  0  0  0  0  0
    1.1370   11.0290  -13.9870 C   0  0  0  0  0  2  0  0  0  0  0  0
    0.1770   12.1360  -14.3700 C   0  0  0  0  0  2  0  0  0  0  0  0
   -0.8730   12.2300  -13.3140 C   0  0  0  0  0  2  0  0  0  0  0  0
   -1.4830   10.9140  -13.0330 C   0  0  0  0  0  3  0  0  0  0  0  0
   -0.8470    9.7640  -13.2770 C   0  0  0  0  0  0  0  0  0  0  0  0
   -1.3050    8.4540  -13.0320 N   0  0  0  0  0  4  0  0  0  0  0  0
   -0.0470    7.6810  -12.9930 C   0  0  0  0  0  2  0  0  0  0  0  0
   -1.6590    8.3540  -12.0240 H   0  0  0  0  0  0  0  0  0  0  0  0
    2.2010    8.0350  -13.9750 C   0  0  0  0  0  0  0  0  0  0  0  0
    2.6300    7.0360  -13.1260 C   0  0  0  0  0  3  0  0  0  0  0  0
    3.9720    6.6810  -13.0020 C   0  0  0  0  0  3  0  0  0  0  0  0
    4.9080    7.3520  -13.7550 C   0  0  0  0  0  0  0  0  0  0  0  0
    6.7620    6.8790  -13.5880 Br  0  0  0  0  0  0  0  0  0  0  0  0
    4.4950    8.3540  -14.6070 C   0  0  0  0  0  3  0  0  0  0  0  0
    3.1600    8.6940  -14.7200 C   0  0  0  0  0  3  0  0  0  0  0  0
    0.2880    7.9130  -15.2990 O   0  0  0  0  0  0  0  0  0  0  0  0
   -0.6990    7.9280  -15.2490 H   0  0  0  0  0  0  0  0  0  0  0  0
   -2.2000    7.9110  -13.9480 C   0  0  0  0  0  0  0  0  0  0  0  0
   -3.3950    8.4980  -14.2840 C   0  0  0  0  0  0  0  0  0  0  0  0
   -4.2560    7.8870  -15.1990 C   0  0  0  0  0  3  0  0  0  0  0  0
   -3.9290    6.6900  -15.7810 C   0  0  0  0  0  3  0  0  0  0  0  0
   -2.7310    6.0940  -15.4510 C   0  0  0  0  0  3  0  0  0  0  0  0
   -1.8890    6.7000  -14.5520 C   0  0  0  0  0  3  0  0  0  0  0  0
   -3.8030    9.7030  -13.7480 O   0  0  0  0  0  0  0  0  0  0  0  0
   -5.1220   10.1260  -13.8440 C   0  0  0  0  0  1  0  0  0  0  0  0
  1 18  1  6  0  0  0
  1 11  1  0  0  0  0
  1  2  1  0  0  0  0
  1  9  1  0  0  0  0
  2  7  1  0  0  0  0
  3  2  1  0  0  0  0
  4  3  1  0  0  0  0
  4  5  1  0  0  0  0
  5  6  1  0  0  0  0
  7  6  2  0  0  0  0
  7  8  1  0  0  0  0
  8  9  1  0  0  0  0
  8 10  1  0  0  0  0
 11 12  1  0  0  0  0
 12 13  2  0  0  0  0
 14 15  1  0  0  0  0
 14 13  1  0  0  0  0
 16 14  2  0  0  0  0
 17 16  1  0  0  0  0
 17 11  2  0  0  0  0
 18 19  1  0  0  0  0
 20  8  1  0  0  0  0
 21 20  1  0  0  0  0
 21 26  1  0  0  0  0
 22 21  2  0  0  0  0
 23 24  2  0  0  0  0
 23 22  1  0  0  0  0
 24 25  1  0  0  0  0
 25 20  2  0  0  0  0
 27 26  1  0  0  0  0
M  END
>  <Pose>
1

>  <Score>
-8.149

$$$$
