/Users/jonathanwahrer/Desktop/Msc/3_Semester/Drug_Design_Praktikum/waehrer_HTS_screening/HTS_experiment/out/docking_results/vina_output/6q9y/0836_docked.pdbqt
 OpenBabel03222219413D

 27 30  0  0  1  0  0  0  0  0999 V2000
   -0.3600    7.7940  -14.3390 C   0  0  2  0  0  0  0  0  0  0  0  0
    0.3820    7.6220  -13.1150 N   0  0  0  0  0  0  0  0  0  0  0  0
    0.0500    7.3630  -11.7200 C   0  0  0  0  0  2  0  0  0  0  0  0
    1.0740    6.6090  -10.9650 C   0  0  0  0  0  2  0  0  0  0  0  0
    2.2520    6.1160  -11.7690 C   0  0  0  0  0  2  0  0  0  0  0  0
    2.6530    7.0380  -12.8280 C   0  0  0  0  0  3  0  0  0  0  0  0
    1.7500    7.7570  -13.4690 C   0  0  0  0  0  0  0  0  0  0  0  0
    1.8390    8.7160  -14.5180 N   0  0  0  0  0  4  0  0  0  0  0  0
    0.5650    8.6570  -15.1650 C   0  0  0  0  0  2  0  0  0  0  0  0
    2.6000    8.3820  -15.1690 H   0  0  0  0  0  0  0  0  0  0  0  0
   -1.6910    8.3730  -14.1730 C   0  0  0  0  0  0  0  0  0  0  0  0
   -2.8060    7.6990  -14.6270 C   0  0  0  0  0  3  0  0  0  0  0  0
   -4.0860    8.1980  -14.4990 C   0  0  0  0  0  3  0  0  0  0  0  0
   -4.3150    9.4210  -13.8970 C   0  0  0  0  0  0  0  0  0  0  0  0
   -6.0750   10.1330  -13.7100 Br  0  0  0  0  0  0  0  0  0  0  0  0
   -3.2120   10.1080  -13.4370 C   0  0  0  0  0  3  0  0  0  0  0  0
   -1.9320    9.6010  -13.5700 C   0  0  0  0  0  3  0  0  0  0  0  0
   -0.5040    6.5150  -14.9160 O   0  0  0  0  0  0  0  0  0  0  0  0
   -0.4510    5.8740  -14.1660 H   0  0  0  0  0  0  0  0  0  0  0  0
    2.1820    9.9490  -13.9790 C   0  0  0  0  0  0  0  0  0  0  0  0
    3.4910   10.2430  -13.6750 C   0  0  0  0  0  3  0  0  0  0  0  0
    3.8360   11.4900  -13.1290 C   0  0  0  0  0  3  0  0  0  0  0  0
    2.8950   12.4500  -12.8810 C   0  0  0  0  0  0  0  0  0  0  0  0
    1.5570   12.1450  -13.1930 C   0  0  0  0  0  3  0  0  0  0  0  0
    1.2500   10.9110  -13.7290 C   0  0  0  0  0  3  0  0  0  0  0  0
    3.1660   13.7060  -12.3420 O   0  0  0  0  0  0  0  0  0  0  0  0
    2.4350   14.3560  -11.3530 C   0  0  0  0  0  1  0  0  0  0  0  0
  1 18  1  6  0  0  0
  1 11  1  0  0  0  0
  1  2  1  0  0  0  0
  2  3  1  0  0  0  0
  3  4  1  0  0  0  0
  5  4  1  0  0  0  0
  6  5  1  0  0  0  0
  7  2  1  0  0  0  0
  7  6  2  0  0  0  0
  8 20  1  0  0  0  0
  8  7  1  0  0  0  0
  9  8  1  0  0  0  0
  9  1  1  0  0  0  0
 10  8  1  0  0  0  0
 11 17  1  0  0  0  0
 12 13  1  0  0  0  0
 12 11  2  0  0  0  0
 13 14  2  0  0  0  0
 14 15  1  0  0  0  0
 14 16  1  0  0  0  0
 17 16  2  0  0  0  0
 18 19  1  0  0  0  0
 20 25  2  0  0  0  0
 20 21  1  0  0  0  0
 21 22  2  0  0  0  0
 22 23  1  0  0  0  0
 23 26  1  0  0  0  0
 24 23  2  0  0  0  0
 25 24  1  0  0  0  0
 26 27  1  0  0  0  0
M  END
>  <Pose>
1

>  <Score>
-6.973

$$$$
