/Users/jonathanwahrer/Desktop/Msc/3_Semester/Drug_Design_Praktikum/waehrer_HTS_screening/HTS_experiment/out/docking_results/vina_output/6q9y/0860_docked.pdbqt
 OpenBabel03222219413D

 29 32  0  0  1  0  0  0  0  0999 V2000
    1.6670   15.9900  -11.6750 Br  0  0  0  0  0  0  0  0  0  0  0  0
    1.1370   14.3200  -12.4490 C   0  0  0  0  0  0  0  0  0  0  0  0
    1.9130   13.1850  -12.3230 C   0  0  0  0  0  3  0  0  0  0  0  0
    1.5280   11.9870  -12.8820 C   0  0  0  0  0  0  0  0  0  0  0  0
    0.3330   11.9780  -13.5710 C   0  0  0  0  0  0  0  0  0  0  0  0
   -0.4480   13.1090  -13.7000 C   0  0  0  0  0  3  0  0  0  0  0  0
   -0.0580   14.3060  -13.1390 C   0  0  0  0  0  0  0  0  0  0  0  0
   -0.9090   15.5220  -13.2850 C   0  0  0  0  0  1  0  0  0  0  0  0
   -0.0350   10.7540  -14.1270 O   0  0  0  0  0  0  0  0  0  0  0  0
    0.8300    9.6820  -14.2940 C   0  0  0  0  0  2  0  0  0  0  0  0
    1.8990    9.5490  -13.2620 C   0  0  2  0  0  0  0  0  0  0  0  0
    2.4100   10.8300  -12.7030 C   0  0  2  0  0  3  0  0  0  0  0  0
    3.0270    8.9100  -13.9480 N   0  0  0  0  0  4  0  0  0  0  0  0
    3.5480    7.7860  -13.2490 C   0  0  0  0  0  2  0  0  0  0  0  0
    4.4350    7.0310  -14.2510 C   0  0  0  0  0  2  0  0  0  0  0  0
    5.4800    7.8840  -14.5630 O   0  0  0  0  0  0  0  0  0  0  0  0
    5.0640    9.0720  -15.1530 C   0  0  0  0  0  2  0  0  0  0  0  0
    4.0880    9.8250  -14.2370 C   0  0  0  0  0  2  0  0  0  0  0  0
    2.6400    8.5770  -14.8600 H   0  0  0  0  0  0  0  0  0  0  0  0
    1.5070    8.6210  -12.1300 C   0  0  0  0  0  2  0  0  0  0  0  0
    0.1700    8.1210  -12.2280 N   0  0  0  0  0  4  0  0  0  0  0  0
   -0.1590    7.6550  -13.5630 C   0  0  0  0  0  2  0  0  0  0  0  0
   -0.8910    6.3220  -13.5320 C   0  0  0  0  0  2  0  0  0  0  0  0
   -0.1130    5.3060  -13.0020 O   0  0  0  0  0  0  0  0  0  0  0  0
    0.7190    5.7800  -11.9920 C   0  0  0  0  0  2  0  0  0  0  0  0
    0.0050    6.9510  -11.3490 C   0  0  0  0  0  2  0  0  0  0  0  0
   -0.5720    8.7800  -11.9480 H   0  0  0  0  0  0  0  0  0  0  0  0
    2.6500   10.7130  -11.3120 O   0  0  0  0  0  0  0  0  0  0  0  0
    1.8350   10.5010  -10.8120 H   0  0  0  0  0  0  0  0  0  0  0  0
  2  3  1  0  0  0  0
  2  1  1  0  0  0  0
  4 12  1  0  0  0  0
  4  3  2  0  0  0  0
  5  4  1  0  0  0  0
  6  5  2  0  0  0  0
  6  7  1  0  0  0  0
  7  2  2  0  0  0  0
  8  7  1  0  0  0  0
  9  5  1  0  0  0  0
 10  9  1  0  0  0  0
 10 11  1  0  0  0  0
 11 12  1  0  0  0  0
 11 20  1  1  0  0  0
 12 28  1  1  0  0  0
 13 11  1  0  0  0  0
 13 14  1  0  0  0  0
 15 14  1  0  0  0  0
 16 15  1  0  0  0  0
 17 16  1  0  0  0  0
 17 18  1  0  0  0  0
 18 13  1  0  0  0  0
 19 13  1  0  0  0  0
 21 20  1  0  0  0  0
 21 27  1  0  0  0  0
 21 26  1  0  0  0  0
 22 23  1  0  0  0  0
 22 21  1  0  0  0  0
 23 24  1  0  0  0  0
 24 25  1  0  0  0  0
 25 26  1  0  0  0  0
 28 29  1  0  0  0  0
M  END
>  <Pose>
1

>  <Score>
-5.497

$$$$
