/Users/jonathanwahrer/Desktop/Msc/3_Semester/Drug_Design_Praktikum/waehrer_HTS_screening/HTS_experiment/out/docking_results/vina_output/6q9y/0865_docked.pdbqt
 OpenBabel03222219423D

 30 33  0  0  0  0  0  0  0  0999 V2000
   -2.4350    9.0170  -13.9250 C   0  0  0  0  0  0  0  0  0  0  0  0
   -1.5030    8.0470  -13.8020 N   0  0  0  0  0  4  0  0  0  0  0  0
   -0.2010    8.3090  -13.5290 C   0  0  0  0  0  0  0  0  0  0  0  0
    0.1300    9.5940  -13.3860 N   0  0  0  0  0  0  0  0  0  0  0  0
   -0.7420   10.6110  -13.4950 C   0  0  0  0  0  0  0  0  0  0  0  0
   -2.0190   10.2860  -13.7660 N   0  0  0  0  0  2  0  0  0  0  0  0
   -3.7760    8.6720  -14.2100 N   0  0  0  0  0  0  0  0  0  0  0  0
   -4.0160    7.6830  -14.3890 H   0  0  0  0  0  0  0  0  0  0  0  0
   -4.7650    9.6440  -14.2540 N   0  0  0  0  0  0  0  0  0  0  0  0
   -6.0210    9.3840  -14.3300 C   0  0  0  0  0  3  0  0  0  0  0  0
   -7.0030   10.4600  -14.3710 C   0  0  0  0  0  0  0  0  0  0  0  0
   -7.8890   10.6100  -15.4240 C   0  0  0  0  0  3  0  0  0  0  0  0
   -8.8170   11.6300  -15.4590 C   0  0  0  0  0  0  0  0  0  0  0  0
   -8.8960   12.5490  -14.4330 C   0  0  0  0  0  0  0  0  0  0  0  0
  -10.0270   11.8120  -16.9250 Br  0  0  0  0  0  0  0  0  0  0  0  0
   -9.8050   13.5630  -14.4460 F   0  0  0  0  0  0  0  0  0  0  0  0
   -8.0220   12.4110  -13.3800 C   0  0  0  0  0  3  0  0  0  0  0  0
   -7.0890   11.3830  -13.3500 C   0  0  0  0  0  3  0  0  0  0  0  0
    0.7390    7.2470  -13.4090 N   0  0  0  0  0  0  0  0  0  0  0  0
    0.3780    5.8510  -13.3230 C   0  0  0  0  0  2  0  0  0  0  0  0
    1.0730    5.3700  -12.0500 C   0  0  0  0  0  2  0  0  0  0  0  0
    2.4050    5.3890  -12.2430 O   0  0  0  0  0  0  0  0  0  0  0  0
    2.9920    6.4560  -12.8000 C   0  0  0  0  0  3  0  0  0  0  0  0
    2.1540    7.5330  -13.3660 C   0  0  0  0  0  3  0  0  0  0  0  0
   -0.3160   11.9570  -13.3300 N   0  0  0  0  0  0  0  0  0  0  0  0
   -1.2700   12.9410  -12.8560 C   0  0  0  0  0  2  0  0  0  0  0  0
   -0.6070   14.2990  -12.8000 C   0  0  0  0  0  2  0  0  0  0  0  0
    0.6020   14.3110  -12.1650 O   0  0  0  0  0  0  0  0  0  0  0  0
    1.4470   13.2660  -12.4250 C   0  0  0  0  0  2  0  0  0  0  0  0
    1.0140   12.4130  -13.6060 C   0  0  0  0  0  2  0  0  0  0  0  0
  1  2  2  0  0  0  0
  1  6  1  0  0  0  0
  2  3  2  0  0  0  0
  3 19  1  0  0  0  0
  3  4  1  0  0  0  0
  5  4  2  0  0  0  0
  5 25  1  0  0  0  0
  6  5  1  0  0  0  0
  7  1  1  0  0  0  0
  8  7  1  0  0  0  0
  9  7  1  0  0  0  0
 10  9  2  0  0  0  0
 11 10  1  0  0  0  0
 11 18  1  0  0  0  0
 12 11  2  0  0  0  0
 13 12  1  0  0  0  0
 13 14  2  0  0  0  0
 14 17  1  0  0  0  0
 15 13  1  0  0  0  0
 16 14  1  0  0  0  0
 17 18  2  0  0  0  0
 19 24  1  0  0  0  0
 19 20  1  0  0  0  0
 20 21  1  0  0  0  0
 22 21  1  0  0  0  0
 23 22  1  0  0  0  0
 24 23  2  0  0  0  0
 25 26  1  0  0  0  0
 26 27  1  0  0  0  0
 27 28  1  0  0  0  0
 29 28  1  0  0  0  0
 30 25  1  0  0  0  0
 30 29  1  0  0  0  0
M  END
>  <Pose>
1

>  <Score>
-9.057

$$$$
