/Users/jonathanwahrer/Desktop/Msc/3_Semester/Drug_Design_Praktikum/waehrer_HTS_screening/HTS_experiment/out/docking_results/vina_output/6q9y/0872_docked.pdbqt
 OpenBabel03222219423D

 32 35  0  0  0  0  0  0  0  0999 V2000
   -0.3300   16.6370  -12.5360 N   0  0  0  0  0  0  0  0  0  0  0  0
   -0.4260   16.2020  -13.7800 N   0  0  0  0  0  0  0  0  0  0  0  0
   -1.5150   16.7610  -14.2760 N   0  0  0  0  0  0  0  0  0  0  0  0
   -2.1170   17.5500  -13.3620 C   0  0  0  0  0  0  0  0  0  0  0  0
   -1.3540   17.4630  -12.2600 C   0  0  0  0  0  0  0  0  0  0  0  0
   -1.9800   18.2700  -11.3390 C   0  0  0  0  0  0  0  0  0  0  0  0
   -1.5740   18.4610  -10.1620 O   0  0  0  0  0  0  0  0  0  0  0  0
   -3.0920   18.8400  -11.8460 N   0  0  0  0  0  0  0  0  0  0  0  0
   -3.1840   18.3940  -13.1100 C   0  0  0  0  0  0  0  0  0  0  0  0
   -4.0940   18.7010  -13.9230 O   0  0  0  0  0  0  0  0  0  0  0  0
    0.2280   15.5400  -14.2890 H   0  0  0  0  0  0  0  0  0  0  0  0
   -1.8400   16.5890  -15.2640 H   0  0  0  0  0  0  0  0  0  0  0  0
    0.7420   16.2580  -11.6420 C   0  0  0  0  0  2  0  0  0  0  0  0
    1.5680   15.1680  -12.2960 C   0  0  0  0  0  0  0  0  0  0  0  0
    1.2700   13.8350  -12.0280 N   0  0  0  0  0  0  0  0  0  0  0  0
    0.4460   13.6660  -11.3550 H   0  0  0  0  0  0  0  0  0  0  0  0
    2.4790   15.5370  -13.0440 O   0  0  0  0  0  0  0  0  0  0  0  0
    1.9530   12.7310  -12.5620 C   0  0  0  0  0  0  0  0  0  0  0  0
    3.2430   12.4480  -12.0860 C   0  0  0  0  0  0  0  0  0  0  0  0
    3.7550   13.2680  -11.1270 F   0  0  0  0  0  0  0  0  0  0  0  0
    3.9440   11.3790  -12.5810 C   0  0  0  0  0  3  0  0  0  0  0  0
    3.4000   10.5650  -13.5530 C   0  0  0  0  0  0  0  0  0  0  0  0
    2.1390   10.8080  -14.0460 C   0  0  0  0  0  3  0  0  0  0  0  0
    4.1250    9.5200  -14.0160 F   0  0  0  0  0  0  0  0  0  0  0  0
    1.4370   11.9140  -13.5200 C   0  0  0  0  0  3  0  0  0  0  0  0
   -3.9700   19.7350  -11.1430 C   0  0  0  0  0  0  0  0  0  0  0  0
   -5.2680   19.9340  -11.5730 C   0  0  0  0  0  3  0  0  0  0  0  0
   -6.1440   20.7830  -10.9300 C   0  0  0  0  0  3  0  0  0  0  0  0
   -5.6740   21.4470   -9.8140 C   0  0  0  0  0  0  0  0  0  0  0  0
   -4.3840   21.2870   -9.3360 C   0  0  0  0  0  3  0  0  0  0  0  0
   -6.9130   22.6230   -8.9350 Br  0  0  0  0  0  0  0  0  0  0  0  0
   -3.5580   20.4230  -10.0270 C   0  0  0  0  0  3  0  0  0  0  0  0
  1  5  1  0  0  0  0
  1 13  1  0  0  0  0
  2  1  1  0  0  0  0
  3  2  1  0  0  0  0
  3  4  1  0  0  0  0
  4  9  1  0  0  0  0
  4  5  2  0  0  0  0
  5  6  1  0  0  0  0
  6  7  2  0  0  0  0
  8  6  1  0  0  0  0
  8 26  1  0  0  0  0
  9  8  1  0  0  0  0
 10  9  2  0  0  0  0
 11  2  1  0  0  0  0
 12  3  1  0  0  0  0
 14 15  1  0  0  0  0
 14 13  1  0  0  0  0
 15 16  1  0  0  0  0
 17 14  2  0  0  0  0
 18 19  1  0  0  0  0
 18 15  1  0  0  0  0
 19 20  1  0  0  0  0
 21 19  2  0  0  0  0
 22 21  1  0  0  0  0
 23 22  2  0  0  0  0
 23 25  1  0  0  0  0
 24 22  1  0  0  0  0
 25 18  2  0  0  0  0
 26 32  1  0  0  0  0
 27 26  2  0  0  0  0
 27 28  1  0  0  0  0
 28 29  2  0  0  0  0
 29 30  1  0  0  0  0
 29 31  1  0  0  0  0
 32 30  2  0  0  0  0
M  END
>  <Pose>
1

>  <Score>
-11.460

$$$$
