/Users/jonathanwahrer/Desktop/Msc/3_Semester/Drug_Design_Praktikum/waehrer_HTS_screening/HTS_experiment/out/docking_results/vina_output/6q9y/0874_docked.pdbqt
 OpenBabel03222219433D

 31 34  0  0  0  0  0  0  0  0999 V2000
   -5.2730    9.1370  -14.4050 N   0  0  0  0  0  0  0  0  0  0  0  0
   -6.0310    8.3250  -15.1100 N   0  0  0  0  0  0  0  0  0  0  0  0
   -5.3390    7.2600  -15.4860 N   0  0  0  0  0  0  0  0  0  0  0  0
   -4.0820    7.3860  -15.0060 C   0  0  0  0  0  0  0  0  0  0  0  0
   -4.0570    8.5290  -14.3520 C   0  0  0  0  0  0  0  0  0  0  0  0
   -2.7690    8.6600  -13.8590 C   0  0  0  0  0  0  0  0  0  0  0  0
   -2.3710    9.6320  -13.1800 O   0  0  0  0  0  0  0  0  0  0  0  0
   -2.0100    7.6050  -14.2080 N   0  0  0  0  0  0  0  0  0  0  0  0
   -2.8280    6.8110  -14.9220 C   0  0  0  0  0  0  0  0  0  0  0  0
   -2.5140    5.7160  -15.4390 O   0  0  0  0  0  0  0  0  0  0  0  0
   -7.0420    8.5230  -15.3270 H   0  0  0  0  0  0  0  0  0  0  0  0
   -5.7000    6.4570  -16.0570 H   0  0  0  0  0  0  0  0  0  0  0  0
   -5.6210   10.4090  -13.8000 C   0  0  0  0  0  2  0  0  0  0  0  0
   -7.0250   10.7620  -14.1510 C   0  0  0  0  0  0  0  0  0  0  0  0
   -7.3500   11.2820  -15.4000 N   0  0  0  0  0  0  0  0  0  0  0  0
   -6.5260   11.4070  -16.0770 H   0  0  0  0  0  0  0  0  0  0  0  0
   -7.8760   10.5640  -13.2690 O   0  0  0  0  0  0  0  0  0  0  0  0
   -8.6330   11.6650  -15.8830 C   0  0  0  0  0  0  0  0  0  0  0  0
   -9.2650   12.7960  -15.3410 C   0  0  0  0  0  0  0  0  0  0  0  0
   -8.6150   13.4900  -14.3630 F   0  0  0  0  0  0  0  0  0  0  0  0
  -10.5010   13.2170  -15.7620 C   0  0  0  0  0  3  0  0  0  0  0  0
  -11.1830   12.5390  -16.7450 C   0  0  0  0  0  3  0  0  0  0  0  0
  -10.5730   11.4400  -17.2750 C   0  0  0  0  0  3  0  0  0  0  0  0
   -9.3260   11.0010  -16.8630 C   0  0  0  0  0  3  0  0  0  0  0  0
   -0.6370    7.3950  -13.8790 C   0  0  0  0  0  0  0  0  0  0  0  0
   -0.2560    6.3990  -13.0010 C   0  0  0  0  0  3  0  0  0  0  0  0
    1.0670    6.1820  -12.6730 C   0  0  0  0  0  3  0  0  0  0  0  0
    2.0710    6.9600  -13.2120 C   0  0  0  0  0  0  0  0  0  0  0  0
    1.7130    7.9610  -14.0910 C   0  0  0  0  0  3  0  0  0  0  0  0
    3.9120    6.6820  -12.7760 Br  0  0  0  0  0  0  0  0  0  0  0  0
    0.3840    8.1620  -14.4060 C   0  0  0  0  0  3  0  0  0  0  0  0
  1  5  1  0  0  0  0
  1 13  1  0  0  0  0
  2  1  1  0  0  0  0
  3  2  1  0  0  0  0
  3  4  1  0  0  0  0
  4  9  1  0  0  0  0
  4  5  2  0  0  0  0
  5  6  1  0  0  0  0
  6  7  2  0  0  0  0
  8 25  1  0  0  0  0
  8  6  1  0  0  0  0
  9  8  1  0  0  0  0
 10  9  2  0  0  0  0
 11  2  1  0  0  0  0
 12  3  1  0  0  0  0
 14 13  1  0  0  0  0
 14 17  2  0  0  0  0
 15 14  1  0  0  0  0
 16 15  1  0  0  0  0
 18 15  1  0  0  0  0
 18 19  1  0  0  0  0
 19 20  1  0  0  0  0
 21 19  2  0  0  0  0
 22 21  1  0  0  0  0
 23 24  1  0  0  0  0
 23 22  2  0  0  0  0
 24 18  2  0  0  0  0
 25 26  1  0  0  0  0
 26 27  2  0  0  0  0
 28 30  1  0  0  0  0
 28 27  1  0  0  0  0
 29 28  2  0  0  0  0
 31 29  1  0  0  0  0
 31 25  2  0  0  0  0
M  END
>  <Pose>
1

>  <Score>
-9.827

$$$$
