/Users/jonathanwahrer/Desktop/Msc/3_Semester/Drug_Design_Praktikum/waehrer_HTS_screening/HTS_experiment/out/docking_results/vina_output/6q9y/0886_docked.pdbqt
 OpenBabel03222219433D

 31 34  0  0  0  0  0  0  0  0999 V2000
    1.0420   11.6900  -13.1740 N   0  0  0  0  0  0  0  0  0  0  0  0
    0.2890   12.7640  -13.4690 C   0  0  0  0  0  0  0  0  0  0  0  0
   -0.7660   12.6600  -14.1520 O   0  0  0  0  0  0  0  0  0  0  0  0
    0.8120   13.9300  -12.9430 C   0  0  0  0  0  0  0  0  0  0  0  0
    1.9180   13.5500  -12.3090 C   0  0  0  0  0  0  0  0  0  0  0  0
    2.4620   14.6520  -11.7850 N   0  0  0  0  0  0  0  0  0  0  0  0
    1.6990   15.6830  -12.0960 N   0  0  0  0  0  0  0  0  0  0  0  0
    0.6610   15.2710  -12.8180 N   0  0  0  0  0  0  0  0  0  0  0  0
    2.0710   12.1860  -12.4410 C   0  0  0  0  0  0  0  0  0  0  0  0
    2.9860   11.4410  -11.9890 O   0  0  0  0  0  0  0  0  0  0  0  0
    3.3560   14.6540  -11.2210 H   0  0  0  0  0  0  0  0  0  0  0  0
    1.8630   16.6650  -11.8310 H   0  0  0  0  0  0  0  0  0  0  0  0
   -0.4210   16.0340  -13.3700 C   0  0  0  0  0  2  0  0  0  0  0  0
   -1.0490   16.9960  -12.4570 C   0  0  0  0  0  0  0  0  0  0  0  0
   -0.4230   17.3040  -11.4310 O   0  0  0  0  0  0  0  0  0  0  0  0
   -2.3040   17.5380  -12.7460 N   0  0  0  0  0  0  0  0  0  0  0  0
   -2.7910   17.2250  -13.6620 H   0  0  0  0  0  0  0  0  0  0  0  0
   -3.0690   18.4680  -12.0030 C   0  0  0  0  0  0  0  0  0  0  0  0
   -2.6670   18.9220  -10.7690 C   0  0  0  0  0  3  0  0  0  0  0  0
   -3.3960   19.8390  -10.0060 C   0  0  0  0  0  3  0  0  0  0  0  0
   -4.5730   20.2890  -10.5490 C   0  0  0  0  0  0  0  0  0  0  0  0
   -4.9960   19.8520  -11.7790 C   0  0  0  0  0  3  0  0  0  0  0  0
   -5.6290   21.5560   -9.5510 Br  0  0  0  0  0  0  0  0  0  0  0  0
   -4.2630   18.9520  -12.5080 C   0  0  0  0  0  3  0  0  0  0  0  0
    0.8330   10.3280  -13.5430 C   0  0  0  0  0  0  0  0  0  0  0  0
    1.6990    9.5970  -14.3240 C   0  0  0  0  0  3  0  0  0  0  0  0
    1.4410    8.2660  -14.6600 C   0  0  0  0  0  3  0  0  0  0  0  0
    0.3050    7.6510  -14.2150 C   0  0  0  0  0  0  0  0  0  0  0  0
    0.0610    6.3490  -14.5510 F   0  0  0  0  0  0  0  0  0  0  0  0
   -0.5740    8.3630  -13.4330 C   0  0  0  0  0  3  0  0  0  0  0  0
   -0.3090    9.6740  -13.1070 C   0  0  0  0  0  3  0  0  0  0  0  0
  1  9  1  0  0  0  0
  2  1  1  0  0  0  0
  2  4  1  0  0  0  0
  3  2  2  0  0  0  0
  4  8  1  0  0  0  0
  4  5  2  0  0  0  0
  5  6  1  0  0  0  0
  6 11  1  0  0  0  0
  7 12  1  0  0  0  0
  7  6  1  0  0  0  0
  8  7  1  0  0  0  0
  9  5  1  0  0  0  0
  9 10  2  0  0  0  0
 13  8  1  0  0  0  0
 13 14  1  0  0  0  0
 14 15  2  0  0  0  0
 16 14  1  0  0  0  0
 16 18  1  0  0  0  0
 17 16  1  0  0  0  0
 18 19  1  0  0  0  0
 19 20  2  0  0  0  0
 21 20  1  0  0  0  0
 21 23  1  0  0  0  0
 22 21  2  0  0  0  0
 24 18  2  0  0  0  0
 24 22  1  0  0  0  0
 25  1  1  0  0  0  0
 25 31  1  0  0  0  0
 26 25  2  0  0  0  0
 27 26  1  0  0  0  0
 27 28  2  0  0  0  0
 28 30  1  0  0  0  0
 29 28  1  0  0  0  0
 30 31  2  0  0  0  0
M  END
>  <Pose>
1

>  <Score>
-10.386

$$$$
