/Users/jonathanwahrer/Desktop/Msc/3_Semester/Drug_Design_Praktikum/waehrer_HTS_screening/HTS_experiment/out/docking_results/vina_output/6q9y/0892_docked.pdbqt
 OpenBabel03222219433D

 27 30  0  0  1  0  0  0  0  0999 V2000
    6.4490    7.5600  -14.3030 C   0  0  2  0  0  3  0  0  0  0  0  0
    7.2640    6.5260  -14.9000 N   0  0  0  0  0  0  0  0  0  0  0  0
    7.9860    5.6220  -14.0580 C   0  0  0  0  0  0  0  0  0  0  0  0
    8.5840    4.0050  -14.2840 S   0  0  0  0  0  0  0  0  0  0  0  0
    9.3010    3.7590  -12.7630 C   0  0  0  0  0  0  0  0  0  0  0  0
    9.0600    4.9250  -12.1240 C   0  0  0  0  0  0  0  0  0  0  0  0
    8.3870    5.8850  -12.7800 C   0  0  0  0  0  0  0  0  0  0  0  0
    7.9770    7.2530  -12.3550 C   0  0  0  0  0  0  0  0  0  0  0  0
    8.2560    7.6880  -11.2130 O   0  0  0  0  0  0  0  0  0  0  0  0
    7.2630    8.1030  -13.2290 N   0  0  0  0  0  0  0  0  0  0  0  0
    9.6070    4.9900  -10.7030 C   0  0  0  0  0  2  0  0  0  0  0  0
   10.7120    3.9920  -10.5810 C   0  0  0  0  0  2  0  0  0  0  0  0
   10.0860    2.6790  -10.8050 N   0  0  0  0  0  4  0  0  0  0  0  0
   10.0180    2.5700  -12.2460 C   0  0  0  0  0  2  0  0  0  0  0  0
   10.8610    1.6190  -10.2050 C   0  0  0  0  0  1  0  0  0  0  0  0
    7.3610    6.3990  -15.9320 H   0  0  0  0  0  0  0  0  0  0  0  0
    7.3050    9.1480  -13.1190 H   0  0  0  0  0  0  0  0  0  0  0  0
    9.1080    2.7100  -10.4470 H   0  0  0  0  0  0  0  0  0  0  0  0
    5.2440    6.8840  -13.7530 C   0  0  0  0  0  0  0  0  0  0  0  0
    4.0910    7.5390  -13.3930 C   0  0  0  0  0  0  0  0  0  0  0  0
    2.9910    6.8580  -12.8690 C   0  0  0  0  0  0  0  0  0  0  0  0
    4.0120    8.9050  -13.5500 O   0  0  0  0  0  1  0  0  0  0  0  0
    1.2550    7.9200  -12.3360 I   0  0  0  0  0  0  0  0  0  0  0  0
    3.0160    5.5090  -12.6950 C   0  0  0  0  0  3  0  0  0  0  0  0
    4.1610    4.8340  -13.0500 C   0  0  0  0  0  0  0  0  0  0  0  0
    5.2460    5.4940  -13.5640 C   0  0  0  0  0  3  0  0  0  0  0  0
    4.2010    2.9460  -12.8080 Br  0  0  0  0  0  0  0  0  0  0  0  0
  1 19  1  1  0  0  0
  1 10  1  0  0  0  0
  2  1  1  0  0  0  0
  2  3  1  0  0  0  0
  3  7  2  0  0  0  0
  4  3  1  0  0  0  0
  4  5  1  0  0  0  0
  5 14  1  0  0  0  0
  5  6  2  0  0  0  0
  6 11  1  0  0  0  0
  7  8  1  0  0  0  0
  7  6  1  0  0  0  0
  8  9  2  0  0  0  0
 10 17  1  0  0  0  0
 10  8  1  0  0  0  0
 11 12  1  0  0  0  0
 13 12  1  0  0  0  0
 13 18  1  0  0  0  0
 13 15  1  0  0  0  0
 14 13  1  0  0  0  0
 16  2  1  0  0  0  0
 19 26  2  0  0  0  0
 19 20  1  0  0  0  0
 20 21  2  0  0  0  0
 21 24  1  0  0  0  0
 21 23  1  0  0  0  0
 22 20  1  0  0  0  0
 25 27  1  0  0  0  0
 25 24  2  0  0  0  0
 26 25  1  0  0  0  0
M  END
>  <Pose>
1

>  <Score>
2.055

$$$$
