/Users/jonathanwahrer/Desktop/Msc/3_Semester/Drug_Design_Praktikum/waehrer_HTS_screening/HTS_experiment/out/docking_results/vina_output/6q9y/0895_docked.pdbqt
 OpenBabel03222219433D

 28 31  0  0  1  0  0  0  0  0999 V2000
    2.5510    9.3280  -14.4180 C   0  0  2  0  0  3  0  0  0  0  0  0
    3.4420   10.2600  -13.7270 N   0  0  0  0  0  0  0  0  0  0  0  0
    3.0060   11.6030  -13.3990 C   0  0  0  0  0  0  0  0  0  0  0  0
    3.8490   13.0130  -12.8940 S   0  0  0  0  0  0  0  0  0  0  0  0
    2.5350   14.0750  -12.7530 C   0  0  0  0  0  0  0  0  0  0  0  0
    1.4610   13.3020  -13.1040 C   0  0  0  0  0  0  0  0  0  0  0  0
    1.7140   12.0180  -13.4380 C   0  0  0  0  0  0  0  0  0  0  0  0
    0.7270   10.9800  -13.8540 C   0  0  0  0  0  0  0  0  0  0  0  0
   -0.5130   11.2360  -13.9320 O   0  0  0  0  0  0  0  0  0  0  0  0
    1.1820    9.6840  -14.1660 N   0  0  0  0  0  0  0  0  0  0  0  0
    0.1540   14.0850  -13.0400 C   0  0  0  0  0  2  0  0  0  0  0  0
    0.0590   14.7860  -11.7110 C   0  0  0  0  0  2  0  0  0  0  0  0
    1.2630   15.4310  -11.3060 N   0  0  0  0  0  4  0  0  0  0  0  0
    2.2470   15.5080  -12.3800 C   0  0  0  0  0  2  0  0  0  0  0  0
    1.8810   14.5860  -10.2730 C   0  0  0  0  0  1  0  0  0  0  0  0
    4.4050    9.9940  -13.4520 H   0  0  0  0  0  0  0  0  0  0  0  0
    0.4780    8.9020  -14.2250 H   0  0  0  0  0  0  0  0  0  0  0  0
    1.1140   16.3900  -10.8960 H   0  0  0  0  0  0  0  0  0  0  0  0
    2.7870    7.9990  -13.7900 C   0  0  0  0  0  0  0  0  0  0  0  0
    1.7130    7.3630  -13.1800 C   0  0  0  0  0  3  0  0  0  0  0  0
    1.8100    6.1470  -12.5740 C   0  0  0  0  0  0  0  0  0  0  0  0
    3.0560    5.5230  -12.5750 C   0  0  0  0  0  0  0  0  0  0  0  0
    4.1400    6.1320  -13.1740 C   0  0  0  0  0  0  0  0  0  0  0  0
    3.1940    4.2880  -11.9700 O   0  0  0  0  0  1  0  0  0  0  0  0
    6.0170    5.1700  -13.1630 I   0  0  0  0  0  0  0  0  0  0  0  0
    4.0020    7.3710  -13.7800 C   0  0  0  0  0  3  0  0  0  0  0  0
    0.7550    5.4870  -11.9570 O   0  0  0  0  0  0  0  0  0  0  0  0
   -0.5370    5.6000  -12.5240 C   0  0  0  0  0  1  0  0  0  0  0  0
  1 10  1  0  0  0  0
  1 19  1  1  0  0  0
  1  2  1  0  0  0  0
  2 16  1  0  0  0  0
  2  3  1  0  0  0  0
  3  4  1  0  0  0  0
  4  5  1  0  0  0  0
  5 14  1  0  0  0  0
  6 11  1  0  0  0  0
  6  5  2  0  0  0  0
  7  3  2  0  0  0  0
  7  6  1  0  0  0  0
  8  7  1  0  0  0  0
  9  8  2  0  0  0  0
 10  8  1  0  0  0  0
 11 12  1  0  0  0  0
 12 13  1  0  0  0  0
 13 18  1  0  0  0  0
 13 15  1  0  0  0  0
 14 13  1  0  0  0  0
 17 10  1  0  0  0  0
 19 26  2  0  0  0  0
 19 20  1  0  0  0  0
 20 21  2  0  0  0  0
 21 27  1  0  0  0  0
 22 21  1  0  0  0  0
 22 24  1  0  0  0  0
 23 25  1  0  0  0  0
 23 22  2  0  0  0  0
 26 23  1  0  0  0  0
 28 27  1  0  0  0  0
M  END
>  <Pose>
1

>  <Score>
-6.537

$$$$
