/Users/jonathanwahrer/Desktop/Msc/3_Semester/Drug_Design_Praktikum/waehrer_HTS_screening/HTS_experiment/out/docking_results/vina_output/6q9y/0910_docked.pdbqt
 OpenBabel03222219443D

 26 29  0  0  0  0  0  0  0  0999 V2000
    5.8480    6.0310  -13.4910 C   0  0  0  0  0  0  0  0  0  0  0  0
    4.6100    5.4770  -13.0880 C   0  0  0  0  0  0  0  0  0  0  0  0
    4.2930    4.2640  -12.6500 N   0  0  0  0  0  0  0  0  0  0  0  0
    3.0170    4.2380  -12.4110 O   0  0  0  0  0  0  0  0  0  0  0  0
    2.4880    5.3770  -12.6750 N   0  0  0  0  0  0  0  0  0  0  0  0
    3.4590    6.1930  -13.1070 C   0  0  0  0  0  0  0  0  0  0  0  0
    3.4750    7.5040  -13.5280 C   0  0  0  0  0  0  0  0  0  0  0  0
    4.6580    8.0710  -13.9260 C   0  0  0  0  0  3  0  0  0  0  0  0
    5.8380    7.3530  -13.9120 C   0  0  0  0  0  3  0  0  0  0  0  0
    6.9360    5.1980  -13.3340 N   0  0  0  0  0  0  0  0  0  0  0  0
    7.9880    4.3930  -13.1830 C   0  0  0  0  0  0  0  0  0  0  0  0
    8.4850    4.0560  -12.0320 O   0  0  0  0  0  0  0  0  0  0  0  0
    6.9500    5.4920  -12.0050 H   0  0  0  0  0  0  0  0  0  0  0  0
    8.7660    3.7530  -14.2780 C   0  0  0  0  0  0  0  0  0  0  0  0
    9.9220    4.2630  -14.8290 C   0  0  0  0  0  0  0  0  0  0  0  0
   10.8610    6.1040  -14.3200 I   0  0  0  0  0  0  0  0  0  0  0  0
   10.3640    3.3620  -15.7660 C   0  0  0  0  0  3  0  0  0  0  0  0
    9.4890    2.3590  -15.7590 N   0  0  0  0  0  0  0  0  0  0  0  0
    8.5270    2.5810  -14.8710 N   0  0  0  0  0  0  0  0  0  0  0  0
    7.4420    1.6190  -14.6020 C   0  0  0  0  0  1  0  0  0  0  0  0
    2.2620    8.2080  -13.5400 N   0  0  0  0  0  0  0  0  0  0  0  0
    1.7160    8.8640  -12.3510 C   0  0  0  0  0  2  0  0  0  0  0  0
    0.4060    8.1490  -12.0880 C   0  0  0  0  0  2  0  0  0  0  0  0
    0.1100    7.1690  -13.0220 O   0  0  0  0  0  0  0  0  0  0  0  0
    0.1370    7.5810  -14.3370 C   0  0  0  0  0  2  0  0  0  0  0  0
    1.3740    8.3990  -14.6650 C   0  0  0  0  0  2  0  0  0  0  0  0
  1 10  1  0  0  0  0
  1  2  1  0  0  0  0
  2  3  2  0  0  0  0
  3  4  1  0  0  0  0
  5  4  1  0  0  0  0
  6  2  1  0  0  0  0
  6  5  2  0  0  0  0
  7  6  1  0  0  0  0
  8  9  1  0  0  0  0
  8  7  2  0  0  0  0
  9  1  2  0  0  0  0
 10 11  1  0  0  0  0
 10 13  1  0  0  0  0
 11 12  2  0  0  0  0
 14 11  1  0  0  0  0
 15 16  1  0  0  0  0
 15 14  2  0  0  0  0
 17 18  2  0  0  0  0
 17 15  1  0  0  0  0
 18 19  1  0  0  0  0
 19 20  1  0  0  0  0
 19 14  1  0  0  0  0
 21  7  1  0  0  0  0
 21 22  1  0  0  0  0
 22 23  1  0  0  0  0
 24 23  1  0  0  0  0
 25 24  1  0  0  0  0
 26 25  1  0  0  0  0
 26 21  1  0  0  0  0
M  END
>  <Pose>
1

>  <Score>
-7.215

$$$$
