/Users/jonathanwahrer/Desktop/Msc/3_Semester/Drug_Design_Praktikum/waehrer_HTS_screening/HTS_experiment/out/docking_results/vina_output/6q9y/0920_docked.pdbqt
 OpenBabel03222219443D

 24 27  0  0  1  0  0  0  0  0999 V2000
    0.6320   12.6750  -12.8640 N   0  0  0  0  0  0  0  0  0  0  0  0
    0.7860   11.4230  -13.1630 C   0  0  1  0  0  3  0  0  0  0  0  0
    2.0790   10.1960  -13.4110 S   0  0  0  0  0  0  0  0  0  0  0  0
    0.9330    8.8860  -13.7750 C   0  0  0  0  0  3  0  0  0  0  0  0
   -0.2900    9.3610  -13.7050 C   0  0  0  0  0  0  0  0  0  0  0  0
   -0.4100   10.7330  -13.3750 N   0  0  0  0  0  0  0  0  0  0  0  0
   -1.4980   11.7220  -13.1680 C   0  0  0  0  0  3  0  0  0  0  0  0
   -0.7690   12.9910  -12.8950 C   0  0  0  0  0  3  0  0  0  0  0  0
    1.6760   13.5920  -12.5970 C   0  0  0  0  0  2  0  0  0  0  0  0
    1.4880   15.0130  -12.7150 C   0  0  1  0  0  3  0  0  0  0  0  0
    2.6160   15.6700  -12.7630 O   0  0  0  0  0  1  0  0  0  0  0  0
    0.3220   15.8510  -12.7920 C   0  0  0  0  0  0  0  0  0  0  0  0
   -0.4430   15.9480  -13.9140 C   0  0  0  0  0  3  0  0  0  0  0  0
   -1.5380   16.7690  -13.9590 C   0  0  0  0  0  3  0  0  0  0  0  0
   -1.9360   17.5450  -12.8870 C   0  0  0  0  0  0  0  0  0  0  0  0
   -3.5890   18.8100  -12.9050 I   0  0  0  0  0  0  0  0  0  0  0  0
   -1.1470   17.4400  -11.7410 C   0  0  0  0  0  3  0  0  0  0  0  0
   -0.0640   16.6270  -11.7000 C   0  0  0  0  0  3  0  0  0  0  0  0
   -1.4190    8.4240  -13.9850 C   0  0  0  0  0  0  0  0  0  0  0  0
   -2.6840    8.8670  -14.2670 C   0  0  0  0  0  3  0  0  0  0  0  0
   -3.7440    7.9800  -14.5390 C   0  0  0  0  0  3  0  0  0  0  0  0
   -3.5290    6.6220  -14.5280 C   0  0  0  0  0  3  0  0  0  0  0  0
   -2.2630    6.1720  -14.2460 C   0  0  0  0  0  3  0  0  0  0  0  0
   -1.2250    7.0550  -13.9790 C   0  0  0  0  0  3  0  0  0  0  0  0
  1  9  1  0  0  0  0
  2  3  1  1  0  0  0
  2  1  1  0  0  0  0
  4  5  2  0  0  0  0
  4  3  1  0  0  0  0
  5  6  1  0  0  0  0
  6  7  1  0  0  0  0
  6  2  1  0  0  0  0
  7  8  2  0  0  0  0
  8  1  1  0  0  0  0
 10 11  1  6  0  0  0
 10  9  1  0  0  0  0
 12 10  1  0  0  0  0
 12 18  1  0  0  0  0
 13 12  2  0  0  0  0
 14 13  1  0  0  0  0
 14 15  2  0  0  0  0
 15 17  1  0  0  0  0
 16 15  1  0  0  0  0
 17 18  2  0  0  0  0
 19 24  1  0  0  0  0
 19  5  1  0  0  0  0
 20 19  2  0  0  0  0
 21 22  2  0  0  0  0
 21 20  1  0  0  0  0
 22 23  1  0  0  0  0
 23 24  2  0  0  0  0
M  END
>  <Pose>
1

>  <Score>
-8.726

$$$$
