/Users/jonathanwahrer/Desktop/Msc/3_Semester/Drug_Design_Praktikum/waehrer_HTS_screening/HTS_experiment/out/docking_results/vina_output/6q9y/0924_docked.pdbqt
 OpenBabel03222219443D

 29 32  0  0  0  0  0  0  0  0999 V2000
   -0.7550   12.4160  -13.1550 C   0  0  0  0  0  0  0  0  0  0  0  0
    0.4270   11.7940  -13.3020 N   0  0  0  0  0  4  0  0  0  0  0  0
    0.4930   10.4980  -13.6310 C   0  0  0  0  0  0  0  0  0  0  0  0
   -0.6750    9.8570  -13.8020 N   0  0  0  0  0  0  0  0  0  0  0  0
   -1.8800   10.4470  -13.6630 C   0  0  0  0  0  0  0  0  0  0  0  0
   -1.9020   11.7510  -13.3330 N   0  0  0  0  0  2  0  0  0  0  0  0
   -0.8000   13.8190  -12.8010 N   0  0  0  0  0  0  0  0  0  0  0  0
   -1.6590   14.2160  -12.3600 H   0  0  0  0  0  0  0  0  0  0  0  0
    0.2690   14.6070  -13.0720 N   0  0  0  0  0  0  0  0  0  0  0  0
    0.2450   15.8660  -13.0570 C   0  0  0  0  0  3  0  0  0  0  0  0
   -0.8640   16.7320  -12.7630 C   0  0  0  0  0  0  0  0  0  0  0  0
   -1.9580   16.9740  -13.5400 C   0  0  0  0  0  3  0  0  0  0  0  0
   -2.9920   17.8420  -13.1580 C   0  0  0  0  0  3  0  0  0  0  0  0
   -2.9310   18.4870  -11.9610 C   0  0  0  0  0  0  0  0  0  0  0  0
   -4.4220   19.7980  -11.3030 I   0  0  0  0  0  0  0  0  0  0  0  0
   -1.8360   18.2600  -11.1560 C   0  0  0  0  0  3  0  0  0  0  0  0
   -0.8260   17.4100  -11.5350 C   0  0  0  0  0  3  0  0  0  0  0  0
    1.7370    9.8150  -13.7920 N   0  0  0  0  0  0  0  0  0  0  0  0
    2.9200   10.1570  -13.0630 C   0  0  0  0  0  2  0  0  0  0  0  0
    4.0730    9.3320  -13.6400 C   0  0  0  0  0  2  0  0  0  0  0  0
    4.1160    9.4140  -15.0220 O   0  0  0  0  0  0  0  0  0  0  0  0
    3.0230    8.8570  -15.6370 C   0  0  0  0  0  2  0  0  0  0  0  0
    1.8190    8.7170  -14.7410 C   0  0  0  0  0  2  0  0  0  0  0  0
   -3.0690    9.6950  -13.8610 N   0  0  0  0  0  0  0  0  0  0  0  0
   -2.9800    8.2930  -14.2000 C   0  0  0  0  0  2  0  0  0  0  0  0
   -4.1530    8.0310  -15.1550 C   0  0  0  0  0  2  0  0  0  0  0  0
   -5.3100    8.1990  -14.4400 O   0  0  0  0  0  0  0  0  0  0  0  0
   -5.5320    9.4450  -13.9240 C   0  0  0  0  0  3  0  0  0  0  0  0
   -4.3420   10.3140  -13.7290 C   0  0  0  0  0  3  0  0  0  0  0  0
  1  7  1  0  0  0  0
  2  1  2  0  0  0  0
  3  2  2  0  0  0  0
  4  5  2  0  0  0  0
  4  3  1  0  0  0  0
  5  6  1  0  0  0  0
  6  1  1  0  0  0  0
  7  8  1  0  0  0  0
  9 10  2  0  0  0  0
  9  7  1  0  0  0  0
 10 11  1  0  0  0  0
 11 17  1  0  0  0  0
 12 13  1  0  0  0  0
 12 11  2  0  0  0  0
 13 14  2  0  0  0  0
 14 15  1  0  0  0  0
 14 16  1  0  0  0  0
 17 16  2  0  0  0  0
 18  3  1  0  0  0  0
 18 19  1  0  0  0  0
 20 19  1  0  0  0  0
 21 20  1  0  0  0  0
 22 21  1  0  0  0  0
 22 23  1  0  0  0  0
 23 18  1  0  0  0  0
 24 29  1  0  0  0  0
 24  5  1  0  0  0  0
 25 24  1  0  0  0  0
 26 27  1  0  0  0  0
 26 25  1  0  0  0  0
 27 28  1  0  0  0  0
 28 29  2  0  0  0  0
M  END
>  <Pose>
1

>  <Score>
-9.224

$$$$
