/Users/jonathanwahrer/Desktop/Msc/3_Semester/Drug_Design_Praktikum/waehrer_HTS_screening/HTS_experiment/out/docking_results/vina_output/6q9y/0937_docked.pdbqt
 OpenBabel03222219443D

 26 29  0  0  1  0  0  0  0  0999 V2000
    2.3310   11.7030  -13.2050 N   0  0  0  0  0  0  0  0  0  0  0  0
    2.2370   10.6090  -14.1010 C   0  0  0  0  0  0  0  0  0  0  0  0
    1.6160   10.6530  -15.1950 O   0  0  0  0  0  0  0  0  0  0  0  0
    2.9750    9.4410  -13.5440 C   0  0  1  0  0  3  0  0  0  0  0  0
    4.0490   10.1290  -12.7180 C   0  0  0  0  0  2  0  0  0  0  0  0
    3.4780   11.4510  -12.3960 C   0  0  0  0  0  0  0  0  0  0  0  0
    3.9160   12.2690  -11.5350 O   0  0  0  0  0  0  0  0  0  0  0  0
    2.0800    8.6720  -12.7830 N   0  0  1  0  0  0  0  0  0  0  0  0
    0.9530    9.2450  -12.1930 C   0  0  0  0  0  2  0  0  0  0  0  0
   -0.0950    8.1130  -12.0260 C   0  0  0  0  0  2  0  0  0  0  0  0
   -0.2080    7.4160  -13.2990 N   0  0  0  0  0  0  0  0  0  0  0  0
    0.9930    6.7920  -13.7970 C   0  0  0  0  0  2  0  0  0  0  0  0
    2.1490    7.2740  -12.9250 C   0  0  0  0  0  2  0  0  0  0  0  0
   -1.4300    7.3670  -14.0010 C   0  0  0  0  0  0  0  0  0  0  0  0
   -2.3300    8.3820  -13.8990 N   0  0  0  0  0  0  0  0  0  0  0  0
   -3.4950    8.3970  -14.5440 C   0  0  0  0  0  3  0  0  0  0  0  0
   -3.8470    7.3410  -15.3730 C   0  0  0  0  0  3  0  0  0  0  0  0
   -2.9270    6.3110  -15.4720 C   0  0  0  0  0  3  0  0  0  0  0  0
   -1.7660    6.3370  -14.8050 N   0  0  0  0  0  0  0  0  0  0  0  0
    1.4660   12.8500  -13.1040 C   0  0  0  0  0  0  0  0  0  0  0  0
    2.0090   14.0930  -12.8540 C   0  0  0  0  0  3  0  0  0  0  0  0
    1.2190   15.2200  -12.7470 C   0  0  0  0  0  3  0  0  0  0  0  0
   -0.1500   15.1410  -12.8870 C   0  0  0  0  0  0  0  0  0  0  0  0
   -1.3950   16.8410  -12.7320 I   0  0  0  0  0  0  0  0  0  0  0  0
   -0.7100   13.9070  -13.1370 C   0  0  0  0  0  3  0  0  0  0  0  0
    0.0990   12.7930  -13.2400 C   0  0  0  0  0  3  0  0  0  0  0  0
  1 20  1  0  0  0  0
  1  6  1  0  0  0  0
  2  4  1  0  0  0  0
  2  1  1  0  0  0  0
  3  2  2  0  0  0  0
  4  8  1  0  0  0  0
  4  5  1  1  0  0  0
  5  6  1  0  0  0  0
  6  7  2  0  0  0  0
  8 13  1  6  0  0  0
  8  9  1  0  0  0  0
  9 10  1  0  0  0  0
 11 10  1  0  0  0  0
 12 11  1  0  0  0  0
 12 13  1  0  0  0  0
 14 15  2  0  0  0  0
 14 11  1  0  0  0  0
 16 15  1  0  0  0  0
 17 16  2  0  0  0  0
 18 17  1  0  0  0  0
 18 19  2  0  0  0  0
 19 14  1  0  0  0  0
 20 21  1  0  0  0  0
 21 22  2  0  0  0  0
 23 22  1  0  0  0  0
 23 24  1  0  0  0  0
 25 23  2  0  0  0  0
 26 25  1  0  0  0  0
 26 20  2  0  0  0  0
M  END
>  <Pose>
1

>  <Score>
-7.635

$$$$
