/Users/jonathanwahrer/Desktop/Msc/3_Semester/Drug_Design_Praktikum/waehrer_HTS_screening/HTS_experiment/out/docking_results/vina_output/6q9y/0956_docked.pdbqt
 OpenBabel03222219453D

 30 33  0  0  1  0  0  0  0  0999 V2000
    2.2340   10.0170  -14.2550 I   0  0  0  0  0  0  0  0  0  0  0  0
    3.2780    8.2460  -13.7870 C   0  0  0  0  0  0  0  0  0  0  0  0
    2.7610    7.1370  -13.1860 C   0  0  0  0  0  0  0  0  0  0  0  0
    3.8370    6.2530  -13.0990 C   0  0  0  0  0  0  0  0  0  0  0  0
    4.9510    6.7780  -13.6120 N   0  0  0  0  0  0  0  0  0  0  0  0
    4.6180    7.9970  -14.0350 C   0  0  0  0  0  3  0  0  0  0  0  0
    3.6130    5.0530  -12.5370 N   0  0  0  0  0  0  0  0  0  0  0  0
    2.3970    4.7190  -12.0780 C   0  0  0  0  0  3  0  0  0  0  0  0
    1.3680    5.5680  -12.1640 N   0  0  0  0  0  0  0  0  0  0  0  0
    1.5080    6.8110  -12.7210 C   0  0  0  0  0  0  0  0  0  0  0  0
    6.2550    6.1950  -13.7100 C   0  0  2  0  0  3  0  0  0  0  0  0
    6.7220    5.6660  -12.5130 O   0  0  0  0  0  0  0  0  0  0  0  0
    8.0250    5.2990  -12.8370 C   0  0  1  0  0  3  0  0  0  0  0  0
    8.5840    6.3910  -13.7190 C   0  0  2  0  0  3  0  0  0  0  0  0
    7.3380    7.2380  -14.0020 C   0  0  0  0  0  2  0  0  0  0  0  0
    8.8930    5.2820  -11.5710 C   0  0  0  0  0  2  0  0  0  0  0  0
   10.1210    5.8920  -11.8590 O   0  0  0  0  0  0  0  0  0  0  0  0
   10.6970    5.9440  -11.0310 H   0  0  0  0  0  0  0  0  0  0  0  0
    9.0050    5.8940  -14.9540 O   0  0  0  0  0  0  0  0  0  0  0  0
    8.7550    4.9180  -14.9460 H   0  0  0  0  0  0  0  0  0  0  0  0
    0.3770    7.6740  -12.7850 N   0  0  0  0  0  0  0  0  0  0  0  0
   -0.6350    7.3990  -13.7500 C   0  0  0  0  0  0  0  0  0  0  0  0
   -0.4670    6.4000  -14.4930 O   0  0  0  0  0  0  0  0  0  0  0  0
    0.2160    8.4920  -12.1930 H   0  0  0  0  0  0  0  0  0  0  0  0
   -1.8250    8.1860  -13.9230 C   0  0  0  0  0  0  0  0  0  0  0  0
   -1.8760    9.4940  -13.5260 C   0  0  0  0  0  3  0  0  0  0  0  0
   -3.0230   10.2740  -13.6910 C   0  0  0  0  0  3  0  0  0  0  0  0
   -4.1310    9.7210  -14.2630 C   0  0  0  0  0  3  0  0  0  0  0  0
   -4.1100    8.4120  -14.6700 C   0  0  0  0  0  3  0  0  0  0  0  0
   -2.9490    7.6500  -14.4950 C   0  0  0  0  0  3  0  0  0  0  0  0
  1  2  1  0  0  0  0
  2  3  1  0  0  0  0
  3  4  2  0  0  0  0
  3 10  1  0  0  0  0
  4  7  1  0  0  0  0
  5  4  1  0  0  0  0
  6  2  2  0  0  0  0
  6  5  1  0  0  0  0
  7  8  2  0  0  0  0
  9  8  1  0  0  0  0
 10  9  2  0  0  0  0
 11 15  1  1  0  0  0
 11  5  1  0  0  0  0
 11 12  1  0  0  0  0
 13 12  1  0  0  0  0
 13 16  1  1  0  0  0
 14 19  1  6  0  0  0
 14 13  1  0  0  0  0
 15 14  1  0  0  0  0
 17 16  1  0  0  0  0
 17 18  1  0  0  0  0
 19 20  1  0  0  0  0
 21 10  1  0  0  0  0
 21 24  1  0  0  0  0
 22 21  1  0  0  0  0
 23 22  2  0  0  0  0
 25 22  1  0  0  0  0
 25 26  1  0  0  0  0
 27 26  2  0  0  0  0
 28 27  1  0  0  0  0
 29 30  1  0  0  0  0
 29 28  2  0  0  0  0
 30 25  2  0  0  0  0
M  END
>  <Pose>
1

>  <Score>
-8.302

$$$$
