/Users/jonathanwahrer/Desktop/Msc/3_Semester/Drug_Design_Praktikum/waehrer_HTS_screening/HTS_experiment/out/docking_results/vina_output/6q9y/0961_docked.pdbqt
 OpenBabel03222219453D

 29 33  0  0  1  0  0  0  0  0999 V2000
    1.2620   11.2650  -13.0910 C   0  0  1  0  0  3  0  0  0  0  0  0
    2.4180   10.7580  -12.7370 N   0  0  0  0  0  0  0  0  0  0  0  0
    3.4090   11.5760  -12.2710 C   0  0  0  0  0  3  0  0  0  0  0  0
    3.2790   12.9240  -12.1400 C   0  0  0  0  0  3  0  0  0  0  0  0
    2.0760   13.4940  -12.4990 C   0  0  0  0  0  0  0  0  0  0  0  0
    1.5850   14.7810  -12.5060 N   0  0  0  0  0  0  0  0  0  0  0  0
    0.3420   14.7740  -12.9580 C   0  0  0  0  0  0  0  0  0  0  0  0
    0.0520   13.4740  -13.2340 N   0  0  0  0  0  0  0  0  0  0  0  0
    1.0910   12.6740  -12.9640 C   0  0  0  0  0  0  0  0  0  0  0  0
    2.4010   15.8680  -12.0430 C   0  0  0  0  0  1  0  0  0  0  0  0
    2.6720    9.3470  -12.7480 C   0  0  0  0  0  1  0  0  0  0  0  0
    0.1490   10.5580  -13.6960 C   0  0  0  0  0  3  0  0  0  0  0  0
   -0.7550    9.7860  -13.2060 C   0  0  0  0  0  3  0  0  0  0  0  0
   -1.8700    9.0890  -13.8050 C   0  0  0  0  0  0  0  0  0  0  0  0
   -1.9070    7.7880  -14.1840 C   0  0  0  0  0  0  0  0  0  0  0  0
   -0.3410    6.7070  -14.0900 Br  0  0  0  0  0  0  0  0  0  0  0  0
   -3.0810    7.1880  -14.7050 C   0  0  0  0  0  3  0  0  0  0  0  0
   -4.2320    7.9150  -14.8470 C   0  0  0  0  0  0  0  0  0  0  0  0
   -4.2240    9.2410  -14.4720 C   0  0  0  0  0  0  0  0  0  0  0  0
   -5.5210    7.6380  -15.3120 O   0  0  0  0  0  0  0  0  0  0  0  0
   -3.0780    9.8130  -13.9670 C   0  0  0  0  0  3  0  0  0  0  0  0
   -5.5110    9.7470  -14.7190 O   0  0  0  0  0  0  0  0  0  0  0  0
   -6.3730    8.6290  -14.7380 C   0  0  0  0  0  2  0  0  0  0  0  0
   -0.5920   15.8930  -13.1270 C   0  0  0  0  0  0  0  0  0  0  0  0
   -1.1750   16.2550  -14.2960 C   0  0  0  0  0  3  0  0  0  0  0  0
   -2.0360   17.3680  -14.3420 C   0  0  0  0  0  3  0  0  0  0  0  0
   -2.2920   18.0960  -13.2030 C   0  0  0  0  0  3  0  0  0  0  0  0
   -1.7090   17.7450  -11.9930 C   0  0  0  0  0  3  0  0  0  0  0  0
   -0.8860   16.6670  -11.9920 C   0  0  0  0  0  3  0  0  0  0  0  0
  1 12  1  6  0  0  0
  1  9  1  0  0  0  0
  1  2  1  0  0  0  0
  2  3  1  0  0  0  0
  3  4  2  0  0  0  0
  5  4  1  0  0  0  0
  6  5  1  0  0  0  0
  6 10  1  0  0  0  0
  7  6  1  0  0  0  0
  8  9  1  0  0  0  0
  8  7  2  0  0  0  0
  9  5  2  0  0  0  0
 11  2  1  0  0  0  0
 12 13  2  0  0  0  0
 14 13  1  0  0  0  0
 15 16  1  0  0  0  0
 15 14  2  0  0  0  0
 17 15  1  0  0  0  0
 18 17  2  0  0  0  0
 18 19  1  0  0  0  0
 19 21  2  0  0  0  0
 20 18  1  0  0  0  0
 20 23  1  0  0  0  0
 21 14  1  0  0  0  0
 22 19  1  0  0  0  0
 23 22  1  0  0  0  0
 24  7  1  0  0  0  0
 24 29  1  0  0  0  0
 25 24  2  0  0  0  0
 26 25  1  0  0  0  0
 26 27  2  0  0  0  0
 27 28  1  0  0  0  0
 28 29  2  0  0  0  0
M  END
>  <Pose>
1

>  <Score>
-9.894

$$$$
