/Users/jonathanwahrer/Desktop/Msc/3_Semester/Drug_Design_Praktikum/waehrer_HTS_screening/HTS_experiment/out/docking_results/vina_output/6q9y/0971_docked.pdbqt
 OpenBabel03222219453D

 29 33  0  0  1  0  0  0  0  0999 V2000
   -1.1550   14.1900  -12.6150 Br  0  0  0  0  0  0  0  0  0  0  0  0
    0.2690   12.9290  -12.7530 C   0  0  0  0  0  0  0  0  0  0  0  0
    0.0370   11.6010  -13.1570 C   0  0  0  0  0  0  0  0  0  0  0  0
    1.0270   10.6690  -13.2680 C   0  0  0  0  0  0  0  0  0  0  0  0
    2.3290   11.0720  -12.9600 C   0  0  0  0  0  3  0  0  0  0  0  0
    2.5530   12.3580  -12.5670 C   0  0  0  0  0  0  0  0  0  0  0  0
    1.5560   13.3050  -12.4550 C   0  0  0  0  0  0  0  0  0  0  0  0
    1.8620   14.6140  -12.0440 O   0  0  0  0  0  1  0  0  0  0  0  0
    4.3280   12.9160  -12.1450 Br  0  0  0  0  0  0  0  0  0  0  0  0
    0.7560    9.3020  -13.6900 C   0  0  1  0  0  0  0  0  0  0  0  0
    1.4570    9.1080  -14.9170 O   0  0  0  0  0  0  0  0  0  0  0  0
    2.3880    8.1090  -14.8260 C   0  0  0  0  0  0  0  0  0  0  0  0
    3.1420    7.7290  -15.7500 O   0  0  0  0  0  0  0  0  0  0  0  0
    2.3030    7.6090  -13.4670 C   0  0  0  0  0  0  0  0  0  0  0  0
    1.3420    8.2950  -12.7600 C   0  0  0  0  0  0  0  0  0  0  0  0
    1.1320    7.9510  -11.4650 C   0  0  0  0  0  3  0  0  0  0  0  0
    1.8730    6.9390  -10.8920 C   0  0  0  0  0  3  0  0  0  0  0  0
    2.8370    6.2500  -11.5970 C   0  0  0  0  0  3  0  0  0  0  0  0
    3.0600    6.5850  -12.9060 C   0  0  0  0  0  3  0  0  0  0  0  0
   -0.6520    9.0420  -13.9740 C   0  0  0  0  0  0  0  0  0  0  0  0
   -1.6000   10.0180  -13.8450 C   0  0  0  0  0  0  0  0  0  0  0  0
   -2.9550    9.7490  -14.1240 C   0  0  0  0  0  0  0  0  0  0  0  0
   -3.3090    8.4830  -14.5300 C   0  0  0  0  0  0  0  0  0  0  0  0
   -2.3530    7.4870  -14.6640 C   0  0  0  0  0  0  0  0  0  0  0  0
   -1.0410    7.7560  -14.3910 C   0  0  0  0  0  3  0  0  0  0  0  0
   -2.8270    5.7290  -15.2250 Br  0  0  0  0  0  0  0  0  0  0  0  0
   -4.6450    8.2320  -14.8010 O   0  0  0  0  0  1  0  0  0  0  0  0
   -4.2520   11.1410  -13.9310 Br  0  0  0  0  0  0  0  0  0  0  0  0
   -1.3000   11.3120  -13.4400 O   0  0  0  0  0  0  0  0  0  0  0  0
  2  1  1  0  0  0  0
  2  7  1  0  0  0  0
  3  2  2  0  0  0  0
  4  3  1  0  0  0  0
  4  5  2  0  0  0  0
  5  6  1  0  0  0  0
  6  7  2  0  0  0  0
  6  9  1  0  0  0  0
  7  8  1  0  0  0  0
 10 11  1  6  0  0  0
 10  4  1  0  0  0  0
 10 15  1  0  0  0  0
 11 12  1  0  0  0  0
 12 14  1  0  0  0  0
 13 12  2  0  0  0  0
 14 19  2  0  0  0  0
 14 15  1  0  0  0  0
 15 16  2  0  0  0  0
 16 17  1  0  0  0  0
 18 17  2  0  0  0  0
 19 18  1  0  0  0  0
 20 21  1  0  0  0  0
 20 10  1  0  0  0  0
 21 29  1  0  0  0  0
 22 28  1  0  0  0  0
 22 21  2  0  0  0  0
 23 22  1  0  0  0  0
 24 23  2  0  0  0  0
 24 25  1  0  0  0  0
 25 20  2  0  0  0  0
 26 24  1  0  0  0  0
 27 23  1  0  0  0  0
 29  3  1  0  0  0  0
M  END
>  <Pose>
1

>  <Score>
-3.783

$$$$
