/Users/jonathanwahrer/Desktop/Msc/3_Semester/Drug_Design_Praktikum/waehrer_HTS_screening/HTS_experiment/out/docking_results/vina_output/6q9y/0978_docked.pdbqt
 OpenBabel03222219453D

 33 37  0  0  1  0  0  0  0  0999 V2000
    2.9860    3.0190  -12.5480 I   0  0  0  0  0  0  0  0  0  0  0  0
    3.6280    4.9750  -13.0160 C   0  0  0  0  0  0  0  0  0  0  0  0
    2.6420    5.9230  -13.2720 C   0  0  0  0  0  0  0  0  0  0  0  0
    3.0240    7.1890  -13.5750 C   0  0  0  0  0  0  0  0  0  0  0  0
    4.3860    7.4950  -13.6210 C   0  0  0  0  0  3  0  0  0  0  0  0
    5.3700    6.5640  -13.3690 C   0  0  0  0  0  0  0  0  0  0  0  0
    4.9730    5.2780  -13.0600 C   0  0  0  0  0  0  0  0  0  0  0  0
    5.9460    4.3240  -12.8040 O   0  0  0  0  0  1  0  0  0  0  0  0
    7.4240    7.0800  -13.4510 I   0  0  0  0  0  0  0  0  0  0  0  0
    2.0790    8.2530  -13.8590 C   0  0  2  0  0  0  0  0  0  0  0  0
    2.2780    8.7920  -15.1740 O   0  0  0  0  0  0  0  0  0  0  0  0
    2.5360   10.1370  -15.1480 C   0  0  0  0  0  0  0  0  0  0  0  0
    2.7600   10.9350  -16.1040 O   0  0  0  0  0  0  0  0  0  0  0  0
    2.5120   10.5300  -13.7470 C   0  0  0  0  0  0  0  0  0  0  0  0
    2.2440    9.4290  -12.9900 C   0  0  0  0  0  0  0  0  0  0  0  0
    2.1640    9.5320  -11.6010 C   0  0  0  0  0  0  0  0  0  0  0  0
    2.3520   10.7400  -10.9650 C   0  0  0  0  0  0  0  0  0  0  0  0
    2.6250   11.8630  -11.7410 C   0  0  0  0  0  0  0  0  0  0  0  0
    2.7040   11.7660  -13.1070 C   0  0  0  0  0  0  0  0  0  0  0  0
    3.0430   13.1650  -14.0530 Cl  0  0  0  0  0  0  0  0  0  0  0  0
    2.8720   13.4190  -10.9980 Cl  0  0  0  0  0  0  0  0  0  0  0  0
    2.2440   10.8320   -9.2220 Cl  0  0  0  0  0  0  0  0  0  0  0  0
    1.8210    8.0930  -10.6990 Cl  0  0  0  0  0  0  0  0  0  0  0  0
    0.6690    7.7850  -13.7750 C   0  0  0  0  0  0  0  0  0  0  0  0
    0.3230    6.5140  -13.4690 C   0  0  0  0  0  0  0  0  0  0  0  0
   -1.0360    6.2090  -13.4240 C   0  0  0  0  0  0  0  0  0  0  0  0
   -2.0190    7.1400  -13.6760 C   0  0  0  0  0  0  0  0  0  0  0  0
   -1.6290    8.4270  -13.9840 C   0  0  0  0  0  0  0  0  0  0  0  0
   -0.3000    8.7620  -14.0380 C   0  0  0  0  0  3  0  0  0  0  0  0
   -3.1100    9.8740  -14.3740 I   0  0  0  0  0  0  0  0  0  0  0  0
   -3.3560    6.8410  -13.6310 O   0  0  0  0  0  1  0  0  0  0  0  0
   -1.5850    4.2400  -12.9510 I   0  0  0  0  0  0  0  0  0  0  0  0
    1.2840    5.5530  -13.2110 O   0  0  0  0  0  0  0  0  0  0  0  0
  2  1  1  0  0  0  0
  3 33  1  0  0  0  0
  3  2  2  0  0  0  0
  4  3  1  0  0  0  0
  5  4  2  0  0  0  0
  5  6  1  0  0  0  0
  6  7  2  0  0  0  0
  7  2  1  0  0  0  0
  7  8  1  0  0  0  0
  9  6  1  0  0  0  0
 10 11  1  6  0  0  0
 10 24  1  0  0  0  0
 10  4  1  0  0  0  0
 10 15  1  0  0  0  0
 11 12  1  0  0  0  0
 12 14  1  0  0  0  0
 13 12  2  0  0  0  0
 14 19  2  0  0  0  0
 14 15  1  0  0  0  0
 15 16  2  0  0  0  0
 16 17  1  0  0  0  0
 16 23  1  0  0  0  0
 17 22  1  0  0  0  0
 18 21  1  0  0  0  0
 18 17  2  0  0  0  0
 19 18  1  0  0  0  0
 20 19  1  0  0  0  0
 24 25  1  0  0  0  0
 25 26  2  0  0  0  0
 25 33  1  0  0  0  0
 26 32  1  0  0  0  0
 27 31  1  0  0  0  0
 27 26  1  0  0  0  0
 28 27  2  0  0  0  0
 29 28  1  0  0  0  0
 29 24  2  0  0  0  0
 30 28  1  0  0  0  0
M  END
>  <Pose>
1

>  <Score>
9.404

$$$$
