/Users/jonathanwahrer/Desktop/Msc/3_Semester/Drug_Design_Praktikum/waehrer_HTS_screening/HTS_experiment/out/docking_results/vina_output/6q9y/0979_docked.pdbqt
 OpenBabel03222219463D

 29 33  0  0  1  0  0  0  0  0999 V2000
    3.2660    3.2950  -12.2650 I   0  0  0  0  0  0  0  0  0  0  0  0
    3.9060    5.1790  -12.9910 C   0  0  0  0  0  0  0  0  0  0  0  0
    2.8930    6.1060  -13.2920 C   0  0  0  0  0  0  0  0  0  0  0  0
    3.2770    7.3220  -13.7590 C   0  0  0  0  0  0  0  0  0  0  0  0
    4.6480    7.5950  -13.9190 C   0  0  0  0  0  3  0  0  0  0  0  0
    5.6340    6.6910  -13.6250 C   0  0  0  0  0  0  0  0  0  0  0  0
    5.2440    5.4580  -13.1510 C   0  0  0  0  0  0  0  0  0  0  0  0
    6.2160    4.5180  -12.8430 O   0  0  0  0  0  1  0  0  0  0  0  0
    7.6820    7.1690  -13.8890 I   0  0  0  0  0  0  0  0  0  0  0  0
    2.2950    8.3570  -14.1020 C   0  0  2  0  0  0  0  0  0  0  0  0
    2.4870    8.8510  -15.4130 O   0  0  0  0  0  0  0  0  0  0  0  0
    2.7620   10.1930  -15.4320 C   0  0  0  0  0  0  0  0  0  0  0  0
    2.9830   10.9420  -16.4210 O   0  0  0  0  0  0  0  0  0  0  0  0
    2.7580   10.6500  -14.0490 C   0  0  0  0  0  0  0  0  0  0  0  0
    2.4860    9.5790  -13.2600 C   0  0  0  0  0  0  0  0  0  0  0  0
    2.4290    9.7730  -11.8750 C   0  0  0  0  0  3  0  0  0  0  0  0
    2.6450   11.0220  -11.3400 C   0  0  0  0  0  3  0  0  0  0  0  0
    2.9230   12.1100  -12.1390 C   0  0  0  0  0  3  0  0  0  0  0  0
    2.9820   11.9330  -13.5000 C   0  0  0  0  0  3  0  0  0  0  0  0
    0.9010    7.9320  -13.8850 C   0  0  0  0  0  0  0  0  0  0  0  0
    0.5820    6.7040  -13.4150 C   0  0  0  0  0  0  0  0  0  0  0  0
   -0.7560    6.3700  -13.2360 C   0  0  0  0  0  0  0  0  0  0  0  0
   -1.7450    7.2680  -13.5270 C   0  0  0  0  0  0  0  0  0  0  0  0
   -1.4560    8.5250  -14.0050 C   0  0  0  0  0  0  0  0  0  0  0  0
   -0.1340    8.8300  -14.1740 C   0  0  0  0  0  3  0  0  0  0  0  0
   -2.9900    9.9100  -14.4530 I   0  0  0  0  0  0  0  0  0  0  0  0
   -3.0730    6.9090  -13.3370 O   0  0  0  0  0  1  0  0  0  0  0  0
   -1.2480    4.4380  -12.4970 I   0  0  0  0  0  0  0  0  0  0  0  0
    1.5570    5.7430  -13.1010 O   0  0  0  0  0  0  0  0  0  0  0  0
  2  1  1  0  0  0  0
  3 29  1  0  0  0  0
  3  2  2  0  0  0  0
  4  3  1  0  0  0  0
  5  4  2  0  0  0  0
  5  6  1  0  0  0  0
  6  7  2  0  0  0  0
  7  2  1  0  0  0  0
  7  8  1  0  0  0  0
  9  6  1  0  0  0  0
 10 11  1  6  0  0  0
 10 20  1  0  0  0  0
 10  4  1  0  0  0  0
 10 15  1  0  0  0  0
 12 11  1  0  0  0  0
 12 14  1  0  0  0  0
 13 12  2  0  0  0  0
 14 19  2  0  0  0  0
 14 15  1  0  0  0  0
 15 16  2  0  0  0  0
 16 17  1  0  0  0  0
 18 17  2  0  0  0  0
 19 18  1  0  0  0  0
 20 21  1  0  0  0  0
 21 22  2  0  0  0  0
 21 29  1  0  0  0  0
 22 28  1  0  0  0  0
 23 27  1  0  0  0  0
 23 22  1  0  0  0  0
 24 23  2  0  0  0  0
 25 24  1  0  0  0  0
 25 20  2  0  0  0  0
 26 24  1  0  0  0  0
M  END
>  <Pose>
1

>  <Score>
0.390

$$$$
