/Users/jonathanwahrer/Desktop/Msc/3_Semester/Drug_Design_Praktikum/waehrer_HTS_screening/HTS_experiment/out/docking_results/vina_output/6q9y/0980_docked.pdbqt
 OpenBabel03222219463D

 27 30  0  0  1  0  0  0  0  0999 V2000
   -3.4530   10.2450  -14.0280 I   0  0  0  0  0  0  0  0  0  0  0  0
   -1.8760    8.8470  -14.0400 C   0  0  0  0  0  0  0  0  0  0  0  0
   -0.5730    9.1950  -13.7440 C   0  0  0  0  0  0  0  0  0  0  0  0
    0.4610    8.2840  -13.7510 C   0  0  0  0  0  0  0  0  0  0  0  0
    0.1560    6.9740  -14.0710 C   0  0  0  0  0  2  0  0  0  0  0  0
   -1.1500    6.6160  -14.3700 C   0  0  0  0  0  3  0  0  0  0  0  0
   -2.1860    7.5410  -14.3610 C   0  0  0  0  0  0  0  0  0  0  0  0
   -3.4800    7.1270  -14.6690 O   0  0  0  0  0  1  0  0  0  0  0  0
    1.7690    8.6120  -13.4570 C   0  0  0  0  0  0  0  0  0  0  0  0
    2.0020    9.9480  -13.1450 C   0  0  0  0  0  0  0  0  0  0  0  0
    0.8800   10.8830  -13.1490 C   0  0  0  0  0  0  0  0  0  0  0  0
    1.1730   12.1920  -12.8300 C   0  0  1  0  0  3  0  0  0  0  0  0
    2.4460   12.6220  -12.5220 C   0  0  0  0  0  0  0  0  0  0  0  0
    2.6960   13.8300  -12.2320 O   0  0  0  0  0  0  0  0  0  0  0  0
    3.5080   11.7390  -12.5190 C   0  0  0  0  0  3  0  0  0  0  0  0
    3.2470   10.4200  -12.8330 C   0  0  0  0  0  3  0  0  0  0  0  0
   -0.3770   13.6110  -12.8090 I   0  0  0  0  0  0  0  0  0  0  0  0
   -0.3190   10.4440  -13.4460 O   0  0  0  0  0  0  0  0  0  0  0  0
    2.8670    7.6510  -13.4640 C   0  0  0  0  0  0  0  0  0  0  0  0
    2.8180    6.5840  -12.5710 C   0  0  0  0  0  0  0  0  0  0  0  0
    3.8250    5.6560  -12.5410 C   0  0  0  0  0  3  0  0  0  0  0  0
    4.8930    5.7830  -13.4010 C   0  0  0  0  0  3  0  0  0  0  0  0
    4.9660    6.8290  -14.2940 C   0  0  0  0  0  3  0  0  0  0  0  0
    3.9420    7.7500  -14.3080 C   0  0  0  0  0  3  0  0  0  0  0  0
    1.6900    6.4400  -11.6550 C   0  0  0  0  0  0  0  0  0  0  0  0
    1.4130    7.2890  -10.7800 O   0  0  0  0  0  1  0  0  0  0  0  0
    0.8650    5.3260  -11.7230 O   0  0  0  0  0  0  0  0  0  0  0  0
  2  1  1  0  0  0  0
  2  3  2  0  0  0  0
  3 18  1  0  0  0  0
  4  3  1  0  0  0  0
  4  9  2  0  0  0  0
  5  4  1  0  0  0  0
  6  7  2  0  0  0  0
  6  5  1  0  0  0  0
  7  2  1  0  0  0  0
  8  7  1  0  0  0  0
  9 10  1  0  0  0  0
 10 16  1  0  0  0  0
 11 10  2  0  0  0  0
 11 12  1  0  0  0  0
 12 17  1  6  0  0  0
 12 13  1  0  0  0  0
 13 15  1  0  0  0  0
 13 14  2  0  0  0  0
 16 15  2  0  0  0  0
 18 11  1  0  0  0  0
 19  9  1  0  0  0  0
 19 20  1  0  0  0  0
 20 21  2  0  0  0  0
 20 25  1  0  0  0  0
 22 21  1  0  0  0  0
 23 22  2  0  0  0  0
 24 23  1  0  0  0  0
 24 19  2  0  0  0  0
 25 26  1  0  0  0  0
 27 25  2  0  0  0  0
M  END
>  <Pose>
1

>  <Score>
-9.503

$$$$
