/Users/jonathanwahrer/Desktop/Msc/3_Semester/Drug_Design_Praktikum/waehrer_HTS_screening/HTS_experiment/out/docking_results/vina_output/6q9y/0983_docked.pdbqt
 OpenBabel03222219463D

 34 37  0  0  0  0  0  0  0  0999 V2000
    0.1850    7.9760  -13.7630 C   0  0  0  0  0  0  0  0  0  0  0  0
   -0.8940    8.8700  -13.7400 C   0  0  0  0  0  0  0  0  0  0  0  0
   -0.3150   10.1150  -13.6250 C   0  0  0  0  0  0  0  0  0  0  0  0
    1.0160    9.9650  -13.5840 N   0  0  0  0  0  0  0  0  0  0  0  0
    1.3750    8.6470  -13.6690 C   0  0  0  0  0  0  0  0  0  0  0  0
   -1.1450   11.2320  -13.5750 C   0  0  0  0  0  0  0  0  0  0  0  0
   -2.5010   11.0670  -13.6410 C   0  0  0  0  0  3  0  0  0  0  0  0
   -3.0930    9.8060  -13.7570 C   0  0  0  0  0  0  0  0  0  0  0  0
   -2.2570    8.6860  -13.8070 C   0  0  0  0  0  3  0  0  0  0  0  0
   -4.9830    9.6430  -13.8440 Br  0  0  0  0  0  0  0  0  0  0  0  0
   -0.3770   12.9560  -13.4170 Br  0  0  0  0  0  0  0  0  0  0  0  0
    1.7190   10.7530  -13.4980 H   0  0  0  0  0  0  0  0  0  0  0  0
    2.7450    8.1470  -13.6940 C   0  0  0  0  0  0  0  0  0  0  0  0
    3.0540    6.8370  -13.4950 N   0  0  0  0  0  0  0  0  0  0  0  0
    4.3820    6.6480  -13.5540 C   0  0  0  0  0  0  0  0  0  0  0  0
    2.3790    6.0600  -13.3200 H   0  0  0  0  0  0  0  0  0  0  0  0
    4.9940    7.8570  -13.7970 C   0  0  0  0  0  0  0  0  0  0  0  0
    5.2090    5.5410  -13.4260 C   0  0  0  0  0  0  0  0  0  0  0  0
    3.9380    8.7720  -13.8770 C   0  0  0  0  0  0  0  0  0  0  0  0
    6.3640    7.9790  -13.9110 C   0  0  0  0  0  3  0  0  0  0  0  0
    7.1810    6.8670  -13.7810 C   0  0  0  0  0  0  0  0  0  0  0  0
    6.5800    5.6420  -13.5360 C   0  0  0  0  0  3  0  0  0  0  0  0
    9.0860    7.0120  -13.9340 Br  0  0  0  0  0  0  0  0  0  0  0  0
    4.4470    3.8260  -13.0880 Br  0  0  0  0  0  0  0  0  0  0  0  0
    4.1440   10.1200  -14.1080 O   0  0  0  0  0  0  0  0  0  0  0  0
    4.1750   11.2680  -12.8480 S   0  0  0  0  0  0  0  0  0  0  0  0
    5.3770   11.0690  -11.9710 O   0  0  0  0  0  1  0  0  0  0  0  0
    2.9590   11.1660  -11.9720 O   0  0  0  0  0  1  0  0  0  0  0  0
    4.1540   12.8310  -13.5090 O   0  0  0  0  0  1  0  0  0  0  0  0
    0.0160    6.6000  -13.8680 O   0  0  0  0  0  0  0  0  0  0  0  0
   -0.0320    5.6030  -12.4770 S   0  0  0  0  0  0  0  0  0  0  0  0
   -0.1070    6.5240  -11.2910 O   0  0  0  0  0  1  0  0  0  0  0  0
   -1.2540    4.7180  -12.4900 O   0  0  0  0  0  1  0  0  0  0  0  0
    1.3730    4.6910  -12.3350 O   0  0  0  0  0  1  0  0  0  0  0  0
  1  2  1  0  0  0  0
  1  5  2  0  0  0  0
  2  3  1  0  0  0  0
  3  4  1  0  0  0  0
  3  6  2  0  0  0  0
  4 12  1  0  0  0  0
  5  4  1  0  0  0  0
  6 11  1  0  0  0  0
  7  6  1  0  0  0  0
  8  7  2  0  0  0  0
  9  8  1  0  0  0  0
  9  2  2  0  0  0  0
 10  8  1  0  0  0  0
 13  5  1  0  0  0  0
 13 14  1  0  0  0  0
 14 16  1  0  0  0  0
 15 14  1  0  0  0  0
 15 18  1  0  0  0  0
 17 15  2  0  0  0  0
 18 24  1  0  0  0  0
 19 17  1  0  0  0  0
 19 13  2  0  0  0  0
 20 17  1  0  0  0  0
 20 21  2  0  0  0  0
 21 22  1  0  0  0  0
 22 18  2  0  0  0  0
 23 21  1  0  0  0  0
 25 19  1  0  0  0  0
 25 26  1  0  0  0  0
 26 28  1  0  0  0  0
 26 27  1  0  0  0  0
 29 26  1  0  0  0  0
 30  1  1  0  0  0  0
 30 31  1  0  0  0  0
 31 34  1  0  0  0  0
 31 32  1  0  0  0  0
 33 31  1  0  0  0  0
M  END
>  <Pose>
1

>  <Score>
-7.437

$$$$
