/Users/jonathanwahrer/Desktop/Msc/3_Semester/Drug_Design_Praktikum/waehrer_HTS_screening/HTS_experiment/out/docking_results/vina_output/6q9y/0993_docked.pdbqt
 OpenBabel03222219473D

 26 29  0  0  1  0  0  0  0  0999 V2000
    1.7650    6.7820  -12.6430 P   0  0  2  0  0  0  0  0  0  0  0  0
    0.3410    6.4670  -11.6840 S   0  0  0  0  0  1  0  0  0  0  0  0
    2.4730    8.2560  -12.1540 O   0  0  0  0  0  0  0  0  0  0  0  0
    1.6520    9.2600  -12.6060 C   0  0  2  0  0  3  0  0  0  0  0  0
    1.6140    9.2090  -14.1390 C   0  0  2  0  0  3  0  0  0  0  0  0
    1.0570   10.4570  -14.4110 O   0  0  0  0  0  0  0  0  0  0  0  0
    1.7660   11.3560  -13.6510 C   0  0  2  0  0  3  0  0  0  0  0  0
    2.2410   10.6440  -12.4090 C   0  0  2  0  0  3  0  0  0  0  0  0
    0.7700    8.0720  -14.6240 C   0  0  0  0  0  2  0  0  0  0  0  0
    1.3870    6.8860  -14.2670 O   0  0  0  0  0  0  0  0  0  0  0  0
    2.8640    5.5580  -12.3560 O   0  0  0  0  0  0  0  0  0  0  0  0
    0.9670   12.4890  -13.2230 N   0  0  0  0  0  0  0  0  0  0  0  0
    1.4850   13.6810  -12.8340 C   0  0  0  0  0  0  0  0  0  0  0  0
    2.7630   14.1290  -12.7360 N   0  0  0  0  0  0  0  0  0  0  0  0
    0.4450   14.5240  -12.4970 C   0  0  0  0  0  0  0  0  0  0  0  0
    3.0320   15.3810  -12.3150 C   0  0  0  0  0  3  0  0  0  0  0  0
    2.0140   16.2120  -11.9820 N   0  0  0  0  0  0  0  0  0  0  0  0
    0.7350   15.8050  -12.0660 C   0  0  0  0  0  0  0  0  0  0  0  0
   -0.7000   13.8420  -12.6820 N   0  0  0  0  0  0  0  0  0  0  0  0
   -0.3670   12.6080  -13.1230 C   0  0  0  0  0  0  0  0  0  0  0  0
   -1.5650   11.1750  -13.5660 Br  0  0  0  0  0  0  0  0  0  0  0  0
   -0.3280   16.6950  -11.7120 N   0  0  0  0  0  0  0  0  0  0  0  0
   -0.0810   17.6180  -11.2600 H   0  0  0  0  0  0  0  0  0  0  0  0
   -1.3280   16.4670  -11.8820 H   0  0  0  0  0  0  0  0  0  0  0  0
    3.6310   10.5050  -12.5230 O   0  0  0  0  0  0  0  0  0  0  0  0
    3.9100    9.5930  -12.7250 H   0  0  0  0  0  0  0  0  0  0  0  0
  1 11  2  1  0  0  0
  1  3  1  0  0  0  0
  1  2  1  0  0  0  0
  4  8  1  0  0  0  0
  4  3  1  6  0  0  0
  5  9  1  1  0  0  0
  5  4  1  0  0  0  0
  6  5  1  0  0  0  0
  6  7  1  0  0  0  0
  7 12  1  1  0  0  0
  7  8  1  0  0  0  0
  8 25  1  6  0  0  0
  9 10  1  0  0  0  0
 10  1  1  0  0  0  0
 12 20  1  0  0  0  0
 12 13  1  0  0  0  0
 13 14  2  0  0  0  0
 13 15  1  0  0  0  0
 14 16  1  0  0  0  0
 15 18  2  0  0  0  0
 16 17  2  0  0  0  0
 18 17  1  0  0  0  0
 18 22  1  0  0  0  0
 19 15  1  0  0  0  0
 20 19  2  0  0  0  0
 21 20  1  0  0  0  0
 22 23  1  0  0  0  0
 24 22  1  0  0  0  0
 26 25  1  0  0  0  0
M  END
>  <Pose>
1

>  <Score>
-6.172

$$$$
