/Users/jonathanwahrer/Desktop/Msc/3_Semester/Drug_Design_Praktikum/waehrer_HTS_screening/HTS_experiment/out/docking_results/vina_output/6q9y/1011_docked.pdbqt
 OpenBabel03222219483D

 29 32  0  0  0  0  0  0  0  0999 V2000
    1.3990    9.1740  -12.9520 C   0  0  0  0  0  0  0  0  0  0  0  0
    0.9890   10.5010  -12.7890 C   0  0  0  0  0  3  0  0  0  0  0  0
    1.8930   11.5330  -12.9200 C   0  0  0  0  0  0  0  0  0  0  0  0
    3.2270   11.3180  -13.2140 C   0  0  0  0  0  0  0  0  0  0  0  0
    3.6370   10.0240  -13.3770 C   0  0  0  0  0  3  0  0  0  0  0  0
    2.7260    8.9710  -13.2450 C   0  0  0  0  0  0  0  0  0  0  0  0
    3.3120    7.1580  -13.4640 Br  0  0  0  0  0  0  0  0  0  0  0  0
    3.9350   12.6270  -13.2750 C   0  0  0  0  0  2  0  0  0  0  0  0
    2.9700   13.5400  -12.4890 C   0  0  0  0  0  2  0  0  0  0  0  0
    1.6770   12.9510  -12.8000 N   0  0  0  0  0  0  0  0  0  0  0  0
    0.4190   13.5730  -12.9750 C   0  0  0  0  0  0  0  0  0  0  0  0
   -0.6200   12.9370  -13.2650 O   0  0  0  0  0  0  0  0  0  0  0  0
    0.2340    7.8880  -12.7860 S   0  0  0  0  0  0  0  0  0  0  0  0
    0.7730    6.8200  -11.8420 O   0  0  0  0  0  0  0  0  0  0  0  0
   -1.0430    8.3650  -12.1810 O   0  0  0  0  0  0  0  0  0  0  0  0
   -0.0150    7.0950  -14.2940 N   0  0  0  0  0  0  0  0  0  0  0  0
   -0.6770    7.6680  -14.8530 H   0  0  0  0  0  0  0  0  0  0  0  0
   -0.5050    5.7400  -14.1400 C   0  0  0  0  0  2  0  0  0  0  0  0
   -2.0180    5.8440  -14.0240 C   0  0  0  0  0  2  0  0  0  0  0  0
   -2.5970    6.6000  -15.1910 C   0  0  0  0  0  2  0  0  0  0  0  0
   -3.6040    7.4730  -14.7170 N   0  0  0  0  0  0  0  0  0  0  0  0
   -3.2940    8.8580  -14.7120 C   0  0  0  0  0  2  0  0  0  0  0  0
   -4.2280    9.5550  -13.7370 C   0  0  0  0  0  2  0  0  0  0  0  0
   -5.5210    9.0860  -13.8510 O   0  0  0  0  0  0  0  0  0  0  0  0
   -5.7680    8.4220  -15.0460 C   0  0  0  0  0  2  0  0  0  0  0  0
   -4.9460    7.1300  -15.0140 C   0  0  0  0  0  2  0  0  0  0  0  0
    0.3240   15.0430  -12.8100 C   0  0  0  0  0  3  0  0  0  0  0  0
   -1.0420   15.5910  -12.8910 C   0  0  0  0  0  2  0  0  0  0  0  0
   -0.0300   15.9060  -13.9650 C   0  0  0  0  0  2  0  0  0  0  0  0
  1  2  1  0  0  0  0
  1 13  1  0  0  0  0
  3 10  1  0  0  0  0
  3  2  2  0  0  0  0
  4  3  1  0  0  0  0
  5  6  1  0  0  0  0
  5  4  2  0  0  0  0
  6  1  2  0  0  0  0
  7  6  1  0  0  0  0
  8  4  1  0  0  0  0
  8  9  1  0  0  0  0
 10  9  1  0  0  0  0
 11 27  1  0  0  0  0
 11 10  1  0  0  0  0
 12 11  2  0  0  0  0
 13 15  2  0  0  0  0
 13 14  2  0  0  0  0
 16 18  1  0  0  0  0
 16 13  1  0  0  0  0
 17 16  1  0  0  0  0
 18 19  1  0  0  0  0
 20 21  1  0  0  0  0
 20 19  1  0  0  0  0
 21 22  1  0  0  0  0
 22 23  1  0  0  0  0
 24 23  1  0  0  0  0
 25 26  1  0  0  0  0
 25 24  1  0  0  0  0
 26 21  1  0  0  0  0
 28 27  1  0  0  0  0
 29 28  1  0  0  0  0
 29 27  1  0  0  0  0
M  END
>  <Pose>
1

>  <Score>
-7.669

$$$$
