/Users/jonathanwahrer/Desktop/Msc/3_Semester/Drug_Design_Praktikum/waehrer_HTS_screening/HTS_experiment/out/docking_results/vina_output/6q9y/1027_docked.pdbqt
 OpenBabel03222219483D

 32 35  0  0  0  0  0  0  0  0999 V2000
    2.3040   10.1800  -14.0970 N   0  0  0  0  0  0  0  0  0  0  0  0
    3.2980   11.1470  -13.9760 C   0  0  0  0  0  2  0  0  0  0  0  0
    2.9600   12.3090  -13.1240 C   0  0  0  0  0  0  0  0  0  0  0  0
    3.8550   12.9620  -12.5360 O   0  0  0  0  0  0  0  0  0  0  0  0
    1.5780   12.6330  -13.0200 N   0  0  0  0  0  0  0  0  0  0  0  0
    0.7060   12.0050  -13.9460 C   0  0  0  0  0  0  0  0  0  0  0  0
   -0.3710   12.5930  -14.2420 O   0  0  0  0  0  0  0  0  0  0  0  0
    1.0260   10.7000  -14.5620 C   0  0  0  0  0  2  0  0  0  0  0  0
    2.1460    8.9400  -12.9810 S   0  0  0  0  0  0  0  0  0  0  0  0
    1.8900    9.5770  -11.6150 O   0  0  0  0  0  0  0  0  0  0  0  0
    3.4590    8.2110  -12.8080 O   0  0  0  0  0  0  0  0  0  0  0  0
    0.8500    7.8040  -13.2390 C   0  0  0  0  0  0  0  0  0  0  0  0
   -0.3810    8.2930  -13.6950 C   0  0  0  0  0  3  0  0  0  0  0  0
   -1.4980    7.5100  -13.8740 C   0  0  0  0  0  0  0  0  0  0  0  0
   -1.4430    6.1610  -13.6000 C   0  0  0  0  0  0  0  0  0  0  0  0
   -2.8210    7.8160  -14.3200 N   0  0  0  0  0  0  0  0  0  0  0  0
   -0.2440    5.6630  -13.1540 C   0  0  0  0  0  3  0  0  0  0  0  0
   -2.7530    5.5200  -13.8690 C   0  0  0  0  0  2  0  0  0  0  0  0
    0.8940    6.4660  -12.9740 C   0  0  0  0  0  0  0  0  0  0  0  0
    2.5400    5.6370  -12.4430 Br  0  0  0  0  0  0  0  0  0  0  0  0
   -3.4310    6.5640  -14.7570 C   0  0  0  0  0  2  0  0  0  0  0  0
   -3.4620    9.0670  -14.3400 C   0  0  0  0  0  0  0  0  0  0  0  0
   -4.6520    9.1370  -14.8050 O   0  0  0  0  0  0  0  0  0  0  0  0
   -2.8820   10.3460  -13.8620 C   0  0  0  0  0  1  0  0  0  0  0  0
    1.1170   13.5640  -12.0120 C   0  0  0  0  0  2  0  0  0  0  0  0
    1.4450   14.9910  -12.2860 C   0  0  0  0  0  2  0  0  0  0  0  0
    0.3140   15.8580  -12.6070 C   0  0  0  0  0  0  0  0  0  0  0  0
   -0.3390   15.7920  -13.8070 C   0  0  0  0  0  3  0  0  0  0  0  0
   -1.3880   16.6350  -14.0450 C   0  0  0  0  0  3  0  0  0  0  0  0
   -1.8150   17.5630  -13.1020 C   0  0  0  0  0  3  0  0  0  0  0  0
   -1.1470   17.6100  -11.9100 C   0  0  0  0  0  3  0  0  0  0  0  0
   -0.0890   16.7780  -11.6370 C   0  0  0  0  0  3  0  0  0  0  0  0
  1  2  1  0  0  0  0
  1  9  1  0  0  0  0
  2  3  1  0  0  0  0
  3  5  1  0  0  0  0
  3  4  2  0  0  0  0
  5 25  1  0  0  0  0
  6  5  1  0  0  0  0
  7  6  2  0  0  0  0
  8  1  1  0  0  0  0
  8  6  1  0  0  0  0
  9 11  2  0  0  0  0
  9 10  2  0  0  0  0
 12  9  1  0  0  0  0
 12 19  1  0  0  0  0
 13 12  2  0  0  0  0
 14 13  1  0  0  0  0
 14 15  2  0  0  0  0
 15 17  1  0  0  0  0
 16 14  1  0  0  0  0
 17 19  2  0  0  0  0
 18 15  1  0  0  0  0
 19 20  1  0  0  0  0
 21 16  1  0  0  0  0
 21 18  1  0  0  0  0
 22 16  1  0  0  0  0
 22 24  1  0  0  0  0
 23 22  2  0  0  0  0
 26 25  1  0  0  0  0
 27 26  1  0  0  0  0
 27 32  1  0  0  0  0
 28 27  2  0  0  0  0
 29 28  1  0  0  0  0
 29 30  2  0  0  0  0
 30 31  1  0  0  0  0
 31 32  2  0  0  0  0
M  END
>  <Pose>
1

>  <Score>
-8.970

$$$$
