/Users/jonathanwahrer/Desktop/Msc/3_Semester/Drug_Design_Praktikum/waehrer_HTS_screening/HTS_experiment/out/docking_results/vina_output/6q9y/1028_docked.pdbqt
 OpenBabel03222219483D

 25 28  0  0  1  0  0  0  0  0999 V2000
    1.9180   14.1170  -12.9140 N   0  0  0  0  0  0  0  0  0  0  0  0
    3.1910   13.5020  -12.7880 C   0  0  0  0  0  2  0  0  0  0  0  0
    2.5820   12.2840  -12.2090 C   0  0  1  0  0  3  0  0  0  0  0  0
    1.2730   12.9040  -12.5540 C   0  0  0  0  0  2  0  0  0  0  0  0
    2.8190   11.0420  -12.9190 N   0  0  0  0  0  0  0  0  0  0  0  0
    3.3890   10.8660  -14.0820 N   0  0  0  0  0  0  0  0  0  0  0  0
    3.4180    9.5630  -14.3940 N   0  0  0  0  0  0  0  0  0  0  0  0
    2.8460    8.8690  -13.3950 C   0  0  0  0  0  0  0  0  0  0  0  0
    2.4700    9.8270  -12.4650 C   0  0  0  0  0  3  0  0  0  0  0  0
    2.6520    7.3840  -13.2980 C   0  0  0  0  0  2  0  0  0  0  0  0
    1.2370    7.1100  -13.4750 N   0  0  0  0  0  0  0  0  0  0  0  0
    0.3570    7.8030  -14.3670 C   0  0  0  0  0  2  0  0  0  0  0  0
   -0.9730    7.1160  -14.2550 C   0  0  0  0  0  2  0  0  0  0  0  0
   -0.7890    5.8520  -13.4790 C   0  0  0  0  0  2  0  0  0  0  0  0
    0.5180    6.0990  -12.7750 C   0  0  0  0  0  0  0  0  0  0  0  0
    0.8680    5.4890  -11.7490 O   0  0  0  0  0  0  0  0  0  0  0  0
    1.5390   15.4530  -11.9540 S   0  0  0  0  0  0  0  0  0  0  0  0
    2.6270   16.4780  -12.0940 O   0  0  0  0  0  0  0  0  0  0  0  0
    1.4730   15.0990  -10.4870 O   0  0  0  0  0  0  0  0  0  0  0  0
    0.0320   16.2450  -12.4080 C   0  0  0  0  0  0  0  0  0  0  0  0
   -0.7970   17.4900  -11.5710 S   0  0  0  0  0  0  0  0  0  0  0  0
   -2.1220   17.6970  -12.6280 C   0  0  0  0  0  0  0  0  0  0  0  0
   -1.8710   16.7750  -13.6120 C   0  0  0  0  0  3  0  0  0  0  0  0
   -3.6130   18.9100  -12.5010 Br  0  0  0  0  0  0  0  0  0  0  0  0
   -0.7670   16.0360  -13.4930 C   0  0  0  0  0  3  0  0  0  0  0  0
  1  2  1  0  0  0  0
  1  4  1  0  0  0  0
  1 17  1  0  0  0  0
  2  3  1  0  0  0  0
  3  5  1  6  0  0  0
  4  3  1  0  0  0  0
  5  9  1  0  0  0  0
  6  5  1  0  0  0  0
  7  6  2  0  0  0  0
  7  8  1  0  0  0  0
  8 10  1  0  0  0  0
  8  9  2  0  0  0  0
 11 10  1  0  0  0  0
 11 15  1  0  0  0  0
 12 13  1  0  0  0  0
 12 11  1  0  0  0  0
 13 14  1  0  0  0  0
 14 15  1  0  0  0  0
 15 16  2  0  0  0  0
 17 19  2  0  0  0  0
 18 17  2  0  0  0  0
 20 17  1  0  0  0  0
 20 21  1  0  0  0  0
 22 24  1  0  0  0  0
 22 21  1  0  0  0  0
 23 25  1  0  0  0  0
 23 22  2  0  0  0  0
 25 20  2  0  0  0  0
M  END
>  <Pose>
1

>  <Score>
-7.470

$$$$
