/Users/jonathanwahrer/Desktop/Msc/3_Semester/Drug_Design_Praktikum/waehrer_HTS_screening/HTS_experiment/out/docking_results/vina_output/6q9y/1043_docked.pdbqt
 OpenBabel03222219503D

 31 34  0  0  0  0  0  0  0  0999 V2000
    0.5600   13.3360  -12.4210 N   0  0  0  0  0  0  0  0  0  0  0  0
   -0.8710   13.2580  -12.6250 C   0  0  0  0  0  2  0  0  0  0  0  0
   -1.2090   12.3500  -13.7820 C   0  0  0  0  0  2  0  0  0  0  0  0
   -0.5070   11.0720  -13.5420 N   0  0  0  0  0  0  0  0  0  0  0  0
    0.9080   11.1740  -13.3680 C   0  0  0  0  0  2  0  0  0  0  0  0
    1.2720   12.6740  -13.4570 C   0  0  0  0  0  2  0  0  0  0  0  0
   -1.2190    9.8650  -13.4910 C   0  0  0  0  0  0  0  0  0  0  0  0
   -2.5200    9.9910  -13.6630 O   0  0  0  0  0  0  0  0  0  0  0  0
   -0.8140    8.4980  -13.2860 C   0  0  0  0  0  2  0  0  0  0  0  0
    0.5630    8.1710  -13.0910 N   0  0  0  0  0  0  0  0  0  0  0  0
    1.1910    7.6760  -11.8800 C   0  0  0  0  0  0  0  0  0  0  0  0
    0.5430    7.4540  -10.8190 O   0  0  0  0  0  0  0  0  0  0  0  0
    2.5740    7.5150  -12.1450 N   0  0  0  0  0  0  0  0  0  0  0  0
    2.8790    8.2870  -13.3010 C   0  0  0  0  0  0  0  0  0  0  0  0
    3.2000    6.9120  -11.5420 H   0  0  0  0  0  0  0  0  0  0  0  0
    3.3820    9.6740  -12.9810 C   0  0  0  0  0  2  0  0  0  0  0  0
    4.0370    7.7160  -14.1010 C   0  0  0  0  0  2  0  0  0  0  0  0
    1.6280    8.2890  -14.0570 C   0  0  0  0  0  0  0  0  0  0  0  0
    3.9220   10.1160  -14.3280 C   0  0  0  0  0  2  0  0  0  0  0  0
    4.3470    8.8560  -15.0420 C   0  0  0  0  0  2  0  0  0  0  0  0
    1.4670    8.3750  -15.3020 O   0  0  0  0  0  0  0  0  0  0  0  0
    1.1050   14.9170  -12.0800 S   0  0  0  0  0  0  0  0  0  0  0  0
    2.2720   15.1940  -13.0100 O   0  0  0  0  0  0  0  0  0  0  0  0
    1.6760   14.9560  -10.6850 O   0  0  0  0  0  0  0  0  0  0  0  0
   -0.1420   16.1280  -12.2580 C   0  0  0  0  0  0  0  0  0  0  0  0
   -0.3710   17.0940  -11.3000 C   0  0  0  0  0  3  0  0  0  0  0  0
   -1.3660   18.0530  -11.4510 C   0  0  0  0  0  3  0  0  0  0  0  0
   -2.1590   18.0700  -12.5700 C   0  0  0  0  0  0  0  0  0  0  0  0
   -1.9400   17.1100  -13.5350 C   0  0  0  0  0  3  0  0  0  0  0  0
   -3.5390   19.3960  -12.7870 Br  0  0  0  0  0  0  0  0  0  0  0  0
   -0.9450   16.1560  -13.3780 C   0  0  0  0  0  3  0  0  0  0  0  0
  1 22  1  0  0  0  0
  2  1  1  0  0  0  0
  3  4  1  0  0  0  0
  3  2  1  0  0  0  0
  4  7  1  0  0  0  0
  4  5  1  0  0  0  0
  6  5  1  0  0  0  0
  6  1  1  0  0  0  0
  7  9  1  0  0  0  0
  8  7  2  0  0  0  0
  9 10  1  0  0  0  0
 10 11  1  0  0  0  0
 11 12  2  0  0  0  0
 13 11  1  0  0  0  0
 13 15  1  0  0  0  0
 14 16  1  0  0  0  0
 14 13  1  0  0  0  0
 17 14  1  0  0  0  0
 18 14  1  0  0  0  0
 18 10  1  0  0  0  0
 19 16  1  0  0  0  0
 20 19  1  0  0  0  0
 20 17  1  0  0  0  0
 21 18  2  0  0  0  0
 22 24  2  0  0  0  0
 23 22  2  0  0  0  0
 25 22  1  0  0  0  0
 25 26  1  0  0  0  0
 27 26  2  0  0  0  0
 28 27  1  0  0  0  0
 29 31  1  0  0  0  0
 29 28  2  0  0  0  0
 30 28  1  0  0  0  0
 31 25  2  0  0  0  0
M  END
>  <Pose>
1

>  <Score>
-9.053

$$$$
