/Users/jonathanwahrer/Desktop/Msc/3_Semester/Drug_Design_Praktikum/waehrer_HTS_screening/HTS_experiment/out/docking_results/vina_output/6q9y/1044_docked.pdbqt
 OpenBabel03222219503D

 30 33  0  0  0  0  0  0  0  0999 V2000
   -3.6420    9.3150  -13.7870 N   0  0  0  0  0  0  0  0  0  0  0  0
   -3.0740   10.5060  -14.2440 C   0  0  0  0  0  2  0  0  0  0  0  0
   -1.6570   10.7640  -13.8710 C   0  0  0  0  0  2  0  0  0  0  0  0
   -0.8810    9.5900  -13.6230 N   0  0  0  0  0  0  0  0  0  0  0  0
   -1.5060    8.2930  -13.7590 C   0  0  0  0  0  2  0  0  0  0  0  0
   -2.8560    8.4110  -13.0530 C   0  0  0  0  0  2  0  0  0  0  0  0
    0.4830    9.6470  -13.2460 C   0  0  0  0  0  0  0  0  0  0  0  0
    1.0760   10.7650  -13.1150 O   0  0  0  0  0  0  0  0  0  0  0  0
   -4.9380    8.6760  -14.6650 S   0  0  0  0  0  0  0  0  0  0  0  0
   -4.6090    8.2880  -16.0530 O   0  0  0  0  0  0  0  0  0  0  0  0
   -5.4000    7.4130  -13.9490 O   0  0  0  0  0  0  0  0  0  0  0  0
   -6.3120    9.7760  -14.6100 C   0  0  0  0  0  0  0  0  0  0  0  0
   -7.1720    9.9070  -15.6810 C   0  0  0  0  0  3  0  0  0  0  0  0
   -8.2570   10.7590  -15.6680 C   0  0  0  0  0  0  0  0  0  0  0  0
   -8.5250   11.5300  -14.5560 C   0  0  0  0  0  0  0  0  0  0  0  0
   -9.1460   10.8980  -16.7700 N   0  0  0  0  0  0  0  0  0  0  0  0
   -7.6630   11.4010  -13.4780 C   0  0  0  0  0  3  0  0  0  0  0  0
   -9.6130   12.4000  -14.5140 O   0  0  0  0  0  0  0  0  0  0  0  0
   -6.5800   10.5460  -13.4970 C   0  0  0  0  0  3  0  0  0  0  0  0
  -10.3790   12.7700  -15.6450 C   0  0  0  0  0  2  0  0  0  0  0  0
  -10.2620   11.7810  -16.7460 C   0  0  0  0  0  0  0  0  0  0  0  0
  -11.1700   11.7770  -17.6150 O   0  0  0  0  0  0  0  0  0  0  0  0
   -8.9570   10.3230  -17.6180 H   0  0  0  0  0  0  0  0  0  0  0  0
    1.2890    8.4610  -12.9890 C   0  0  0  0  0  0  0  0  0  0  0  0
    2.3260    8.0770  -13.8190 C   0  0  0  0  0  0  0  0  0  0  0  0
    3.0940    6.9600  -13.5860 C   0  0  0  0  0  3  0  0  0  0  0  0
    2.6660    9.1790  -15.3410 Br  0  0  0  0  0  0  0  0  0  0  0  0
    2.8060    6.1940  -12.4670 C   0  0  0  0  0  3  0  0  0  0  0  0
    1.7870    6.5280  -11.6060 C   0  0  0  0  0  3  0  0  0  0  0  0
    1.0470    7.6560  -11.8840 C   0  0  0  0  0  3  0  0  0  0  0  0
  1  6  1  0  0  0  0
  2  3  1  0  0  0  0
  2  1  1  0  0  0  0
  3  4  1  0  0  0  0
  4  7  1  0  0  0  0
  5  4  1  0  0  0  0
  5  6  1  0  0  0  0
  7  8  2  0  0  0  0
  7 24  1  0  0  0  0
  9 12  1  0  0  0  0
  9 11  2  0  0  0  0
  9  1  1  0  0  0  0
 10  9  2  0  0  0  0
 12 19  1  0  0  0  0
 13 14  1  0  0  0  0
 13 12  2  0  0  0  0
 14 15  2  0  0  0  0
 15 18  1  0  0  0  0
 15 17  1  0  0  0  0
 16 21  1  0  0  0  0
 16 14  1  0  0  0  0
 19 17  2  0  0  0  0
 20 18  1  0  0  0  0
 21 20  1  0  0  0  0
 22 21  2  0  0  0  0
 23 16  1  0  0  0  0
 24 30  1  0  0  0  0
 25 26  1  0  0  0  0
 25 24  2  0  0  0  0
 26 28  2  0  0  0  0
 27 25  1  0  0  0  0
 28 29  1  0  0  0  0
 30 29  2  0  0  0  0
M  END
>  <Pose>
1

>  <Score>
-9.006

$$$$
