/Users/jonathanwahrer/Desktop/Msc/3_Semester/Drug_Design_Praktikum/waehrer_HTS_screening/HTS_experiment/out/docking_results/vina_output/6q9y/1051_docked.pdbqt
 OpenBabel03222219503D

 27 30  0  0  0  0  0  0  0  0999 V2000
    2.6980   11.5220  -13.1070 N   0  0  0  0  0  0  0  0  0  0  0  0
    1.8270   11.3690  -14.2130 C   0  0  0  0  0  2  0  0  0  0  0  0
    0.6800   10.4330  -14.0360 C   0  0  0  0  0  2  0  0  0  0  0  0
    0.9730    9.2990  -13.2020 N   0  0  0  0  0  0  0  0  0  0  0  0
    2.3190    9.2110  -12.6810 C   0  0  0  0  0  2  0  0  0  0  0  0
    2.5820   10.5670  -12.0590 C   0  0  0  0  0  2  0  0  0  0  0  0
    0.0460    8.2920  -12.8730 C   0  0  0  0  0  0  0  0  0  0  0  0
    0.3940    7.3410  -12.1390 O   0  0  0  0  0  0  0  0  0  0  0  0
   -1.3200    8.3460  -13.3830 C   0  0  0  0  0  0  0  0  0  0  0  0
   -2.1980    9.3170  -13.1540 N   0  0  0  0  0  0  0  0  0  0  0  0
   -3.3530    9.0530  -13.7690 N   0  0  0  0  0  0  0  0  0  0  0  0
   -3.2520    7.8770  -14.4290 C   0  0  0  0  0  0  0  0  0  0  0  0
   -4.5200    9.7290  -13.8290 C   0  0  0  0  0  3  0  0  0  0  0  0
   -1.9510    7.4260  -14.1800 C   0  0  0  0  0  3  0  0  0  0  0  0
   -4.2840    7.3630  -15.1430 N   0  0  0  0  0  0  0  0  0  0  0  0
   -5.4630    8.0480  -15.2020 C   0  0  0  0  0  3  0  0  0  0  0  0
   -5.5970    9.2500  -14.5420 C   0  0  0  0  0  0  0  0  0  0  0  0
   -7.2590   10.2140  -14.6270 Br  0  0  0  0  0  0  0  0  0  0  0  0
    2.6840   13.0990  -12.4160 S   0  0  0  0  0  0  0  0  0  0  0  0
    3.7300   13.9530  -13.0570 O   0  0  0  0  0  0  0  0  0  0  0  0
    3.0410   12.9280  -10.9460 O   0  0  0  0  0  0  0  0  0  0  0  0
    1.1290   13.8750  -12.5890 C   0  0  0  0  0  0  0  0  0  0  0  0
    0.8810   15.2140  -12.7840 C   0  0  0  0  0  3  0  0  0  0  0  0
   -0.4340   15.4210  -12.8680 N   0  0  0  0  0  0  0  0  0  0  0  0
   -1.0480   14.2610  -12.7360 N   0  0  0  0  0  0  0  0  0  0  0  0
   -1.1090   16.6750  -13.0700 C   0  0  0  0  0  1  0  0  0  0  0  0
   -0.1310   13.2770  -12.5610 C   0  0  0  0  0  3  0  0  0  0  0  0
  1 19  1  0  0  0  0
  1  6  1  0  0  0  0
  2  3  1  0  0  0  0
  2  1  1  0  0  0  0
  3  4  1  0  0  0  0
  4  7  1  0  0  0  0
  4  5  1  0  0  0  0
  5  6  1  0  0  0  0
  7  8  2  0  0  0  0
  9 10  2  0  0  0  0
  9  7  1  0  0  0  0
 11 10  1  0  0  0  0
 12 14  2  0  0  0  0
 12 11  1  0  0  0  0
 13 11  1  0  0  0  0
 14  9  1  0  0  0  0
 15 12  1  0  0  0  0
 16 15  2  0  0  0  0
 16 17  1  0  0  0  0
 17 13  2  0  0  0  0
 18 17  1  0  0  0  0
 19 21  2  0  0  0  0
 20 19  2  0  0  0  0
 22 27  1  0  0  0  0
 22 19  1  0  0  0  0
 23 22  2  0  0  0  0
 24 23  1  0  0  0  0
 24 25  1  0  0  0  0
 25 27  2  0  0  0  0
 26 24  1  0  0  0  0
M  END
>  <Pose>
1

>  <Score>
-8.056

$$$$
