/Users/jonathanwahrer/Desktop/Msc/3_Semester/Drug_Design_Praktikum/waehrer_HTS_screening/HTS_experiment/out/docking_results/vina_output/6q9y/1056_docked.pdbqt
 OpenBabel03222219503D

 30 33  0  0  1  0  0  0  0  0999 V2000
    0.5440    7.0550  -12.6230 N   0  0  0  0  0  0  0  0  0  0  0  0
    1.2420    8.2800  -12.7220 C   0  0  0  0  0  2  0  0  0  0  0  0
    2.5430    8.2630  -13.4140 C   0  0  0  0  0  2  0  0  0  0  0  0
    3.2990    7.0840  -13.1120 N   0  0  0  0  0  0  0  0  0  0  0  0
    2.7760    6.1340  -12.1720 C   0  0  0  0  0  2  0  0  0  0  0  0
    1.3050    5.9000  -12.3120 C   0  0  0  0  0  2  0  0  0  0  0  0
    4.5450    6.8500  -13.7280 C   0  0  0  0  0  0  0  0  0  0  0  0
    4.9840    7.6890  -14.5460 O   0  0  0  0  0  0  0  0  0  0  0  0
    5.3670    5.6750  -13.4690 C   0  0  1  0  0  3  0  0  0  0  0  0
    4.9230    4.4250  -13.8600 C   0  0  0  0  0  3  0  0  0  0  0  0
    5.6800    3.3410  -13.6230 N   0  0  0  0  0  0  0  0  0  0  0  0
    6.8800    3.4160  -13.0080 C   0  0  1  0  0  3  0  0  0  0  0  0
    7.3400    4.6150  -12.6140 N   0  0  0  0  0  0  0  0  0  0  0  0
    7.6420    2.2760  -12.7750 C   0  0  0  0  0  3  0  0  0  0  0  0
    8.5500    4.6950  -11.9930 C   0  0  0  0  0  3  0  0  0  0  0  0
    6.5950    5.7300  -12.8410 C   0  0  0  0  0  0  0  0  0  0  0  0
    9.3220    3.5770  -11.7530 C   0  0  0  0  0  0  0  0  0  0  0  0
    8.8670    2.3300  -12.1490 C   0  0  0  0  0  3  0  0  0  0  0  0
   10.6430    3.6230  -11.0790 C   0  0  0  0  0  1  0  0  0  0  0  0
    7.0220    6.8360  -12.4780 O   0  0  0  0  0  0  0  0  0  0  0  0
   -0.7510    6.8360  -13.6890 S   0  0  0  0  0  0  0  0  0  0  0  0
   -0.2600    6.3970  -15.0240 O   0  0  0  0  0  0  0  0  0  0  0  0
   -1.6510    5.7610  -13.1330 O   0  0  0  0  0  0  0  0  0  0  0  0
   -1.6770    8.3080  -13.8180 C   0  0  0  0  0  0  0  0  0  0  0  0
   -1.0980    9.5210  -13.5090 C   0  0  0  0  0  3  0  0  0  0  0  0
   -1.8930   10.6550  -13.6340 C   0  0  0  0  0  0  0  0  0  0  0  0
   -3.1990   10.5900  -14.0450 C   0  0  0  0  0  3  0  0  0  0  0  0
   -1.1530   12.3580  -13.2220 Br  0  0  0  0  0  0  0  0  0  0  0  0
   -3.7710    9.3650  -14.3540 C   0  0  0  0  0  3  0  0  0  0  0  0
   -2.9890    8.2110  -14.2350 C   0  0  0  0  0  3  0  0  0  0  0  0
  1  6  1  0  0  0  0
  2  1  1  0  0  0  0
  3  4  1  0  0  0  0
  3  2  1  0  0  0  0
  4  5  1  0  0  0  0
  6  5  1  0  0  0  0
  7  4  1  0  0  0  0
  8  7  2  0  0  0  0
  9  7  1  6  0  0  0
  9 16  1  0  0  0  0
 10 11  2  0  0  0  0
 10  9  1  0  0  0  0
 11 12  1  0  0  0  0
 12 14  1  1  0  0  0
 12 13  1  0  0  0  0
 13 15  1  0  0  0  0
 14 18  2  0  0  0  0
 15 17  2  0  0  0  0
 16 13  1  0  0  0  0
 16 20  2  0  0  0  0
 17 19  1  0  0  0  0
 18 17  1  0  0  0  0
 21 23  2  0  0  0  0
 21  1  1  0  0  0  0
 22 21  2  0  0  0  0
 24 21  1  0  0  0  0
 24 25  1  0  0  0  0
 26 25  2  0  0  0  0
 26 28  1  0  0  0  0
 27 26  1  0  0  0  0
 29 30  1  0  0  0  0
 29 27  2  0  0  0  0
 30 24  2  0  0  0  0
M  END
>  <Pose>
1

>  <Score>
-8.925

$$$$
