/Users/jonathanwahrer/Desktop/Msc/3_Semester/Drug_Design_Praktikum/waehrer_HTS_screening/HTS_experiment/out/docking_results/vina_output/6q9y/1073_docked.pdbqt
 OpenBabel03222219513D

 28 31  0  0  0  0  0  0  0  0999 V2000
    2.7270   11.4750  -13.0930 N   0  0  0  0  0  0  0  0  0  0  0  0
    3.7060   10.5080  -12.8000 C   0  0  0  0  0  2  0  0  0  0  0  0
    3.4530    9.1820  -13.4610 C   0  0  0  0  0  2  0  0  0  0  0  0
    2.1080    8.9740  -13.8640 N   0  0  0  0  0  0  0  0  0  0  0  0
    1.6660   10.0020  -14.7380 C   0  0  0  0  0  2  0  0  0  0  0  0
    2.0380   11.3770  -14.3230 C   0  0  0  0  0  2  0  0  0  0  0  0
    1.2730    8.6200  -12.7780 C   0  0  0  0  0  2  0  0  0  0  0  0
    0.2980    7.6090  -13.0130 N   0  0  0  0  0  0  0  0  0  0  0  0
   -0.7990    7.8760  -13.6910 N   0  0  0  0  0  0  0  0  0  0  0  0
   -1.7680    6.9840  -13.9510 C   0  0  0  0  0  0  0  0  0  0  0  0
   -1.5830    5.7110  -13.4670 C   0  0  0  0  0  3  0  0  0  0  0  0
   -0.4570    5.3680  -12.7490 C   0  0  0  0  0  3  0  0  0  0  0  0
    0.4850    6.3670  -12.5380 C   0  0  0  0  0  0  0  0  0  0  0  0
    1.5300    6.0450  -11.8720 O   0  0  0  0  0  0  0  0  0  0  0  0
   -2.9510    7.3060  -14.6920 N   0  0  0  0  0  0  0  0  0  0  0  0
   -3.4580    6.6870  -15.7630 C   0  0  0  0  0  3  0  0  0  0  0  0
   -4.5820    7.3270  -16.1350 N   0  0  0  0  0  0  0  0  0  0  0  0
   -4.8010    8.3600  -15.3020 C   0  0  0  0  0  3  0  0  0  0  0  0
   -3.7620    8.3330  -14.3960 C   0  0  0  0  0  3  0  0  0  0  0  0
    2.8420   12.9760  -12.3900 S   0  0  0  0  0  0  0  0  0  0  0  0
    3.0750   12.9090  -10.9190 O   0  0  0  0  0  0  0  0  0  0  0  0
    3.9450   13.7670  -13.0160 O   0  0  0  0  0  0  0  0  0  0  0  0
    1.3190   13.8540  -12.6410 C   0  0  0  0  0  0  0  0  0  0  0  0
    1.0510   15.5340  -12.7450 S   0  0  0  0  0  0  0  0  0  0  0  0
   -0.6350   15.5270  -12.9840 C   0  0  0  0  0  0  0  0  0  0  0  0
   -0.9490   14.1900  -12.9750 C   0  0  0  0  0  3  0  0  0  0  0  0
   -1.8300   17.0070  -13.2130 Br  0  0  0  0  0  0  0  0  0  0  0  0
    0.0670   13.3310  -12.7970 C   0  0  0  0  0  3  0  0  0  0  0  0
  1  2  1  0  0  0  0
  1 20  1  0  0  0  0
  3  2  1  0  0  0  0
  4  3  1  0  0  0  0
  4  7  1  0  0  0  0
  5  6  1  0  0  0  0
  5  4  1  0  0  0  0
  6  1  1  0  0  0  0
  8  7  1  0  0  0  0
  8 13  1  0  0  0  0
  9  8  1  0  0  0  0
 10  9  2  0  0  0  0
 10 11  1  0  0  0  0
 11 12  2  0  0  0  0
 12 13  1  0  0  0  0
 13 14  2  0  0  0  0
 15 19  1  0  0  0  0
 15 10  1  0  0  0  0
 16 15  1  0  0  0  0
 17 16  2  0  0  0  0
 17 18  1  0  0  0  0
 18 19  2  0  0  0  0
 20 21  2  0  0  0  0
 22 20  2  0  0  0  0
 23 20  1  0  0  0  0
 24 23  1  0  0  0  0
 25 26  2  0  0  0  0
 25 24  1  0  0  0  0
 26 28  1  0  0  0  0
 27 25  1  0  0  0  0
 28 23  2  0  0  0  0
M  END
>  <Pose>
1

>  <Score>
-8.384

$$$$
