/Users/jonathanwahrer/Desktop/Msc/3_Semester/Drug_Design_Praktikum/waehrer_HTS_screening/HTS_experiment/out/docking_results/vina_output/6q9y/1076_docked.pdbqt
 OpenBabel03222219513D

 29 32  0  0  0  0  0  0  0  0999 V2000
    2.7120   13.4630  -12.5150 N   0  0  0  0  0  0  0  0  0  0  0  0
    2.6970   13.7170  -11.1090 C   0  0  0  0  0  2  0  0  0  0  0  0
    1.5850   14.7560  -10.8820 C   0  0  0  0  0  2  0  0  0  0  0  0
    1.4420   15.6080  -11.9810 N   0  0  0  0  0  0  0  0  0  0  0  0
    2.6360   15.8820  -12.7340 C   0  0  0  0  0  2  0  0  0  0  0  0
    3.3910   14.6270  -13.1110 C   0  0  0  0  0  2  0  0  0  0  0  0
    0.2430   15.6650  -12.7060 C   0  0  0  0  0  2  0  0  0  0  0  0
   -0.7150   16.6670  -12.3640 N   0  0  0  0  0  0  0  0  0  0  0  0
   -0.5880   17.4230  -11.1710 N   0  0  0  0  0  0  0  0  0  0  0  0
   -1.6940   18.3210  -11.1640 C   0  0  0  0  0  0  0  0  0  0  0  0
    0.1610   17.3380  -10.4440 H   0  0  0  0  0  0  0  0  0  0  0  0
   -1.9090   19.1960  -10.1890 C   0  0  0  0  0  3  0  0  0  0  0  0
   -2.5030   18.1470  -12.3170 N   0  0  0  0  0  0  0  0  0  0  0  0
   -2.9450   20.2210   -9.9300 C   0  0  0  0  0  2  0  0  0  0  0  0
   -4.2490   19.8500  -10.5950 C   0  0  0  0  0  2  0  0  0  0  0  0
   -4.0380   20.0590  -12.0840 C   0  0  0  0  0  2  0  0  0  0  0  0
   -3.7000   18.7780  -12.7830 C   0  0  0  0  0  2  0  0  0  0  0  0
   -1.8740   17.1050  -13.0570 C   0  0  0  0  0  0  0  0  0  0  0  0
   -2.3130   16.6710  -14.1510 O   0  0  0  0  0  0  0  0  0  0  0  0
    3.6190   12.0830  -12.9640 S   0  0  0  0  0  0  0  0  0  0  0  0
    4.4570   11.5610  -11.8260 O   0  0  0  0  0  0  0  0  0  0  0  0
    4.5880   12.5160  -14.0400 O   0  0  0  0  0  0  0  0  0  0  0  0
    2.6660   10.7960  -13.5960 C   0  0  0  0  0  0  0  0  0  0  0  0
    1.3930   10.4810  -13.2240 C   0  0  0  0  0  3  0  0  0  0  0  0
    0.7100    9.4190  -13.7980 C   0  0  0  0  0  0  0  0  0  0  0  0
    1.2840    8.6430  -14.7610 C   0  0  0  0  0  3  0  0  0  0  0  0
   -1.0840    8.9930  -13.2580 Br  0  0  0  0  0  0  0  0  0  0  0  0
    2.5780    8.9390  -15.1600 C   0  0  0  0  0  3  0  0  0  0  0  0
    3.2430    9.9920  -14.5840 C   0  0  0  0  0  3  0  0  0  0  0  0
  1  2  1  0  0  0  0
  2  3  1  0  0  0  0
  4  3  1  0  0  0  0
  5  4  1  0  0  0  0
  6  5  1  0  0  0  0
  6  1  1  0  0  0  0
  7  8  1  0  0  0  0
  7  4  1  0  0  0  0
  8  9  1  0  0  0  0
  9 10  1  0  0  0  0
  9 11  1  0  0  0  0
 10 12  2  0  0  0  0
 12 14  1  0  0  0  0
 13 10  1  0  0  0  0
 15 14  1  0  0  0  0
 16 15  1  0  0  0  0
 17 13  1  0  0  0  0
 17 16  1  0  0  0  0
 18  8  1  0  0  0  0
 18 13  1  0  0  0  0
 19 18  2  0  0  0  0
 20  1  1  0  0  0  0
 20 21  2  0  0  0  0
 22 20  2  0  0  0  0
 23 24  1  0  0  0  0
 23 20  1  0  0  0  0
 25 27  1  0  0  0  0
 25 24  2  0  0  0  0
 26 25  1  0  0  0  0
 28 26  2  0  0  0  0
 28 29  1  0  0  0  0
 29 23  2  0  0  0  0
M  END
>  <Pose>
1

>  <Score>
-9.973

$$$$
