/Users/jonathanwahrer/Desktop/Msc/3_Semester/Drug_Design_Praktikum/waehrer_HTS_screening/HTS_experiment/out/docking_results/vina_output/6q9y/1084_docked.pdbqt
 OpenBabel03222219513D

 29 32  0  0  0  0  0  0  0  0999 V2000
   -3.4440    8.7090  -14.5790 N   0  0  0  0  0  0  0  0  0  0  0  0
   -2.5710    7.5920  -14.4360 C   0  0  0  0  0  2  0  0  0  0  0  0
   -1.4980    7.7970  -13.3890 C   0  0  0  0  0  2  0  0  0  0  0  0
   -1.2620    9.2070  -13.2800 N   0  0  0  0  0  0  0  0  0  0  0  0
   -2.3350   10.0500  -12.8410 C   0  0  0  0  0  2  0  0  0  0  0  0
   -3.6260    9.4790  -13.3720 C   0  0  0  0  0  2  0  0  0  0  0  0
   -0.0020    9.7390  -13.5990 C   0  0  0  0  0  0  0  0  0  0  0  0
    0.4000   10.9520  -13.1850 N   0  0  0  0  0  0  0  0  0  0  0  0
    1.5690   11.5060  -13.4510 C   0  0  0  0  0  0  0  0  0  0  0  0
    2.4620   10.7800  -14.2210 C   0  0  0  0  0  3  0  0  0  0  0  0
    2.0960    9.5310  -14.6700 C   0  0  0  0  0  0  0  0  0  0  0  0
    0.8840    9.0420  -14.3510 N   0  0  0  0  0  0  0  0  0  0  0  0
    3.0270    8.7190  -15.5000 C   0  0  0  0  0  1  0  0  0  0  0  0
    1.8720   12.7970  -12.9540 N   0  0  0  0  0  0  0  0  0  0  0  0
    0.8650   13.7680  -12.5790 C   0  0  0  0  0  2  0  0  0  0  0  0
    1.5380   14.7210  -11.5920 C   0  0  0  0  0  2  0  0  0  0  0  0
    2.3090   13.9370  -10.7310 O   0  0  0  0  0  0  0  0  0  0  0  0
    3.4620   13.4630  -11.3120 C   0  0  0  0  0  2  0  0  0  0  0  0
    3.2570   13.1810  -12.8050 C   0  0  0  0  0  2  0  0  0  0  0  0
   -5.0010    8.1180  -15.0440 S   0  0  0  0  0  0  0  0  0  0  0  0
   -4.9240    7.7040  -16.5040 O   0  0  0  0  0  0  0  0  0  0  0  0
   -5.3240    6.8950  -14.2330 O   0  0  0  0  0  0  0  0  0  0  0  0
   -6.2260    9.3430  -14.8780 C   0  0  0  0  0  0  0  0  0  0  0  0
   -7.2070    9.4400  -15.8550 C   0  0  0  0  0  3  0  0  0  0  0  0
   -8.2070   10.3850  -15.7890 C   0  0  0  0  0  3  0  0  0  0  0  0
   -8.2450   11.2640  -14.7340 C   0  0  0  0  0  0  0  0  0  0  0  0
   -7.2850   11.2000  -13.7420 C   0  0  0  0  0  3  0  0  0  0  0  0
   -9.6350   12.5650  -14.6600 Br  0  0  0  0  0  0  0  0  0  0  0  0
   -6.2880   10.2330  -13.8370 C   0  0  0  0  0  3  0  0  0  0  0  0
  1  2  1  0  0  0  0
  1  6  1  0  0  0  0
  2  3  1  0  0  0  0
  3  4  1  0  0  0  0
  4  5  1  0  0  0  0
  6  5  1  0  0  0  0
  7  4  1  0  0  0  0
  7  8  2  0  0  0  0
  9  8  1  0  0  0  0
  9 14  1  0  0  0  0
 10  9  2  0  0  0  0
 11 12  2  0  0  0  0
 11 10  1  0  0  0  0
 12  7  1  0  0  0  0
 13 11  1  0  0  0  0
 14 19  1  0  0  0  0
 14 15  1  0  0  0  0
 15 16  1  0  0  0  0
 16 17  1  0  0  0  0
 18 17  1  0  0  0  0
 19 18  1  0  0  0  0
 20 23  1  0  0  0  0
 20  1  1  0  0  0  0
 20 22  2  0  0  0  0
 21 20  2  0  0  0  0
 23 29  1  0  0  0  0
 24 25  1  0  0  0  0
 24 23  2  0  0  0  0
 25 26  2  0  0  0  0
 26 28  1  0  0  0  0
 26 27  1  0  0  0  0
 29 27  2  0  0  0  0
M  END
>  <Pose>
1

>  <Score>
-9.530

$$$$
