/Users/jonathanwahrer/Desktop/Msc/3_Semester/Drug_Design_Praktikum/waehrer_HTS_screening/HTS_experiment/out/docking_results/vina_output/6q9y/1100_docked.pdbqt
 OpenBabel03222219523D

 26 29  0  0  1  0  0  0  0  0999 V2000
    2.1080   11.2000  -12.9320 N   0  0  0  0  0  0  0  0  0  0  0  0
    2.0180   10.9940  -14.3390 C   0  0  0  0  0  2  0  0  0  0  0  0
    1.9630    9.5290  -14.7190 C   0  0  0  0  0  2  0  0  0  0  0  0
    1.2300    8.8460  -13.6830 N   0  0  1  0  0  0  0  0  0  0  0  0
    1.8630    8.8020  -12.3900 C   0  0  0  0  0  2  0  0  0  0  0  0
    2.5520   10.0970  -12.1490 C   0  0  0  0  0  2  0  0  0  0  0  0
   -0.0330    8.2470  -13.8900 C   0  0  1  0  0  3  0  0  0  0  0  0
   -0.1680    6.9490  -14.1660 C   0  0  0  0  0  3  0  0  0  0  0  0
   -1.4460    6.2970  -14.3840 C   0  0  0  0  0  0  0  0  0  0  0  0
   -1.5190    5.0040  -14.6560 C   0  0  0  0  0  1  0  0  0  0  0  0
   -2.6240    7.0710  -14.3020 N   0  0  0  0  0  0  0  0  0  0  0  0
   -2.4410    8.4630  -14.0020 C   0  0  0  0  0  0  0  0  0  0  0  0
   -3.5760    6.7050  -14.4390 H   0  0  0  0  0  0  0  0  0  0  0  0
   -1.2350    9.0190  -13.8090 N   0  0  0  0  0  0  0  0  0  0  0  0
   -3.3370    9.4700  -13.8540 N   0  0  0  0  0  0  0  0  0  0  0  0
   -1.3910   10.3200  -13.5500 N   0  0  0  0  0  0  0  0  0  0  0  0
   -2.7010   10.6210  -13.5740 C   0  0  0  0  0  3  0  0  0  0  0  0
    2.9590   12.6310  -12.5980 S   0  0  0  0  0  0  0  0  0  0  0  0
    4.1030   12.8670  -13.5500 O   0  0  0  0  0  0  0  0  0  0  0  0
    3.5850   12.4870  -11.2180 O   0  0  0  0  0  0  0  0  0  0  0  0
    1.9060   14.0420  -12.5140 C   0  0  0  0  0  0  0  0  0  0  0  0
    0.3270   14.1660  -13.1250 S   0  0  0  0  0  0  0  0  0  0  0  0
   -0.0200   15.7710  -12.6770 C   0  0  0  0  0  0  0  0  0  0  0  0
    1.1280   16.1770  -12.0500 C   0  0  0  0  0  3  0  0  0  0  0  0
   -1.6240   16.8070  -12.9620 Br  0  0  0  0  0  0  0  0  0  0  0  0
    2.1320   15.2720  -11.9660 C   0  0  0  0  0  3  0  0  0  0  0  0
  1 18  1  0  0  0  0
  1  6  1  0  0  0  0
  2  1  1  0  0  0  0
  3  2  1  0  0  0  0
  4  3  1  1  0  0  0
  4  5  1  0  0  0  0
  5  6  1  0  0  0  0
  7  8  1  1  0  0  0
  7 14  1  0  0  0  0
  7  4  1  0  0  0  0
  9 11  1  0  0  0  0
  9  8  2  0  0  0  0
 10  9  1  0  0  0  0
 11 12  1  0  0  0  0
 12 15  2  0  0  0  0
 12 14  1  0  0  0  0
 13 11  1  0  0  0  0
 14 16  1  0  0  0  0
 15 17  1  0  0  0  0
 17 16  2  0  0  0  0
 18 21  1  0  0  0  0
 18 20  2  0  0  0  0
 19 18  2  0  0  0  0
 21 26  2  0  0  0  0
 22 23  1  0  0  0  0
 22 21  1  0  0  0  0
 23 24  2  0  0  0  0
 24 26  1  0  0  0  0
 25 23  1  0  0  0  0
M  END
>  <Pose>
1

>  <Score>
-7.746

$$$$
