/Users/jonathanwahrer/Desktop/Msc/3_Semester/Drug_Design_Praktikum/waehrer_HTS_screening/HTS_experiment/out/docking_results/vina_output/6q9y/1101_docked.pdbqt
 OpenBabel03222219523D

 26 29  0  0  0  0  0  0  0  0999 V2000
    2.0820    7.9850  -13.0250 N   0  0  0  0  0  0  0  0  0  0  0  0
    1.8990    8.4990  -14.3290 C   0  0  0  0  0  2  0  0  0  0  0  0
    1.3120    9.8630  -14.4220 C   0  0  0  0  0  2  0  0  0  0  0  0
    1.8840   10.7650  -13.4090 N   0  0  0  0  0  0  0  0  0  0  0  0
    3.0220   10.2250  -12.6960 C   0  0  0  0  0  2  0  0  0  0  0  0
    2.5540    8.9330  -12.0530 C   0  0  0  0  0  2  0  0  0  0  0  0
    0.8320    6.9880  -12.4420 S   0  0  0  0  0  0  0  0  0  0  0  0
    0.5530    7.4030  -11.0030 O   0  0  0  0  0  0  0  0  0  0  0  0
    1.2760    5.5570  -12.3820 O   0  0  0  0  0  0  0  0  0  0  0  0
   -0.6680    7.1780  -13.3090 C   0  0  0  0  0  0  0  0  0  0  0  0
   -1.4410    8.3250  -13.1890 C   0  0  0  0  0  3  0  0  0  0  0  0
   -2.6260    8.4740  -13.8750 C   0  0  0  0  0  3  0  0  0  0  0  0
   -3.0490    7.4470  -14.7030 C   0  0  0  0  0  0  0  0  0  0  0  0
   -2.3150    6.2880  -14.8570 C   0  0  0  0  0  3  0  0  0  0  0  0
   -4.7000    7.6710  -15.6500 Br  0  0  0  0  0  0  0  0  0  0  0  0
   -1.1370    6.1790  -14.1540 C   0  0  0  0  0  3  0  0  0  0  0  0
    1.3330   12.0470  -13.1850 C   0  0  0  0  0  0  0  0  0  0  0  0
    2.0580   12.9630  -12.4330 C   0  0  0  0  0  3  0  0  0  0  0  0
    1.5050   14.2240  -12.2190 C   0  0  0  0  0  0  0  0  0  0  0  0
    0.3200   14.5580  -12.7130 N   0  0  0  0  0  0  0  0  0  0  0  0
    2.0040   15.2680  -11.5340 N   0  0  0  0  0  0  0  0  0  0  0  0
    0.0670   15.8220  -12.3390 C   0  0  0  0  0  0  0  0  0  0  0  0
   -0.3710   13.7080  -13.4210 N   0  0  0  0  0  0  0  0  0  0  0  0
    1.1180   16.2460  -11.6110 N   0  0  0  0  0  0  0  0  0  0  0  0
   -1.1570   16.6230  -12.6670 C   0  0  0  0  0  1  0  0  0  0  0  0
    0.1230   12.4650  -13.6590 C   0  0  0  0  0  3  0  0  0  0  0  0
  1  7  1  0  0  0  0
  1  6  1  0  0  0  0
  2  1  1  0  0  0  0
  3  2  1  0  0  0  0
  3  4  1  0  0  0  0
  4 17  1  0  0  0  0
  4  5  1  0  0  0  0
  5  6  1  0  0  0  0
  7  9  2  0  0  0  0
  7  8  2  0  0  0  0
 10 11  1  0  0  0  0
 10  7  1  0  0  0  0
 12 11  2  0  0  0  0
 13 12  1  0  0  0  0
 14 13  2  0  0  0  0
 14 16  1  0  0  0  0
 15 13  1  0  0  0  0
 16 10  2  0  0  0  0
 17 18  2  0  0  0  0
 18 19  1  0  0  0  0
 19 21  2  0  0  0  0
 20 22  1  0  0  0  0
 20 19  1  0  0  0  0
 22 24  2  0  0  0  0
 23 20  1  0  0  0  0
 24 21  1  0  0  0  0
 25 22  1  0  0  0  0
 26 23  2  0  0  0  0
 26 17  1  0  0  0  0
M  END
>  <Pose>
1

>  <Score>
-8.677

$$$$
