/Users/jonathanwahrer/Desktop/Msc/3_Semester/Drug_Design_Praktikum/waehrer_HTS_screening/HTS_experiment/out/docking_results/vina_output/6q9y/1105_docked.pdbqt
 OpenBabel03222219523D

 33 36  0  0  1  0  0  0  0  0999 V2000
    1.5280    9.8250  -14.3710 N   0  0  0  0  0  0  0  0  0  0  0  0
    2.2240    9.1970  -15.4430 C   0  0  0  0  0  2  0  0  0  0  0  0
    3.6790    9.5880  -15.5690 C   0  0  0  0  0  2  0  0  0  0  0  0
    4.3360    9.5710  -14.2600 N   0  0  0  0  0  0  0  0  0  0  0  0
    3.5690   10.2410  -13.2330 C   0  0  0  0  0  0  0  0  0  0  0  0
    3.9390   10.2920  -12.0570 O   0  0  0  0  0  0  0  0  0  0  0  0
    2.3050   10.8450  -13.7690 C   0  0  2  0  0  3  0  0  0  0  0  0
    5.2380    9.1420  -14.0560 H   0  0  0  0  0  0  0  0  0  0  0  0
    1.6380   11.7380  -12.8000 C   0  0  0  0  0  2  0  0  0  0  0  0
    0.5620   12.4970  -13.4820 C   0  0  0  0  0  0  0  0  0  0  0  0
    0.0560   11.9620  -14.5040 O   0  0  0  0  0  0  0  0  0  0  0  0
    0.1180   13.7690  -13.0090 N   0  0  0  0  0  0  0  0  0  0  0  0
    0.7040   14.3690  -11.8420 C   0  0  0  0  0  2  0  0  0  0  0  0
   -0.9320   14.4490  -13.7210 C   0  0  0  0  0  2  0  0  0  0  0  0
    0.6980   15.8660  -11.8530 C   0  0  0  0  0  2  0  0  0  0  0  0
   -0.4290   16.4460  -12.5620 N   0  0  0  0  0  0  0  0  0  0  0  0
   -0.6300   15.9220  -13.9040 C   0  0  0  0  0  2  0  0  0  0  0  0
   -1.2800   17.4410  -12.0620 C   0  0  0  0  0  0  0  0  0  0  0  0
   -2.4070   17.7890  -12.7740 C   0  0  0  0  0  3  0  0  0  0  0  0
   -3.2390   18.7830  -12.2840 C   0  0  0  0  0  3  0  0  0  0  0  0
   -2.9900   19.4470  -11.1080 C   0  0  0  0  0  3  0  0  0  0  0  0
   -1.8640   19.0960  -10.4000 C   0  0  0  0  0  3  0  0  0  0  0  0
   -1.0260   18.1020  -10.8850 C   0  0  0  0  0  3  0  0  0  0  0  0
    0.8950    8.6490  -13.3190 S   0  0  0  0  0  0  0  0  0  0  0  0
    0.9630    9.0190  -11.8720 O   0  0  0  0  0  0  0  0  0  0  0  0
    1.6600    7.3380  -13.4560 O   0  0  0  0  0  0  0  0  0  0  0  0
   -0.7720    8.2630  -13.7070 C   0  0  0  0  0  0  0  0  0  0  0  0
   -1.1640    7.0040  -14.1430 C   0  0  0  0  0  3  0  0  0  0  0  0
   -2.4550    6.6820  -14.4540 C   0  0  0  0  0  3  0  0  0  0  0  0
   -3.4450    7.6230  -14.3410 C   0  0  0  0  0  0  0  0  0  0  0  0
   -3.0880    8.9040  -13.9030 C   0  0  0  0  0  3  0  0  0  0  0  0
   -5.2600    7.2350  -14.7570 Br  0  0  0  0  0  0  0  0  0  0  0  0
   -1.7790    9.1940  -13.6000 C   0  0  0  0  0  3  0  0  0  0  0  0
  1  7  1  0  0  0  0
  1 24  1  0  0  0  0
  2  1  1  0  0  0  0
  3  2  1  0  0  0  0
  3  4  1  0  0  0  0
  4  8  1  0  0  0  0
  4  5  1  0  0  0  0
  5  6  2  0  0  0  0
  7  5  1  0  0  0  0
  7  9  1  1  0  0  0
 10 12  1  0  0  0  0
 10  9  1  0  0  0  0
 11 10  2  0  0  0  0
 12 13  1  0  0  0  0
 14 12  1  0  0  0  0
 15 13  1  0  0  0  0
 16 18  1  0  0  0  0
 16 15  1  0  0  0  0
 17 14  1  0  0  0  0
 17 16  1  0  0  0  0
 18 23  1  0  0  0  0
 19 20  1  0  0  0  0
 19 18  2  0  0  0  0
 20 21  2  0  0  0  0
 21 22  1  0  0  0  0
 23 22  2  0  0  0  0
 24 25  2  0  0  0  0
 26 24  2  0  0  0  0
 27 33  1  0  0  0  0
 27 24  1  0  0  0  0
 28 27  2  0  0  0  0
 29 30  2  0  0  0  0
 29 28  1  0  0  0  0
 30 31  1  0  0  0  0
 31 33  2  0  0  0  0
 32 30  1  0  0  0  0
M  END
>  <Pose>
1

>  <Score>
-8.577

$$$$
