/Users/jonathanwahrer/Desktop/Msc/3_Semester/Drug_Design_Praktikum/waehrer_HTS_screening/HTS_experiment/out/docking_results/vina_output/6q9y/1112_docked.pdbqt
 OpenBabel03222219523D

 32 35  0  0  0  0  0  0  0  0999 V2000
    1.3070   14.7490  -12.2510 C   0  0  0  0  0  2  0  0  0  0  0  0
    1.7110   13.3780  -12.6470 C   0  0  0  0  0  0  0  0  0  0  0  0
    2.9750   12.8800  -12.5440 C   0  0  0  0  0  3  0  0  0  0  0  0
    3.2760   11.5800  -12.9410 C   0  0  0  0  0  3  0  0  0  0  0  0
    2.3200   10.7500  -13.4510 C   0  0  0  0  0  0  0  0  0  0  0  0
    1.0360   11.2510  -13.5560 C   0  0  0  0  0  3  0  0  0  0  0  0
    0.7350   12.5420  -13.1620 C   0  0  0  0  0  3  0  0  0  0  0  0
    2.6640    9.1050  -13.9630 S   0  0  0  0  0  0  0  0  0  0  0  0
    1.7760    8.6840  -15.0840 O   0  0  0  0  0  0  0  0  0  0  0  0
    4.0830    9.1140  -14.4940 O   0  0  0  0  0  0  0  0  0  0  0  0
    2.6110    7.9960  -12.6650 N   0  0  0  0  0  0  0  0  0  0  0  0
    2.7340    6.6240  -13.0840 C   0  0  0  0  0  2  0  0  0  0  0  0
    2.1950    5.7670  -11.9350 C   0  0  0  0  0  2  0  0  0  0  0  0
    0.8200    5.8350  -11.8850 O   0  0  0  0  0  0  0  0  0  0  0  0
    0.4020    7.0460  -12.4660 C   0  0  0  0  0  2  0  0  0  0  0  0
    1.3490    8.1230  -11.9590 C   0  0  0  0  0  2  0  0  0  0  0  0
    0.6070   15.4160  -13.2770 O   0  0  0  0  0  0  0  0  0  0  0  0
   -0.7480   15.6400  -13.2910 C   0  0  0  0  0  0  0  0  0  0  0  0
   -1.5110   14.7930  -12.7850 O   0  0  0  0  0  0  0  0  0  0  0  0
   -1.3040   16.8510  -13.8880 C   0  0  0  0  0  2  0  0  0  0  0  0
   -1.9460   17.7180  -12.9440 N   0  0  0  0  0  0  0  0  0  0  0  0
   -3.2660   18.2430  -13.1360 C   0  0  0  0  0  0  0  0  0  0  0  0
   -4.0140   18.0170  -14.1290 O   0  0  0  0  0  0  0  0  0  0  0  0
   -3.6150   19.0830  -11.9960 C   0  0  0  0  0  0  0  0  0  0  0  0
   -2.5620   19.0920  -11.1190 C   0  0  0  0  0  0  0  0  0  0  0  0
   -4.7310   19.8170  -11.6670 C   0  0  0  0  0  3  0  0  0  0  0  0
   -2.6310   19.8180   -9.9460 C   0  0  0  0  0  3  0  0  0  0  0  0
   -1.5090   18.2400  -11.7010 C   0  0  0  0  0  0  0  0  0  0  0  0
   -3.7600   20.5500   -9.6290 C   0  0  0  0  0  3  0  0  0  0  0  0
   -4.8280   20.5500  -10.5020 C   0  0  0  0  0  0  0  0  0  0  0  0
   -6.4060   21.5440  -10.1090 Br  0  0  0  0  0  0  0  0  0  0  0  0
   -0.3900   17.9960  -11.1980 O   0  0  0  0  0  0  0  0  0  0  0  0
  2  3  1  0  0  0  0
  2  1  1  0  0  0  0
  4  3  2  0  0  0  0
  5  4  1  0  0  0  0
  6  5  2  0  0  0  0
  6  7  1  0  0  0  0
  7  2  2  0  0  0  0
  8  5  1  0  0  0  0
  8 11  1  0  0  0  0
  9  8  2  0  0  0  0
 10  8  2  0  0  0  0
 11 16  1  0  0  0  0
 12 11  1  0  0  0  0
 12 13  1  0  0  0  0
 13 14  1  0  0  0  0
 15 16  1  0  0  0  0
 15 14  1  0  0  0  0
 17  1  1  0  0  0  0
 18 17  1  0  0  0  0
 18 19  2  0  0  0  0
 20 18  1  0  0  0  0
 20 21  1  0  0  0  0
 21 28  1  0  0  0  0
 22 21  1  0  0  0  0
 22 24  1  0  0  0  0
 23 22  2  0  0  0  0
 24 26  2  0  0  0  0
 24 25  1  0  0  0  0
 25 27  2  0  0  0  0
 26 30  1  0  0  0  0
 27 29  1  0  0  0  0
 28 32  2  0  0  0  0
 28 25  1  0  0  0  0
 30 31  1  0  0  0  0
 30 29  2  0  0  0  0
M  END
>  <Pose>
1

>  <Score>
-10.580

$$$$
