/Users/jonathanwahrer/Desktop/Msc/3_Semester/Drug_Design_Praktikum/waehrer_HTS_screening/HTS_experiment/out/docking_results/vina_output/6q9y/1113_docked.pdbqt
 OpenBabel03222219533D

 28 31  0  0  0  0  0  0  0  0999 V2000
    3.2430   10.8760  -13.6640 C   0  0  0  0  0  0  0  0  0  0  0  0
    4.2170   11.7760  -13.8780 N   0  0  0  0  0  0  0  0  0  0  0  0
    3.9300   12.9060  -13.1830 C   0  0  0  0  0  3  0  0  0  0  0  0
    2.7740   12.7370  -12.5190 N   0  0  0  0  0  0  0  0  0  0  0  0
    2.3470   11.5140  -12.8000 C   0  0  0  0  0  3  0  0  0  0  0  0
    2.1540   13.7320  -11.6690 C   0  0  0  0  0  2  0  0  0  0  0  0
    0.9360   14.3020  -12.2930 C   0  0  0  0  0  0  0  0  0  0  0  0
   -0.2840   13.7030  -12.3150 N   0  0  0  0  0  0  0  0  0  0  0  0
   -1.1070   14.4880  -12.9410 O   0  0  0  0  0  0  0  0  0  0  0  0
   -0.5110   15.5820  -13.3430 C   0  0  0  0  0  0  0  0  0  0  0  0
    0.7770   15.4620  -12.9330 N   0  0  0  0  0  0  0  0  0  0  0  0
   -1.0950   16.7350  -14.0940 C   0  0  0  0  0  2  0  0  0  0  0  0
   -1.8460   17.5560  -13.1050 C   0  0  0  0  0  0  0  0  0  0  0  0
   -3.0500   18.1220  -13.4970 C   0  0  0  0  0  3  0  0  0  0  0  0
   -3.8070   18.8910  -12.6540 C   0  0  0  0  0  3  0  0  0  0  0  0
   -3.3490   19.1010  -11.3820 C   0  0  0  0  0  0  0  0  0  0  0  0
   -2.1750   18.5680  -10.9490 C   0  0  0  0  0  3  0  0  0  0  0  0
   -4.3770   20.1670  -10.1790 Br  0  0  0  0  0  0  0  0  0  0  0  0
   -1.4250   17.7900  -11.8270 C   0  0  0  0  0  3  0  0  0  0  0  0
    3.1120    9.2580  -14.3140 S   0  0  0  0  0  0  0  0  0  0  0  0
    2.9110    9.3780  -15.8190 O   0  0  0  0  0  0  0  0  0  0  0  0
    4.4370    8.5400  -14.1500 O   0  0  0  0  0  0  0  0  0  0  0  0
    1.8480    8.3560  -13.6830 N   0  0  0  0  0  0  0  0  0  0  0  0
    2.1110    7.4950  -12.6070 C   0  0  0  0  0  2  0  0  0  0  0  0
    1.0540    7.6150  -11.5490 C   0  0  0  0  0  2  0  0  0  0  0  0
   -0.1660    7.3460  -12.1440 O   0  0  0  0  0  0  0  0  0  0  0  0
   -0.5370    8.3170  -13.0650 C   0  0  0  0  0  2  0  0  0  0  0  0
    0.5330    8.6960  -14.0150 C   0  0  0  0  0  2  0  0  0  0  0  0
  1  5  2  0  0  0  0
  2  1  1  0  0  0  0
  2  3  2  0  0  0  0
  3  4  1  0  0  0  0
  4  6  1  0  0  0  0
  5  4  1  0  0  0  0
  7  6  1  0  0  0  0
  8  7  2  0  0  0  0
  9  8  1  0  0  0  0
 10  9  1  0  0  0  0
 10 11  2  0  0  0  0
 11  7  1  0  0  0  0
 12 10  1  0  0  0  0
 12 13  1  0  0  0  0
 13 19  1  0  0  0  0
 14 13  2  0  0  0  0
 14 15  1  0  0  0  0
 15 16  2  0  0  0  0
 16 17  1  0  0  0  0
 16 18  1  0  0  0  0
 19 17  2  0  0  0  0
 20 22  2  0  0  0  0
 20 23  1  0  0  0  0
 20  1  1  0  0  0  0
 21 20  2  0  0  0  0
 23 24  1  0  0  0  0
 24 25  1  0  0  0  0
 26 25  1  0  0  0  0
 27 26  1  0  0  0  0
 28 23  1  0  0  0  0
 28 27  1  0  0  0  0
M  END
>  <Pose>
1

>  <Score>
-9.766

$$$$
