/Users/jonathanwahrer/Desktop/Msc/3_Semester/Drug_Design_Praktikum/waehrer_HTS_screening/HTS_experiment/out/docking_results/vina_output/6q9y/1130_docked.pdbqt
 OpenBabel03222219533D

 29 32  0  0  0  0  0  0  0  0999 V2000
    0.9890   14.3680  -12.4830 C   0  0  0  0  0  0  0  0  0  0  0  0
    2.3090   14.1180  -12.4410 N   0  0  0  0  0  0  0  0  0  0  0  0
    2.8450   12.9420  -12.7250 N   0  0  0  0  0  2  0  0  0  0  0  0
    2.0710   11.8950  -13.0820 C   0  0  0  0  0  0  0  0  0  0  0  0
    0.7110   12.1270  -13.1320 C   0  0  0  0  0  0  0  0  0  0  0  0
    0.1560   10.9570  -13.5060 N   0  0  0  0  0  0  0  0  0  0  0  0
    1.0930   10.0130  -13.6910 C   0  0  0  0  0  0  0  0  0  0  0  0
    2.3230   10.5780  -13.4280 C   0  0  0  0  0  0  0  0  0  0  0  0
    3.5100    9.8690  -13.5270 C   0  0  0  0  0  3  0  0  0  0  0  0
    3.4160    8.5420  -13.9070 C   0  0  0  0  0  0  0  0  0  0  0  0
    2.1980    7.9510  -14.1740 C   0  0  0  0  0  3  0  0  0  0  0  0
    1.0340    8.6730  -14.0700 C   0  0  0  0  0  3  0  0  0  0  0  0
    5.0540    7.5630  -14.0430 Br  0  0  0  0  0  0  0  0  0  0  0  0
   -1.2720   10.7790  -13.6760 C   0  0  0  0  0  1  0  0  0  0  0  0
    0.1830   13.3510  -12.8340 N   0  0  0  0  0  2  0  0  0  0  0  0
    0.3320   16.0010  -12.0830 S   0  0  0  0  0  0  0  0  0  0  0  0
   -1.1120   16.2990  -13.1360 C   0  0  0  0  0  2  0  0  0  0  0  0
   -1.7800   17.5510  -12.6770 C   0  0  0  0  0  0  0  0  0  0  0  0
   -2.0510   18.4850  -13.4980 O   0  0  0  0  0  0  0  0  0  0  0  0
   -2.1340   17.7470  -11.3260 N   0  0  0  0  0  0  0  0  0  0  0  0
   -1.9180   16.9910  -10.6420 H   0  0  0  0  0  0  0  0  0  0  0  0
   -2.7690   18.9360  -10.8920 C   0  0  0  0  0  0  0  0  0  0  0  0
   -2.3430   19.8140   -9.9700 N   0  0  0  0  0  0  0  0  0  0  0  0
   -3.2000   20.7890   -9.8390 O   0  0  0  0  0  0  0  0  0  0  0  0
   -4.1730   20.5650  -10.6560 N   0  0  0  0  0  0  0  0  0  0  0  0
   -3.9850   19.4340  -11.3480 C   0  0  0  0  0  0  0  0  0  0  0  0
   -4.8510   18.8910  -12.3220 N   0  0  0  0  0  0  0  0  0  0  0  0
   -4.5580   18.8870  -13.3170 H   0  0  0  0  0  0  0  0  0  0  0  0
   -5.7810   18.4890  -12.0850 H   0  0  0  0  0  0  0  0  0  0  0  0
  1  2  2  0  0  0  0
  1 16  1  0  0  0  0
  3  2  1  0  0  0  0
  4  3  1  0  0  0  0
  5  4  2  0  0  0  0
  5 15  1  0  0  0  0
  6  5  1  0  0  0  0
  7  6  1  0  0  0  0
  7  8  1  0  0  0  0
  8  4  1  0  0  0  0
  9  8  2  0  0  0  0
 10  9  1  0  0  0  0
 11 12  1  0  0  0  0
 11 10  2  0  0  0  0
 12  7  2  0  0  0  0
 13 10  1  0  0  0  0
 14  6  1  0  0  0  0
 15  1  1  0  0  0  0
 17 18  1  0  0  0  0
 17 16  1  0  0  0  0
 18 20  1  0  0  0  0
 19 18  2  0  0  0  0
 20 22  1  0  0  0  0
 20 21  1  0  0  0  0
 22 23  2  0  0  0  0
 23 24  1  0  0  0  0
 25 24  1  0  0  0  0
 26 22  1  0  0  0  0
 26 25  2  0  0  0  0
 27 29  1  0  0  0  0
 27 26  1  0  0  0  0
 28 27  1  0  0  0  0
M  END
>  <Pose>
1

>  <Score>
-9.036

$$$$
