/Users/jonathanwahrer/Desktop/Msc/3_Semester/Drug_Design_Praktikum/waehrer_HTS_screening/HTS_experiment/out/docking_results/vina_output/6q9y/1133_docked.pdbqt
 OpenBabel03222219543D

 35 38  0  0  1  0  0  0  0  0999 V2000
    3.6270    8.0110  -13.8420 C   0  0  0  0  0  0  0  0  0  0  0  0
    2.9760    6.9490  -13.3670 N   0  0  0  0  0  0  0  0  0  0  0  0
    3.8980    5.9620  -13.2130 C   0  0  0  0  0  0  0  0  0  0  0  0
    3.9120    4.6670  -12.8610 N   0  0  0  0  0  0  0  0  0  0  0  0
    4.9840    3.8680  -12.8540 C   0  0  0  0  0  0  0  0  0  0  0  0
    6.2010    4.4170  -13.2340 N   0  0  0  0  0  0  0  0  0  0  0  0
    6.2840    5.6730  -13.5960 C   0  0  0  0  0  0  0  0  0  0  0  0
    5.1640    6.4790  -13.6040 C   0  0  0  0  0  0  0  0  0  0  0  0
    4.9300    7.7300  -13.9800 N   0  0  0  0  0  0  0  0  0  0  0  0
    1.6050    6.7780  -13.0110 C   0  0  2  0  0  3  0  0  0  0  0  0
    0.7310    6.6800  -14.1160 O   0  0  0  0  0  0  0  0  0  0  0  0
   -0.5030    6.7090  -13.4270 C   0  0  1  0  0  3  0  0  0  0  0  0
   -0.3210    8.0850  -12.7350 C   0  0  2  0  0  3  0  0  0  0  0  0
    1.0270    7.7840  -12.0670 C   0  0  1  0  0  3  0  0  0  0  0  0
   -1.6640    6.6900  -14.3460 C   0  0  0  0  0  2  0  0  0  0  0  0
   -2.3680    7.8990  -14.2800 O   0  0  0  0  0  0  0  0  0  0  0  0
   -2.3920    8.2770  -15.2120 H   0  0  0  0  0  0  0  0  0  0  0  0
   -1.3160    8.3560  -11.8360 O   0  0  0  0  0  0  0  0  0  0  0  0
   -2.1480    8.5970  -12.3110 H   0  0  0  0  0  0  0  0  0  0  0  0
    0.7320    7.1990  -10.8090 O   0  0  0  0  0  0  0  0  0  0  0  0
    1.3450    6.4330  -10.7510 H   0  0  0  0  0  0  0  0  0  0  0  0
    2.8850    9.5740  -14.3310 S   0  0  0  0  0  0  0  0  0  0  0  0
    2.9850   10.7930  -12.9480 C   0  0  0  0  0  2  0  0  0  0  0  0
    1.8610   11.7520  -13.0520 C   0  0  0  0  0  0  0  0  0  0  0  0
    1.7840   12.9330  -12.3550 C   0  0  0  0  0  0  0  0  0  0  0  0
    0.6810   13.7140  -12.3740 C   0  0  0  0  0  3  0  0  0  0  0  0
    3.3860   13.4770  -11.4610 Br  0  0  0  0  0  0  0  0  0  0  0  0
   -0.4430   13.3650  -13.1140 C   0  0  0  0  0  3  0  0  0  0  0  0
   -0.4000   12.1640  -13.8360 C   0  0  0  0  0  3  0  0  0  0  0  0
    0.7330   11.3740  -13.8040 C   0  0  0  0  0  3  0  0  0  0  0  0
    4.9690    2.4710  -12.5200 N   0  0  0  0  0  0  0  0  0  0  0  0
    4.2160    1.9570  -12.0670 H   0  0  0  0  0  0  0  0  0  0  0  0
    5.8670    1.9140  -12.7380 H   0  0  0  0  0  0  0  0  0  0  0  0
    7.4620    6.2680  -13.9710 O   0  0  0  0  0  0  0  0  0  0  0  0
    7.9080    7.0150  -13.4510 H   0  0  0  0  0  0  0  0  0  0  0  0
  1  2  1  0  0  0  0
  2  3  1  0  0  0  0
  3  4  1  0  0  0  0
  4  5  2  0  0  0  0
  5 31  1  0  0  0  0
  6  5  1  0  0  0  0
  7  6  2  0  0  0  0
  8  7  1  0  0  0  0
  8  3  2  0  0  0  0
  9  1  2  0  0  0  0
  9  8  1  0  0  0  0
 10  2  1  6  0  0  0
 10 14  1  0  0  0  0
 11 12  1  0  0  0  0
 11 10  1  0  0  0  0
 12 15  1  6  0  0  0
 12 13  1  0  0  0  0
 13 14  1  0  0  0  0
 13 18  1  1  0  0  0
 14 20  1  1  0  0  0
 15 16  1  0  0  0  0
 17 16  1  0  0  0  0
 19 18  1  0  0  0  0
 20 21  1  0  0  0  0
 22  1  1  0  0  0  0
 22 23  1  0  0  0  0
 24 23  1  0  0  0  0
 24 25  1  0  0  0  0
 25 27  1  0  0  0  0
 26 25  2  0  0  0  0
 28 26  1  0  0  0  0
 29 30  1  0  0  0  0
 29 28  2  0  0  0  0
 30 24  2  0  0  0  0
 31 32  1  0  0  0  0
 33 31  1  0  0  0  0
 34  7  1  0  0  0  0
 34 35  1  0  0  0  0
M  END
>  <Pose>
1

>  <Score>
-7.531

$$$$
