/Users/jonathanwahrer/Desktop/Msc/3_Semester/Drug_Design_Praktikum/waehrer_HTS_screening/HTS_experiment/out/docking_results/vina_output/6q9y/1151_docked.pdbqt
 OpenBabel03222219543D

 24 27  0  0  1  0  0  0  0  0999 V2000
    4.8530    5.4020  -13.2310 S   0  0  0  0  0  0  0  0  0  0  0  0
    4.9440    4.0940  -13.9610 O   0  0  0  0  0  0  0  0  0  0  0  0
    6.1400    5.7440  -12.5350 O   0  0  0  0  0  0  0  0  0  0  0  0
    4.3840    6.7240  -14.3260 C   0  0  0  0  0  2  0  0  0  0  0  0
    3.7080    7.7640  -13.4560 C   0  0  2  0  0  3  0  0  0  0  0  0
    2.4300    7.2430  -13.0150 N   0  0  0  0  0  0  0  0  0  0  0  0
    2.2810    5.8420  -12.6810 C   0  0  0  0  0  2  0  0  0  0  0  0
    3.5500    5.3380  -11.9920 C   0  0  0  0  0  2  0  0  0  0  0  0
    1.5500    8.3600  -13.0250 C   0  0  0  0  0  0  0  0  0  0  0  0
    0.3970    8.4130  -12.4770 O   0  0  0  0  0  0  0  0  0  0  0  0
    2.1260    9.4470  -13.7390 N   0  0  0  0  0  0  0  0  0  0  0  0
    3.3960    8.9960  -14.1870 C   0  0  0  0  0  0  0  0  0  0  0  0
    4.1370    9.5430  -15.0550 O   0  0  0  0  0  0  0  0  0  0  0  0
    1.5560   10.7640  -13.9800 C   0  0  1  0  0  3  0  0  0  0  0  0
    0.0690   10.7840  -13.6720 C   0  0  0  0  0  2  0  0  0  0  0  0
   -0.4200   12.1820  -14.0570 C   0  0  0  0  0  2  0  0  0  0  0  0
    0.1950   13.0770  -13.1470 O   0  0  0  0  0  0  0  0  0  0  0  0
    1.5050   12.8760  -12.7290 C   0  0  0  0  0  0  0  0  0  0  0  0
    2.2030   11.7650  -13.1110 C   0  0  0  0  0  0  0  0  0  0  0  0
    2.0610   13.8500  -11.9140 C   0  0  0  0  0  0  0  0  0  0  0  0
    3.4920   11.5670  -12.7000 C   0  0  0  0  0  3  0  0  0  0  0  0
    4.0780   12.5100  -11.8910 C   0  0  0  0  0  3  0  0  0  0  0  0
    3.3660   13.6210  -11.5160 C   0  0  0  0  0  3  0  0  0  0  0  0
    1.0850   15.3940  -11.3870 Br  0  0  0  0  0  0  0  0  0  0  0  0
  1  3  2  0  0  0  0
  1  8  1  0  0  0  0
  2  1  2  0  0  0  0
  4  1  1  0  0  0  0
  5  4  1  6  0  0  0
  5  6  1  0  0  0  0
  6  7  1  0  0  0  0
  7  8  1  0  0  0  0
  9  6  1  0  0  0  0
  9 10  2  0  0  0  0
 11  9  1  0  0  0  0
 12 11  1  0  0  0  0
 12  5  1  0  0  0  0
 13 12  2  0  0  0  0
 14 11  1  1  0  0  0
 14 15  1  0  0  0  0
 14 19  1  0  0  0  0
 16 15  1  0  0  0  0
 16 17  1  0  0  0  0
 17 18  1  0  0  0  0
 18 20  1  0  0  0  0
 19 18  2  0  0  0  0
 19 21  1  0  0  0  0
 20 23  2  0  0  0  0
 20 24  1  0  0  0  0
 21 22  2  0  0  0  0
 22 23  1  0  0  0  0
M  END
>  <Pose>
1

>  <Score>
-7.857

$$$$
