/Users/jonathanwahrer/Desktop/Msc/3_Semester/Drug_Design_Praktikum/waehrer_HTS_screening/HTS_experiment/out/docking_results/vina_output/6q9y/1157_docked.pdbqt
 OpenBabel03222219543D

 24 27  0  0  1  0  0  0  0  0999 V2000
    2.4250    8.0190  -13.8240 C   0  0  2  0  0  3  0  0  0  0  0  0
    2.8980    9.0280  -12.8080 C   0  0  0  0  0  2  0  0  0  0  0  0
    2.9000   10.2550  -13.5910 N   0  0  0  0  0  0  0  0  0  0  0  0
    3.5480    9.9110  -14.8340 C   0  0  0  0  0  2  0  0  0  0  0  0
    3.2020    8.4490  -15.0500 C   0  0  0  0  0  2  0  0  0  0  0  0
    1.0120    8.1820  -14.1310 N   0  0  0  0  0  0  0  0  0  0  0  0
    0.0860    7.1270  -13.9720 C   0  0  0  0  0  0  0  0  0  0  0  0
    0.4100    5.9870  -13.5580 O   0  0  0  0  0  0  0  0  0  0  0  0
    0.6540    9.0980  -14.4820 H   0  0  0  0  0  0  0  0  0  0  0  0
   -1.3480    7.3120  -14.2900 C   0  0  0  0  0  0  0  0  0  0  0  0
   -2.4100    6.2910  -15.1500 S   0  0  0  0  0  0  0  0  0  0  0  0
   -3.8290    7.2290  -15.0590 C   0  0  0  0  0  3  0  0  0  0  0  0
   -3.4270    8.3300  -14.3470 C   0  0  0  0  0  0  0  0  0  0  0  0
   -2.1520    8.3700  -13.9540 C   0  0  0  0  0  3  0  0  0  0  0  0
   -4.7170    9.7280  -13.9690 Br  0  0  0  0  0  0  0  0  0  0  0  0
    2.3560   11.5140  -13.1630 C   0  0  0  0  0  0  0  0  0  0  0  0
    3.1450   12.4720  -12.6430 N   0  0  0  0  0  0  0  0  0  0  0  0
    2.6070   13.6390  -12.2500 C   0  0  0  0  0  3  0  0  0  0  0  0
    1.2650   13.8960  -12.3610 C   0  0  0  0  0  3  0  0  0  0  0  0
    0.4620   12.9510  -12.8790 N   0  0  0  0  0  0  0  0  0  0  0  0
    1.0120   11.7840  -13.2680 C   0  0  0  0  0  0  0  0  0  0  0  0
   -0.8730   12.9230  -13.1060 C   0  0  0  0  0  3  0  0  0  0  0  0
   -0.0190   11.0540  -13.7340 N   0  0  0  0  0  0  0  0  0  0  0  0
   -1.1550   11.7240  -13.6430 N   0  0  0  0  0  0  0  0  0  0  0  0
  1  6  1  6  0  0  0
  1  2  1  0  0  0  0
  3 16  1  0  0  0  0
  3  2  1  0  0  0  0
  4  3  1  0  0  0  0
  5  4  1  0  0  0  0
  5  1  1  0  0  0  0
  6  7  1  0  0  0  0
  7  8  2  0  0  0  0
  9  6  1  0  0  0  0
 10  7  1  0  0  0  0
 10 14  2  0  0  0  0
 11 12  1  0  0  0  0
 11 10  1  0  0  0  0
 12 13  2  0  0  0  0
 13 15  1  0  0  0  0
 13 14  1  0  0  0  0
 16 17  2  0  0  0  0
 17 18  1  0  0  0  0
 19 18  2  0  0  0  0
 20 19  1  0  0  0  0
 21 16  1  0  0  0  0
 21 20  1  0  0  0  0
 22 20  1  0  0  0  0
 23 24  1  0  0  0  0
 23 21  2  0  0  0  0
 24 22  2  0  0  0  0
M  END
>  <Pose>
1

>  <Score>
-7.719

$$$$
