/Users/jonathanwahrer/Desktop/Msc/3_Semester/Drug_Design_Praktikum/waehrer_HTS_screening/HTS_experiment/out/docking_results/vina_output/6q9y/1160_docked.pdbqt
 OpenBabel03222219553D

 25 28  0  0  1  0  0  0  0  0999 V2000
    2.0970   13.7850  -11.9950 C   0  0  0  0  0  0  0  0  0  0  0  0
    0.9200   14.1730  -12.5200 N   0  0  0  0  0  0  0  0  0  0  0  0
    0.7340   15.4890  -12.3180 C   0  0  0  0  0  0  0  0  0  0  0  0
    1.8280   15.8970  -11.6550 N   0  0  0  0  0  0  0  0  0  0  0  0
    2.6240   14.8670  -11.4740 O   0  0  0  0  0  0  0  0  0  0  0  0
   -0.4010   16.3210  -12.7200 C   0  0  0  0  0  0  0  0  0  0  0  0
   -1.0100   17.2510  -11.9660 N   0  0  0  0  0  0  0  0  0  0  0  0
   -2.0090   17.8160  -12.6520 N   0  0  0  0  0  0  0  0  0  0  0  0
   -2.0520   17.2450  -13.8770 C   0  0  0  0  0  3  0  0  0  0  0  0
   -1.0550   16.3290  -13.8940 N   0  0  0  0  0  0  0  0  0  0  0  0
   -2.8970   18.8630  -12.1750 C   0  0  0  0  0  2  0  0  0  0  0  0
   -2.8930   18.8470  -10.6970 C   0  0  0  0  0  0  0  0  0  0  0  0
   -3.8620   18.3280  -10.1000 O   0  0  0  0  0  0  0  0  0  0  0  0
   -1.8080   19.4100   -9.9850 N   0  0  0  0  0  0  0  0  0  0  0  0
   -1.3830   18.9270   -9.1460 H   0  0  0  0  0  0  0  0  0  0  0  0
   -1.3580   20.3250  -10.2320 H   0  0  0  0  0  0  0  0  0  0  0  0
    2.6920   12.4020  -11.9990 C   0  0  1  0  0  3  0  0  0  0  0  0
    2.8380   11.8080  -13.4070 C   0  0  1  0  0  3  0  0  0  0  0  0
    4.0170   12.1850  -12.6240 C   0  0  0  0  0  2  0  0  0  0  0  0
    2.4720   10.3360  -13.4580 C   0  0  0  0  0  0  0  0  0  0  0  0
    1.1850    9.9210  -13.4100 C   0  0  0  0  0  3  0  0  0  0  0  0
    0.9720    8.5690  -13.4690 C   0  0  0  0  0  0  0  0  0  0  0  0
    2.5400    7.9250  -13.5880 S   0  0  0  0  0  0  0  0  0  0  0  0
   -0.7280    7.6540  -13.4250 Br  0  0  0  0  0  0  0  0  0  0  0  0
    3.4350    9.3720  -13.5620 C   0  0  0  0  0  3  0  0  0  0  0  0
  1  5  1  0  0  0  0
  2  3  1  0  0  0  0
  2  1  2  0  0  0  0
  3  4  2  0  0  0  0
  4  5  1  0  0  0  0
  6  3  1  0  0  0  0
  6  7  2  0  0  0  0
  8 11  1  0  0  0  0
  8  7  1  0  0  0  0
  9  8  1  0  0  0  0
 10  9  2  0  0  0  0
 10  6  1  0  0  0  0
 11 12  1  0  0  0  0
 12 13  2  0  0  0  0
 12 14  1  0  0  0  0
 14 15  1  0  0  0  0
 16 14  1  0  0  0  0
 17  1  1  6  0  0  0
 18 20  1  1  0  0  0
 18 19  1  0  0  0  0
 18 17  1  0  0  0  0
 19 17  1  0  0  0  0
 20 21  1  0  0  0  0
 22 24  1  0  0  0  0
 22 21  2  0  0  0  0
 23 25  1  0  0  0  0
 23 22  1  0  0  0  0
 25 20  2  0  0  0  0
M  END
>  <Pose>
1

>  <Score>
-8.339

$$$$
