/Users/jonathanwahrer/Desktop/Msc/3_Semester/Drug_Design_Praktikum/waehrer_HTS_screening/HTS_experiment/out/docking_results/vina_output/6q9y/1180_docked.pdbqt
 OpenBabel03222219563D

 32 35  0  0  1  0  0  0  0  0999 V2000
   -0.2520    7.7330  -13.3680 C   0  0  1  0  0  3  0  0  0  0  0  0
   -0.9670    8.8890  -13.9890 C   0  0  1  0  0  3  0  0  0  0  0  0
   -2.3030    8.4360  -13.9360 N   0  0  0  0  0  0  0  0  0  0  0  0
   -2.1820    7.0580  -14.4670 C   0  0  0  0  0  0  0  0  0  0  0  0
   -3.0550    6.4120  -15.1060 O   0  0  0  0  0  0  0  0  0  0  0  0
   -0.8460    6.6090  -14.0920 C   0  0  0  0  0  0  0  0  0  0  0  0
   -0.2600    5.5040  -14.3120 O   0  0  0  0  0  0  0  0  0  0  0  0
    0.6930    7.7330  -12.4510 C   0  0  1  0  0  3  0  0  0  0  0  0
    0.3770    8.0060  -11.1320 O   0  0  0  0  0  1  0  0  0  0  0  0
    2.0600    7.4320  -12.9020 C   0  0  0  0  0  0  0  0  0  0  0  0
    3.1880    8.4660  -13.6950 S   0  0  0  0  0  0  0  0  0  0  0  0
    4.5000    7.3890  -13.8030 C   0  0  0  0  0  0  0  0  0  0  0  0
    4.0210    6.3020  -13.2330 N   0  0  0  0  0  0  0  0  0  0  0  0
    5.8640    7.6140  -14.3980 C   0  0  0  0  0  1  0  0  0  0  0  0
    2.8090    6.2870  -12.7720 C   0  0  0  0  0  0  0  0  0  0  0  0
    2.2520    5.0570  -12.0710 C   0  0  0  0  0  1  0  0  0  0  0  0
   -0.5210   10.1970  -13.6560 C   0  0  0  0  0  0  0  0  0  0  0  0
   -1.4590   11.1530  -13.2570 C   0  0  0  0  0  3  0  0  0  0  0  0
   -1.1160   12.4400  -12.9360 C   0  0  0  0  0  3  0  0  0  0  0  0
    0.2150   12.7940  -13.0130 C   0  0  0  0  0  0  0  0  0  0  0  0
    1.1570   11.8650  -13.4050 C   0  0  0  0  0  3  0  0  0  0  0  0
    0.7800   14.5690  -12.5820 Br  0  0  0  0  0  0  0  0  0  0  0  0
    0.7880   10.5780  -13.7230 C   0  0  0  0  0  3  0  0  0  0  0  0
   -3.6160    8.8930  -13.6290 C   0  0  0  0  0  3  0  0  0  0  0  0
   -4.4920    9.3970  -14.6930 C   0  0  0  0  0  3  0  0  0  0  0  0
   -5.6280   10.1800  -14.4240 N   0  0  0  0  0  4  0  0  0  0  0  0
   -6.8180    9.7920  -15.1510 C   0  0  0  0  0  2  0  0  0  0  0  0
   -7.8780   10.8400  -14.8250 C   0  0  0  0  0  2  0  0  0  0  0  0
   -7.5180   11.5800  -13.6990 O   0  0  0  0  0  0  0  0  0  0  0  0
   -7.2400   10.6290  -12.6960 C   0  0  0  0  0  2  0  0  0  0  0  0
   -5.9890    9.8570  -13.0040 C   0  0  0  0  0  2  0  0  0  0  0  0
   -5.4180   11.1840  -14.4340 H   0  0  0  0  0  0  0  0  0  0  0  0
  1  8  1  6  0  0  0
  2  3  1  0  0  0  0
  2 17  1  1  0  0  0
  2  1  1  0  0  0  0
  3 24  1  0  0  0  0
  4  6  1  0  0  0  0
  4  3  1  0  0  0  0
  5  4  2  0  0  0  0
  6  1  1  0  0  0  0
  7  6  2  0  0  0  0
  8  9  1  1  0  0  0
 10 15  2  0  0  0  0
 10  8  1  0  0  0  0
 11 10  1  0  0  0  0
 12 11  1  0  0  0  0
 12 13  2  0  0  0  0
 13 15  1  0  0  0  0
 14 12  1  0  0  0  0
 15 16  1  0  0  0  0
 17 18  1  0  0  0  0
 18 19  2  0  0  0  0
 20 19  1  0  0  0  0
 20 22  1  0  0  0  0
 21 20  2  0  0  0  0
 23 17  2  0  0  0  0
 23 21  1  0  0  0  0
 25 26  1  0  0  0  0
 25 24  2  0  0  0  0
 26 31  1  0  0  0  0
 27 28  1  0  0  0  0
 27 26  1  0  0  0  0
 28 29  1  0  0  0  0
 29 30  1  0  0  0  0
 31 30  1  0  0  0  0
 32 26  1  0  0  0  0
M  END
>  <Pose>
1

>  <Score>
-8.497

$$$$
