/Users/jonathanwahrer/Desktop/Msc/3_Semester/Drug_Design_Praktikum/waehrer_HTS_screening/HTS_experiment/out/docking_results/vina_output/6q9y/1192_docked.pdbqt
 OpenBabel03222219563D

 27 30  0  0  1  0  0  0  0  0999 V2000
    9.5800    5.4670  -10.9160 S   0  0  0  0  0  0  0  0  0  0  0  0
    9.0360    6.1900  -12.3760 C   0  0  0  0  0  0  0  0  0  0  0  0
    9.3620    5.2470  -13.3130 C   0  0  0  0  0  0  0  0  0  0  0  0
    9.9590    4.1250  -12.8810 C   0  0  0  0  0  0  0  0  0  0  0  0
   10.1940    4.0110  -11.5380 C   0  0  0  0  0  0  0  0  0  0  0  0
   10.8610    2.7480  -11.0760 C   0  0  0  0  0  2  0  0  0  0  0  0
   10.0730    1.6200  -11.5670 N   0  0  0  0  0  4  0  0  0  0  0  0
    9.8510    1.6560  -12.9800 C   0  0  0  0  0  2  0  0  0  0  0  0
   10.4450    2.8970  -13.6370 C   0  0  0  0  0  2  0  0  0  0  0  0
    8.7700    1.7340  -10.9130 C   0  0  0  0  0  1  0  0  0  0  0  0
    8.9990    5.6200  -14.7080 C   0  0  0  0  0  0  0  0  0  0  0  0
    9.2460    4.8360  -15.6720 O   0  0  0  0  0  0  0  0  0  0  0  0
    8.3710    6.8710  -14.9390 N   0  0  0  0  0  0  0  0  0  0  0  0
    7.6560    7.6180  -13.9470 C   0  0  2  0  0  3  0  0  0  0  0  0
    8.3900    7.4440  -12.7040 N   0  0  0  0  0  0  0  0  0  0  0  0
   10.4800    0.7250  -11.2280 H   0  0  0  0  0  0  0  0  0  0  0  0
    8.4460    7.2650  -15.9200 H   0  0  0  0  0  0  0  0  0  0  0  0
    8.4820    8.2060  -12.0010 H   0  0  0  0  0  0  0  0  0  0  0  0
    6.2610    7.1470  -13.7670 C   0  0  0  0  0  0  0  0  0  0  0  0
    5.1810    7.9910  -13.9200 C   0  0  0  0  0  3  0  0  0  0  0  0
    3.8800    7.5710  -13.7580 C   0  0  0  0  0  0  0  0  0  0  0  0
    3.6200    6.2570  -13.4280 C   0  0  0  0  0  0  0  0  0  0  0  0
    2.4040    8.7410  -13.9720 Br  0  0  0  0  0  0  0  0  0  0  0  0
    4.6810    5.3970  -13.2700 C   0  0  0  0  0  0  0  0  0  0  0  0
    2.3110    5.8270  -13.2630 O   0  0  0  0  0  1  0  0  0  0  0  0
    5.9840    5.8260  -13.4350 C   0  0  0  0  0  3  0  0  0  0  0  0
    4.2730    3.5760  -12.8120 Br  0  0  0  0  0  0  0  0  0  0  0  0
  2  1  1  0  0  0  0
  3  4  1  0  0  0  0
  3  2  2  0  0  0  0
  4  5  2  0  0  0  0
  5  6  1  0  0  0  0
  5  1  1  0  0  0  0
  7 16  1  0  0  0  0
  7  6  1  0  0  0  0
  7 10  1  0  0  0  0
  8  7  1  0  0  0  0
  9  8  1  0  0  0  0
  9  4  1  0  0  0  0
 11  3  1  0  0  0  0
 12 11  2  0  0  0  0
 13 11  1  0  0  0  0
 13 14  1  0  0  0  0
 14 19  1  1  0  0  0
 14 15  1  0  0  0  0
 15  2  1  0  0  0  0
 15 18  1  0  0  0  0
 17 13  1  0  0  0  0
 19 26  1  0  0  0  0
 20 19  2  0  0  0  0
 20 21  1  0  0  0  0
 21 22  2  0  0  0  0
 22 24  1  0  0  0  0
 22 25  1  0  0  0  0
 23 21  1  0  0  0  0
 24 27  1  0  0  0  0
 26 24  2  0  0  0  0
M  END
>  <Pose>
1

>  <Score>
-4.388

$$$$
