/Users/jonathanwahrer/Desktop/Msc/3_Semester/Drug_Design_Praktikum/waehrer_HTS_screening/HTS_experiment/out/docking_results/vina_output/6q9y/1193_docked.pdbqt
 OpenBabel03222219563D

 29 32  0  0  1  0  0  0  0  0999 V2000
    4.4000   11.5690  -12.3410 S   0  0  0  0  0  0  0  0  0  0  0  0
    3.7320   10.8250  -13.7240 C   0  0  0  0  0  0  0  0  0  0  0  0
    2.5030   11.4150  -13.8270 C   0  0  0  0  0  0  0  0  0  0  0  0
    2.1840   12.3430  -12.8890 C   0  0  0  0  0  0  0  0  0  0  0  0
    3.1240   12.6020  -11.9230 C   0  0  0  0  0  0  0  0  0  0  0  0
    2.8920   13.5980  -10.8360 C   0  0  0  0  0  2  0  0  0  0  0  0
    2.0680   14.6930  -11.2150 N   0  0  0  0  0  4  0  0  0  0  0  0
    1.3330   14.5470  -12.4260 C   0  0  0  0  0  2  0  0  0  0  0  0
    0.8910   13.1570  -12.7590 C   0  0  0  0  0  2  0  0  0  0  0  0
    1.2120   15.1110  -10.1120 C   0  0  0  0  0  1  0  0  0  0  0  0
    1.7020   10.9310  -14.9930 C   0  0  0  0  0  0  0  0  0  0  0  0
    0.5370   11.4050  -15.1960 O   0  0  0  0  0  0  0  0  0  0  0  0
    2.2410    9.9510  -15.8590 N   0  0  0  0  0  0  0  0  0  0  0  0
    3.2220    9.0010  -15.3810 C   0  0  1  0  0  3  0  0  0  0  0  0
    4.1990    9.8160  -14.6590 N   0  0  0  0  0  0  0  0  0  0  0  0
    2.7220   15.5230  -11.3630 H   0  0  0  0  0  0  0  0  0  0  0  0
    1.9320    9.9090  -16.8550 H   0  0  0  0  0  0  0  0  0  0  0  0
    5.2240    9.7300  -14.7610 H   0  0  0  0  0  0  0  0  0  0  0  0
    2.5280    8.0870  -14.4360 C   0  0  0  0  0  0  0  0  0  0  0  0
    1.1600    8.1430  -14.2790 C   0  0  0  0  0  3  0  0  0  0  0  0
    0.4980    7.3050  -13.4080 C   0  0  0  0  0  0  0  0  0  0  0  0
    1.2230    6.3790  -12.6680 C   0  0  0  0  0  0  0  0  0  0  0  0
   -1.3930    7.3700  -13.1810 Br  0  0  0  0  0  0  0  0  0  0  0  0
    2.5920    6.3010  -12.8050 C   0  0  0  0  0  0  0  0  0  0  0  0
    0.5750    5.5220  -11.7810 O   0  0  0  0  0  1  0  0  0  0  0  0
    3.2160    7.1420  -13.6720 C   0  0  0  0  0  3  0  0  0  0  0  0
    3.2660    5.3630  -12.0460 O   0  0  0  0  0  0  0  0  0  0  0  0
    3.5750    4.0630  -12.4360 C   0  0  0  0  0  2  0  0  0  0  0  0
    4.8850    4.0050  -13.1910 C   0  0  0  0  0  1  0  0  0  0  0  0
  1  5  1  0  0  0  0
  2  1  1  0  0  0  0
  3  2  2  0  0  0  0
  3  4  1  0  0  0  0
  4  9  1  0  0  0  0
  4  5  2  0  0  0  0
  5  6  1  0  0  0  0
  7  6  1  0  0  0  0
  7 10  1  0  0  0  0
  8  7  1  0  0  0  0
  9  8  1  0  0  0  0
 11  3  1  0  0  0  0
 12 11  2  0  0  0  0
 13 14  1  0  0  0  0
 13 11  1  0  0  0  0
 14 15  1  0  0  0  0
 14 19  1  1  0  0  0
 15  2  1  0  0  0  0
 16  7  1  0  0  0  0
 17 13  1  0  0  0  0
 18 15  1  0  0  0  0
 19 20  2  0  0  0  0
 19 26  1  0  0  0  0
 20 21  1  0  0  0  0
 21 23  1  0  0  0  0
 21 22  2  0  0  0  0
 22 25  1  0  0  0  0
 24 22  1  0  0  0  0
 24 27  1  0  0  0  0
 26 24  2  0  0  0  0
 28 27  1  0  0  0  0
 29 28  1  0  0  0  0
M  END
>  <Pose>
1

>  <Score>
-5.602

$$$$
