/Users/jonathanwahrer/Desktop/Msc/3_Semester/Drug_Design_Praktikum/waehrer_HTS_screening/HTS_experiment/out/docking_results/vina_output/6q9y/1209_docked.pdbqt
 OpenBabel03222219563D

 24 27  0  0  1  0  0  0  0  0999 V2000
    2.8930   13.8490  -12.4980 S   0  0  0  0  0  0  0  0  0  0  0  0
    2.7120   15.6060  -12.9130 C   0  0  0  0  0  2  0  0  0  0  0  0
    1.2370   15.8560  -13.1730 C   0  0  0  0  0  2  0  0  0  0  0  0
    0.3980   15.1820  -12.1070 C   0  0  0  0  0  2  0  0  0  0  0  0
    0.2060   13.8060  -12.5350 N   0  0  0  0  0  0  0  0  0  0  0  0
    1.3040   13.0780  -12.7510 C   0  0  1  0  0  3  0  0  0  0  0  0
    0.9250   11.8130  -13.1480 N   0  0  0  0  0  0  0  0  0  0  0  0
   -0.3960   11.7530  -13.1780 C   0  0  0  0  0  0  0  0  0  0  0  0
   -0.8320   13.0180  -12.7890 C   0  0  0  0  0  3  0  0  0  0  0  0
   -1.2950   10.6630  -13.5240 C   0  0  0  0  0  0  0  0  0  0  0  0
   -2.5710   10.9590  -14.0230 C   0  0  0  0  0  3  0  0  0  0  0  0
   -3.4590    9.9770  -14.3650 C   0  0  0  0  0  3  0  0  0  0  0  0
   -3.1720    8.6370  -14.2480 C   0  0  0  0  0  0  0  0  0  0  0  0
   -1.9260    8.3370  -13.7600 C   0  0  0  0  0  3  0  0  0  0  0  0
   -1.0000    9.3270  -13.4030 C   0  0  0  0  0  3  0  0  0  0  0  0
   -4.0990    7.6680  -14.6060 O   0  0  0  0  0  0  0  0  0  0  0  0
   -5.3730    8.0450  -15.0950 C   0  0  0  0  0  1  0  0  0  0  0  0
    1.8810   10.8010  -13.4520 C   0  0  0  0  0  0  0  0  0  0  0  0
    2.1850   10.4850  -14.7650 C   0  0  0  0  0  3  0  0  0  0  0  0
    3.1280    9.5310  -15.0930 C   0  0  0  0  0  3  0  0  0  0  0  0
    3.7790    8.8810  -14.0640 C   0  0  0  0  0  0  0  0  0  0  0  0
    3.4690    9.2020  -12.7590 C   0  0  0  0  0  3  0  0  0  0  0  0
    5.1060    7.5390  -14.4220 Br  0  0  0  0  0  0  0  0  0  0  0  0
    2.5330   10.1500  -12.4090 C   0  0  0  0  0  3  0  0  0  0  0  0
  2  1  1  0  0  0  0
  3  2  1  0  0  0  0
  3  4  1  0  0  0  0
  5  4  1  0  0  0  0
  6  5  1  0  0  0  0
  6  1  1  6  0  0  0
  7  6  1  0  0  0  0
  8  7  1  0  0  0  0
  8  9  2  0  0  0  0
  9  5  1  0  0  0  0
 10 15  1  0  0  0  0
 10  8  1  0  0  0  0
 11 10  2  0  0  0  0
 12 13  2  0  0  0  0
 12 11  1  0  0  0  0
 13 14  1  0  0  0  0
 14 15  2  0  0  0  0
 16 13  1  0  0  0  0
 17 16  1  0  0  0  0
 18  7  1  0  0  0  0
 18 24  1  0  0  0  0
 19 18  2  0  0  0  0
 20 19  1  0  0  0  0
 20 21  2  0  0  0  0
 21 22  1  0  0  0  0
 22 24  2  0  0  0  0
 23 21  1  0  0  0  0
M  END
>  <Pose>
1

>  <Score>
-8.244

$$$$
