/Users/jonathanwahrer/Desktop/Msc/3_Semester/Drug_Design_Praktikum/waehrer_HTS_screening/HTS_experiment/out/docking_results/vina_output/6q9y/1211_docked.pdbqt
 OpenBabel03222219573D

 26 29  0  0  1  0  0  0  0  0999 V2000
    1.4580    7.6370  -11.5510 S   0  0  0  0  0  0  0  0  0  0  0  0
   -0.3720    7.5670  -11.6710 C   0  0  0  0  0  2  0  0  0  0  0  0
   -0.6470    7.4150  -13.1690 C   0  0  0  0  0  2  0  0  0  0  0  0
   -0.2150    8.7090  -13.8520 C   0  0  0  0  0  2  0  0  0  0  0  0
    1.2030    8.6100  -14.0950 N   0  0  1  0  0  0  0  0  0  0  0  0
    2.0100    8.1600  -13.1690 C   0  0  2  0  0  3  0  0  0  0  0  0
    3.3510    8.1680  -13.7260 N   0  0  0  0  0  0  0  0  0  0  0  0
    3.3160    9.3660  -14.5370 C   0  0  2  0  0  0  0  0  0  0  0  0
    2.0030    8.9240  -15.2840 C   0  0  0  0  0  2  0  0  0  0  0  0
    4.3520    9.5330  -15.4000 O   0  0  0  0  0  0  0  0  0  0  0  0
    4.0330   10.0920  -16.1740 H   0  0  0  0  0  0  0  0  0  0  0  0
    2.9910   10.5230  -13.6940 C   0  0  0  0  0  0  0  0  0  0  0  0
    1.9070   11.3500  -13.9320 C   0  0  0  0  0  3  0  0  0  0  0  0
    1.6810   12.4580  -13.1000 C   0  0  0  0  0  3  0  0  0  0  0  0
    2.4840   12.7580  -12.0660 C   0  0  0  0  0  0  0  0  0  0  0  0
    3.5970   11.9350  -11.7930 C   0  0  0  0  0  3  0  0  0  0  0  0
    3.7850   10.8530  -12.6360 C   0  0  0  0  0  3  0  0  0  0  0  0
    2.2920   13.8690  -11.2040 O   0  0  0  0  0  0  0  0  0  0  0  0
    1.9740   15.1380  -11.7360 C   0  0  0  0  0  1  0  0  0  0  0  0
    4.3500    7.1890  -13.5500 C   0  0  0  0  0  0  0  0  0  0  0  0
    5.6980    7.5870  -13.7200 C   0  0  0  0  0  3  0  0  0  0  0  0
    6.7430    6.6850  -13.6200 C   0  0  0  0  0  3  0  0  0  0  0  0
    6.5120    5.3630  -13.3530 C   0  0  0  0  0  0  0  0  0  0  0  0
    5.2090    4.9440  -13.1830 C   0  0  0  0  0  3  0  0  0  0  0  0
    7.9190    4.0780  -13.2260 Br  0  0  0  0  0  0  0  0  0  0  0  0
    4.1510    5.8690  -13.2840 C   0  0  0  0  0  3  0  0  0  0  0  0
  2  1  1  0  0  0  0
  3  2  1  0  0  0  0
  4  3  1  0  0  0  0
  5  9  1  6  0  0  0
  5  4  1  0  0  0  0
  5  6  1  0  0  0  0
  6  1  1  6  0  0  0
  7 20  1  0  0  0  0
  7  6  1  0  0  0  0
  8 10  1  6  0  0  0
  8  7  1  0  0  0  0
  8 12  1  0  0  0  0
  9  8  1  0  0  0  0
 11 10  1  0  0  0  0
 12 17  1  0  0  0  0
 13 12  2  0  0  0  0
 13 14  1  0  0  0  0
 14 15  2  0  0  0  0
 15 16  1  0  0  0  0
 15 18  1  0  0  0  0
 17 16  2  0  0  0  0
 19 18  1  0  0  0  0
 20 26  1  0  0  0  0
 21 22  1  0  0  0  0
 21 20  2  0  0  0  0
 22 23  2  0  0  0  0
 23 25  1  0  0  0  0
 23 24  1  0  0  0  0
 26 24  2  0  0  0  0
M  END
>  <Pose>
1

>  <Score>
-8.197

$$$$
