/Users/jonathanwahrer/Desktop/Msc/3_Semester/Drug_Design_Praktikum/waehrer_HTS_screening/HTS_experiment/out/docking_results/vina_output/6q9y/1217_docked.pdbqt
 OpenBabel03222219573D

 28 31  0  0  1  0  0  0  0  0999 V2000
    0.7410    6.3100  -12.1880 S   0  0  0  0  0  0  0  0  0  0  0  0
    2.1240    5.3190  -11.6810 C   0  0  0  0  0  2  0  0  0  0  0  0
    3.4140    6.0610  -11.9710 C   0  0  0  0  0  2  0  0  0  0  0  0
    3.5150    6.3280  -13.4620 C   0  0  0  0  0  2  0  0  0  0  0  0
    2.6160    7.3980  -13.8330 N   0  0  2  0  0  0  0  0  0  0  0  0
    2.8370    8.6410  -14.4980 C   0  0  2  0  0  0  0  0  0  0  0  0
    1.5220    8.7620  -15.2530 C   0  0  0  0  0  2  0  0  0  0  0  0
    0.5630    8.2000  -14.3280 N   0  0  0  0  0  0  0  0  0  0  0  0
    1.2030    7.3880  -13.5620 C   0  0  2  0  0  3  0  0  0  0  0  0
   -0.8210    8.5000  -14.2320 C   0  0  0  0  0  0  0  0  0  0  0  0
   -1.1630    9.7590  -13.7560 C   0  0  0  0  0  0  0  0  0  0  0  0
   -2.5070   10.1200  -13.6080 C   0  0  0  0  0  3  0  0  0  0  0  0
   -3.4990    9.2130  -13.9370 C   0  0  0  0  0  3  0  0  0  0  0  0
   -3.1970    7.9590  -14.4120 C   0  0  0  0  0  0  0  0  0  0  0  0
   -1.8260    7.6590  -14.5380 C   0  0  0  0  0  3  0  0  0  0  0  0
   -0.1720   10.6580  -13.4260 O   0  0  0  0  0  0  0  0  0  0  0  0
   -0.2670   12.0570  -13.5590 C   0  0  0  0  0  1  0  0  0  0  0  0
   -4.1420    7.0090  -14.7590 O   0  0  0  0  0  0  0  0  0  0  0  0
   -5.5280    7.1990  -14.7840 C   0  0  0  0  0  1  0  0  0  0  0  0
    3.9090    8.5340  -15.3780 O   0  0  0  0  0  0  0  0  0  0  0  0
    3.6010    8.6460  -16.3060 H   0  0  0  0  0  0  0  0  0  0  0  0
    2.9560    9.8220  -13.6220 C   0  0  0  0  0  0  0  0  0  0  0  0
    2.6470    9.8800  -12.3000 C   0  0  0  0  0  3  0  0  0  0  0  0
    2.7650   11.0660  -11.5730 C   0  0  0  0  0  3  0  0  0  0  0  0
    3.1990   12.2310  -12.1710 C   0  0  0  0  0  0  0  0  0  0  0  0
    3.5120   12.1840  -13.4950 C   0  0  0  0  0  3  0  0  0  0  0  0
    3.3500   13.8540  -11.1610 Br  0  0  0  0  0  0  0  0  0  0  0  0
    3.3970   11.0230  -14.2060 C   0  0  0  0  0  3  0  0  0  0  0  0
  1  2  1  0  0  0  0
  3  2  1  0  0  0  0
  4  3  1  0  0  0  0
  5  9  1  0  0  0  0
  5  4  1  1  0  0  0
  6 20  1  6  0  0  0
  6  5  1  0  0  0  0
  6 22  1  0  0  0  0
  7  6  1  0  0  0  0
  7  8  1  0  0  0  0
  8 10  1  0  0  0  0
  8  9  1  0  0  0  0
  9  1  1  1  0  0  0
 10 11  1  0  0  0  0
 11 12  2  0  0  0  0
 11 16  1  0  0  0  0
 13 12  1  0  0  0  0
 14 13  2  0  0  0  0
 15 14  1  0  0  0  0
 15 10  2  0  0  0  0
 17 16  1  0  0  0  0
 18 14  1  0  0  0  0
 19 18  1  0  0  0  0
 21 20  1  0  0  0  0
 22 23  1  0  0  0  0
 23 24  2  0  0  0  0
 25 24  1  0  0  0  0
 25 27  1  0  0  0  0
 26 25  2  0  0  0  0
 28 22  2  0  0  0  0
 28 26  1  0  0  0  0
M  END
>  <Pose>
1

>  <Score>
-5.840

$$$$
