/Users/jonathanwahrer/Desktop/Msc/3_Semester/Drug_Design_Praktikum/waehrer_HTS_screening/HTS_experiment/out/docking_results/vina_output/6q9y/1220_docked.pdbqt
 OpenBabel03222219573D

 27 30  0  0  1  0  0  0  0  0999 V2000
    0.1390    8.7280  -12.8840 S   0  0  0  0  0  0  0  0  0  0  0  0
    0.0080    7.3390  -11.6870 C   0  0  0  0  0  2  0  0  0  0  0  0
    1.1070    6.3670  -11.7930 C   0  0  0  0  0  2  0  0  0  0  0  0
    2.0260    6.4300  -12.9440 C   0  0  0  0  0  2  0  0  0  0  0  0
    2.5910    7.6720  -13.2810 N   0  0  1  0  0  0  0  0  0  0  0  0
    3.8150    8.0770  -13.9020 C   0  0  2  0  0  0  0  0  0  0  0  0
    4.0780    9.3800  -13.1800 C   0  0  0  0  0  2  0  0  0  0  0  0
    2.7350    9.8840  -12.9850 N   0  0  0  0  0  0  0  0  0  0  0  0
    1.9230    8.9360  -13.0320 C   0  0  1  0  0  3  0  0  0  0  0  0
    3.5660    8.4090  -15.2360 O   0  0  0  0  0  0  0  0  0  0  0  0
    3.2550    7.6180  -15.7060 H   0  0  0  0  0  0  0  0  0  0  0  0
    4.9500    7.1420  -13.7770 C   0  0  0  0  0  0  0  0  0  0  0  0
    6.2190    7.6420  -14.0510 C   0  0  0  0  0  3  0  0  0  0  0  0
    7.3410    6.8490  -13.9590 C   0  0  0  0  0  3  0  0  0  0  0  0
    7.2630    5.5180  -13.5910 C   0  0  0  0  0  0  0  0  0  0  0  0
    6.0050    5.0160  -13.3150 C   0  0  0  0  0  3  0  0  0  0  0  0
    4.8670    5.8250  -13.4100 C   0  0  0  0  0  3  0  0  0  0  0  0
    8.4310    4.7240  -13.5010 N   0  0  0  0  0  0  0  0  0  0  0  0
    8.6600    3.9480  -12.5660 O   0  0  0  0  0  0  0  0  0  0  0  0
    9.3660    4.8040  -14.5010 O   0  0  0  0  0  0  0  0  0  0  0  0
    2.3970   11.2620  -12.7860 C   0  0  0  0  0  0  0  0  0  0  0  0
    3.3120   12.0810  -12.1400 C   0  0  0  0  0  3  0  0  0  0  0  0
    3.0430   13.4260  -11.8940 C   0  0  0  0  0  3  0  0  0  0  0  0
    1.8470   13.9850  -12.2860 C   0  0  0  0  0  0  0  0  0  0  0  0
    0.9310   13.1860  -12.9270 C   0  0  0  0  0  3  0  0  0  0  0  0
    1.4750   15.8380  -11.9270 Br  0  0  0  0  0  0  0  0  0  0  0  0
    1.2290   11.8370  -13.1600 C   0  0  0  0  0  3  0  0  0  0  0  0
  1  2  1  0  0  0  0
  3  2  1  0  0  0  0
  4  3  1  0  0  0  0
  5  9  1  0  0  0  0
  5  4  1  6  0  0  0
  6 10  1  6  0  0  0
  6 12  1  0  0  0  0
  6  5  1  0  0  0  0
  6  7  1  0  0  0  0
  7  8  1  0  0  0  0
  8 21  1  0  0  0  0
  9  8  1  0  0  0  0
  9  1  1  6  0  0  0
 11 10  1  0  0  0  0
 12 17  1  0  0  0  0
 13 14  1  0  0  0  0
 13 12  2  0  0  0  0
 14 15  2  0  0  0  0
 15 18  1  0  0  0  0
 15 16  1  0  0  0  0
 17 16  2  0  0  0  0
 18 19  2  0  0  0  0
 20 18  2  0  0  0  0
 21 22  1  0  0  0  0
 22 23  2  0  0  0  0
 24 26  1  0  0  0  0
 24 23  1  0  0  0  0
 25 24  2  0  0  0  0
 27 25  1  0  0  0  0
 27 21  2  0  0  0  0
M  END
>  <Pose>
1

>  <Score>
-8.775

$$$$
