/Users/jonathanwahrer/Desktop/Msc/3_Semester/Drug_Design_Praktikum/waehrer_HTS_screening/HTS_experiment/out/docking_results/vina_output/6q9y/1224_docked.pdbqt
 OpenBabel03222219573D

 26 29  0  0  1  0  0  0  0  0999 V2000
    2.0420    6.5210  -11.9700 S   0  0  0  0  0  0  0  0  0  0  0  0
    0.3830    5.8820  -12.4400 C   0  0  0  0  0  2  0  0  0  0  0  0
   -0.3300    7.0590  -13.0900 C   0  0  0  0  0  2  0  0  0  0  0  0
    0.2650    7.4120  -14.4160 C   0  0  0  0  0  2  0  0  0  0  0  0
    1.6190    7.8730  -14.3650 N   0  0  2  0  0  0  0  0  0  0  0  0
    2.3950    8.9240  -15.0290 C   0  0  1  0  0  0  0  0  0  0  0  0
    3.6710    8.0940  -15.2590 C   0  0  0  0  0  2  0  0  0  0  0  0
    3.7960    7.4020  -13.9890 N   0  0  0  0  0  0  0  0  0  0  0  0
    2.6270    7.2770  -13.5040 C   0  0  1  0  0  3  0  0  0  0  0  0
    1.7990    9.2620  -16.2220 O   0  0  0  0  0  0  0  0  0  0  0  0
    2.3570    9.8560  -16.7770 H   0  0  0  0  0  0  0  0  0  0  0  0
    2.6920   10.0630  -14.1430 C   0  0  0  0  0  0  0  0  0  0  0  0
    3.9470   10.5550  -13.8620 C   0  0  0  0  0  3  0  0  0  0  0  0
    4.1180   11.6410  -13.0190 C   0  0  0  0  0  3  0  0  0  0  0  0
    3.0360   12.2470  -12.4490 C   0  0  0  0  0  0  0  0  0  0  0  0
    1.7730   11.7670  -12.7190 C   0  0  0  0  0  3  0  0  0  0  0  0
    3.2060   13.7550  -11.2700 Br  0  0  0  0  0  0  0  0  0  0  0  0
    1.6170   10.6910  -13.5550 C   0  0  0  0  0  3  0  0  0  0  0  0
    5.0690    6.9730  -13.4560 C   0  0  0  0  0  0  0  0  0  0  0  0
    5.2750    5.6310  -13.1520 C   0  0  0  0  0  3  0  0  0  0  0  0
    6.4770    5.1910  -12.6410 C   0  0  0  0  0  3  0  0  0  0  0  0
    7.5350    6.0410  -12.4010 C   0  0  0  0  0  0  0  0  0  0  0  0
    7.3400    7.3690  -12.6980 C   0  0  0  0  0  3  0  0  0  0  0  0
    6.1140    7.8130  -13.2180 C   0  0  0  0  0  3  0  0  0  0  0  0
    8.7340    5.5610  -11.8860 O   0  0  0  0  0  0  0  0  0  0  0  0
    9.9770    6.1950  -11.9920 C   0  0  0  0  0  1  0  0  0  0  0  0
  2  1  1  0  0  0  0
  3  2  1  0  0  0  0
  4  3  1  0  0  0  0
  5  4  1  6  0  0  0
  5  9  1  0  0  0  0
  6 10  1  6  0  0  0
  6  5  1  0  0  0  0
  6 12  1  0  0  0  0
  7  6  1  0  0  0  0
  7  8  1  0  0  0  0
  8  9  1  0  0  0  0
  8 19  1  0  0  0  0
  9  1  1  1  0  0  0
 11 10  1  0  0  0  0
 12 13  2  0  0  0  0
 12 18  1  0  0  0  0
 13 14  1  0  0  0  0
 14 15  2  0  0  0  0
 15 17  1  0  0  0  0
 16 15  1  0  0  0  0
 18 16  2  0  0  0  0
 19 24  2  0  0  0  0
 19 20  1  0  0  0  0
 20 21  2  0  0  0  0
 21 22  1  0  0  0  0
 22 25  1  0  0  0  0
 23 22  2  0  0  0  0
 24 23  1  0  0  0  0
 26 25  1  0  0  0  0
M  END
>  <Pose>
1

>  <Score>
-6.992

$$$$
