/Users/jonathanwahrer/Desktop/Msc/3_Semester/Drug_Design_Praktikum/waehrer_HTS_screening/HTS_experiment/out/docking_results/vina_output/6q9y/1231_docked.pdbqt
 OpenBabel03222219583D

 37 40  0  0  0  0  0  0  0  0999 V2000
    1.6870   11.5690  -13.1730 C   0  0  0  0  0  0  0  0  0  0  0  0
    1.6700   12.7940  -12.6330 N   0  0  0  0  0  0  0  0  0  0  0  0
    2.7810   12.8710  -11.8800 N   0  0  0  0  0  0  0  0  0  0  0  0
    3.4570   11.7800  -11.9340 N   0  0  0  0  0  0  0  0  0  0  0  0
    2.8230   10.8680  -12.7560 C   0  0  0  0  0  0  0  0  0  0  0  0
    3.3330    9.5510  -13.0390 C   0  0  0  0  0  0  0  0  0  0  0  0
    2.7330    8.5620  -12.4600 O   0  0  0  0  0  0  0  0  0  0  0  0
    4.3970    9.1910  -13.8600 N   0  0  0  0  0  0  0  0  0  0  0  0
    5.0230    9.8010  -14.4130 H   0  0  0  0  0  0  0  0  0  0  0  0
    4.7450    7.8030  -14.0110 N   0  0  0  0  0  0  0  0  0  0  0  0
    5.7160    7.2790  -13.3740 C   0  0  0  0  0  3  0  0  0  0  0  0
    6.1000    5.8800  -13.4980 C   0  0  0  0  0  0  0  0  0  0  0  0
    5.1620    4.8760  -13.5800 C   0  0  0  0  0  3  0  0  0  0  0  0
    5.5100    3.5470  -13.7040 C   0  0  0  0  0  0  0  0  0  0  0  0
    6.8260    3.1660  -13.7500 C   0  0  0  0  0  0  0  0  0  0  0  0
    4.1700    2.1890  -13.8150 Br  0  0  0  0  0  0  0  0  0  0  0  0
    7.8100    4.1640  -13.6690 C   0  0  0  0  0  0  0  0  0  0  0  0
    7.1530    1.8250  -13.8740 O   0  0  0  0  0  1  0  0  0  0  0  0
    7.4300    5.4830  -13.5450 C   0  0  0  0  0  3  0  0  0  0  0  0
    9.1090    3.7130  -13.7210 O   0  0  0  0  0  0  0  0  0  0  0  0
    9.9740    3.8260  -14.8230 C   0  0  0  0  0  1  0  0  0  0  0  0
    0.7020   10.9950  -14.1030 C   0  0  0  0  0  2  0  0  0  0  0  0
   -0.6720   10.1130  -13.3910 S   0  0  0  0  0  0  0  0  0  0  0  0
   -0.4040    8.3460  -13.3310 C   0  0  0  0  0  0  0  0  0  0  0  0
   -0.2590    7.4500  -11.7850 S   0  0  0  0  0  0  0  0  0  0  0  0
    0.2120    5.8630  -12.5390 C   0  0  0  0  0  2  0  0  0  0  0  0
   -0.0790    6.1680  -13.9730 C   0  0  0  0  0  2  0  0  0  0  0  0
   -0.2820    7.5020  -14.2280 N   0  0  0  0  0  0  0  0  0  0  0  0
    0.7650   13.8870  -12.7660 C   0  0  0  0  0  0  0  0  0  0  0  0
   -0.5370   13.8590  -13.1170 N   0  0  0  0  0  0  0  0  0  0  0  0
   -1.0630   15.0260  -13.1140 O   0  0  0  0  0  0  0  0  0  0  0  0
   -0.1500   15.8770  -12.7660 N   0  0  0  0  0  0  0  0  0  0  0  0
    1.0260   15.2200  -12.5310 C   0  0  0  0  0  0  0  0  0  0  0  0
    2.2440   15.8020  -12.1130 N   0  0  0  0  0  4  0  0  0  0  0  0
    2.0960   16.8420  -12.0290 H   0  0  0  0  0  0  0  0  0  0  0  0
    3.0520   15.6040  -12.7300 H   0  0  0  0  0  0  0  0  0  0  0  0
    2.4670   15.4600  -11.1380 H   0  0  0  0  0  0  0  0  0  0  0  0
  1  5  2  0  0  0  0
  1  2  1  0  0  0  0
  2  3  1  0  0  0  0
  4  3  2  0  0  0  0
  5  4  1  0  0  0  0
  6  5  1  0  0  0  0
  6  7  2  0  0  0  0
  8  6  1  0  0  0  0
  9  8  1  0  0  0  0
 10  8  1  0  0  0  0
 10 11  2  0  0  0  0
 12 11  1  0  0  0  0
 13 12  2  0  0  0  0
 14 13  1  0  0  0  0
 15 14  2  0  0  0  0
 15 17  1  0  0  0  0
 16 14  1  0  0  0  0
 17 19  2  0  0  0  0
 18 15  1  0  0  0  0
 19 12  1  0  0  0  0
 20 17  1  0  0  0  0
 21 20  1  0  0  0  0
 22 23  1  0  0  0  0
 22  1  1  0  0  0  0
 23 24  1  0  0  0  0
 24 25  1  0  0  0  0
 26 25  1  0  0  0  0
 27 26  1  0  0  0  0
 28 27  1  0  0  0  0
 28 24  2  0  0  0  0
 29  2  1  0  0  0  0
 29 33  1  0  0  0  0
 30 31  1  0  0  0  0
 30 29  2  0  0  0  0
 31 32  1  0  0  0  0
 32 33  2  0  0  0  0
 33 34  1  0  0  0  0
 34 35  1  0  0  0  0
 34 37  1  0  0  0  0
 36 34  1  0  0  0  0
M  END
>  <Pose>
1

>  <Score>
-7.446

$$$$
