/Users/jonathanwahrer/Desktop/Msc/3_Semester/Drug_Design_Praktikum/waehrer_HTS_screening/HTS_experiment/out/docking_results/vina_output/6q9y/1236_docked.pdbqt
 OpenBabel03222219583D

 30 34  0  0  1  0  0  0  0  0999 V2000
   -0.0050    9.8170  -13.1230 C   0  0  2  0  0  3  0  0  0  0  0  0
    0.4430   10.7550  -14.1890 C   0  0  1  0  0  3  0  0  0  0  0  0
   -0.0880   12.1030  -13.8490 C   0  0  0  0  0  0  0  0  0  0  0  0
    0.6200   12.8550  -12.8440 N   0  0  0  0  0  0  0  0  0  0  0  0
   -1.1120   12.5360  -14.4330 O   0  0  0  0  0  0  0  0  0  0  0  0
    1.8310   12.6360  -12.5530 C   0  0  0  0  0  0  0  0  0  0  0  0
    2.9580   13.3740  -11.3890 S   0  0  0  0  0  0  0  0  0  0  0  0
    2.5770   11.6460  -13.2270 N   0  0  0  0  0  0  0  0  0  0  0  0
    4.4770   12.8110  -12.2950 C   0  0  0  0  0  2  0  0  0  0  0  0
    3.9300   11.4910  -12.7740 C   0  0  0  0  0  2  0  0  0  0  0  0
    1.9170   10.8820  -14.2690 C   0  0  0  0  0  0  0  0  0  0  0  0
    2.6330   10.3810  -15.1690 O   0  0  0  0  0  0  0  0  0  0  0  0
    0.7420    8.5060  -13.1090 C   0  0  2  0  0  3  0  0  0  0  0  0
    0.4010    7.6010  -14.2180 C   0  0  0  0  0  0  0  0  0  0  0  0
    0.8670    7.8240  -15.3900 O   0  0  0  0  0  0  0  0  0  0  0  0
   -0.4630    6.4590  -13.9900 N   0  0  0  0  0  0  0  0  0  0  0  0
   -1.0720    5.6320  -14.9940 C   0  0  0  0  0  2  0  0  0  0  0  0
   -0.7360    6.0780  -12.6570 C   0  0  0  0  0  0  0  0  0  0  0  0
   -2.3910    5.0850  -14.5080 C   0  0  0  0  0  2  0  0  0  0  0  0
   -1.8430    4.6760  -12.7850 S   0  0  0  0  0  0  0  0  0  0  0  0
   -0.2530    6.6920  -11.6480 N   0  0  0  0  0  0  0  0  0  0  0  0
    0.6110    7.8310  -11.7940 C   0  0  0  0  0  0  0  0  0  0  0  0
    1.2410    8.2240  -10.7800 O   0  0  0  0  0  0  0  0  0  0  0  0
   -1.4680    9.6260  -13.2330 C   0  0  0  0  0  0  0  0  0  0  0  0
   -2.0180    8.9310  -14.3030 C   0  0  0  0  0  3  0  0  0  0  0  0
   -3.3800    8.7440  -14.4130 C   0  0  0  0  0  0  0  0  0  0  0  0
   -4.2320    9.2460  -13.4550 C   0  0  0  0  0  3  0  0  0  0  0  0
   -4.1440    7.7900  -15.8790 Br  0  0  0  0  0  0  0  0  0  0  0  0
   -3.6910    9.9270  -12.4070 C   0  0  0  0  0  3  0  0  0  0  0  0
   -2.3310   10.1230  -12.2830 C   0  0  0  0  0  3  0  0  0  0  0  0
  1 24  1  6  0  0  0
  2  3  1  0  0  0  0
  2  1  1  1  0  0  0
  3  4  1  0  0  0  0
  4  6  2  0  0  0  0
  5  3  2  0  0  0  0
  6  7  1  0  0  0  0
  8 10  1  0  0  0  0
  8  6  1  0  0  0  0
  9  7  1  0  0  0  0
 10  9  1  0  0  0  0
 11  2  1  0  0  0  0
 11  8  1  0  0  0  0
 12 11  2  0  0  0  0
 13  1  1  1  0  0  0
 13 22  1  0  0  0  0
 14 16  1  0  0  0  0
 14 13  1  0  0  0  0
 15 14  2  0  0  0  0
 16 18  1  0  0  0  0
 17 19  1  0  0  0  0
 17 16  1  0  0  0  0
 18 21  2  0  0  0  0
 19 20  1  0  0  0  0
 20 18  1  0  0  0  0
 22 21  1  0  0  0  0
 22 23  2  0  0  0  0
 24 30  1  0  0  0  0
 25 24  2  0  0  0  0
 26 25  1  0  0  0  0
 26 27  2  0  0  0  0
 27 29  1  0  0  0  0
 28 26  1  0  0  0  0
 29 30  2  0  0  0  0
M  END
>  <Pose>
1

>  <Score>
-4.164

$$$$
