/Users/jonathanwahrer/Desktop/Msc/3_Semester/Drug_Design_Praktikum/waehrer_HTS_screening/HTS_experiment/out/docking_results/vina_output/6q9y/1256_docked.pdbqt
 OpenBabel03222219593D

 30 33  0  0  0  0  0  0  0  0999 V2000
    1.6330   15.8870  -12.0130 S   0  0  0  0  0  0  0  0  0  0  0  0
    2.0000   14.2460  -12.3380 C   0  0  0  0  0  0  0  0  0  0  0  0
    3.1160   13.4670  -12.1850 N   0  0  0  0  0  0  0  0  0  0  0  0
    3.1020   12.1630  -12.5060 C   0  0  0  0  0  0  0  0  0  0  0  0
    4.0640   11.3800  -12.3990 O   0  0  0  0  0  0  0  0  0  0  0  0
    1.9020   11.6930  -12.9870 C   0  0  0  0  0  3  0  0  0  0  0  0
    0.7870   12.4620  -13.1430 C   0  0  0  0  0  0  0  0  0  0  0  0
    0.8330   13.7920  -12.8050 N   0  0  0  0  0  0  0  0  0  0  0  0
   -0.1410   14.6150  -12.8750 N   0  0  0  0  0  0  0  0  0  0  0  0
   -0.0210   15.8600  -12.5100 C   0  0  0  0  0  0  0  0  0  0  0  0
   -0.4200   11.8160  -13.6570 C   0  0  0  0  0  0  0  0  0  0  0  0
   -0.8880   12.1760  -14.7990 O   0  0  0  0  0  0  0  0  0  0  0  0
   -1.1380   10.8060  -12.9850 N   0  0  0  0  0  0  0  0  0  0  0  0
   -0.8480   10.4670  -12.0480 H   0  0  0  0  0  0  0  0  0  0  0  0
   -2.3230   10.2260  -13.6050 C   0  0  0  0  0  2  0  0  0  0  0  0
   -2.1640    8.7600  -13.7720 C   0  0  0  0  0  0  0  0  0  0  0  0
   -3.1140    8.0560  -14.4960 C   0  0  0  0  0  0  0  0  0  0  0  0
   -2.9970    6.6940  -14.6210 C   0  0  0  0  0  3  0  0  0  0  0  0
   -1.9670    5.9940  -14.0510 C   0  0  0  0  0  3  0  0  0  0  0  0
   -1.0160    6.6880  -13.3270 C   0  0  0  0  0  0  0  0  0  0  0  0
   -1.1350    8.0630  -13.2040 C   0  0  0  0  0  3  0  0  0  0  0  0
    0.4540    5.7900  -12.5060 Br  0  0  0  0  0  0  0  0  0  0  0  0
   -4.1450    8.7700  -15.0640 O   0  0  0  0  0  0  0  0  0  0  0  0
   -5.4340    8.1610  -15.1270 C   0  0  0  0  0  1  0  0  0  0  0  0
   -0.9970   16.9280  -12.4940 N   0  0  0  0  0  0  0  0  0  0  0  0
   -1.1140   17.7770  -11.3710 C   0  0  0  0  0  2  0  0  0  0  0  0
   -2.2600   18.7430  -11.5620 C   0  0  0  0  0  2  0  0  0  0  0  0
   -3.3340   18.0830  -12.1660 O   0  0  0  0  0  0  0  0  0  0  0  0
   -3.0480   17.8300  -13.5130 C   0  0  0  0  0  2  0  0  0  0  0  0
   -1.7930   17.0290  -13.6700 C   0  0  0  0  0  2  0  0  0  0  0  0
  2  3  2  0  0  0  0
  2  1  1  0  0  0  0
  4  5  2  0  0  0  0
  4  3  1  0  0  0  0
  6  4  1  0  0  0  0
  7  6  2  0  0  0  0
  7  8  1  0  0  0  0
  8  2  1  0  0  0  0
  9  8  1  0  0  0  0
  9 10  2  0  0  0  0
 10 25  1  0  0  0  0
 10  1  1  0  0  0  0
 11  7  1  0  0  0  0
 11 13  1  0  0  0  0
 12 11  2  0  0  0  0
 13 14  1  0  0  0  0
 15 13  1  0  0  0  0
 16 15  1  0  0  0  0
 16 21  1  0  0  0  0
 17 16  2  0  0  0  0
 18 17  1  0  0  0  0
 18 19  2  0  0  0  0
 19 20  1  0  0  0  0
 20 21  2  0  0  0  0
 20 22  1  0  0  0  0
 23 17  1  0  0  0  0
 24 23  1  0  0  0  0
 25 26  1  0  0  0  0
 27 26  1  0  0  0  0
 28 27  1  0  0  0  0
 29 28  1  0  0  0  0
 30 29  1  0  0  0  0
 30 25  1  0  0  0  0
M  END
>  <Pose>
1

>  <Score>
-8.892

$$$$
