/Users/jonathanwahrer/Desktop/Msc/3_Semester/Drug_Design_Praktikum/waehrer_HTS_screening/HTS_experiment/out/docking_results/vina_output/6q9y/1265_docked.pdbqt
 OpenBabel03222219593D

 24 27  0  0  1  0  0  0  0  0999 V2000
   -3.8320    6.5000  -15.3450 S   0  0  0  0  0  0  0  0  0  0  0  0
   -3.9050    8.1580  -14.6790 C   0  0  1  0  0  3  0  0  0  0  0  0
   -4.6950    9.1720  -14.5420 N   0  0  0  0  0  0  0  0  0  0  0  0
   -4.0600   10.2410  -13.8660 C   0  0  0  0  0  3  0  0  0  0  0  0
   -2.6840    9.7390  -13.5730 C   0  0  0  0  0  3  0  0  0  0  0  0
   -2.6300    8.3630  -14.1220 N   0  0  0  0  0  0  0  0  0  0  0  0
   -1.7260    7.3000  -14.2290 C   0  0  0  0  0  0  0  0  0  0  0  0
   -2.1430    6.2130  -14.8390 C   0  0  0  0  0  3  0  0  0  0  0  0
   -6.0800    9.1390  -15.0430 C   0  0  0  0  0  2  0  0  0  0  0  0
   -6.8540   10.1010  -14.2320 C   0  0  0  0  0  0  0  0  0  0  0  0
   -6.6400   10.2410  -13.0110 O   0  0  0  0  0  0  0  0  0  0  0  0
   -7.8910   10.9120  -14.8540 C   0  0  0  0  0  0  0  0  0  0  0  0
   -8.3660   10.6140  -16.1330 C   0  0  0  0  0  3  0  0  0  0  0  0
   -9.3440   11.3720  -16.7500 C   0  0  0  0  0  3  0  0  0  0  0  0
   -9.8460   12.4440  -16.0610 C   0  0  0  0  0  0  0  0  0  0  0  0
   -9.4090   12.7800  -14.7930 C   0  0  0  0  0  3  0  0  0  0  0  0
  -11.2030   13.4880  -16.9260 Br  0  0  0  0  0  0  0  0  0  0  0  0
   -8.4200   11.9990  -14.1910 C   0  0  0  0  0  3  0  0  0  0  0  0
   -0.3280    7.3170  -13.6860 C   0  0  0  0  0  0  0  0  0  0  0  0
    0.0020    6.6480  -12.5290 C   0  0  0  0  0  3  0  0  0  0  0  0
    1.2690    6.6340  -11.9850 C   0  0  0  0  0  3  0  0  0  0  0  0
    2.2910    7.3160  -12.6030 C   0  0  0  0  0  3  0  0  0  0  0  0
    1.9880    7.9890  -13.7540 C   0  0  0  0  0  3  0  0  0  0  0  0
    0.6920    7.9970  -14.3010 C   0  0  0  0  0  3  0  0  0  0  0  0
  1  8  1  0  0  0  0
  2  1  1  1  0  0  0
  2  3  1  0  0  0  0
  2  6  1  0  0  0  0
  3  4  1  0  0  0  0
  4  5  2  0  0  0  0
  6  5  1  0  0  0  0
  7  6  1  0  0  0  0
  7 19  1  0  0  0  0
  8  7  2  0  0  0  0
  9  3  1  0  0  0  0
  9 10  1  0  0  0  0
 10 11  2  0  0  0  0
 12 10  1  0  0  0  0
 12 18  1  0  0  0  0
 13 12  2  0  0  0  0
 14 13  1  0  0  0  0
 14 15  2  0  0  0  0
 15 16  1  0  0  0  0
 16 18  2  0  0  0  0
 17 15  1  0  0  0  0
 19 20  1  0  0  0  0
 20 21  2  0  0  0  0
 22 21  1  0  0  0  0
 23 22  2  0  0  0  0
 24 23  1  0  0  0  0
 24 19  2  0  0  0  0
M  END
>  <Pose>
1

>  <Score>
-9.476

$$$$
