/Users/jonathanwahrer/Desktop/Msc/3_Semester/Drug_Design_Praktikum/waehrer_HTS_screening/HTS_experiment/out/docking_results/vina_output/6q9y/1271_docked.pdbqt
 OpenBabel03222220003D

 35 38  0  0  0  0  0  0  0  0999 V2000
   -1.4910   10.8110  -13.8080 C   0  0  0  0  0  0  0  0  0  0  0  0
   -1.3960   12.1180  -14.0840 N   0  0  0  0  0  0  0  0  0  0  0  0
   -0.1470   12.4530  -13.8850 N   0  0  0  0  0  0  0  0  0  0  0  0
    0.5600   11.3980  -13.4890 N   0  0  0  0  0  0  0  0  0  0  0  0
   -0.2280   10.3360  -13.4210 C   0  0  0  0  0  0  0  0  0  0  0  0
   -2.7160   10.0420  -13.9160 C   0  0  0  0  0  0  0  0  0  0  0  0
   -3.8790   10.5440  -14.5450 N   0  0  0  0  0  0  0  0  0  0  0  0
   -3.9200   11.5110  -14.9650 H   0  0  0  0  0  0  0  0  0  0  0  0
   -2.7390    8.8860  -13.4330 O   0  0  0  0  0  0  0  0  0  0  0  0
   -5.0500    9.7930  -14.6500 N   0  0  0  0  0  0  0  0  0  0  0  0
   -5.2270    9.0540  -15.3510 H   0  0  0  0  0  0  0  0  0  0  0  0
   -6.1110   10.0550  -13.7060 C   0  0  0  0  0  0  0  0  0  0  0  0
   -6.0500    9.4920  -12.5250 C   0  0  0  0  0  2  0  0  0  0  0  0
   -7.2020   10.9170  -14.1140 C   0  0  0  0  0  0  0  0  0  0  0  0
   -7.8840   10.6660  -15.3040 C   0  0  0  0  0  3  0  0  0  0  0  0
   -8.9300   11.4650  -15.6950 C   0  0  0  0  0  0  0  0  0  0  0  0
   -9.8660   11.1340  -17.3170 Br  0  0  0  0  0  0  0  0  0  0  0  0
   -9.3440   12.5430  -14.9310 C   0  0  0  0  0  3  0  0  0  0  0  0
   -8.6860   12.7980  -13.7670 C   0  0  0  0  0  3  0  0  0  0  0  0
   -7.6250   11.9820  -13.3740 C   0  0  0  0  0  3  0  0  0  0  0  0
   -0.0040    8.9670  -13.0170 C   0  0  0  0  0  2  0  0  0  0  0  0
    0.7330    8.1340  -13.9470 N   0  0  0  0  0  0  0  0  0  0  0  0
    1.8490    7.4730  -13.2770 C   0  0  0  0  0  2  0  0  0  0  0  0
    1.4260    6.8360  -11.9720 C   0  0  0  0  0  2  0  0  0  0  0  0
    0.3000    5.8480  -12.2200 C   0  0  0  0  0  2  0  0  0  0  0  0
   -0.0380    5.7750  -13.6820 C   0  0  0  0  0  2  0  0  0  0  0  0
   -0.1280    7.0520  -14.4160 C   0  0  0  0  0  2  0  0  0  0  0  0
    1.9380   11.4530  -13.1710 C   0  0  0  0  0  0  0  0  0  0  0  0
    2.4210   12.1020  -12.0750 N   0  0  0  0  0  0  0  0  0  0  0  0
    3.7090   11.9670  -12.0770 O   0  0  0  0  0  0  0  0  0  0  0  0
    4.1100   11.2850  -13.0890 N   0  0  0  0  0  0  0  0  0  0  0  0
    3.0310   10.9400  -13.8050 C   0  0  0  0  0  0  0  0  0  0  0  0
    2.9980   10.1920  -14.9910 N   0  0  0  0  0  0  0  0  0  0  0  0
    2.2630    9.5030  -15.2630 H   0  0  0  0  0  0  0  0  0  0  0  0
    3.7710   10.3160  -15.6810 H   0  0  0  0  0  0  0  0  0  0  0  0
  1  5  2  0  0  0  0
  2  3  2  0  0  0  0
  2  1  1  0  0  0  0
  3  4  1  0  0  0  0
  4  5  1  0  0  0  0
  4 28  1  0  0  0  0
  5 21  1  0  0  0  0
  6  1  1  0  0  0  0
  6  9  2  0  0  0  0
  7  6  1  0  0  0  0
  8  7  1  0  0  0  0
 10  7  1  0  0  0  0
 10 12  1  0  0  0  0
 11 10  1  0  0  0  0
 12 13  2  0  0  0  0
 14 12  1  0  0  0  0
 14 20  1  0  0  0  0
 15 14  2  0  0  0  0
 16 15  1  0  0  0  0
 16 18  2  0  0  0  0
 17 16  1  0  0  0  0
 18 19  1  0  0  0  0
 19 20  2  0  0  0  0
 22 23  1  0  0  0  0
 22 21  1  0  0  0  0
 23 24  1  0  0  0  0
 25 24  1  0  0  0  0
 26 25  1  0  0  0  0
 27 22  1  0  0  0  0
 27 26  1  0  0  0  0
 28 29  2  0  0  0  0
 30 29  1  0  0  0  0
 31 30  1  0  0  0  0
 32 28  1  0  0  0  0
 32 31  2  0  0  0  0
 33 32  1  0  0  0  0
 34 33  1  0  0  0  0
 35 33  1  0  0  0  0
M  END
>  <Pose>
1

>  <Score>
-9.595

$$$$
