/Users/jonathanwahrer/Desktop/Msc/3_Semester/Drug_Design_Praktikum/waehrer_HTS_screening/HTS_experiment/out/docking_results/vina_output/6q9y/1280_docked.pdbqt
 OpenBabel03222220003D

 35 38  0  0  1  0  0  0  0  0999 V2000
    2.4760    8.1910  -12.6960 C   0  0  1  0  0  3  0  0  0  0  0  0
    3.0230    9.2700  -13.4940 N   0  0  0  0  0  0  0  0  0  0  0  0
    2.5940    9.0560  -14.8270 C   0  0  0  0  0  0  0  0  0  0  0  0
    3.1790    9.4520  -15.8400 O   0  0  0  0  0  0  0  0  0  0  0  0
    1.3420    8.2840  -14.7440 C   0  0  0  0  0  0  0  0  0  0  0  0
    0.6220    7.8850  -15.6910 O   0  0  0  0  0  0  0  0  0  0  0  0
    1.1140    8.0830  -13.3180 C   0  0  0  0  0  0  0  0  0  0  0  0
   -0.0670    7.8910  -12.7480 C   0  0  0  0  0  0  0  0  0  0  0  0
   -0.0480    7.7680  -11.3380 O   0  0  0  0  0  1  0  0  0  0  0  0
    3.2910    6.9760  -12.8470 C   0  0  0  0  0  0  0  0  0  0  0  0
    4.6360    7.0760  -13.1720 C   0  0  0  0  0  3  0  0  0  0  0  0
    5.4420    5.9390  -13.3010 C   0  0  0  0  0  0  0  0  0  0  0  0
    7.3020    6.1140  -13.7510 Br  0  0  0  0  0  0  0  0  0  0  0  0
    4.9090    4.6910  -13.1050 C   0  0  0  0  0  3  0  0  0  0  0  0
    3.5780    4.5770  -12.7820 C   0  0  0  0  0  3  0  0  0  0  0  0
    2.7940    5.7160  -12.6590 C   0  0  0  0  0  3  0  0  0  0  0  0
   -1.3250    7.8050  -13.4810 C   0  0  0  0  0  0  0  0  0  0  0  0
   -2.1580    8.8590  -13.7120 C   0  0  0  0  0  0  0  0  0  0  0  0
   -3.3790    8.6770  -14.3860 C   0  0  0  0  0  3  0  0  0  0  0  0
   -1.7700   10.2270  -13.2970 C   0  0  0  0  0  1  0  0  0  0  0  0
   -3.7930    7.4550  -14.8430 C   0  0  0  0  0  0  0  0  0  0  0  0
   -2.9510    6.3880  -14.6120 C   0  0  0  0  0  3  0  0  0  0  0  0
   -1.7600    6.5530  -13.9560 C   0  0  0  0  0  3  0  0  0  0  0  0
   -5.0020    7.2690  -15.5140 O   0  0  0  0  0  0  0  0  0  0  0  0
   -6.0260    8.2260  -15.4220 C   0  0  0  0  0  1  0  0  0  0  0  0
    3.8530   10.3340  -12.9690 C   0  0  0  0  0  2  0  0  0  0  0  0
    3.3170   11.7040  -13.2430 C   0  0  0  0  0  2  0  0  0  0  0  0
    1.8990   11.9300  -12.8810 C   0  0  0  0  0  2  0  0  0  0  0  0
    1.5260   13.2830  -12.6670 N   0  0  0  0  0  4  0  0  0  0  0  0
    0.0700   13.4970  -12.6390 C   0  0  0  0  0  2  0  0  0  0  0  0
   -0.1250   14.9770  -12.9780 C   0  0  0  0  0  2  0  0  0  0  0  0
    1.0630   15.6840  -12.9230 O   0  0  0  0  0  0  0  0  0  0  0  0
    1.7280   15.4490  -11.7190 C   0  0  0  0  0  2  0  0  0  0  0  0
    2.0600   13.9570  -11.5400 C   0  0  0  0  0  2  0  0  0  0  0  0
    1.8490   13.8270  -13.5240 H   0  0  0  0  0  0  0  0  0  0  0  0
  1 10  1  6  0  0  0
  2 26  1  0  0  0  0
  2  1  1  0  0  0  0
  3  5  1  0  0  0  0
  3  2  1  0  0  0  0
  4  3  2  0  0  0  0
  5  7  1  0  0  0  0
  6  5  2  0  0  0  0
  7  8  2  0  0  0  0
  7  1  1  0  0  0  0
  8  9  1  0  0  0  0
 10 16  1  0  0  0  0
 11 10  2  0  0  0  0
 12 11  1  0  0  0  0
 12 14  2  0  0  0  0
 13 12  1  0  0  0  0
 14 15  1  0  0  0  0
 15 16  2  0  0  0  0
 17  8  1  0  0  0  0
 18 17  1  0  0  0  0
 18 20  1  0  0  0  0
 19 18  2  0  0  0  0
 21 22  2  0  0  0  0
 21 19  1  0  0  0  0
 22 23  1  0  0  0  0
 23 17  2  0  0  0  0
 24 25  1  0  0  0  0
 24 21  1  0  0  0  0
 27 26  1  0  0  0  0
 27 28  1  0  0  0  0
 28 29  1  0  0  0  0
 29 30  1  0  0  0  0
 29 34  1  0  0  0  0
 31 32  1  0  0  0  0
 31 30  1  0  0  0  0
 32 33  1  0  0  0  0
 33 34  1  0  0  0  0
 35 29  1  0  0  0  0
M  END
>  <Pose>
1

>  <Score>
-9.084

$$$$
