/Users/jonathanwahrer/Desktop/Msc/3_Semester/Drug_Design_Praktikum/waehrer_HTS_screening/HTS_experiment/out/docking_results/vina_output/6q9y/1299_docked.pdbqt
 OpenBabel03222220023D

 36 39  0  0  0  0  0  0  0  0999 V2000
    0.3320    9.9360  -13.2520 C   0  0  0  0  0  0  0  0  0  0  0  0
    0.5900   11.2810  -13.3210 N   0  0  0  0  0  0  0  0  0  0  0  0
   -0.5790   11.8570  -13.5100 N   0  0  0  0  0  0  0  0  0  0  0  0
   -1.5380   10.9930  -13.5620 N   0  0  0  0  0  0  0  0  0  0  0  0
   -1.0150    9.7440  -13.4040 C   0  0  0  0  0  0  0  0  0  0  0  0
    1.4160    8.9840  -13.0460 C   0  0  0  0  0  0  0  0  0  0  0  0
    2.3750    8.5730  -13.9990 N   0  0  0  0  0  0  0  0  0  0  0  0
    2.4370    8.9010  -14.9880 H   0  0  0  0  0  0  0  0  0  0  0  0
    1.5590    8.4280  -11.8910 O   0  0  0  0  0  0  0  0  0  0  0  0
    3.3490    7.6180  -13.5540 N   0  0  0  0  0  0  0  0  0  0  0  0
    4.5110    7.5530  -14.0790 C   0  0  0  0  0  3  0  0  0  0  0  0
    5.5090    6.5740  -13.6220 C   0  0  0  0  0  0  0  0  0  0  0  0
    6.7620    6.9610  -13.2640 C   0  0  0  0  0  3  0  0  0  0  0  0
    7.7000    6.0400  -12.8350 C   0  0  0  0  0  0  0  0  0  0  0  0
    7.3970    4.7040  -12.7560 C   0  0  0  0  0  0  0  0  0  0  0  0
    9.4690    6.5990  -12.3300 Br  0  0  0  0  0  0  0  0  0  0  0  0
    6.1260    4.3070  -13.1190 C   0  0  0  0  0  0  0  0  0  0  0  0
    5.6940    2.4500  -13.0140 Br  0  0  0  0  0  0  0  0  0  0  0  0
    5.1970    5.2340  -13.5470 C   0  0  0  0  0  3  0  0  0  0  0  0
    8.3640    3.8090  -12.3200 O   0  0  0  0  0  0  0  0  0  0  0  0
    9.2280    3.6490  -12.8070 H   0  0  0  0  0  0  0  0  0  0  0  0
    1.8490   11.9130  -13.2130 C   0  0  0  0  0  0  0  0  0  0  0  0
    3.0600   11.5150  -13.6750 N   0  0  0  0  0  0  0  0  0  0  0  0
    3.9400   12.3940  -13.3540 O   0  0  0  0  0  0  0  0  0  0  0  0
    3.4290   13.3860  -12.6980 N   0  0  0  0  0  0  0  0  0  0  0  0
    2.0990   13.1190  -12.5850 C   0  0  0  0  0  0  0  0  0  0  0  0
    1.1680   13.9630  -11.9290 N   0  0  0  0  0  0  0  0  0  0  0  0
    1.4690   14.4360  -11.0570 H   0  0  0  0  0  0  0  0  0  0  0  0
    0.2050   14.1370  -12.2690 H   0  0  0  0  0  0  0  0  0  0  0  0
   -1.7180    8.4610  -13.4050 C   0  0  0  0  0  2  0  0  0  0  0  0
   -1.6570    7.7510  -14.6730 N   0  0  0  0  0  0  0  0  0  0  0  0
   -0.6780    6.6740  -14.5990 C   0  0  0  0  0  2  0  0  0  0  0  0
   -1.3030    5.3790  -14.1640 C   0  0  0  0  0  2  0  0  0  0  0  0
   -2.4860    5.5300  -13.4630 O   0  0  0  0  0  0  0  0  0  0  0  0
   -3.4820    6.2040  -14.1540 C   0  0  0  0  0  2  0  0  0  0  0  0
   -2.9350    7.2380  -15.1010 C   0  0  0  0  0  2  0  0  0  0  0  0
  1  6  1  0  0  0  0
  2  1  1  0  0  0  0
  2 22  1  0  0  0  0
  3  2  1  0  0  0  0
  4  3  2  0  0  0  0
  4  5  1  0  0  0  0
  5  1  2  0  0  0  0
  6  9  2  0  0  0  0
  7 10  1  0  0  0  0
  7  6  1  0  0  0  0
  8  7  1  0  0  0  0
 11 12  1  0  0  0  0
 11 10  2  0  0  0  0
 12 19  2  0  0  0  0
 12 13  1  0  0  0  0
 13 14  2  0  0  0  0
 14 15  1  0  0  0  0
 14 16  1  0  0  0  0
 15 20  1  0  0  0  0
 17 18  1  0  0  0  0
 17 15  2  0  0  0  0
 19 17  1  0  0  0  0
 21 20  1  0  0  0  0
 22 26  1  0  0  0  0
 23 24  1  0  0  0  0
 23 22  2  0  0  0  0
 24 25  1  0  0  0  0
 25 26  2  0  0  0  0
 26 27  1  0  0  0  0
 27 28  1  0  0  0  0
 29 27  1  0  0  0  0
 30  5  1  0  0  0  0
 31 32  1  0  0  0  0
 31 30  1  0  0  0  0
 32 33  1  0  0  0  0
 33 34  1  0  0  0  0
 35 34  1  0  0  0  0
 36 31  1  0  0  0  0
 36 35  1  0  0  0  0
M  END
>  <Pose>
1

>  <Score>
-8.118

$$$$
