/Users/jonathanwahrer/Desktop/Msc/3_Semester/Drug_Design_Praktikum/waehrer_HTS_screening/HTS_experiment/out/docking_results/vina_output/6q9y/1301_docked.pdbqt
 OpenBabel03222220023D

 24 27  0  0  1  0  0  0  0  0999 V2000
    0.7420   10.0020  -13.9360 N   0  0  0  0  0  0  0  0  0  0  0  0
    1.7120    9.4330  -14.8090 C   0  0  0  0  0  0  0  0  0  0  0  0
    2.3260   10.0020  -15.7370 O   0  0  0  0  0  0  0  0  0  0  0  0
    1.9130    7.9950  -14.4560 C   0  0  1  0  0  3  0  0  0  0  0  0
    2.9430    7.8160  -13.3920 C   0  0  1  0  0  0  0  0  0  0  0  0
    2.2420    8.1550  -12.2080 O   0  0  0  0  0  0  0  0  0  0  0  0
    1.1980    7.2090  -12.3720 C   0  0  1  0  0  0  0  0  0  0  0  0
    0.6410    7.6400  -13.6900 C   0  0  1  0  0  3  0  0  0  0  0  0
   -0.0930    8.9190  -13.5490 C   0  0  0  0  0  0  0  0  0  0  0  0
   -1.2710    9.0260  -13.1480 O   0  0  0  0  0  0  0  0  0  0  0  0
    2.0210    5.9720  -12.5250 C   0  0  0  0  0  2  0  0  0  0  0  0
    3.1390    6.3600  -13.1630 C   0  0  0  0  0  2  0  0  0  0  0  0
    0.2540    7.1860  -11.2470 C   0  0  0  0  0  1  0  0  0  0  0  0
    0.6780   11.3710  -13.5620 C   0  0  0  0  0  0  0  0  0  0  0  0
   -0.3990   12.1790  -13.8650 C   0  0  0  0  0  3  0  0  0  0  0  0
   -0.4600   13.5270  -13.4950 C   0  0  0  0  0  3  0  0  0  0  0  0
    0.5730   14.1120  -12.8000 C   0  0  0  0  0  0  0  0  0  0  0  0
    1.6540   13.3200  -12.4910 C   0  0  0  0  0  0  0  0  0  0  0  0
    0.5050   15.5510  -12.4090 C   0  0  0  0  0  1  0  0  0  0  0  0
    3.1040   14.0930  -11.5310 Br  0  0  0  0  0  0  0  0  0  0  0  0
    1.7090   11.9740  -12.8630 C   0  0  0  0  0  3  0  0  0  0  0  0
    4.1910    8.5810  -13.5690 C   0  0  0  0  0  2  0  0  0  0  0  0
    4.8540    8.2340  -14.7440 O   0  0  0  0  0  0  0  0  0  0  0  0
    5.6390    8.8200  -14.9360 H   0  0  0  0  0  0  0  0  0  0  0  0
  1 14  1  0  0  0  0
  1  9  1  0  0  0  0
  2  1  1  0  0  0  0
  3  2  2  0  0  0  0
  4  2  1  1  0  0  0
  4  8  1  0  0  0  0
  4  5  1  0  0  0  0
  5 22  1  6  0  0  0
  5 12  1  0  0  0  0
  5  6  1  0  0  0  0
  7  6  1  0  0  0  0
  7 13  1  1  0  0  0
  8  9  1  1  0  0  0
  8  7  1  0  0  0  0
  9 10  2  0  0  0  0
 11  7  1  0  0  0  0
 12 11  1  0  0  0  0
 14 21  1  0  0  0  0
 15 14  2  0  0  0  0
 15 16  1  0  0  0  0
 16 17  2  0  0  0  0
 17 18  1  0  0  0  0
 17 19  1  0  0  0  0
 18 20  1  0  0  0  0
 21 18  2  0  0  0  0
 23 22  1  0  0  0  0
 24 23  1  0  0  0  0
M  END
>  <Pose>
1

>  <Score>
-7.743

$$$$
