/Users/jonathanwahrer/Desktop/Msc/3_Semester/Drug_Design_Praktikum/waehrer_HTS_screening/HTS_experiment/out/docking_results/vina_output/6q9y/1314_docked.pdbqt
 OpenBabel03222220033D

 32 35  0  0  0  0  0  0  0  0999 V2000
    2.1770    5.3590  -12.5320 C   0  0  0  0  0  0  0  0  0  0  0  0
    2.7230    4.1870  -12.4200 N   0  0  0  0  0  0  0  0  0  0  0  0
    3.9930    4.2810  -12.6180 N   0  0  0  0  0  0  0  0  0  0  0  0
    4.3860    5.5850  -12.8870 N   0  0  0  0  0  0  0  0  0  0  0  0
    3.2770    6.2880  -12.8370 C   0  0  0  0  0  0  0  0  0  0  0  0
    0.8330    5.7540  -12.6520 C   0  0  0  0  0  0  0  0  0  0  0  0
    0.1190    5.8140  -14.0210 N   0  0  0  0  0  0  0  0  0  0  0  0
    0.6890    5.5050  -14.8040 H   0  0  0  0  0  0  0  0  0  0  0  0
    0.1100    6.0940  -11.7230 O   0  0  0  0  0  0  0  0  0  0  0  0
   -1.0420    6.3070  -13.7440 N   0  0  0  0  0  2  0  0  0  0  0  0
   -2.2260    6.6330  -13.9390 C   0  0  0  0  0  2  0  0  0  0  0  0
   -2.3710    8.1620  -13.7390 C   0  0  0  0  0  0  0  0  0  0  0  0
   -3.4620    8.7530  -14.3300 C   0  0  0  0  0  0  0  0  0  0  0  0
   -4.8550    7.6790  -15.0150 Br  0  0  0  0  0  0  0  0  0  0  0  0
   -3.4620   10.1450  -14.4580 C   0  0  0  0  0  3  0  0  0  0  0  0
   -2.3920   10.9050  -13.9730 C   0  0  0  0  0  3  0  0  0  0  0  0
   -1.3430   10.2960  -13.3720 C   0  0  0  0  0  3  0  0  0  0  0  0
   -1.3430    8.8700  -13.2680 C   0  0  0  0  0  3  0  0  0  0  0  0
    2.9080    7.7010  -12.8380 C   0  0  0  0  0  2  0  0  0  0  0  0
    2.7290    8.5660  -13.8410 N   0  0  0  0  0  0  0  0  0  0  0  0
    2.1910    9.8210  -13.3330 C   0  0  0  0  0  2  0  0  0  0  0  0
    3.4020    8.8380  -14.9990 C   0  0  0  0  0  2  0  0  0  0  0  0
    2.9870   10.9240  -13.9640 C   0  0  0  0  0  2  0  0  0  0  0  0
    4.0470   10.2340  -14.8170 C   0  0  0  0  0  2  0  0  0  0  0  0
    5.7340    5.7960  -13.1760 C   0  0  0  0  0  0  0  0  0  0  0  0
    6.2020    7.0400  -13.5990 N   0  0  0  0  0  0  0  0  0  0  0  0
    7.4340    6.9230  -13.8990 O   0  0  0  0  0  0  0  0  0  0  0  0
    7.8550    5.7350  -13.7220 N   0  0  0  0  0  0  0  0  0  0  0  0
    6.8000    5.0010  -13.2670 C   0  0  0  0  0  0  0  0  0  0  0  0
    6.9560    3.6040  -12.9900 N   0  0  0  0  0  0  0  0  0  0  0  0
    7.5210    3.3490  -12.1680 H   0  0  0  0  0  0  0  0  0  0  0  0
    6.5750    2.9010  -13.6210 H   0  0  0  0  0  0  0  0  0  0  0  0
  1  2  1  0  0  0  0
  3  2  2  0  0  0  0
  4  5  1  0  0  0  0
  4  3  1  0  0  0  0
  5  1  2  0  0  0  0
  6  1  1  0  0  0  0
  6  9  2  0  0  0  0
  7 10  1  0  0  0  0
  7  6  1  0  0  0  0
  8  7  1  0  0  0  0
 11 10  1  0  0  0  0
 11 12  1  0  0  0  0
 12 18  1  0  0  0  0
 13 12  2  0  0  0  0
 14 13  1  0  0  0  0
 15 13  1  0  0  0  0
 15 16  2  0  0  0  0
 16 17  1  0  0  0  0
 17 18  2  0  0  0  0
 19  5  1  0  0  0  0
 20 21  1  0  0  0  0
 20 19  1  0  0  0  0
 22 24  1  0  0  0  0
 22 20  1  0  0  0  0
 23 21  1  0  0  0  0
 24 23  1  0  0  0  0
 25  4  1  0  0  0  0
 26 25  2  0  0  0  0
 27 28  1  0  0  0  0
 27 26  1  0  0  0  0
 28 29  2  0  0  0  0
 29 25  1  0  0  0  0
 29 30  1  0  0  0  0
 30 31  1  0  0  0  0
 32 30  1  0  0  0  0
M  END
>  <Pose>
1

>  <Score>
-7.965

$$$$
