/Users/jonathanwahrer/Desktop/Msc/3_Semester/Drug_Design_Praktikum/waehrer_HTS_screening/HTS_experiment/out/docking_results/vina_output/6q9y/1315_docked.pdbqt
 OpenBabel03222220033D

 30 33  0  0  1  0  0  0  0  0999 V2000
    1.9140    7.2300  -12.5240 N   0  0  0  0  0  0  0  0  0  0  0  0
    2.5730    8.1860  -13.2570 C   0  0  0  0  0  0  0  0  0  0  0  0
    3.7280    7.6070  -13.6970 C   0  0  0  0  0  0  0  0  0  0  0  0
    4.6160    8.3550  -14.4760 C   0  0  0  0  0  3  0  0  0  0  0  0
    4.3120    9.6630  -14.7860 C   0  0  0  0  0  3  0  0  0  0  0  0
    3.1460   10.2500  -14.3440 C   0  0  0  0  0  3  0  0  0  0  0  0
    2.2660    9.4930  -13.5670 C   0  0  0  0  0  3  0  0  0  0  0  0
    3.7530    6.3360  -13.2400 N   0  0  0  0  0  0  0  0  0  0  0  0
    2.6540    6.0890  -12.5250 C   0  0  2  0  0  3  0  0  0  0  0  0
    0.6100    7.4210  -11.9270 C   0  0  0  0  0  2  0  0  0  0  0  0
   -0.5090    7.1290  -12.8330 C   0  0  1  0  0  3  0  0  0  0  0  0
   -0.6150    5.8780  -13.2210 O   0  0  0  0  0  1  0  0  0  0  0  0
   -1.5260    7.9910  -13.3770 C   0  0  0  0  0  0  0  0  0  0  0  0
   -2.6570    7.5840  -14.0230 C   0  0  0  0  0  3  0  0  0  0  0  0
   -3.5870    8.4630  -14.5000 C   0  0  0  0  0  0  0  0  0  0  0  0
   -5.1800    7.8360  -15.4030 Br  0  0  0  0  0  0  0  0  0  0  0  0
   -3.3940    9.8150  -14.3320 C   0  0  0  0  0  3  0  0  0  0  0  0
   -2.2740   10.2880  -13.6890 C   0  0  0  0  0  3  0  0  0  0  0  0
   -1.3660    9.3770  -13.2250 C   0  0  0  0  0  3  0  0  0  0  0  0
    2.3130    4.9280  -12.0110 N   0  0  0  0  0  0  0  0  0  0  0  0
    1.3590    4.5780  -12.0050 H   0  0  0  0  0  0  0  0  0  0  0  0
    3.0450    4.3570  -11.5670 H   0  0  0  0  0  0  0  0  0  0  0  0
    4.8370    5.4260  -13.5690 C   0  0  0  0  0  2  0  0  0  0  0  0
    6.1480    5.7440  -12.9780 C   0  0  0  0  0  2  0  0  0  0  0  0
    7.3170    5.6460  -13.7770 N   0  0  0  0  0  0  0  0  0  0  0  0
    8.3140    4.7550  -13.1310 C   0  0  0  0  0  2  0  0  0  0  0  0
    8.6550    5.2030  -11.7470 C   0  0  0  0  0  2  0  0  0  0  0  0
    9.3420    6.4120  -11.8680 O   0  0  0  0  0  0  0  0  0  0  0  0
    8.5970    7.3580  -12.5260 C   0  0  0  0  0  2  0  0  0  0  0  0
    8.0450    6.9230  -13.8560 C   0  0  0  0  0  2  0  0  0  0  0  0
  1 10  1  0  0  0  0
  2  1  1  0  0  0  0
  3  2  2  0  0  0  0
  3  8  1  0  0  0  0
  4  3  1  0  0  0  0
  5  4  2  0  0  0  0
  5  6  1  0  0  0  0
  6  7  2  0  0  0  0
  7  2  1  0  0  0  0
  8  9  1  0  0  0  0
  9  1  1  0  0  0  0
  9 20  1  6  0  0  0
 11 12  1  1  0  0  0
 11 10  1  0  0  0  0
 13 19  1  0  0  0  0
 13 11  1  0  0  0  0
 14 13  2  0  0  0  0
 15 17  2  0  0  0  0
 15 14  1  0  0  0  0
 16 15  1  0  0  0  0
 17 18  1  0  0  0  0
 18 19  2  0  0  0  0
 20 21  1  0  0  0  0
 20 22  1  0  0  0  0
 23  8  1  0  0  0  0
 23 24  1  0  0  0  0
 25 26  1  0  0  0  0
 25 24  1  0  0  0  0
 26 27  1  0  0  0  0
 28 27  1  0  0  0  0
 29 28  1  0  0  0  0
 30 25  1  0  0  0  0
 30 29  1  0  0  0  0
M  END
>  <Pose>
1

>  <Score>
-8.319

$$$$
