/Users/jonathanwahrer/Desktop/Msc/3_Semester/Drug_Design_Praktikum/waehrer_HTS_screening/HTS_experiment/out/docking_results/vina_output/6q9y/1325_docked.pdbqt
 OpenBabel03222220033D

 31 34  0  0  1  0  0  0  0  0999 V2000
    0.3090    7.8060  -13.8550 C   0  0  1  0  0  3  0  0  0  0  0  0
    0.3110    6.6570  -12.9980 N   0  0  0  0  0  0  0  0  0  0  0  0
   -0.9310    5.9740  -13.3410 C   0  0  0  0  0  0  0  0  0  0  0  0
   -1.1610    4.7510  -13.2110 O   0  0  0  0  0  0  0  0  0  0  0  0
   -1.8490    6.9710  -13.8600 C   0  0  0  0  0  0  0  0  0  0  0  0
   -3.0350    6.8230  -14.2790 O   0  0  0  0  0  0  0  0  0  0  0  0
   -1.1160    8.2410  -13.8090 C   0  0  0  0  0  0  0  0  0  0  0  0
   -1.6470    9.4320  -13.7780 C   0  0  0  0  0  0  0  0  0  0  0  0
   -0.7930   10.5410  -13.7890 O   0  0  0  0  0  1  0  0  0  0  0  0
    1.2750    8.8500  -13.6230 C   0  0  0  0  0  0  0  0  0  0  0  0
    1.8750    9.4500  -14.7450 C   0  0  0  0  0  3  0  0  0  0  0  0
    2.7930   10.4650  -14.6480 C   0  0  0  0  0  3  0  0  0  0  0  0
    3.1720   10.9500  -13.4220 C   0  0  0  0  0  0  0  0  0  0  0  0
    4.4510   12.3660  -13.2490 Br  0  0  0  0  0  0  0  0  0  0  0  0
    2.5890   10.3680  -12.3200 C   0  0  0  0  0  3  0  0  0  0  0  0
    1.6650    9.3460  -12.4180 C   0  0  0  0  0  3  0  0  0  0  0  0
   -3.1090    9.6280  -13.7250 C   0  0  0  0  0  0  0  0  0  0  0  0
   -3.9260    9.6140  -14.7720 O   0  0  0  0  0  0  0  0  0  0  0  0
   -5.1670    9.8190  -14.4150 C   0  0  0  0  0  0  0  0  0  0  0  0
   -5.2350    9.9900  -13.0480 C   0  0  0  0  0  0  0  0  0  0  0  0
   -6.3710    9.8950  -15.1230 C   0  0  0  0  0  3  0  0  0  0  0  0
   -3.9180    9.8640  -12.6400 C   0  0  0  0  0  3  0  0  0  0  0  0
   -6.4430   10.2210  -12.4290 C   0  0  0  0  0  3  0  0  0  0  0  0
   -7.6340   10.2970  -13.1160 C   0  0  0  0  0  3  0  0  0  0  0  0
   -7.5710   10.1280  -14.4880 C   0  0  0  0  0  3  0  0  0  0  0  0
    1.2630    6.1320  -12.0440 C   0  0  0  0  0  2  0  0  0  0  0  0
    2.0980    4.9910  -12.4500 C   0  0  0  0  0  2  0  0  0  0  0  0
    3.5170    5.2130  -12.5500 N   0  0  0  0  0  4  0  0  0  0  0  0
    4.2310    4.0400  -12.9700 C   0  0  0  0  0  1  0  0  0  0  0  0
    3.8950    6.4230  -13.2240 C   0  0  0  0  0  1  0  0  0  0  0  0
    3.8220    5.3570  -11.5270 H   0  0  0  0  0  0  0  0  0  0  0  0
  1  7  1  0  0  0  0
  1 10  1  1  0  0  0
  1  2  1  0  0  0  0
  2 26  1  0  0  0  0
  3  4  2  0  0  0  0
  3  2  1  0  0  0  0
  5  7  1  0  0  0  0
  5  3  1  0  0  0  0
  6  5  2  0  0  0  0
  7  8  2  0  0  0  0
  8 17  1  0  0  0  0
  9  8  1  0  0  0  0
 10 16  1  0  0  0  0
 11 12  1  0  0  0  0
 11 10  2  0  0  0  0
 12 13  2  0  0  0  0
 13 14  1  0  0  0  0
 13 15  1  0  0  0  0
 16 15  2  0  0  0  0
 17 22  2  0  0  0  0
 18 19  1  0  0  0  0
 18 17  1  0  0  0  0
 19 20  1  0  0  0  0
 20 22  1  0  0  0  0
 20 23  2  0  0  0  0
 21 25  1  0  0  0  0
 21 19  2  0  0  0  0
 24 23  1  0  0  0  0
 25 24  2  0  0  0  0
 27 26  1  0  0  0  0
 28 27  1  0  0  0  0
 28 31  1  0  0  0  0
 29 28  1  0  0  0  0
 30 28  1  0  0  0  0
M  END
>  <Pose>
1

>  <Score>
-6.880

$$$$
