/Users/jonathanwahrer/Desktop/Msc/3_Semester/Drug_Design_Praktikum/waehrer_HTS_screening/HTS_experiment/out/docking_results/vina_output/6q9y/1337_docked.pdbqt
 OpenBabel03222220043D

 32 35  0  0  1  0  0  0  0  0999 V2000
    0.1490   10.1850  -13.8230 C   0  0  2  0  0  3  0  0  0  0  0  0
    0.2440    8.8740  -14.1070 O   0  0  0  0  0  0  0  0  0  0  0  0
    1.4750    8.2970  -14.1130 C   0  0  2  0  0  3  0  0  0  0  0  0
    1.2940    6.9070  -14.0770 O   0  0  0  0  0  0  0  0  0  0  0  0
    1.2370    6.5310  -12.7570 C   0  0  0  0  0  0  0  0  0  0  0  0
    1.5880    7.6120  -11.9730 O   0  0  0  0  0  0  0  0  0  0  0  0
    2.2550    8.5110  -12.8370 C   0  0  2  0  0  3  0  0  0  0  0  0
    2.1860    9.9090  -12.3560 C   0  0  1  0  0  3  0  0  0  0  0  0
    3.4270   10.5680  -12.5080 O   0  0  0  0  0  0  0  0  0  0  0  0
    3.1680   11.8290  -12.9830 C   0  0  0  0  0  0  0  0  0  0  0  0
    2.0270   11.6850  -13.7280 O   0  0  0  0  0  0  0  0  0  0  0  0
    1.2160   10.8030  -12.9990 C   0  0  1  0  0  3  0  0  0  0  0  0
    4.3630   12.2270  -13.8580 C   0  0  0  0  0  1  0  0  0  0  0  0
    3.0740   12.8720  -11.9000 C   0  0  0  0  0  1  0  0  0  0  0  0
    2.2360    5.4180  -12.4380 C   0  0  0  0  0  1  0  0  0  0  0  0
   -0.1320    6.0020  -12.3600 C   0  0  0  0  0  1  0  0  0  0  0  0
   -1.1940   10.4540  -13.2440 C   0  0  0  0  0  0  0  0  0  0  0  0
   -2.1410    9.4060  -13.1350 N   0  0  0  0  0  0  0  0  0  0  0  0
   -1.8650    8.4580  -13.4700 H   0  0  0  0  0  0  0  0  0  0  0  0
   -1.5340   11.5980  -12.8370 O   0  0  0  0  0  0  0  0  0  0  0  0
   -3.4550    9.5770  -12.5910 C   0  0  0  0  0  2  0  0  0  0  0  0
   -4.4380    9.8940  -13.6600 C   0  0  0  0  0  0  0  0  0  0  0  0
   -5.8040   10.1010  -13.3960 N   0  0  0  0  0  0  0  0  0  0  0  0
   -6.0850   10.0120  -12.3660 H   0  0  0  0  0  0  0  0  0  0  0  0
   -3.9900    9.9700  -14.8210 O   0  0  0  0  0  0  0  0  0  0  0  0
   -6.8280   10.4020  -14.2880 C   0  0  0  0  0  0  0  0  0  0  0  0
   -7.6000   11.5370  -14.0810 C   0  0  0  0  0  3  0  0  0  0  0  0
   -8.6330   11.9200  -14.9040 C   0  0  0  0  0  3  0  0  0  0  0  0
   -8.9450   11.1530  -16.0050 C   0  0  0  0  0  0  0  0  0  0  0  0
  -10.3880   11.7090  -17.1350 Br  0  0  0  0  0  0  0  0  0  0  0  0
   -8.2160   10.0330  -16.2470 C   0  0  0  0  0  3  0  0  0  0  0  0
   -7.1650    9.6570  -15.3960 C   0  0  0  0  0  3  0  0  0  0  0  0
  1 17  1  1  0  0  0
  1 12  1  0  0  0  0
  2  1  1  0  0  0  0
  3  2  1  1  0  0  0
  3  4  1  0  0  0  0
  3  7  1  0  0  0  0
  4  5  1  0  0  0  0
  5 15  1  0  0  0  0
  5 16  1  0  0  0  0
  5  6  1  0  0  0  0
  7  8  1  0  0  0  0
  7  6  1  1  0  0  0
  8  9  1  6  0  0  0
 10  9  1  0  0  0  0
 10 14  1  0  0  0  0
 11 10  1  0  0  0  0
 12 11  1  6  0  0  0
 12  8  1  0  0  0  0
 13 10  1  0  0  0  0
 17 18  1  0  0  0  0
 17 20  2  0  0  0  0
 18 21  1  0  0  0  0
 19 18  1  0  0  0  0
 22 23  1  0  0  0  0
 22 21  1  0  0  0  0
 23 24  1  0  0  0  0
 25 22  2  0  0  0  0
 26 27  1  0  0  0  0
 26 23  1  0  0  0  0
 28 27  2  0  0  0  0
 29 28  1  0  0  0  0
 30 29  1  0  0  0  0
 31 29  2  0  0  0  0
 31 32  1  0  0  0  0
 32 26  2  0  0  0  0
M  END
>  <Pose>
1

>  <Score>
-9.009

$$$$
