/Users/jonathanwahrer/Desktop/Msc/3_Semester/Drug_Design_Praktikum/waehrer_HTS_screening/HTS_experiment/out/docking_results/vina_output/6q9y/1355_docked.pdbqt
 OpenBabel03222220053D

 27 30  0  0  1  0  0  0  0  0999 V2000
    0.7460   13.2360  -13.1840 N   0  0  0  0  0  0  0  0  0  0  0  0
    1.6180   12.1330  -13.1730 C   0  0  0  0  0  0  0  0  0  0  0  0
    2.6600   12.1790  -12.4830 O   0  0  0  0  0  0  0  0  0  0  0  0
   -0.1180   13.1920  -13.7590 H   0  0  0  0  0  0  0  0  0  0  0  0
    1.0290   14.4300  -12.4080 C   0  0  0  0  0  2  0  0  0  0  0  0
    0.0370   15.5150  -12.7410 C   0  0  0  0  0  0  0  0  0  0  0  0
   -0.3920   15.8760  -13.9240 O   0  0  0  0  0  0  0  0  0  0  0  0
   -1.2550   16.8630  -13.8050 N   0  0  0  0  0  0  0  0  0  0  0  0
   -1.4050   17.1700  -12.5060 C   0  0  0  0  0  0  0  0  0  0  0  0
   -0.5910   16.3190  -11.8560 N   0  0  0  0  0  0  0  0  0  0  0  0
   -2.2610   18.2000  -11.9290 C   0  0  0  0  0  0  0  0  0  0  0  0
   -3.4540   18.5780  -12.5080 C   0  0  0  0  0  0  0  0  0  0  0  0
   -3.9320   17.7760  -13.9840 Cl  0  0  0  0  0  0  0  0  0  0  0  0
   -4.2750   19.5600  -11.9620 C   0  0  0  0  0  3  0  0  0  0  0  0
   -3.9090   20.1950  -10.8020 C   0  0  0  0  0  3  0  0  0  0  0  0
   -2.7000   19.8250  -10.1990 C   0  0  0  0  0  3  0  0  0  0  0  0
   -1.9150   18.8500  -10.7690 C   0  0  0  0  0  3  0  0  0  0  0  0
    1.3120   10.9340  -13.9680 C   0  0  1  0  0  3  0  0  0  0  0  0
    2.4820    9.9700  -14.0210 C   0  0  0  0  0  2  0  0  0  0  0  0
    2.0970    8.6800  -14.6660 C   0  0  0  0  0  2  0  0  0  0  0  0
    1.6170    7.6230  -13.7260 C   0  0  0  0  0  2  0  0  0  0  0  0
    0.9640    8.2100  -12.4790 C   0  0  0  0  0  2  0  0  0  0  0  0
   -0.0860    9.0990  -12.9210 N   0  0  0  0  0  0  0  0  0  0  0  0
   -1.3580    8.8610  -12.7440 N   0  0  0  0  0  0  0  0  0  0  0  0
    0.0670   10.2660  -13.5600 C   0  0  0  0  0  0  0  0  0  0  0  0
   -2.0460    9.8510  -13.2560 N   0  0  0  0  0  0  0  0  0  0  0  0
   -1.1850   10.7160  -13.7560 N   0  0  0  0  0  0  0  0  0  0  0  0
  1  2  1  0  0  0  0
  1  5  1  0  0  0  0
  2  3  2  0  0  0  0
  4  1  1  0  0  0  0
  6  5  1  0  0  0  0
  6 10  2  0  0  0  0
  7  8  1  0  0  0  0
  7  6  1  0  0  0  0
  8  9  2  0  0  0  0
  9 11  1  0  0  0  0
  9 10  1  0  0  0  0
 11 17  1  0  0  0  0
 12 14  1  0  0  0  0
 12 11  2  0  0  0  0
 13 12  1  0  0  0  0
 14 15  2  0  0  0  0
 15 16  1  0  0  0  0
 17 16  2  0  0  0  0
 18 25  1  0  0  0  0
 18  2  1  1  0  0  0
 19 18  1  0  0  0  0
 20 19  1  0  0  0  0
 20 21  1  0  0  0  0
 21 22  1  0  0  0  0
 23 24  1  0  0  0  0
 23 22  1  0  0  0  0
 25 23  1  0  0  0  0
 26 24  2  0  0  0  0
 27 25  2  0  0  0  0
 27 26  1  0  0  0  0
M  END
>  <Pose>
1

>  <Score>
-9.772

$$$$
