/Users/jonathanwahrer/Desktop/Msc/3_Semester/Drug_Design_Praktikum/waehrer_HTS_screening/HTS_experiment/out/docking_results/vina_output/6q9y/1360_docked.pdbqt
 OpenBabel03222220053D

 34 37  0  0  1  0  0  0  0  0999 V2000
    1.8440    9.1910  -12.5050 C   0  0  1  0  0  3  0  0  0  0  0  0
    1.4450   10.5370  -12.8250 N   0  0  0  0  0  0  0  0  0  0  0  0
    0.5240   10.3050  -13.9610 C   0  0  2  0  0  3  0  0  0  0  0  0
   -0.0720   11.5490  -14.2600 N   0  0  0  0  0  0  0  0  0  0  0  0
    0.5520   12.5400  -13.4380 C   0  0  0  0  0  0  0  0  0  0  0  0
    1.4600   11.9070  -12.5870 C   0  0  0  0  0  0  0  0  0  0  0  0
    2.1840   12.6760  -11.7000 C   0  0  0  0  0  0  0  0  0  0  0  0
    2.9950   12.0840  -10.9430 O   0  0  0  0  0  0  0  0  0  0  0  0
    2.0030   14.0020  -11.6740 N   0  0  0  0  0  0  0  0  0  0  0  0
    1.1370   14.5740  -12.4920 C   0  0  0  0  0  0  0  0  0  0  0  0
    0.9970   15.8270  -12.4350 O   0  0  0  0  0  0  0  0  0  0  0  0
    0.3890   13.8650  -13.3930 N   0  0  0  0  0  0  0  0  0  0  0  0
   -0.5200   14.6120  -14.2320 C   0  0  0  0  0  1  0  0  0  0  0  0
    2.7940   14.7820  -10.7160 C   0  0  0  0  0  1  0  0  0  0  0  0
   -1.0980   11.8370  -15.2290 C   0  0  0  0  0  1  0  0  0  0  0  0
   -0.2830    9.1450  -13.5510 C   0  0  1  0  0  3  0  0  0  0  0  0
    0.4440    8.5850  -12.3210 C   0  0  1  0  0  3  0  0  0  0  0  0
    2.5040    8.5390  -13.6130 C   0  0  2  0  0  3  0  0  0  0  0  0
    1.9100    8.7260  -14.7580 O   0  0  0  0  0  1  0  0  0  0  0  0
    3.6970    7.7240  -13.6620 C   0  0  0  0  0  0  0  0  0  0  0  0
    3.7480    6.4410  -13.1700 C   0  0  0  0  0  3  0  0  0  0  0  0
    4.9290    5.7430  -13.2250 C   0  0  0  0  0  3  0  0  0  0  0  0
    6.0790    6.2980  -13.7670 C   0  0  0  0  0  0  0  0  0  0  0  0
    7.7050    5.3050  -13.8300 Br  0  0  0  0  0  0  0  0  0  0  0  0
    6.0210    7.5890  -14.2600 C   0  0  0  0  0  3  0  0  0  0  0  0
    4.8460    8.2990  -14.2100 C   0  0  0  0  0  3  0  0  0  0  0  0
    0.4470    7.1260  -12.3070 C   0  0  0  0  0  0  0  0  0  0  0  0
    0.8120    6.4990  -11.2580 O   0  0  0  0  0  0  0  0  0  0  0  0
    0.0660    6.3870  -13.3950 O   0  0  0  0  0  0  0  0  0  0  0  0
   -1.1310    5.6060  -13.4270 C   0  0  0  0  0  1  0  0  0  0  0  0
   -1.7030    9.3310  -13.2840 C   0  0  0  0  0  0  0  0  0  0  0  0
   -2.0710   10.0770  -12.3390 O   0  0  0  0  0  0  0  0  0  0  0  0
   -2.6730    8.7120  -14.0410 O   0  0  0  0  0  0  0  0  0  0  0  0
   -3.9020    9.3450  -14.3240 C   0  0  0  0  0  1  0  0  0  0  0  0
  1 18  1  6  0  0  0
  1 17  1  0  0  0  0
  2  6  1  0  0  0  0
  2  1  1  0  0  0  0
  3  4  1  1  0  0  0
  3 16  1  0  0  0  0
  3  2  1  0  0  0  0
  4  5  1  0  0  0  0
  5 12  1  0  0  0  0
  5  6  2  0  0  0  0
  6  7  1  0  0  0  0
  7  9  1  0  0  0  0
  7  8  2  0  0  0  0
  9 14  1  0  0  0  0
 10 11  2  0  0  0  0
 10  9  1  0  0  0  0
 12 10  1  0  0  0  0
 13 12  1  0  0  0  0
 15  4  1  0  0  0  0
 16 31  1  1  0  0  0
 16 17  1  0  0  0  0
 17 27  1  6  0  0  0
 18 19  1  1  0  0  0
 20 18  1  0  0  0  0
 20 21  1  0  0  0  0
 22 21  2  0  0  0  0
 23 22  1  0  0  0  0
 24 23  1  0  0  0  0
 25 26  1  0  0  0  0
 25 23  2  0  0  0  0
 26 20  2  0  0  0  0
 27 28  2  0  0  0  0
 29 27  1  0  0  0  0
 30 29  1  0  0  0  0
 31 32  2  0  0  0  0
 33 31  1  0  0  0  0
 34 33  1  0  0  0  0
M  END
>  <Pose>
1

>  <Score>
-4.733

$$$$
