/Users/jonathanwahrer/Desktop/Msc/3_Semester/Drug_Design_Praktikum/waehrer_HTS_screening/HTS_experiment/out/docking_results/vina_output/6q9y/1372_docked.pdbqt
 OpenBabel03222220053D

 31 34  0  0  1  0  0  0  0  0999 V2000
    6.9940    6.4160  -12.6900 C   0  0  0  0  0  0  0  0  0  0  0  0
    6.6320    6.6770  -11.5240 O   0  0  0  0  0  0  0  0  0  0  0  0
    8.3550    6.3910  -13.0140 N   0  0  0  0  0  0  0  0  0  0  0  0
    9.5050    6.2890  -12.1800 C   0  0  0  0  0  2  0  0  0  0  0  0
   10.5380    5.5510  -13.0470 C   0  0  0  0  0  2  0  0  0  0  0  0
    9.8830    4.6110  -14.0300 C   0  0  1  0  0  0  0  0  0  0  0  0
   10.8610    3.9360  -14.8380 N   0  0  0  0  0  0  0  0  0  0  0  0
   10.1370    3.1200  -15.8230 C   0  0  0  0  0  2  0  0  0  0  0  0
    9.3890    1.9970  -15.1730 C   0  0  0  0  0  2  0  0  0  0  0  0
    8.8880    2.3470  -13.8250 C   0  0  0  0  0  0  0  0  0  0  0  0
    8.1790    1.6260  -12.9510 N   0  0  0  0  0  0  0  0  0  0  0  0
    7.9570    2.3780  -11.8550 C   0  0  0  0  0  3  0  0  0  0  0  0
    8.5360    3.5680  -12.0650 N   0  0  0  0  0  0  0  0  0  0  0  0
    9.1300    3.6100  -13.2660 C   0  0  0  0  0  0  0  0  0  0  0  0
    8.9920    5.3480  -15.0420 C   0  0  0  0  0  2  0  0  0  0  0  0
    8.7470    6.6630  -14.4370 C   0  0  0  0  0  2  0  0  0  0  0  0
   11.3950    4.6420  -15.3990 H   0  0  0  0  0  0  0  0  0  0  0  0
    7.8200    0.6480  -13.0230 H   0  0  0  0  0  0  0  0  0  0  0  0
    5.9310    6.1230  -13.6990 C   0  0  1  0  0  3  0  0  0  0  0  0
    5.4420    4.6790  -13.4130 C   0  0  0  0  0  1  0  0  0  0  0  0
    4.7380    6.9180  -13.5370 N   0  0  0  0  0  0  0  0  0  0  0  0
    4.6180    8.1670  -14.2690 C   0  0  0  0  0  0  0  0  0  0  0  0
    5.4920    8.5420  -15.0600 O   0  0  0  0  0  0  0  0  0  0  0  0
    3.9870    6.6070  -12.9230 H   0  0  0  0  0  0  0  0  0  0  0  0
    3.4050    8.9570  -13.9980 C   0  0  0  0  0  0  0  0  0  0  0  0
    2.2420    8.2620  -13.6260 C   0  0  0  0  0  3  0  0  0  0  0  0
    1.0480    8.8850  -13.3640 C   0  0  0  0  0  0  0  0  0  0  0  0
   -0.4930    7.8430  -12.8490 Br  0  0  0  0  0  0  0  0  0  0  0  0
    0.9850   10.2540  -13.4710 C   0  0  0  0  0  3  0  0  0  0  0  0
    2.1210   10.9560  -13.8410 C   0  0  0  0  0  3  0  0  0  0  0  0
    3.3260   10.3120  -14.1050 C   0  0  0  0  0  3  0  0  0  0  0  0
  1  2  2  0  0  0  0
  3  1  1  0  0  0  0
  3  4  1  0  0  0  0
  5  4  1  0  0  0  0
  6 15  1  6  0  0  0
  6 14  1  0  0  0  0
  6  5  1  0  0  0  0
  7  6  1  0  0  0  0
  8  9  1  0  0  0  0
  8  7  1  0  0  0  0
  9 10  1  0  0  0  0
 10 14  2  0  0  0  0
 10 11  1  0  0  0  0
 11 12  1  0  0  0  0
 13 12  2  0  0  0  0
 14 13  1  0  0  0  0
 15 16  1  0  0  0  0
 16  3  1  0  0  0  0
 17  7  1  0  0  0  0
 18 11  1  0  0  0  0
 19 21  1  0  0  0  0
 19 20  1  1  0  0  0
 19  1  1  0  0  0  0
 21 24  1  0  0  0  0
 22 25  1  0  0  0  0
 22 21  1  0  0  0  0
 23 22  2  0  0  0  0
 25 26  1  0  0  0  0
 26 27  2  0  0  0  0
 27 28  1  0  0  0  0
 29 27  1  0  0  0  0
 30 29  2  0  0  0  0
 31 25  2  0  0  0  0
 31 30  1  0  0  0  0
M  END
>  <Pose>
1

>  <Score>
-6.841

$$$$
