/Users/jonathanwahrer/Desktop/Msc/3_Semester/Drug_Design_Praktikum/waehrer_HTS_screening/HTS_experiment/out/docking_results/vina_output/6q9y/1386_docked.pdbqt
 OpenBabel03222220063D

 33 36  0  0  1  0  0  0  0  0999 V2000
   -0.2900   14.3250  -12.7370 C   0  0  0  0  0  0  0  0  0  0  0  0
   -1.2070   13.4730  -12.7060 O   0  0  0  0  0  0  0  0  0  0  0  0
    1.0220   13.9210  -13.1850 N   0  0  0  0  0  0  0  0  0  0  0  0
    1.2310   12.5550  -13.5800 C   0  0  0  0  0  2  0  0  0  0  0  0
    2.1550   11.9290  -12.5560 C   0  0  2  0  0  3  0  0  0  0  0  0
    3.1340   12.8840  -11.9750 C   0  0  2  0  0  0  0  0  0  0  0  0
    3.3790   14.1150  -12.7670 C   0  0  0  0  0  2  0  0  0  0  0  0
    2.1510   14.8050  -13.2640 C   0  0  0  0  0  2  0  0  0  0  0  0
    4.4730   12.1440  -11.8520 C   0  0  0  0  0  1  0  0  0  0  0  0
   -0.4970   15.7210  -12.3350 C   0  0  0  0  0  2  0  0  0  0  0  0
   -1.1970   16.6130  -13.2690 C   0  0  0  0  0  2  0  0  0  0  0  0
   -2.1310   17.6090  -12.6860 C   0  0  0  0  0  0  0  0  0  0  0  0
   -1.9090   18.2810  -11.5020 N   0  0  0  0  0  0  0  0  0  0  0  0
   -2.9680   19.0590  -11.2300 C   0  0  0  0  0  0  0  0  0  0  0  0
   -3.2740   19.9280  -10.1950 C   0  0  0  0  0  3  0  0  0  0  0  0
   -3.8940   18.9020  -12.2350 C   0  0  0  0  0  0  0  0  0  0  0  0
   -4.4670   20.6120  -10.1750 C   0  0  0  0  0  0  0  0  0  0  0  0
   -4.8110   21.7110   -8.8300 Cl  0  0  0  0  0  0  0  0  0  0  0  0
   -5.3860   20.4430  -11.1930 C   0  0  0  0  0  3  0  0  0  0  0  0
   -5.0920   19.5840  -12.2240 C   0  0  0  0  0  3  0  0  0  0  0  0
   -3.3310   18.0050  -13.0950 N   0  0  0  0  0  0  0  0  0  0  0  0
   -4.0550   17.5580  -14.2720 C   0  0  0  0  0  1  0  0  0  0  0  0
    2.7650   10.7700  -13.1620 N   0  0  0  0  0  0  0  0  0  0  0  0
    3.5760   10.9100  -14.2280 C   0  0  0  0  0  3  0  0  0  0  0  0
    4.1790    9.8320  -14.8380 C   0  0  0  0  0  3  0  0  0  0  0  0
    3.9380    8.5750  -14.3330 C   0  0  0  0  0  0  0  0  0  0  0  0
    4.4660    7.5370  -14.8520 O   0  0  0  0  0  0  0  0  0  0  0  0
    3.1250    8.4660  -13.2710 N   0  0  0  0  0  0  0  0  0  0  0  0
    2.5530    9.5270  -12.6980 C   0  0  0  0  0  0  0  0  0  0  0  0
    2.9110    7.5130  -12.8490 H   0  0  0  0  0  0  0  0  0  0  0  0
    1.7950    9.3690  -11.6980 O   0  0  0  0  0  0  0  0  0  0  0  0
    2.8060   13.2700  -10.6660 O   0  0  0  0  0  0  0  0  0  0  0  0
    3.6660   13.4640  -10.1780 H   0  0  0  0  0  0  0  0  0  0  0  0
  1  2  2  0  0  0  0
  1 10  1  0  0  0  0
  3  1  1  0  0  0  0
  4  3  1  0  0  0  0
  5  4  1  6  0  0  0
  5  6  1  0  0  0  0
  6  9  1  1  0  0  0
  6 32  1  0  0  0  0
  7  6  1  0  0  0  0
  8  3  1  0  0  0  0
  8  7  1  0  0  0  0
 11 12  1  0  0  0  0
 11 10  1  0  0  0  0
 12 13  2  0  0  0  0
 13 14  1  0  0  0  0
 14 15  1  0  0  0  0
 15 17  2  0  0  0  0
 16 20  1  0  0  0  0
 16 14  2  0  0  0  0
 17 18  1  0  0  0  0
 19 17  1  0  0  0  0
 20 19  2  0  0  0  0
 21 12  1  0  0  0  0
 21 16  1  0  0  0  0
 22 21  1  0  0  0  0
 23 29  1  0  0  0  0
 23  5  1  0  0  0  0
 24 23  1  0  0  0  0
 25 26  1  0  0  0  0
 25 24  2  0  0  0  0
 26 28  1  0  0  0  0
 27 26  2  0  0  0  0
 28 30  1  0  0  0  0
 28 29  1  0  0  0  0
 29 31  2  0  0  0  0
 32 33  1  0  0  0  0
M  END
>  <Pose>
1

>  <Score>
-8.991

$$$$
