/Users/jonathanwahrer/Desktop/Msc/3_Semester/Drug_Design_Praktikum/waehrer_HTS_screening/HTS_experiment/out/docking_results/vina_output/6q9y/1404_docked.pdbqt
 OpenBabel03222220063D

 26 29  0  0  1  0  0  0  0  0999 V2000
   -6.3960   20.6780  -11.3030 Br  0  0  0  0  0  0  0  0  0  0  0  0
   -6.3860   21.8660   -9.8110 C   0  0  0  0  0  0  0  0  0  0  0  0
   -7.4950   22.6270   -9.4940 C   0  0  0  0  0  3  0  0  0  0  0  0
   -7.5370   23.5000   -8.4270 C   0  0  0  0  0  0  0  0  0  0  0  0
   -6.3710   23.5790   -7.6590 C   0  0  0  0  0  0  0  0  0  0  0  0
   -5.2690   22.8230   -7.9750 C   0  0  0  0  0  3  0  0  0  0  0  0
   -5.2420   21.9540   -9.0460 C   0  0  0  0  0  0  0  0  0  0  0  0
   -4.0180   21.1570   -9.3420 C   0  0  0  0  0  1  0  0  0  0  0  0
   -6.4510   24.4650   -6.5940 O   0  0  0  0  0  0  0  0  0  0  0  0
   -7.5050   25.3900   -6.4000 C   0  0  0  0  0  2  0  0  0  0  0  0
   -8.8860   24.7120   -6.6880 C   0  0  2  0  0  0  0  0  0  0  0  0
   -8.7000   24.3140   -8.1040 C   0  0  0  0  0  0  0  0  0  0  0  0
   -9.4320   24.6030   -9.0670 O   0  0  0  0  0  0  0  0  0  0  0  0
   -9.9540   25.5040   -6.4000 N   0  0  0  0  0  0  0  0  0  0  0  0
  -11.0330   25.7170   -7.2660 C   0  0  0  0  0  2  0  0  0  0  0  0
  -10.8880   27.0570   -7.9560 C   0  0  0  0  0  2  0  0  0  0  0  0
  -11.0250   28.0240   -6.9320 O   0  0  0  0  0  0  0  0  0  0  0  0
   -9.8250   27.9290   -6.2060 C   0  0  0  0  0  2  0  0  0  0  0  0
   -9.8060   26.5670   -5.5080 C   0  0  0  0  0  2  0  0  0  0  0  0
   -8.8520   23.5070   -5.8170 C   0  0  0  0  0  2  0  0  0  0  0  0
   -9.8420   23.3780   -4.7940 N   0  0  0  0  0  0  0  0  0  0  0  0
  -10.7950   22.3400   -4.9010 C   0  0  0  0  0  2  0  0  0  0  0  0
  -10.1660   20.9890   -4.5280 C   0  0  0  0  0  2  0  0  0  0  0  0
   -9.8620   21.0830   -3.1660 O   0  0  0  0  0  0  0  0  0  0  0  0
   -8.8010   21.9880   -3.0500 C   0  0  0  0  0  2  0  0  0  0  0  0
   -9.1730   23.3710   -3.4910 C   0  0  0  0  0  2  0  0  0  0  0  0
  1  2  1  0  0  0  0
  2  3  2  0  0  0  0
  2  7  1  0  0  0  0
  3  4  1  0  0  0  0
  4 12  1  0  0  0  0
  4  5  2  0  0  0  0
  5  9  1  0  0  0  0
  6  5  1  0  0  0  0
  7  6  2  0  0  0  0
  8  7  1  0  0  0  0
  9 10  1  0  0  0  0
 11 14  1  0  0  0  0
 11 10  1  0  0  0  0
 11 20  1  1  0  0  0
 12 11  1  0  0  0  0
 13 12  2  0  0  0  0
 14 19  1  0  0  0  0
 15 14  1  0  0  0  0
 16 15  1  0  0  0  0
 16 17  1  0  0  0  0
 17 18  1  0  0  0  0
 18 19  1  0  0  0  0
 20 21  1  0  0  0  0
 21 26  1  0  0  0  0
 22 21  1  0  0  0  0
 22 23  1  0  0  0  0
 23 24  1  0  0  0  0
 24 25  1  0  0  0  0
 26 25  1  0  0  0  0
M  END
>  <Pose>
1

>  <Score>
-5.529

$$$$
