/Users/jonathanwahrer/Desktop/Msc/3_Semester/Drug_Design_Praktikum/waehrer_HTS_screening/HTS_experiment/out/docking_results/vina_output/6q9y/1428_docked.pdbqt
 OpenBabel03222220073D

 37 40  0  0  1  0  0  0  0  0999 V2000
    0.9240    7.1680  -11.0800 Cl  0  0  0  0  0  0  0  0  0  0  0  0
    2.1430    6.1280  -11.8090 C   0  0  0  0  0  0  0  0  0  0  0  0
    3.3940    6.5870  -12.1280 C   0  0  0  0  0  3  0  0  0  0  0  0
    4.3100    5.7320  -12.6970 C   0  0  0  0  0  0  0  0  0  0  0  0
    3.9310    4.4350  -12.9270 C   0  0  0  0  0  0  0  0  0  0  0  0
    2.6540    3.9690  -12.6010 C   0  0  0  0  0  3  0  0  0  0  0  0
    1.7550    4.8260  -12.0380 C   0  0  0  0  0  3  0  0  0  0  0  0
    4.9760    3.6610  -13.5040 N   0  0  0  0  0  0  0  0  0  0  0  0
    6.0700    4.5240  -13.6410 C   0  0  0  0  0  0  0  0  0  0  0  0
    7.1840    4.1290  -14.1200 O   0  0  0  0  0  0  0  0  0  0  0  0
    5.7100    5.8670  -13.1640 C   0  0  2  0  0  0  0  0  0  0  0  0
    6.6080    6.2100  -12.0980 N   0  0  0  0  0  0  0  0  0  0  0  0
    7.4610    7.2710  -12.5330 C   0  0  2  0  0  3  0  0  0  0  0  0
    7.3010    7.3930  -14.0140 C   0  0  0  0  0  2  0  0  0  0  0  0
    5.9150    6.8530  -14.2300 C   0  0  2  0  0  3  0  0  0  0  0  0
    4.9410    2.6420  -13.7760 H   0  0  0  0  0  0  0  0  0  0  0  0
    6.0890    6.4140  -11.2180 H   0  0  0  0  0  0  0  0  0  0  0  0
    4.8920    7.9240  -14.3460 C   0  0  0  0  0  0  0  0  0  0  0  0
    4.3110    8.0120  -15.4540 O   0  0  0  0  0  0  0  0  0  0  0  0
    4.5650    8.8030  -13.3070 N   0  0  0  0  0  0  0  0  0  0  0  0
    5.1070    8.6360  -12.4040 H   0  0  0  0  0  0  0  0  0  0  0  0
    3.6330    9.8420  -13.2980 C   0  0  0  0  0  0  0  0  0  0  0  0
    2.3440    9.6010  -13.7520 C   0  0  0  0  0  0  0  0  0  0  0  0
    1.3720   10.5800  -13.7700 C   0  0  0  0  0  3  0  0  0  0  0  0
    1.6390   11.8540  -13.3350 C   0  0  0  0  0  3  0  0  0  0  0  0
    2.8990   12.1210  -12.8830 C   0  0  0  0  0  0  0  0  0  0  0  0
    3.8700   11.1230  -12.8690 C   0  0  0  0  0  3  0  0  0  0  0  0
    1.9970    8.3410  -14.2080 O   0  0  0  0  0  0  0  0  0  0  0  0
    0.7000    7.9620  -14.5530 C   0  0  0  0  0  1  0  0  0  0  0  0
    3.2080   13.3920  -12.4340 O   0  0  0  0  0  0  0  0  0  0  0  0
    2.5050   14.0250  -11.3810 C   0  0  0  0  0  1  0  0  0  0  0  0
    8.9080    7.0330  -12.1330 C   0  0  0  0  0  2  0  0  0  0  0  0
    9.2520    5.6040  -12.1350 C   0  0  0  0  0  0  0  0  0  0  0  0
    9.0220    4.9020  -11.1380 O   0  0  0  0  0  0  0  0  0  0  0  0
    9.8450    5.0300  -13.2750 N   0  0  0  0  0  0  0  0  0  0  0  0
    9.4550    4.1320  -13.6340 H   0  0  0  0  0  0  0  0  0  0  0  0
   10.6570    5.4440  -13.7940 H   0  0  0  0  0  0  0  0  0  0  0  0
  2  1  1  0  0  0  0
  3  2  2  0  0  0  0
  4  3  1  0  0  0  0
  5  4  2  0  0  0  0
  5  6  1  0  0  0  0
  6  7  2  0  0  0  0
  7  2  1  0  0  0  0
  8  5  1  0  0  0  0
  9  8  1  0  0  0  0
 10  9  2  0  0  0  0
 11  9  1  6  0  0  0
 11  4  1  0  0  0  0
 11 12  1  0  0  0  0
 12 17  1  0  0  0  0
 13 32  1  6  0  0  0
 13 12  1  0  0  0  0
 14 13  1  0  0  0  0
 15 18  1  1  0  0  0
 15 14  1  0  0  0  0
 15 11  1  0  0  0  0
 16  8  1  0  0  0  0
 18 20  1  0  0  0  0
 19 18  2  0  0  0  0
 20 22  1  0  0  0  0
 20 21  1  0  0  0  0
 22 27  1  0  0  0  0
 23 22  2  0  0  0  0
 24 23  1  0  0  0  0
 24 25  2  0  0  0  0
 25 26  1  0  0  0  0
 26 27  2  0  0  0  0
 26 30  1  0  0  0  0
 28 23  1  0  0  0  0
 29 28  1  0  0  0  0
 30 31  1  0  0  0  0
 33 32  1  0  0  0  0
 33 34  2  0  0  0  0
 35 33  1  0  0  0  0
 36 35  1  0  0  0  0
 37 35  1  0  0  0  0
M  END
>  <Pose>
1

>  <Score>
-6.855

$$$$
