/Users/jonathanwahrer/Desktop/Msc/3_Semester/Drug_Design_Praktikum/waehrer_HTS_screening/HTS_experiment/out/docking_results/vina_output/6q9y/1435_docked.pdbqt
 OpenBabel03222220083D

 32 35  0  0  0  0  0  0  0  0999 V2000
    2.4410    8.4710  -14.6100 C   0  0  0  0  0  2  0  0  0  0  0  0
    3.0620    8.1810  -13.2500 C   0  0  0  0  0  2  0  0  0  0  0  0
    3.1110    6.7630  -12.9850 N   0  0  0  0  0  0  0  0  0  0  0  0
    2.1260    5.9480  -12.5340 C   0  0  0  0  0  0  0  0  0  0  0  0
    0.3630    6.5630  -12.1340 Br  0  0  0  0  0  0  0  0  0  0  0  0
    2.5770    4.6860  -12.4170 N   0  0  0  0  0  0  0  0  0  0  0  0
    3.8770    4.6560  -12.7950 C   0  0  0  0  0  0  0  0  0  0  0  0
    4.1830    5.9560  -13.1410 C   0  0  0  0  0  0  0  0  0  0  0  0
    4.7790    3.6510  -12.8630 N   0  0  0  0  0  0  0  0  0  0  0  0
    5.4700    6.2240  -13.5760 C   0  0  0  0  0  0  0  0  0  0  0  0
    6.3590    5.2220  -13.6400 N   0  0  0  0  0  0  0  0  0  0  0  0
    5.7330    7.4070  -13.8860 O   0  0  0  0  0  0  0  0  0  0  0  0
    6.0200    3.9510  -13.2880 C   0  0  0  0  0  0  0  0  0  0  0  0
    7.3350    5.4160  -13.9660 H   0  0  0  0  0  0  0  0  0  0  0  0
    6.9130    3.0680  -13.3780 O   0  0  0  0  0  0  0  0  0  0  0  0
    4.4400    2.2900  -12.4940 C   0  0  0  0  0  1  0  0  0  0  0  0
    1.5190    9.6600  -14.5400 C   0  0  0  0  0  2  0  0  0  0  0  0
    0.9630    9.9450  -13.1770 C   0  0  0  0  0  2  0  0  0  0  0  0
    0.4720   11.2810  -13.1080 N   0  0  0  0  0  0  0  0  0  0  0  0
    1.0980   12.4280  -12.8510 C   0  0  0  0  0  0  0  0  0  0  0  0
    0.1810   13.4690  -12.9400 C   0  0  0  0  0  0  0  0  0  0  0  0
    2.3880   12.7590  -12.5290 C   0  0  0  0  0  0  0  0  0  0  0  0
   -0.9800   12.9010  -13.2500 N   0  0  0  0  0  0  0  0  0  0  0  0
    0.5560   14.7320  -12.7190 N   0  0  0  0  0  0  0  0  0  0  0  0
   -0.8280   11.5800  -13.3560 C   0  0  0  0  0  0  0  0  0  0  0  0
   -2.2380   10.3710  -13.7860 Br  0  0  0  0  0  0  0  0  0  0  0  0
    1.8310   15.0320  -12.4050 C   0  0  0  0  0  0  0  0  0  0  0  0
   -0.3850   15.8430  -12.8060 C   0  0  0  0  0  1  0  0  0  0  0  0
    2.1760   16.2220  -12.2000 O   0  0  0  0  0  0  0  0  0  0  0  0
    2.7230   14.0400  -12.3150 N   0  0  0  0  0  0  0  0  0  0  0  0
    3.7360   14.2320  -12.0700 H   0  0  0  0  0  0  0  0  0  0  0  0
    3.2340   11.8470  -12.4380 O   0  0  0  0  0  0  0  0  0  0  0  0
  1 17  1  0  0  0  0
  1  2  1  0  0  0  0
  2  3  1  0  0  0  0
  3  4  1  0  0  0  0
  4  6  2  0  0  0  0
  4  5  1  0  0  0  0
  7  6  1  0  0  0  0
  8  3  1  0  0  0  0
  8  7  2  0  0  0  0
  9  7  1  0  0  0  0
  9 16  1  0  0  0  0
 10  8  1  0  0  0  0
 11 10  1  0  0  0  0
 11 13  1  0  0  0  0
 12 10  2  0  0  0  0
 13  9  1  0  0  0  0
 14 11  1  0  0  0  0
 15 13  2  0  0  0  0
 17 18  1  0  0  0  0
 18 19  1  0  0  0  0
 19 20  1  0  0  0  0
 20 22  1  0  0  0  0
 21 20  2  0  0  0  0
 21 24  1  0  0  0  0
 22 32  2  0  0  0  0
 22 30  1  0  0  0  0
 23 21  1  0  0  0  0
 24 27  1  0  0  0  0
 25 23  2  0  0  0  0
 25 19  1  0  0  0  0
 26 25  1  0  0  0  0
 27 30  1  0  0  0  0
 27 29  2  0  0  0  0
 28 24  1  0  0  0  0
 30 31  1  0  0  0  0
M  END
>  <Pose>
1

>  <Score>
-8.171

$$$$
