/Users/jonathanwahrer/Desktop/Msc/3_Semester/Drug_Design_Praktikum/waehrer_HTS_screening/HTS_experiment/out/docking_results/vina_output/6q9y/1466_docked.pdbqt
 OpenBabel03222220093D

 29 32  0  0  0  0  0  0  0  0999 V2000
    0.7480   15.5950  -12.1400 N   0  0  0  0  0  0  0  0  0  0  0  0
    0.3360   15.2580  -13.3500 N   0  0  0  0  0  0  0  0  0  0  0  0
   -0.7380   15.9590  -13.6870 N   0  0  0  0  0  0  0  0  0  0  0  0
   -1.0590   16.7890  -12.6820 C   0  0  0  0  0  0  0  0  0  0  0  0
   -0.1160   16.5520  -11.7090 C   0  0  0  0  0  3  0  0  0  0  0  0
    1.8930   15.0650  -11.3900 C   0  0  0  0  0  2  0  0  0  0  0  0
    2.7060   14.2620  -12.3810 C   0  0  0  0  0  2  0  0  0  0  0  0
    2.1080   12.9540  -12.5990 N   0  0  0  0  0  0  0  0  0  0  0  0
    2.9460   11.9050  -13.0600 C   0  0  0  0  0  0  0  0  0  0  0  0
    4.1840   12.1300  -13.2690 O   0  0  0  0  0  0  0  0  0  0  0  0
    1.0970   12.7860  -12.4240 H   0  0  0  0  0  0  0  0  0  0  0  0
    2.4530   10.5590  -13.3110 C   0  0  0  0  0  0  0  0  0  0  0  0
    3.3250    9.5680  -13.6630 C   0  0  0  0  0  3  0  0  0  0  0  0
    2.9690    8.2950  -13.9150 N   0  0  0  0  0  0  0  0  0  0  0  0
    1.6620    7.9580  -13.8190 C   0  0  0  0  0  3  0  0  0  0  0  0
    0.7300    8.9090  -13.4680 C   0  0  0  0  0  0  0  0  0  0  0  0
   -1.1030    8.3890  -13.3430 Br  0  0  0  0  0  0  0  0  0  0  0  0
    1.1170   10.2250  -13.2100 C   0  0  0  0  0  3  0  0  0  0  0  0
   -2.1610   17.7320  -12.6280 C   0  0  0  0  0  0  0  0  0  0  0  0
   -2.5910   18.4190  -11.5540 N   0  0  0  0  0  0  0  0  0  0  0  0
   -3.6340   19.1890  -11.9070 C   0  0  0  0  0  0  0  0  0  0  0  0
   -3.8300   18.9580  -13.2150 N   0  0  0  0  0  0  0  0  0  0  0  0
   -2.9450   18.0940  -13.6090 O   0  0  0  0  0  0  0  0  0  0  0  0
   -4.4060   20.1010  -11.0370 C   0  0  0  0  0  0  0  0  0  0  0  0
   -5.7190   20.3840  -11.3360 C   0  0  0  0  0  3  0  0  0  0  0  0
   -6.4320   21.2130  -10.5500 N   0  0  0  0  0  0  0  0  0  0  0  0
   -5.9210   21.8020   -9.4490 C   0  0  0  0  0  3  0  0  0  0  0  0
   -4.6030   21.5110   -9.1570 C   0  0  0  0  0  3  0  0  0  0  0  0
   -3.8410   20.6730   -9.9300 C   0  0  0  0  0  3  0  0  0  0  0  0
  1  5  1  0  0  0  0
  1  6  1  0  0  0  0
  2  1  1  0  0  0  0
  3  2  2  0  0  0  0
  3  4  1  0  0  0  0
  4 19  1  0  0  0  0
  4  5  2  0  0  0  0
  7  6  1  0  0  0  0
  8 11  1  0  0  0  0
  8  7  1  0  0  0  0
  9  8  1  0  0  0  0
 10  9  2  0  0  0  0
 12 18  1  0  0  0  0
 12  9  1  0  0  0  0
 13 12  2  0  0  0  0
 14 15  2  0  0  0  0
 14 13  1  0  0  0  0
 15 16  1  0  0  0  0
 16 17  1  0  0  0  0
 16 18  2  0  0  0  0
 19 20  2  0  0  0  0
 21 20  1  0  0  0  0
 21 24  1  0  0  0  0
 22 21  2  0  0  0  0
 23 22  1  0  0  0  0
 23 19  1  0  0  0  0
 24 29  1  0  0  0  0
 25 24  2  0  0  0  0
 25 26  1  0  0  0  0
 26 27  2  0  0  0  0
 27 28  1  0  0  0  0
 29 28  2  0  0  0  0
M  END
>  <Pose>
1

>  <Score>
-9.711

$$$$
