/Users/jonathanwahrer/Desktop/Msc/3_Semester/Drug_Design_Praktikum/waehrer_HTS_screening/HTS_experiment/out/docking_results/vina_output/6q9y/1491_docked.pdbqt
 OpenBabel03222220113D

 34 38  0  0  0  0  0  0  0  0999 V2000
    1.8580    3.9250  -12.1350 F   0  0  0  0  0  0  0  0  0  0  0  0
    3.0680    4.4180  -12.4540 C   0  0  0  0  0  0  0  0  0  0  0  0
    4.0010    3.4480  -12.8090 C   0  0  0  0  0  3  0  0  0  0  0  0
    5.2810    3.8090  -13.1680 C   0  0  0  0  0  0  0  0  0  0  0  0
    5.6010    5.1450  -13.1650 C   0  0  0  0  0  0  0  0  0  0  0  0
    4.6540    6.0990  -12.8080 C   0  0  0  0  0  3  0  0  0  0  0  0
    3.3790    5.7540  -12.4480 C   0  0  0  0  0  0  0  0  0  0  0  0
    6.8590    5.4750  -13.5210 N   0  0  0  0  0  0  0  0  0  0  0  0
    7.7790    4.5560  -13.8680 C   0  0  0  0  0  3  0  0  0  0  0  0
    7.4900    3.2100  -13.8800 C   0  0  0  0  0  0  0  0  0  0  0  0
    6.2180    2.8290  -13.5240 C   0  0  0  0  0  0  0  0  0  0  0  0
    5.8880    1.6190  -13.5160 O   0  0  0  0  0  0  0  0  0  0  0  0
    2.4600    6.7390  -12.0870 N   0  0  0  0  0  4  0  0  0  0  0  0
    1.0800    6.3260  -12.0600 C   0  0  0  0  0  2  0  0  0  0  0  0
    0.2010    7.4700  -11.5030 C   0  0  0  0  0  2  0  0  0  0  0  0
    0.3250    8.5260  -12.4280 N   0  0  0  0  0  0  0  0  0  0  0  0
    1.7270    9.0980  -12.3800 C   0  0  0  0  0  2  0  0  0  0  0  0
   -0.5120    9.0670  -13.3440 C   0  0  0  0  0  0  0  0  0  0  0  0
    2.5690    7.9470  -12.8370 C   0  0  0  0  0  2  0  0  0  0  0  0
   -0.0470   10.1150  -13.9810 O   0  0  0  0  0  0  0  0  0  0  0  0
    2.6890    7.0030  -11.0790 H   0  0  0  0  0  0  0  0  0  0  0  0
   -1.8390    8.6980  -13.7510 C   0  0  0  0  0  0  0  0  0  0  0  0
   -2.9170    9.5200  -13.6860 C   0  0  0  0  0  3  0  0  0  0  0  0
   -4.1720    9.1380  -14.1430 C   0  0  0  0  0  0  0  0  0  0  0  0
   -4.3370    7.8860  -14.6780 C   0  0  0  0  0  3  0  0  0  0  0  0
   -5.5450   10.2430  -14.0400 Cl  0  0  0  0  0  0  0  0  0  0  0  0
   -3.2850    7.0180  -14.7650 C   0  0  0  0  0  3  0  0  0  0  0  0
   -2.0670    7.4230  -14.3090 C   0  0  0  0  0  3  0  0  0  0  0  0
    7.1830    6.9060  -13.5110 C   0  0  0  0  0  3  0  0  0  0  0  0
    8.5460    7.3750  -13.7780 C   0  0  0  0  0  2  0  0  0  0  0  0
    8.1670    7.3150  -12.3660 C   0  0  0  0  0  2  0  0  0  0  0  0
    8.5100    2.2150  -14.2630 C   0  0  0  0  0  0  0  0  0  0  0  0
    8.6450    1.8120  -15.4290 O   0  0  0  0  0  0  0  0  0  0  0  0
    9.3380    1.7270  -13.2770 O   0  0  0  0  0  1  0  0  0  0  0  0
  2  7  1  0  0  0  0
  2  1  1  0  0  0  0
  3  2  2  0  0  0  0
  4  5  2  0  0  0  0
  4  3  1  0  0  0  0
  5  6  1  0  0  0  0
  6  7  2  0  0  0  0
  7 13  1  0  0  0  0
  8 29  1  0  0  0  0
  8  5  1  0  0  0  0
  9  8  1  0  0  0  0
 10  9  2  0  0  0  0
 10 11  1  0  0  0  0
 11 12  2  0  0  0  0
 11  4  1  0  0  0  0
 13 14  1  0  0  0  0
 13 21  1  0  0  0  0
 14 15  1  0  0  0  0
 16 17  1  0  0  0  0
 16 15  1  0  0  0  0
 18 16  1  0  0  0  0
 19 17  1  0  0  0  0
 19 13  1  0  0  0  0
 20 18  2  0  0  0  0
 22 23  1  0  0  0  0
 22 18  1  0  0  0  0
 24 26  1  0  0  0  0
 24 23  2  0  0  0  0
 25 24  1  0  0  0  0
 27 25  2  0  0  0  0
 27 28  1  0  0  0  0
 28 22  2  0  0  0  0
 29 31  1  0  0  0  0
 30 29  1  0  0  0  0
 30 31  1  0  0  0  0
 32 10  1  0  0  0  0
 32 34  1  0  0  0  0
 33 32  2  0  0  0  0
M  END
>  <Pose>
1

>  <Score>
-9.483

$$$$
