/Users/jonathanwahrer/Desktop/Msc/3_Semester/Drug_Design_Praktikum/waehrer_HTS_screening/HTS_experiment/out/docking_results/vina_output/6q9y/1516_docked.pdbqt
 OpenBabel03222220123D

 30 33  0  0  1  0  0  0  0  0999 V2000
    0.1700   12.4590  -13.1750 C   0  0  0  0  0  0  0  0  0  0  0  0
   -0.9430   13.1560  -13.1780 O   0  0  0  0  0  0  0  0  0  0  0  0
   -0.0060   11.1090  -13.4450 N   0  0  0  0  0  0  0  0  0  0  0  0
    1.0520   10.1570  -13.5300 C   0  0  0  0  0  2  0  0  0  0  0  0
    0.4820    8.8680  -14.1670 C   0  0  0  0  0  2  0  0  0  0  0  0
   -0.4740    8.2760  -13.1490 C   0  0  2  0  0  0  0  0  0  0  0  0
    0.2320    7.9730  -11.9720 N   0  0  0  0  0  0  0  0  0  0  0  0
    0.9080    6.7550  -11.8340 C   0  0  0  0  0  2  0  0  0  0  0  0
    0.2820    5.5500  -12.4270 C   0  0  0  0  0  2  0  0  0  0  0  0
   -0.7700    5.8520  -13.4200 C   0  0  0  0  0  0  0  0  0  0  0  0
   -1.5220    4.9830  -14.1240 N   0  0  0  0  0  0  0  0  0  0  0  0
   -2.3470    5.6870  -14.9060 C   0  0  0  0  0  3  0  0  0  0  0  0
   -2.1130    7.0010  -14.6920 N   0  0  0  0  0  0  0  0  0  0  0  0
   -1.1370    7.1220  -13.7730 C   0  0  0  0  0  0  0  0  0  0  0  0
   -1.5070    9.3610  -12.8010 C   0  0  0  0  0  2  0  0  0  0  0  0
   -1.3610   10.5800  -13.6690 C   0  0  0  0  0  2  0  0  0  0  0  0
    0.3940    8.7030  -11.2880 H   0  0  0  0  0  0  0  0  0  0  0  0
   -2.6060    7.7810  -15.1640 H   0  0  0  0  0  0  0  0  0  0  0  0
    1.3670   13.2490  -12.8920 C   0  0  0  0  0  2  0  0  0  0  0  0
    1.2000   14.5340  -12.4460 N   0  0  0  0  0  0  0  0  0  0  0  0
    1.0350   15.8040  -12.0040 C   0  0  0  0  0  0  0  0  0  0  0  0
    1.8300   16.4750  -11.2960 O   0  0  0  0  0  0  0  0  0  0  0  0
    2.3910   14.4260  -11.7650 H   0  0  0  0  0  0  0  0  0  0  0  0
   -0.2270   16.5190  -12.3850 C   0  0  0  0  0  0  0  0  0  0  0  0
   -0.7750   17.4000  -11.5010 C   0  0  0  0  0  3  0  0  0  0  0  0
   -1.9520   18.0740  -11.8430 C   0  0  0  0  0  3  0  0  0  0  0  0
   -2.5210   17.8260  -13.0610 C   0  0  0  0  0  0  0  0  0  0  0  0
   -4.0030   18.6710  -13.4850 Cl  0  0  0  0  0  0  0  0  0  0  0  0
   -1.9720   16.9430  -13.9450 C   0  0  0  0  0  3  0  0  0  0  0  0
   -0.7860   16.2690  -13.5920 C   0  0  0  0  0  3  0  0  0  0  0  0
  1 19  1  0  0  0  0
  2  1  2  0  0  0  0
  3  1  1  0  0  0  0
  4  3  1  0  0  0  0
  5  4  1  0  0  0  0
  6  5  1  6  0  0  0
  6 15  1  0  0  0  0
  6  7  1  0  0  0  0
  7  8  1  0  0  0  0
  7 17  1  0  0  0  0
  9  8  1  0  0  0  0
 10  9  1  0  0  0  0
 11 10  1  0  0  0  0
 12 13  1  0  0  0  0
 12 11  2  0  0  0  0
 13 14  1  0  0  0  0
 14 10  2  0  0  0  0
 14  6  1  0  0  0  0
 16  3  1  0  0  0  0
 16 15  1  0  0  0  0
 18 13  1  0  0  0  0
 19 20  1  0  0  0  0
 20 21  1  0  0  0  0
 20 23  1  0  0  0  0
 21 22  2  0  0  0  0
 24 21  1  0  0  0  0
 24 25  1  0  0  0  0
 26 25  2  0  0  0  0
 27 26  1  0  0  0  0
 28 27  1  0  0  0  0
 29 30  1  0  0  0  0
 29 27  2  0  0  0  0
 30 24  2  0  0  0  0
M  END
>  <Pose>
1

>  <Score>
-8.949

$$$$
