/Users/jonathanwahrer/Desktop/Msc/3_Semester/Drug_Design_Praktikum/waehrer_HTS_screening/HTS_experiment/out/docking_results/vina_output/6q9y/1523_docked.pdbqt
 OpenBabel03222220123D

 25 28  0  0  0  0  0  0  0  0999 V2000
    3.4170   12.3380  -12.5500 C   0  0  0  0  0  0  0  0  0  0  0  0
    4.5850   12.2830  -12.0290 O   0  0  0  0  0  0  0  0  0  0  0  0
    3.0040   11.3720  -13.4680 N   0  0  0  0  0  0  0  0  0  0  0  0
    3.9000   10.3110  -13.8370 C   0  0  0  0  0  2  0  0  0  0  0  0
    3.3360    9.0140  -13.3270 C   0  0  0  0  0  2  0  0  0  0  0  0
    1.9320    8.9550  -13.6180 N   0  0  0  0  0  0  0  0  0  0  0  0
    1.4510    9.9220  -14.6240 C   0  0  0  0  0  2  0  0  0  0  0  0
    1.7100   11.3330  -14.1140 C   0  0  0  0  0  2  0  0  0  0  0  0
    0.9780    8.1040  -13.0610 C   0  0  0  0  0  0  0  0  0  0  0  0
   -0.2220    8.2420  -13.5370 O   0  0  0  0  0  0  0  0  0  0  0  0
    2.5820   13.4770  -12.1020 C   0  0  0  0  0  0  0  0  0  0  0  0
    2.6170   14.0990  -10.9150 N   0  0  0  0  0  0  0  0  0  0  0  0
    1.7210   15.0600  -10.9020 N   0  0  0  0  0  0  0  0  0  0  0  0
    1.0690   15.1070  -12.0690 N   0  0  0  0  0  0  0  0  0  0  0  0
    1.6010   14.1240  -12.8150 C   0  0  0  0  0  3  0  0  0  0  0  0
    0.0380   16.0160  -12.4130 C   0  0  0  0  0  0  0  0  0  0  0  0
   -0.4550   16.8980  -11.4820 C   0  0  0  0  0  3  0  0  0  0  0  0
   -1.4750   17.7910  -11.8420 C   0  0  0  0  0  0  0  0  0  0  0  0
   -2.1700   19.0220  -10.5630 Br  0  0  0  0  0  0  0  0  0  0  0  0
   -1.9880   17.7950  -13.1120 C   0  0  0  0  0  3  0  0  0  0  0  0
   -1.5010   16.9170  -14.0500 C   0  0  0  0  0  3  0  0  0  0  0  0
   -0.4820   16.0300  -13.6810 C   0  0  0  0  0  3  0  0  0  0  0  0
    1.1080    7.0820  -12.0300 C   0  0  0  0  0  3  0  0  0  0  0  0
    0.5050    5.7510  -12.1030 C   0  0  0  0  0  2  0  0  0  0  0  0
    2.0220    5.9170  -12.1150 C   0  0  0  0  0  2  0  0  0  0  0  0
  1 11  1  0  0  0  0
  1  2  2  0  0  0  0
  3  1  1  0  0  0  0
  4  3  1  0  0  0  0
  4  5  1  0  0  0  0
  6  5  1  0  0  0  0
  6  9  1  0  0  0  0
  7  8  1  0  0  0  0
  7  6  1  0  0  0  0
  8  3  1  0  0  0  0
  9 23  1  0  0  0  0
 10  9  2  0  0  0  0
 11 12  1  0  0  0  0
 12 13  2  0  0  0  0
 14 13  1  0  0  0  0
 15 11  2  0  0  0  0
 15 14  1  0  0  0  0
 16 14  1  0  0  0  0
 16 17  1  0  0  0  0
 18 17  2  0  0  0  0
 18 19  1  0  0  0  0
 20 18  1  0  0  0  0
 21 22  1  0  0  0  0
 21 20  2  0  0  0  0
 22 16  2  0  0  0  0
 24 23  1  0  0  0  0
 25 24  1  0  0  0  0
 25 23  1  0  0  0  0
M  END
>  <Pose>
1

>  <Score>
-8.696

$$$$
