/Users/jonathanwahrer/Desktop/Msc/3_Semester/Drug_Design_Praktikum/waehrer_HTS_screening/HTS_experiment/out/docking_results/vina_output/6q9y/1525_docked.pdbqt
 OpenBabel03222220133D

 26 29  0  0  1  0  0  0  0  0999 V2000
   -4.3060    8.5960  -14.5980 N   0  0  0  0  0  0  0  0  0  0  0  0
   -2.9520    9.0280  -14.5490 C   0  0  0  0  0  0  0  0  0  0  0  0
   -2.6140   10.2350  -14.4920 O   0  0  0  0  0  0  0  0  0  0  0  0
   -2.1240    7.8280  -14.5770 C   0  0  2  0  0  3  0  0  0  0  0  0
   -2.9660    6.8490  -15.3680 C   0  0  0  0  0  2  0  0  0  0  0  0
   -4.3620    7.2830  -15.1690 C   0  0  0  0  0  0  0  0  0  0  0  0
   -5.4120    6.6420  -15.4410 O   0  0  0  0  0  0  0  0  0  0  0  0
   -1.7080    7.3170  -13.3330 N   0  0  2  0  0  0  0  0  0  0  0  0
   -1.4930    8.2270  -12.2820 C   0  0  0  0  0  2  0  0  0  0  0  0
    0.0070    8.5480  -12.2120 C   0  0  0  0  0  2  0  0  0  0  0  0
    0.7590    7.5430  -12.9460 N   0  0  0  0  0  0  0  0  0  0  0  0
    0.3590    6.1510  -12.9720 C   0  0  0  0  0  2  0  0  0  0  0  0
   -1.1260    6.0540  -13.2340 C   0  0  0  0  0  2  0  0  0  0  0  0
    1.9280    7.9000  -13.6970 C   0  0  0  0  0  0  0  0  0  0  0  0
    1.8470    8.7390  -14.7520 N   0  0  0  0  0  0  0  0  0  0  0  0
    2.9510    9.0830  -15.4430 C   0  0  0  0  0  3  0  0  0  0  0  0
    4.2060    8.5930  -15.0990 C   0  0  0  0  0  3  0  0  0  0  0  0
    4.2810    7.7340  -14.0160 C   0  0  0  0  0  3  0  0  0  0  0  0
    3.1440    7.4290  -13.3670 N   0  0  0  0  0  0  0  0  0  0  0  0
   -5.4130    9.3700  -14.1350 C   0  0  0  0  0  0  0  0  0  0  0  0
   -6.3120    9.9850  -14.9800 C   0  0  0  0  0  3  0  0  0  0  0  0
   -7.3770   10.7290  -14.4790 C   0  0  0  0  0  0  0  0  0  0  0  0
   -8.6240   11.5820  -15.6370 Br  0  0  0  0  0  0  0  0  0  0  0  0
   -7.5600   10.8670  -13.1210 C   0  0  0  0  0  3  0  0  0  0  0  0
   -6.6750   10.2630  -12.2610 C   0  0  0  0  0  3  0  0  0  0  0  0
   -5.6350    9.5360  -12.7720 C   0  0  0  0  0  3  0  0  0  0  0  0
  1  2  1  0  0  0  0
  1 20  1  0  0  0  0
  2  3  2  0  0  0  0
  4  5  1  1  0  0  0
  4  2  1  0  0  0  0
  4  8  1  0  0  0  0
  5  6  1  0  0  0  0
  6  1  1  0  0  0  0
  7  6  2  0  0  0  0
  8 13  1  6  0  0  0
  8  9  1  0  0  0  0
  9 10  1  0  0  0  0
 11 10  1  0  0  0  0
 12 11  1  0  0  0  0
 13 12  1  0  0  0  0
 14 19  1  0  0  0  0
 14 11  1  0  0  0  0
 15 14  2  0  0  0  0
 16 17  2  0  0  0  0
 16 15  1  0  0  0  0
 17 18  1  0  0  0  0
 18 19  2  0  0  0  0
 20 26  1  0  0  0  0
 21 22  1  0  0  0  0
 21 20  2  0  0  0  0
 22 24  2  0  0  0  0
 23 22  1  0  0  0  0
 24 25  1  0  0  0  0
 26 25  2  0  0  0  0
M  END
>  <Pose>
1

>  <Score>
-7.056

$$$$
