/Users/jonathanwahrer/Desktop/Msc/3_Semester/Drug_Design_Praktikum/waehrer_HTS_screening/HTS_experiment/out/docking_results/vina_output/6q9y/1531_docked.pdbqt
 OpenBabel03222220133D

 27 30  0  0  0  0  0  0  0  0999 V2000
    1.8670    8.1780  -12.6950 N   0  0  0  0  0  0  0  0  0  0  0  0
    2.8890    8.5350  -13.5340 C   0  0  0  0  0  0  0  0  0  0  0  0
    2.7750    9.8520  -13.7250 N   0  0  0  0  0  0  0  0  0  0  0  0
    1.7330   10.3740  -13.0570 C   0  0  0  0  0  0  0  0  0  0  0  0
    1.1560    9.3010  -12.4010 C   0  0  0  0  0  3  0  0  0  0  0  0
    3.8300   10.3280  -14.6140 C   0  0  0  0  0  3  0  0  0  0  0  0
    4.5680    9.0950  -15.0470 C   0  0  0  0  0  3  0  0  0  0  0  0
    4.0380    7.9470  -14.2650 C   0  0  0  0  0  3  0  0  0  0  0  0
    1.6190    6.8740  -12.1800 C   0  0  0  0  0  3  0  0  0  0  0  0
    0.4120    6.1500  -12.5040 C   0  0  0  0  0  0  0  0  0  0  0  0
    0.3370    4.9510  -11.9610 O   0  0  0  0  0  1  0  0  0  0  0  0
   -0.7260    6.4970  -13.3120 C   0  0  0  0  0  0  0  0  0  0  0  0
   -1.3540    5.7000  -14.2200 C   0  0  0  0  0  3  0  0  0  0  0  0
   -2.4660    6.0930  -14.9800 C   0  0  0  0  0  3  0  0  0  0  0  0
   -2.9810    7.3560  -14.8260 C   0  0  0  0  0  0  0  0  0  0  0  0
   -2.3740    8.1940  -13.9180 C   0  0  0  0  0  0  0  0  0  0  0  0
   -4.3650    7.8520  -15.7720 Cl  0  0  0  0  0  0  0  0  0  0  0  0
   -3.0140    9.8020  -13.7080 Cl  0  0  0  0  0  0  0  0  0  0  0  0
   -1.3010    7.7870  -13.1970 C   0  0  0  0  0  3  0  0  0  0  0  0
    1.2660   11.7580  -13.0000 C   0  0  0  0  0  0  0  0  0  0  0  0
    0.0420   12.1890  -13.4430 C   0  0  0  0  0  3  0  0  0  0  0  0
   -0.3360   13.5360  -13.3530 C   0  0  0  0  0  3  0  0  0  0  0  0
    0.5000   14.4920  -12.8190 C   0  0  0  0  0  0  0  0  0  0  0  0
    1.7330   14.0690  -12.3720 C   0  0  0  0  0  3  0  0  0  0  0  0
    2.1010   12.7430  -12.4610 C   0  0  0  0  0  3  0  0  0  0  0  0
    0.1390   15.8290  -12.7240 O   0  0  0  0  0  0  0  0  0  0  0  0
   -1.1320   16.2640  -13.1740 C   0  0  0  0  0  1  0  0  0  0  0  0
  1  5  1  0  0  0  0
  1  9  1  0  0  0  0
  2  1  1  0  0  0  0
  3  2  1  0  0  0  0
  3  4  1  0  0  0  0
  4 20  1  0  0  0  0
  4  5  2  0  0  0  0
  6  3  1  0  0  0  0
  7  6  2  0  0  0  0
  7  8  1  0  0  0  0
  8  2  2  0  0  0  0
 10  9  2  0  0  0  0
 10 11  1  0  0  0  0
 12 19  1  0  0  0  0
 12 10  1  0  0  0  0
 13 12  2  0  0  0  0
 14 15  2  0  0  0  0
 14 13  1  0  0  0  0
 15 16  1  0  0  0  0
 16 18  1  0  0  0  0
 16 19  2  0  0  0  0
 17 15  1  0  0  0  0
 20 25  1  0  0  0  0
 21 22  1  0  0  0  0
 21 20  2  0  0  0  0
 22 23  2  0  0  0  0
 23 26  1  0  0  0  0
 23 24  1  0  0  0  0
 25 24  2  0  0  0  0
 27 26  1  0  0  0  0
M  END
>  <Pose>
1

>  <Score>
-9.306

$$$$
