/Users/jonathanwahrer/Desktop/Msc/3_Semester/Drug_Design_Praktikum/waehrer_HTS_screening/HTS_experiment/out/docking_results/vina_output/6q9y/1533_docked.pdbqt
 OpenBabel03222220133D

 28 31  0  0  1  0  0  0  0  0999 V2000
    1.7400   10.4750  -13.0610 C   0  0  0  0  0  0  0  0  0  0  0  0
    2.8580    9.9720  -13.6460 N   0  0  0  0  0  0  0  0  0  0  0  0
    2.9340    8.6600  -13.4030 C   0  0  2  0  0  3  0  0  0  0  0  0
    1.8630    8.2620  -12.6510 N   0  0  0  0  0  0  0  0  0  0  0  0
    1.1450    9.3800  -12.4510 C   0  0  0  0  0  3  0  0  0  0  0  0
    4.1480    8.0760  -14.0160 C   0  0  0  0  0  2  0  0  0  0  0  0
    4.4640    9.0860  -15.0840 C   0  0  0  0  0  2  0  0  0  0  0  0
    4.0020   10.3830  -14.4620 C   0  0  0  0  0  2  0  0  0  0  0  0
    1.6070    6.9440  -12.1470 C   0  0  0  0  0  3  0  0  0  0  0  0
    0.4340    6.1930  -12.5030 C   0  0  0  0  0  0  0  0  0  0  0  0
    0.3940    4.9900  -11.9380 O   0  0  0  0  0  1  0  0  0  0  0  0
   -0.7100    6.4550  -13.3380 C   0  0  0  0  0  0  0  0  0  0  0  0
   -1.3880    7.6910  -13.2300 C   0  0  0  0  0  3  0  0  0  0  0  0
   -2.4830    8.0320  -13.9800 C   0  0  0  0  0  0  0  0  0  0  0  0
   -2.9270    7.0920  -14.8880 C   0  0  0  0  0  3  0  0  0  0  0  0
   -2.2840    5.8810  -15.0130 C   0  0  0  0  0  3  0  0  0  0  0  0
   -1.1690    5.5390  -14.2450 C   0  0  0  0  0  3  0  0  0  0  0  0
   -3.1470    9.2750  -13.8550 N   0  0  0  0  0  0  0  0  0  0  0  0
   -2.6440   10.1630  -13.1580 O   0  0  0  0  0  0  0  0  0  0  0  0
   -4.3320    9.5250  -14.4840 O   0  0  0  0  0  0  0  0  0  0  0  0
    1.2170   11.8400  -13.0370 C   0  0  0  0  0  0  0  0  0  0  0  0
   -0.0350   12.0740  -13.5610 C   0  0  0  0  0  3  0  0  0  0  0  0
   -0.6020   13.3510  -13.5560 C   0  0  0  0  0  3  0  0  0  0  0  0
    0.1100   14.3960  -13.0140 C   0  0  0  0  0  0  0  0  0  0  0  0
    1.3510   14.1720  -12.4930 C   0  0  0  0  0  0  0  0  0  0  0  0
   -0.6240   16.0010  -13.0160 Cl  0  0  0  0  0  0  0  0  0  0  0  0
    2.2280   15.5240  -11.8120 Cl  0  0  0  0  0  0  0  0  0  0  0  0
    1.9020   12.8940  -12.5060 C   0  0  0  0  0  3  0  0  0  0  0  0
  1 21  1  0  0  0  0
  1  5  2  0  0  0  0
  2  3  1  0  0  0  0
  2  1  1  0  0  0  0
  3  6  1  1  0  0  0
  3  4  1  0  0  0  0
  4  5  1  0  0  0  0
  4  9  1  0  0  0  0
  7  8  1  0  0  0  0
  7  6  1  0  0  0  0
  8  2  1  0  0  0  0
 10  9  2  0  0  0  0
 10 11  1  0  0  0  0
 12 13  1  0  0  0  0
 12 10  1  0  0  0  0
 14 18  1  0  0  0  0
 14 13  2  0  0  0  0
 15 14  1  0  0  0  0
 16 15  2  0  0  0  0
 16 17  1  0  0  0  0
 17 12  2  0  0  0  0
 18 19  2  0  0  0  0
 20 18  2  0  0  0  0
 21 28  1  0  0  0  0
 22 23  1  0  0  0  0
 22 21  2  0  0  0  0
 23 24  2  0  0  0  0
 24 25  1  0  0  0  0
 25 27  1  0  0  0  0
 26 24  1  0  0  0  0
 28 25  2  0  0  0  0
M  END
>  <Pose>
1

>  <Score>
-9.373

$$$$
