/Users/jonathanwahrer/Desktop/Msc/3_Semester/Drug_Design_Praktikum/waehrer_HTS_screening/HTS_experiment/out/docking_results/vina_output/6q9y/1536_docked.pdbqt
 OpenBabel03222220133D

 31 34  0  0  1  0  0  0  0  0999 V2000
    0.5340    7.5650  -13.0870 S   0  0  0  0  0  0  0  0  0  0  0  0
    0.4380    8.2360  -11.7130 O   0  0  0  0  0  0  0  0  0  0  0  0
    0.9570    6.1340  -12.7440 O   0  0  0  0  0  0  0  0  0  0  0  0
    1.7330    8.3100  -13.9470 N   0  0  0  0  0  0  0  0  0  0  0  0
    3.0490    8.4360  -13.5170 C   0  0  0  0  0  2  0  0  0  0  0  0
    3.3960    9.6840  -12.7710 C   0  0  0  0  0  2  0  0  0  0  0  0
    2.3870   10.7740  -13.1290 C   0  0  2  0  0  3  0  0  0  0  0  0
    2.2010   10.6060  -14.6460 C   0  0  0  0  0  2  0  0  0  0  0  0
    1.2830    9.4030  -14.8000 C   0  0  0  0  0  2  0  0  0  0  0  0
    2.8640   12.1020  -12.7840 C   0  0  0  0  0  0  0  0  0  0  0  0
    4.1010   12.3070  -12.6660 O   0  0  0  0  0  0  0  0  0  0  0  0
    1.9820   13.1680  -12.5820 N   0  0  0  0  0  0  0  0  0  0  0  0
    2.4330   14.5300  -12.2710 C   0  0  0  0  0  2  0  0  0  0  0  0
    0.5600   12.9810  -12.6450 C   0  0  0  0  0  2  0  0  0  0  0  0
    1.1890   15.3210  -11.9240 C   0  0  0  0  0  2  0  0  0  0  0  0
    0.2940   15.3790  -13.0650 N   0  0  0  0  0  0  0  0  0  0  0  0
   -0.1120   14.0510  -13.4870 C   0  0  0  0  0  2  0  0  0  0  0  0
   -0.8600   16.2020  -12.7770 C   0  0  0  0  0  1  0  0  0  0  0  0
   -1.0850    7.5730  -13.7230 C   0  0  0  0  0  0  0  0  0  0  0  0
   -1.8780    8.7220  -13.5630 C   0  0  0  0  0  3  0  0  0  0  0  0
   -3.1780    8.7860  -13.9920 C   0  0  0  0  0  0  0  0  0  0  0  0
   -3.7400    7.7060  -14.6000 C   0  0  0  0  0  0  0  0  0  0  0  0
   -3.9380    9.9490  -13.8150 O   0  0  0  0  0  0  0  0  0  0  0  0
   -3.0150    6.5570  -14.7850 C   0  0  0  0  0  3  0  0  0  0  0  0
   -5.1070    7.7900  -15.0400 N   0  0  0  0  0  0  0  0  0  0  0  0
   -1.6920    6.5180  -14.3400 C   0  0  0  0  0  0  0  0  0  0  0  0
   -0.7860    5.0510  -14.6730 Cl  0  0  0  0  0  0  0  0  0  0  0  0
   -5.8350    8.9880  -14.8310 C   0  0  0  0  0  0  0  0  0  0  0  0
   -5.5450    6.9710  -15.5060 H   0  0  0  0  0  0  0  0  0  0  0  0
   -6.8540    9.2620  -15.4980 O   0  0  0  0  0  0  0  0  0  0  0  0
   -5.3400    9.9170  -13.7810 C   0  0  0  0  0  2  0  0  0  0  0  0
  1  3  2  0  0  0  0
  1  2  2  0  0  0  0
  4  5  1  0  0  0  0
  4  1  1  0  0  0  0
  5  6  1  0  0  0  0
  7 10  1  6  0  0  0
  7  6  1  0  0  0  0
  8  7  1  0  0  0  0
  9  8  1  0  0  0  0
  9  4  1  0  0  0  0
 10 11  2  0  0  0  0
 10 12  1  0  0  0  0
 12 13  1  0  0  0  0
 13 15  1  0  0  0  0
 14 12  1  0  0  0  0
 16 18  1  0  0  0  0
 16 15  1  0  0  0  0
 17 16  1  0  0  0  0
 17 14  1  0  0  0  0
 19 20  1  0  0  0  0
 19  1  1  0  0  0  0
 21 23  1  0  0  0  0
 21 20  2  0  0  0  0
 22 21  1  0  0  0  0
 23 31  1  0  0  0  0
 24 22  2  0  0  0  0
 24 26  1  0  0  0  0
 25 28  1  0  0  0  0
 25 22  1  0  0  0  0
 26 19  2  0  0  0  0
 27 26  1  0  0  0  0
 28 31  1  0  0  0  0
 29 25  1  0  0  0  0
 30 28  2  0  0  0  0
M  END
>  <Pose>
1

>  <Score>
-8.875

$$$$
