/Users/jonathanwahrer/Desktop/Msc/3_Semester/Drug_Design_Praktikum/waehrer_HTS_screening/HTS_experiment/out/docking_results/vina_output/6q9y/1539_docked.pdbqt
 OpenBabel03222220143D

 34 37  0  0  1  0  0  0  0  0999 V2000
    2.9560    9.3120  -12.5370 C   0  0  2  0  0  3  0  0  0  0  0  0
    3.8510    8.8850  -13.6200 N   0  0  0  0  0  0  0  0  0  0  0  0
    3.1490    9.1890  -14.8170 C   0  0  0  0  0  0  0  0  0  0  0  0
    3.6450    9.4480  -15.9260 O   0  0  0  0  0  0  0  0  0  0  0  0
    1.7300    9.1340  -14.4830 C   0  0  0  0  0  0  0  0  0  0  0  0
    0.7070    9.3310  -15.2040 O   0  0  0  0  0  0  0  0  0  0  0  0
    1.6590    8.7880  -13.0550 C   0  0  0  0  0  0  0  0  0  0  0  0
    0.6590    8.1910  -12.4380 C   0  0  0  0  0  0  0  0  0  0  0  0
    0.7580    7.9830  -11.0600 O   0  0  0  0  0  1  0  0  0  0  0  0
    2.9740   10.7960  -12.5590 C   0  0  0  0  0  0  0  0  0  0  0  0
    1.8140   11.5310  -12.6720 C   0  0  0  0  0  3  0  0  0  0  0  0
    1.8030   12.9090  -12.6950 C   0  0  0  0  0  3  0  0  0  0  0  0
    2.9840   13.6230  -12.6010 C   0  0  0  0  0  0  0  0  0  0  0  0
    2.9910   15.3850  -12.6270 Cl  0  0  0  0  0  0  0  0  0  0  0  0
    4.1520   12.9100  -12.4870 C   0  0  0  0  0  3  0  0  0  0  0  0
    4.1600   11.5350  -12.4650 C   0  0  0  0  0  3  0  0  0  0  0  0
   -0.5390    7.7350  -13.1270 C   0  0  0  0  0  0  0  0  0  0  0  0
   -0.6570    6.4510  -13.6330 C   0  0  0  0  0  3  0  0  0  0  0  0
   -1.7840    6.0320  -14.3090 C   0  0  0  0  0  0  0  0  0  0  0  0
   -2.8540    6.8940  -14.5090 C   0  0  0  0  0  0  0  0  0  0  0  0
   -1.8660    4.6500  -14.8330 C   0  0  0  0  0  1  0  0  0  0  0  0
   -2.7490    8.1730  -14.0110 C   0  0  0  0  0  3  0  0  0  0  0  0
   -1.6010    8.5860  -13.3280 C   0  0  0  0  0  3  0  0  0  0  0  0
   -3.9990    6.4860  -15.1880 O   0  0  0  0  0  0  0  0  0  0  0  0
   -5.1320    7.3070  -15.1650 C   0  0  0  0  0  1  0  0  0  0  0  0
    5.1770    8.2820  -13.4830 C   0  0  0  0  0  2  0  0  0  0  0  0
    5.0380    6.8360  -13.8960 C   0  0  0  0  0  2  0  0  0  0  0  0
    5.3410    5.9240  -12.8270 N   0  0  0  0  0  4  0  0  0  0  0  0
    6.7480    5.7260  -12.7060 C   0  0  0  0  0  2  0  0  0  0  0  0
    7.3030    4.5190  -13.3860 C   0  0  0  0  0  2  0  0  0  0  0  0
    6.4640    3.4390  -13.4360 O   0  0  0  0  0  0  0  0  0  0  0  0
    5.2130    3.7390  -13.9600 C   0  0  0  0  0  2  0  0  0  0  0  0
    4.5730    4.7250  -13.0180 C   0  0  0  0  0  2  0  0  0  0  0  0
    5.0120    6.4060  -11.9420 H   0  0  0  0  0  0  0  0  0  0  0  0
  1 10  1  6  0  0  0
  2 26  1  0  0  0  0
  2  1  1  0  0  0  0
  3  5  1  0  0  0  0
  3  2  1  0  0  0  0
  4  3  2  0  0  0  0
  5  7  1  0  0  0  0
  6  5  2  0  0  0  0
  7  1  1  0  0  0  0
  7  8  2  0  0  0  0
  8  9  1  0  0  0  0
 10 16  1  0  0  0  0
 11 10  2  0  0  0  0
 12 11  1  0  0  0  0
 12 13  2  0  0  0  0
 13 15  1  0  0  0  0
 14 13  1  0  0  0  0
 15 16  2  0  0  0  0
 17  8  1  0  0  0  0
 18 17  2  0  0  0  0
 19 18  1  0  0  0  0
 20 19  2  0  0  0  0
 20 22  1  0  0  0  0
 21 19  1  0  0  0  0
 22 23  2  0  0  0  0
 23 17  1  0  0  0  0
 24 25  1  0  0  0  0
 24 20  1  0  0  0  0
 27 26  1  0  0  0  0
 27 28  1  0  0  0  0
 28 29  1  0  0  0  0
 28 34  1  0  0  0  0
 30 29  1  0  0  0  0
 31 30  1  0  0  0  0
 32 31  1  0  0  0  0
 32 33  1  0  0  0  0
 33 28  1  0  0  0  0
M  END
>  <Pose>
1

>  <Score>
-7.404

$$$$
