/Users/jonathanwahrer/Desktop/Msc/3_Semester/Drug_Design_Praktikum/waehrer_HTS_screening/HTS_experiment/out/docking_results/vina_output/6q9y/1553_docked.pdbqt
 OpenBabel03222220143D

 29 32  0  0  1  0  0  0  0  0999 V2000
    5.9810    5.6190  -14.0190 C   0  0  1  0  0  3  0  0  0  0  0  0
    5.5360    4.3650  -13.5380 N   0  0  0  0  0  4  0  0  0  0  0  0
    4.1260    4.2150  -13.3270 C   0  0  2  0  0  3  0  0  0  0  0  0
    3.6350    5.3440  -12.4060 C   0  0  0  0  0  2  0  0  0  0  0  0
    3.8580    6.5680  -13.1990 C   0  0  0  0  0  0  0  0  0  0  0  0
    3.0990    7.7180  -13.3490 C   0  0  0  0  0  0  0  0  0  0  0  0
    3.7890    8.5300  -14.2220 C   0  0  0  0  0  0  0  0  0  0  0  0
    4.9230    7.9200  -14.6000 N   0  0  0  0  0  0  0  0  0  0  0  0
    4.9720    6.7010  -13.9690 C   0  0  0  0  0  0  0  0  0  0  0  0
    3.2310    9.7540  -14.5410 C   0  0  0  0  0  3  0  0  0  0  0  0
    2.0290   10.1040  -13.9790 C   0  0  0  0  0  3  0  0  0  0  0  0
    1.3410    9.2900  -13.1070 C   0  0  0  0  0  3  0  0  0  0  0  0
    1.8910    8.0540  -12.7770 C   0  0  0  0  0  3  0  0  0  0  0  0
    5.8210    3.6260  -14.2570 H   0  0  0  0  0  0  0  0  0  0  0  0
    6.0030    4.0520  -12.6500 H   0  0  0  0  0  0  0  0  0  0  0  0
    5.6730    8.2620  -15.2550 H   0  0  0  0  0  0  0  0  0  0  0  0
    7.1490    6.0810  -13.1830 C   0  0  0  0  0  0  0  0  0  0  0  0
    8.2610    5.2840  -12.9770 C   0  0  0  0  0  0  0  0  0  0  0  0
    9.3340    5.7400  -12.2050 C   0  0  0  0  0  0  0  0  0  0  0  0
   10.8610    4.6220  -11.9270 Br  0  0  0  0  0  0  0  0  0  0  0  0
    9.3130    6.9820  -11.6320 C   0  0  0  0  0  3  0  0  0  0  0  0
    8.2090    7.7770  -11.8350 C   0  0  0  0  0  0  0  0  0  0  0  0
    7.1400    7.3320  -12.6020 C   0  0  0  0  0  3  0  0  0  0  0  0
    8.1410    9.5320  -11.0440 Br  0  0  0  0  0  0  0  0  0  0  0  0
    8.3860    4.0240  -13.5020 O   0  0  0  0  0  0  0  0  0  0  0  0
    8.9370    3.2900  -13.1490 H   0  0  0  0  0  0  0  0  0  0  0  0
    3.8460    2.8930  -12.7310 C   0  0  0  0  0  0  0  0  0  0  0  0
    3.3560    2.8370  -11.5740 O   0  0  0  0  0  1  0  0  0  0  0  0
    4.1290    1.7450  -13.4530 O   0  0  0  0  0  0  0  0  0  0  0  0
  1  9  1  0  0  0  0
  1  2  1  0  0  0  0
  1 17  1  1  0  0  0
  2  3  1  0  0  0  0
  2 15  1  0  0  0  0
  3 27  1  1  0  0  0
  3  4  1  0  0  0  0
  5  4  1  0  0  0  0
  6  5  1  0  0  0  0
  6 13  1  0  0  0  0
  7  6  2  0  0  0  0
  8  7  1  0  0  0  0
  8  9  1  0  0  0  0
  9  5  2  0  0  0  0
 10  7  1  0  0  0  0
 10 11  2  0  0  0  0
 11 12  1  0  0  0  0
 12 13  2  0  0  0  0
 14  2  1  0  0  0  0
 16  8  1  0  0  0  0
 17 18  2  0  0  0  0
 17 23  1  0  0  0  0
 18 19  1  0  0  0  0
 19 20  1  0  0  0  0
 19 21  2  0  0  0  0
 22 21  1  0  0  0  0
 22 24  1  0  0  0  0
 23 22  2  0  0  0  0
 25 26  1  0  0  0  0
 25 18  1  0  0  0  0
 27 28  1  0  0  0  0
 29 27  2  0  0  0  0
M  END
>  <Pose>
1

>  <Score>
-6.292

$$$$
