/Users/jonathanwahrer/Desktop/Msc/3_Semester/Drug_Design_Praktikum/waehrer_HTS_screening/HTS_experiment/out/docking_results/vina_output/6q9y/1571_docked.pdbqt
 OpenBabel03222220143D

 28 31  0  0  1  0  0  0  0  0999 V2000
    0.8140   15.4780  -12.2600 O   0  0  0  0  0  0  0  0  0  0  0  0
    0.0320   15.8800  -13.3490 C   0  0  0  0  0  2  0  0  0  0  0  0
   -1.0800   16.7790  -12.9590 C   0  0  0  0  0  0  0  0  0  0  0  0
   -1.0740   17.5080  -11.8250 N   0  0  0  0  0  0  0  0  0  0  0  0
   -2.0890   18.3110  -11.4970 C   0  0  0  0  0  0  0  0  0  0  0  0
   -3.1970   18.4600  -12.2680 N   0  0  0  0  0  0  0  0  0  0  0  0
   -2.0080   19.0310  -10.3070 C   0  0  0  0  0  3  0  0  0  0  0  0
   -4.1880   19.2810  -11.8950 C   0  0  0  0  0  3  0  0  0  0  0  0
   -3.2330   17.7390  -13.4180 C   0  0  0  0  0  0  0  0  0  0  0  0
   -4.1450   20.0060  -10.7280 C   0  0  0  0  0  0  0  0  0  0  0  0
   -5.5940   21.1750  -10.2310 Br  0  0  0  0  0  0  0  0  0  0  0  0
   -3.0350   19.8710   -9.9340 C   0  0  0  0  0  3  0  0  0  0  0  0
   -2.1900   16.9050  -13.7680 C   0  0  0  0  0  3  0  0  0  0  0  0
   -4.2650   17.8840  -14.1300 O   0  0  0  0  0  0  0  0  0  0  0  0
    1.9510   14.7070  -12.3320 C   0  0  0  0  0  0  0  0  0  0  0  0
    2.9350   15.2300  -12.9280 O   0  0  0  0  0  0  0  0  0  0  0  0
    2.0370   13.3400  -11.7520 C   0  0  0  0  0  2  0  0  0  0  0  0
    1.8610   12.3100  -12.7760 N   0  0  0  0  0  0  0  0  0  0  0  0
    2.8810   11.5730  -13.4460 C   0  0  0  0  0  0  0  0  0  0  0  0
    4.1010   11.5510  -13.1460 O   0  0  0  0  0  0  0  0  0  0  0  0
    2.2470   10.8330  -14.5620 C   0  0  2  0  0  3  0  0  0  0  0  0
    0.8760   10.5810  -13.9790 C   0  0  1  0  0  3  0  0  0  0  0  0
    2.9720    9.6250  -14.9960 C   0  0  0  0  0  2  0  0  0  0  0  0
    0.8690    9.4710  -12.9460 C   0  0  0  0  0  2  0  0  0  0  0  0
    0.6180   11.8690  -13.2950 C   0  0  0  0  0  0  0  0  0  0  0  0
    2.1830    8.7410  -12.8550 C   0  0  0  0  0  2  0  0  0  0  0  0
    2.7010    8.3860  -14.2200 C   0  0  0  0  0  2  0  0  0  0  0  0
   -0.4900   12.4800  -13.1810 O   0  0  0  0  0  0  0  0  0  0  0  0
  2  3  1  0  0  0  0
  2  1  1  0  0  0  0
  3  4  1  0  0  0  0
  4  5  2  0  0  0  0
  5  7  1  0  0  0  0
  6  8  1  0  0  0  0
  6  5  1  0  0  0  0
  7 12  2  0  0  0  0
  8 10  2  0  0  0  0
  9  6  1  0  0  0  0
 10 11  1  0  0  0  0
 10 12  1  0  0  0  0
 13  9  1  0  0  0  0
 13  3  2  0  0  0  0
 14  9  2  0  0  0  0
 15  1  1  0  0  0  0
 15 17  1  0  0  0  0
 16 15  2  0  0  0  0
 18 17  1  0  0  0  0
 19 20  2  0  0  0  0
 19 18  1  0  0  0  0
 21 23  1  1  0  0  0
 21 22  1  0  0  0  0
 21 19  1  0  0  0  0
 22 25  1  0  0  0  0
 22 24  1  1  0  0  0
 23 27  1  0  0  0  0
 24 26  1  0  0  0  0
 25 28  2  0  0  0  0
 25 18  1  0  0  0  0
 27 26  1  0  0  0  0
M  END
>  <Pose>
1

>  <Score>
-9.991

$$$$
