/Users/jonathanwahrer/Desktop/Msc/3_Semester/Drug_Design_Praktikum/waehrer_HTS_screening/HTS_experiment/out/docking_results/vina_output/6q9y/1581_docked.pdbqt
 OpenBabel03222220153D

 27 30  0  0  1  0  0  0  0  0999 V2000
    0.3670   14.1790  -12.4750 N   0  0  0  0  0  0  0  0  0  0  0  0
   -0.7780   13.3820  -12.3170 C   0  0  0  0  0  2  0  0  0  0  0  0
   -0.8450   12.1610  -13.1720 C   0  0  0  0  0  2  0  0  0  0  0  0
    0.4780   11.6560  -13.5120 N   0  0  0  0  0  0  0  0  0  0  0  0
    0.7420   10.5500  -14.2060 N   0  0  0  0  0  0  0  0  0  0  0  0
    2.0650   10.4080  -14.3210 C   0  0  0  0  0  0  0  0  0  0  0  0
    2.6410   11.4710  -13.6710 C   0  0  0  0  0  3  0  0  0  0  0  0
    1.6160   12.2690  -13.1530 C   0  0  0  0  0  0  0  0  0  0  0  0
    1.6240   13.5290  -12.3690 C   0  0  0  0  0  2  0  0  0  0  0  0
    0.2920   15.3060  -13.3070 C   0  0  0  0  0  2  0  0  0  0  0  0
   -0.7590   16.2840  -12.9930 C   0  0  0  0  0  0  0  0  0  0  0  0
   -0.7700   17.0560  -11.8920 N   0  0  0  0  0  0  0  0  0  0  0  0
   -1.7520   17.9410  -11.6370 C   0  0  0  0  0  0  0  0  0  0  0  0
   -2.7950   18.1200  -12.4630 N   0  0  0  0  0  0  0  0  0  0  0  0
   -1.6440   18.6840  -10.4570 C   0  0  0  0  0  3  0  0  0  0  0  0
   -3.7800   19.0150  -12.1990 C   0  0  0  0  0  3  0  0  0  0  0  0
   -2.8380   17.3720  -13.5840 C   0  0  0  0  0  0  0  0  0  0  0  0
   -3.6790   19.7480  -11.0380 C   0  0  0  0  0  0  0  0  0  0  0  0
   -4.9530   20.9080  -10.6920 Cl  0  0  0  0  0  0  0  0  0  0  0  0
   -2.6250   19.5970  -10.1610 C   0  0  0  0  0  3  0  0  0  0  0  0
   -1.8340   16.4670  -13.8450 C   0  0  0  0  0  3  0  0  0  0  0  0
   -3.8060   17.5080  -14.3940 O   0  0  0  0  0  0  0  0  0  0  0  0
    2.7750    9.2970  -15.0280 C   0  0  1  0  0  3  0  0  0  0  0  0
    2.6660    9.5300  -16.4080 O   0  0  0  0  0  0  0  0  0  0  0  0
    2.9060   10.4770  -16.6250 H   0  0  0  0  0  0  0  0  0  0  0  0
    4.2690    9.3500  -14.7160 C   0  0  0  0  0  2  0  0  0  0  0  0
    4.6550    8.0620  -14.0050 C   0  0  0  0  0  1  0  0  0  0  0  0
  1  9  1  0  0  0  0
  1  2  1  0  0  0  0
  3  2  1  0  0  0  0
  4  3  1  0  0  0  0
  4  8  1  0  0  0  0
  5  4  1  0  0  0  0
  6  5  2  0  0  0  0
  6  7  1  0  0  0  0
  7  8  2  0  0  0  0
  8  9  1  0  0  0  0
 10 11  1  0  0  0  0
 10  1  1  0  0  0  0
 11 12  1  0  0  0  0
 12 13  2  0  0  0  0
 13 15  1  0  0  0  0
 14 16  1  0  0  0  0
 14 13  1  0  0  0  0
 15 20  2  0  0  0  0
 16 18  2  0  0  0  0
 17 14  1  0  0  0  0
 18 19  1  0  0  0  0
 18 20  1  0  0  0  0
 21 17  1  0  0  0  0
 21 11  2  0  0  0  0
 22 17  2  0  0  0  0
 23 26  1  1  0  0  0
 23  6  1  0  0  0  0
 24 23  1  0  0  0  0
 25 24  1  0  0  0  0
 26 27  1  0  0  0  0
M  END
>  <Pose>
1

>  <Score>
-9.560

$$$$
