/Users/jonathanwahrer/Desktop/Msc/3_Semester/Drug_Design_Praktikum/waehrer_HTS_screening/HTS_experiment/out/docking_results/vina_output/6q9y/1586_docked.pdbqt
 OpenBabel03222220153D

 29 32  0  0  1  0  0  0  0  0999 V2000
    4.8980    5.7240  -13.0340 C   0  0  0  0  0  0  0  0  0  0  0  0
    4.6340    4.5860  -12.4110 O   0  0  0  0  0  0  0  0  0  0  0  0
    3.7780    6.4740  -13.4300 N   0  0  0  0  0  0  0  0  0  0  0  0
    3.8350    7.7060  -14.1330 C   0  0  0  0  0  2  0  0  0  0  0  0
    2.4130    8.0910  -14.5760 C   0  0  1  0  0  3  0  0  0  0  0  0
    1.6400    8.1720  -13.3630 N   0  0  0  0  0  0  0  0  0  0  0  0
    1.5260    6.9890  -12.5780 C   0  0  0  0  0  2  0  0  0  0  0  0
    2.4780    5.9140  -13.0600 C   0  0  0  0  0  2  0  0  0  0  0  0
    1.0270    9.3750  -12.9760 C   0  0  0  0  0  0  0  0  0  0  0  0
    0.0790    9.3350  -12.1710 O   0  0  0  0  0  0  0  0  0  0  0  0
    1.5290   10.6460  -13.5370 C   0  0  1  0  0  3  0  0  0  0  0  0
    1.6710   10.4490  -14.9490 N   0  0  0  0  0  0  0  0  0  0  0  0
    2.3860    9.3070  -15.3870 C   0  0  0  0  0  0  0  0  0  0  0  0
    3.0190    9.3000  -16.4890 O   0  0  0  0  0  0  0  0  0  0  0  0
    1.2690   11.1130  -15.6560 H   0  0  0  0  0  0  0  0  0  0  0  0
    6.3080    5.9560  -13.1770 C   0  0  0  0  0  0  0  0  0  0  0  0
    6.9770    7.1490  -13.0560 C   0  0  0  0  0  3  0  0  0  0  0  0
    8.3520    7.3000  -13.2450 C   0  0  0  0  0  3  0  0  0  0  0  0
    9.1060    6.2190  -13.5680 C   0  0  0  0  0  0  0  0  0  0  0  0
   10.8520    6.3690  -13.8160 Cl  0  0  0  0  0  0  0  0  0  0  0  0
    8.5000    4.9970  -13.7030 C   0  0  0  0  0  3  0  0  0  0  0  0
    7.1400    4.8720  -13.5120 C   0  0  0  0  0  3  0  0  0  0  0  0
    0.7410   11.8350  -13.1420 C   0  0  0  0  0  2  0  0  0  0  0  0
    1.5820   12.7680  -12.3740 C   0  0  0  0  0  0  0  0  0  0  0  0
    1.3110   14.0200  -11.9980 N   0  0  0  0  0  0  0  0  0  0  0  0
    2.3740   14.5200  -11.3010 C   0  0  0  0  0  3  0  0  0  0  0  0
    3.3210   13.5820  -11.2360 N   0  0  0  0  0  0  0  0  0  0  0  0
    2.8620   12.5060  -11.8830 C   0  0  0  0  0  3  0  0  0  0  0  0
    4.2320   13.6660  -10.7780 H   0  0  0  0  0  0  0  0  0  0  0  0
  1  2  2  0  0  0  0
  3  8  1  0  0  0  0
  3  1  1  0  0  0  0
  4  3  1  0  0  0  0
  5  4  1  1  0  0  0
  5  6  1  0  0  0  0
  6  9  1  0  0  0  0
  6  7  1  0  0  0  0
  8  7  1  0  0  0  0
  9 10  2  0  0  0  0
 11 23  1  6  0  0  0
 11  9  1  0  0  0  0
 12 11  1  0  0  0  0
 13 12  1  0  0  0  0
 13  5  1  0  0  0  0
 14 13  2  0  0  0  0
 15 12  1  0  0  0  0
 16 17  1  0  0  0  0
 16  1  1  0  0  0  0
 18 17  2  0  0  0  0
 19 18  1  0  0  0  0
 20 19  1  0  0  0  0
 21 19  2  0  0  0  0
 21 22  1  0  0  0  0
 22 16  2  0  0  0  0
 23 24  1  0  0  0  0
 24 25  1  0  0  0  0
 24 28  2  0  0  0  0
 25 26  2  0  0  0  0
 26 27  1  0  0  0  0
 27 29  1  0  0  0  0
 28 27  1  0  0  0  0
M  END
>  <Pose>
1

>  <Score>
-7.097

$$$$
