/Users/jonathanwahrer/Desktop/Msc/3_Semester/Drug_Design_Praktikum/waehrer_HTS_screening/HTS_experiment/out/docking_results/vina_output/6q9y/1591_docked.pdbqt
 OpenBabel03222220153D

 26 29  0  0  0  0  0  0  0  0999 V2000
   -2.4210    6.0240  -15.0330 Cl  0  0  0  0  0  0  0  0  0  0  0  0
   -2.8210    7.6140  -14.4230 C   0  0  0  0  0  0  0  0  0  0  0  0
   -1.8800    8.3590  -13.7710 C   0  0  0  0  0  0  0  0  0  0  0  0
   -2.3170    9.6060  -13.3150 C   0  0  0  0  0  3  0  0  0  0  0  0
   -3.5800   10.0100  -13.5220 N   0  0  0  0  0  0  0  0  0  0  0  0
   -4.5000    9.3100  -14.1460 N   0  0  0  0  0  0  0  0  0  0  0  0
   -4.1260    8.1070  -14.6010 C   0  0  0  0  0  0  0  0  0  0  0  0
   -4.9340    7.3620  -15.2120 O   0  0  0  0  0  0  0  0  0  0  0  0
   -0.5440    7.9340  -13.5770 N   0  0  0  0  0  0  0  0  0  0  0  0
   -0.0640    7.3950  -12.3150 C   0  0  0  0  0  2  0  0  0  0  0  0
    1.0050    8.2680  -11.7090 C   0  0  0  0  0  2  0  0  0  0  0  0
    1.8520    8.7010  -12.7920 N   0  0  0  0  0  0  0  0  0  0  0  0
    1.8780    7.9020  -13.9900 C   0  0  0  0  0  2  0  0  0  0  0  0
    0.4730    8.0240  -14.6190 C   0  0  0  0  0  2  0  0  0  0  0  0
    2.6380    9.8740  -12.6860 C   0  0  0  0  0  0  0  0  0  0  0  0
    3.8290   10.1310  -13.2990 N   0  0  0  0  0  0  0  0  0  0  0  0
    4.2470   11.3320  -12.9510 N   0  0  0  0  0  0  0  0  0  0  0  0
    3.3470   11.8520  -12.1260 C   0  0  0  0  0  0  0  0  0  0  0  0
    2.3980   10.9650  -11.9830 O   0  0  0  0  0  0  0  0  0  0  0  0
    3.3520   13.1890  -11.4500 C   0  0  0  0  0  1  0  0  0  0  0  0
   -5.8200    9.8140  -14.3240 C   0  0  0  0  0  0  0  0  0  0  0  0
   -6.5960    9.5020  -15.4220 C   0  0  0  0  0  3  0  0  0  0  0  0
   -7.8730    9.9960  -15.5840 C   0  0  0  0  0  3  0  0  0  0  0  0
   -8.4270   10.8330  -14.6370 C   0  0  0  0  0  3  0  0  0  0  0  0
   -7.6580   11.1480  -13.5370 C   0  0  0  0  0  3  0  0  0  0  0  0
   -6.3780   10.6510  -13.3790 C   0  0  0  0  0  3  0  0  0  0  0  0
  1  2  1  0  0  0  0
  2  3  2  0  0  0  0
  3  9  1  0  0  0  0
  3  4  1  0  0  0  0
  5  4  2  0  0  0  0
  6  5  1  0  0  0  0
  7  2  1  0  0  0  0
  7  6  1  0  0  0  0
  8  7  2  0  0  0  0
  9 10  1  0  0  0  0
 10 11  1  0  0  0  0
 12 15  1  0  0  0  0
 12 11  1  0  0  0  0
 13 12  1  0  0  0  0
 14 13  1  0  0  0  0
 14  9  1  0  0  0  0
 15 19  1  0  0  0  0
 16 17  1  0  0  0  0
 16 15  2  0  0  0  0
 17 18  2  0  0  0  0
 18 19  1  0  0  0  0
 18 20  1  0  0  0  0
 21  6  1  0  0  0  0
 21 26  1  0  0  0  0
 22 21  2  0  0  0  0
 23 22  1  0  0  0  0
 23 24  2  0  0  0  0
 24 25  1  0  0  0  0
 25 26  2  0  0  0  0
M  END
>  <Pose>
1

>  <Score>
-8.499

$$$$
