/Users/jonathanwahrer/Desktop/Msc/3_Semester/Drug_Design_Praktikum/waehrer_HTS_screening/HTS_experiment/out/docking_results/vina_output/6q9y/1609_docked.pdbqt
 OpenBabel03222220163D

 26 29  0  0  1  0  0  0  0  0999 V2000
    0.3070    7.0230  -13.2070 N   0  0  0  0  0  0  0  0  0  0  0  0
    0.9420    7.9060  -14.1480 C   0  0  2  0  0  3  0  0  0  0  0  0
    2.3870    7.8400  -13.6960 C   0  0  2  0  0  3  0  0  0  0  0  0
    2.2260    7.9180  -12.2860 O   0  0  0  0  0  0  0  0  0  0  0  0
    1.1110    7.0920  -12.0350 C   0  0  0  0  0  0  0  0  0  0  0  0
    0.9060    6.5230  -10.9160 O   0  0  0  0  0  0  0  0  0  0  0  0
    2.9010    9.0830  -14.3260 C   0  0  0  0  0  2  0  0  0  0  0  0
    1.9000   10.0690  -13.8590 N   0  0  0  0  0  0  0  0  0  0  0  0
    0.6500    9.3780  -13.8050 C   0  0  0  0  0  2  0  0  0  0  0  0
    2.2750   11.3840  -13.5680 C   0  0  0  0  0  0  0  0  0  0  0  0
    3.5160   11.7450  -13.7010 O   0  0  0  0  0  0  0  0  0  0  0  0
   -0.8800    6.2070  -13.3160 C   0  0  0  0  0  2  0  0  0  0  0  0
   -1.5060    6.2320  -14.6840 C   0  0  0  0  0  2  0  0  0  0  0  0
   -2.7710    7.0030  -14.7070 C   0  0  0  0  0  0  0  0  0  0  0  0
   -2.7910    8.3520  -14.3560 C   0  0  0  0  0  3  0  0  0  0  0  0
   -3.9570    9.0790  -14.3750 C   0  0  0  0  0  0  0  0  0  0  0  0
   -3.9320   10.7860  -13.9200 Cl  0  0  0  0  0  0  0  0  0  0  0  0
   -5.1620    8.5180  -14.7400 C   0  0  0  0  0  3  0  0  0  0  0  0
   -5.1470    7.1840  -15.0880 C   0  0  0  0  0  3  0  0  0  0  0  0
   -3.9790    6.4440  -15.0730 C   0  0  0  0  0  3  0  0  0  0  0  0
    1.3990   12.4460  -13.1110 C   0  0  0  0  0  0  0  0  0  0  0  0
    1.6770   13.3880  -12.1700 N   0  0  0  0  0  0  0  0  0  0  0  0
    0.6190   14.1840  -12.0400 C   0  0  0  0  0  3  0  0  0  0  0  0
    2.9180   13.4870  -11.4460 C   0  0  0  0  0  1  0  0  0  0  0  0
   -0.3360   13.7760  -12.8780 N   0  0  0  0  0  0  0  0  0  0  0  0
    0.1330   12.7000  -13.5490 C   0  0  0  0  0  3  0  0  0  0  0  0
  1  5  1  0  0  0  0
  2  9  1  1  0  0  0
  2  3  1  0  0  0  0
  2  1  1  0  0  0  0
  3  7  1  6  0  0  0
  3  4  1  0  0  0  0
  4  5  1  0  0  0  0
  5  6  2  0  0  0  0
  7  8  1  0  0  0  0
  8  9  1  0  0  0  0
  8 10  1  0  0  0  0
 10 21  1  0  0  0  0
 11 10  2  0  0  0  0
 12  1  1  0  0  0  0
 13 12  1  0  0  0  0
 14 13  1  0  0  0  0
 14 15  1  0  0  0  0
 16 15  2  0  0  0  0
 16 17  1  0  0  0  0
 18 16  1  0  0  0  0
 19 20  1  0  0  0  0
 19 18  2  0  0  0  0
 20 14  2  0  0  0  0
 21 22  1  0  0  0  0
 22 23  1  0  0  0  0
 22 24  1  0  0  0  0
 25 23  2  0  0  0  0
 26 21  2  0  0  0  0
 26 25  1  0  0  0  0
M  END
>  <Pose>
1

>  <Score>
-8.454

$$$$
