/Users/jonathanwahrer/Desktop/Msc/3_Semester/Drug_Design_Praktikum/waehrer_HTS_screening/HTS_experiment/out/docking_results/vina_output/6q9y/1612_docked.pdbqt
 OpenBabel03222220163D

 31 34  0  0  0  0  0  0  0  0999 V2000
    2.7860    7.8000  -13.8110 N   0  0  0  0  0  0  0  0  0  0  0  0
    4.1140    7.6630  -14.0060 C   0  0  0  0  0  0  0  0  0  0  0  0
    4.5070    6.5410  -13.3160 C   0  0  0  0  0  0  0  0  0  0  0  0
    3.4340    6.0400  -12.7370 N   0  0  0  0  0  0  0  0  0  0  0  0
    2.3530    6.8050  -13.0310 C   0  0  0  0  0  0  0  0  0  0  0  0
    5.8240    6.1930  -13.3640 N   0  0  0  0  0  0  0  0  0  0  0  0
    6.7170    6.9100  -14.0560 C   0  0  0  0  0  0  0  0  0  0  0  0
    7.9250    6.5450  -14.0700 O   0  0  0  0  0  0  0  0  0  0  0  0
    6.3760    8.0080  -14.7410 N   0  0  0  0  0  0  0  0  0  0  0  0
    5.0740    8.3800  -14.7120 C   0  0  0  0  0  0  0  0  0  0  0  0
    4.7500    9.4040  -15.3520 O   0  0  0  0  0  0  0  0  0  0  0  0
    6.2610    5.0000  -12.6420 C   0  0  0  0  0  1  0  0  0  0  0  0
    7.1050    8.5390  -15.2690 H   0  0  0  0  0  0  0  0  0  0  0  0
    1.0110    6.5040  -12.6170 N   0  0  0  0  0  0  0  0  0  0  0  0
    0.3760    7.4070  -11.6360 C   0  0  0  0  0  2  0  0  0  0  0  0
   -0.9140    7.9630  -12.1460 C   0  0  0  0  0  2  0  0  0  0  0  0
   -1.4850    7.1120  -13.1640 N   0  0  0  0  0  0  0  0  0  0  0  0
   -1.2540    5.6880  -13.0470 C   0  0  0  0  0  2  0  0  0  0  0  0
   -2.2490    7.6610  -14.2290 C   0  0  0  0  0  0  0  0  0  0  0  0
    0.2390    5.4090  -13.0830 C   0  0  0  0  0  2  0  0  0  0  0  0
   -2.4510    8.8930  -14.2930 O   0  0  0  0  0  0  0  0  0  0  0  0
   -2.8240    6.7980  -15.2880 C   0  0  0  0  0  2  0  0  0  0  0  0
   -4.3010    7.1630  -15.4150 C   0  0  0  0  0  1  0  0  0  0  0  0
    2.0160    8.8360  -14.4220 C   0  0  0  0  0  2  0  0  0  0  0  0
    1.9580   10.1210  -13.6870 C   0  0  0  0  0  0  0  0  0  0  0  0
    0.9270   11.0030  -13.8470 C   0  0  0  0  0  3  0  0  0  0  0  0
    0.9680   12.2070  -13.1550 C   0  0  0  0  0  0  0  0  0  0  0  0
   -0.3790   13.3220  -13.3790 Cl  0  0  0  0  0  0  0  0  0  0  0  0
    1.9990   12.5590  -12.3120 C   0  0  0  0  0  3  0  0  0  0  0  0
    3.0360   11.6540  -12.1620 C   0  0  0  0  0  3  0  0  0  0  0  0
    3.0220   10.4630  -12.8300 C   0  0  0  0  0  3  0  0  0  0  0  0
  1  5  1  0  0  0  0
  2  1  1  0  0  0  0
  2  3  2  0  0  0  0
  3  4  1  0  0  0  0
  5  4  2  0  0  0  0
  5 14  1  0  0  0  0
  6  3  1  0  0  0  0
  6 12  1  0  0  0  0
  7  6  1  0  0  0  0
  8  7  2  0  0  0  0
  9 10  1  0  0  0  0
  9  7  1  0  0  0  0
 10  2  1  0  0  0  0
 11 10  2  0  0  0  0
 13  9  1  0  0  0  0
 14 15  1  0  0  0  0
 16 15  1  0  0  0  0
 17 18  1  0  0  0  0
 17 16  1  0  0  0  0
 19 17  1  0  0  0  0
 20 18  1  0  0  0  0
 20 14  1  0  0  0  0
 21 19  2  0  0  0  0
 22 19  1  0  0  0  0
 23 22  1  0  0  0  0
 24  1  1  0  0  0  0
 24 25  1  0  0  0  0
 25 31  1  0  0  0  0
 26 25  2  0  0  0  0
 26 27  1  0  0  0  0
 27 29  2  0  0  0  0
 28 27  1  0  0  0  0
 29 30  1  0  0  0  0
 31 30  2  0  0  0  0
M  END
>  <Pose>
1

>  <Score>
-7.951

$$$$
