/Users/jonathanwahrer/Desktop/Msc/3_Semester/Drug_Design_Praktikum/waehrer_HTS_screening/HTS_experiment/out/docking_results/vina_output/6q9y/1622_docked.pdbqt
 OpenBabel03222220163D

 28 31  0  0  1  0  0  0  0  0999 V2000
    2.5810   11.1770  -13.8120 C   0  0  0  0  0  0  0  0  0  0  0  0
    3.7470   10.8340  -14.1370 O   0  0  0  0  0  0  0  0  0  0  0  0
    1.4320   10.4550  -14.2310 N   0  0  0  0  0  0  0  0  0  0  0  0
    1.6120    9.2830  -15.0600 C   0  0  0  0  0  2  0  0  0  0  0  0
    0.4190    8.3780  -14.8090 C   0  0  0  0  0  2  0  0  0  0  0  0
   -0.0460    8.4410  -13.3700 C   0  0  1  0  0  0  0  0  0  0  0  0
   -1.0230    7.3920  -13.1920 N   0  0  0  0  0  0  0  0  0  0  0  0
   -0.3370    6.1940  -12.8620 C   0  0  0  0  0  0  0  0  0  0  0  0
   -0.7570    4.9980  -12.9610 O   0  0  0  0  0  0  0  0  0  0  0  0
    0.9490    6.5980  -12.3850 N   0  0  0  0  0  0  0  0  0  0  0  0
    1.0260    8.0240  -12.4310 C   0  0  0  0  0  0  0  0  0  0  0  0
    1.8480    8.7370  -11.7920 O   0  0  0  0  0  0  0  0  0  0  0  0
    2.0380    5.7380  -11.9160 C   0  0  0  0  0  1  0  0  0  0  0  0
   -0.5790    9.7940  -13.0030 C   0  0  0  0  0  2  0  0  0  0  0  0
    0.0770   10.8170  -13.8800 C   0  0  0  0  0  2  0  0  0  0  0  0
   -2.0480    7.5180  -13.2950 H   0  0  0  0  0  0  0  0  0  0  0  0
    2.4740   12.3740  -12.9720 C   0  0  0  0  0  0  0  0  0  0  0  0
    3.3610   12.5850  -11.9390 C   0  0  0  0  0  0  0  0  0  0  0  0
    4.6270   11.3840  -11.6510 Cl  0  0  0  0  0  0  0  0  0  0  0  0
    3.2840   13.7010  -11.1320 C   0  0  0  0  0  3  0  0  0  0  0  0
    2.2810   14.6030  -11.3990 C   0  0  0  0  0  3  0  0  0  0  0  0
    1.3670   14.4330  -12.4270 C   0  0  0  0  0  0  0  0  0  0  0  0
    1.4830   13.3020  -13.2070 C   0  0  0  0  0  3  0  0  0  0  0  0
    0.3490   15.4070  -12.6510 N   0  0  0  0  0  0  0  0  0  0  0  0
   -0.0530   16.3670  -11.8550 N   0  0  0  0  0  0  0  0  0  0  0  0
   -1.0520   17.0750  -12.4590 C   0  0  0  0  0  3  0  0  0  0  0  0
   -1.2780   16.5200  -13.6980 C   0  0  0  0  0  3  0  0  0  0  0  0
   -0.3690   15.4620  -13.7860 C   0  0  0  0  0  3  0  0  0  0  0  0
  1 17  1  0  0  0  0
  2  1  2  0  0  0  0
  3 15  1  0  0  0  0
  3  1  1  0  0  0  0
  4  5  1  0  0  0  0
  4  3  1  0  0  0  0
  6  5  1  6  0  0  0
  6  7  1  0  0  0  0
  6 14  1  0  0  0  0
  6 11  1  0  0  0  0
  7  8  1  0  0  0  0
  8 10  1  0  0  0  0
  9  8  2  0  0  0  0
 10 13  1  0  0  0  0
 11 10  1  0  0  0  0
 11 12  2  0  0  0  0
 15 14  1  0  0  0  0
 16  7  1  0  0  0  0
 17 18  1  0  0  0  0
 18 19  1  0  0  0  0
 18 20  2  0  0  0  0
 21 20  1  0  0  0  0
 22 21  2  0  0  0  0
 23 17  2  0  0  0  0
 23 22  1  0  0  0  0
 24 22  1  0  0  0  0
 24 25  1  0  0  0  0
 26 25  2  0  0  0  0
 27 26  1  0  0  0  0
 28 27  2  0  0  0  0
 28 24  1  0  0  0  0
M  END
>  <Pose>
1

>  <Score>
-7.357

$$$$
