/Users/jonathanwahrer/Desktop/Msc/3_Semester/Drug_Design_Praktikum/waehrer_HTS_screening/HTS_experiment/out/docking_results/vina_output/6q9y/1624_docked.pdbqt
 OpenBabel03222220163D

 32 35  0  0  1  0  0  0  0  0999 V2000
    2.4820    8.1590  -12.7890 C   0  0  1  0  0  3  0  0  0  0  0  0
    3.0800    9.1910  -13.6550 N   0  0  0  0  0  0  0  0  0  0  0  0
    2.5200    9.0600  -14.9550 C   0  0  0  0  0  0  0  0  0  0  0  0
    2.9890    9.4720  -16.0170 O   0  0  0  0  0  0  0  0  0  0  0  0
    1.2460    8.3280  -14.8090 C   0  0  0  0  0  0  0  0  0  0  0  0
    0.4270    7.9930  -15.7250 O   0  0  0  0  0  0  0  0  0  0  0  0
    1.1110    8.0570  -13.3870 C   0  0  0  0  0  0  0  0  0  0  0  0
   -0.0200    7.7530  -12.8000 C   0  0  0  0  0  0  0  0  0  0  0  0
    0.0070    7.4740  -11.4370 O   0  0  0  0  0  1  0  0  0  0  0  0
    4.0510   10.1270  -13.1480 C   0  0  0  0  0  2  0  0  0  0  0  0
    3.7040   11.5600  -13.2900 C   0  0  0  0  0  2  0  0  0  0  0  0
    2.8030   12.1420  -12.3670 N   0  0  0  0  0  4  0  0  0  0  0  0
    1.4310   12.1820  -12.8270 C   0  0  0  0  0  2  0  0  0  0  0  0
    0.8270   13.5660  -12.8160 C   0  0  0  0  0  2  0  0  0  0  0  0
    1.0070   14.2640  -11.6500 O   0  0  0  0  0  0  0  0  0  0  0  0
    2.3040   14.2240  -11.1740 C   0  0  0  0  0  2  0  0  0  0  0  0
    3.1850   13.5580  -12.1880 C   0  0  0  0  0  2  0  0  0  0  0  0
    2.8730   11.7470  -11.4150 H   0  0  0  0  0  0  0  0  0  0  0  0
    3.2450    6.9220  -12.8990 C   0  0  0  0  0  0  0  0  0  0  0  0
    4.4930    6.8650  -13.4330 C   0  0  0  0  0  3  0  0  0  0  0  0
    5.2260    5.6920  -13.5320 C   0  0  0  0  0  3  0  0  0  0  0  0
    4.6840    4.5260  -13.0780 C   0  0  0  0  0  0  0  0  0  0  0  0
    5.5520    3.0190  -13.1720 Cl  0  0  0  0  0  0  0  0  0  0  0  0
    3.4020    4.5500  -12.5230 C   0  0  0  0  0  3  0  0  0  0  0  0
    2.6940    5.7270  -12.4350 C   0  0  0  0  0  3  0  0  0  0  0  0
   -1.3270    7.6820  -13.4450 C   0  0  0  0  0  0  0  0  0  0  0  0
   -2.0310    8.8770  -13.5370 C   0  0  0  0  0  3  0  0  0  0  0  0
   -3.2510    8.8910  -14.1520 C   0  0  0  0  0  3  0  0  0  0  0  0
   -3.8000    7.7400  -14.6830 C   0  0  0  0  0  0  0  0  0  0  0  0
   -3.0980    6.5570  -14.5890 C   0  0  0  0  0  3  0  0  0  0  0  0
   -5.3510    7.8060  -15.4530 Cl  0  0  0  0  0  0  0  0  0  0  0  0
   -1.8660    6.5560  -13.9670 C   0  0  0  0  0  3  0  0  0  0  0  0
  1 19  1  6  0  0  0
  2 10  1  0  0  0  0
  2  1  1  0  0  0  0
  3  5  1  0  0  0  0
  3  2  1  0  0  0  0
  4  3  2  0  0  0  0
  5  7  1  0  0  0  0
  6  5  2  0  0  0  0
  7  8  2  0  0  0  0
  7  1  1  0  0  0  0
  8  9  1  0  0  0  0
 11 10  1  0  0  0  0
 11 12  1  0  0  0  0
 12 17  1  0  0  0  0
 12 18  1  0  0  0  0
 13 14  1  0  0  0  0
 13 12  1  0  0  0  0
 14 15  1  0  0  0  0
 15 16  1  0  0  0  0
 17 16  1  0  0  0  0
 19 25  1  0  0  0  0
 20 19  2  0  0  0  0
 21 20  1  0  0  0  0
 21 22  2  0  0  0  0
 22 24  1  0  0  0  0
 23 22  1  0  0  0  0
 24 25  2  0  0  0  0
 26  8  1  0  0  0  0
 27 26  1  0  0  0  0
 28 27  2  0  0  0  0
 29 30  2  0  0  0  0
 29 28  1  0  0  0  0
 30 32  1  0  0  0  0
 31 29  1  0  0  0  0
 32 26  2  0  0  0  0
M  END
>  <Pose>
1

>  <Score>
-8.942

$$$$
